=
 OpenBabel10272413503D

 30 33  0  0  1  0  0  0  0  0999 V2000
  187.3240  177.6140  144.1820 C   0  0  1  0  0  0  0  0  0  0  0  0
  188.7670  177.3870  144.6960 C   0  0  2  0  0  3  0  0  0  0  0  0
  187.1690  178.6560  147.8880 C   0  0  0  0  0  2  0  0  0  0  0  0
  184.4040  178.9130  144.3640 C   0  0  1  0  0  3  0  0  0  0  0  0
  187.4690  178.1470  146.5030 C   0  0  0  0  0  0  0  0  0  0  0  0
  189.6940  177.2400  147.1750 C   0  0  0  0  0  2  0  0  0  0  0  0
  184.6830  178.3310  143.0150 C   0  0  1  0  0  3  0  0  0  0  0  0
  188.6450  177.6240  146.1650 C   0  0  0  0  0  0  0  0  0  0  0  0
  186.6640  178.4630  145.2940 C   0  0  2  0  0  3  0  0  0  0  0  0
  183.3850  178.6320  142.2950 C   0  0  0  0  0  2  0  0  0  0  0  0
  182.9190  178.7090  144.5110 C   0  0  0  0  0  2  0  0  0  0  0  0
  189.5240  178.0250  148.4780 C   0  0  0  0  0  2  0  0  0  0  0  0
  188.0650  177.9840  148.9310 C   0  0  0  0  0  2  0  0  0  0  0  0
  187.2530  178.3000  142.8020 C   0  0  0  0  0  2  0  0  0  0  0  0
  185.9370  178.9980  142.4090 C   0  0  1  0  0  3  0  0  0  0  0  0
  182.3340  178.6550  143.2320 O   0  0  0  0  0  0  0  0  0  0  0  0
  186.6990  176.2250  144.0590 C   0  0  0  0  0  1  0  0  0  0  0  0
  185.1700  178.2080  145.4730 C   0  0  0  0  0  2  0  0  0  0  0  0
  185.9050  179.0820  140.9130 C   0  0  0  0  0  3  0  0  0  0  0  0
  186.8370  178.6600  140.2480 O   0  0  0  0  0  0  0  0  0  0  0  0
  189.7950  178.3630  144.1220 C   0  0  0  0  0  2  0  0  0  0  0  0
  191.1240  177.6600  143.8840 C   0  0  0  0  0  2  0  0  0  0  0  0
  190.9200  176.1920  143.5450 C   0  0  0  0  0  2  0  0  0  0  0  0
  190.2170  176.0540  142.2030 C   0  0  0  0  0  2  0  0  0  0  0  0
  190.8860  176.9320  141.1630 C   0  0  0  0  0  2  0  0  0  0  0  0
  189.8800  177.3840  140.1190 C   0  0  0  0  0  2  0  0  0  0  0  0
  189.8530  177.3820  137.5730 N   0  0  0  0  0  2  0  0  0  0  0  0
  189.1800  178.6700  137.5150 C   0  0  0  0  0  1  0  0  0  0  0  0
  190.1870  176.7430  138.8070 C   0  0  0  0  0  0  0  0  0  0  0  0
  190.7780  175.6330  138.7870 O   0  0  0  0  0  0  0  0  0  0  0  0
  1 17  1  6  0  0  0
  1  2  1  0  0  0  0
  1  9  1  0  0  0  0
  2 21  1  6  0  0  0
  2  8  1  0  0  0  0
  3 13  1  0  0  0  0
  4 11  1  1  0  0  0
  4 18  1  0  0  0  0
  5  3  1  0  0  0  0
  6 12  1  0  0  0  0
  7 10  1  6  0  0  0
  7  4  1  0  0  0  0
  8  5  2  0  0  0  0
  8  6  1  0  0  0  0
  9 18  1  1  0  0  0
  9  5  1  0  0  0  0
 10 16  1  0  0  0  0
 12 13  1  0  0  0  0
 14  1  1  0  0  0  0
 15 19  1  6  0  0  0
 15 14  1  0  0  0  0
 15  7  1  0  0  0  0
 16 11  1  0  0  0  0
 20 19  2  0  0  0  0
 22 21  1  0  0  0  0
 23 22  1  0  0  0  0
 24 23  1  0  0  0  0
 25 24  1  0  0  0  0
 26 25  1  0  0  0  0
 27 29  1  0  0  0  0
 28 27  1  0  0  0  0
 29 26  1  0  0  0  0
 30 29  2  0  0  0  0
M  END
>  <MODEL>
1

>  <REMARK>
 VINA RESULT:      -8.8      0.000      0.000
  Name = 
  8 active torsions:
  status: ('A' for Active; 'I' for Inactive)
    1  A    between atoms: C_1  and  C_5
    2  A    between atoms: C_1  and  C_22
    3  A    between atoms: C_2  and  C_18
    4  A    between atoms: C_2  and  C_22
    5  A    between atoms: C_11  and  C_25
    6  A    between atoms: C_14  and  C_18
    7  A    between atoms: C_14  and  C_20
    8  A    between atoms: C_20  and  C_28
                            x       y       z     vdW  Elec       q    Type
                         _______ _______ _______ _____ _____    ______ ____

>  <TORSDO>
F 8

$$$$
=
 OpenBabel10272413503D

 30 33  0  0  1  0  0  0  0  0999 V2000
  187.7340  177.5710  143.9660 C   0  0  1  0  0  0  0  0  0  0  0  0
  186.8420  177.7030  145.2240 C   0  0  2  0  0  3  0  0  0  0  0  0
  184.4990  179.1960  142.6480 C   0  0  0  0  0  2  0  0  0  0  0  0
  188.5690  178.3280  140.9690 C   0  0  1  0  0  3  0  0  0  0  0  0
  185.6230  178.5170  143.3860 C   0  0  0  0  0  0  0  0  0  0  0  0
  184.2390  178.1610  145.4320 C   0  0  0  0  0  2  0  0  0  0  0  0
  189.6470  177.5810  141.6870 C   0  0  1  0  0  3  0  0  0  0  0  0
  185.5360  178.1660  144.6670 C   0  0  0  0  0  0  0  0  0  0  0  0
  187.0320  178.4660  142.9180 C   0  0  2  0  0  3  0  0  0  0  0  0
  190.7140  177.5110  140.6150 C   0  0  0  0  0  2  0  0  0  0  0  0
  188.7540  177.8860  139.5420 C   0  0  0  0  0  2  0  0  0  0  0  0
  183.2210  179.1160  144.8050 C   0  0  0  0  0  2  0  0  0  0  0  0
  183.1460  178.8910  143.2940 C   0  0  0  0  0  2  0  0  0  0  0  0
  189.2030  177.9810  144.1960 C   0  0  0  0  0  2  0  0  0  0  0  0
  190.0520  178.3490  142.9640 C   0  0  1  0  0  3  0  0  0  0  0  0
  190.0960  177.5050  139.3490 O   0  0  0  0  0  0  0  0  0  0  0  0
  187.7040  176.0910  143.5840 C   0  0  0  0  0  1  0  0  0  0  0  0
  187.1790  177.9790  141.4780 C   0  0  0  0  0  2  0  0  0  0  0  0
  191.4910  178.1630  143.3410 C   0  0  0  0  0  3  0  0  0  0  0  0
  192.0300  178.9250  144.1270 O   0  0  0  0  0  0  0  0  0  0  0  0
  187.3390  178.7350  146.2370 C   0  0  0  0  0  2  0  0  0  0  0  0
  186.8620  178.3800  147.6380 C   0  0  0  0  0  2  0  0  0  0  0  0
  187.8640  177.4910  148.3560 C   0  0  0  0  0  2  0  0  0  0  0  0
  189.2760  177.7970  147.8810 C   0  0  0  0  0  2  0  0  0  0  0  0
  189.9840  176.5210  147.4680 C   0  0  0  0  0  2  0  0  0  0  0  0
  191.3380  176.8350  146.8570 C   0  0  0  0  0  2  0  0  0  0  0  0
  192.5970  174.7870  146.0180 N   0  0  0  0  0  2  0  0  0  0  0  0
  192.0330  174.9070  144.6830 C   0  0  0  0  0  1  0  0  0  0  0  0
  192.2710  175.6910  147.0760 C   0  0  0  0  0  0  0  0  0  0  0  0
  192.8020  175.5360  148.2060 O   0  0  0  0  0  0  0  0  0  0  0  0
  1 17  1  6  0  0  0
  1 14  1  0  0  0  0
  1  2  1  0  0  0  0
  2 21  1  1  0  0  0
  3 13  1  0  0  0  0
  3  5  1  0  0  0  0
  4 11  1  6  0  0  0
  4 18  1  0  0  0  0
  4  7  1  0  0  0  0
  5  8  2  0  0  0  0
  7 10  1  6  0  0  0
  7 15  1  0  0  0  0
  8  2  1  0  0  0  0
  8  6  1  0  0  0  0
  9 18  1  6  0  0  0
  9  5  1  0  0  0  0
  9  1  1  0  0  0  0
 12  6  1  0  0  0  0
 13 12  1  0  0  0  0
 15 19  1  1  0  0  0
 15 14  1  0  0  0  0
 16 11  1  0  0  0  0
 16 10  1  0  0  0  0
 19 20  2  0  0  0  0
 21 22  1  0  0  0  0
 22 23  1  0  0  0  0
 24 23  1  0  0  0  0
 25 24  1  0  0  0  0
 26 29  1  0  0  0  0
 26 25  1  0  0  0  0
 27 29  1  0  0  0  0
 28 27  1  0  0  0  0
 29 30  2  0  0  0  0
M  END
>  <MODEL>
2

>  <REMARK>
 VINA RESULT:      -8.7      2.956      6.106
  Name = 
  8 active torsions:
  status: ('A' for Active; 'I' for Inactive)
    1  A    between atoms: C_1  and  C_5
    2  A    between atoms: C_1  and  C_22
    3  A    between atoms: C_2  and  C_18
    4  A    between atoms: C_2  and  C_22
    5  A    between atoms: C_11  and  C_25
    6  A    between atoms: C_14  and  C_18
    7  A    between atoms: C_14  and  C_20
    8  A    between atoms: C_20  and  C_28
                            x       y       z     vdW  Elec       q    Type
                         _______ _______ _______ _____ _____    ______ ____

>  <TORSDO>
F 8

$$$$
=
 OpenBabel10272413503D

 30 33  0  0  1  0  0  0  0  0999 V2000
  188.0150  177.3570  143.6520 C   0  0  1  0  0  0  0  0  0  0  0  0
  189.5270  177.0250  143.6630 C   0  0  2  0  0  3  0  0  0  0  0  0
  189.0730  177.9500  147.3090 C   0  0  0  0  0  2  0  0  0  0  0  0
  185.3840  178.7140  144.8710 C   0  0  1  0  0  3  0  0  0  0  0  0
  188.8990  177.6020  145.8530 C   0  0  0  0  0  0  0  0  0  0  0  0
  191.1570  176.5530  145.6990 C   0  0  0  0  0  2  0  0  0  0  0  0
  185.1970  178.2900  143.4490 C   0  0  1  0  0  3  0  0  0  0  0  0
  189.8770  177.0870  145.1130 C   0  0  0  0  0  0  0  0  0  0  0  0
  187.7850  178.0860  144.9960 C   0  0  2  0  0  3  0  0  0  0  0  0
  183.7640  178.7150  143.2060 C   0  0  0  0  0  2  0  0  0  0  0  0
  184.0060  178.5390  145.4520 C   0  0  0  0  0  2  0  0  0  0  0  0
  191.4480  177.1800  147.0640 C   0  0  0  0  0  2  0  0  0  0  0  0
  190.1980  177.1310  147.9440 C   0  0  0  0  0  2  0  0  0  0  0  0
  187.5700  178.2050  142.4430 C   0  0  0  0  0  2  0  0  0  0  0  0
  186.2470  178.9860  142.5550 C   0  0  1  0  0  3  0  0  0  0  0  0
  183.0550  178.6580  144.4210 O   0  0  0  0  0  0  0  0  0  0  0  0
  187.2910  176.0120  143.5860 C   0  0  0  0  0  1  0  0  0  0  0  0
  186.4040  177.8580  145.6050 C   0  0  0  0  0  2  0  0  0  0  0  0
  185.7640  179.2490  141.1610 C   0  0  0  0  0  3  0  0  0  0  0  0
  186.3280  178.7470  140.2030 O   0  0  0  0  0  0  0  0  0  0  0  0
  190.3930  178.0310  142.9020 C   0  0  0  0  0  2  0  0  0  0  0  0
  191.3450  177.3100  141.9590 C   0  0  0  0  0  2  0  0  0  0  0  0
  190.5880  176.5990  140.8480 C   0  0  0  0  0  2  0  0  0  0  0  0
  190.7710  177.3350  139.5300 C   0  0  0  0  0  2  0  0  0  0  0  0
  189.4870  178.0400  139.1350 C   0  0  0  0  0  2  0  0  0  0  0  0
  188.9590  177.4920  137.8220 C   0  0  0  0  0  2  0  0  0  0  0  0
  187.2350  178.3230  136.1420 N   0  0  0  0  0  2  0  0  0  0  0  0
  186.7070  176.9850  135.9250 C   0  0  0  0  0  1  0  0  0  0  0  0
  188.3180  178.5870  137.0360 C   0  0  0  0  0  0  0  0  0  0  0  0
  188.7210  179.7690  137.1850 O   0  0  0  0  0  0  0  0  0  0  0  0
  1 17  1  1  0  0  0
  1  2  1  0  0  0  0
  1  9  1  0  0  0  0
  2 21  1  6  0  0  0
  2  8  1  0  0  0  0
  3 13  1  0  0  0  0
  4 11  1  1  0  0  0
  4 18  1  0  0  0  0
  5  3  1  0  0  0  0
  6 12  1  0  0  0  0
  7 10  1  6  0  0  0
  7  4  1  0  0  0  0
  8  6  1  0  0  0  0
  8  5  2  0  0  0  0
  9 18  1  1  0  0  0
  9  5  1  0  0  0  0
 10 16  1  0  0  0  0
 12 13  1  0  0  0  0
 14 15  1  0  0  0  0
 14  1  1  0  0  0  0
 15 19  1  6  0  0  0
 15  7  1  0  0  0  0
 16 11  1  0  0  0  0
 20 19  2  0  0  0  0
 22 21  1  0  0  0  0
 23 22  1  0  0  0  0
 24 23  1  0  0  0  0
 25 24  1  0  0  0  0
 26 25  1  0  0  0  0
 27 29  1  0  0  0  0
 28 27  1  0  0  0  0
 29 30  2  0  0  0  0
 29 26  1  0  0  0  0
M  END
>  <MODEL>
3

>  <REMARK>
 VINA RESULT:      -8.1      1.528      2.102
  Name = 
  8 active torsions:
  status: ('A' for Active; 'I' for Inactive)
    1  A    between atoms: C_1  and  C_5
    2  A    between atoms: C_1  and  C_22
    3  A    between atoms: C_2  and  C_18
    4  A    between atoms: C_2  and  C_22
    5  A    between atoms: C_11  and  C_25
    6  A    between atoms: C_14  and  C_18
    7  A    between atoms: C_14  and  C_20
    8  A    between atoms: C_20  and  C_28
                            x       y       z     vdW  Elec       q    Type
                         _______ _______ _______ _____ _____    ______ ____

>  <TORSDO>
F 8

$$$$
=
 OpenBabel10272413503D

 30 33  0  0  1  0  0  0  0  0999 V2000
  189.4360  178.0050  144.0140 C   0  0  1  0  0  0  0  0  0  0  0  0
  189.2510  177.9510  145.5500 C   0  0  2  0  0  3  0  0  0  0  0  0
  191.9310  175.3020  145.1610 C   0  0  0  0  0  2  0  0  0  0  0  0
  190.3990  176.7880  141.2140 C   0  0  1  0  0  3  0  0  0  0  0  0
  190.9350  176.4160  144.9730 C   0  0  0  0  0  0  0  0  0  0  0  0
  190.7930  176.8790  147.4210 C   0  0  0  0  0  2  0  0  0  0  0  0
  189.4720  177.9480  141.0400 C   0  0  1  0  0  3  0  0  0  0  0  0
  190.3430  177.0340  145.9920 C   0  0  0  0  0  0  0  0  0  0  0  0
  190.2450  176.7260  143.6940 C   0  0  2  0  0  3  0  0  0  0  0  0
  189.3990  178.0360  139.5300 C   0  0  0  0  0  2  0  0  0  0  0  0
  191.2990  176.9000  140.0120 C   0  0  0  0  0  2  0  0  0  0  0  0
  191.5460  175.5630  147.6260 C   0  0  0  0  0  2  0  0  0  0  0  0
  192.6010  175.3830  146.5340 C   0  0  0  0  0  2  0  0  0  0  0  0
  188.1110  178.0710  143.2270 C   0  0  0  0  0  2  0  0  0  0  0  0
  188.1300  177.6540  141.7440 C   0  0  1  0  0  3  0  0  0  0  0  0
  190.6080  177.5660  138.9820 O   0  0  0  0  0  0  0  0  0  0  0  0
  190.2260  179.2820  143.7310 C   0  0  0  0  0  1  0  0  0  0  0  0
  191.1960  176.8660  142.5070 C   0  0  0  0  0  2  0  0  0  0  0  0
  186.9530  178.3030  141.0820 C   0  0  0  0  0  3  0  0  0  0  0  0
  186.5750  179.4090  141.4330 O   0  0  0  0  0  0  0  0  0  0  0  0
  187.9080  177.3710  145.9980 C   0  0  0  0  0  2  0  0  0  0  0  0
  187.2370  178.2930  147.0050 C   0  0  0  0  0  2  0  0  0  0  0  0
  185.7360  178.3680  146.7730 C   0  0  0  0  0  2  0  0  0  0  0  0
  185.4340  179.2020  145.5370 C   0  0  0  0  0  2  0  0  0  0  0  0
  184.4760  178.4630  144.6220 C   0  0  0  0  0  2  0  0  0  0  0  0
  183.3050  179.3530  144.2450 C   0  0  0  0  0  2  0  0  0  0  0  0
  181.3160  178.6720  142.8080 N   0  0  0  0  0  2  0  0  0  0  0  0
  180.3800  178.8440  143.9080 C   0  0  0  0  0  1  0  0  0  0  0  0
  182.7200  178.8990  142.9490 C   0  0  0  0  0  0  0  0  0  0  0  0
  183.4740  178.7420  141.9550 O   0  0  0  0  0  0  0  0  0  0  0  0
  1 17  1  6  0  0  0
  1  2  1  0  0  0  0
  2  8  1  0  0  0  0
  2 21  1  6  0  0  0
  3 13  1  0  0  0  0
  4 11  1  6  0  0  0
  4 18  1  0  0  0  0
  5  3  1  0  0  0  0
  5  8  2  0  0  0  0
  6 12  1  0  0  0  0
  7 10  1  6  0  0  0
  7  4  1  0  0  0  0
  7 15  1  0  0  0  0
  8  6  1  0  0  0  0
  9 18  1  6  0  0  0
  9  1  1  0  0  0  0
  9  5  1  0  0  0  0
 13 12  1  0  0  0  0
 14  1  1  0  0  0  0
 15 19  1  6  0  0  0
 15 14  1  0  0  0  0
 16 10  1  0  0  0  0
 16 11  1  0  0  0  0
 19 20  2  0  0  0  0
 21 22  1  0  0  0  0
 23 22  1  0  0  0  0
 24 23  1  0  0  0  0
 25 24  1  0  0  0  0
 26 25  1  0  0  0  0
 27 29  1  0  0  0  0
 27 28  1  0  0  0  0
 29 26  1  0  0  0  0
 30 29  2  0  0  0  0
M  END
>  <MODEL>
4

>  <REMARK>
 VINA RESULT:      -8.1      2.351      6.123
  Name = 
  8 active torsions:
  status: ('A' for Active; 'I' for Inactive)
    1  A    between atoms: C_1  and  C_5
    2  A    between atoms: C_1  and  C_22
    3  A    between atoms: C_2  and  C_18
    4  A    between atoms: C_2  and  C_22
    5  A    between atoms: C_11  and  C_25
    6  A    between atoms: C_14  and  C_18
    7  A    between atoms: C_14  and  C_20
    8  A    between atoms: C_20  and  C_28
                            x       y       z     vdW  Elec       q    Type
                         _______ _______ _______ _____ _____    ______ ____

>  <TORSDO>
F 8

$$$$
=
 OpenBabel10272413503D

 30 33  0  0  1  0  0  0  0  0999 V2000
  187.8500  177.2340  143.6260 C   0  0  1  0  0  0  0  0  0  0  0  0
  189.2960  176.7920  143.2910 C   0  0  2  0  0  3  0  0  0  0  0  0
  189.7400  177.6270  146.9600 C   0  0  0  0  0  2  0  0  0  0  0  0
  185.6730  178.7380  145.4260 C   0  0  1  0  0  3  0  0  0  0  0  0
  189.2200  177.3410  145.5760 C   0  0  0  0  0  0  0  0  0  0  0  0
  191.2970  176.1350  144.9010 C   0  0  0  0  0  2  0  0  0  0  0  0
  185.1400  178.3760  144.0760 C   0  0  1  0  0  3  0  0  0  0  0  0
  189.9650  176.7810  144.6260 C   0  0  0  0  0  0  0  0  0  0  0  0
  187.9840  177.9330  144.9990 C   0  0  2  0  0  3  0  0  0  0  0  0
  183.7270  178.9130  144.1680 C   0  0  0  0  0  2  0  0  0  0  0  0
  184.4490  178.6460  146.3000 C   0  0  0  0  0  2  0  0  0  0  0  0
  191.9330  176.6940  146.1760 C   0  0  0  0  0  2  0  0  0  0  0  0
  190.9110  176.7070  147.3130 C   0  0  0  0  0  2  0  0  0  0  0  0
  187.2150  178.1510  142.5610 C   0  0  0  0  0  2  0  0  0  0  0  0
  186.0160  179.0230  142.9800 C   0  0  1  0  0  3  0  0  0  0  0  0
  183.3040  178.8680  145.5110 O   0  0  0  0  0  0  0  0  0  0  0  0
  187.0260  175.9480  143.7030 C   0  0  0  0  0  1  0  0  0  0  0  0
  186.7610  177.7860  145.8990 C   0  0  0  0  0  2  0  0  0  0  0  0
  185.2560  179.3670  141.7350 C   0  0  0  0  0  3  0  0  0  0  0  0
  185.8060  179.3450  140.6470 O   0  0  0  0  0  0  0  0  0  0  0  0
  190.0470  177.7560  142.3720 C   0  0  0  0  0  2  0  0  0  0  0  0
  190.4040  177.0730  141.0590 C   0  0  0  0  0  2  0  0  0  0  0  0
  189.5370  177.5790  139.9180 C   0  0  0  0  0  2  0  0  0  0  0  0
  189.7590  176.7370  138.6720 C   0  0  0  0  0  2  0  0  0  0  0  0
  191.1110  176.0500  138.7330 C   0  0  0  0  0  2  0  0  0  0  0  0
  191.9650  176.4470  137.5420 C   0  0  0  0  0  2  0  0  0  0  0  0
  193.3760  174.5400  136.6160 N   0  0  0  0  0  2  0  0  0  0  0  0
  192.3360  174.1380  135.6810 C   0  0  0  0  0  1  0  0  0  0  0  0
  193.2160  175.6340  137.5210 C   0  0  0  0  0  0  0  0  0  0  0  0
  194.1590  175.9350  138.2970 O   0  0  0  0  0  0  0  0  0  0  0  0
  1 17  1  1  0  0  0
  1  9  1  0  0  0  0
  2 21  1  6  0  0  0
  2  1  1  0  0  0  0
  2  8  1  0  0  0  0
  3 13  1  0  0  0  0
  4 18  1  1  0  0  0
  4 11  1  0  0  0  0
  5  3  1  0  0  0  0
  6 12  1  0  0  0  0
  7 10  1  1  0  0  0
  7  4  1  0  0  0  0
  8  6  1  0  0  0  0
  8  5  2  0  0  0  0
  9  5  1  0  0  0  0
  9 18  1  1  0  0  0
 10 16  1  0  0  0  0
 12 13  1  0  0  0  0
 14 15  1  0  0  0  0
 14  1  1  0  0  0  0
 15 19  1  6  0  0  0
 15  7  1  0  0  0  0
 16 11  1  0  0  0  0
 20 19  2  0  0  0  0
 22 21  1  0  0  0  0
 23 22  1  0  0  0  0
 24 25  1  0  0  0  0
 24 23  1  0  0  0  0
 26 25  1  0  0  0  0
 27 29  1  0  0  0  0
 28 27  1  0  0  0  0
 29 26  1  0  0  0  0
 29 30  2  0  0  0  0
M  END
>  <MODEL>
5

>  <REMARK>
 VINA RESULT:      -7.7      1.889      2.731
  Name = 
  8 active torsions:
  status: ('A' for Active; 'I' for Inactive)
    1  A    between atoms: C_1  and  C_5
    2  A    between atoms: C_1  and  C_22
    3  A    between atoms: C_2  and  C_18
    4  A    between atoms: C_2  and  C_22
    5  A    between atoms: C_11  and  C_25
    6  A    between atoms: C_14  and  C_18
    7  A    between atoms: C_14  and  C_20
    8  A    between atoms: C_20  and  C_28
                            x       y       z     vdW  Elec       q    Type
                         _______ _______ _______ _____ _____    ______ ____

>  <TORSDO>
F 8

$$$$
=
 OpenBabel10272413503D

 30 33  0  0  1  0  0  0  0  0999 V2000
  188.4200  177.1430  143.2900 C   0  0  1  0  0  0  0  0  0  0  0  0
  187.7720  177.4540  141.9180 C   0  0  2  0  0  3  0  0  0  0  0  0
  191.4260  177.6540  140.9330 C   0  0  0  0  0  2  0  0  0  0  0  0
  190.8640  177.1530  145.3570 C   0  0  1  0  0  3  0  0  0  0  0  0
  190.1050  177.4500  141.6300 C   0  0  0  0  0  0  0  0  0  0  0  0
  188.8280  177.4340  139.4870 C   0  0  0  0  0  2  0  0  0  0  0  0
  189.5560  176.8710  146.0260 C   0  0  1  0  0  3  0  0  0  0  0  0
  188.9400  177.4730  140.9880 C   0  0  0  0  0  0  0  0  0  0  0  0
  189.9020  177.5430  143.0990 C   0  0  2  0  0  3  0  0  0  0  0  0
  189.9960  176.7050  147.4650 C   0  0  0  0  0  2  0  0  0  0  0  0
  191.8390  176.3640  146.1900 C   0  0  0  0  0  2  0  0  0  0  0  0
  190.1060  177.9500  138.8210 C   0  0  0  0  0  2  0  0  0  0  0  0
  191.3320  177.2890  139.4500 C   0  0  0  0  0  2  0  0  0  0  0  0
  187.7620  177.8820  144.4730 C   0  0  0  0  0  2  0  0  0  0  0  0
  188.5780  178.0380  145.7710 C   0  0  1  0  0  3  0  0  0  0  0  0
  191.3160  176.2140  147.4890 O   0  0  0  0  0  0  0  0  0  0  0  0
  188.2430  175.6400  143.5050 C   0  0  0  0  0  1  0  0  0  0  0  0
  190.8870  176.7010  143.9050 C   0  0  0  0  0  2  0  0  0  0  0  0
  187.6030  178.2540  146.8880 C   0  0  0  0  0  3  0  0  0  0  0  0
  186.4020  178.1980  146.6830 O   0  0  0  0  0  0  0  0  0  0  0  0
  187.0690  178.8110  141.8530 C   0  0  0  0  0  2  0  0  0  0  0  0
  185.9020  178.7610  140.8770 C   0  0  0  0  0  2  0  0  0  0  0  0
  184.6000  179.1620  141.5500 C   0  0  0  0  0  2  0  0  0  0  0  0
  184.4890  178.5050  142.9180 C   0  0  0  0  0  2  0  0  0  0  0  0
  183.3910  179.1630  143.7330 C   0  0  0  0  0  2  0  0  0  0  0  0
  182.0740  178.4340  143.5370 C   0  0  0  0  0  2  0  0  0  0  0  0
  180.7630  178.9730  141.4220 N   0  0  0  0  0  2  0  0  0  0  0  0
  181.2950  177.8150  140.7200 C   0  0  0  0  0  1  0  0  0  0  0  0
  181.1290  179.2940  142.7650 C   0  0  0  0  0  0  0  0  0  0  0  0
  180.6240  180.3050  143.3180 O   0  0  0  0  0  0  0  0  0  0  0  0
  1 17  1  1  0  0  0
  1 14  1  0  0  0  0
  2 21  1  1  0  0  0
  2  1  1  0  0  0  0
  3  5  1  0  0  0  0
  4 18  1  6  0  0  0
  4  7  1  0  0  0  0
  4 11  1  0  0  0  0
  5  9  1  0  0  0  0
  6  8  1  0  0  0  0
  7 10  1  1  0  0  0
  8  5  2  0  0  0  0
  8  2  1  0  0  0  0
  9  1  1  0  0  0  0
  9 18  1  1  0  0  0
 10 16  1  0  0  0  0
 11 16  1  0  0  0  0
 12 13  1  0  0  0  0
 12  6  1  0  0  0  0
 13  3  1  0  0  0  0
 14 15  1  0  0  0  0
 15  7  1  0  0  0  0
 15 19  1  1  0  0  0
 20 19  2  0  0  0  0
 22 23  1  0  0  0  0
 22 21  1  0  0  0  0
 23 24  1  0  0  0  0
 24 25  1  0  0  0  0
 26 25  1  0  0  0  0
 27 29  1  0  0  0  0
 28 27  1  0  0  0  0
 29 30  2  0  0  0  0
 29 26  1  0  0  0  0
M  END
>  <MODEL>
6

>  <REMARK>
 VINA RESULT:      -7.4      2.983      7.315
  Name = 
  8 active torsions:
  status: ('A' for Active; 'I' for Inactive)
    1  A    between atoms: C_1  and  C_5
    2  A    between atoms: C_1  and  C_22
    3  A    between atoms: C_2  and  C_18
    4  A    between atoms: C_2  and  C_22
    5  A    between atoms: C_11  and  C_25
    6  A    between atoms: C_14  and  C_18
    7  A    between atoms: C_14  and  C_20
    8  A    between atoms: C_20  and  C_28
                            x       y       z     vdW  Elec       q    Type
                         _______ _______ _______ _____ _____    ______ ____

>  <TORSDO>
F 8

$$$$
=
 OpenBabel10272413503D

 30 33  0  0  1  0  0  0  0  0999 V2000
  189.3790  177.8380  143.0940 C   0  0  1  0  0  0  0  0  0  0  0  0
  188.7320  178.1100  141.7140 C   0  0  2  0  0  3  0  0  0  0  0  0
  185.6180  178.1560  143.8720 C   0  0  0  0  0  2  0  0  0  0  0  0
  189.2760  176.9250  146.1610 C   0  0  1  0  0  3  0  0  0  0  0  0
  187.0230  178.1290  143.3280 C   0  0  0  0  0  0  0  0  0  0  0  0
  186.3200  179.0280  141.1090 C   0  0  0  0  0  2  0  0  0  0  0  0
  190.6740  176.9800  145.6310 C   0  0  1  0  0  3  0  0  0  0  0  0
  187.3100  178.4060  142.0580 C   0  0  0  0  0  0  0  0  0  0  0  0
  188.1780  177.4820  144.0020 C   0  0  2  0  0  3  0  0  0  0  0  0
  191.4630  176.5560  146.8520 C   0  0  0  0  0  2  0  0  0  0  0  0
  189.4570  177.2880  147.6110 C   0  0  0  0  0  2  0  0  0  0  0  0
  184.8800  178.7570  141.5510 C   0  0  0  0  0  2  0  0  0  0  0  0
  184.7180  179.0700  143.0390 C   0  0  0  0  0  2  0  0  0  0  0  0
  190.4480  176.7270  143.0750 C   0  0  0  0  0  2  0  0  0  0  0  0
  190.8060  176.0450  144.4090 C   0  0  1  0  0  3  0  0  0  0  0  0
  190.7620  176.9440  148.0110 O   0  0  0  0  0  0  0  0  0  0  0  0
  190.0550  179.1460  143.5060 C   0  0  0  0  0  1  0  0  0  0  0  0
  188.3470  177.9040  145.4590 C   0  0  0  0  0  2  0  0  0  0  0  0
  192.1750  175.4540  144.2560 C   0  0  0  0  0  3  0  0  0  0  0  0
  192.3640  174.2670  144.4630 O   0  0  0  0  0  0  0  0  0  0  0  0
  188.7710  176.9160  140.7590 C   0  0  0  0  0  2  0  0  0  0  0  0
  189.7060  177.1960  139.5920 C   0  0  0  0  0  2  0  0  0  0  0  0
  189.2720  178.4310  138.8190 C   0  0  0  0  0  2  0  0  0  0  0  0
  188.9460  178.0660  137.3790 C   0  0  0  0  0  2  0  0  0  0  0  0
  187.6190  178.6730  136.9670 C   0  0  0  0  0  2  0  0  0  0  0  0
  186.4730  178.0010  137.7020 C   0  0  0  0  0  2  0  0  0  0  0  0
  184.2250  177.0620  136.9640 N   0  0  0  0  0  2  0  0  0  0  0  0
  183.5500  177.5700  138.1480 C   0  0  0  0  0  1  0  0  0  0  0  0
  185.6230  177.2460  136.7350 C   0  0  0  0  0  0  0  0  0  0  0  0
  186.1430  176.7880  135.6850 O   0  0  0  0  0  0  0  0  0  0  0  0
  1 17  1  1  0  0  0
  1  9  1  0  0  0  0
  2 21  1  6  0  0  0
  2  8  1  0  0  0  0
  2  1  1  0  0  0  0
  4 18  1  6  0  0  0
  4 11  1  0  0  0  0
  5  3  1  0  0  0  0
  5  9  1  0  0  0  0
  6 12  1  0  0  0  0
  6  8  1  0  0  0  0
  7  4  1  0  0  0  0
  7 10  1  1  0  0  0
  8  5  2  0  0  0  0
  9 18  1  1  0  0  0
 10 16  1  0  0  0  0
 11 16  1  0  0  0  0
 12 13  1  0  0  0  0
 13  3  1  0  0  0  0
 14  1  1  0  0  0  0
 14 15  1  0  0  0  0
 15 19  1  6  0  0  0
 15  7  1  0  0  0  0
 19 20  2  0  0  0  0
 22 21  1  0  0  0  0
 23 22  1  0  0  0  0
 24 23  1  0  0  0  0
 25 24  1  0  0  0  0
 25 26  1  0  0  0  0
 27 28  1  0  0  0  0
 29 27  1  0  0  0  0
 29 26  1  0  0  0  0
 30 29  2  0  0  0  0
M  END
>  <MODEL>
7

>  <REMARK>
 VINA RESULT:      -7.2      2.844      5.862
  Name = 
  8 active torsions:
  status: ('A' for Active; 'I' for Inactive)
    1  A    between atoms: C_1  and  C_5
    2  A    between atoms: C_1  and  C_22
    3  A    between atoms: C_2  and  C_18
    4  A    between atoms: C_2  and  C_22
    5  A    between atoms: C_11  and  C_25
    6  A    between atoms: C_14  and  C_18
    7  A    between atoms: C_14  and  C_20
    8  A    between atoms: C_20  and  C_28
                            x       y       z     vdW  Elec       q    Type
                         _______ _______ _______ _____ _____    ______ ____

>  <TORSDO>
F 8

$$$$
=
 OpenBabel10272413503D

 30 33  0  0  1  0  0  0  0  0999 V2000
  189.2390  177.8290  143.0700 C   0  0  1  0  0  0  0  0  0  0  0  0
  188.5030  178.1050  141.7360 C   0  0  2  0  0  3  0  0  0  0  0  0
  185.5410  178.1680  144.0990 C   0  0  0  0  0  2  0  0  0  0  0  0
  189.3380  176.9170  146.1370 C   0  0  1  0  0  3  0  0  0  0  0  0
  186.9060  178.1330  143.4610 C   0  0  0  0  0  0  0  0  0  0  0  0
  186.0600  179.0350  141.2940 C   0  0  0  0  0  2  0  0  0  0  0  0
  190.6980  176.9650  145.5150 C   0  0  1  0  0  3  0  0  0  0  0  0
  187.1080  178.4080  142.1750 C   0  0  0  0  0  0  0  0  0  0  0  0
  188.1010  177.4800  144.0570 C   0  0  2  0  0  3  0  0  0  0  0  0
  191.5650  176.5360  146.6800 C   0  0  0  0  0  2  0  0  0  0  0  0
  189.6180  177.2790  147.5710 C   0  0  0  0  0  2  0  0  0  0  0  0
  184.6520  178.7730  141.8330 C   0  0  0  0  0  2  0  0  0  0  0  0
  184.5920  179.0870  143.3280 C   0  0  0  0  0  2  0  0  0  0  0  0
  190.2990  176.7120  142.9790 C   0  0  0  0  0  2  0  0  0  0  0  0
  190.7420  176.0290  144.2870 C   0  0  1  0  0  3  0  0  0  0  0  0
  190.9460  176.9280  147.8830 O   0  0  0  0  0  0  0  0  0  0  0  0
  189.9480  179.1330  143.4340 C   0  0  0  0  0  1  0  0  0  0  0  0
  188.3700  177.9010  145.4990 C   0  0  0  0  0  2  0  0  0  0  0  0
  192.0940  175.4300  144.0420 C   0  0  0  0  0  3  0  0  0  0  0  0
  192.3560  174.3070  144.4400 O   0  0  0  0  0  0  0  0  0  0  0  0
  188.4710  176.9100  140.7820 C   0  0  0  0  0  2  0  0  0  0  0  0
  188.9280  177.3250  139.3910 C   0  0  0  0  0  2  0  0  0  0  0  0
  190.4420  177.4460  139.3190 C   0  0  0  0  0  2  0  0  0  0  0  0
  191.0370  176.2220  138.6400 C   0  0  0  0  0  2  0  0  0  0  0  0
  192.5090  176.4450  138.3450 C   0  0  0  0  0  2  0  0  0  0  0  0
  193.1270  175.1960  137.7430 C   0  0  0  0  0  2  0  0  0  0  0  0
  195.6420  174.8130  137.6430 N   0  0  0  0  0  2  0  0  0  0  0  0
  195.5900  173.7750  138.6610 C   0  0  0  0  0  1  0  0  0  0  0  0
  194.4790  175.5120  137.1960 C   0  0  0  0  0  0  0  0  0  0  0  0
  194.5920  176.3920  136.3040 O   0  0  0  0  0  0  0  0  0  0  0  0
  1 17  1  1  0  0  0
  1  9  1  0  0  0  0
  2 21  1  6  0  0  0
  2  8  1  0  0  0  0
  2  1  1  0  0  0  0
  4 18  1  6  0  0  0
  4 11  1  0  0  0  0
  5  9  1  0  0  0  0
  5  3  1  0  0  0  0
  6 12  1  0  0  0  0
  6  8  1  0  0  0  0
  7  4  1  0  0  0  0
  7 10  1  1  0  0  0
  8  5  2  0  0  0  0
  9 18  1  1  0  0  0
 10 16  1  0  0  0  0
 11 16  1  0  0  0  0
 12 13  1  0  0  0  0
 13  3  1  0  0  0  0
 14  1  1  0  0  0  0
 14 15  1  0  0  0  0
 15 19  1  6  0  0  0
 15  7  1  0  0  0  0
 19 20  2  0  0  0  0
 22 21  1  0  0  0  0
 23 22  1  0  0  0  0
 24 23  1  0  0  0  0
 25 24  1  0  0  0  0
 26 25  1  0  0  0  0
 27 28  1  0  0  0  0
 29 27  1  0  0  0  0
 29 26  1  0  0  0  0
 30 29  2  0  0  0  0
M  END
>  <MODEL>
8

>  <REMARK>
 VINA RESULT:      -7.2      3.081      5.805
  Name = 
  8 active torsions:
  status: ('A' for Active; 'I' for Inactive)
    1  A    between atoms: C_1  and  C_5
    2  A    between atoms: C_1  and  C_22
    3  A    between atoms: C_2  and  C_18
    4  A    between atoms: C_2  and  C_22
    5  A    between atoms: C_11  and  C_25
    6  A    between atoms: C_14  and  C_18
    7  A    between atoms: C_14  and  C_20
    8  A    between atoms: C_20  and  C_28
                            x       y       z     vdW  Elec       q    Type
                         _______ _______ _______ _____ _____    ______ ____

>  <TORSDO>
F 8

$$$$
=
 OpenBabel10272413503D

 30 33  0  0  1  0  0  0  0  0999 V2000
  189.8550  177.9190  143.4500 C   0  0  1  0  0  0  0  0  0  0  0  0
  189.7940  177.9970  141.9050 C   0  0  2  0  0  3  0  0  0  0  0  0
  186.0840  178.0360  142.6700 C   0  0  0  0  0  2  0  0  0  0  0  0
  188.5840  177.3260  146.3280 C   0  0  1  0  0  3  0  0  0  0  0  0
  187.5890  178.0570  142.7180 C   0  0  0  0  0  0  0  0  0  0  0  0
  187.7890  178.6640  140.3060 C   0  0  0  0  0  2  0  0  0  0  0  0
  190.0760  177.4300  146.3760 C   0  0  1  0  0  3  0  0  0  0  0  0
  188.3430  178.2200  141.6330 C   0  0  0  0  0  0  0  0  0  0  0  0
  188.4050  177.5710  143.8610 C   0  0  2  0  0  3  0  0  0  0  0  0
  190.3340  177.1950  147.8500 C   0  0  0  0  0  2  0  0  0  0  0  0
  188.1720  177.8500  147.6770 C   0  0  0  0  0  2  0  0  0  0  0  0
  186.2980  178.3350  140.1890 C   0  0  0  0  0  2  0  0  0  0  0  0
  185.5570  178.7890  141.4470 C   0  0  0  0  0  2  0  0  0  0  0  0
  190.8770  176.8950  143.9840 C   0  0  0  0  0  2  0  0  0  0  0  0
  190.7020  176.3850  145.4270 C   0  0  1  0  0  3  0  0  0  0  0  0
  189.2250  177.6480  148.5900 O   0  0  0  0  0  0  0  0  0  0  0  0
  190.2790  179.3100  143.9230 C   0  0  0  0  0  1  0  0  0  0  0  0
  187.9780  178.1540  145.2050 C   0  0  0  0  0  2  0  0  0  0  0  0
  192.0370  175.8840  145.8890 C   0  0  0  0  0  3  0  0  0  0  0  0
  192.2490  174.6870  145.9910 O   0  0  0  0  0  0  0  0  0  0  0  0
  190.2380  176.7150  141.1970 C   0  0  0  0  0  2  0  0  0  0  0  0
  191.1870  177.0390  140.0520 C   0  0  0  0  0  2  0  0  0  0  0  0
  190.9130  176.1610  138.8420 C   0  0  0  0  0  2  0  0  0  0  0  0
  189.5760  176.5240  138.2160 C   0  0  0  0  0  2  0  0  0  0  0  0
  189.7310  177.7160  137.2900 C   0  0  0  0  0  2  0  0  0  0  0  0
  188.7110  177.6550  136.1670 C   0  0  0  0  0  2  0  0  0  0  0  0
  186.2040  177.6300  136.6100 N   0  0  0  0  0  2  0  0  0  0  0  0
  186.0810  176.2390  136.2040 C   0  0  0  0  0  1  0  0  0  0  0  0
  187.4500  178.3310  136.5910 C   0  0  0  0  0  0  0  0  0  0  0  0
  187.4890  179.5310  136.9650 O   0  0  0  0  0  0  0  0  0  0  0  0
  1  9  1  0  0  0  0
  1 17  1  1  0  0  0
  1 14  1  0  0  0  0
  2 21  1  6  0  0  0
  2  1  1  0  0  0  0
  3  5  1  0  0  0  0
  4 18  1  6  0  0  0
  4  7  1  0  0  0  0
  4 11  1  0  0  0  0
  5  9  1  0  0  0  0
  6  8  1  0  0  0  0
  7 10  1  1  0  0  0
  8  2  1  0  0  0  0
  8  5  2  0  0  0  0
  9 18  1  1  0  0  0
 10 16  1  0  0  0  0
 11 16  1  0  0  0  0
 12  6  1  0  0  0  0
 12 13  1  0  0  0  0
 13  3  1  0  0  0  0
 14 15  1  0  0  0  0
 15 19  1  1  0  0  0
 15  7  1  0  0  0  0
 19 20  2  0  0  0  0
 22 21  1  0  0  0  0
 23 22  1  0  0  0  0
 24 23  1  0  0  0  0
 25 24  1  0  0  0  0
 26 29  1  0  0  0  0
 26 25  1  0  0  0  0
 28 27  1  0  0  0  0
 29 27  1  0  0  0  0
 29 30  2  0  0  0  0
M  END
>  <MODEL>
9

>  <REMARK>
 VINA RESULT:      -7.1      2.694      5.640
  Name = 
  8 active torsions:
  status: ('A' for Active; 'I' for Inactive)
    1  A    between atoms: C_1  and  C_5
    2  A    between atoms: C_1  and  C_22
    3  A    between atoms: C_2  and  C_18
    4  A    between atoms: C_2  and  C_22
    5  A    between atoms: C_11  and  C_25
    6  A    between atoms: C_14  and  C_18
    7  A    between atoms: C_14  and  C_20
    8  A    between atoms: C_20  and  C_28
                            x       y       z     vdW  Elec       q    Type
                         _______ _______ _______ _____ _____    ______ ____

>  <TORSDO>
F 8

$$$$
