=
 OpenBabel10272415023D

 37 43  0  0  1  0  0  0  0  0999 V2000
  189.7890  177.6750  134.3460 O   0  0  0  0  0  1  0  0  0  0  0  0
  189.7650  177.6010  139.4830 C   0  0  0  0  0  2  0  0  0  0  0  0
  189.3200  176.0020  137.5200 C   0  0  0  0  0  2  0  0  0  0  0  0
  187.0740  177.4060  139.5790 C   0  0  2  0  0  3  0  0  0  0  0  0
  186.7260  179.4930  136.9820 O   0  0  0  0  0  1  0  0  0  0  0  0
  185.9300  178.1650  140.2370 C   0  0  0  0  0  2  0  0  0  0  0  0
  189.6930  177.4240  137.9710 C   0  0  1  0  0  0  0  0  0  0  0  0
  187.5050  178.3390  137.0590 C   0  0  1  0  0  0  0  0  0  0  0  0
  189.2480  177.4320  135.6070 C   0  0  2  0  0  0  0  0  0  0  0  0
  188.4680  177.7170  141.6350 C   0  0  0  0  0  2  0  0  0  0  0  0
  188.8790  178.6960  137.5690 C   0  0  2  0  0  3  0  0  0  0  0  0
  189.9620  178.2320  136.6880 C   0  0  1  0  0  3  0  0  0  0  0  0
  188.4080  177.9920  140.1400 C   0  0  1  0  0  3  0  0  0  0  0  0
  186.8460  177.3210  138.0300 C   0  0  2  0  0  3  0  0  0  0  0  0
  189.4190  175.9860  136.0070 C   0  0  0  0  0  2  0  0  0  0  0  0
  186.0670  178.2430  141.7370 C   0  0  0  0  0  0  0  0  0  0  0  0
  187.7590  177.7960  135.6550 C   0  0  0  0  0  2  0  0  0  0  0  0
  187.2290  178.1060  142.3150 N   0  0  0  0  0  0  0  0  0  0  0  0
  185.0140  178.8320  143.9310 C   0  0  0  0  0  3  0  0  0  0  0  0
  184.8860  178.6040  142.5510 C   0  0  0  0  0  0  0  0  0  0  0  0
  183.6220  178.7350  141.9530 C   0  0  0  0  0  3  0  0  0  0  0  0
  181.2930  179.2060  142.1350 F   0  0  0  0  0  0  0  0  0  0  0  0
  182.6460  179.3070  144.0940 C   0  0  0  0  0  3  0  0  0  0  0  0
  182.5080  179.0830  142.7220 C   0  0  0  0  0  0  0  0  0  0  0  0
  183.8990  179.1810  144.6980 C   0  0  0  0  0  3  0  0  0  0  0  0
  185.6410  176.5290  137.4930 C   0  0  2  0  0  3  0  0  0  0  0  0
  185.9720  175.2440  136.7240 C   0  0  0  0  0  2  0  0  0  0  0  0
  186.0600  174.0100  137.6170 C   0  0  2  0  0  3  0  0  0  0  0  0
  183.9330  173.5080  136.5420 O   0  0  0  0  0  1  0  0  0  0  0  0
  186.1890  172.7760  136.7500 C   0  0  0  0  0  2  0  0  0  0  0  0
  184.8800  173.0470  137.4620 C   0  0  1  0  0  3  0  0  0  0  0  0
  184.4880  177.3890  136.9510 C   0  0  2  0  0  3  0  0  0  0  0  0
  183.2280  177.2610  137.8120 C   0  0  2  0  0  3  0  0  0  0  0  0
  182.8350  178.5750  138.4670 C   0  0  0  0  0  1  0  0  0  0  0  0
  183.4220  176.3010  138.7880 F   0  0  0  0  0  0  0  0  0  0  0  0
  182.8350  176.9900  135.5220 C   0  0  0  0  0  1  0  0  0  0  0  0
  184.2220  177.1280  135.6010 O   0  0  0  0  0  0  0  0  0  0  0  0
  2 13  1  0  0  0  0
  4 13  1  0  0  0  0
  4  6  1  1  0  0  0
  6 16  1  0  0  0  0
  7  3  1  6  0  0  0
  7  2  1  0  0  0  0
  8  5  1  6  0  0  0
  8 11  1  0  0  0  0
  8 14  1  0  0  0  0
  9  1  1  6  0  0  0
  9 17  1  0  0  0  0
  9 15  1  0  0  0  0
  9 12  1  0  0  0  0
 10 18  1  0  0  0  0
 11  7  1  0  0  0  0
 12 11  1  0  0  0  0
 12  7  1  0  0  0  0
 13 10  1  0  0  0  0
 14  4  1  0  0  0  0
 15  3  1  0  0  0  0
 16 18  2  0  0  0  0
 16 20  1  0  0  0  0
 17  8  1  0  0  0  0
 19 25  1  0  0  0  0
 20 19  2  0  0  0  0
 21 20  1  0  0  0  0
 21 24  2  0  0  0  0
 22 24  1  0  0  0  0
 23 25  2  0  0  0  0
 24 23  1  0  0  0  0
 26 14  1  0  0  0  0
 27 26  1  0  0  0  0
 27 28  1  0  0  0  0
 29 31  1  0  0  0  0
 30 31  1  0  0  0  0
 30 28  1  0  0  0  0
 31 28  1  0  0  0  0
 32 26  1  0  0  0  0
 32 33  1  0  0  0  0
 33 34  1  0  0  0  0
 33 35  1  0  0  0  0
 36 37  1  0  0  0  0
 37 32  1  0  0  0  0
M  END
>  <MODEL>
1

>  <REMARK>
 VINA RESULT:      -5.4      0.000      0.000
  Name = 
  7 active torsions:
  status: ('A' for Active; 'I' for Inactive)
    1  A    between atoms: C_1  and  C_5
    2  A    between atoms: C_1  and  C_36
    3  A    between atoms: C_6  and  C_31
    4  A    between atoms: C_11  and  C_33
    5  A    between atoms: O_27  and  C_33
    6  A    between atoms: C_29  and  C_36
    7  A    between atoms: C_33  and  C_36
                            x       y       z     vdW  Elec       q    Type
                         _______ _______ _______ _____ _____    ______ ____

>  <TORSDO>
F 7

$$$$
=
 OpenBabel10272415023D

 37 43  0  0  1  0  0  0  0  0999 V2000
  191.9810  176.1150  134.3460 O   0  0  0  0  0  1  0  0  0  0  0  0
  191.7340  176.1390  139.4770 C   0  0  0  0  0  2  0  0  0  0  0  0
  191.0680  174.6200  137.5130 C   0  0  0  0  0  2  0  0  0  0  0  0
  189.0540  176.4680  139.4580 C   0  0  2  0  0  3  0  0  0  0  0  0
  189.2220  178.5360  136.8280 O   0  0  0  0  0  1  0  0  0  0  0  0
  188.0520  177.4440  140.0580 C   0  0  0  0  0  2  0  0  0  0  0  0
  191.6900  175.9520  137.9650 C   0  0  1  0  0  0  0  0  0  0  0  0
  189.7590  177.2550  136.9500 C   0  0  1  0  0  0  0  0  0  0  0  0
  191.3520  176.0030  135.5850 C   0  0  2  0  0  0  0  0  0  0  0  0
  190.3970  176.5400  141.5690 C   0  0  0  0  0  2  0  0  0  0  0  0
  191.1540  177.3490  137.5160 C   0  0  2  0  0  3  0  0  0  0  0  0
  192.1620  176.6700  136.6880 C   0  0  1  0  0  3  0  0  0  0  0  0
  190.4520  176.7950  140.0710 C   0  0  1  0  0  3  0  0  0  0  0  0
  188.8770  176.4000  137.9010 C   0  0  2  0  0  3  0  0  0  0  0  0
  191.2240  174.5580  136.0050 C   0  0  0  0  0  2  0  0  0  0  0  0
  188.1410  177.5220  141.5620 C   0  0  0  0  0  0  0  0  0  0  0  0
  189.9610  176.6480  135.5640 C   0  0  0  0  0  2  0  0  0  0  0  0
  189.2300  177.1730  142.1910 N   0  0  0  0  0  0  0  0  0  0  0  0
  186.0560  178.9050  141.6690 C   0  0  0  0  0  3  0  0  0  0  0  0
  187.0200  178.1180  142.3210 C   0  0  0  0  0  0  0  0  0  0  0  0
  186.8980  177.8970  143.7020 C   0  0  0  0  0  3  0  0  0  0  0  0
  185.7260  178.2350  145.7490 F   0  0  0  0  0  0  0  0  0  0  0  0
  184.8810  179.2360  143.7590 C   0  0  0  0  0  3  0  0  0  0  0  0
  185.8340  178.4550  144.4170 C   0  0  0  0  0  0  0  0  0  0  0  0
  184.9930  179.4620  142.3840 C   0  0  0  0  0  3  0  0  0  0  0  0
  187.5650  175.8460  137.3210 C   0  0  2  0  0  3  0  0  0  0  0  0
  187.6780  174.5270  136.5460 C   0  0  0  0  0  2  0  0  0  0  0  0
  186.8350  173.4030  137.1380 C   0  0  2  0  0  3  0  0  0  0  0  0
  186.2610  173.0690  134.7940 O   0  0  0  0  0  1  0  0  0  0  0  0
  187.3670  172.0720  136.6510 C   0  0  0  0  0  2  0  0  0  0  0  0
  186.0600  172.5940  136.0940 C   0  0  1  0  0  3  0  0  0  0  0  0
  186.6050  176.9060  136.7570 C   0  0  2  0  0  3  0  0  0  0  0  0
  185.3700  177.0870  137.6440 C   0  0  2  0  0  3  0  0  0  0  0  0
  184.0980  176.5870  136.9780 C   0  0  0  0  0  1  0  0  0  0  0  0
  185.2210  178.4210  137.9750 F   0  0  0  0  0  0  0  0  0  0  0  0
  186.6440  177.7850  134.7170 C   0  0  0  0  0  1  0  0  0  0  0  0
  186.2530  176.6470  135.4260 O   0  0  0  0  0  0  0  0  0  0  0  0
  2 13  1  0  0  0  0
  4  6  1  6  0  0  0
  4 13  1  0  0  0  0
  6 16  1  0  0  0  0
  7  3  1  6  0  0  0
  7  2  1  0  0  0  0
  8  5  1  6  0  0  0
  8 11  1  0  0  0  0
  8 14  1  0  0  0  0
  9  1  1  6  0  0  0
  9 15  1  0  0  0  0
  9 12  1  0  0  0  0
 10 18  1  0  0  0  0
 11  7  1  0  0  0  0
 12 11  1  0  0  0  0
 12  7  1  0  0  0  0
 13 10  1  0  0  0  0
 14  4  1  0  0  0  0
 15  3  1  0  0  0  0
 16 18  2  0  0  0  0
 16 20  1  0  0  0  0
 17  9  1  0  0  0  0
 17  8  1  0  0  0  0
 19 20  2  0  0  0  0
 19 25  1  0  0  0  0
 20 21  1  0  0  0  0
 21 24  2  0  0  0  0
 23 24  1  0  0  0  0
 24 22  1  0  0  0  0
 25 23  2  0  0  0  0
 26 14  1  0  0  0  0
 27 28  1  0  0  0  0
 27 26  1  0  0  0  0
 29 31  1  0  0  0  0
 30 28  1  0  0  0  0
 31 30  1  0  0  0  0
 31 28  1  0  0  0  0
 32 26  1  0  0  0  0
 32 33  1  0  0  0  0
 33 35  1  0  0  0  0
 34 33  1  0  0  0  0
 36 37  1  0  0  0  0
 37 32  1  0  0  0  0
M  END
>  <MODEL>
2

>  <REMARK>
 VINA RESULT:      -5.4      1.977      2.647
  Name = 
  7 active torsions:
  status: ('A' for Active; 'I' for Inactive)
    1  A    between atoms: C_1  and  C_5
    2  A    between atoms: C_1  and  C_36
    3  A    between atoms: C_6  and  C_31
    4  A    between atoms: C_11  and  C_33
    5  A    between atoms: O_27  and  C_33
    6  A    between atoms: C_29  and  C_36
    7  A    between atoms: C_33  and  C_36
                            x       y       z     vdW  Elec       q    Type
                         _______ _______ _______ _____ _____    ______ ____

>  <TORSDO>
F 7

$$$$
=
 OpenBabel10272415023D

 37 43  0  0  1  0  0  0  0  0999 V2000
  197.7600  168.9860  136.4140 O   0  0  0  0  0  1  0  0  0  0  0  0
  193.2230  170.9300  134.9900 C   0  0  0  0  0  2  0  0  0  0  0  0
  195.7240  171.3090  134.5290 C   0  0  0  0  0  2  0  0  0  0  0  0
  193.6540  173.2250  136.3460 C   0  0  2  0  0  3  0  0  0  0  0  0
  195.1320  171.5810  138.8630 O   0  0  0  0  0  1  0  0  0  0  0  0
  192.9300  174.0370  137.4100 C   0  0  0  0  0  2  0  0  0  0  0  0
  194.6560  170.5140  135.3000 C   0  0  1  0  0  0  0  0  0  0  0  0
  195.4300  171.5170  137.5030 C   0  0  1  0  0  0  0  0  0  0  0  0
  196.8280  170.0000  136.1950 C   0  0  2  0  0  0  0  0  0  0  0  0
  191.4670  172.7140  135.2400 C   0  0  0  0  0  2  0  0  0  0  0  0
  194.6030  170.4320  136.8590 C   0  0  2  0  0  3  0  0  0  0  0  0
  195.4100  169.4510  136.1190 C   0  0  1  0  0  3  0  0  0  0  0  0
  192.6900  172.0850  135.8900 C   0  0  1  0  0  3  0  0  0  0  0  0
  195.1060  172.8780  136.8260 C   0  0  2  0  0  3  0  0  0  0  0  0
  197.0620  170.6790  134.8670 C   0  0  0  0  0  2  0  0  0  0  0  0
  191.5390  174.4420  136.9900 C   0  0  0  0  0  0  0  0  0  0  0  0
  196.8710  171.0480  137.3130 C   0  0  0  0  0  2  0  0  0  0  0  0
  190.8950  173.7820  136.0660 N   0  0  0  0  0  0  0  0  0  0  0  0
  191.5370  176.2840  138.6860 C   0  0  0  0  0  3  0  0  0  0  0  0
  190.8500  175.5250  137.7240 C   0  0  0  0  0  0  0  0  0  0  0  0
  189.5020  175.8170  137.4630 C   0  0  0  0  0  3  0  0  0  0  0  0
  187.5530  177.1200  137.8910 F   0  0  0  0  0  0  0  0  0  0  0  0
  189.5460  177.5950  139.1060 C   0  0  0  0  0  3  0  0  0  0  0  0
  188.8540  176.8460  138.1520 C   0  0  0  0  0  0  0  0  0  0  0  0
  190.8890  177.3130  139.3740 C   0  0  0  0  0  3  0  0  0  0  0  0
  196.1150  174.0190  137.0420 C   0  0  2  0  0  3  0  0  0  0  0  0
  195.9650  174.8090  138.3470 C   0  0  0  0  0  2  0  0  0  0  0  0
  196.7610  174.2190  139.5070 C   0  0  2  0  0  3  0  0  0  0  0  0
  198.3390  175.9540  138.8510 O   0  0  0  0  0  1  0  0  0  0  0  0
  196.8870  175.2550  140.6030 C   0  0  0  0  0  2  0  0  0  0  0  0
  198.0990  174.9190  139.7600 C   0  0  1  0  0  3  0  0  0  0  0  0
  196.4700  174.8200  135.7790 C   0  0  2  0  0  3  0  0  0  0  0  0
  197.8880  174.5120  135.2880 C   0  0  2  0  0  3  0  0  0  0  0  0
  198.6950  173.7180  136.3030 C   0  0  0  0  0  1  0  0  0  0  0  0
  198.5490  175.6910  134.9970 F   0  0  0  0  0  0  0  0  0  0  0  0
  195.1200  176.4910  135.2120 C   0  0  0  0  0  1  0  0  0  0  0  0
  196.2680  176.1950  135.9500 O   0  0  0  0  0  0  0  0  0  0  0  0
  2  7  1  0  0  0  0
  2 13  1  0  0  0  0
  3 15  1  0  0  0  0
  4 14  1  0  0  0  0
  4  6  1  1  0  0  0
  7  3  1  6  0  0  0
  7 12  1  0  0  0  0
  7 11  1  0  0  0  0
  8  5  1  1  0  0  0
  9  1  1  1  0  0  0
  9 17  1  0  0  0  0
 10 13  1  0  0  0  0
 10 18  1  0  0  0  0
 11  8  1  0  0  0  0
 12  9  1  0  0  0  0
 12 11  1  0  0  0  0
 13  4  1  0  0  0  0
 14 26  1  0  0  0  0
 14  8  1  0  0  0  0
 15  9  1  0  0  0  0
 16  6  1  0  0  0  0
 16 20  1  0  0  0  0
 17  8  1  0  0  0  0
 18 16  2  0  0  0  0
 19 25  1  0  0  0  0
 20 19  2  0  0  0  0
 21 20  1  0  0  0  0
 21 24  2  0  0  0  0
 22 24  1  0  0  0  0
 23 25  2  0  0  0  0
 24 23  1  0  0  0  0
 26 27  1  0  0  0  0
 27 28  1  0  0  0  0
 28 31  1  0  0  0  0
 28 30  1  0  0  0  0
 29 31  1  0  0  0  0
 31 30  1  0  0  0  0
 32 37  1  0  0  0  0
 32 26  1  0  0  0  0
 33 32  1  0  0  0  0
 33 34  1  0  0  0  0
 35 33  1  0  0  0  0
 36 37  1  0  0  0  0
M  END
>  <MODEL>
3

>  <REMARK>
 VINA RESULT:      -5.1      7.365     10.712
  Name = 
  7 active torsions:
  status: ('A' for Active; 'I' for Inactive)
    1  A    between atoms: C_1  and  C_5
    2  A    between atoms: C_1  and  C_36
    3  A    between atoms: C_6  and  C_31
    4  A    between atoms: C_11  and  C_33
    5  A    between atoms: O_27  and  C_33
    6  A    between atoms: C_29  and  C_36
    7  A    between atoms: C_33  and  C_36
                            x       y       z     vdW  Elec       q    Type
                         _______ _______ _______ _____ _____    ______ ____

>  <TORSDO>
F 7

$$$$
=
 OpenBabel10272415023D

 37 43  0  0  1  0  0  0  0  0999 V2000
  191.1140  175.7670  134.4220 O   0  0  0  0  0  1  0  0  0  0  0  0
  189.3810  177.7210  138.8460 C   0  0  0  0  0  2  0  0  0  0  0  0
  189.6650  175.4270  137.7210 C   0  0  0  0  0  2  0  0  0  0  0  0
  186.8190  177.1280  138.2330 C   0  0  2  0  0  3  0  0  0  0  0  0
  187.2920  177.9300  135.0160 O   0  0  0  0  0  1  0  0  0  0  0  0
  185.4980  177.8780  138.1410 C   0  0  0  0  0  2  0  0  0  0  0  0
  189.8220  176.9530  137.6050 C   0  0  1  0  0  0  0  0  0  0  0  0
  188.0360  177.0500  135.8000 C   0  0  1  0  0  0  0  0  0  0  0  0
  190.1910  175.9530  135.4500 C   0  0  2  0  0  0  0  0  0  0  0  0
  187.4370  178.4540  140.2640 C   0  0  0  0  0  2  0  0  0  0  0  0
  189.1500  177.8050  136.4820 C   0  0  2  0  0  3  0  0  0  0  0  0
  190.4780  177.2220  136.2390 C   0  0  1  0  0  3  0  0  0  0  0  0
  187.8700  178.1030  138.8490 C   0  0  1  0  0  3  0  0  0  0  0  0
  187.1230  176.4010  136.8770 C   0  0  2  0  0  3  0  0  0  0  0  0
  190.2640  174.8330  136.4600 C   0  0  0  0  0  2  0  0  0  0  0  0
  185.1240  178.5640  139.4320 C   0  0  0  0  0  0  0  0  0  0  0  0
  188.7610  176.0490  134.9040 C   0  0  0  0  0  2  0  0  0  0  0  0
  186.0310  178.8640  140.3210 N   0  0  0  0  0  0  0  0  0  0  0  0
  183.1690  179.9980  138.8040 C   0  0  0  0  0  3  0  0  0  0  0  0
  183.7290  179.0110  139.6330 C   0  0  0  0  0  0  0  0  0  0  0  0
  182.9410  178.4490  140.6490 C   0  0  0  0  0  3  0  0  0  0  0  0
  180.8680  178.3170  141.8180 F   0  0  0  0  0  0  0  0  0  0  0  0
  181.0730  179.8480  140.0050 C   0  0  0  0  0  3  0  0  0  0  0  0
  181.6200  178.8660  140.8350 C   0  0  0  0  0  0  0  0  0  0  0  0
  181.8490  180.4140  138.9890 C   0  0  0  0  0  3  0  0  0  0  0  0
  186.1920  175.2700  136.4080 C   0  0  2  0  0  3  0  0  0  0  0  0
  184.7310  175.6650  136.1590 C   0  0  0  0  0  2  0  0  0  0  0  0
  184.4280  175.9660  134.6940 C   0  0  2  0  0  3  0  0  0  0  0  0
  182.1460  175.5670  135.4460 O   0  0  0  0  0  1  0  0  0  0  0  0
  183.6150  177.2400  134.6050 C   0  0  0  0  0  2  0  0  0  0  0  0
  182.9380  175.9110  134.3460 C   0  0  1  0  0  3  0  0  0  0  0  0
  186.4420  173.9060  137.0710 C   0  0  2  0  0  3  0  0  0  0  0  0
  186.6790  172.8040  136.0340 C   0  0  2  0  0  3  0  0  0  0  0  0
  187.9630  172.0300  136.2920 C   0  0  0  0  0  1  0  0  0  0  0  0
  186.7220  173.3540  134.7660 F   0  0  0  0  0  0  0  0  0  0  0  0
  184.7380  172.5100  137.3580 C   0  0  0  0  0  1  0  0  0  0  0  0
  185.4250  173.5600  137.9700 O   0  0  0  0  0  0  0  0  0  0  0  0
  2 13  1  0  0  0  0
  4  6  1  6  0  0  0
  4 13  1  0  0  0  0
  6 16  1  0  0  0  0
  7  3  1  1  0  0  0
  7  2  1  0  0  0  0
  8  5  1  6  0  0  0
  8 11  1  0  0  0  0
  8 14  1  0  0  0  0
  9  1  1  6  0  0  0
  9 12  1  0  0  0  0
  9 15  1  0  0  0  0
 10 18  1  0  0  0  0
 11  7  1  0  0  0  0
 12 11  1  0  0  0  0
 12  7  1  0  0  0  0
 13 10  1  0  0  0  0
 14  4  1  0  0  0  0
 15  3  1  0  0  0  0
 16 20  1  0  0  0  0
 16 18  2  0  0  0  0
 17  9  1  0  0  0  0
 17  8  1  0  0  0  0
 19 25  2  0  0  0  0
 19 20  1  0  0  0  0
 20 21  2  0  0  0  0
 21 24  1  0  0  0  0
 23 24  2  0  0  0  0
 24 22  1  0  0  0  0
 25 23  1  0  0  0  0
 26 14  1  0  0  0  0
 26 32  1  0  0  0  0
 27 26  1  0  0  0  0
 28 27  1  0  0  0  0
 30 28  1  0  0  0  0
 31 30  1  0  0  0  0
 31 28  1  0  0  0  0
 31 29  1  0  0  0  0
 32 37  1  0  0  0  0
 33 34  1  0  0  0  0
 33 32  1  0  0  0  0
 35 33  1  0  0  0  0
 36 37  1  0  0  0  0
M  END
>  <MODEL>
4

>  <REMARK>
 VINA RESULT:      -5.1      1.993      3.498
  Name = 
  7 active torsions:
  status: ('A' for Active; 'I' for Inactive)
    1  A    between atoms: C_1  and  C_5
    2  A    between atoms: C_1  and  C_36
    3  A    between atoms: C_6  and  C_31
    4  A    between atoms: C_11  and  C_33
    5  A    between atoms: O_27  and  C_33
    6  A    between atoms: C_29  and  C_36
    7  A    between atoms: C_33  and  C_36
                            x       y       z     vdW  Elec       q    Type
                         _______ _______ _______ _____ _____    ______ ____

>  <TORSDO>
F 7

$$$$
=
 OpenBabel10272415023D

 37 43  0  0  1  0  0  0  0  0999 V2000
  191.9860  175.7650  145.1740 O   0  0  0  0  0  1  0  0  0  0  0  0
  190.1190  177.9090  140.8950 C   0  0  0  0  0  2  0  0  0  0  0  0
  190.8090  178.6090  143.2710 C   0  0  0  0  0  2  0  0  0  0  0  0
  187.7050  178.3330  142.0280 C   0  0  2  0  0  3  0  0  0  0  0  0
  187.8380  175.4100  143.6570 O   0  0  0  0  0  1  0  0  0  0  0  0
  186.2550  177.9960  141.7090 C   0  0  0  0  0  2  0  0  0  0  0  0
  190.6440  177.4650  142.2560 C   0  0  1  0  0  0  0  0  0  0  0  0
  188.7860  176.4320  143.6470 C   0  0  1  0  0  0  0  0  0  0  0  0
  191.0980  176.5380  144.4280 C   0  0  2  0  0  0  0  0  0  0  0  0
  188.1420  178.7730  139.6030 C   0  0  0  0  0  2  0  0  0  0  0  0
  189.7550  176.2070  142.5140 C   0  0  2  0  0  3  0  0  0  0  0  0
  191.1600  176.1900  142.9470 C   0  0  1  0  0  3  0  0  0  0  0  0
  188.5640  177.9230  140.7910 C   0  0  1  0  0  3  0  0  0  0  0  0
  188.0820  177.8040  143.4550 C   0  0  2  0  0  3  0  0  0  0  0  0
  191.4510  178.0050  144.5050 C   0  0  0  0  0  2  0  0  0  0  0  0
  185.8160  178.5200  140.3640 C   0  0  0  0  0  0  0  0  0  0  0  0
  189.6530  176.3410  144.9010 C   0  0  0  0  0  2  0  0  0  0  0  0
  186.6860  178.7880  139.4290 N   0  0  0  0  0  0  0  0  0  0  0  0
  183.4660  177.6930  140.6210 C   0  0  0  0  0  3  0  0  0  0  0  0
  184.3710  178.6110  140.0620 C   0  0  0  0  0  0  0  0  0  0  0  0
  183.8820  179.6230  139.2210 C   0  0  0  0  0  3  0  0  0  0  0  0
  182.0540  180.6930  138.1300 F   0  0  0  0  0  0  0  0  0  0  0  0
  181.6240  178.7950  139.5030 C   0  0  0  0  0  3  0  0  0  0  0  0
  182.5150  179.7130  138.9420 C   0  0  0  0  0  0  0  0  0  0  0  0
  182.1000  177.7840  140.3430 C   0  0  0  0  0  3  0  0  0  0  0  0
  187.3780  178.4020  144.6850 C   0  0  2  0  0  3  0  0  0  0  0  0
  188.2230  178.4960  145.9620 C   0  0  0  0  0  2  0  0  0  0  0  0
  187.6750  177.6580  147.1130 C   0  0  2  0  0  3  0  0  0  0  0  0
  190.0190  177.6640  147.7750 O   0  0  0  0  0  1  0  0  0  0  0  0
  187.8520  178.4180  148.4100 C   0  0  0  0  0  2  0  0  0  0  0  0
  188.7380  177.2240  148.1250 C   0  0  1  0  0  3  0  0  0  0  0  0
  185.9050  177.9960  144.8520 C   0  0  2  0  0  3  0  0  0  0  0  0
  184.9640  179.1970  144.7170 C   0  0  2  0  0  3  0  0  0  0  0  0
  183.6740  178.8460  143.9910 C   0  0  0  0  0  1  0  0  0  0  0  0
  185.6050  180.2210  144.0440 F   0  0  0  0  0  0  0  0  0  0  0  0
  184.7190  178.0390  146.7300 C   0  0  0  0  0  1  0  0  0  0  0  0
  185.6810  177.2950  146.0430 O   0  0  0  0  0  0  0  0  0  0  0  0
  3 15  1  0  0  0  0
  4  6  1  6  0  0  0
  4 14  1  0  0  0  0
  7  2  1  6  0  0  0
  7 11  1  0  0  0  0
  7 12  1  0  0  0  0
  7  3  1  0  0  0  0
  8  5  1  1  0  0  0
  8 17  1  0  0  0  0
  9 15  1  0  0  0  0
  9 17  1  0  0  0  0
  9  1  1  1  0  0  0
 10 13  1  0  0  0  0
 11 12  1  0  0  0  0
 11  8  1  0  0  0  0
 12  9  1  0  0  0  0
 13  2  1  0  0  0  0
 13  4  1  0  0  0  0
 14  8  1  0  0  0  0
 14 26  1  0  0  0  0
 16  6  1  0  0  0  0
 18 10  1  0  0  0  0
 18 16  2  0  0  0  0
 20 16  1  0  0  0  0
 20 19  2  0  0  0  0
 21 20  1  0  0  0  0
 22 24  1  0  0  0  0
 23 25  2  0  0  0  0
 24 21  2  0  0  0  0
 24 23  1  0  0  0  0
 25 19  1  0  0  0  0
 26 32  1  0  0  0  0
 26 27  1  0  0  0  0
 27 28  1  0  0  0  0
 28 31  1  0  0  0  0
 28 30  1  0  0  0  0
 29 31  1  0  0  0  0
 31 30  1  0  0  0  0
 32 37  1  0  0  0  0
 33 32  1  0  0  0  0
 34 33  1  0  0  0  0
 35 33  1  0  0  0  0
 37 36  1  0  0  0  0
M  END
>  <MODEL>
5

>  <REMARK>
 VINA RESULT:      -5.0      4.248      7.351
  Name = 
  7 active torsions:
  status: ('A' for Active; 'I' for Inactive)
    1  A    between atoms: C_1  and  C_5
    2  A    between atoms: C_1  and  C_36
    3  A    between atoms: C_6  and  C_31
    4  A    between atoms: C_11  and  C_33
    5  A    between atoms: O_27  and  C_33
    6  A    between atoms: C_29  and  C_36
    7  A    between atoms: C_33  and  C_36
                            x       y       z     vdW  Elec       q    Type
                         _______ _______ _______ _____ _____    ______ ____

>  <TORSDO>
F 7

$$$$
=
 OpenBabel10272415023D

 37 43  0  0  1  0  0  0  0  0999 V2000
  191.9550  175.9770  143.7240 O   0  0  0  0  0  1  0  0  0  0  0  0
  188.6650  178.3840  140.5970 C   0  0  0  0  0  2  0  0  0  0  0  0
  189.9870  178.8540  142.7510 C   0  0  0  0  0  2  0  0  0  0  0  0
  186.6900  178.3140  142.4380 C   0  0  2  0  0  3  0  0  0  0  0  0
  187.5930  175.2480  143.4410 O   0  0  0  0  0  1  0  0  0  0  0  0
  185.2520  177.8220  142.5020 C   0  0  0  0  0  2  0  0  0  0  0  0
  189.6240  177.8430  141.6510 C   0  0  1  0  0  0  0  0  0  0  0  0
  188.3920  176.3850  143.3280 C   0  0  1  0  0  0  0  0  0  0  0  0
  190.8120  176.7100  143.4090 C   0  0  2  0  0  0  0  0  0  0  0  0
  186.3140  179.1260  140.1000 C   0  0  0  0  0  2  0  0  0  0  0  0
  188.9790  176.4490  141.9410 C   0  0  2  0  0  3  0  0  0  0  0  0
  190.4450  176.5720  141.9380 C   0  0  1  0  0  3  0  0  0  0  0  0
  187.1600  178.1950  140.9540 C   0  0  1  0  0  3  0  0  0  0  0  0
  187.5380  177.6580  143.5830 C   0  0  2  0  0  3  0  0  0  0  0  0
  191.0330  178.1890  143.6250 C   0  0  0  0  0  2  0  0  0  0  0  0
  184.3710  178.4520  141.4510 C   0  0  0  0  0  0  0  0  0  0  0  0
  189.6090  176.2510  144.2410 C   0  0  0  0  0  2  0  0  0  0  0  0
  184.8810  178.9610  140.3630 N   0  0  0  0  0  0  0  0  0  0  0  0
  182.0990  177.9060  140.5520 C   0  0  0  0  0  3  0  0  0  0  0  0
  182.9020  178.3790  141.6030 C   0  0  0  0  0  0  0  0  0  0  0  0
  182.2900  178.7710  142.8040 C   0  0  0  0  0  3  0  0  0  0  0  0
  180.3220  179.0750  144.1130 F   0  0  0  0  0  0  0  0  0  0  0  0
  180.1120  178.2230  141.8980 C   0  0  0  0  0  3  0  0  0  0  0  0
  180.9020  178.6940  142.9500 C   0  0  0  0  0  0  0  0  0  0  0  0
  180.7110  177.8300  140.6980 C   0  0  0  0  0  3  0  0  0  0  0  0
  187.1960  177.9850  145.0470 C   0  0  2  0  0  3  0  0  0  0  0  0
  188.0830  177.3190  146.1070 C   0  0  0  0  0  2  0  0  0  0  0  0
  188.9530  178.3090  146.8750 C   0  0  2  0  0  3  0  0  0  0  0  0
  187.7850  177.3280  148.7740 O   0  0  0  0  0  1  0  0  0  0  0  0
  189.9230  177.5440  147.7500 C   0  0  0  0  0  2  0  0  0  0  0  0
  188.7550  178.2610  148.3920 C   0  0  1  0  0  3  0  0  0  0  0  0
  185.6940  178.0840  145.3570 C   0  0  2  0  0  3  0  0  0  0  0  0
  185.2830  179.5090  145.7380 C   0  0  2  0  0  3  0  0  0  0  0  0
  184.9660  180.3670  144.5230 C   0  0  0  0  0  1  0  0  0  0  0  0
  186.2910  180.1070  146.4710 F   0  0  0  0  0  0  0  0  0  0  0  0
  184.6090  177.8990  147.2860 C   0  0  0  0  0  1  0  0  0  0  0  0
  185.2900  177.1530  146.3220 O   0  0  0  0  0  0  0  0  0  0  0  0
  2 13  1  0  0  0  0
  3 15  1  0  0  0  0
  4  6  1  6  0  0  0
  4 14  1  0  0  0  0
  7  2  1  6  0  0  0
  7 12  1  0  0  0  0
  7 11  1  0  0  0  0
  7  3  1  0  0  0  0
  8  5  1  1  0  0  0
  8 14  1  0  0  0  0
  8 17  1  0  0  0  0
  9 15  1  0  0  0  0
  9  1  1  1  0  0  0
  9 17  1  0  0  0  0
 10 18  1  0  0  0  0
 10 13  1  0  0  0  0
 11  8  1  0  0  0  0
 12 11  1  0  0  0  0
 12  9  1  0  0  0  0
 13  4  1  0  0  0  0
 14 26  1  0  0  0  0
 16 20  1  0  0  0  0
 16  6  1  0  0  0  0
 18 16  2  0  0  0  0
 19 25  2  0  0  0  0
 19 20  1  0  0  0  0
 20 21  2  0  0  0  0
 21 24  1  0  0  0  0
 23 24  2  0  0  0  0
 24 22  1  0  0  0  0
 25 23  1  0  0  0  0
 26 32  1  0  0  0  0
 26 27  1  0  0  0  0
 27 28  1  0  0  0  0
 28 30  1  0  0  0  0
 28 31  1  0  0  0  0
 30 31  1  0  0  0  0
 31 29  1  0  0  0  0
 32 33  1  0  0  0  0
 32 37  1  0  0  0  0
 33 35  1  0  0  0  0
 34 33  1  0  0  0  0
 37 36  1  0  0  0  0
M  END
>  <MODEL>
6

>  <REMARK>
 VINA RESULT:      -4.9      4.463      7.281
  Name = 
  7 active torsions:
  status: ('A' for Active; 'I' for Inactive)
    1  A    between atoms: C_1  and  C_5
    2  A    between atoms: C_1  and  C_36
    3  A    between atoms: C_6  and  C_31
    4  A    between atoms: C_11  and  C_33
    5  A    between atoms: O_27  and  C_33
    6  A    between atoms: C_29  and  C_36
    7  A    between atoms: C_33  and  C_36
                            x       y       z     vdW  Elec       q    Type
                         _______ _______ _______ _____ _____    ______ ____

>  <TORSDO>
F 7

$$$$
=
 OpenBabel10272415023D

 37 43  0  0  1  0  0  0  0  0999 V2000
  191.1540  176.2030  135.1630 O   0  0  0  0  0  1  0  0  0  0  0  0
  189.0380  178.0520  139.4640 C   0  0  0  0  0  2  0  0  0  0  0  0
  189.4500  175.7830  138.3280 C   0  0  0  0  0  2  0  0  0  0  0  0
  186.5440  177.4310  138.6370 C   0  0  2  0  0  3  0  0  0  0  0  0
  187.2620  178.2980  135.4820 O   0  0  0  0  0  1  0  0  0  0  0  0
  185.2220  178.1630  138.4510 C   0  0  0  0  0  2  0  0  0  0  0  0
  189.5900  177.3130  138.2510 C   0  0  1  0  0  0  0  0  0  0  0  0
  187.9540  177.4150  136.3090 C   0  0  1  0  0  0  0  0  0  0  0  0
  190.1480  176.3570  136.1160 C   0  0  2  0  0  0  0  0  0  0  0  0
  186.9740  178.7300  140.7320 C   0  0  0  0  0  2  0  0  0  0  0  0
  188.9970  178.1750  137.0910 C   0  0  2  0  0  3  0  0  0  0  0  0
  190.3500  177.6160  136.9470 C   0  0  1  0  0  3  0  0  0  0  0  0
  187.5260  178.4110  139.3520 C   0  0  1  0  0  3  0  0  0  0  0  0
  186.9680  176.7330  137.2980 C   0  0  2  0  0  3  0  0  0  0  0  0
  190.1580  175.2200  137.1100 C   0  0  0  0  0  2  0  0  0  0  0  0
  184.7350  178.8200  139.7180 C   0  0  0  0  0  0  0  0  0  0  0  0
  188.7650  176.4410  135.4580 C   0  0  0  0  0  2  0  0  0  0  0  0
  185.5620  179.1180  140.6830 N   0  0  0  0  0  0  0  0  0  0  0  0
  182.5150  178.8040  140.8780 C   0  0  0  0  0  3  0  0  0  0  0  0
  183.3210  179.2420  139.8140 C   0  0  0  0  0  0  0  0  0  0  0  0
  182.7670  180.0970  138.8470 C   0  0  0  0  0  3  0  0  0  0  0  0
  180.9080  181.3270  138.0040 F   0  0  0  0  0  0  0  0  0  0  0  0
  180.6390  180.0590  140.0040 C   0  0  0  0  0  3  0  0  0  0  0  0
  181.4320  180.5020  138.9420 C   0  0  0  0  0  0  0  0  0  0  0  0
  181.1820  179.2100  140.9720 C   0  0  0  0  0  3  0  0  0  0  0  0
  186.0960  175.5970  136.7370 C   0  0  2  0  0  3  0  0  0  0  0  0
  186.8330  174.5220  135.9280 C   0  0  0  0  0  2  0  0  0  0  0  0
  186.4850  173.1000  136.3550 C   0  0  2  0  0  3  0  0  0  0  0  0
  188.4860  172.5940  135.0610 O   0  0  0  0  0  1  0  0  0  0  0  0
  187.5760  172.5710  137.2610 C   0  0  0  0  0  2  0  0  0  0  0  0
  187.4690  172.0420  135.8470 C   0  0  1  0  0  3  0  0  0  0  0  0
  184.7150  176.0330  136.2210 C   0  0  2  0  0  3  0  0  0  0  0  0
  183.5790  175.3410  136.9800 C   0  0  2  0  0  3  0  0  0  0  0  0
  182.9630  174.1980  136.1890 C   0  0  0  0  0  1  0  0  0  0  0  0
  182.5960  176.2620  137.2950 F   0  0  0  0  0  0  0  0  0  0  0  0
  184.2400  177.1260  134.3460 C   0  0  0  0  0  1  0  0  0  0  0  0
  184.5900  175.8660  134.8360 O   0  0  0  0  0  0  0  0  0  0  0  0
  4  6  1  6  0  0  0
  4 13  1  0  0  0  0
  6 16  1  0  0  0  0
  7  3  1  6  0  0  0
  7  2  1  0  0  0  0
  8  5  1  6  0  0  0
  8 11  1  0  0  0  0
  8 14  1  0  0  0  0
  9  1  1  6  0  0  0
  9 12  1  0  0  0  0
  9 15  1  0  0  0  0
 11  7  1  0  0  0  0
 12 11  1  0  0  0  0
 12  7  1  0  0  0  0
 13  2  1  0  0  0  0
 13 10  1  0  0  0  0
 14  4  1  0  0  0  0
 15  3  1  0  0  0  0
 16 20  1  0  0  0  0
 16 18  2  0  0  0  0
 17  9  1  0  0  0  0
 17  8  1  0  0  0  0
 18 10  1  0  0  0  0
 19 25  1  0  0  0  0
 20 19  2  0  0  0  0
 21 24  2  0  0  0  0
 21 20  1  0  0  0  0
 22 24  1  0  0  0  0
 23 25  2  0  0  0  0
 24 23  1  0  0  0  0
 26 14  1  0  0  0  0
 27 28  1  0  0  0  0
 27 26  1  0  0  0  0
 28 30  1  0  0  0  0
 29 31  1  0  0  0  0
 31 28  1  0  0  0  0
 31 30  1  0  0  0  0
 32 26  1  0  0  0  0
 32 33  1  0  0  0  0
 33 35  1  0  0  0  0
 34 33  1  0  0  0  0
 36 37  1  0  0  0  0
 37 32  1  0  0  0  0
M  END
>  <MODEL>
7

>  <REMARK>
 VINA RESULT:      -4.4      1.975      2.582
  Name = 
  7 active torsions:
  status: ('A' for Active; 'I' for Inactive)
    1  A    between atoms: C_1  and  C_5
    2  A    between atoms: C_1  and  C_36
    3  A    between atoms: C_6  and  C_31
    4  A    between atoms: C_11  and  C_33
    5  A    between atoms: O_27  and  C_33
    6  A    between atoms: C_29  and  C_36
    7  A    between atoms: C_33  and  C_36
                            x       y       z     vdW  Elec       q    Type
                         _______ _______ _______ _____ _____    ______ ____

>  <TORSDO>
F 7

$$$$
=
 OpenBabel10272415023D

 37 43  0  0  1  0  0  0  0  0999 V2000
  191.1320  176.5400  146.5370 O   0  0  0  0  0  1  0  0  0  0  0  0
  191.6280  177.6780  141.5520 C   0  0  0  0  0  2  0  0  0  0  0  0
  190.8040  178.7870  143.7200 C   0  0  0  0  0  2  0  0  0  0  0  0
  188.9560  177.6430  141.1640 C   0  0  2  0  0  3  0  0  0  0  0  0
  188.5840  175.0390  143.2370 O   0  0  0  0  0  1  0  0  0  0  0  0
  187.9800  176.9370  140.2340 C   0  0  0  0  0  2  0  0  0  0  0  0
  191.3810  177.5290  143.0490 C   0  0  1  0  0  0  0  0  0  0  0  0
  189.2300  176.2500  143.4850 C   0  0  1  0  0  0  0  0  0  0  0  0
  190.6990  176.9900  145.2910 C   0  0  2  0  0  0  0  0  0  0  0  0
  190.5800  177.8950  139.2760 C   0  0  0  0  0  2  0  0  0  0  0  0
  190.6800  176.1330  143.0900 C   0  0  2  0  0  3  0  0  0  0  0  0
  191.6070  176.5000  144.1710 C   0  0  1  0  0  3  0  0  0  0  0  0
  190.3990  177.3110  140.6680 C   0  0  1  0  0  3  0  0  0  0  0  0
  188.5620  177.3840  142.6590 C   0  0  2  0  0  3  0  0  0  0  0  0
  190.7450  178.4970  145.2070 C   0  0  0  0  0  2  0  0  0  0  0  0
  188.2780  177.1850  138.7760 C   0  0  0  0  0  0  0  0  0  0  0  0
  189.2750  176.5100  144.9890 C   0  0  0  0  0  2  0  0  0  0  0  0
  189.4710  177.5450  138.3840 N   0  0  0  0  0  0  0  0  0  0  0  0
  186.4690  177.9350  137.2150 C   0  0  0  0  0  3  0  0  0  0  0  0
  187.2370  176.8960  137.7670 C   0  0  0  0  0  0  0  0  0  0  0  0
  187.0070  175.5790  137.3390 C   0  0  0  0  0  3  0  0  0  0  0  0
  185.8140  174.0320  135.9730 F   0  0  0  0  0  0  0  0  0  0  0  0
  185.2690  176.3470  135.8370 C   0  0  0  0  0  3  0  0  0  0  0  0
  186.0270  175.3060  136.3790 C   0  0  0  0  0  0  0  0  0  0  0  0
  185.4910  177.6620  136.2560 C   0  0  0  0  0  3  0  0  0  0  0  0
  187.2260  177.9340  143.1870 C   0  0  2  0  0  3  0  0  0  0  0  0
  186.8950  177.6030  144.6480 C   0  0  0  0  0  2  0  0  0  0  0  0
  186.8530  178.8320  145.5510 C   0  0  2  0  0  3  0  0  0  0  0  0
  184.7340  177.8350  146.2220 O   0  0  0  0  0  1  0  0  0  0  0  0
  186.9160  178.3890  146.9970 C   0  0  0  0  0  2  0  0  0  0  0  0
  185.6080  178.9060  146.4390 C   0  0  1  0  0  3  0  0  0  0  0  0
  186.0640  177.8920  142.1820 C   0  0  2  0  0  3  0  0  0  0  0  0
  185.8020  179.2650  141.5560 C   0  0  2  0  0  3  0  0  0  0  0  0
  185.1760  179.1630  140.1740 C   0  0  0  0  0  1  0  0  0  0  0  0
  186.9850  179.9760  141.4720 F   0  0  0  0  0  0  0  0  0  0  0  0
  184.0470  178.4340  142.9390 C   0  0  0  0  0  1  0  0  0  0  0  0
  184.9010  177.3470  142.7400 O   0  0  0  0  0  0  0  0  0  0  0  0
  3 15  1  0  0  0  0
  4  6  1  6  0  0  0
  4 14  1  0  0  0  0
  7  2  1  6  0  0  0
  7 11  1  0  0  0  0
  7  3  1  0  0  0  0
  7 12  1  0  0  0  0
  8  5  1  6  0  0  0
  8 17  1  0  0  0  0
  9  1  1  1  0  0  0
 10 13  1  0  0  0  0
 11  8  1  0  0  0  0
 11 12  1  0  0  0  0
 12  9  1  0  0  0  0
 13  4  1  0  0  0  0
 13  2  1  0  0  0  0
 14 26  1  0  0  0  0
 14  8  1  0  0  0  0
 15  9  1  0  0  0  0
 16  6  1  0  0  0  0
 17  9  1  0  0  0  0
 18 16  2  0  0  0  0
 18 10  1  0  0  0  0
 19 20  1  0  0  0  0
 20 16  1  0  0  0  0
 21 20  2  0  0  0  0
 22 24  1  0  0  0  0
 23 25  1  0  0  0  0
 23 24  2  0  0  0  0
 24 21  1  0  0  0  0
 25 19  2  0  0  0  0
 26 27  1  0  0  0  0
 27 28  1  0  0  0  0
 28 31  1  0  0  0  0
 28 30  1  0  0  0  0
 29 31  1  0  0  0  0
 31 30  1  0  0  0  0
 32 37  1  0  0  0  0
 32 26  1  0  0  0  0
 33 32  1  0  0  0  0
 34 33  1  0  0  0  0
 35 33  1  0  0  0  0
 37 36  1  0  0  0  0
M  END
>  <MODEL>
8

>  <REMARK>
 VINA RESULT:      -4.3      3.873      7.380
  Name = 
  7 active torsions:
  status: ('A' for Active; 'I' for Inactive)
    1  A    between atoms: C_1  and  C_5
    2  A    between atoms: C_1  and  C_36
    3  A    between atoms: C_6  and  C_31
    4  A    between atoms: C_11  and  C_33
    5  A    between atoms: O_27  and  C_33
    6  A    between atoms: C_29  and  C_36
    7  A    between atoms: C_33  and  C_36
                            x       y       z     vdW  Elec       q    Type
                         _______ _______ _______ _____ _____    ______ ____

>  <TORSDO>
F 7

$$$$
=
 OpenBabel10272415023D

 37 43  0  0  1  0  0  0  0  0999 V2000
  191.8320  176.8060  136.9710 O   0  0  0  0  0  1  0  0  0  0  0  0
  188.6270  178.2410  140.7210 C   0  0  0  0  0  2  0  0  0  0  0  0
  189.3240  176.0990  139.4820 C   0  0  0  0  0  2  0  0  0  0  0  0
  186.4520  177.8070  139.1800 C   0  0  2  0  0  3  0  0  0  0  0  0
  188.0120  178.9930  136.4630 O   0  0  0  0  0  1  0  0  0  0  0  0
  185.2360  178.6040  138.7290 C   0  0  0  0  0  2  0  0  0  0  0  0
  189.4870  177.6210  139.6250 C   0  0  1  0  0  0  0  0  0  0  0  0
  188.4460  177.9990  137.3380 C   0  0  1  0  0  0  0  0  0  0  0  0
  190.6040  176.8890  137.6250 C   0  0  2  0  0  0  0  0  0  0  0  0
  186.2980  178.8490  141.4510 C   0  0  0  0  0  2  0  0  0  0  0  0
  189.2390  178.6280  138.4570 C   0  0  2  0  0  3  0  0  0  0  0  0
  190.5770  178.0400  138.6220 C   0  0  1  0  0  3  0  0  0  0  0  0
  187.2050  178.6650  140.2450 C   0  0  1  0  0  3  0  0  0  0  0  0
  187.2240  177.2480  137.9350 C   0  0  2  0  0  3  0  0  0  0  0  0
  190.3360  175.6490  138.4450 C   0  0  0  0  0  2  0  0  0  0  0  0
  184.4230  179.1330  139.8840 C   0  0  0  0  0  0  0  0  0  0  0  0
  189.4550  177.0960  136.6310 C   0  0  0  0  0  2  0  0  0  0  0  0
  184.9550  179.2910  141.0650 N   0  0  0  0  0  0  0  0  0  0  0  0
  181.9550  178.9630  140.2740 C   0  0  0  0  0  3  0  0  0  0  0  0
  183.0390  179.5940  139.6400 C   0  0  0  0  0  0  0  0  0  0  0  0
  182.7900  180.6750  138.7800 C   0  0  0  0  0  3  0  0  0  0  0  0
  181.2530  182.1590  137.7240 F   0  0  0  0  0  0  0  0  0  0  0  0
  180.4110  180.4810  139.1910 C   0  0  0  0  0  3  0  0  0  0  0  0
  181.4820  181.1150  138.5560 C   0  0  0  0  0  0  0  0  0  0  0  0
  180.6480  179.4040  140.0500 C   0  0  0  0  0  3  0  0  0  0  0  0
  186.5340  176.2140  137.0290 C   0  0  2  0  0  3  0  0  0  0  0  0
  187.4440  175.1380  136.4250 C   0  0  0  0  0  2  0  0  0  0  0  0
  186.9990  173.7160  136.7530 C   0  0  2  0  0  3  0  0  0  0  0  0
  188.1460  173.2440  134.6570 O   0  0  0  0  0  1  0  0  0  0  0  0
  188.2200  172.8570  137.0050 C   0  0  0  0  0  2  0  0  0  0  0  0
  187.4390  172.6740  135.7210 C   0  0  1  0  0  3  0  0  0  0  0  0
  185.4280  176.7800  136.1230 C   0  0  2  0  0  3  0  0  0  0  0  0
  184.0550  176.1910  136.4640 C   0  0  2  0  0  3  0  0  0  0  0  0
  182.9610  177.2470  136.4950 C   0  0  0  0  0  1  0  0  0  0  0  0
  184.1100  175.5510  137.6880 F   0  0  0  0  0  0  0  0  0  0  0  0
  185.0300  175.5000  134.3530 C   0  0  0  0  0  1  0  0  0  0  0  0
  185.7310  176.6360  134.7640 O   0  0  0  0  0  0  0  0  0  0  0  0
  4  6  1  6  0  0  0
  4 13  1  0  0  0  0
  6 16  1  0  0  0  0
  7  3  1  6  0  0  0
  7  2  1  0  0  0  0
  8  5  1  6  0  0  0
  8 14  1  0  0  0  0
  8 11  1  0  0  0  0
  9  1  1  6  0  0  0
  9 15  1  0  0  0  0
  9 12  1  0  0  0  0
 11 12  1  0  0  0  0
 11  7  1  0  0  0  0
 12  7  1  0  0  0  0
 13  2  1  0  0  0  0
 13 10  1  0  0  0  0
 14  4  1  0  0  0  0
 15  3  1  0  0  0  0
 16 18  2  0  0  0  0
 17  8  1  0  0  0  0
 17  9  1  0  0  0  0
 18 10  1  0  0  0  0
 20 16  1  0  0  0  0
 20 19  2  0  0  0  0
 21 20  1  0  0  0  0
 22 24  1  0  0  0  0
 23 25  2  0  0  0  0
 24 21  2  0  0  0  0
 24 23  1  0  0  0  0
 25 19  1  0  0  0  0
 26 14  1  0  0  0  0
 27 28  1  0  0  0  0
 27 26  1  0  0  0  0
 28 30  1  0  0  0  0
 29 31  1  0  0  0  0
 31 28  1  0  0  0  0
 31 30  1  0  0  0  0
 32 33  1  0  0  0  0
 32 26  1  0  0  0  0
 33 34  1  0  0  0  0
 33 35  1  0  0  0  0
 36 37  1  0  0  0  0
 37 32  1  0  0  0  0
M  END
>  <MODEL>
9

>  <REMARK>
 VINA RESULT:      -4.1      2.074      2.863
  Name = 
  7 active torsions:
  status: ('A' for Active; 'I' for Inactive)
    1  A    between atoms: C_1  and  C_5
    2  A    between atoms: C_1  and  C_36
    3  A    between atoms: C_6  and  C_31
    4  A    between atoms: C_11  and  C_33
    5  A    between atoms: O_27  and  C_33
    6  A    between atoms: C_29  and  C_36
    7  A    between atoms: C_33  and  C_36
                            x       y       z     vdW  Elec       q    Type
                         _______ _______ _______ _____ _____    ______ ____

>  <TORSDO>
F 7

$$$$
