=
 OpenBabel10272413573D

 30 34  0  0  1  0  0  0  0  0999 V2000
  189.8020  177.6890  145.5770 C   0  0  0  0  0  0  0  0  0  0  0  0
  189.0220  176.4110  147.0650 C   0  0  2  0  0  3  0  0  0  0  0  0
  185.2630  179.2270  146.1850 C   0  0  0  0  0  2  0  0  0  0  0  0
  187.3470  176.8070  143.2060 C   0  0  0  0  0  2  0  0  0  0  0  0
  190.2750  178.6680  144.6500 N   0  0  0  0  0  2  0  0  0  0  0  0
  189.5940  177.6520  142.3830 C   0  0  2  0  0  3  0  0  0  0  0  0
  189.7890  179.9820  142.8070 O   0  0  0  0  0  0  0  0  0  0  0  0
  185.3190  178.7720  142.3660 N   0  0  0  0  0  0  0  0  0  0  0  0
  185.0990  179.4710  144.7190 C   0  0  0  0  0  0  0  0  0  0  0  0
  189.8510  178.8240  143.2930 C   0  0  0  0  0  0  0  0  0  0  0  0
  188.1480  177.3000  142.0100 C   0  0  2  0  0  3  0  0  0  0  0  0
  188.3740  176.8770  148.3800 C   0  0  0  0  0  2  0  0  0  0  0  0
  186.4690  179.2310  141.7280 O   0  0  0  0  0  0  0  0  0  0  0  0
  190.6470  176.8860  146.9650 S   0  0  0  0  0  0  0  0  0  0  0  0
  186.6900  178.7710  146.4920 C   0  0  1  0  0  3  0  0  0  0  0  0
  188.1100  178.2560  148.3810 O   0  0  0  0  0  0  0  0  0  0  0  0
  188.5320  177.2180  145.9190 C   0  0  0  0  0  0  0  0  0  0  0  0
  186.9780  177.9750  144.0960 C   0  0  1  0  0  3  0  0  0  0  0  0
  184.5690  180.4970  144.3230 O   0  0  0  0  0  0  0  0  0  0  0  0
  185.5440  178.3950  143.7710 C   0  0  2  0  0  3  0  0  0  0  0  0
  187.9700  178.6860  140.0860 O   0  0  0  0  0  0  0  0  0  0  0  0
  186.7720  178.3840  147.9730 C   0  0  0  0  0  2  0  0  0  0  0  0
  187.1250  177.6040  145.5750 C   0  0  2  0  0  3  0  0  0  0  0  0
  187.4990  178.4130  141.2210 C   0  0  0  0  0  0  0  0  0  0  0  0
  190.6310  176.5310  142.3730 C   0  0  0  0  0  2  0  0  0  0  0  0
  191.2760  177.2750  139.9510 C   0  0  0  0  0  1  0  0  0  0  0  0
  192.1640  176.9860  141.5040 S   0  0  0  0  0  0  0  0  0  0  0  0
  184.7430  177.6420  141.6430 C   0  0  0  0  0  2  0  0  0  0  0  0
  182.7680  178.5270  141.2170 C   0  0  0  0  0  1  0  0  0  0  0  0
  183.9460  178.1090  140.5980 O   0  0  0  0  0  0  0  0  0  0  0  0
  1 17  2  0  0  0  0
  1 14  1  0  0  0  0
  2 12  1  1  0  0  0
  5  1  1  0  0  0  0
  6 25  1  1  0  0  0
  6 10  1  0  0  0  0
  7 10  2  0  0  0  0
  8 20  1  0  0  0  0
  9  3  1  0  0  0  0
 10  5  1  0  0  0  0
 11  6  1  0  0  0  0
 11  4  1  1  0  0  0
 12 16  1  0  0  0  0
 13  8  1  0  0  0  0
 14  2  1  0  0  0  0
 15  3  1  6  0  0  0
 15 22  1  0  0  0  0
 17  2  1  0  0  0  0
 18  4  1  6  0  0  0
 18 23  1  0  0  0  0
 19  9  2  0  0  0  0
 20 18  1  0  0  0  0
 20  9  1  1  0  0  0
 21 24  2  0  0  0  0
 22 16  1  0  0  0  0
 23 17  1  6  0  0  0
 23 15  1  0  0  0  0
 24 13  1  0  0  0  0
 24 11  1  0  0  0  0
 26 27  1  0  0  0  0
 27 25  1  0  0  0  0
 28  8  1  0  0  0  0
 30 29  1  0  0  0  0
 30 28  1  0  0  0  0
M  END
>  <MODEL>
1

>  <REMARK>
 VINA RESULT:      -6.2      0.000      0.000
  Name = 
  4 active torsions:
  status: ('A' for Active; 'I' for Inactive)
    1  A    between atoms: C_6  and  C_8
    2  A    between atoms: C_6  and  S_21
    3  A    between atoms: C_7  and  N_10
    4  A    between atoms: C_7  and  O_26
                            x       y       z     vdW  Elec       q    Type
                         _______ _______ _______ _____ _____    ______ ____

>  <TORSDO>
F 4

$$$$
=
 OpenBabel10272413573D

 30 34  0  0  1  0  0  0  0  0999 V2000
  188.6190  177.8960  145.1030 C   0  0  0  0  0  0  0  0  0  0  0  0
  186.7330  176.9480  145.1210 C   0  0  2  0  0  3  0  0  0  0  0  0
  186.8570  178.6990  140.6770 C   0  0  0  0  0  2  0  0  0  0  0  0
  189.8140  175.9820  142.3940 C   0  0  0  0  0  2  0  0  0  0  0  0
  189.8250  178.6580  145.0330 N   0  0  0  0  0  2  0  0  0  0  0  0
  191.4870  176.9640  144.0300 C   0  0  2  0  0  3  0  0  0  0  0  0
  191.6250  179.3180  143.7350 O   0  0  0  0  0  0  0  0  0  0  0  0
  190.3060  177.2510  139.7810 N   0  0  0  0  0  0  0  0  0  0  0  0
  188.2020  178.5060  140.0540 C   0  0  0  0  0  0  0  0  0  0  0  0
  190.9660  178.3640  144.2220 C   0  0  0  0  0  0  0  0  0  0  0  0
  191.2800  176.2700  142.6770 C   0  0  2  0  0  3  0  0  0  0  0  0
  185.3980  177.6260  144.7690 C   0  0  0  0  0  2  0  0  0  0  0  0
  191.3670  177.7200  140.5510 O   0  0  0  0  0  0  0  0  0  0  0  0
  187.4600  177.6630  146.4770 S   0  0  0  0  0  0  0  0  0  0  0  0
  186.9570  178.6070  142.2000 C   0  0  1  0  0  3  0  0  0  0  0  0
  185.5850  178.8840  144.1720 O   0  0  0  0  0  0  0  0  0  0  0  0
  187.7880  177.3140  144.1420 C   0  0  0  0  0  0  0  0  0  0  0  0
  189.1030  177.2600  142.0020 C   0  0  1  0  0  3  0  0  0  0  0  0
  188.5970  179.2750  139.1920 O   0  0  0  0  0  0  0  0  0  0  0  0
  189.0100  177.3130  140.4770 C   0  0  2  0  0  3  0  0  0  0  0  0
  193.2710  177.0310  141.6230 O   0  0  0  0  0  0  0  0  0  0  0  0
  185.5420  178.6540  142.7870 C   0  0  0  0  0  2  0  0  0  0  0  0
  187.7150  177.3340  142.6450 C   0  0  2  0  0  3  0  0  0  0  0  0
  192.0140  176.9940  141.5720 C   0  0  0  0  0  0  0  0  0  0  0  0
  191.6170  176.0870  145.2740 C   0  0  0  0  0  2  0  0  0  0  0  0
  192.3930  175.6950  147.7400 C   0  0  0  0  0  1  0  0  0  0  0  0
  191.5980  177.0410  146.8240 S   0  0  0  0  0  0  0  0  0  0  0  0
  190.5560  175.8840  139.3350 C   0  0  0  0  0  2  0  0  0  0  0  0
  190.7220  176.6050  137.2570 C   0  0  0  0  0  1  0  0  0  0  0  0
  191.4160  175.8970  138.2370 O   0  0  0  0  0  0  0  0  0  0  0  0
  1 14  1  0  0  0  0
  2 12  1  6  0  0  0
  2 14  1  0  0  0  0
  5  1  1  0  0  0  0
  6 10  1  0  0  0  0
  6 25  1  1  0  0  0
  7 10  2  0  0  0  0
  8 20  1  0  0  0  0
  8 13  1  0  0  0  0
  9  3  1  0  0  0  0
 10  5  1  0  0  0  0
 11  4  1  6  0  0  0
 11  6  1  0  0  0  0
 13 24  1  0  0  0  0
 15  3  1  6  0  0  0
 15 23  1  0  0  0  0
 15 22  1  0  0  0  0
 16 12  1  0  0  0  0
 17  1  2  0  0  0  0
 17  2  1  0  0  0  0
 18  4  1  6  0  0  0
 18 23  1  0  0  0  0
 19  9  2  0  0  0  0
 20  9  1  1  0  0  0
 20 18  1  0  0  0  0
 22 16  1  0  0  0  0
 23 17  1  1  0  0  0
 24 21  2  0  0  0  0
 24 11  1  0  0  0  0
 25 27  1  0  0  0  0
 27 26  1  0  0  0  0
 28  8  1  0  0  0  0
 29 30  1  0  0  0  0
 30 28  1  0  0  0  0
M  END
>  <MODEL>
2

>  <REMARK>
 VINA RESULT:      -5.9      2.473      4.883
  Name = 
  4 active torsions:
  status: ('A' for Active; 'I' for Inactive)
    1  A    between atoms: C_6  and  C_8
    2  A    between atoms: C_6  and  S_21
    3  A    between atoms: C_7  and  N_10
    4  A    between atoms: C_7  and  O_26
                            x       y       z     vdW  Elec       q    Type
                         _______ _______ _______ _____ _____    ______ ____

>  <TORSDO>
F 4

$$$$
=
 OpenBabel10272413573D

 30 34  0  0  1  0  0  0  0  0999 V2000
  190.1170  176.9610  135.8640 C   0  0  0  0  0  0  0  0  0  0  0  0
  191.1150  175.1150  135.6320 C   0  0  2  0  0  3  0  0  0  0  0  0
  193.0990  176.7510  139.6580 C   0  0  0  0  0  2  0  0  0  0  0  0
  188.8220  176.1280  139.0340 C   0  0  0  0  0  2  0  0  0  0  0  0
  189.5780  178.2720  136.0420 N   0  0  0  0  0  2  0  0  0  0  0  0
  187.5890  177.8380  137.6200 C   0  0  2  0  0  3  0  0  0  0  0  0
  188.8230  179.8670  137.5420 O   0  0  0  0  0  0  0  0  0  0  0  0
  189.7820  177.5230  141.4450 N   0  0  0  0  0  0  0  0  0  0  0  0
  192.0760  177.3670  140.5570 C   0  0  0  0  0  0  0  0  0  0  0  0
  188.7120  178.6950  137.1000 C   0  0  0  0  0  0  0  0  0  0  0  0
  187.7290  177.1850  139.0030 C   0  0  2  0  0  3  0  0  0  0  0  0
  192.6410  174.9320  135.5960 C   0  0  0  0  0  2  0  0  0  0  0  0
  188.9850  178.4880  140.8330 O   0  0  0  0  0  0  0  0  0  0  0  0
  190.5690  176.0780  134.3460 S   0  0  0  0  0  0  0  0  0  0  0  0
  192.5780  176.6900  138.2220 C   0  0  1  0  0  3  0  0  0  0  0  0
  193.3230  176.0920  136.0000 O   0  0  0  0  0  0  0  0  0  0  0  0
  190.7170  176.0390  136.7240 C   0  0  0  0  0  0  0  0  0  0  0  0
  190.1820  176.7940  139.0610 C   0  0  1  0  0  3  0  0  0  0  0  0
  192.3950  178.2470  141.3410 O   0  0  0  0  0  0  0  0  0  0  0  0
  190.6760  176.8250  140.5070 C   0  0  2  0  0  3  0  0  0  0  0  0
  186.8120  178.9630  140.2870 O   0  0  0  0  0  0  0  0  0  0  0  0
  193.5890  175.9160  137.3670 C   0  0  0  0  0  2  0  0  0  0  0  0
  191.1700  176.0550  138.1530 C   0  0  2  0  0  3  0  0  0  0  0  0
  187.8130  178.2260  140.0940 C   0  0  0  0  0  0  0  0  0  0  0  0
  186.6930  177.1530  136.5900 C   0  0  0  0  0  2  0  0  0  0  0  0
  185.0260  175.1900  137.0430 C   0  0  0  0  0  1  0  0  0  0  0  0
  184.9650  176.9980  137.1400 S   0  0  0  0  0  0  0  0  0  0  0  0
  188.9580  176.5480  142.1530 C   0  0  0  0  0  2  0  0  0  0  0  0
  187.8400  176.8900  144.0230 C   0  0  0  0  0  1  0  0  0  0  0  0
  189.1290  176.6970  143.5290 O   0  0  0  0  0  0  0  0  0  0  0  0
  1  5  1  0  0  0  0
  1 17  2  0  0  0  0
  2 12  1  6  0  0  0
  2 17  1  0  0  0  0
  3  9  1  0  0  0  0
  5 10  1  0  0  0  0
  6 25  1  6  0  0  0
  6 11  1  0  0  0  0
  8 28  1  0  0  0  0
  9 19  2  0  0  0  0
 10  7  2  0  0  0  0
 10  6  1  0  0  0  0
 11  4  1  6  0  0  0
 11 24  1  0  0  0  0
 12 16  1  0  0  0  0
 13  8  1  0  0  0  0
 14  2  1  0  0  0  0
 14  1  1  0  0  0  0
 15 22  1  6  0  0  0
 15  3  1  0  0  0  0
 16 22  1  0  0  0  0
 18  4  1  1  0  0  0
 18 20  1  0  0  0  0
 20  9  1  6  0  0  0
 20  8  1  0  0  0  0
 23 17  1  6  0  0  0
 23 15  1  0  0  0  0
 23 18  1  0  0  0  0
 24 21  2  0  0  0  0
 24 13  1  0  0  0  0
 25 27  1  0  0  0  0
 26 27  1  0  0  0  0
 28 30  1  0  0  0  0
 30 29  1  0  0  0  0
M  END
>  <MODEL>
3

>  <REMARK>
 VINA RESULT:      -5.0      4.057      8.223
  Name = 
  4 active torsions:
  status: ('A' for Active; 'I' for Inactive)
    1  A    between atoms: C_6  and  C_8
    2  A    between atoms: C_6  and  S_21
    3  A    between atoms: C_7  and  N_10
    4  A    between atoms: C_7  and  O_26
                            x       y       z     vdW  Elec       q    Type
                         _______ _______ _______ _____ _____    ______ ____

>  <TORSDO>
F 4

$$$$
=
 OpenBabel10272413573D

 30 34  0  0  1  0  0  0  0  0999 V2000
  185.0110  175.3920  136.4740 C   0  0  0  0  0  0  0  0  0  0  0  0
  184.8720  173.4850  137.3700 C   0  0  2  0  0  3  0  0  0  0  0  0
  189.2080  173.2680  135.3760 C   0  0  0  0  0  2  0  0  0  0  0  0
  187.9150  176.2770  138.2650 C   0  0  0  0  0  2  0  0  0  0  0  0
  185.1500  176.6110  135.7430 N   0  0  0  0  0  2  0  0  0  0  0  0
  186.3890  178.1210  137.4230 C   0  0  2  0  0  3  0  0  0  0  0  0
  186.5700  178.3080  135.0610 O   0  0  0  0  0  0  0  0  0  0  0  0
  190.4910  176.5740  136.8670 N   0  0  0  0  0  0  0  0  0  0  0  0
  189.9610  174.5450  135.5710 C   0  0  0  0  0  0  0  0  0  0  0  0
  186.0760  177.6650  136.0230 C   0  0  0  0  0  0  0  0  0  0  0  0
  187.7520  177.7710  138.0340 C   0  0  2  0  0  3  0  0  0  0  0  0
  185.0640  172.1470  136.6370 C   0  0  0  0  0  2  0  0  0  0  0  0
  189.7970  177.7150  136.4710 O   0  0  0  0  0  0  0  0  0  0  0  0
  183.5510  174.3530  136.7520 S   0  0  0  0  0  0  0  0  0  0  0  0
  187.7080  173.5010  135.5570 C   0  0  1  0  0  3  0  0  0  0  0  0
  185.6080  172.3200  135.3530 O   0  0  0  0  0  0  0  0  0  0  0  0
  185.9210  174.4600  136.9780 C   0  0  0  0  0  0  0  0  0  0  0  0
  188.1720  175.5760  136.9480 C   0  0  1  0  0  3  0  0  0  0  0  0
  190.8140  174.8850  134.7660 O   0  0  0  0  0  0  0  0  0  0  0  0
  189.6780  175.3480  136.8080 C   0  0  2  0  0  3  0  0  0  0  0  0
  188.9410  179.6830  137.2700 O   0  0  0  0  0  0  0  0  0  0  0  0
  186.9930  172.1460  135.5030 C   0  0  0  0  0  2  0  0  0  0  0  0
  187.4030  174.2540  136.8730 C   0  0  2  0  0  3  0  0  0  0  0  0
  188.8790  178.4260  137.2700 C   0  0  0  0  0  0  0  0  0  0  0  0
  185.2100  178.3330  138.3720 C   0  0  0  0  0  2  0  0  0  0  0  0
  184.0120  178.7380  140.6600 C   0  0  0  0  0  1  0  0  0  0  0  0
  185.7270  178.7090  140.0760 S   0  0  0  0  0  0  0  0  0  0  0  0
  191.0300  176.7390  138.2130 C   0  0  0  0  0  2  0  0  0  0  0  0
  193.1210  176.4520  137.5720 C   0  0  0  0  0  1  0  0  0  0  0  0
  192.1320  175.9000  138.3850 O   0  0  0  0  0  0  0  0  0  0  0  0
  1 14  1  0  0  0  0
  1 17  2  0  0  0  0
  2 12  1  6  0  0  0
  3  9  1  0  0  0  0
  5 10  1  0  0  0  0
  5  1  1  0  0  0  0
  6 11  1  0  0  0  0
  6 25  1  1  0  0  0
  7 10  2  0  0  0  0
  8 28  1  0  0  0  0
 10  6  1  0  0  0  0
 11  4  1  6  0  0  0
 13  8  1  0  0  0  0
 13 24  1  0  0  0  0
 14  2  1  0  0  0  0
 15  3  1  1  0  0  0
 15 23  1  0  0  0  0
 16 22  1  0  0  0  0
 16 12  1  0  0  0  0
 17  2  1  0  0  0  0
 18  4  1  1  0  0  0
 19  9  2  0  0  0  0
 20  9  1  6  0  0  0
 20  8  1  0  0  0  0
 20 18  1  0  0  0  0
 22 15  1  0  0  0  0
 23 18  1  0  0  0  0
 23 17  1  6  0  0  0
 24 21  2  0  0  0  0
 24 11  1  0  0  0  0
 25 27  1  0  0  0  0
 27 26  1  0  0  0  0
 28 30  1  0  0  0  0
 29 30  1  0  0  0  0
M  END
>  <MODEL>
4

>  <REMARK>
 VINA RESULT:      -4.8      6.158      9.583
  Name = 
  4 active torsions:
  status: ('A' for Active; 'I' for Inactive)
    1  A    between atoms: C_6  and  C_8
    2  A    between atoms: C_6  and  S_21
    3  A    between atoms: C_7  and  N_10
    4  A    between atoms: C_7  and  O_26
                            x       y       z     vdW  Elec       q    Type
                         _______ _______ _______ _____ _____    ______ ____

>  <TORSDO>
F 4

$$$$
=
 OpenBabel10272413573D

 30 34  0  0  1  0  0  0  0  0999 V2000
  187.2790  177.7930  145.8380 C   0  0  0  0  0  0  0  0  0  0  0  0
  188.1640  179.0330  147.3000 C   0  0  2  0  0  3  0  0  0  0  0  0
  191.8140  176.1640  146.1710 C   0  0  0  0  0  2  0  0  0  0  0  0
  189.6150  178.6670  143.3480 C   0  0  0  0  0  2  0  0  0  0  0  0
  186.7370  176.8370  144.9250 N   0  0  0  0  0  2  0  0  0  0  0  0
  187.3100  177.8760  142.6380 C   0  0  2  0  0  3  0  0  0  0  0  0
  187.0950  175.5430  143.0390 O   0  0  0  0  0  0  0  0  0  0  0  0
  191.5560  176.6800  142.3680 N   0  0  0  0  0  0  0  0  0  0  0  0
  191.8930  175.9400  144.6950 C   0  0  0  0  0  0  0  0  0  0  0  0
  187.0830  176.6950  143.5440 C   0  0  0  0  0  0  0  0  0  0  0  0
  188.7400  178.2080  142.1910 C   0  0  2  0  0  3  0  0  0  0  0  0
  188.8740  178.5360  148.5700 C   0  0  0  0  0  2  0  0  0  0  0  0
  190.3650  176.2510  141.7880 O   0  0  0  0  0  0  0  0  0  0  0  0
  186.5260  178.5890  147.2830 S   0  0  0  0  0  0  0  0  0  0  0  0
  190.4150  176.6410  146.5630 C   0  0  1  0  0  3  0  0  0  0  0  0
  189.1120  177.1520  148.5360 O   0  0  0  0  0  0  0  0  0  0  0  0
  188.5740  178.2360  146.1160 C   0  0  0  0  0  0  0  0  0  0  0  0
  190.0110  177.4790  144.1990 C   0  0  1  0  0  3  0  0  0  0  0  0
  192.3800  174.9110  144.2550 O   0  0  0  0  0  0  0  0  0  0  0  0
  191.4170  177.0390  143.7890 C   0  0  2  0  0  3  0  0  0  0  0  0
  188.7850  176.8490  140.2400 O   0  0  0  0  0  0  0  0  0  0  0  0
  190.4220  177.0060  148.0520 C   0  0  0  0  0  2  0  0  0  0  0  0
  189.9520  177.8300  145.6890 C   0  0  2  0  0  3  0  0  0  0  0  0
  189.3240  177.0960  141.3510 C   0  0  0  0  0  0  0  0  0  0  0  0
  186.2950  179.0160  142.7030 C   0  0  0  0  0  2  0  0  0  0  0  0
  184.0360  179.1420  144.0120 C   0  0  0  0  0  1  0  0  0  0  0  0
  184.5840  178.4620  142.4240 S   0  0  0  0  0  0  0  0  0  0  0  0
  192.1120  177.8100  141.6310 C   0  0  0  0  0  2  0  0  0  0  0  0
  193.4740  177.1900  140.0100 C   0  0  0  0  0  1  0  0  0  0  0  0
  192.1430  177.5140  140.2680 O   0  0  0  0  0  0  0  0  0  0  0  0
  1 17  2  0  0  0  0
  1 14  1  0  0  0  0
  2 12  1  1  0  0  0
  5  1  1  0  0  0  0
  6 25  1  1  0  0  0
  6 10  1  0  0  0  0
  7 10  2  0  0  0  0
  8 20  1  0  0  0  0
  9  3  1  0  0  0  0
 10  5  1  0  0  0  0
 11  6  1  0  0  0  0
 11  4  1  1  0  0  0
 13  8  1  0  0  0  0
 14  2  1  0  0  0  0
 15  3  1  6  0  0  0
 15 22  1  0  0  0  0
 16 12  1  0  0  0  0
 17  2  1  0  0  0  0
 18  4  1  6  0  0  0
 18 23  1  0  0  0  0
 19  9  2  0  0  0  0
 20 18  1  0  0  0  0
 20  9  1  1  0  0  0
 21 24  2  0  0  0  0
 22 16  1  0  0  0  0
 23 17  1  1  0  0  0
 23 15  1  0  0  0  0
 24 13  1  0  0  0  0
 24 11  1  0  0  0  0
 27 25  1  0  0  0  0
 27 26  1  0  0  0  0
 28  8  1  0  0  0  0
 29 30  1  0  0  0  0
 30 28  1  0  0  0  0
M  END
>  <MODEL>
5

>  <REMARK>
 VINA RESULT:      -4.8      2.848      5.403
  Name = 
  4 active torsions:
  status: ('A' for Active; 'I' for Inactive)
    1  A    between atoms: C_6  and  C_8
    2  A    between atoms: C_6  and  S_21
    3  A    between atoms: C_7  and  N_10
    4  A    between atoms: C_7  and  O_26
                            x       y       z     vdW  Elec       q    Type
                         _______ _______ _______ _____ _____    ______ ____

>  <TORSDO>
F 4

$$$$
=
 OpenBabel10272413573D

 30 34  0  0  1  0  0  0  0  0999 V2000
  192.1470  176.9250  139.4830 C   0  0  0  0  0  0  0  0  0  0  0  0
  190.4950  176.6260  140.7630 C   0  0  2  0  0  3  0  0  0  0  0  0
  188.3100  177.5210  136.6100 C   0  0  0  0  0  2  0  0  0  0  0  0
  191.2120  174.3290  137.2900 C   0  0  0  0  0  2  0  0  0  0  0  0
  193.1960  177.2520  138.5700 N   0  0  0  0  0  2  0  0  0  0  0  0
  193.6590  174.9880  137.4310 C   0  0  2  0  0  3  0  0  0  0  0  0
  193.9890  177.1040  136.4000 O   0  0  0  0  0  0  0  0  0  0  0  0
  190.3000  174.9480  134.5570 N   0  0  0  0  0  0  0  0  0  0  0  0
  188.9900  176.8220  135.4760 C   0  0  0  0  0  0  0  0  0  0  0  0
  193.5870  176.4920  137.4230 C   0  0  0  0  0  0  0  0  0  0  0  0
  192.5930  174.1870  136.6700 C   0  0  2  0  0  3  0  0  0  0  0  0
  189.3390  177.6210  140.9630 C   0  0  0  0  0  2  0  0  0  0  0  0
  191.6720  175.1790  134.4800 O   0  0  0  0  0  0  0  0  0  0  0  0
  191.9800  177.2850  141.2520 S   0  0  0  0  0  0  0  0  0  0  0  0
  189.2580  177.6460  137.8030 C   0  0  1  0  0  3  0  0  0  0  0  0
  189.3510  178.6460  140.0030 O   0  0  0  0  0  0  0  0  0  0  0  0
  190.8310  176.4850  139.3240 C   0  0  0  0  0  0  0  0  0  0  0  0
  190.6300  175.6850  136.9500 C   0  0  1  0  0  3  0  0  0  0  0  0
  188.9320  177.2830  134.3470 O   0  0  0  0  0  0  0  0  0  0  0  0
  189.6800  175.5200  135.7630 C   0  0  2  0  0  3  0  0  0  0  0  0
  193.6970  174.1130  134.5650 O   0  0  0  0  0  0  0  0  0  0  0  0
  188.4770  178.2240  138.9890 C   0  0  0  0  0  2  0  0  0  0  0  0
  189.9080  176.2880  138.1590 C   0  0  2  0  0  3  0  0  0  0  0  0
  192.6590  174.4610  135.1850 C   0  0  0  0  0  0  0  0  0  0  0  0
  194.3370  174.3240  138.6270 C   0  0  0  0  0  2  0  0  0  0  0  0
  196.4020  174.2470  137.0250 C   0  0  0  0  0  1  0  0  0  0  0  0
  195.5780  173.0840  138.1440 S   0  0  0  0  0  0  0  0  0  0  0  0
  190.0140  173.5180  134.4920 C   0  0  0  0  0  2  0  0  0  0  0  0
  188.7080  172.0100  135.4320 C   0  0  0  0  0  1  0  0  0  0  0  0
  188.6910  173.2850  134.8700 O   0  0  0  0  0  0  0  0  0  0  0  0
  1 14  1  0  0  0  0
  2 12  1  6  0  0  0
  2 14  1  0  0  0  0
  5  1  1  0  0  0  0
  6 25  1  1  0  0  0
  7 10  2  0  0  0  0
  8 20  1  0  0  0  0
  9  3  1  0  0  0  0
 10  6  1  0  0  0  0
 10  5  1  0  0  0  0
 11  4  1  1  0  0  0
 11  6  1  0  0  0  0
 13  8  1  0  0  0  0
 13 24  1  0  0  0  0
 15  3  1  6  0  0  0
 15 23  1  0  0  0  0
 15 22  1  0  0  0  0
 16 12  1  0  0  0  0
 17  1  2  0  0  0  0
 17  2  1  0  0  0  0
 18  4  1  1  0  0  0
 18 23  1  0  0  0  0
 19  9  2  0  0  0  0
 20  9  1  6  0  0  0
 20 18  1  0  0  0  0
 21 24  2  0  0  0  0
 22 16  1  0  0  0  0
 23 17  1  1  0  0  0
 24 11  1  0  0  0  0
 26 27  1  0  0  0  0
 27 25  1  0  0  0  0
 28  8  1  0  0  0  0
 28 30  1  0  0  0  0
 30 29  1  0  0  0  0
M  END
>  <MODEL>
6

>  <REMARK>
 VINA RESULT:      -4.7      5.312      8.404
  Name = 
  4 active torsions:
  status: ('A' for Active; 'I' for Inactive)
    1  A    between atoms: C_6  and  C_8
    2  A    between atoms: C_6  and  S_21
    3  A    between atoms: C_7  and  N_10
    4  A    between atoms: C_7  and  O_26
                            x       y       z     vdW  Elec       q    Type
                         _______ _______ _______ _____ _____    ______ ____

>  <TORSDO>
F 4

$$$$
=
 OpenBabel10272413573D

 30 34  0  0  1  0  0  0  0  0999 V2000
  181.7880  175.7010  137.6200 C   0  0  0  0  0  0  0  0  0  0  0  0
  180.5670  177.4210  137.5360 C   0  0  2  0  0  3  0  0  0  0  0  0
  184.2110  178.9900  140.1980 C   0  0  0  0  0  2  0  0  0  0  0  0
  184.5670  177.3200  136.1780 C   0  0  0  0  0  2  0  0  0  0  0  0
  182.6220  174.5590  137.8260 N   0  0  0  0  0  2  0  0  0  0  0  0
  184.3600  174.8020  135.9390 C   0  0  2  0  0  3  0  0  0  0  0  0
  184.7820  173.7520  138.0290 O   0  0  0  0  0  0  0  0  0  0  0  0
  186.9800  177.8460  137.7850 N   0  0  0  0  0  0  0  0  0  0  0  0
  185.5220  178.5200  139.6550 C   0  0  0  0  0  0  0  0  0  0  0  0
  183.9500  174.3800  137.3260 C   0  0  0  0  0  0  0  0  0  0  0  0
  185.2630  176.0310  135.7710 C   0  0  2  0  0  3  0  0  0  0  0  0
  180.0490  178.1990  138.7580 C   0  0  0  0  0  2  0  0  0  0  0  0
  187.0520  176.4720  137.5700 O   0  0  0  0  0  0  0  0  0  0  0  0
  179.9830  175.8280  137.5150 S   0  0  0  0  0  0  0  0  0  0  0  0
  183.0730  178.1130  139.6740 C   0  0  1  0  0  3  0  0  0  0  0  0
  180.6890  177.8070  139.9450 O   0  0  0  0  0  0  0  0  0  0  0  0
  182.0030  177.0790  137.6950 C   0  0  0  0  0  0  0  0  0  0  0  0
  184.4930  177.4120  137.6870 C   0  0  1  0  0  3  0  0  0  0  0  0
  186.4770  178.3690  140.4010 O   0  0  0  0  0  0  0  0  0  0  0  0
  185.6360  178.3050  138.1730 C   0  0  2  0  0  3  0  0  0  0  0  0
  187.3540  174.9100  135.9220 O   0  0  0  0  0  0  0  0  0  0  0  0
  181.7400  178.7210  140.1260 C   0  0  0  0  0  2  0  0  0  0  0  0
  183.1340  177.9580  138.1370 C   0  0  2  0  0  3  0  0  0  0  0  0
  186.6160  175.8080  136.4050 C   0  0  0  0  0  0  0  0  0  0  0  0
  183.4240  174.4360  134.7890 C   0  0  0  0  0  2  0  0  0  0  0  0
  185.1570  172.5250  134.3650 C   0  0  0  0  0  1  0  0  0  0  0  0
  183.3520  172.6450  134.4720 S   0  0  0  0  0  0  0  0  0  0  0  0
  187.4230  178.5780  136.6030 C   0  0  0  0  0  2  0  0  0  0  0  0
  189.2790  178.8990  137.7510 C   0  0  0  0  0  1  0  0  0  0  0  0
  188.3330  179.5680  136.9760 O   0  0  0  0  0  0  0  0  0  0  0  0
  1 17  2  0  0  0  0
  1  5  1  0  0  0  0
  2 17  1  0  0  0  0
  2 12  1  1  0  0  0
  6 25  1  6  0  0  0
  6 10  1  0  0  0  0
  8 20  1  0  0  0  0
  9  3  1  0  0  0  0
  9 19  2  0  0  0  0
 10  5  1  0  0  0  0
 10  7  2  0  0  0  0
 11  6  1  0  0  0  0
 11  4  1  1  0  0  0
 11 24  1  0  0  0  0
 12 16  1  0  0  0  0
 13  8  1  0  0  0  0
 14  2  1  0  0  0  0
 14  1  1  0  0  0  0
 15 22  1  6  0  0  0
 15  3  1  0  0  0  0
 16 22  1  0  0  0  0
 18  4  1  6  0  0  0
 18 23  1  0  0  0  0
 18 20  1  0  0  0  0
 20  9  1  1  0  0  0
 21 24  2  0  0  0  0
 23 17  1  1  0  0  0
 23 15  1  0  0  0  0
 24 13  1  0  0  0  0
 26 27  1  0  0  0  0
 27 25  1  0  0  0  0
 28 30  1  0  0  0  0
 28  8  1  0  0  0  0
 30 29  1  0  0  0  0
M  END
>  <MODEL>
7

>  <REMARK>
 VINA RESULT:      -4.6      6.335      8.855
  Name = 
  4 active torsions:
  status: ('A' for Active; 'I' for Inactive)
    1  A    between atoms: C_6  and  C_8
    2  A    between atoms: C_6  and  S_21
    3  A    between atoms: C_7  and  N_10
    4  A    between atoms: C_7  and  O_26
                            x       y       z     vdW  Elec       q    Type
                         _______ _______ _______ _____ _____    ______ ____

>  <TORSDO>
F 4

$$$$
=
 OpenBabel10272413573D

 30 34  0  0  1  0  0  0  0  0999 V2000
  185.7120  178.0390  139.3710 C   0  0  0  0  0  0  0  0  0  0  0  0
  185.2830  179.5390  140.7940 C   0  0  2  0  0  3  0  0  0  0  0  0
  188.3600  176.8030  143.2160 C   0  0  0  0  0  2  0  0  0  0  0  0
  189.1730  178.7040  139.3700 C   0  0  0  0  0  2  0  0  0  0  0  0
  185.9750  176.9240  138.5170 N   0  0  0  0  0  2  0  0  0  0  0  0
  188.1290  177.6560  137.3080 C   0  0  2  0  0  3  0  0  0  0  0  0
  187.5410  175.3980  137.7560 O   0  0  0  0  0  0  0  0  0  0  0  0
  191.0650  176.7380  140.4820 N   0  0  0  0  0  0  0  0  0  0  0  0
  189.5020  176.3720  142.3520 C   0  0  0  0  0  0  0  0  0  0  0  0
  187.2270  176.6070  137.9020 C   0  0  0  0  0  0  0  0  0  0  0  0
  189.4300  178.0200  138.0360 C   0  0  2  0  0  3  0  0  0  0  0  0
  184.7720  179.2840  142.2210 C   0  0  0  0  0  2  0  0  0  0  0  0
  190.6830  176.1460  139.2800 O   0  0  0  0  0  0  0  0  0  0  0  0
  184.1840  178.9820  139.6270 S   0  0  0  0  0  0  0  0  0  0  0  0
  187.1720  177.2310  142.3550 C   0  0  1  0  0  3  0  0  0  0  0  0
  184.8680  177.9300  142.5840 O   0  0  0  0  0  0  0  0  0  0  0  0
  186.3880  178.6080  140.4520 C   0  0  0  0  0  0  0  0  0  0  0  0
  188.7240  177.6840  140.3950 C   0  0  1  0  0  3  0  0  0  0  0  0
  190.0880  175.3270  142.5840 O   0  0  0  0  0  0  0  0  0  0  0  0
  189.9330  177.2900  141.2440 C   0  0  2  0  0  3  0  0  0  0  0  0
  190.8320  176.3980  137.0080 O   0  0  0  0  0  0  0  0  0  0  0  0
  186.0870  177.8090  143.2710 C   0  0  0  0  0  2  0  0  0  0  0  0
  187.5940  178.2430  141.2650 C   0  0  2  0  0  3  0  0  0  0  0  0
  190.3740  176.8420  138.0930 C   0  0  0  0  0  0  0  0  0  0  0  0
  187.4810  178.7180  136.4210 C   0  0  0  0  0  2  0  0  0  0  0  0
  188.3870  177.2860  134.4300 C   0  0  0  0  0  1  0  0  0  0  0  0
  186.8000  178.0380  134.8770 S   0  0  0  0  0  0  0  0  0  0  0  0
  192.0540  177.7860  140.2500 C   0  0  0  0  0  2  0  0  0  0  0  0
  193.8140  176.9090  139.2500 C   0  0  0  0  0  1  0  0  0  0  0  0
  193.3330  177.2890  140.5020 O   0  0  0  0  0  0  0  0  0  0  0  0
  1 14  1  0  0  0  0
  1 17  2  0  0  0  0
  2 12  1  1  0  0  0
  5  1  1  0  0  0  0
  6 25  1  1  0  0  0
  6 10  1  0  0  0  0
  6 11  1  0  0  0  0
  7 10  2  0  0  0  0
  8 20  1  0  0  0  0
  9 19  2  0  0  0  0
  9  3  1  0  0  0  0
 10  5  1  0  0  0  0
 11 24  1  0  0  0  0
 11  4  1  1  0  0  0
 12 16  1  0  0  0  0
 13  8  1  0  0  0  0
 14  2  1  0  0  0  0
 15  3  1  1  0  0  0
 15 22  1  0  0  0  0
 16 22  1  0  0  0  0
 17  2  1  0  0  0  0
 18  4  1  6  0  0  0
 18 20  1  0  0  0  0
 18 23  1  0  0  0  0
 20  9  1  1  0  0  0
 21 24  2  0  0  0  0
 23 17  1  6  0  0  0
 23 15  1  0  0  0  0
 24 13  1  0  0  0  0
 26 27  1  0  0  0  0
 27 25  1  0  0  0  0
 28  8  1  0  0  0  0
 28 30  1  0  0  0  0
 29 30  1  0  0  0  0
M  END
>  <MODEL>
8

>  <REMARK>
 VINA RESULT:      -4.6      3.876      6.714
  Name = 
  4 active torsions:
  status: ('A' for Active; 'I' for Inactive)
    1  A    between atoms: C_6  and  C_8
    2  A    between atoms: C_6  and  S_21
    3  A    between atoms: C_7  and  N_10
    4  A    between atoms: C_7  and  O_26
                            x       y       z     vdW  Elec       q    Type
                         _______ _______ _______ _____ _____    ______ ____

>  <TORSDO>
F 4

$$$$
=
 OpenBabel10272413573D

 30 34  0  0  1  0  0  0  0  0999 V2000
  182.6490  174.1200  136.3780 C   0  0  0  0  0  0  0  0  0  0  0  0
  181.3260  175.4350  135.3880 C   0  0  2  0  0  3  0  0  0  0  0  0
  183.6950  178.4560  138.2320 C   0  0  0  0  0  2  0  0  0  0  0  0
  185.5330  175.8200  135.2740 C   0  0  0  0  0  2  0  0  0  0  0  0
  183.5000  173.2950  137.1760 N   0  0  0  0  0  2  0  0  0  0  0  0
  185.7140  173.3570  135.8610 C   0  0  2  0  0  3  0  0  0  0  0  0
  185.5570  173.0710  138.2150 O   0  0  0  0  0  0  0  0  0  0  0  0
  187.2120  177.2970  137.1920 N   0  0  0  0  0  0  0  0  0  0  0  0
  185.1580  178.1460  138.2560 C   0  0  0  0  0  0  0  0  0  0  0  0
  184.9300  173.2740  137.1430 C   0  0  0  0  0  0  0  0  0  0  0  0
  186.4710  174.6520  135.5330 C   0  0  2  0  0  3  0  0  0  0  0  0
  180.3520  176.3990  136.0850 C   0  0  0  0  0  2  0  0  0  0  0  0
  187.5130  175.9690  137.4850 O   0  0  0  0  0  0  0  0  0  0  0  0
  180.9740  173.8160  135.7540 S   0  0  0  0  0  0  0  0  0  0  0  0
  182.9010  177.2400  137.7530 C   0  0  1  0  0  3  0  0  0  0  0  0
  180.6130  176.5140  137.4600 O   0  0  0  0  0  0  0  0  0  0  0  0
  182.6630  175.4740  136.0340 C   0  0  0  0  0  0  0  0  0  0  0  0
  184.9630  176.3240  136.5830 C   0  0  1  0  0  3  0  0  0  0  0  0
  185.8300  178.4280  139.2360 O   0  0  0  0  0  0  0  0  0  0  0  0
  185.7710  177.5440  137.0240 C   0  0  2  0  0  3  0  0  0  0  0  0
  188.5170  174.1040  136.6130 O   0  0  0  0  0  0  0  0  0  0  0  0
  181.4310  177.6470  137.5950 C   0  0  0  0  0  2  0  0  0  0  0  0
  183.4770  176.6660  136.4370 C   0  0  2  0  0  3  0  0  0  0  0  0
  187.5620  174.9190  136.5440 C   0  0  0  0  0  0  0  0  0  0  0  0
  185.2530  172.4820  134.6970 C   0  0  0  0  0  2  0  0  0  0  0  0
  187.2880  170.9940  135.3910 C   0  0  0  0  0  1  0  0  0  0  0  0
  185.5460  170.7080  134.9820 S   0  0  0  0  0  0  0  0  0  0  0  0
  187.9260  177.7360  135.9970 C   0  0  0  0  0  2  0  0  0  0  0  0
  189.0430  179.1340  137.2870 C   0  0  0  0  0  1  0  0  0  0  0  0
  189.2200  178.1270  136.3380 O   0  0  0  0  0  0  0  0  0  0  0  0
  1  5  1  0  0  0  0
  2 14  1  0  0  0  0
  2 17  1  0  0  0  0
  2 12  1  1  0  0  0
  3  9  1  0  0  0  0
  6 25  1  6  0  0  0
  6 10  1  0  0  0  0
  8 13  1  0  0  0  0
  9 19  2  0  0  0  0
 10  5  1  0  0  0  0
 10  7  2  0  0  0  0
 11  4  1  1  0  0  0
 11  6  1  0  0  0  0
 11 24  1  0  0  0  0
 12 16  1  0  0  0  0
 14  1  1  0  0  0  0
 15 22  1  6  0  0  0
 15  3  1  0  0  0  0
 16 22  1  0  0  0  0
 17  1  2  0  0  0  0
 18  4  1  6  0  0  0
 18 20  1  0  0  0  0
 20  8  1  0  0  0  0
 20  9  1  1  0  0  0
 23 17  1  1  0  0  0
 23 18  1  0  0  0  0
 23 15  1  0  0  0  0
 24 21  2  0  0  0  0
 24 13  1  0  0  0  0
 25 27  1  0  0  0  0
 27 26  1  0  0  0  0
 28 30  1  0  0  0  0
 28  8  1  0  0  0  0
 30 29  1  0  0  0  0
M  END
>  <MODEL>
9

>  <REMARK>
 VINA RESULT:      -4.6      7.218      9.602
  Name = 
  4 active torsions:
  status: ('A' for Active; 'I' for Inactive)
    1  A    between atoms: C_6  and  C_8
    2  A    between atoms: C_6  and  S_21
    3  A    between atoms: C_7  and  N_10
    4  A    between atoms: C_7  and  O_26
                            x       y       z     vdW  Elec       q    Type
                         _______ _______ _______ _____ _____    ______ ____

>  <TORSDO>
F 4

$$$$
