=
 OpenBabel10272414443D

 37 43  0  0  1  0  0  0  0  0999 V2000
  187.6090  178.3550  142.2940 C   0  0  0  0  0  2  0  0  0  0  0  0
  189.7260  177.4070  137.2580 C   0  0  2  0  0  3  0  0  0  0  0  0
  185.3910  177.8970  137.9800 C   0  0  1  0  0  3  0  0  0  0  0  0
  187.8570  177.5990  143.6030 C   0  0  2  0  0  3  0  0  0  0  0  0
  183.2810  178.5550  140.9500 O   0  0  0  0  0  0  0  0  0  0  0  0
  187.3220  176.3200  137.4360 C   0  0  1  0  0  3  0  0  0  0  0  0
  185.0260  177.9190  139.4390 C   0  0  2  0  0  3  0  0  0  0  0  0
  186.8850  177.6610  137.9620 C   0  0  2  0  0  3  0  0  0  0  0  0
  183.8950  178.9040  139.7420 C   0  0  1  0  0  3  0  0  0  0  0  0
  186.6550  176.0340  136.1120 C   0  0  0  0  0  2  0  0  0  0  0  0
  186.5790  177.2650  144.3910 C   0  0  0  0  0  2  0  0  0  0  0  0
  187.4000  177.7820  139.3210 N   0  0  1  0  0  0  0  0  0  0  0  0
  189.3440  178.7270  137.9750 C   0  0  0  0  0  2  0  0  0  0  0  0
  183.1980  176.5930  137.7400 C   0  0  0  0  0  2  0  0  0  0  0  0
  185.1750  175.8130  136.4170 C   0  0  0  0  0  2  0  0  0  0  0  0
  188.6050  178.6300  139.3350 C   0  0  0  0  0  2  0  0  0  0  0  0
  185.3430  178.0660  143.9640 C   0  0  2  0  0  3  0  0  0  0  0  0
  184.0990  179.0920  141.9530 C   0  0  0  0  0  2  0  0  0  0  0  0
  184.4900  177.0420  137.0430 C   0  0  2  0  0  3  0  0  0  0  0  0
  186.3140  178.3520  140.1260 C   0  0  2  0  0  3  0  0  0  0  0  0
  188.8510  176.1510  137.4720 C   0  0  0  0  0  2  0  0  0  0  0  0
  182.8680  179.0330  138.5960 C   0  0  1  0  0  3  0  0  0  0  0  0
  191.1690  177.0660  137.5630 C   0  0  0  0  0  1  0  0  0  0  0  0
  185.0930  178.0300  142.4390 C   0  0  1  0  0  3  0  0  0  0  0  0
  186.3730  177.8250  141.5750 C   0  0  2  0  0  3  0  0  0  0  0  0
  182.2240  177.7290  138.0920 C   0  0  0  0  0  2  0  0  0  0  0  0
  180.9100  179.9700  139.8890 C   0  0  0  0  0  3  0  0  0  0  0  0
  181.8510  180.1000  138.8580 C   0  0  0  0  0  0  0  0  0  0  0  0
  181.8610  181.2580  138.0720 C   0  0  0  0  0  3  0  0  0  0  0  0
  180.9430  183.3940  137.5440 F   0  0  0  0  0  0  0  0  0  0  0  0
  179.9920  182.1400  139.3350 C   0  0  0  0  0  3  0  0  0  0  0  0
  180.9320  182.2760  138.3080 C   0  0  0  0  0  0  0  0  0  0  0  0
  179.9820  180.9880  140.1250 C   0  0  0  0  0  3  0  0  0  0  0  0
  185.2420  179.4370  144.6480 C   0  0  0  0  0  2  0  0  0  0  0  0
  185.6060  179.4080  146.1220 C   0  0  0  0  0  1  0  0  0  0  0  0
  188.8300  177.5940  145.5900 C   0  0  0  0  0  1  0  0  0  0  0  0
  188.7350  178.3290  144.4070 O   0  0  0  0  0  0  0  0  0  0  0  0
  1  4  1  0  0  0  0
  2 21  1  0  0  0  0
  2 23  1  1  0  0  0
  2 13  1  0  0  0  0
  3  7  1  0  0  0  0
  4 11  1  0  0  0  0
  4 37  1  0  0  0  0
  5 18  1  0  0  0  0
  6 21  1  0  0  0  0
  6  8  1  0  0  0  0
  7  9  1  0  0  0  0
  7 20  1  0  0  0  0
  8  3  1  0  0  0  0
  8 12  1  0  0  0  0
  9  5  1  0  0  0  0
 10 15  1  0  0  0  0
 10  6  1  0  0  0  0
 12 16  1  0  0  0  0
 12 20  1  0  0  0  0
 13 16  1  0  0  0  0
 14 26  1  0  0  0  0
 15 19  1  0  0  0  0
 17 11  1  0  0  0  0
 17 34  1  0  0  0  0
 18 24  1  0  0  0  0
 19 14  1  0  0  0  0
 19  3  1  0  0  0  0
 20 25  1  0  0  0  0
 22 28  1  0  0  0  0
 22  9  1  0  0  0  0
 24 17  1  0  0  0  0
 25  1  1  0  0  0  0
 25 24  1  0  0  0  0
 26 22  1  0  0  0  0
 27 33  1  0  0  0  0
 28 27  2  0  0  0  0
 29 32  2  0  0  0  0
 29 28  1  0  0  0  0
 30 32  1  0  0  0  0
 31 33  2  0  0  0  0
 32 31  1  0  0  0  0
 34 35  1  0  0  0  0
 37 36  1  0  0  0  0
M  END
>  <MODEL>
1

>  <REMARK>
 VINA RESULT:      -7.4      0.000      0.000
  Name = 
  3 active torsions:
  status: ('A' for Active; 'I' for Inactive)
    1  A    between atoms: C_5  and  O_23
    2  A    between atoms: C_6  and  C_31
    3  A    between atoms: C_11  and  C_26
                            x       y       z     vdW  Elec       q    Type
                         _______ _______ _______ _____ _____    ______ ____

>  <TORSDO>
F 3

$$$$
=
 OpenBabel10272414443D

 37 43  0  0  1  0  0  0  0  0999 V2000
  186.2940  176.1420  137.1110 C   0  0  0  0  0  2  0  0  0  0  0  0
  189.7620  172.1300  135.4920 C   0  0  2  0  0  3  0  0  0  0  0  0
  190.9200  175.2770  138.3730 C   0  0  1  0  0  3  0  0  0  0  0  0
  185.4380  177.0800  136.2550 C   0  0  2  0  0  3  0  0  0  0  0  0
  189.2180  178.1840  139.9130 O   0  0  0  0  0  0  0  0  0  0  0  0
  191.1260  174.3340  136.0110 C   0  0  1  0  0  3  0  0  0  0  0  0
  189.9050  176.3820  138.4930 C   0  0  2  0  0  3  0  0  0  0  0  0
  190.3630  174.3590  137.3090 C   0  0  2  0  0  3  0  0  0  0  0  0
  189.7730  176.8980  139.9280 C   0  0  1  0  0  3  0  0  0  0  0  0
  192.5980  174.1240  136.2740 C   0  0  0  0  0  2  0  0  0  0  0  0
  185.5100  178.5580  136.6740 C   0  0  0  0  0  2  0  0  0  0  0  0
  188.9960  174.7650  137.0000 N   0  0  1  0  0  0  0  0  0  0  0  0
  188.8300  172.2390  136.7260 C   0  0  0  0  0  2  0  0  0  0  0  0
  192.6110  177.1870  138.6260 C   0  0  0  0  0  2  0  0  0  0  0  0
  193.1020  175.4020  136.9400 C   0  0  0  0  0  2  0  0  0  0  0  0
  188.1090  173.5900  136.9770 C   0  0  0  0  0  2  0  0  0  0  0  0
  186.0820  178.7920  138.0780 C   0  0  2  0  0  3  0  0  0  0  0  0
  187.8360  177.9930  139.7890 C   0  0  0  0  0  2  0  0  0  0  0  0
  192.4140  175.7030  138.2840 C   0  0  2  0  0  3  0  0  0  0  0  0
  188.6080  175.7300  138.0340 C   0  0  2  0  0  3  0  0  0  0  0  0
  190.4840  173.3960  134.9760 C   0  0  0  0  0  2  0  0  0  0  0  0
  191.0960  176.8560  140.7220 C   0  0  1  0  0  3  0  0  0  0  0  0
  189.0120  171.4830  134.3480 C   0  0  0  0  0  1  0  0  0  0  0  0
  187.4290  178.0710  138.3130 C   0  0  1  0  0  3  0  0  0  0  0  0
  187.6330  176.7810  137.4630 C   0  0  2  0  0  3  0  0  0  0  0  0
  192.3090  177.5610  140.0860 C   0  0  0  0  0  2  0  0  0  0  0  0
  191.7930  178.1210  142.7950 C   0  0  0  0  0  3  0  0  0  0  0  0
  190.9120  177.2350  142.1580 C   0  0  0  0  0  0  0  0  0  0  0  0
  189.8250  176.7120  142.8670 C   0  0  0  0  0  3  0  0  0  0  0  0
  188.5700  176.5540  144.8880 F   0  0  0  0  0  0  0  0  0  0  0  0
  190.5060  177.9450  144.8370 C   0  0  0  0  0  3  0  0  0  0  0  0
  189.6220  177.0640  144.2050 C   0  0  0  0  0  0  0  0  0  0  0  0
  191.5900  178.4740  144.1320 C   0  0  0  0  0  3  0  0  0  0  0  0
  185.0300  178.6700  139.1900 C   0  0  0  0  0  2  0  0  0  0  0  0
  183.7360  179.4040  138.8840 C   0  0  0  0  0  1  0  0  0  0  0  0
  184.0820  175.6120  137.2050 C   0  0  0  0  0  1  0  0  0  0  0  0
  184.1110  176.6460  136.2670 O   0  0  0  0  0  0  0  0  0  0  0  0
  1 25  1  0  0  0  0
  2 23  1  6  0  0  0
  2 13  1  0  0  0  0
  3  7  1  0  0  0  0
  4 37  1  0  0  0  0
  4 11  1  0  0  0  0
  4  1  1  0  0  0  0
  5  9  1  0  0  0  0
  6 10  1  0  0  0  0
  6  8  1  0  0  0  0
  7  9  1  0  0  0  0
  8  3  1  0  0  0  0
  9 22  1  0  0  0  0
 10 15  1  0  0  0  0
 11 17  1  0  0  0  0
 12  8  1  0  0  0  0
 12 20  1  0  0  0  0
 13 16  1  0  0  0  0
 14 26  1  0  0  0  0
 15 19  1  0  0  0  0
 16 12  1  0  0  0  0
 17 24  1  0  0  0  0
 17 34  1  0  0  0  0
 18  5  1  0  0  0  0
 19  3  1  0  0  0  0
 19 14  1  0  0  0  0
 20  7  1  0  0  0  0
 21  2  1  0  0  0  0
 21  6  1  0  0  0  0
 22 28  1  0  0  0  0
 24 18  1  0  0  0  0
 25 20  1  0  0  0  0
 25 24  1  0  0  0  0
 26 22  1  0  0  0  0
 27 33  1  0  0  0  0
 28 27  2  0  0  0  0
 28 29  1  0  0  0  0
 29 32  2  0  0  0  0
 32 31  1  0  0  0  0
 32 30  1  0  0  0  0
 33 31  2  0  0  0  0
 35 34  1  0  0  0  0
 37 36  1  0  0  0  0
M  END
>  <MODEL>
2

>  <REMARK>
 VINA RESULT:      -6.5      3.479      7.892
  Name = 
  3 active torsions:
  status: ('A' for Active; 'I' for Inactive)
    1  A    between atoms: C_5  and  O_23
    2  A    between atoms: C_6  and  C_31
    3  A    between atoms: C_11  and  C_26
                            x       y       z     vdW  Elec       q    Type
                         _______ _______ _______ _____ _____    ______ ____

>  <TORSDO>
F 3

$$$$
=
 OpenBabel10272414443D

 37 43  0  0  1  0  0  0  0  0999 V2000
  182.5820  177.0890  139.8620 C   0  0  0  0  0  2  0  0  0  0  0  0
  183.7190  174.6480  135.0160 C   0  0  2  0  0  3  0  0  0  0  0  0
  186.6930  177.0400  137.2480 C   0  0  1  0  0  3  0  0  0  0  0  0
  181.4050  177.9960  140.2330 C   0  0  2  0  0  3  0  0  0  0  0  0
  186.6990  178.8990  140.4510 O   0  0  0  0  0  0  0  0  0  0  0  0
  185.1220  176.8780  135.2440 C   0  0  1  0  0  3  0  0  0  0  0  0
  186.1060  177.7890  138.4130 C   0  0  2  0  0  3  0  0  0  0  0  0
  185.5120  176.3530  136.6000 C   0  0  2  0  0  3  0  0  0  0  0  0
  187.0530  177.8330  139.6150 C   0  0  1  0  0  3  0  0  0  0  0  0
  186.3340  176.9610  134.3470 C   0  0  0  0  0  2  0  0  0  0  0  0
  181.8060  179.2680  140.9980 C   0  0  0  0  0  2  0  0  0  0  0  0
  184.3490  176.4890  137.4690 N   0  0  1  0  0  0  0  0  0  0  0  0
  183.9490  174.1790  136.4750 C   0  0  0  0  0  2  0  0  0  0  0  0
  188.1250  179.1490  136.9770 C   0  0  0  0  0  2  0  0  0  0  0  0
  187.2050  178.0830  134.9070 C   0  0  0  0  0  2  0  0  0  0  0  0
  183.6690  175.1910  137.6170 C   0  0  0  0  0  2  0  0  0  0  0  0
  183.2150  179.2290  141.6010 C   0  0  2  0  0  3  0  0  0  0  0  0
  185.6350  178.4250  141.2300 C   0  0  0  0  0  2  0  0  0  0  0  0
  187.6910  177.8180  136.3440 C   0  0  2  0  0  3  0  0  0  0  0  0
  184.8470  177.0020  138.7500 C   0  0  2  0  0  3  0  0  0  0  0  0
  183.9010  176.1430  134.6650 C   0  0  0  0  0  2  0  0  0  0  0  0
  188.5450  177.8880  139.2210 C   0  0  1  0  0  3  0  0  0  0  0  0
  182.3560  174.1900  134.5450 C   0  0  0  0  0  1  0  0  0  0  0  0
  184.3010  178.8160  140.5820 C   0  0  1  0  0  3  0  0  0  0  0  0
  183.7930  177.9050  139.4240 C   0  0  2  0  0  3  0  0  0  0  0  0
  188.9660  179.0120  138.2570 C   0  0  0  0  0  2  0  0  0  0  0  0
  190.7980  177.4230  140.2650 C   0  0  0  0  0  3  0  0  0  0  0  0
  189.4520  177.7920  140.4070 C   0  0  0  0  0  0  0  0  0  0  0  0
  188.9500  178.1020  141.6760 C   0  0  0  0  0  3  0  0  0  0  0  0
  189.2920  178.3350  144.0240 F   0  0  0  0  0  0  0  0  0  0  0  0
  191.1230  177.6630  142.6520 C   0  0  0  0  0  3  0  0  0  0  0  0
  189.7820  178.0360  142.7970 C   0  0  0  0  0  0  0  0  0  0  0  0
  191.6300  177.3570  141.3860 C   0  0  0  0  0  3  0  0  0  0  0  0
  183.2650  178.5500  142.9790 C   0  0  0  0  0  2  0  0  0  0  0  0
  183.5900  179.5050  144.1140 C   0  0  0  0  0  1  0  0  0  0  0  0
  180.0880  176.2200  140.1350 C   0  0  0  0  0  1  0  0  0  0  0  0
  180.4680  177.2710  140.9720 O   0  0  0  0  0  0  0  0  0  0  0  0
  1  4  1  0  0  0  0
  2 23  1  1  0  0  0
  2 13  1  0  0  0  0
  3  7  1  0  0  0  0
  4 37  1  0  0  0  0
  4 11  1  0  0  0  0
  5 18  1  0  0  0  0
  6  8  1  0  0  0  0
  7 20  1  0  0  0  0
  7  9  1  0  0  0  0
  8  3  1  0  0  0  0
  8 12  1  0  0  0  0
  9  5  1  0  0  0  0
 10 15  1  0  0  0  0
 10  6  1  0  0  0  0
 11 17  1  0  0  0  0
 12 16  1  0  0  0  0
 12 20  1  0  0  0  0
 13 16  1  0  0  0  0
 14 26  1  0  0  0  0
 15 19  1  0  0  0  0
 17 34  1  0  0  0  0
 19 14  1  0  0  0  0
 19  3  1  0  0  0  0
 20 25  1  0  0  0  0
 21  2  1  0  0  0  0
 21  6  1  0  0  0  0
 22  9  1  0  0  0  0
 22 28  1  0  0  0  0
 24 18  1  0  0  0  0
 24 17  1  0  0  0  0
 25  1  1  0  0  0  0
 25 24  1  0  0  0  0
 26 22  1  0  0  0  0
 27 28  2  0  0  0  0
 27 33  1  0  0  0  0
 28 29  1  0  0  0  0
 29 32  2  0  0  0  0
 31 32  1  0  0  0  0
 32 30  1  0  0  0  0
 33 31  2  0  0  0  0
 34 35  1  0  0  0  0
 36 37  1  0  0  0  0
M  END
>  <MODEL>
3

>  <REMARK>
 VINA RESULT:      -6.4      2.961      6.643
  Name = 
  3 active torsions:
  status: ('A' for Active; 'I' for Inactive)
    1  A    between atoms: C_5  and  O_23
    2  A    between atoms: C_6  and  C_31
    3  A    between atoms: C_11  and  C_26
                            x       y       z     vdW  Elec       q    Type
                         _______ _______ _______ _____ _____    ______ ____

>  <TORSDO>
F 3

$$$$
=
 OpenBabel10272414443D

 37 43  0  0  1  0  0  0  0  0999 V2000
  186.8780  176.4630  137.0350 C   0  0  0  0  0  2  0  0  0  0  0  0
  191.2380  173.2950  135.7350 C   0  0  2  0  0  3  0  0  0  0  0  0
  191.1620  175.9210  139.2910 C   0  0  1  0  0  3  0  0  0  0  0  0
  186.1010  177.4440  136.1520 C   0  0  2  0  0  3  0  0  0  0  0  0
  188.6950  178.2400  140.7920 O   0  0  0  0  0  0  0  0  0  0  0  0
  192.0630  175.4980  136.9410 C   0  0  1  0  0  3  0  0  0  0  0  0
  189.9790  176.8510  139.3230 C   0  0  2  0  0  3  0  0  0  0  0  0
  191.0260  175.1740  137.9840 C   0  0  2  0  0  3  0  0  0  0  0  0
  189.4350  177.0530  140.7390 C   0  0  1  0  0  3  0  0  0  0  0  0
  193.4470  175.4160  137.5380 C   0  0  0  0  0  2  0  0  0  0  0  0
  185.8290  178.8070  136.8110 C   0  0  0  0  0  2  0  0  0  0  0  0
  189.7210  175.4680  137.4030 N   0  0  1  0  0  0  0  0  0  0  0  0
  190.0410  173.0450  136.6870 C   0  0  0  0  0  2  0  0  0  0  0  0
  192.4110  177.9300  140.2800 C   0  0  0  0  0  2  0  0  0  0  0  0
  193.5650  176.5880  138.5100 C   0  0  0  0  0  2  0  0  0  0  0  0
  189.0690  174.2230  136.9600 C   0  0  0  0  0  2  0  0  0  0  0  0
  186.0140  178.8240  138.3330 C   0  0  2  0  0  3  0  0  0  0  0  0
  187.4300  177.9140  140.2850 C   0  0  0  0  0  2  0  0  0  0  0  0
  192.5450  176.5310  139.6610 C   0  0  2  0  0  3  0  0  0  0  0  0
  188.9500  176.1550  138.4440 C   0  0  2  0  0  3  0  0  0  0  0  0
  191.8410  174.7150  135.6360 C   0  0  0  0  0  2  0  0  0  0  0  0
  190.5260  177.0110  141.8300 C   0  0  1  0  0  3  0  0  0  0  0  0
  190.8910  172.8040  134.3460 C   0  0  0  0  0  1  0  0  0  0  0  0
  187.3700  178.2360  138.7870 C   0  0  1  0  0  3  0  0  0  0  0  0
  187.9740  177.1740  137.8200 C   0  0  2  0  0  3  0  0  0  0  0  0
  191.7200  177.9670  141.6530 C   0  0  0  0  0  2  0  0  0  0  0  0
  190.7650  177.3460  144.3230 C   0  0  0  0  0  3  0  0  0  0  0  0
  189.9540  177.0720  143.2120 C   0  0  0  0  0  0  0  0  0  0  0  0
  188.5810  176.8760  143.3900 C   0  0  0  0  0  3  0  0  0  0  0  0
  186.6900  176.7520  144.8370 F   0  0  0  0  0  0  0  0  0  0  0  0
  188.8330  177.2150  145.7750 C   0  0  0  0  0  3  0  0  0  0  0  0
  188.0200  176.9450  144.6690 C   0  0  0  0  0  0  0  0  0  0  0  0
  190.2050  177.4160  145.6020 C   0  0  0  0  0  3  0  0  0  0  0  0
  184.7670  178.3590  139.1010 C   0  0  0  0  0  2  0  0  0  0  0  0
  183.8200  179.4890  139.4610 C   0  0  0  0  0  1  0  0  0  0  0  0
  185.0370  175.5060  136.0540 C   0  0  0  0  0  1  0  0  0  0  0  0
  184.8970  176.8620  135.7500 O   0  0  0  0  0  0  0  0  0  0  0  0
  1 25  1  0  0  0  0
  2 23  1  6  0  0  0
  2 13  1  0  0  0  0
  3  7  1  0  0  0  0
  3 19  1  0  0  0  0
  4 11  1  0  0  0  0
  4  1  1  0  0  0  0
  6 10  1  0  0  0  0
  6  8  1  0  0  0  0
  7  9  1  0  0  0  0
  8  3  1  0  0  0  0
  9  5  1  0  0  0  0
  9 22  1  0  0  0  0
 10 15  1  0  0  0  0
 11 17  1  0  0  0  0
 12  8  1  0  0  0  0
 12 20  1  0  0  0  0
 13 16  1  0  0  0  0
 14 26  1  0  0  0  0
 15 19  1  0  0  0  0
 16 12  1  0  0  0  0
 17 24  1  0  0  0  0
 17 34  1  0  0  0  0
 18  5  1  0  0  0  0
 19 14  1  0  0  0  0
 20  7  1  0  0  0  0
 21  2  1  0  0  0  0
 21  6  1  0  0  0  0
 22 28  1  0  0  0  0
 24 18  1  0  0  0  0
 25 20  1  0  0  0  0
 25 24  1  0  0  0  0
 26 22  1  0  0  0  0
 27 33  1  0  0  0  0
 28 29  1  0  0  0  0
 28 27  2  0  0  0  0
 29 32  2  0  0  0  0
 32 30  1  0  0  0  0
 32 31  1  0  0  0  0
 33 31  2  0  0  0  0
 34 35  1  0  0  0  0
 37 36  1  0  0  0  0
 37  4  1  0  0  0  0
M  END
>  <MODEL>
4

>  <REMARK>
 VINA RESULT:      -6.0      3.168      7.642
  Name = 
  3 active torsions:
  status: ('A' for Active; 'I' for Inactive)
    1  A    between atoms: C_5  and  O_23
    2  A    between atoms: C_6  and  C_31
    3  A    between atoms: C_11  and  C_26
                            x       y       z     vdW  Elec       q    Type
                         _______ _______ _______ _____ _____    ______ ____

>  <TORSDO>
F 3

$$$$
=
 OpenBabel10272414443D

 37 43  0  0  1  0  0  0  0  0999 V2000
  183.2660  176.7310  138.1520 C   0  0  0  0  0  2  0  0  0  0  0  0
  185.5490  172.7180  135.0820 C   0  0  2  0  0  3  0  0  0  0  0  0
  187.9500  175.6990  137.2940 C   0  0  1  0  0  3  0  0  0  0  0  0
  182.1670  177.7280  137.7740 C   0  0  2  0  0  3  0  0  0  0  0  0
  187.1860  178.5700  139.5050 O   0  0  0  0  0  0  0  0  0  0  0  0
  187.0940  174.8630  135.0410 C   0  0  1  0  0  3  0  0  0  0  0  0
  187.1290  176.8210  137.8700 C   0  0  2  0  0  3  0  0  0  0  0  0
  186.9560  174.8450  136.5400 C   0  0  2  0  0  3  0  0  0  0  0  0
  187.6400  177.2730  139.2410 C   0  0  1  0  0  3  0  0  0  0  0  0
  188.5280  174.6050  134.6440 C   0  0  0  0  0  2  0  0  0  0  0  0
  182.4710  179.1830  138.1700 C   0  0  0  0  0  2  0  0  0  0  0  0
  185.6060  175.2970  136.8560 N   0  0  1  0  0  0  0  0  0  0  0  0
  185.2340  172.7910  136.5980 C   0  0  0  0  0  2  0  0  0  0  0  0
  189.6660  177.5540  136.8630 C   0  0  0  0  0  2  0  0  0  0  0  0
  189.3190  175.8390  135.0720 C   0  0  0  0  0  2  0  0  0  0  0  0
  184.7450  174.1460  137.1750 C   0  0  0  0  0  2  0  0  0  0  0  0
  183.5950  179.3380  139.2020 C   0  0  2  0  0  3  0  0  0  0  0  0
  185.8750  178.4180  139.9760 C   0  0  0  0  0  2  0  0  0  0  0  0
  189.2800  176.0930  136.5900 C   0  0  2  0  0  3  0  0  0  0  0  0
  185.7340  176.2220  137.9870 C   0  0  2  0  0  3  0  0  0  0  0  0
  186.0340  173.9890  134.3480 C   0  0  0  0  0  2  0  0  0  0  0  0
  189.1720  177.1620  139.3930 C   0  0  1  0  0  3  0  0  0  0  0  0
  184.3570  172.1430  134.3460 C   0  0  0  0  0  1  0  0  0  0  0  0
  184.8830  178.5750  138.8170 C   0  0  1  0  0  3  0  0  0  0  0  0
  184.6530  177.3210  137.9210 C   0  0  2  0  0  3  0  0  0  0  0  0
  190.0280  177.8660  138.3240 C   0  0  0  0  0  2  0  0  0  0  0  0
  190.9800  177.7510  141.0580 C   0  0  0  0  0  3  0  0  0  0  0  0
  189.6320  177.4780  140.7820 C   0  0  0  0  0  0  0  0  0  0  0  0
  188.6910  177.5250  141.8170 C   0  0  0  0  0  3  0  0  0  0  0  0
  188.1790  177.8770  144.1190 F   0  0  0  0  0  0  0  0  0  0  0  0
  190.4390  178.1020  143.3910 C   0  0  0  0  0  3  0  0  0  0  0  0
  189.0930  177.8340  143.1190 C   0  0  0  0  0  0  0  0  0  0  0  0
  191.3810  178.0600  142.3600 C   0  0  0  0  0  3  0  0  0  0  0  0
  183.1110  179.1890  140.6520 C   0  0  0  0  0  2  0  0  0  0  0  0
  181.6170  179.4070  140.8180 C   0  0  0  0  0  1  0  0  0  0  0  0
  181.2460  176.1310  138.9980 C   0  0  0  0  0  1  0  0  0  0  0  0
  180.9540  177.3260  138.3370 O   0  0  0  0  0  0  0  0  0  0  0  0
  2 23  1  6  0  0  0
  2 13  1  0  0  0  0
  3  7  1  0  0  0  0
  4  1  1  0  0  0  0
  4 11  1  0  0  0  0
  4 37  1  0  0  0  0
  5 18  1  0  0  0  0
  6  8  1  0  0  0  0
  7 20  1  0  0  0  0
  7  9  1  0  0  0  0
  8 12  1  0  0  0  0
  8  3  1  0  0  0  0
  9 22  1  0  0  0  0
  9  5  1  0  0  0  0
 10  6  1  0  0  0  0
 10 15  1  0  0  0  0
 11 17  1  0  0  0  0
 12 16  1  0  0  0  0
 12 20  1  0  0  0  0
 13 16  1  0  0  0  0
 14 26  1  0  0  0  0
 15 19  1  0  0  0  0
 17 34  1  0  0  0  0
 19 14  1  0  0  0  0
 19  3  1  0  0  0  0
 21  6  1  0  0  0  0
 21  2  1  0  0  0  0
 22 28  1  0  0  0  0
 24 17  1  0  0  0  0
 24 18  1  0  0  0  0
 25 20  1  0  0  0  0
 25  1  1  0  0  0  0
 25 24  1  0  0  0  0
 26 22  1  0  0  0  0
 27 33  1  0  0  0  0
 28 27  2  0  0  0  0
 28 29  1  0  0  0  0
 29 32  2  0  0  0  0
 32 31  1  0  0  0  0
 32 30  1  0  0  0  0
 33 31  2  0  0  0  0
 34 35  1  0  0  0  0
 37 36  1  0  0  0  0
M  END
>  <MODEL>
5

>  <REMARK>
 VINA RESULT:      -5.7      2.970      6.988
  Name = 
  3 active torsions:
  status: ('A' for Active; 'I' for Inactive)
    1  A    between atoms: C_5  and  O_23
    2  A    between atoms: C_6  and  C_31
    3  A    between atoms: C_11  and  C_26
                            x       y       z     vdW  Elec       q    Type
                         _______ _______ _______ _____ _____    ______ ____

>  <TORSDO>
F 3

$$$$
=
 OpenBabel10272414443D

 37 43  0  0  1  0  0  0  0  0999 V2000
  188.2410  177.8540  140.1330 C   0  0  0  0  0  2  0  0  0  0  0  0
  186.5450  177.8880  145.4120 C   0  0  2  0  0  3  0  0  0  0  0  0
  183.7400  177.9700  141.9950 C   0  0  1  0  0  3  0  0  0  0  0  0
  189.2810  178.7450  139.4490 C   0  0  2  0  0  3  0  0  0  0  0  0
  184.0890  177.9450  138.3080 O   0  0  0  0  0  0  0  0  0  0  0  0
  184.8370  179.2420  143.9160 C   0  0  1  0  0  3  0  0  0  0  0  0
  184.4180  178.1820  140.6690 C   0  0  2  0  0  3  0  0  0  0  0  0
  184.8570  178.0380  143.0120 C   0  0  2  0  0  3  0  0  0  0  0  0
  183.7650  177.3740  139.5440 C   0  0  1  0  0  3  0  0  0  0  0  0
  183.4640  179.4200  144.5200 C   0  0  0  0  0  2  0  0  0  0  0  0
  188.8280  179.3170  138.0950 C   0  0  0  0  0  2  0  0  0  0  0  0
  186.1360  178.0440  142.3110 N   0  0  1  0  0  0  0  0  0  0  0  0
  186.7310  176.7230  144.4060 C   0  0  0  0  0  2  0  0  0  0  0  0
  181.9170  179.4610  140.9820 C   0  0  0  0  0  2  0  0  0  0  0  0
  182.5440  179.8390  143.3760 C   0  0  0  0  0  2  0  0  0  0  0  0
  187.0610  177.0800  142.9320 C   0  0  0  0  0  2  0  0  0  0  0  0
  187.6180  178.6060  137.4780 C   0  0  2  0  0  3  0  0  0  0  0  0
  185.3670  177.4620  137.9970 C   0  0  0  0  0  2  0  0  0  0  0  0
  182.4410  178.7850  142.2580 C   0  0  2  0  0  3  0  0  0  0  0  0
  185.8440  177.7080  140.9140 C   0  0  2  0  0  3  0  0  0  0  0  0
  186.0160  179.2480  144.9040 C   0  0  0  0  0  2  0  0  0  0  0  0
  182.2400  177.2060  139.7130 C   0  0  1  0  0  3  0  0  0  0  0  0
  187.8330  178.1080  146.1740 C   0  0  0  0  0  1  0  0  0  0  0  0
  186.4310  178.4650  138.4590 C   0  0  1  0  0  3  0  0  0  0  0  0
  186.8330  178.4140  139.9630 C   0  0  2  0  0  3  0  0  0  0  0  0
  181.4160  178.4940  139.8960 C   0  0  0  0  0  2  0  0  0  0  0  0
  180.5060  176.6710  137.9560 C   0  0  0  0  0  3  0  0  0  0  0  0
  181.6480  176.3000  138.6800 C   0  0  0  0  0  0  0  0  0  0  0  0
  182.2640  175.0710  138.4170 C   0  0  0  0  0  3  0  0  0  0  0  0
  182.3380  173.0250  137.1950 F   0  0  0  0  0  0  0  0  0  0  0  0
  180.5980  174.5870  136.7270 C   0  0  0  0  0  3  0  0  0  0  0  0
  181.7400  174.2150  137.4450 C   0  0  0  0  0  0  0  0  0  0  0  0
  179.9820  175.8150  136.9830 C   0  0  0  0  0  3  0  0  0  0  0  0
  187.9970  177.3570  136.6680 C   0  0  0  0  0  2  0  0  0  0  0  0
  189.3030  177.5000  135.9080 C   0  0  0  0  0  1  0  0  0  0  0  0
  190.2810  176.8480  139.9950 C   0  0  0  0  0  1  0  0  0  0  0  0
  190.4750  178.0380  139.2910 O   0  0  0  0  0  0  0  0  0  0  0  0
  2 23  1  6  0  0  0
  3 19  1  0  0  0  0
  3  8  1  0  0  0  0
  4  1  1  0  0  0  0
  5  9  1  0  0  0  0
  6 10  1  0  0  0  0
  6 21  1  0  0  0  0
  7 20  1  0  0  0  0
  7  3  1  0  0  0  0
  8  6  1  0  0  0  0
  9 22  1  0  0  0  0
  9  7  1  0  0  0  0
 11  4  1  0  0  0  0
 12 16  1  0  0  0  0
 12  8  1  0  0  0  0
 13  2  1  0  0  0  0
 14 19  1  0  0  0  0
 15 10  1  0  0  0  0
 16 13  1  0  0  0  0
 17 11  1  0  0  0  0
 17 24  1  0  0  0  0
 18  5  1  0  0  0  0
 18 24  1  0  0  0  0
 19 15  1  0  0  0  0
 20 12  1  0  0  0  0
 21  2  1  0  0  0  0
 22 26  1  0  0  0  0
 24 25  1  0  0  0  0
 25  1  1  0  0  0  0
 25 20  1  0  0  0  0
 26 14  1  0  0  0  0
 27 28  1  0  0  0  0
 28 22  1  0  0  0  0
 29 28  2  0  0  0  0
 30 32  1  0  0  0  0
 31 33  1  0  0  0  0
 31 32  2  0  0  0  0
 32 29  1  0  0  0  0
 33 27  2  0  0  0  0
 34 17  1  0  0  0  0
 35 34  1  0  0  0  0
 37  4  1  0  0  0  0
 37 36  1  0  0  0  0
M  END
>  <MODEL>
6

>  <REMARK>
 VINA RESULT:      -5.6      2.670      6.221
  Name = 
  3 active torsions:
  status: ('A' for Active; 'I' for Inactive)
    1  A    between atoms: C_5  and  O_23
    2  A    between atoms: C_6  and  C_31
    3  A    between atoms: C_11  and  C_26
                            x       y       z     vdW  Elec       q    Type
                         _______ _______ _______ _____ _____    ______ ____

>  <TORSDO>
F 3

$$$$
=
 OpenBabel10272414443D

 37 43  0  0  1  0  0  0  0  0999 V2000
  183.4770  173.5970  135.5200 C   0  0  0  0  0  2  0  0  0  0  0  0
  181.5060  178.7130  136.3450 C   0  0  2  0  0  3  0  0  0  0  0  0
  185.6680  177.5680  137.2980 C   0  0  1  0  0  3  0  0  0  0  0  0
  182.8860  172.2530  135.9570 C   0  0  2  0  0  3  0  0  0  0  0  0
  187.6690  174.4650  137.0190 O   0  0  0  0  0  0  0  0  0  0  0  0
  183.3420  178.1590  138.1640 C   0  0  1  0  0  3  0  0  0  0  0  0
  185.9180  176.0870  137.2070 C   0  0  2  0  0  3  0  0  0  0  0  0
  184.1940  177.7270  137.0000 C   0  0  2  0  0  3  0  0  0  0  0  0
  187.3040  175.7630  136.6450 C   0  0  1  0  0  3  0  0  0  0  0  0
  183.9500  179.3640  138.8400 C   0  0  0  0  0  2  0  0  0  0  0  0
  183.9030  171.2980  136.6050 C   0  0  0  0  0  2  0  0  0  0  0  0
  183.6660  176.4540  136.5250 N   0  0  1  0  0  0  0  0  0  0  0  0
  182.2860  178.0970  135.1550 C   0  0  0  0  0  2  0  0  0  0  0  0
  187.2600  177.4270  139.3030 C   0  0  0  0  0  2  0  0  0  0  0  0
  185.2280  178.8750  139.5180 C   0  0  0  0  0  2  0  0  0  0  0  0
  182.8480  176.6610  135.3180 C   0  0  0  0  0  2  0  0  0  0  0  0
  185.3700  171.6650  136.3490 C   0  0  2  0  0  3  0  0  0  0  0  0
  187.0320  173.6190  136.1010 C   0  0  0  0  0  2  0  0  0  0  0  0
  186.2640  178.3060  138.5310 C   0  0  2  0  0  3  0  0  0  0  0  0
  184.8270  175.5960  136.2650 C   0  0  2  0  0  3  0  0  0  0  0  0
  181.8550  178.2750  137.7850 C   0  0  0  0  0  2  0  0  0  0  0  0
  188.3840  176.7950  137.0370 C   0  0  1  0  0  3  0  0  0  0  0  0
  180.0190  178.5370  136.1190 C   0  0  0  0  0  1  0  0  0  0  0  0
  185.6930  173.1410  136.6760 C   0  0  1  0  0  3  0  0  0  0  0  0
  184.4860  174.1160  136.5380 C   0  0  2  0  0  3  0  0  0  0  0  0
  188.5500  177.0870  138.5390 C   0  0  0  0  0  2  0  0  0  0  0  0
  189.7930  176.4490  134.9680 C   0  0  0  0  0  3  0  0  0  0  0  0
  189.6950  176.5320  136.3650 C   0  0  0  0  0  0  0  0  0  0  0  0
  190.8460  176.3930  137.1480 C   0  0  0  0  0  3  0  0  0  0  0  0
  193.1970  176.0270  137.3050 F   0  0  0  0  0  0  0  0  0  0  0  0
  192.1770  176.0770  135.1500 C   0  0  0  0  0  3  0  0  0  0  0  0
  192.0850  176.1630  136.5430 C   0  0  0  0  0  0  0  0  0  0  0  0
  191.0310  176.2200  134.3630 C   0  0  0  0  0  3  0  0  0  0  0  0
  185.9090  171.1170  135.0190 C   0  0  0  0  0  2  0  0  0  0  0  0
  185.4860  169.6870  134.7360 C   0  0  0  0  0  1  0  0  0  0  0  0
  181.8610  170.3890  135.3510 C   0  0  0  0  0  1  0  0  0  0  0  0
  182.2760  171.6310  134.8670 O   0  0  0  0  0  0  0  0  0  0  0  0
  1  4  1  0  0  0  0
  1 25  1  0  0  0  0
  2 23  1  6  0  0  0
  2 21  1  0  0  0  0
  3 19  1  0  0  0  0
  4 11  1  0  0  0  0
  6 10  1  0  0  0  0
  7  3  1  0  0  0  0
  8  3  1  0  0  0  0
  8  6  1  0  0  0  0
  9  5  1  0  0  0  0
  9 22  1  0  0  0  0
  9  7  1  0  0  0  0
 10 15  1  0  0  0  0
 12  8  1  0  0  0  0
 13 16  1  0  0  0  0
 13  2  1  0  0  0  0
 16 12  1  0  0  0  0
 17 11  1  0  0  0  0
 17 24  1  0  0  0  0
 18 24  1  0  0  0  0
 18  5  1  0  0  0  0
 19 14  1  0  0  0  0
 19 15  1  0  0  0  0
 20 12  1  0  0  0  0
 20 25  1  0  0  0  0
 20  7  1  0  0  0  0
 21  6  1  0  0  0  0
 22 26  1  0  0  0  0
 25 24  1  0  0  0  0
 26 14  1  0  0  0  0
 27 28  1  0  0  0  0
 28 22  1  0  0  0  0
 28 29  2  0  0  0  0
 31 32  2  0  0  0  0
 32 29  1  0  0  0  0
 32 30  1  0  0  0  0
 33 27  2  0  0  0  0
 33 31  1  0  0  0  0
 34 17  1  0  0  0  0
 35 34  1  0  0  0  0
 37 36  1  0  0  0  0
 37  4  1  0  0  0  0
M  END
>  <MODEL>
7

>  <REMARK>
 VINA RESULT:      -5.3      4.219      9.117
  Name = 
  3 active torsions:
  status: ('A' for Active; 'I' for Inactive)
    1  A    between atoms: C_5  and  O_23
    2  A    between atoms: C_6  and  C_31
    3  A    between atoms: C_11  and  C_26
                            x       y       z     vdW  Elec       q    Type
                         _______ _______ _______ _____ _____    ______ ____

>  <TORSDO>
F 3

$$$$
=
 OpenBabel10272414443D

 37 43  0  0  1  0  0  0  0  0999 V2000
  191.5550  177.2450  139.9990 C   0  0  0  0  0  2  0  0  0  0  0  0
  195.0230  174.8900  136.3720 C   0  0  2  0  0  3  0  0  0  0  0  0
  190.6260  174.6130  136.0050 C   0  0  1  0  0  3  0  0  0  0  0  0
  191.5480  177.1510  141.5280 C   0  0  2  0  0  3  0  0  0  0  0  0
  187.7430  175.8920  137.9460 O   0  0  0  0  0  0  0  0  0  0  0  0
  192.8210  173.4410  136.5710 C   0  0  1  0  0  3  0  0  0  0  0  0
  189.8910  175.1290  137.2130 C   0  0  2  0  0  3  0  0  0  0  0  0
  192.0890  174.7410  136.3640 C   0  0  2  0  0  3  0  0  0  0  0  0
  188.6010  175.8630  136.8400 C   0  0  1  0  0  3  0  0  0  0  0  0
  192.5670  172.5080  135.4120 C   0  0  0  0  0  2  0  0  0  0  0  0
  190.1630  176.8730  142.1370 C   0  0  0  0  0  2  0  0  0  0  0  0
  192.2100  175.5070  137.5990 N   0  0  1  0  0  0  0  0  0  0  0  0
  194.2980  176.2590  136.3510 C   0  0  0  0  0  2  0  0  0  0  0  0
  188.7620  172.8540  135.9720 C   0  0  0  0  0  2  0  0  0  0  0  0
  191.1010  172.0910  135.5100 C   0  0  0  0  0  2  0  0  0  0  0  0
  193.2470  176.5430  137.4560 C   0  0  0  0  0  2  0  0  0  0  0  0
  188.9880  177.1290  141.1850 C   0  0  2  0  0  3  0  0  0  0  0  0
  188.1920  176.9560  138.7400 C   0  0  0  0  0  2  0  0  0  0  0  0
  190.1220  173.2740  135.3950 C   0  0  2  0  0  3  0  0  0  0  0  0
  190.8860  176.0820  137.8600 C   0  0  2  0  0  3  0  0  0  0  0  0
  194.2950  173.6570  136.9540 C   0  0  0  0  0  2  0  0  0  0  0  0
  187.9030  175.2860  135.5900 C   0  0  1  0  0  3  0  0  0  0  0  0
  196.3680  175.0400  137.0510 C   0  0  0  0  0  1  0  0  0  0  0  0
  189.1530  176.4340  139.8140 C   0  0  1  0  0  3  0  0  0  0  0  0
  190.6310  176.2030  139.3760 C   0  0  2  0  0  3  0  0  0  0  0  0
  187.5900  173.7790  135.6050 C   0  0  0  0  0  2  0  0  0  0  0  0
  186.8720  177.4360  134.7540 C   0  0  0  0  0  3  0  0  0  0  0  0
  186.7230  176.1040  135.1670 C   0  0  0  0  0  0  0  0  0  0  0  0
  185.4540  175.5160  135.1610 C   0  0  0  0  0  3  0  0  0  0  0  0
  183.1100  175.6810  134.7520 F   0  0  0  0  0  0  0  0  0  0  0  0
  184.4900  177.5830  134.3470 C   0  0  0  0  0  3  0  0  0  0  0  0
  184.3380  176.2530  134.7540 C   0  0  0  0  0  0  0  0  0  0  0  0
  185.7570  178.1730  134.3460 C   0  0  0  0  0  3  0  0  0  0  0  0
  188.5330  178.5970  141.1650 C   0  0  0  0  0  2  0  0  0  0  0  0
  187.0840  178.7880  141.5750 C   0  0  0  0  0  1  0  0  0  0  0  0
  191.6050  178.3520  143.3850 C   0  0  0  0  0  1  0  0  0  0  0  0
  192.0800  178.3210  142.0720 O   0  0  0  0  0  0  0  0  0  0  0  0
  1  4  1  0  0  0  0
  2 21  1  0  0  0  0
  2 23  1  1  0  0  0
  3  8  1  0  0  0  0
  3  7  1  0  0  0  0
  4 37  1  0  0  0  0
  4 11  1  0  0  0  0
  5 18  1  0  0  0  0
  6 21  1  0  0  0  0
  7 20  1  0  0  0  0
  8  6  1  0  0  0  0
  8 12  1  0  0  0  0
  9  7  1  0  0  0  0
  9  5  1  0  0  0  0
 10 15  1  0  0  0  0
 10  6  1  0  0  0  0
 12 20  1  0  0  0  0
 13  2  1  0  0  0  0
 13 16  1  0  0  0  0
 16 12  1  0  0  0  0
 17 11  1  0  0  0  0
 18 24  1  0  0  0  0
 19 15  1  0  0  0  0
 19 14  1  0  0  0  0
 19  3  1  0  0  0  0
 20 25  1  0  0  0  0
 22 26  1  0  0  0  0
 22  9  1  0  0  0  0
 24 17  1  0  0  0  0
 25 24  1  0  0  0  0
 25  1  1  0  0  0  0
 26 14  1  0  0  0  0
 27 28  1  0  0  0  0
 28 22  1  0  0  0  0
 29 28  2  0  0  0  0
 30 32  1  0  0  0  0
 31 32  2  0  0  0  0
 32 29  1  0  0  0  0
 33 31  1  0  0  0  0
 33 27  2  0  0  0  0
 34 17  1  0  0  0  0
 34 35  1  0  0  0  0
 37 36  1  0  0  0  0
M  END
>  <MODEL>
8

>  <REMARK>
 VINA RESULT:      -5.3      4.177      6.243
  Name = 
  3 active torsions:
  status: ('A' for Active; 'I' for Inactive)
    1  A    between atoms: C_5  and  O_23
    2  A    between atoms: C_6  and  C_31
    3  A    between atoms: C_11  and  C_26
                            x       y       z     vdW  Elec       q    Type
                         _______ _______ _______ _____ _____    ______ ____

>  <TORSDO>
F 3

$$$$
=
 OpenBabel10272414443D

 37 43  0  0  1  0  0  0  0  0999 V2000
  186.4280  177.1080  138.3030 C   0  0  0  0  0  2  0  0  0  0  0  0
  191.0030  174.5690  136.4700 C   0  0  2  0  0  3  0  0  0  0  0  0
  190.8270  176.6760  140.3540 C   0  0  1  0  0  3  0  0  0  0  0  0
  185.5330  178.1210  137.5840 C   0  0  2  0  0  3  0  0  0  0  0  0
  188.2200  178.5280  142.2210 O   0  0  0  0  0  0  0  0  0  0  0  0
  191.6720  176.6590  137.9460 C   0  0  1  0  0  3  0  0  0  0  0  0
  189.5670  177.4770  140.5430 C   0  0  2  0  0  3  0  0  0  0  0  0
  190.7090  176.1010  138.9600 C   0  0  2  0  0  3  0  0  0  0  0  0
  189.0610  177.4340  141.9870 C   0  0  1  0  0  3  0  0  0  0  0  0
  193.0800  176.6290  138.4890 C   0  0  0  0  0  2  0  0  0  0  0  0
  185.1650  179.3520  138.4300 C   0  0  0  0  0  2  0  0  0  0  0  0
  189.3610  176.3450  138.4580 N   0  0  1  0  0  0  0  0  0  0  0  0
  189.8700  174.0820  137.4090 C   0  0  0  0  0  2  0  0  0  0  0  0
  191.9260  178.6420  141.5770 C   0  0  0  0  0  2  0  0  0  0  0  0
  193.1290  177.6650  139.6100 C   0  0  0  0  0  2  0  0  0  0  0  0
  188.8080  175.1160  137.8660 C   0  0  0  0  0  2  0  0  0  0  0  0
  185.4060  179.1820  139.9350 C   0  0  2  0  0  3  0  0  0  0  0  0
  186.9710  178.1560  141.7070 C   0  0  0  0  0  2  0  0  0  0  0  0
  192.1620  177.3580  140.7680 C   0  0  2  0  0  3  0  0  0  0  0  0
  188.5720  176.8100  139.6040 C   0  0  2  0  0  3  0  0  0  0  0  0
  191.4720  176.0400  136.5520 C   0  0  0  0  0  2  0  0  0  0  0  0
  190.1930  177.3500  143.0340 C   0  0  1  0  0  3  0  0  0  0  0  0
  190.6490  174.2390  135.0360 C   0  0  0  0  0  1  0  0  0  0  0  0
  186.8250  178.6690  140.2690 C   0  0  1  0  0  3  0  0  0  0  0  0
  187.4850  177.8080  139.1510 C   0  0  2  0  0  3  0  0  0  0  0  0
  191.2880  178.4290  142.9590 C   0  0  0  0  0  2  0  0  0  0  0  0
  190.5370  176.9230  145.5000 C   0  0  0  0  0  3  0  0  0  0  0  0
  189.6710  177.1710  144.4250 C   0  0  0  0  0  0  0  0  0  0  0  0
  188.2960  177.2780  144.6560 C   0  0  0  0  0  3  0  0  0  0  0  0
  186.4530  177.2350  146.1680 F   0  0  0  0  0  0  0  0  0  0  0  0
  188.6520  176.8810  147.0180 C   0  0  0  0  0  3  0  0  0  0  0  0
  187.7860  177.1320  145.9490 C   0  0  0  0  0  0  0  0  0  0  0  0
  190.0270  176.7770  146.7930 C   0  0  0  0  0  3  0  0  0  0  0  0
  184.2360  178.5020  140.6630 C   0  0  0  0  0  2  0  0  0  0  0  0
  182.8840  178.7800  140.0300 C   0  0  0  0  0  1  0  0  0  0  0  0
  184.7340  176.8910  135.9270 C   0  0  0  0  0  1  0  0  0  0  0  0
  184.3720  177.4870  137.1370 O   0  0  0  0  0  0  0  0  0  0  0  0
  1 25  1  0  0  0  0
  2 23  1  6  0  0  0
  2 21  1  0  0  0  0
  2 13  1  0  0  0  0
  3  7  1  0  0  0  0
  3 19  1  0  0  0  0
  4  1  1  0  0  0  0
  4 11  1  0  0  0  0
  6 10  1  0  0  0  0
  6  8  1  0  0  0  0
  7  9  1  0  0  0  0
  8  3  1  0  0  0  0
  9  5  1  0  0  0  0
  9 22  1  0  0  0  0
 10 15  1  0  0  0  0
 11 17  1  0  0  0  0
 12  8  1  0  0  0  0
 12 20  1  0  0  0  0
 13 16  1  0  0  0  0
 14 26  1  0  0  0  0
 15 19  1  0  0  0  0
 16 12  1  0  0  0  0
 17 24  1  0  0  0  0
 17 34  1  0  0  0  0
 18  5  1  0  0  0  0
 19 14  1  0  0  0  0
 20  7  1  0  0  0  0
 21  6  1  0  0  0  0
 22 28  1  0  0  0  0
 24 18  1  0  0  0  0
 25 20  1  0  0  0  0
 25 24  1  0  0  0  0
 26 22  1  0  0  0  0
 27 33  1  0  0  0  0
 28 29  1  0  0  0  0
 28 27  2  0  0  0  0
 29 32  2  0  0  0  0
 32 30  1  0  0  0  0
 32 31  1  0  0  0  0
 33 31  2  0  0  0  0
 35 34  1  0  0  0  0
 36 37  1  0  0  0  0
 37  4  1  0  0  0  0
M  END
>  <MODEL>
9

>  <REMARK>
 VINA RESULT:      -5.0      2.985      7.423
  Name = 
  3 active torsions:
  status: ('A' for Active; 'I' for Inactive)
    1  A    between atoms: C_5  and  O_23
    2  A    between atoms: C_6  and  C_31
    3  A    between atoms: C_11  and  C_26
                            x       y       z     vdW  Elec       q    Type
                         _______ _______ _______ _____ _____    ______ ____

>  <TORSDO>
F 3

$$$$
