=
 OpenBabel10272413593D

 30 32  0  0  1  0  0  0  0  0999 V2000
  190.0720  176.2600  143.5570 C   0  0  0  0  0  0  0  0  0  0  0  0
  190.0890  177.6280  147.6810 C   0  0  0  0  0  2  0  0  0  0  0  0
  189.1680  176.8190  146.7910 C   0  0  2  0  0  0  0  0  0  0  0  0
  190.9850  176.9200  144.4230 N   0  0  0  0  0  0  0  0  0  0  0  0
  190.4470  175.2670  142.8810 O   0  0  0  0  0  0  0  0  0  0  0  0
  190.6600  176.4680  146.8540 C   0  0  1  0  0  3  0  0  0  0  0  0
  191.6530  176.9500  145.7560 C   0  0  2  0  0  3  0  0  0  0  0  0
  188.6400  176.7000  143.5220 C   0  0  1  0  0  3  0  0  0  0  0  0
  188.6210  177.5240  145.6220 N   0  0  0  0  0  0  0  0  0  0  0  0
  188.3160  175.9520  147.4800 O   0  0  0  0  0  1  0  0  0  0  0  0
  191.3940  178.1620  145.1470 C   0  0  0  0  0  2  0  0  0  0  0  0
  188.0270  176.6080  144.7980 O   0  0  0  0  0  0  0  0  0  0  0  0
  188.4470  178.0670  142.8510 C   0  0  1  0  0  3  0  0  0  0  0  0
  189.6860  178.6730  142.6230 O   0  0  0  0  0  1  0  0  0  0  0  0
  187.6590  177.9310  141.5420 C   0  0  1  0  0  3  0  0  0  0  0  0
  186.3050  178.6390  141.5970 C   0  0  0  0  0  2  0  0  0  0  0  0
  185.4690  178.7000  139.9780 S   0  0  0  0  0  0  0  0  0  0  0  0
  183.0920  177.4230  140.3260 C   0  0  0  0  0  1  0  0  0  0  0  0
  183.8300  178.6730  140.7530 C   0  0  0  0  0  2  0  0  0  0  0  0
  188.4740  178.2960  140.3060 C   0  0  0  0  0  2  0  0  0  0  0  0
  188.9230  177.0880  139.6350 N   0  0  0  0  0  2  0  0  0  0  0  0
  191.2620  177.5270  140.2000 O   0  0  0  0  0  1  0  0  0  0  0  0
  190.6510  175.6710  139.0040 O   0  0  0  0  0  0  0  0  0  0  0  0
  190.3020  176.7260  139.5940 C   0  0  0  0  0  0  0  0  0  0  0  0
  187.6240  178.5170  146.0460 C   0  0  0  0  0  2  0  0  0  0  0  0
  186.2160  177.9430  146.1630 C   0  0  0  0  0  2  0  0  0  0  0  0
  185.2000  179.0590  145.9940 C   0  0  0  0  0  2  0  0  0  0  0  0
  184.4370  178.9180  144.6850 C   0  0  2  0  0  3  0  0  0  0  0  0
  184.4450  180.1250  143.9850 O   0  0  0  0  0  1  0  0  0  0  0  0
  183.1340  178.5210  144.9240 F   0  0  0  0  0  0  0  0  0  0  0  0
  1  4  1  0  0  0  0
  3  6  1  0  0  0  0
  3 10  1  1  0  0  0
  3  2  1  0  0  0  0
  4 11  1  0  0  0  0
  4  7  1  0  0  0  0
  5  1  2  0  0  0  0
  6  2  1  1  0  0  0
  7 11  1  1  0  0  0
  7  6  1  0  0  0  0
  8 13  1  1  0  0  0
  8  1  1  0  0  0  0
  8 12  1  0  0  0  0
  9 25  1  0  0  0  0
  9  3  1  0  0  0  0
 12  9  1  0  0  0  0
 13 14  1  6  0  0  0
 15 20  1  6  0  0  0
 15 16  1  0  0  0  0
 15 13  1  0  0  0  0
 17 19  1  0  0  0  0
 17 16  1  0  0  0  0
 18 19  1  0  0  0  0
 21 20  1  0  0  0  0
 23 24  2  0  0  0  0
 24 21  1  0  0  0  0
 24 22  1  0  0  0  0
 25 26  1  0  0  0  0
 27 26  1  0  0  0  0
 28 29  1  1  0  0  0
 28 30  1  0  0  0  0
 28 27  1  0  0  0  0
M  END
>  <MODEL>
1

>  <REMARK>
 VINA RESULT:      -6.7      0.000      0.000
  Name = 
  11 active torsions:
  status: ('A' for Active; 'I' for Inactive)
    1  A    between atoms: C_1  and  C_4
    2  A    between atoms: C_1  and  C_22
    3  A    between atoms: C_4  and  C_9
    4  A    between atoms: C_4  and  C_12
    5  A    between atoms: C_7  and  N_23
    6  A    between atoms: C_7  and  C_25
    7  A    between atoms: N_8  and  C_12
    8  A    between atoms: C_9  and  S_21
    9  A    between atoms: C_10  and  C_15
   10  A    between atoms: C_15  and  C_25
   11  A    between atoms: C_17  and  S_21
                            x       y       z     vdW  Elec       q    Type
                         _______ _______ _______ _____ _____    ______ ____

>  <TORSDO>
F 11

$$$$
=
 OpenBabel10272413593D

 30 32  0  0  1  0  0  0  0  0999 V2000
  190.6330  176.0360  143.3270 C   0  0  0  0  0  0  0  0  0  0  0  0
  187.9520  178.3490  145.8450 C   0  0  0  0  0  2  0  0  0  0  0  0
  187.8170  177.2770  144.7840 C   0  0  2  0  0  0  0  0  0  0  0  0
  190.7620  176.9580  144.4010 N   0  0  0  0  0  0  0  0  0  0  0  0
  191.2600  174.9450  143.3520 O   0  0  0  0  0  0  0  0  0  0  0  0
  188.8040  177.0760  145.9420 C   0  0  1  0  0  3  0  0  0  0  0  0
  190.3250  177.3630  145.7690 C   0  0  2  0  0  3  0  0  0  0  0  0
  189.6790  176.3340  142.2100 C   0  0  1  0  0  3  0  0  0  0  0  0
  188.3080  177.6320  143.4440 N   0  0  0  0  0  0  0  0  0  0  0  0
  186.6370  176.5320  144.8630 O   0  0  0  0  0  1  0  0  0  0  0  0
  190.6910  178.3670  144.8950 C   0  0  0  0  0  2  0  0  0  0  0  0
  188.3510  176.5000  142.6790 O   0  0  0  0  0  0  0  0  0  0  0  0
  190.1530  177.4790  141.3040 C   0  0  1  0  0  3  0  0  0  0  0  0
  191.5470  177.5800  141.3420 O   0  0  0  0  0  1  0  0  0  0  0  0
  189.6590  177.2820  139.8660 C   0  0  1  0  0  3  0  0  0  0  0  0
  188.8240  178.4610  139.3670 C   0  0  0  0  0  2  0  0  0  0  0  0
  188.9240  178.6890  137.5610 S   0  0  0  0  0  0  0  0  0  0  0  0
  186.3220  178.1190  138.1220 C   0  0  0  0  0  1  0  0  0  0  0  0
  187.4820  177.6240  137.2840 C   0  0  0  0  0  2  0  0  0  0  0  0
  190.7680  176.8840  138.8970 C   0  0  0  0  0  2  0  0  0  0  0  0
  190.7660  175.4430  138.7090 N   0  0  0  0  0  2  0  0  0  0  0  0
  190.3020  175.6580  136.3180 O   0  0  0  0  0  0  0  0  0  0  0  0
  190.5430  173.6060  137.3060 O   0  0  0  0  0  1  0  0  0  0  0  0
  190.5350  174.8580  137.4290 C   0  0  0  0  0  0  0  0  0  0  0  0
  187.4100  178.6120  142.8160 C   0  0  0  0  0  2  0  0  0  0  0  0
  186.2880  177.9670  142.0090 C   0  0  0  0  0  2  0  0  0  0  0  0
  185.0190  178.7850  142.1650 C   0  0  0  0  0  2  0  0  0  0  0  0
  184.7180  179.0650  143.6300 C   0  0  2  0  0  3  0  0  0  0  0  0
  183.4570  178.5740  143.9700 O   0  0  0  0  0  1  0  0  0  0  0  0
  184.7800  180.4220  143.8870 F   0  0  0  0  0  0  0  0  0  0  0  0
  1  5  2  0  0  0  0
  1  4  1  0  0  0  0
  3 10  1  1  0  0  0
  3  2  1  0  0  0  0
  3  6  1  0  0  0  0
  4 11  1  0  0  0  0
  4  7  1  0  0  0  0
  6  2  1  1  0  0  0
  7 11  1  6  0  0  0
  7  6  1  0  0  0  0
  8 13  1  1  0  0  0
  8 12  1  0  0  0  0
  8  1  1  0  0  0  0
  9  3  1  0  0  0  0
 12  9  1  0  0  0  0
 13 14  1  6  0  0  0
 15 20  1  6  0  0  0
 15 13  1  0  0  0  0
 16 15  1  0  0  0  0
 17 16  1  0  0  0  0
 19 17  1  0  0  0  0
 19 18  1  0  0  0  0
 21 20  1  0  0  0  0
 22 24  2  0  0  0  0
 23 24  1  0  0  0  0
 24 21  1  0  0  0  0
 25  9  1  0  0  0  0
 26 27  1  0  0  0  0
 26 25  1  0  0  0  0
 27 28  1  0  0  0  0
 28 30  1  6  0  0  0
 28 29  1  0  0  0  0
M  END
>  <MODEL>
2

>  <REMARK>
 VINA RESULT:      -6.6      1.932      2.839
  Name = 
  11 active torsions:
  status: ('A' for Active; 'I' for Inactive)
    1  A    between atoms: C_1  and  C_4
    2  A    between atoms: C_1  and  C_22
    3  A    between atoms: C_4  and  C_9
    4  A    between atoms: C_4  and  C_12
    5  A    between atoms: C_7  and  N_23
    6  A    between atoms: C_7  and  C_25
    7  A    between atoms: N_8  and  C_12
    8  A    between atoms: C_9  and  S_21
    9  A    between atoms: C_10  and  C_15
   10  A    between atoms: C_15  and  C_25
   11  A    between atoms: C_17  and  S_21
                            x       y       z     vdW  Elec       q    Type
                         _______ _______ _______ _____ _____    ______ ____

>  <TORSDO>
F 11

$$$$
=
 OpenBabel10272413593D

 30 32  0  0  1  0  0  0  0  0999 V2000
  191.2140  177.3500  140.1140 C   0  0  0  0  0  0  0  0  0  0  0  0
  188.4300  177.2980  136.7780 C   0  0  0  0  0  2  0  0  0  0  0  0
  188.8440  178.2810  137.8530 C   0  0  2  0  0  0  0  0  0  0  0  0
  190.9060  176.4730  139.0380 N   0  0  0  0  0  0  0  0  0  0  0  0
  192.4100  177.6620  140.3530 O   0  0  0  0  0  0  0  0  0  0  0  0
  189.9210  177.5680  137.0250 C   0  0  1  0  0  3  0  0  0  0  0  0
  190.6700  176.3180  137.5730 C   0  0  2  0  0  3  0  0  0  0  0  0
  190.0990  177.9660  140.9040 C   0  0  1  0  0  3  0  0  0  0  0  0
  188.5800  177.8660  139.2390 N   0  0  0  0  0  0  0  0  0  0  0  0
  188.6220  179.6210  137.5260 O   0  0  0  0  0  1  0  0  0  0  0  0
  189.9770  175.4780  138.4220 C   0  0  0  0  0  2  0  0  0  0  0  0
  189.2270  178.7260  140.0840 O   0  0  0  0  0  0  0  0  0  0  0  0
  189.3680  176.9560  141.8000 C   0  0  1  0  0  3  0  0  0  0  0  0
  190.1720  175.8330  142.0180 O   0  0  0  0  0  1  0  0  0  0  0  0
  188.9580  177.5990  143.1310 C   0  0  1  0  0  3  0  0  0  0  0  0
  187.9360  176.7580  143.8960 C   0  0  0  0  0  2  0  0  0  0  0  0
  186.3480  177.6200  144.1390 S   0  0  0  0  0  0  0  0  0  0  0  0
  185.4140  178.3680  146.5830 C   0  0  0  0  0  1  0  0  0  0  0  0
  186.5090  177.5400  145.9440 C   0  0  0  0  0  2  0  0  0  0  0  0
  190.1460  178.0210  143.9880 C   0  0  0  0  0  2  0  0  0  0  0  0
  189.8510  177.7900  145.3920 N   0  0  0  0  0  2  0  0  0  0  0  0
  191.8390  176.3960  145.6810 O   0  0  0  0  0  0  0  0  0  0  0  0
  190.4090  176.8110  147.4220 O   0  0  0  0  0  1  0  0  0  0  0  0
  190.6980  176.9860  146.2100 C   0  0  0  0  0  0  0  0  0  0  0  0
  187.1370  177.9040  139.5160 C   0  0  0  0  0  2  0  0  0  0  0  0
  186.7560  178.9260  140.5820 C   0  0  0  0  0  2  0  0  0  0  0  0
  185.2620  178.8560  140.8390 C   0  0  0  0  0  2  0  0  0  0  0  0
  184.4720  178.9880  139.5450 C   0  0  2  0  0  3  0  0  0  0  0  0
  184.4750  180.3130  139.1070 O   0  0  0  0  0  1  0  0  0  0  0  0
  183.1710  178.5550  139.7240 F   0  0  0  0  0  0  0  0  0  0  0  0
  1  5  2  0  0  0  0
  1  8  1  0  0  0  0
  2  3  1  0  0  0  0
  3 10  1  6  0  0  0
  3  9  1  0  0  0  0
  4  1  1  0  0  0  0
  6  2  1  6  0  0  0
  6  7  1  0  0  0  0
  6  3  1  0  0  0  0
  7 11  1  1  0  0  0
  7  4  1  0  0  0  0
  8 13  1  6  0  0  0
  9 25  1  0  0  0  0
  9 12  1  0  0  0  0
 11  4  1  0  0  0  0
 12  8  1  0  0  0  0
 13 14  1  1  0  0  0
 13 15  1  0  0  0  0
 15 16  1  1  0  0  0
 15 20  1  0  0  0  0
 16 17  1  0  0  0  0
 17 19  1  0  0  0  0
 19 18  1  0  0  0  0
 20 21  1  0  0  0  0
 21 24  1  0  0  0  0
 22 24  2  0  0  0  0
 24 23  1  0  0  0  0
 25 26  1  0  0  0  0
 26 27  1  0  0  0  0
 28 29  1  1  0  0  0
 28 30  1  0  0  0  0
 28 27  1  0  0  0  0
M  END
>  <MODEL>
3

>  <REMARK>
 VINA RESULT:      -6.3      2.410      6.279
  Name = 
  11 active torsions:
  status: ('A' for Active; 'I' for Inactive)
    1  A    between atoms: C_1  and  C_4
    2  A    between atoms: C_1  and  C_22
    3  A    between atoms: C_4  and  C_9
    4  A    between atoms: C_4  and  C_12
    5  A    between atoms: C_7  and  N_23
    6  A    between atoms: C_7  and  C_25
    7  A    between atoms: N_8  and  C_12
    8  A    between atoms: C_9  and  S_21
    9  A    between atoms: C_10  and  C_15
   10  A    between atoms: C_15  and  C_25
   11  A    between atoms: C_17  and  S_21
                            x       y       z     vdW  Elec       q    Type
                         _______ _______ _______ _____ _____    ______ ____

>  <TORSDO>
F 11

$$$$
=
 OpenBabel10272413593D

 30 32  0  0  1  0  0  0  0  0999 V2000
  190.6330  176.1350  143.3390 C   0  0  0  0  0  0  0  0  0  0  0  0
  187.7470  178.2880  145.7700 C   0  0  0  0  0  2  0  0  0  0  0  0
  187.7030  177.2660  144.6540 C   0  0  2  0  0  0  0  0  0  0  0  0
  190.6730  177.0080  144.4600 N   0  0  0  0  0  0  0  0  0  0  0  0
  191.2760  175.0530  143.3560 O   0  0  0  0  0  0  0  0  0  0  0  0
  188.6130  177.0240  145.8660 C   0  0  1  0  0  3  0  0  0  0  0  0
  190.1370  177.3400  145.8120 C   0  0  2  0  0  3  0  0  0  0  0  0
  189.7530  176.4730  142.1740 C   0  0  1  0  0  3  0  0  0  0  0  0
  188.2790  177.6920  143.3690 N   0  0  0  0  0  0  0  0  0  0  0  0
  186.5340  176.5020  144.6170 O   0  0  0  0  0  1  0  0  0  0  0  0
  190.5440  178.3900  145.0130 C   0  0  0  0  0  2  0  0  0  0  0  0
  188.3930  176.5980  142.5570 O   0  0  0  0  0  0  0  0  0  0  0  0
  190.2680  177.6670  141.3560 C   0  0  1  0  0  3  0  0  0  0  0  0
  191.6380  177.8440  141.5710 O   0  0  0  0  0  1  0  0  0  0  0  0
  189.9700  177.4810  139.8640 C   0  0  1  0  0  3  0  0  0  0  0  0
  190.5090  176.1580  139.3200 C   0  0  0  0  0  2  0  0  0  0  0  0
  191.8890  176.3810  138.1490 S   0  0  0  0  0  0  0  0  0  0  0  0
  192.0840  174.3390  136.3620 C   0  0  0  0  0  1  0  0  0  0  0  0
  191.0840  175.3380  136.9040 C   0  0  0  0  0  2  0  0  0  0  0  0
  188.5070  177.7220  139.5070 C   0  0  0  0  0  2  0  0  0  0  0  0
  188.2820  177.4110  138.1050 N   0  0  0  0  0  2  0  0  0  0  0  0
  188.9690  179.6500  137.3990 O   0  0  0  0  0  1  0  0  0  0  0  0
  188.3120  178.0690  135.8780 O   0  0  0  0  0  0  0  0  0  0  0  0
  188.5160  178.3750  137.0810 C   0  0  0  0  0  0  0  0  0  0  0  0
  187.4090  178.6870  142.7270 C   0  0  0  0  0  2  0  0  0  0  0  0
  186.0300  178.1400  142.3710 C   0  0  0  0  0  2  0  0  0  0  0  0
  184.9770  179.1910  142.6740 C   0  0  0  0  0  2  0  0  0  0  0  0
  184.1450  178.8050  143.8880 C   0  0  2  0  0  3  0  0  0  0  0  0
  182.8190  179.2030  143.7150 O   0  0  0  0  0  1  0  0  0  0  0  0
  184.6630  179.3810  145.0340 F   0  0  0  0  0  0  0  0  0  0  0  0
  1  5  2  0  0  0  0
  1  4  1  0  0  0  0
  3 10  1  6  0  0  0
  3  2  1  0  0  0  0
  3  6  1  0  0  0  0
  4 11  1  0  0  0  0
  4  7  1  0  0  0  0
  6  2  1  1  0  0  0
  7 11  1  6  0  0  0
  7  6  1  0  0  0  0
  8 13  1  1  0  0  0
  8 12  1  0  0  0  0
  8  1  1  0  0  0  0
  9  3  1  0  0  0  0
 12  9  1  0  0  0  0
 13 14  1  6  0  0  0
 15 16  1  1  0  0  0
 15 13  1  0  0  0  0
 17 16  1  0  0  0  0
 18 19  1  0  0  0  0
 19 17  1  0  0  0  0
 20 15  1  0  0  0  0
 21 20  1  0  0  0  0
 23 24  2  0  0  0  0
 24 22  1  0  0  0  0
 24 21  1  0  0  0  0
 25  9  1  0  0  0  0
 26 27  1  0  0  0  0
 26 25  1  0  0  0  0
 27 28  1  0  0  0  0
 28 29  1  6  0  0  0
 28 30  1  0  0  0  0
M  END
>  <MODEL>
4

>  <REMARK>
 VINA RESULT:      -6.0      2.416      3.803
  Name = 
  11 active torsions:
  status: ('A' for Active; 'I' for Inactive)
    1  A    between atoms: C_1  and  C_4
    2  A    between atoms: C_1  and  C_22
    3  A    between atoms: C_4  and  C_9
    4  A    between atoms: C_4  and  C_12
    5  A    between atoms: C_7  and  N_23
    6  A    between atoms: C_7  and  C_25
    7  A    between atoms: N_8  and  C_12
    8  A    between atoms: C_9  and  S_21
    9  A    between atoms: C_10  and  C_15
   10  A    between atoms: C_15  and  C_25
   11  A    between atoms: C_17  and  S_21
                            x       y       z     vdW  Elec       q    Type
                         _______ _______ _______ _____ _____    ______ ____

>  <TORSDO>
F 11

$$$$
=
 OpenBabel10272413593D

 30 32  0  0  1  0  0  0  0  0999 V2000
  191.3320  177.2970  140.1120 C   0  0  0  0  0  0  0  0  0  0  0  0
  188.4330  177.3220  136.8760 C   0  0  0  0  0  2  0  0  0  0  0  0
  188.8670  178.2700  137.9740 C   0  0  2  0  0  0  0  0  0  0  0  0
  191.0020  176.4570  139.0130 N   0  0  0  0  0  0  0  0  0  0  0  0
  192.5300  177.6230  140.3210 O   0  0  0  0  0  0  0  0  0  0  0  0
  189.9260  177.6110  137.0810 C   0  0  1  0  0  3  0  0  0  0  0  0
  190.7170  176.3550  137.5520 C   0  0  2  0  0  3  0  0  0  0  0  0
  190.2350  177.8590  140.9640 C   0  0  1  0  0  3  0  0  0  0  0  0
  188.6600  177.7960  139.3510 N   0  0  0  0  0  0  0  0  0  0  0  0
  188.6090  179.6170  137.7090 O   0  0  0  0  0  1  0  0  0  0  0  0
  190.0700  175.4690  138.3910 C   0  0  0  0  0  2  0  0  0  0  0  0
  189.3210  178.6340  140.2060 O   0  0  0  0  0  0  0  0  0  0  0  0
  189.5550  176.8010  141.8450 C   0  0  1  0  0  3  0  0  0  0  0  0
  190.2890  175.6110  141.8240 O   0  0  0  0  0  1  0  0  0  0  0  0
  189.3810  177.3100  143.2810 C   0  0  1  0  0  3  0  0  0  0  0  0
  190.0260  178.6790  143.4990 C   0  0  0  0  0  2  0  0  0  0  0  0
  191.6130  178.5830  144.3900 S   0  0  0  0  0  0  0  0  0  0  0  0
  191.6130  176.5660  146.2180 C   0  0  0  0  0  1  0  0  0  0  0  0
  191.3790  176.8190  144.7440 C   0  0  0  0  0  2  0  0  0  0  0  0
  187.9390  177.2430  143.7740 C   0  0  0  0  0  2  0  0  0  0  0  0
  187.8910  177.5140  145.2010 N   0  0  0  0  0  2  0  0  0  0  0  0
  185.5670  178.2640  145.0790 O   0  0  0  0  0  0  0  0  0  0  0  0
  186.7100  178.2360  147.0640 O   0  0  0  0  0  1  0  0  0  0  0  0
  186.7130  178.0160  145.8260 C   0  0  0  0  0  0  0  0  0  0  0  0
  187.2270  177.7940  139.6790 C   0  0  0  0  0  2  0  0  0  0  0  0
  186.8610  178.7900  140.7760 C   0  0  0  0  0  2  0  0  0  0  0  0
  185.3570  178.7820  140.9820 C   0  0  0  0  0  2  0  0  0  0  0  0
  184.6170  178.8350  139.6540 C   0  0  2  0  0  3  0  0  0  0  0  0
  184.4880  180.1540  139.2200 O   0  0  0  0  0  1  0  0  0  0  0  0
  183.3670  178.2540  139.7720 F   0  0  0  0  0  0  0  0  0  0  0  0
  1  5  2  0  0  0  0
  1  8  1  0  0  0  0
  2  3  1  0  0  0  0
  3 10  1  6  0  0  0
  3  9  1  0  0  0  0
  4  1  1  0  0  0  0
  6  2  1  6  0  0  0
  6  7  1  0  0  0  0
  6  3  1  0  0  0  0
  7 11  1  1  0  0  0
  7  4  1  0  0  0  0
  8 13  1  6  0  0  0
  9 25  1  0  0  0  0
  9 12  1  0  0  0  0
 11  4  1  0  0  0  0
 12  8  1  0  0  0  0
 13 14  1  1  0  0  0
 13 15  1  0  0  0  0
 15 16  1  6  0  0  0
 15 20  1  0  0  0  0
 16 17  1  0  0  0  0
 17 19  1  0  0  0  0
 19 18  1  0  0  0  0
 20 21  1  0  0  0  0
 21 24  1  0  0  0  0
 22 24  2  0  0  0  0
 24 23  1  0  0  0  0
 25 26  1  0  0  0  0
 26 27  1  0  0  0  0
 28 29  1  1  0  0  0
 28 30  1  0  0  0  0
 28 27  1  0  0  0  0
M  END
>  <MODEL>
5

>  <REMARK>
 VINA RESULT:      -6.0      2.619      6.733
  Name = 
  11 active torsions:
  status: ('A' for Active; 'I' for Inactive)
    1  A    between atoms: C_1  and  C_4
    2  A    between atoms: C_1  and  C_22
    3  A    between atoms: C_4  and  C_9
    4  A    between atoms: C_4  and  C_12
    5  A    between atoms: C_7  and  N_23
    6  A    between atoms: C_7  and  C_25
    7  A    between atoms: N_8  and  C_12
    8  A    between atoms: C_9  and  S_21
    9  A    between atoms: C_10  and  C_15
   10  A    between atoms: C_15  and  C_25
   11  A    between atoms: C_17  and  S_21
                            x       y       z     vdW  Elec       q    Type
                         _______ _______ _______ _____ _____    ______ ____

>  <TORSDO>
F 11

$$$$
=
 OpenBabel10272413593D

 30 32  0  0  1  0  0  0  0  0999 V2000
  187.2520  177.8060  136.9600 C   0  0  0  0  0  0  0  0  0  0  0  0
  189.4970  174.8690  134.6770 C   0  0  0  0  0  2  0  0  0  0  0  0
  188.5770  174.8610  135.8800 C   0  0  2  0  0  0  0  0  0  0  0  0
  188.0230  177.7940  135.7670 N   0  0  0  0  0  0  0  0  0  0  0  0
  186.1100  178.3350  136.9710 O   0  0  0  0  0  0  0  0  0  0  0  0
  188.1450  175.5920  134.6020 C   0  0  1  0  0  3  0  0  0  0  0  0
  188.3020  177.1350  134.4580 C   0  0  2  0  0  3  0  0  0  0  0  0
  187.7730  177.1070  138.1800 C   0  0  1  0  0  3  0  0  0  0  0  0
  189.0410  175.6240  137.0490 N   0  0  0  0  0  0  0  0  0  0  0  0
  187.9460  173.6370  136.1160 O   0  0  0  0  0  1  0  0  0  0  0  0
  189.3630  177.7330  135.1070 C   0  0  0  0  0  2  0  0  0  0  0  0
  188.0090  175.7300  137.9400 O   0  0  0  0  0  0  0  0  0  0  0  0
  188.9670  177.8280  138.8230 C   0  0  1  0  0  3  0  0  0  0  0  0
  188.9310  179.1910  138.5140 O   0  0  0  0  0  1  0  0  0  0  0  0
  188.9860  177.6130  140.3410 C   0  0  1  0  0  3  0  0  0  0  0  0
  190.3840  177.2910  140.8690 C   0  0  0  0  0  2  0  0  0  0  0  0
  190.3590  176.5110  142.5160 S   0  0  0  0  0  0  0  0  0  0  0  0
  190.9090  178.8020  143.8770 C   0  0  0  0  0  1  0  0  0  0  0  0
  191.6020  177.6680  143.1520 C   0  0  0  0  0  2  0  0  0  0  0  0
  188.2970  178.7310  141.1170 C   0  0  0  0  0  2  0  0  0  0  0  0
  187.2080  178.1860  141.9090 N   0  0  0  0  0  2  0  0  0  0  0  0
  185.5460  179.5400  140.7340 O   0  0  0  0  0  0  0  0  0  0  0  0
  184.9430  178.1000  142.4090 O   0  0  0  0  0  1  0  0  0  0  0  0
  185.8580  178.5960  141.7050 C   0  0  0  0  0  0  0  0  0  0  0  0
  190.1710  174.9360  137.6900 C   0  0  0  0  0  2  0  0  0  0  0  0
  191.4800  175.7130  137.5920 C   0  0  0  0  0  2  0  0  0  0  0  0
  192.6220  174.7480  137.3340 C   0  0  0  0  0  2  0  0  0  0  0  0
  193.9320  175.4890  137.1060 C   0  0  2  0  0  3  0  0  0  0  0  0
  194.8260  175.2280  138.1450 O   0  0  0  0  0  1  0  0  0  0  0  0
  193.7090  176.8500  137.0080 F   0  0  0  0  0  0  0  0  0  0  0  0
  1  5  2  0  0  0  0
  1  8  1  0  0  0  0
  2  3  1  0  0  0  0
  3 10  1  1  0  0  0
  3  9  1  0  0  0  0
  4  1  1  0  0  0  0
  6  2  1  6  0  0  0
  6  3  1  0  0  0  0
  7  6  1  0  0  0  0
  7 11  1  1  0  0  0
  7  4  1  0  0  0  0
  8 13  1  6  0  0  0
  9 25  1  0  0  0  0
  9 12  1  0  0  0  0
 11  4  1  0  0  0  0
 12  8  1  0  0  0  0
 13 14  1  1  0  0  0
 13 15  1  0  0  0  0
 15 16  1  1  0  0  0
 15 20  1  0  0  0  0
 16 17  1  0  0  0  0
 17 19  1  0  0  0  0
 19 18  1  0  0  0  0
 20 21  1  0  0  0  0
 22 24  2  0  0  0  0
 24 21  1  0  0  0  0
 24 23  1  0  0  0  0
 26 25  1  0  0  0  0
 27 26  1  0  0  0  0
 28 30  1  1  0  0  0
 28 27  1  0  0  0  0
 28 29  1  0  0  0  0
M  END
>  <MODEL>
6

>  <REMARK>
 VINA RESULT:      -6.0      4.350      8.941
  Name = 
  11 active torsions:
  status: ('A' for Active; 'I' for Inactive)
    1  A    between atoms: C_1  and  C_4
    2  A    between atoms: C_1  and  C_22
    3  A    between atoms: C_4  and  C_9
    4  A    between atoms: C_4  and  C_12
    5  A    between atoms: C_7  and  N_23
    6  A    between atoms: C_7  and  C_25
    7  A    between atoms: N_8  and  C_12
    8  A    between atoms: C_9  and  S_21
    9  A    between atoms: C_10  and  C_15
   10  A    between atoms: C_15  and  C_25
   11  A    between atoms: C_17  and  S_21
                            x       y       z     vdW  Elec       q    Type
                         _______ _______ _______ _____ _____    ______ ____

>  <TORSDO>
F 11

$$$$
=
 OpenBabel10272413593D

 30 32  0  0  1  0  0  0  0  0999 V2000
  188.4730  178.4420  139.0330 C   0  0  0  0  0  0  0  0  0  0  0  0
  184.2300  177.8150  138.3360 C   0  0  0  0  0  2  0  0  0  0  0  0
  185.0870  178.7920  139.1150 C   0  0  2  0  0  0  0  0  0  0  0  0
  187.6740  177.5980  138.2150 N   0  0  0  0  0  0  0  0  0  0  0  0
  189.4370  179.0790  138.5330 O   0  0  0  0  0  0  0  0  0  0  0  0
  185.4180  178.4980  137.6450 C   0  0  1  0  0  3  0  0  0  0  0  0
  186.5390  177.4910  137.2520 C   0  0  2  0  0  3  0  0  0  0  0  0
  188.1060  178.6350  140.4730 C   0  0  1  0  0  3  0  0  0  0  0  0
  185.9080  178.2130  140.1890 N   0  0  0  0  0  0  0  0  0  0  0  0
  184.4780  180.0250  139.3600 O   0  0  0  0  0  1  0  0  0  0  0  0
  186.7620  176.4210  138.0950 C   0  0  0  0  0  2  0  0  0  0  0  0
  186.7960  179.1590  140.6190 O   0  0  0  0  0  0  0  0  0  0  0  0
  188.3620  177.3870  141.3320 C   0  0  1  0  0  3  0  0  0  0  0  0
  189.2970  176.5560  140.7080 O   0  0  0  0  0  1  0  0  0  0  0  0
  188.8300  177.7760  142.7390 C   0  0  1  0  0  3  0  0  0  0  0  0
  188.2870  176.8380  143.8170 C   0  0  0  0  0  2  0  0  0  0  0  0
  187.0430  177.6310  144.8870 S   0  0  0  0  0  0  0  0  0  0  0  0
  187.4210  178.0410  147.5500 C   0  0  0  0  0  1  0  0  0  0  0  0
  188.1810  177.6540  146.2990 C   0  0  0  0  0  2  0  0  0  0  0  0
  190.3380  177.9860  142.8350 C   0  0  0  0  0  2  0  0  0  0  0  0
  190.7510  177.9760  144.2290 N   0  0  0  0  0  2  0  0  0  0  0  0
  191.9350  175.8530  143.9640 O   0  0  0  0  0  0  0  0  0  0  0  0
  191.8780  176.9440  145.9770 O   0  0  0  0  0  1  0  0  0  0  0  0
  191.5390  176.9160  144.7660 C   0  0  0  0  0  0  0  0  0  0  0  0
  185.0560  177.7960  141.3120 C   0  0  0  0  0  2  0  0  0  0  0  0
  184.7350  178.9330  142.2770 C   0  0  0  0  0  2  0  0  0  0  0  0
  183.6170  178.5040  143.2090 C   0  0  0  0  0  2  0  0  0  0  0  0
  183.5970  179.3500  144.4740 C   0  0  2  0  0  3  0  0  0  0  0  0
  184.6150  180.3030  144.4390 O   0  0  0  0  0  1  0  0  0  0  0  0
  183.7380  178.5510  145.5940 F   0  0  0  0  0  0  0  0  0  0  0  0
  1  8  1  0  0  0  0
  2  3  1  0  0  0  0
  3 10  1  1  0  0  0
  3  9  1  0  0  0  0
  4  1  1  0  0  0  0
  5  1  2  0  0  0  0
  6  2  1  6  0  0  0
  6  3  1  0  0  0  0
  7  6  1  0  0  0  0
  7 11  1  1  0  0  0
  7  4  1  0  0  0  0
  8 12  1  0  0  0  0
  8 13  1  1  0  0  0
  9 12  1  0  0  0  0
  9 25  1  0  0  0  0
 11  4  1  0  0  0  0
 13 14  1  6  0  0  0
 13 15  1  0  0  0  0
 15 20  1  6  0  0  0
 15 16  1  0  0  0  0
 16 17  1  0  0  0  0
 17 19  1  0  0  0  0
 19 18  1  0  0  0  0
 20 21  1  0  0  0  0
 21 24  1  0  0  0  0
 22 24  2  0  0  0  0
 24 23  1  0  0  0  0
 25 26  1  0  0  0  0
 26 27  1  0  0  0  0
 27 28  1  0  0  0  0
 28 29  1  6  0  0  0
 28 30  1  0  0  0  0
M  END
>  <MODEL>
7

>  <REMARK>
 VINA RESULT:      -5.8      2.436      6.178
  Name = 
  11 active torsions:
  status: ('A' for Active; 'I' for Inactive)
    1  A    between atoms: C_1  and  C_4
    2  A    between atoms: C_1  and  C_22
    3  A    between atoms: C_4  and  C_9
    4  A    between atoms: C_4  and  C_12
    5  A    between atoms: C_7  and  N_23
    6  A    between atoms: C_7  and  C_25
    7  A    between atoms: N_8  and  C_12
    8  A    between atoms: C_9  and  S_21
    9  A    between atoms: C_10  and  C_15
   10  A    between atoms: C_15  and  C_25
   11  A    between atoms: C_17  and  S_21
                            x       y       z     vdW  Elec       q    Type
                         _______ _______ _______ _____ _____    ______ ____

>  <TORSDO>
F 11

$$$$
=
 OpenBabel10272413593D

 30 32  0  0  1  0  0  0  0  0999 V2000
  187.3860  177.4700  137.3710 C   0  0  0  0  0  0  0  0  0  0  0  0
  189.7730  174.9340  134.7740 C   0  0  0  0  0  2  0  0  0  0  0  0
  189.0810  174.7990  136.1150 C   0  0  2  0  0  0  0  0  0  0  0  0
  187.9390  177.5580  136.0650 N   0  0  0  0  0  0  0  0  0  0  0  0
  186.1780  177.7660  137.5680 O   0  0  0  0  0  0  0  0  0  0  0  0
  188.3100  175.3740  134.9190 C   0  0  1  0  0  3  0  0  0  0  0  0
  188.1280  176.9100  134.7350 C   0  0  2  0  0  3  0  0  0  0  0  0
  188.2270  176.9410  138.4940 C   0  0  1  0  0  3  0  0  0  0  0  0
  189.5660  175.6870  137.1810 N   0  0  0  0  0  0  0  0  0  0  0  0
  188.7550  173.4860  136.4650 O   0  0  0  0  0  1  0  0  0  0  0  0
  189.1390  177.7320  135.1920 C   0  0  0  0  0  2  0  0  0  0  0  0
  188.6920  175.6270  138.2310 O   0  0  0  0  0  0  0  0  0  0  0  0
  189.3400  177.9090  138.9200 C   0  0  1  0  0  3  0  0  0  0  0  0
  189.0060  179.2180  138.5600 O   0  0  0  0  0  1  0  0  0  0  0  0
  189.6090  177.8090  140.4260 C   0  0  1  0  0  3  0  0  0  0  0  0
  188.3640  177.4050  141.2170 C   0  0  0  0  0  2  0  0  0  0  0  0
  187.2000  178.7860  141.4620 S   0  0  0  0  0  0  0  0  0  0  0  0
  187.4860  177.0730  143.5570 C   0  0  0  0  0  1  0  0  0  0  0  0
  186.4660  177.9910  142.9170 C   0  0  0  0  0  2  0  0  0  0  0  0
  190.8330  176.9640  140.7650 C   0  0  0  0  0  2  0  0  0  0  0  0
  191.2870  177.2700  142.1110 N   0  0  0  0  0  2  0  0  0  0  0  0
  190.4910  175.1250  142.9730 O   0  0  0  0  0  0  0  0  0  0  0  0
  191.5190  176.6510  144.3360 O   0  0  0  0  0  1  0  0  0  0  0  0
  191.1110  176.3500  143.1860 C   0  0  0  0  0  0  0  0  0  0  0  0
  190.8990  175.2630  137.6300 C   0  0  0  0  0  2  0  0  0  0  0  0
  192.0140  176.1960  137.1680 C   0  0  0  0  0  2  0  0  0  0  0  0
  193.2070  176.0560  138.0950 C   0  0  0  0  0  2  0  0  0  0  0  0
  194.2310  175.0790  137.5360 C   0  0  2  0  0  3  0  0  0  0  0  0
  195.3510  175.0200  138.3650 O   0  0  0  0  0  1  0  0  0  0  0  0
  194.6090  175.4500  136.2590 F   0  0  0  0  0  0  0  0  0  0  0  0
  1  5  2  0  0  0  0
  1  8  1  0  0  0  0
  2  3  1  0  0  0  0
  3 10  1  1  0  0  0
  3  9  1  0  0  0  0
  4  1  1  0  0  0  0
  6  2  1  6  0  0  0
  6  3  1  0  0  0  0
  7  6  1  0  0  0  0
  7 11  1  1  0  0  0
  7  4  1  0  0  0  0
  8 13  1  6  0  0  0
  9 25  1  0  0  0  0
  9 12  1  0  0  0  0
 11  4  1  0  0  0  0
 12  8  1  0  0  0  0
 13 14  1  1  0  0  0
 13 15  1  0  0  0  0
 15 20  1  6  0  0  0
 15 16  1  0  0  0  0
 16 17  1  0  0  0  0
 17 19  1  0  0  0  0
 19 18  1  0  0  0  0
 20 21  1  0  0  0  0
 21 24  1  0  0  0  0
 22 24  2  0  0  0  0
 24 23  1  0  0  0  0
 26 25  1  0  0  0  0
 26 27  1  0  0  0  0
 28 30  1  6  0  0  0
 28 27  1  0  0  0  0
 28 29  1  0  0  0  0
M  END
>  <MODEL>
8

>  <REMARK>
 VINA RESULT:      -5.7      4.211      8.564
  Name = 
  11 active torsions:
  status: ('A' for Active; 'I' for Inactive)
    1  A    between atoms: C_1  and  C_4
    2  A    between atoms: C_1  and  C_22
    3  A    between atoms: C_4  and  C_9
    4  A    between atoms: C_4  and  C_12
    5  A    between atoms: C_7  and  N_23
    6  A    between atoms: C_7  and  C_25
    7  A    between atoms: N_8  and  C_12
    8  A    between atoms: C_9  and  S_21
    9  A    between atoms: C_10  and  C_15
   10  A    between atoms: C_15  and  C_25
   11  A    between atoms: C_17  and  S_21
                            x       y       z     vdW  Elec       q    Type
                         _______ _______ _______ _____ _____    ______ ____

>  <TORSDO>
F 11

$$$$
=
 OpenBabel10272413593D

 30 32  0  0  1  0  0  0  0  0999 V2000
  190.2980  176.3200  143.6920 C   0  0  0  0  0  0  0  0  0  0  0  0
  189.9800  177.4260  147.8820 C   0  0  0  0  0  2  0  0  0  0  0  0
  189.1150  176.7190  146.8590 C   0  0  2  0  0  0  0  0  0  0  0  0
  191.1510  176.8820  144.6800 N   0  0  0  0  0  0  0  0  0  0  0  0
  190.6950  175.3550  142.9880 O   0  0  0  0  0  0  0  0  0  0  0  0
  190.5790  176.2940  147.0360 C   0  0  1  0  0  3  0  0  0  0  0  0
  191.6910  176.7970  146.0680 C   0  0  2  0  0  3  0  0  0  0  0  0
  188.8950  176.8290  143.5550 C   0  0  1  0  0  3  0  0  0  0  0  0
  188.7110  177.5190  145.6950 N   0  0  0  0  0  0  0  0  0  0  0  0
  188.1670  175.8510  147.4080 O   0  0  0  0  0  1  0  0  0  0  0  0
  191.5400  178.0550  145.5200 C   0  0  0  0  0  2  0  0  0  0  0  0
  188.1610  176.6860  144.7600 O   0  0  0  0  0  0  0  0  0  0  0  0
  188.8220  178.2430  142.9610 C   0  0  1  0  0  3  0  0  0  0  0  0
  190.1050  178.7910  142.8610 O   0  0  0  0  0  1  0  0  0  0  0  0
  188.1280  178.2300  141.5940 C   0  0  1  0  0  3  0  0  0  0  0  0
  188.6130  177.0880  140.7010 C   0  0  0  0  0  2  0  0  0  0  0  0
  189.8370  177.6260  139.4630 S   0  0  0  0  0  0  0  0  0  0  0  0
  189.4460  177.0190  136.8390 C   0  0  0  0  0  1  0  0  0  0  0  0
  189.1870  176.4700  138.2260 C   0  0  0  0  0  2  0  0  0  0  0  0
  186.6070  178.3090  141.6900 C   0  0  0  0  0  2  0  0  0  0  0  0
  186.0930  179.2050  140.6680 N   0  0  0  0  0  2  0  0  0  0  0  0
  183.8490  178.2450  140.8190 O   0  0  0  0  0  1  0  0  0  0  0  0
  184.3220  179.9520  139.3660 O   0  0  0  0  0  0  0  0  0  0  0  0
  184.7300  179.1590  140.2530 C   0  0  0  0  0  0  0  0  0  0  0  0
  187.7200  178.5300  146.0910 C   0  0  0  0  0  2  0  0  0  0  0  0
  186.2850  178.0120  146.0550 C   0  0  0  0  0  2  0  0  0  0  0  0
  185.3250  179.1860  146.0070 C   0  0  0  0  0  2  0  0  0  0  0  0
  184.4020  179.0970  144.8010 C   0  0  2  0  0  3  0  0  0  0  0  0
  184.7220  177.9820  144.0240 O   0  0  0  0  0  1  0  0  0  0  0  0
  184.4900  180.2450  144.0350 F   0  0  0  0  0  0  0  0  0  0  0  0
  1  4  1  0  0  0  0
  3  6  1  0  0  0  0
  3 10  1  1  0  0  0
  3  2  1  0  0  0  0
  4 11  1  0  0  0  0
  4  7  1  0  0  0  0
  5  1  2  0  0  0  0
  6  2  1  1  0  0  0
  7 11  1  1  0  0  0
  7  6  1  0  0  0  0
  8 13  1  1  0  0  0
  8  1  1  0  0  0  0
  8 12  1  0  0  0  0
  9 25  1  0  0  0  0
  9  3  1  0  0  0  0
 12  9  1  0  0  0  0
 13 14  1  6  0  0  0
 15 16  1  1  0  0  0
 15 20  1  0  0  0  0
 15 13  1  0  0  0  0
 17 16  1  0  0  0  0
 18 19  1  0  0  0  0
 19 17  1  0  0  0  0
 21 20  1  0  0  0  0
 23 24  2  0  0  0  0
 24 21  1  0  0  0  0
 24 22  1  0  0  0  0
 26 25  1  0  0  0  0
 27 26  1  0  0  0  0
 28 29  1  6  0  0  0
 28 27  1  0  0  0  0
 30 28  1  0  0  0  0
M  END
>  <MODEL>
9

>  <REMARK>
 VINA RESULT:      -5.7      1.790      3.185
  Name = 
  11 active torsions:
  status: ('A' for Active; 'I' for Inactive)
    1  A    between atoms: C_1  and  C_4
    2  A    between atoms: C_1  and  C_22
    3  A    between atoms: C_4  and  C_9
    4  A    between atoms: C_4  and  C_12
    5  A    between atoms: C_7  and  N_23
    6  A    between atoms: C_7  and  C_25
    7  A    between atoms: N_8  and  C_12
    8  A    between atoms: C_9  and  S_21
    9  A    between atoms: C_10  and  C_15
   10  A    between atoms: C_15  and  C_25
   11  A    between atoms: C_17  and  S_21
                            x       y       z     vdW  Elec       q    Type
                         _______ _______ _______ _____ _____    ______ ____

>  <TORSDO>
F 11

$$$$
