=
 OpenBabel10272400453D

 25 26  0  0  1  0  0  0  0  0999 V2000
  192.3650  177.5350  140.3810 C   0  0  0  0  0  1  0  0  0  0  0  0
  189.6690  176.0630  141.9470 C   0  0  0  0  0  2  0  0  0  0  0  0
  191.3690  177.8640  141.4760 C   0  0  1  0  0  3  0  0  0  0  0  0
  190.8220  177.3430  143.8980 C   0  0  0  0  0  0  0  0  0  0  0  0
  190.3040  178.7520  144.1750 C   0  0  0  0  0  1  0  0  0  0  0  0
  190.0660  177.2460  141.1840 N   0  0  0  0  0  0  0  0  0  0  0  0
  191.4370  176.8140  145.1760 C   0  0  0  0  0  1  0  0  0  0  0  0
  189.7060  176.3590  143.4510 C   0  0  1  0  0  3  0  0  0  0  0  0
  191.9240  177.4210  142.8370 C   0  0  0  0  0  2  0  0  0  0  0  0
  189.1240  177.8990  140.3030 C   0  0  0  0  0  0  0  0  0  0  0  0
  188.0500  178.5010  140.8120 C   0  0  0  0  0  2  0  0  0  0  0  0
  189.3090  177.9090  138.8310 C   0  0  0  0  0  0  0  0  0  0  0  0
  189.0500  179.0940  138.0800 N   0  0  0  0  0  1  0  0  0  0  0  0
  189.7150  176.8830  138.2270 O   0  0  0  0  0  0  0  0  0  0  0  0
  188.3100  176.5990  144.0320 C   0  0  0  0  0  2  0  0  0  0  0  0
  187.2790  177.7110  146.0750 C   0  0  0  0  0  0  0  0  0  0  0  0
  188.3930  177.1400  145.3840 N   0  0  0  0  0  2  0  0  0  0  0  0
  187.3370  177.8260  147.3280 O   0  0  0  0  0  0  0  0  0  0  0  0
  186.0610  178.1520  145.3670 C   0  0  0  0  0  0  0  0  0  0  0  0
  183.7650  178.9450  143.9600 C   0  0  0  0  0  3  0  0  0  0  0  0
  184.8830  178.4950  146.0630 C   0  0  0  0  0  0  0  0  0  0  0  0
  183.7440  178.8930  145.3560 C   0  0  0  0  0  3  0  0  0  0  0  0
  184.9220  178.5890  143.2650 C   0  0  0  0  0  3  0  0  0  0  0  0
  184.8150  178.3960  147.4140 F   0  0  0  0  0  0  0  0  0  0  0  0
  186.0620  178.1890  143.9660 C   0  0  0  0  0  3  0  0  0  0  0  0
  2  8  1  0  0  0  0
  3  1  1  6  0  0  0
  3  9  1  0  0  0  0
  4  5  1  0  0  0  0
  4  7  1  0  0  0  0
  6  3  1  0  0  0  0
  6  2  1  0  0  0  0
  8  4  1  0  0  0  0
  8 15  1  6  0  0  0
  9  4  1  0  0  0  0
 10 11  2  0  0  0  0
 10  6  1  0  0  0  0
 12 10  1  0  0  0  0
 13 12  1  0  0  0  0
 14 12  2  0  0  0  0
 15 17  1  0  0  0  0
 16 18  2  0  0  0  0
 17 16  1  0  0  0  0
 19 21  1  0  0  0  0
 19 16  1  0  0  0  0
 20 22  1  0  0  0  0
 21 24  1  0  0  0  0
 22 21  2  0  0  0  0
 23 20  2  0  0  0  0
 23 25  1  0  0  0  0
 25 19  2  0  0  0  0
M  END
>  <MODEL>
1

>  <REMARK>
 VINA RESULT:      -8.8      0.000      0.000
  Name = 
  5 active torsions:
  status: ('A' for Active; 'I' for Inactive)
    1  A    between atoms: C_1  and  C_5
    2  A    between atoms: C_2  and  C_21
    3  A    between atoms: N_3  and  C_16
    4  A    between atoms: N_15  and  C_21
    5  A    between atoms: C_16  and  C_23
                            x       y       z     vdW  Elec       q    Type
                         _______ _______ _______ _____ _____    ______ ____

>  <TORSDO>
F 5

$$$$
=
 OpenBabel10272400453D

 25 26  0  0  1  0  0  0  0  0999 V2000
  192.1990  178.1280  144.5380 C   0  0  0  0  0  1  0  0  0  0  0  0
  188.8470  178.5060  145.2530 C   0  0  0  0  0  2  0  0  0  0  0  0
  190.9080  177.3470  144.3800 C   0  0  1  0  0  3  0  0  0  0  0  0
  188.7970  177.2440  142.9780 C   0  0  0  0  0  0  0  0  0  0  0  0
  188.7150  175.7220  143.0570 C   0  0  0  0  0  1  0  0  0  0  0  0
  189.9970  177.6370  145.4990 N   0  0  0  0  0  0  0  0  0  0  0  0
  188.2250  177.6720  141.6430 C   0  0  0  0  0  1  0  0  0  0  0  0
  187.9960  177.9580  144.1020 C   0  0  1  0  0  3  0  0  0  0  0  0
  190.2700  177.6630  143.0210 C   0  0  0  0  0  2  0  0  0  0  0  0
  190.1250  176.9300  146.7530 C   0  0  0  0  0  0  0  0  0  0  0  0
  189.0350  176.6150  147.4500 C   0  0  0  0  0  2  0  0  0  0  0  0
  191.4490  176.5500  147.3040 C   0  0  0  0  0  0  0  0  0  0  0  0
  192.0940  175.3530  146.8720 N   0  0  0  0  0  1  0  0  0  0  0  0
  192.0320  177.2860  148.1430 O   0  0  0  0  0  0  0  0  0  0  0  0
  186.7330  177.2490  144.5970 C   0  0  0  0  0  2  0  0  0  0  0  0
  184.7040  178.6800  145.1520 C   0  0  0  0  0  0  0  0  0  0  0  0
  185.9700  178.1090  145.4950 N   0  0  0  0  0  2  0  0  0  0  0  0
  183.9600  179.1030  146.0760 O   0  0  0  0  0  0  0  0  0  0  0  0
  184.2390  178.7720  143.7540 C   0  0  0  0  0  0  0  0  0  0  0  0
  183.4250  178.9190  141.0720 C   0  0  0  0  0  3  0  0  0  0  0  0
  182.8810  178.6090  143.4140 C   0  0  0  0  0  0  0  0  0  0  0  0
  182.4810  178.6870  142.0760 C   0  0  0  0  0  3  0  0  0  0  0  0
  184.7740  179.0610  141.4010 C   0  0  0  0  0  3  0  0  0  0  0  0
  181.9520  178.3250  144.3600 F   0  0  0  0  0  0  0  0  0  0  0  0
  185.1790  178.9820  142.7350 C   0  0  0  0  0  3  0  0  0  0  0  0
  2  6  1  0  0  0  0
  3  1  1  1  0  0  0
  3  6  1  0  0  0  0
  4  9  1  0  0  0  0
  4  5  1  0  0  0  0
  4  8  1  0  0  0  0
  6 10  1  0  0  0  0
  7  4  1  0  0  0  0
  8 15  1  1  0  0  0
  8  2  1  0  0  0  0
  9  3  1  0  0  0  0
 10 12  1  0  0  0  0
 10 11  2  0  0  0  0
 12 14  2  0  0  0  0
 13 12  1  0  0  0  0
 15 17  1  0  0  0  0
 16 17  1  0  0  0  0
 16 18  2  0  0  0  0
 19 16  1  0  0  0  0
 20 23  2  0  0  0  0
 20 22  1  0  0  0  0
 21 19  1  0  0  0  0
 21 24  1  0  0  0  0
 22 21  2  0  0  0  0
 23 25  1  0  0  0  0
 25 19  2  0  0  0  0
M  END
>  <MODEL>
2

>  <REMARK>
 VINA RESULT:      -8.3      3.230      4.830
  Name = 
  5 active torsions:
  status: ('A' for Active; 'I' for Inactive)
    1  A    between atoms: C_1  and  C_5
    2  A    between atoms: C_2  and  C_21
    3  A    between atoms: N_3  and  C_16
    4  A    between atoms: N_15  and  C_21
    5  A    between atoms: C_16  and  C_23
                            x       y       z     vdW  Elec       q    Type
                         _______ _______ _______ _____ _____    ______ ____

>  <TORSDO>
F 5

$$$$
=
 OpenBabel10272400453D

 25 26  0  0  1  0  0  0  0  0999 V2000
  184.1840  179.9470  144.0220 C   0  0  0  0  0  1  0  0  0  0  0  0
  186.9670  179.1850  142.1350 C   0  0  0  0  0  2  0  0  0  0  0  0
  185.0080  178.7280  143.6530 C   0  0  1  0  0  3  0  0  0  0  0  0
  187.2100  177.5770  144.1670 C   0  0  0  0  0  0  0  0  0  0  0  0
  186.6200  176.1810  143.9920 C   0  0  0  0  0  1  0  0  0  0  0  0
  185.5480  178.8700  142.2920 N   0  0  0  0  0  0  0  0  0  0  0  0
  188.3000  177.4950  145.2150 C   0  0  0  0  0  1  0  0  0  0  0  0
  187.8300  178.1470  142.8620 C   0  0  1  0  0  3  0  0  0  0  0  0
  186.1160  178.5130  144.6930 C   0  0  0  0  0  2  0  0  0  0  0  0
  184.7450  178.5200  141.1420 C   0  0  0  0  0  0  0  0  0  0  0  0
  183.6820  177.7320  141.2930 C   0  0  0  0  0  2  0  0  0  0  0  0
  185.0760  179.0060  139.7800 C   0  0  0  0  0  0  0  0  0  0  0  0
  184.3200  180.0580  139.1850 N   0  0  0  0  0  1  0  0  0  0  0  0
  186.0400  178.5120  139.1390 O   0  0  0  0  0  0  0  0  0  0  0  0
  188.4530  177.1300  141.9010 C   0  0  0  0  0  2  0  0  0  0  0  0
  190.9540  177.5520  141.7020 C   0  0  0  0  0  0  0  0  0  0  0  0
  189.6140  177.6960  141.2230 N   0  0  0  0  0  2  0  0  0  0  0  0
  191.9070  177.7510  140.9040 O   0  0  0  0  0  0  0  0  0  0  0  0
  191.2500  177.1630  143.0950 C   0  0  0  0  0  0  0  0  0  0  0  0
  191.8540  176.3600  145.7160 C   0  0  0  0  0  3  0  0  0  0  0  0
  191.3920  178.1230  144.1170 C   0  0  0  0  0  0  0  0  0  0  0  0
  191.6890  177.7160  145.4220 C   0  0  0  0  0  3  0  0  0  0  0  0
  191.7350  175.4070  144.7030 C   0  0  0  0  0  3  0  0  0  0  0  0
  191.2950  179.4490  143.8500 F   0  0  0  0  0  0  0  0  0  0  0  0
  191.4400  175.8080  143.3980 C   0  0  0  0  0  3  0  0  0  0  0  0
  2  6  1  0  0  0  0
  2  8  1  0  0  0  0
  3  1  1  1  0  0  0
  3  9  1  0  0  0  0
  4  9  1  0  0  0  0
  4  7  1  0  0  0  0
  5  4  1  0  0  0  0
  6  3  1  0  0  0  0
  8 15  1  6  0  0  0
  8  4  1  0  0  0  0
 10 11  2  0  0  0  0
 10  6  1  0  0  0  0
 12 10  1  0  0  0  0
 13 12  1  0  0  0  0
 14 12  2  0  0  0  0
 16 19  1  0  0  0  0
 17 16  1  0  0  0  0
 17 15  1  0  0  0  0
 18 16  2  0  0  0  0
 19 25  2  0  0  0  0
 19 21  1  0  0  0  0
 21 22  2  0  0  0  0
 22 20  1  0  0  0  0
 23 20  2  0  0  0  0
 24 21  1  0  0  0  0
 25 23  1  0  0  0  0
M  END
>  <MODEL>
3

>  <REMARK>
 VINA RESULT:      -8.3      2.874      5.835
  Name = 
  5 active torsions:
  status: ('A' for Active; 'I' for Inactive)
    1  A    between atoms: C_1  and  C_5
    2  A    between atoms: C_2  and  C_21
    3  A    between atoms: N_3  and  C_16
    4  A    between atoms: N_15  and  C_21
    5  A    between atoms: C_16  and  C_23
                            x       y       z     vdW  Elec       q    Type
                         _______ _______ _______ _____ _____    ______ ____

>  <TORSDO>
F 5

$$$$
=
 OpenBabel10272400453D

 25 26  0  0  1  0  0  0  0  0999 V2000
  191.9890  176.1390  146.1000 C   0  0  0  0  0  1  0  0  0  0  0  0
  188.9680  176.5100  144.4810 C   0  0  0  0  0  2  0  0  0  0  0  0
  190.8280  177.1150  146.0700 C   0  0  1  0  0  3  0  0  0  0  0  0
  188.4370  177.3970  146.8690 C   0  0  0  0  0  0  0  0  0  0  0  0
  188.5930  178.9010  147.0760 C   0  0  0  0  0  1  0  0  0  0  0  0
  190.2480  177.1750  144.7190 N   0  0  0  0  0  0  0  0  0  0  0  0
  187.4520  176.8850  147.8980 C   0  0  0  0  0  1  0  0  0  0  0  0
  187.9050  177.0260  145.4580 C   0  0  1  0  0  3  0  0  0  0  0  0
  189.7880  176.7210  147.1270 C   0  0  0  0  0  2  0  0  0  0  0  0
  190.8290  178.0290  143.7070 C   0  0  0  0  0  0  0  0  0  0  0  0
  191.2160  179.2630  144.0240 C   0  0  0  0  0  2  0  0  0  0  0  0
  190.9980  177.5730  142.3060 C   0  0  0  0  0  0  0  0  0  0  0  0
  189.8870  177.5570  141.4120 N   0  0  0  0  0  1  0  0  0  0  0  0
  192.1270  177.2150  141.8780 O   0  0  0  0  0  0  0  0  0  0  0  0
  186.9490  178.0270  144.8030 C   0  0  0  0  0  2  0  0  0  0  0  0
  186.0890  178.4730  142.4500 C   0  0  0  0  0  0  0  0  0  0  0  0
  187.1050  178.0260  143.3530 N   0  0  0  0  0  2  0  0  0  0  0  0
  186.4150  178.7700  141.2710 O   0  0  0  0  0  0  0  0  0  0  0  0
  184.6790  178.6100  142.8640 C   0  0  0  0  0  0  0  0  0  0  0  0
  182.0200  178.9180  143.7100 C   0  0  0  0  0  3  0  0  0  0  0  0
  183.6240  178.5410  141.9320 C   0  0  0  0  0  0  0  0  0  0  0  0
  182.3010  178.6920  142.3600 C   0  0  0  0  0  3  0  0  0  0  0  0
  183.0620  179.0060  144.6340 C   0  0  0  0  0  3  0  0  0  0  0  0
  183.8700  178.3820  140.6080 F   0  0  0  0  0  0  0  0  0  0  0  0
  184.3850  178.8590  144.2120 C   0  0  0  0  0  3  0  0  0  0  0  0
  2  6  1  0  0  0  0
  2  8  1  0  0  0  0
  3  1  1  6  0  0  0
  3  9  1  0  0  0  0
  4  5  1  0  0  0  0
  4  9  1  0  0  0  0
  4  7  1  0  0  0  0
  6  3  1  0  0  0  0
  8 15  1  6  0  0  0
  8  4  1  0  0  0  0
 10 11  2  0  0  0  0
 10  6  1  0  0  0  0
 12 10  1  0  0  0  0
 13 12  1  0  0  0  0
 14 12  2  0  0  0  0
 16 19  1  0  0  0  0
 16 17  1  0  0  0  0
 17 15  1  0  0  0  0
 18 16  2  0  0  0  0
 19 25  1  0  0  0  0
 20 23  1  0  0  0  0
 21 22  1  0  0  0  0
 21 19  2  0  0  0  0
 22 20  2  0  0  0  0
 24 21  1  0  0  0  0
 25 23  2  0  0  0  0
M  END
>  <MODEL>
4

>  <REMARK>
 VINA RESULT:      -8.2      2.673      4.013
  Name = 
  5 active torsions:
  status: ('A' for Active; 'I' for Inactive)
    1  A    between atoms: C_1  and  C_5
    2  A    between atoms: C_2  and  C_21
    3  A    between atoms: N_3  and  C_16
    4  A    between atoms: N_15  and  C_21
    5  A    between atoms: C_16  and  C_23
                            x       y       z     vdW  Elec       q    Type
                         _______ _______ _______ _____ _____    ______ ____

>  <TORSDO>
F 5

$$$$
=
 OpenBabel10272400453D

 25 26  0  0  1  0  0  0  0  0999 V2000
  192.8330  177.1210  140.6970 C   0  0  0  0  0  1  0  0  0  0  0  0
  189.9190  175.9140  142.0910 C   0  0  0  0  0  2  0  0  0  0  0  0
  191.6940  177.6240  141.5630 C   0  0  1  0  0  3  0  0  0  0  0  0
  190.7970  177.5280  143.9340 C   0  0  0  0  0  0  0  0  0  0  0  0
  190.2660  178.9580  143.8830 C   0  0  0  0  0  1  0  0  0  0  0  0
  190.4390  176.9500  141.1980 N   0  0  0  0  0  0  0  0  0  0  0  0
  191.2150  177.2370  145.3600 C   0  0  0  0  0  1  0  0  0  0  0  0
  189.7440  176.4680  143.5090 C   0  0  1  0  0  3  0  0  0  0  0  0
  192.0420  177.4320  143.0450 C   0  0  0  0  0  2  0  0  0  0  0  0
  189.6420  177.4280  140.0900 C   0  0  0  0  0  0  0  0  0  0  0  0
  189.0960  178.6420  140.1440 C   0  0  0  0  0  2  0  0  0  0  0  0
  189.4000  176.5970  138.8870 C   0  0  0  0  0  0  0  0  0  0  0  0
  188.2160  176.7770  138.1120 N   0  0  0  0  0  1  0  0  0  0  0  0
  190.2420  175.7360  138.5190 O   0  0  0  0  0  0  0  0  0  0  0  0
  188.2820  176.7910  143.8320 C   0  0  0  0  0  2  0  0  0  0  0  0
  186.4110  178.0400  142.6430 C   0  0  0  0  0  0  0  0  0  0  0  0
  187.5560  177.1820  142.6290 N   0  0  0  0  0  2  0  0  0  0  0  0
  186.0650  178.6050  141.5730 O   0  0  0  0  0  0  0  0  0  0  0  0
  185.6380  178.2940  143.8740 C   0  0  0  0  0  0  0  0  0  0  0  0
  184.2330  178.8060  146.2500 C   0  0  0  0  0  3  0  0  0  0  0  0
  184.2640  178.6080  143.8340 C   0  0  0  0  0  0  0  0  0  0  0  0
  183.5690  178.8580  145.0210 C   0  0  0  0  0  3  0  0  0  0  0  0
  185.5970  178.5150  146.2940 C   0  0  0  0  0  3  0  0  0  0  0  0
  183.6080  178.7240  142.6530 F   0  0  0  0  0  0  0  0  0  0  0  0
  186.2970  178.2660  145.1120 C   0  0  0  0  0  3  0  0  0  0  0  0
  2  8  1  0  0  0  0
  3  1  1  6  0  0  0
  3  9  1  0  0  0  0
  4  7  1  0  0  0  0
  5  4  1  0  0  0  0
  6  3  1  0  0  0  0
  6  2  1  0  0  0  0
  8 15  1  6  0  0  0
  8  4  1  0  0  0  0
  9  4  1  0  0  0  0
 10 11  2  0  0  0  0
 10  6  1  0  0  0  0
 12 10  1  0  0  0  0
 13 12  1  0  0  0  0
 14 12  2  0  0  0  0
 16 19  1  0  0  0  0
 17 16  1  0  0  0  0
 17 15  1  0  0  0  0
 18 16  2  0  0  0  0
 19 25  1  0  0  0  0
 20 23  1  0  0  0  0
 21 19  2  0  0  0  0
 21 22  1  0  0  0  0
 22 20  2  0  0  0  0
 24 21  1  0  0  0  0
 25 23  2  0  0  0  0
M  END
>  <MODEL>
5

>  <REMARK>
 VINA RESULT:      -8.1      1.848      2.173
  Name = 
  5 active torsions:
  status: ('A' for Active; 'I' for Inactive)
    1  A    between atoms: C_1  and  C_5
    2  A    between atoms: C_2  and  C_21
    3  A    between atoms: N_3  and  C_16
    4  A    between atoms: N_15  and  C_21
    5  A    between atoms: C_16  and  C_23
                            x       y       z     vdW  Elec       q    Type
                         _______ _______ _______ _____ _____    ______ ____

>  <TORSDO>
F 5

$$$$
=
 OpenBabel10272400453D

 25 26  0  0  1  0  0  0  0  0999 V2000
  187.7570  177.4900  146.8950 C   0  0  0  0  0  1  0  0  0  0  0  0
  188.4470  176.3360  143.7200 C   0  0  0  0  0  2  0  0  0  0  0  0
  187.8190  178.0290  145.4790 C   0  0  1  0  0  3  0  0  0  0  0  0
  186.5320  178.0460  143.2920 C   0  0  0  0  0  0  0  0  0  0  0  0
  186.9660  179.4670  142.9480 C   0  0  0  0  0  1  0  0  0  0  0  0
  188.8610  177.3290  144.7110 N   0  0  0  0  0  0  0  0  0  0  0  0
  185.1490  177.8290  142.7170 C   0  0  0  0  0  1  0  0  0  0  0  0
  187.4780  176.9590  142.7090 C   0  0  1  0  0  3  0  0  0  0  0  0
  186.4390  177.9130  144.8160 C   0  0  0  0  0  2  0  0  0  0  0  0
  190.2420  177.7470  144.7970 C   0  0  0  0  0  0  0  0  0  0  0  0
  190.5980  178.9500  144.3510 C   0  0  0  0  0  2  0  0  0  0  0  0
  191.2910  176.8630  145.3610 C   0  0  0  0  0  0  0  0  0  0  0  0
  191.6080  176.9140  146.7510 N   0  0  0  0  0  1  0  0  0  0  0  0
  191.9030  176.0430  144.6280 O   0  0  0  0  0  0  0  0  0  0  0  0
  188.1570  177.2880  141.3770 C   0  0  0  0  0  2  0  0  0  0  0  0
  190.4900  177.2890  140.3620 C   0  0  0  0  0  0  0  0  0  0  0  0
  189.5930  177.0460  141.4490 N   0  0  0  0  0  2  0  0  0  0  0  0
  191.7210  177.3950  140.6030 O   0  0  0  0  0  0  0  0  0  0  0  0
  190.0140  177.4350  138.9720 C   0  0  0  0  0  0  0  0  0  0  0  0
  189.1180  177.7900  136.3360 C   0  0  0  0  0  3  0  0  0  0  0  0
  190.2390  176.4350  138.0040 C   0  0  0  0  0  0  0  0  0  0  0  0
  189.7870  176.6170  136.6930 C   0  0  0  0  0  3  0  0  0  0  0  0
  188.9090  178.7910  137.2850 C   0  0  0  0  0  3  0  0  0  0  0  0
  190.9370  175.3130  138.3070 F   0  0  0  0  0  0  0  0  0  0  0  0
  189.3600  178.6160  138.5950 C   0  0  0  0  0  3  0  0  0  0  0  0
  2  6  1  0  0  0  0
  3  1  1  1  0  0  0
  4  9  1  0  0  0  0
  5  4  1  0  0  0  0
  6 10  1  0  0  0  0
  6  3  1  0  0  0  0
  7  4  1  0  0  0  0
  8 15  1  6  0  0  0
  8  4  1  0  0  0  0
  8  2  1  0  0  0  0
  9  3  1  0  0  0  0
 10 12  1  0  0  0  0
 11 10  2  0  0  0  0
 12 13  1  0  0  0  0
 14 12  2  0  0  0  0
 15 17  1  0  0  0  0
 16 18  2  0  0  0  0
 16 17  1  0  0  0  0
 19 16  1  0  0  0  0
 20 22  2  0  0  0  0
 20 23  1  0  0  0  0
 21 24  1  0  0  0  0
 21 19  2  0  0  0  0
 22 21  1  0  0  0  0
 23 25  2  0  0  0  0
 25 19  1  0  0  0  0
M  END
>  <MODEL>
6

>  <REMARK>
 VINA RESULT:      -8.0      3.052      6.826
  Name = 
  5 active torsions:
  status: ('A' for Active; 'I' for Inactive)
    1  A    between atoms: C_1  and  C_5
    2  A    between atoms: C_2  and  C_21
    3  A    between atoms: N_3  and  C_16
    4  A    between atoms: N_15  and  C_21
    5  A    between atoms: C_16  and  C_23
                            x       y       z     vdW  Elec       q    Type
                         _______ _______ _______ _____ _____    ______ ____

>  <TORSDO>
F 5

$$$$
=
 OpenBabel10272400453D

 25 26  0  0  1  0  0  0  0  0999 V2000
  187.3500  177.3020  145.5360 C   0  0  0  0  0  1  0  0  0  0  0  0
  189.4100  176.2280  142.9880 C   0  0  0  0  0  2  0  0  0  0  0  0
  188.0980  177.8900  144.3550 C   0  0  1  0  0  3  0  0  0  0  0  0
  188.0010  178.0830  141.8270 C   0  0  0  0  0  0  0  0  0  0  0  0
  188.6070  179.4830  141.8240 C   0  0  0  0  0  1  0  0  0  0  0  0
  189.3480  177.1500  144.1220 N   0  0  0  0  0  0  0  0  0  0  0  0
  187.0460  177.9860  140.6560 C   0  0  0  0  0  1  0  0  0  0  0  0
  189.0620  176.9560  141.6850 C   0  0  1  0  0  3  0  0  0  0  0  0
  187.1920  177.8970  143.1160 C   0  0  0  0  0  2  0  0  0  0  0  0
  190.5410  177.4660  144.8740 C   0  0  0  0  0  0  0  0  0  0  0  0
  191.3500  178.4370  144.4540 C   0  0  0  0  0  2  0  0  0  0  0  0
  190.9050  176.7270  146.1070 C   0  0  0  0  0  0  0  0  0  0  0  0
  191.9810  175.7910  146.0970 N   0  0  0  0  0  1  0  0  0  0  0  0
  190.2850  176.9280  147.1840 O   0  0  0  0  0  0  0  0  0  0  0  0
  190.3030  177.2890  140.8530 C   0  0  0  0  0  2  0  0  0  0  0  0
  190.3890  176.0980  138.6060 C   0  0  0  0  0  0  0  0  0  0  0  0
  190.6800  176.1630  140.0050 N   0  0  0  0  0  2  0  0  0  0  0  0
  191.0370  175.2900  137.8900 O   0  0  0  0  0  0  0  0  0  0  0  0
  189.3670  176.9570  137.9780 C   0  0  0  0  0  0  0  0  0  0  0  0
  187.4810  178.6400  136.7560 C   0  0  0  0  0  3  0  0  0  0  0  0
  188.1510  176.4310  137.4970 C   0  0  0  0  0  0  0  0  0  0  0  0
  187.2140  177.2750  136.8930 C   0  0  0  0  0  3  0  0  0  0  0  0
  188.6920  179.1630  137.2140 C   0  0  0  0  0  3  0  0  0  0  0  0
  187.8900  175.1020  137.5620 F   0  0  0  0  0  0  0  0  0  0  0  0
  189.6320  178.3250  137.8160 C   0  0  0  0  0  3  0  0  0  0  0  0
  2  6  1  0  0  0  0
  3  1  1  1  0  0  0
  4  9  1  0  0  0  0
  5  4  1  0  0  0  0
  6  3  1  0  0  0  0
  6 10  1  0  0  0  0
  7  4  1  0  0  0  0
  8 15  1  1  0  0  0
  8  4  1  0  0  0  0
  8  2  1  0  0  0  0
  9  3  1  0  0  0  0
 10 12  1  0  0  0  0
 11 10  2  0  0  0  0
 12 14  2  0  0  0  0
 13 12  1  0  0  0  0
 16 17  1  0  0  0  0
 17 15  1  0  0  0  0
 18 16  2  0  0  0  0
 19 16  1  0  0  0  0
 20 22  2  0  0  0  0
 20 23  1  0  0  0  0
 21 24  1  0  0  0  0
 21 19  2  0  0  0  0
 22 21  1  0  0  0  0
 23 25  2  0  0  0  0
 25 19  1  0  0  0  0
M  END
>  <MODEL>
7

>  <REMARK>
 VINA RESULT:      -7.8      2.973      6.906
  Name = 
  5 active torsions:
  status: ('A' for Active; 'I' for Inactive)
    1  A    between atoms: C_1  and  C_5
    2  A    between atoms: C_2  and  C_21
    3  A    between atoms: N_3  and  C_16
    4  A    between atoms: N_15  and  C_21
    5  A    between atoms: C_16  and  C_23
                            x       y       z     vdW  Elec       q    Type
                         _______ _______ _______ _____ _____    ______ ____

>  <TORSDO>
F 5

$$$$
=
 OpenBabel10272400453D

 25 26  0  0  1  0  0  0  0  0999 V2000
  189.6460  177.7210  146.8120 C   0  0  0  0  0  1  0  0  0  0  0  0
  188.8970  178.7480  143.6080 C   0  0  0  0  0  2  0  0  0  0  0  0
  189.4430  177.1060  145.4400 C   0  0  1  0  0  3  0  0  0  0  0  0
  190.5890  176.8140  143.1960 C   0  0  0  0  0  0  0  0  0  0  0  0
  189.9850  175.4310  142.9710 C   0  0  0  0  0  1  0  0  0  0  0  0
  188.4380  177.8700  144.6830 N   0  0  0  0  0  0  0  0  0  0  0  0
  191.9510  176.8410  142.5360 C   0  0  0  0  0  1  0  0  0  0  0  0
  189.7320  177.9610  142.5920 C   0  0  1  0  0  3  0  0  0  0  0  0
  190.7860  177.0280  144.7010 C   0  0  0  0  0  2  0  0  0  0  0  0
  187.0280  177.6140  144.8680 C   0  0  0  0  0  0  0  0  0  0  0  0
  186.3630  176.8900  143.9690 C   0  0  0  0  0  2  0  0  0  0  0  0
  186.2840  178.1470  146.0350 C   0  0  0  0  0  0  0  0  0  0  0  0
  185.2830  179.1470  145.8570 N   0  0  0  0  0  1  0  0  0  0  0  0
  186.5100  177.7130  147.1950 O   0  0  0  0  0  0  0  0  0  0  0  0
  188.9450  177.6290  141.3220 C   0  0  0  0  0  2  0  0  0  0  0  0
  189.2250  178.4500  138.9300 C   0  0  0  0  0  0  0  0  0  0  0  0
  189.0780  178.6920  140.3310 N   0  0  0  0  0  2  0  0  0  0  0  0
  188.9820  179.3870  138.1250 O   0  0  0  0  0  0  0  0  0  0  0  0
  189.6360  177.1340  138.4000 C   0  0  0  0  0  0  0  0  0  0  0  0
  190.3670  174.6440  137.3320 C   0  0  0  0  0  3  0  0  0  0  0  0
  190.9260  176.6150  138.6280 C   0  0  0  0  0  0  0  0  0  0  0  0
  191.2830  175.3720  138.0960 C   0  0  0  0  0  3  0  0  0  0  0  0
  189.0940  175.1620  137.0880 C   0  0  0  0  0  3  0  0  0  0  0  0
  191.8550  177.3260  139.3150 F   0  0  0  0  0  0  0  0  0  0  0  0
  188.7330  176.4040  137.6150 C   0  0  0  0  0  3  0  0  0  0  0  0
  2  6  1  0  0  0  0
  3  1  1  1  0  0  0
  4  9  1  0  0  0  0
  5  4  1  0  0  0  0
  6 10  1  0  0  0  0
  6  3  1  0  0  0  0
  7  4  1  0  0  0  0
  8 15  1  6  0  0  0
  8  4  1  0  0  0  0
  8  2  1  0  0  0  0
  9  3  1  0  0  0  0
 10 12  1  0  0  0  0
 11 10  2  0  0  0  0
 12 14  2  0  0  0  0
 13 12  1  0  0  0  0
 16 17  1  0  0  0  0
 17 15  1  0  0  0  0
 18 16  2  0  0  0  0
 19 21  1  0  0  0  0
 19 16  1  0  0  0  0
 20 22  1  0  0  0  0
 21 24  1  0  0  0  0
 22 21  2  0  0  0  0
 23 20  2  0  0  0  0
 23 25  1  0  0  0  0
 25 19  2  0  0  0  0
M  END
>  <MODEL>
8

>  <REMARK>
 VINA RESULT:      -7.7      2.905      6.910
  Name = 
  5 active torsions:
  status: ('A' for Active; 'I' for Inactive)
    1  A    between atoms: C_1  and  C_5
    2  A    between atoms: C_2  and  C_21
    3  A    between atoms: N_3  and  C_16
    4  A    between atoms: N_15  and  C_21
    5  A    between atoms: C_16  and  C_23
                            x       y       z     vdW  Elec       q    Type
                         _______ _______ _______ _____ _____    ______ ____

>  <TORSDO>
F 5

$$$$
=
 OpenBabel10272400453D

 25 26  0  0  1  0  0  0  0  0999 V2000
  182.6720  178.0370  135.9140 C   0  0  0  0  0  1  0  0  0  0  0  0
  184.0570  178.9950  138.9220 C   0  0  0  0  0  2  0  0  0  0  0  0
  182.8930  177.4580  137.2980 C   0  0  1  0  0  3  0  0  0  0  0  0
  182.0100  177.5740  139.6730 C   0  0  0  0  0  0  0  0  0  0  0  0
  182.2790  176.0960  139.9380 C   0  0  0  0  0  1  0  0  0  0  0  0
  184.1430  177.9780  137.8750 N   0  0  0  0  0  0  0  0  0  0  0  0
  180.7920  177.9770  140.4780 C   0  0  0  0  0  1  0  0  0  0  0  0
  183.1920  178.4950  140.0850 C   0  0  1  0  0  3  0  0  0  0  0  0
  181.6800  177.7590  138.1880 C   0  0  0  0  0  2  0  0  0  0  0  0
  185.4120  177.3640  137.5520 C   0  0  0  0  0  0  0  0  0  0  0  0
  185.4460  176.1120  137.1010 C   0  0  0  0  0  2  0  0  0  0  0  0
  186.6950  178.0890  137.7220 C   0  0  0  0  0  0  0  0  0  0  0  0
  187.0590  179.1320  136.8200 N   0  0  0  0  0  1  0  0  0  0  0  0
  187.4710  177.8090  138.6730 O   0  0  0  0  0  0  0  0  0  0  0  0
  184.0310  178.0360  141.2800 C   0  0  0  0  0  2  0  0  0  0  0  0
  186.3560  178.4620  142.2230 C   0  0  0  0  0  0  0  0  0  0  0  0
  185.4160  178.4730  141.1450 N   0  0  0  0  0  2  0  0  0  0  0  0
  187.5850  178.5110  141.9550 O   0  0  0  0  0  0  0  0  0  0  0  0
  185.9290  178.3780  143.6330 C   0  0  0  0  0  0  0  0  0  0  0  0
  185.0410  178.2320  146.2920 C   0  0  0  0  0  3  0  0  0  0  0  0
  186.6110  177.5730  144.5670 C   0  0  0  0  0  0  0  0  0  0  0  0
  186.1660  177.5070  145.8910 C   0  0  0  0  0  3  0  0  0  0  0  0
  184.3500  179.0160  145.3670 C   0  0  0  0  0  3  0  0  0  0  0  0
  187.6690  176.8120  144.1930 F   0  0  0  0  0  0  0  0  0  0  0  0
  184.7880  179.0840  144.0430 C   0  0  0  0  0  3  0  0  0  0  0  0
  2  8  1  0  0  0  0
  3  1  1  6  0  0  0
  3  6  1  0  0  0  0
  3  9  1  0  0  0  0
  4  5  1  0  0  0  0
  4  8  1  0  0  0  0
  4  7  1  0  0  0  0
  6  2  1  0  0  0  0
  8 15  1  1  0  0  0
  9  4  1  0  0  0  0
 10 12  1  0  0  0  0
 10  6  1  0  0  0  0
 11 10  2  0  0  0  0
 12 14  2  0  0  0  0
 13 12  1  0  0  0  0
 16 19  1  0  0  0  0
 17 15  1  0  0  0  0
 17 16  1  0  0  0  0
 18 16  2  0  0  0  0
 19 25  2  0  0  0  0
 19 21  1  0  0  0  0
 21 22  2  0  0  0  0
 22 20  1  0  0  0  0
 23 20  2  0  0  0  0
 24 21  1  0  0  0  0
 25 23  1  0  0  0  0
M  END
>  <MODEL>
9

>  <REMARK>
 VINA RESULT:      -7.6      3.955      6.416
  Name = 
  5 active torsions:
  status: ('A' for Active; 'I' for Inactive)
    1  A    between atoms: C_1  and  C_5
    2  A    between atoms: C_2  and  C_21
    3  A    between atoms: N_3  and  C_16
    4  A    between atoms: N_15  and  C_21
    5  A    between atoms: C_16  and  C_23
                            x       y       z     vdW  Elec       q    Type
                         _______ _______ _______ _____ _____    ______ ____

>  <TORSDO>
F 5

$$$$
