=
 OpenBabel10272401523D

 28 34  0  0  1  0  0  0  0  0999 V2000
  188.8750  177.1530  145.5060 C   0  0  2  0  0  3  0  0  0  0  0  0
  189.0280  176.5100  144.1110 C   0  0  1  0  0  3  0  0  0  0  0  0
  187.0370  177.5900  143.2850 C   0  0  2  0  0  3  0  0  0  0  0  0
  183.0870  179.2330  144.0410 C   0  0  0  0  0  2  0  0  0  0  0  0
  189.1590  179.2070  148.1500 C   0  0  0  0  0  1  0  0  0  0  0  0
  191.2620  176.9600  142.8170 C   0  0  1  0  0  3  0  0  0  0  0  0
  188.4660  177.3350  143.0340 N   0  0  1  0  0  0  0  0  0  0  0  0
  191.5300  177.0460  144.3030 C   0  0  0  0  0  2  0  0  0  0  0  0
  184.1270  177.9030  141.3950 C   0  0  0  0  0  2  0  0  0  0  0  0
  185.4320  178.8590  144.9030 C   0  0  2  0  0  3  0  0  0  0  0  0
  190.4770  176.0640  143.7970 C   0  0  1  0  0  3  0  0  0  0  0  0
  181.8780  178.8990  141.8780 C   0  0  0  0  0  0  0  0  0  0  0  0
  184.4020  178.4840  143.8250 C   0  0  2  0  0  3  0  0  0  0  0  0
  186.4210  178.4710  142.1960 C   0  0  0  0  0  2  0  0  0  0  0  0
  182.8580  178.6090  141.0110 C   0  0  0  0  0  3  0  0  0  0  0  0
  187.2090  178.2410  147.0410 N   0  0  0  0  0  0  0  0  0  0  0  0
  186.7450  178.1380  144.6650 C   0  0  0  0  0  0  0  0  0  0  0  0
  184.9220  178.7310  142.3930 C   0  0  1  0  0  3  0  0  0  0  0  0
  188.9360  176.7200  148.0140 C   0  0  0  0  0  2  0  0  0  0  0  0
  185.9370  178.8970  147.3400 C   0  0  0  0  0  2  0  0  0  0  0  0
  188.1710  178.0540  148.1280 C   0  0  1  0  0  3  0  0  0  0  0  0
  190.5920  178.2550  142.3160 C   0  0  0  0  0  2  0  0  0  0  0  0
  180.7690  179.5360  141.4200 F   0  0  0  0  0  0  0  0  0  0  0  0
  181.9420  178.5230  143.3300 C   0  0  0  0  0  2  0  0  0  0  0  0
  184.8920  178.5280  146.2960 C   0  0  0  0  0  2  0  0  0  0  0  0
  188.9870  176.1030  146.6060 C   0  0  0  0  0  2  0  0  0  0  0  0
  187.5740  177.8810  145.6940 C   0  0  0  0  0  0  0  0  0  0  0  0
  189.2410  178.5690  142.9440 C   0  0  0  0  0  2  0  0  0  0  0  0
  1 27  1  0  0  0  0
  1 26  1  1  0  0  0
  2  1  1  0  0  0  0
  3 17  1  0  0  0  0
  6 11  1  0  0  0  0
  6  8  1  0  0  0  0
  7  3  1  0  0  0  0
  7  2  1  0  0  0  0
  9 18  1  0  0  0  0
 10 25  1  0  0  0  0
 11  2  1  0  0  0  0
 11  8  1  0  0  0  0
 12 24  1  0  0  0  0
 13  4  1  0  0  0  0
 13 10  1  0  0  0  0
 14 18  1  0  0  0  0
 14  3  1  0  0  0  0
 15  9  1  0  0  0  0
 15 12  2  0  0  0  0
 16 20  1  0  0  0  0
 16 21  1  0  0  0  0
 17 10  1  0  0  0  0
 17 27  2  0  0  0  0
 18 13  1  0  0  0  0
 19 21  1  0  0  0  0
 21  5  1  0  0  0  0
 22  6  1  0  0  0  0
 22 28  1  0  0  0  0
 23 12  1  0  0  0  0
 24  4  1  0  0  0  0
 25 20  1  0  0  0  0
 26 19  1  0  0  0  0
 27 16  1  0  0  0  0
 28  7  1  0  0  0  0
M  END
>  <MODEL>
1

>  <REMARK>
 VINA RESULT:      -8.9      0.000      0.000
  Name = 
  0 active torsions:
  status: ('A' for Active; 'I' for Inactive)
                            x       y       z     vdW  Elec       q    Type
                         _______ _______ _______ _____ _____    ______ ____

>  <TORSDO>
F 0

$$$$
=
 OpenBabel10272401523D

 28 34  0  0  1  0  0  0  0  0999 V2000
  189.7770  177.0260  142.1250 C   0  0  2  0  0  3  0  0  0  0  0  0
  189.0890  176.6510  140.7960 C   0  0  1  0  0  3  0  0  0  0  0  0
  187.0430  177.7600  141.4270 C   0  0  2  0  0  3  0  0  0  0  0  0
  184.2900  179.0410  144.5320 C   0  0  0  0  0  2  0  0  0  0  0  0
  191.6070  178.5880  144.4710 C   0  0  0  0  0  1  0  0  0  0  0  0
  190.2440  177.4350  138.5780 C   0  0  1  0  0  3  0  0  0  0  0  0
  188.0710  177.6250  140.3810 N   0  0  1  0  0  0  0  0  0  0  0  0
  191.2990  177.2680  139.6480 C   0  0  0  0  0  2  0  0  0  0  0  0
  183.5970  178.2580  141.5730 C   0  0  0  0  0  2  0  0  0  0  0  0
  186.6900  178.6370  143.8570 C   0  0  2  0  0  3  0  0  0  0  0  0
  190.0870  176.3400  139.6540 C   0  0  1  0  0  3  0  0  0  0  0  0
  182.0620  179.0380  143.3950 C   0  0  0  0  0  0  0  0  0  0  0  0
  185.2140  178.4100  143.4930 C   0  0  2  0  0  3  0  0  0  0  0  0
  185.9770  178.7880  141.0420 C   0  0  0  0  0  2  0  0  0  0  0  0
  182.3750  178.9570  142.0940 C   0  0  0  0  0  3  0  0  0  0  0  0
  189.3170  177.7390  144.4910 N   0  0  0  0  0  0  0  0  0  0  0  0
  187.6020  178.0370  142.8050 C   0  0  0  0  0  0  0  0  0  0  0  0
  184.8610  178.9340  142.0840 C   0  0  1  0  0  3  0  0  0  0  0  0
  191.2000  176.1570  144.0490 C   0  0  0  0  0  2  0  0  0  0  0  0
  188.4690  178.2660  145.5580 C   0  0  0  0  0  2  0  0  0  0  0  0
  190.7080  177.4090  144.8020 C   0  0  1  0  0  3  0  0  0  0  0  0
  189.4860  178.7630  138.7740 C   0  0  0  0  0  2  0  0  0  0  0  0
  180.9270  179.6910  143.7550 F   0  0  0  0  0  0  0  0  0  0  0  0
  182.9030  178.4130  144.4710 C   0  0  0  0  0  2  0  0  0  0  0  0
  187.0000  178.0370  145.2300 C   0  0  0  0  0  2  0  0  0  0  0  0
  190.4210  175.8040  142.7710 C   0  0  0  0  0  2  0  0  0  0  0  0
  188.8470  177.6430  143.1320 C   0  0  0  0  0  0  0  0  0  0  0  0
  188.7360  178.8920  140.0920 C   0  0  0  0  0  2  0  0  0  0  0  0
  1 26  1  1  0  0  0
  1 27  1  0  0  0  0
  2  1  1  0  0  0  0
  3 17  1  0  0  0  0
  5 21  1  0  0  0  0
  6 22  1  0  0  0  0
  6  8  1  0  0  0  0
  6 11  1  0  0  0  0
  7  2  1  0  0  0  0
  7  3  1  0  0  0  0
  8 11  1  0  0  0  0
  9 18  1  0  0  0  0
  9 15  1  0  0  0  0
 10 25  1  0  0  0  0
 11  2  1  0  0  0  0
 12 23  1  0  0  0  0
 12 24  1  0  0  0  0
 13 10  1  0  0  0  0
 13  4  1  0  0  0  0
 14  3  1  0  0  0  0
 14 18  1  0  0  0  0
 15 12  2  0  0  0  0
 16 21  1  0  0  0  0
 16 20  1  0  0  0  0
 17 27  2  0  0  0  0
 17 10  1  0  0  0  0
 18 13  1  0  0  0  0
 19 21  1  0  0  0  0
 22 28  1  0  0  0  0
 24  4  1  0  0  0  0
 25 20  1  0  0  0  0
 26 19  1  0  0  0  0
 27 16  1  0  0  0  0
 28  7  1  0  0  0  0
M  END
>  <MODEL>
2

>  <REMARK>
 VINA RESULT:      -8.3      1.871      2.984
  Name = 
  0 active torsions:
  status: ('A' for Active; 'I' for Inactive)
                            x       y       z     vdW  Elec       q    Type
                         _______ _______ _______ _____ _____    ______ ____

>  <TORSDO>
F 0

$$$$
=
 OpenBabel10272401523D

 28 34  0  0  1  0  0  0  0  0999 V2000
  187.7220  177.6040  144.4320 C   0  0  2  0  0  3  0  0  0  0  0  0
  188.9810  176.8850  143.9030 C   0  0  1  0  0  3  0  0  0  0  0  0
  188.5310  177.5540  141.6310 C   0  0  2  0  0  3  0  0  0  0  0  0
  185.6620  178.5830  138.5350 C   0  0  0  0  0  2  0  0  0  0  0  0
  185.6360  179.8840  145.7510 C   0  0  0  0  0  1  0  0  0  0  0  0
  191.2890  177.5890  144.9260 C   0  0  1  0  0  3  0  0  0  0  0  0
  189.5410  177.5170  142.7020 N   0  0  1  0  0  0  0  0  0  0  0  0
  190.2030  177.8370  145.9480 C   0  0  0  0  0  2  0  0  0  0  0  0
  188.4690  177.2320  138.1620 C   0  0  0  0  0  2  0  0  0  0  0  0
  186.2620  178.6690  140.9880 C   0  0  2  0  0  3  0  0  0  0  0  0
  190.0600  176.6580  144.9900 C   0  0  1  0  0  3  0  0  0  0  0  0
  186.7910  177.8820  136.4170 C   0  0  0  0  0  0  0  0  0  0  0  0
  186.5920  178.0450  139.6220 C   0  0  2  0  0  3  0  0  0  0  0  0
  189.0690  178.2310  140.3690 C   0  0  0  0  0  2  0  0  0  0  0  0
  188.0640  177.6880  136.7900 C   0  0  0  0  0  3  0  0  0  0  0  0
  185.4930  178.5260  143.7260 N   0  0  0  0  0  0  0  0  0  0  0  0
  187.2090  178.1560  142.0550 C   0  0  0  0  0  0  0  0  0  0  0  0
  188.0640  178.2580  139.2110 C   0  0  1  0  0  3  0  0  0  0  0  0
  185.6850  177.3920  145.9450 C   0  0  0  0  0  2  0  0  0  0  0  0
  184.5200  178.9860  142.7370 C   0  0  0  0  0  2  0  0  0  0  0  0
  185.1320  178.5870  145.1430 C   0  0  1  0  0  3  0  0  0  0  0  0
  191.2990  178.7120  143.8690 C   0  0  0  0  0  2  0  0  0  0  0  0
  186.5370  178.2910  135.1470 F   0  0  0  0  0  0  0  0  0  0  0  0
  185.6310  177.6410  137.3390 C   0  0  0  0  0  2  0  0  0  0  0  0
  184.8130  178.3680  141.3770 C   0  0  0  0  0  2  0  0  0  0  0  0
  186.8970  176.6790  145.3200 C   0  0  0  0  0  2  0  0  0  0  0  0
  186.8230  178.1220  143.3450 C   0  0  0  0  0  0  0  0  0  0  0  0
  190.0170  178.8500  143.0600 C   0  0  0  0  0  2  0  0  0  0  0  0
  1 26  1  6  0  0  0
  2  1  1  0  0  0  0
  2 11  1  0  0  0  0
  3 17  1  0  0  0  0
  3  7  1  0  0  0  0
  4 13  1  0  0  0  0
  6 11  1  0  0  0  0
  6  8  1  0  0  0  0
  7 28  1  0  0  0  0
  7  2  1  0  0  0  0
  9 18  1  0  0  0  0
 10 25  1  0  0  0  0
 10 17  1  0  0  0  0
 11  8  1  0  0  0  0
 12 15  2  0  0  0  0
 12 24  1  0  0  0  0
 13 10  1  0  0  0  0
 14  3  1  0  0  0  0
 15  9  1  0  0  0  0
 16 21  1  0  0  0  0
 17 27  2  0  0  0  0
 18 13  1  0  0  0  0
 18 14  1  0  0  0  0
 20 16  1  0  0  0  0
 21  5  1  0  0  0  0
 21 19  1  0  0  0  0
 22  6  1  0  0  0  0
 23 12  1  0  0  0  0
 24  4  1  0  0  0  0
 25 20  1  0  0  0  0
 26 19  1  0  0  0  0
 27 16  1  0  0  0  0
 27  1  1  0  0  0  0
 28 22  1  0  0  0  0
M  END
>  <MODEL>
3

>  <REMARK>
 VINA RESULT:      -8.3      2.989      4.309
  Name = 
  0 active torsions:
  status: ('A' for Active; 'I' for Inactive)
                            x       y       z     vdW  Elec       q    Type
                         _______ _______ _______ _____ _____    ______ ____

>  <TORSDO>
F 0

$$$$
=
 OpenBabel10272401523D

 28 34  0  0  1  0  0  0  0  0999 V2000
  187.5570  177.7230  143.7590 C   0  0  2  0  0  3  0  0  0  0  0  0
  188.8100  176.8280  143.8640 C   0  0  1  0  0  3  0  0  0  0  0  0
  189.3570  177.1490  141.5380 C   0  0  2  0  0  3  0  0  0  0  0  0
  188.0560  177.8830  137.4590 C   0  0  0  0  0  2  0  0  0  0  0  0
  185.4620  180.3480  143.8580 C   0  0  0  0  0  1  0  0  0  0  0  0
  190.6280  177.5030  145.6280 C   0  0  1  0  0  3  0  0  0  0  0  0
  189.8680  177.2070  142.9180 N   0  0  1  0  0  0  0  0  0  0  0  0
  189.2800  178.0020  146.0970 C   0  0  0  0  0  2  0  0  0  0  0  0
  190.5780  176.2680  138.3950 C   0  0  0  0  0  2  0  0  0  0  0  0
  187.6820  178.3210  139.9180 C   0  0  2  0  0  3  0  0  0  0  0  0
  189.3510  176.6970  145.3090 C   0  0  1  0  0  3  0  0  0  0  0  0
  189.7980  176.7560  136.0640 C   0  0  0  0  0  0  0  0  0  0  0  0
  188.4170  177.4580  138.8810 C   0  0  2  0  0  3  0  0  0  0  0  0
  190.4240  177.5650  140.5220 C   0  0  0  0  0  2  0  0  0  0  0  0
  190.7930  176.5240  136.9320 C   0  0  0  0  0  3  0  0  0  0  0  0
  185.9160  178.6920  142.1210 N   0  0  0  0  0  0  0  0  0  0  0  0
  188.0700  177.9170  141.3270 C   0  0  0  0  0  0  0  0  0  0  0  0
  189.9490  177.4810  139.0660 C   0  0  1  0  0  3  0  0  0  0  0  0
  185.0900  177.9250  144.3520 C   0  0  0  0  0  2  0  0  0  0  0  0
  185.4660  179.0600  140.7800 C   0  0  0  0  0  2  0  0  0  0  0  0
  185.0540  179.0130  143.2590 C   0  0  1  0  0  3  0  0  0  0  0  0
  191.1950  178.4330  144.5360 C   0  0  0  0  0  2  0  0  0  0  0  0
  190.1070  176.9690  134.7580 F   0  0  0  0  0  0  0  0  0  0  0  0
  188.3530  176.7630  136.4700 C   0  0  0  0  0  2  0  0  0  0  0  0
  186.1670  178.2060  139.7320 C   0  0  0  0  0  2  0  0  0  0  0  0
  186.3370  177.0250  144.3500 C   0  0  0  0  0  2  0  0  0  0  0  0
  187.2210  178.1260  142.3510 C   0  0  0  0  0  0  0  0  0  0  0  0
  190.3500  178.5380  143.2740 C   0  0  0  0  0  2  0  0  0  0  0  0
  1  2  1  0  0  0  0
  1 26  1  6  0  0  0
  2 11  1  0  0  0  0
  3  7  1  0  0  0  0
  4 13  1  0  0  0  0
  6  8  1  0  0  0  0
  7 28  1  0  0  0  0
  7  2  1  0  0  0  0
  9 18  1  0  0  0  0
 10 17  1  0  0  0  0
 11  6  1  0  0  0  0
 11  8  1  0  0  0  0
 12 24  1  0  0  0  0
 12 15  2  0  0  0  0
 13 18  1  0  0  0  0
 13 10  1  0  0  0  0
 14  3  1  0  0  0  0
 15  9  1  0  0  0  0
 16 27  1  0  0  0  0
 16 21  1  0  0  0  0
 17  3  1  0  0  0  0
 17 27  2  0  0  0  0
 18 14  1  0  0  0  0
 20 16  1  0  0  0  0
 21  5  1  0  0  0  0
 21 19  1  0  0  0  0
 22  6  1  0  0  0  0
 23 12  1  0  0  0  0
 24  4  1  0  0  0  0
 25 10  1  0  0  0  0
 25 20  1  0  0  0  0
 26 19  1  0  0  0  0
 27  1  1  0  0  0  0
 28 22  1  0  0  0  0
M  END
>  <MODEL>
4

>  <REMARK>
 VINA RESULT:      -8.3      3.674      5.856
  Name = 
  0 active torsions:
  status: ('A' for Active; 'I' for Inactive)
                            x       y       z     vdW  Elec       q    Type
                         _______ _______ _______ _____ _____    ______ ____

>  <TORSDO>
F 0

$$$$
=
 OpenBabel10272401523D

 28 34  0  0  1  0  0  0  0  0999 V2000
  189.6420  178.0300  145.0570 C   0  0  2  0  0  3  0  0  0  0  0  0
  188.9050  178.6850  146.2430 C   0  0  1  0  0  3  0  0  0  0  0  0
  186.7540  178.4030  145.1920 C   0  0  2  0  0  3  0  0  0  0  0  0
  184.3690  178.1350  141.5710 C   0  0  0  0  0  2  0  0  0  0  0  0
  191.1630  175.8080  143.0460 C   0  0  0  0  0  1  0  0  0  0  0  0
  189.2340  177.6070  148.6100 C   0  0  1  0  0  3  0  0  0  0  0  0
  187.5370  178.1810  146.4190 N   0  0  1  0  0  0  0  0  0  0  0  0
  190.4580  177.3260  147.7680 C   0  0  0  0  0  2  0  0  0  0  0  0
  183.4700  179.2310  144.3710 C   0  0  0  0  0  2  0  0  0  0  0  0
  186.5680  177.6330  142.7070 C   0  0  2  0  0  3  0  0  0  0  0  0
  189.7090  178.6400  147.5660 C   0  0  1  0  0  3  0  0  0  0  0  0
  182.1330  179.0170  142.2610 C   0  0  0  0  0  0  0  0  0  0  0  0
  185.2460  178.4110  142.7910 C   0  0  2  0  0  3  0  0  0  0  0  0
  185.3270  177.8650  145.3270 C   0  0  0  0  0  2  0  0  0  0  0  0
  182.1980  179.0240  143.6000 C   0  0  0  0  0  3  0  0  0  0  0  0
  189.4090  177.4540  142.6220 N   0  0  0  0  0  0  0  0  0  0  0  0
  187.4200  177.8850  143.9360 C   0  0  0  0  0  0  0  0  0  0  0  0
  184.4600  178.1110  144.0850 C   0  0  1  0  0  3  0  0  0  0  0  0
  191.6270  178.2280  143.4750 C   0  0  0  0  0  2  0  0  0  0  0  0
  188.6460  177.2450  141.3930 C   0  0  0  0  0  2  0  0  0  0  0  0
  190.8540  177.2250  142.5950 C   0  0  1  0  0  3  0  0  0  0  0  0
  188.0850  176.6550  148.2230 C   0  0  0  0  0  2  0  0  0  0  0  0
  180.9270  178.8260  141.6670 F   0  0  0  0  0  0  0  0  0  0  0  0
  183.3360  179.2400  141.3900 C   0  0  0  0  0  2  0  0  0  0  0  0
  187.3370  178.0200  141.4420 C   0  0  0  0  0  2  0  0  0  0  0  0
  190.8090  178.8950  144.5930 C   0  0  0  0  0  2  0  0  0  0  0  0
  188.7590  177.7700  143.8690 C   0  0  0  0  0  0  0  0  0  0  0  0
  187.6080  176.7680  146.7810 C   0  0  0  0  0  2  0  0  0  0  0  0
  1 26  1  6  0  0  0
  1  2  1  0  0  0  0
  2  7  1  0  0  0  0
  2 11  1  0  0  0  0
  3 14  1  0  0  0  0
  3  7  1  0  0  0  0
  4 13  1  0  0  0  0
  7 28  1  0  0  0  0
  8  6  1  0  0  0  0
 10 13  1  0  0  0  0
 10 17  1  0  0  0  0
 11  8  1  0  0  0  0
 11  6  1  0  0  0  0
 12 15  2  0  0  0  0
 13 18  1  0  0  0  0
 15  9  1  0  0  0  0
 16 27  1  0  0  0  0
 17  3  1  0  0  0  0
 18  9  1  0  0  0  0
 18 14  1  0  0  0  0
 19 26  1  0  0  0  0
 20 25  1  0  0  0  0
 20 16  1  0  0  0  0
 21 16  1  0  0  0  0
 21  5  1  0  0  0  0
 21 19  1  0  0  0  0
 22  6  1  0  0  0  0
 23 12  1  0  0  0  0
 24  4  1  0  0  0  0
 24 12  1  0  0  0  0
 25 10  1  0  0  0  0
 27 17  2  0  0  0  0
 27  1  1  0  0  0  0
 28 22  1  0  0  0  0
M  END
>  <MODEL>
5

>  <REMARK>
 VINA RESULT:      -7.7      1.118      4.033
  Name = 
  0 active torsions:
  status: ('A' for Active; 'I' for Inactive)
                            x       y       z     vdW  Elec       q    Type
                         _______ _______ _______ _____ _____    ______ ____

>  <TORSDO>
F 0

$$$$
=
 OpenBabel10272401523D

 28 34  0  0  1  0  0  0  0  0999 V2000
  184.7380  177.7050  137.9790 C   0  0  2  0  0  3  0  0  0  0  0  0
  183.3050  177.4430  138.4900 C   0  0  1  0  0  3  0  0  0  0  0  0
  183.8420  178.2360  140.7020 C   0  0  2  0  0  3  0  0  0  0  0  0
  186.7640  178.7900  143.8680 C   0  0  0  0  0  2  0  0  0  0  0  0
  187.4440  179.1180  136.5760 C   0  0  0  0  0  1  0  0  0  0  0  0
  181.3400  178.6380  137.2310 C   0  0  1  0  0  3  0  0  0  0  0  0
  182.9060  178.3530  139.5720 N   0  0  1  0  0  0  0  0  0  0  0  0
  182.4900  178.4380  136.2700 C   0  0  0  0  0  2  0  0  0  0  0  0
  183.6730  178.3470  144.1810 C   0  0  0  0  0  2  0  0  0  0  0  0
  186.3090  178.7350  141.3840 C   0  0  2  0  0  3  0  0  0  0  0  0
  182.2490  177.3970  137.3580 C   0  0  1  0  0  3  0  0  0  0  0  0
  185.4000  178.7080  145.9620 C   0  0  0  0  0  0  0  0  0  0  0  0
  185.7610  178.4060  142.7820 C   0  0  2  0  0  3  0  0  0  0  0  0
  183.4740  179.1900  141.8410 C   0  0  0  0  0  2  0  0  0  0  0  0
  184.1410  178.8370  145.5210 C   0  0  0  0  0  3  0  0  0  0  0  0
  187.1090  178.0380  138.7410 N   0  0  0  0  0  0  0  0  0  0  0  0
  185.2960  178.3820  140.3130 C   0  0  0  0  0  0  0  0  0  0  0  0
  184.3990  179.0760  143.0600 C   0  0  1  0  0  3  0  0  0  0  0  0
  186.6820  176.7370  136.6510 C   0  0  0  0  0  2  0  0  0  0  0  0
  188.1350  178.3250  139.7420 C   0  0  0  0  0  2  0  0  0  0  0  0
  187.5270  177.8170  137.3560 C   0  0  1  0  0  3  0  0  0  0  0  0
  181.6160  179.8400  138.1560 C   0  0  0  0  0  2  0  0  0  0  0  0
  185.7120  179.1840  147.1950 F   0  0  0  0  0  0  0  0  0  0  0  0
  186.4750  178.0350  145.1590 C   0  0  0  0  0  2  0  0  0  0  0  0
  187.6230  177.9900  141.1370 C   0  0  0  0  0  2  0  0  0  0  0  0
  185.2930  176.4810  137.2590 C   0  0  0  0  0  2  0  0  0  0  0  0
  185.7050  178.0790  139.0660 C   0  0  0  0  0  0  0  0  0  0  0  0
  182.8500  179.7100  139.0370 C   0  0  0  0  0  2  0  0  0  0  0  0
  1 26  1  1  0  0  0
  1  2  1  0  0  0  0
  1 27  1  0  0  0  0
  2  7  1  0  0  0  0
  3 14  1  0  0  0  0
  4 24  1  0  0  0  0
  5 21  1  0  0  0  0
  6 11  1  0  0  0  0
  6 22  1  0  0  0  0
  7  3  1  0  0  0  0
  8  6  1  0  0  0  0
  8 11  1  0  0  0  0
  9 15  1  0  0  0  0
 10 13  1  0  0  0  0
 11  2  1  0  0  0  0
 12 23  1  0  0  0  0
 13 18  1  0  0  0  0
 13  4  1  0  0  0  0
 14 18  1  0  0  0  0
 15 12  2  0  0  0  0
 16 27  1  0  0  0  0
 16 20  1  0  0  0  0
 17  3  1  0  0  0  0
 17 10  1  0  0  0  0
 18  9  1  0  0  0  0
 19 26  1  0  0  0  0
 19 21  1  0  0  0  0
 20 25  1  0  0  0  0
 21 16  1  0  0  0  0
 22 28  1  0  0  0  0
 24 12  1  0  0  0  0
 25 10  1  0  0  0  0
 27 17  2  0  0  0  0
 28  7  1  0  0  0  0
M  END
>  <MODEL>
6

>  <REMARK>
 VINA RESULT:      -7.2      3.551      7.688
  Name = 
  0 active torsions:
  status: ('A' for Active; 'I' for Inactive)
                            x       y       z     vdW  Elec       q    Type
                         _______ _______ _______ _____ _____    ______ ____

>  <TORSDO>
F 0

$$$$
=
 OpenBabel10272401523D

 28 34  0  0  1  0  0  0  0  0999 V2000
  187.4960  177.6540  145.0360 C   0  0  2  0  0  3  0  0  0  0  0  0
  188.3490  176.9570  143.9550 C   0  0  1  0  0  3  0  0  0  0  0  0
  186.9570  177.7940  142.1740 C   0  0  2  0  0  3  0  0  0  0  0  0
  183.0530  179.0840  140.7710 C   0  0  0  0  0  2  0  0  0  0  0  0
  186.3300  179.8630  147.2830 C   0  0  0  0  0  1  0  0  0  0  0  0
  190.9000  177.5530  143.8650 C   0  0  1  0  0  3  0  0  0  0  0  0
  188.3380  177.6660  142.6690 N   0  0  1  0  0  0  0  0  0  0  0  0
  190.4020  177.7420  145.2800 C   0  0  0  0  0  2  0  0  0  0  0  0
  185.3290  177.7230  139.0930 C   0  0  0  0  0  2  0  0  0  0  0  0
  184.6940  178.9840  142.6890 C   0  0  2  0  0  3  0  0  0  0  0  0
  189.7900  176.6370  144.4230 C   0  0  1  0  0  3  0  0  0  0  0  0
  183.0770  178.5210  138.3350 C   0  0  0  0  0  0  0  0  0  0  0  0
  184.3460  178.4560  141.2880 C   0  0  2  0  0  3  0  0  0  0  0  0
  186.9010  178.5530  140.8450 C   0  0  0  0  0  2  0  0  0  0  0  0
  184.3710  178.2820  138.0810 C   0  0  0  0  0  3  0  0  0  0  0  0
  185.2310  178.6560  145.4660 N   0  0  0  0  0  0  0  0  0  0  0  0
  185.9950  178.3830  143.1830 C   0  0  0  0  0  0  0  0  0  0  0  0
  185.4840  178.6760  140.2700 C   0  0  1  0  0  3  0  0  0  0  0  0
  186.3490  177.3620  147.2900 C   0  0  0  0  0  2  0  0  0  0  0  0
  183.9400  179.2000  145.0520 C   0  0  0  0  0  2  0  0  0  0  0  0
  185.5480  178.6200  146.8940 C   0  0  1  0  0  3  0  0  0  0  0  0
  190.4850  178.7480  142.9840 C   0  0  0  0  0  2  0  0  0  0  0  0
  182.2980  179.0230  137.3420 F   0  0  0  0  0  0  0  0  0  0  0  0
  182.4450  178.2300  139.6660 C   0  0  0  0  0  2  0  0  0  0  0  0
  183.5620  178.6770  143.6720 C   0  0  0  0  0  2  0  0  0  0  0  0
  187.1170  176.6800  146.1450 C   0  0  0  0  0  2  0  0  0  0  0  0
  186.2290  178.2620  144.5030 C   0  0  0  0  0  0  0  0  0  0  0  0
  188.9830  178.9630  142.8500 C   0  0  0  0  0  2  0  0  0  0  0  0
  1 26  1  1  0  0  0
  2 11  1  0  0  0  0
  2  1  1  0  0  0  0
  3  7  1  0  0  0  0
  3 17  1  0  0  0  0
  4 13  1  0  0  0  0
  6 11  1  0  0  0  0
  6  8  1  0  0  0  0
  7 28  1  0  0  0  0
  7  2  1  0  0  0  0
  9 18  1  0  0  0  0
 10 17  1  0  0  0  0
 10 25  1  0  0  0  0
 11  8  1  0  0  0  0
 12 24  1  0  0  0  0
 13 10  1  0  0  0  0
 14  3  1  0  0  0  0
 15 12  2  0  0  0  0
 15  9  1  0  0  0  0
 16 21  1  0  0  0  0
 17 27  2  0  0  0  0
 18 14  1  0  0  0  0
 18 13  1  0  0  0  0
 20 16  1  0  0  0  0
 21  5  1  0  0  0  0
 21 19  1  0  0  0  0
 22  6  1  0  0  0  0
 23 12  1  0  0  0  0
 24  4  1  0  0  0  0
 25 20  1  0  0  0  0
 26 19  1  0  0  0  0
 27  1  1  0  0  0  0
 27 16  1  0  0  0  0
 28 22  1  0  0  0  0
M  END
>  <MODEL>
7

>  <REMARK>
 VINA RESULT:      -7.1      1.655      2.433
  Name = 
  0 active torsions:
  status: ('A' for Active; 'I' for Inactive)
                            x       y       z     vdW  Elec       q    Type
                         _______ _______ _______ _____ _____    ______ ____

>  <TORSDO>
F 0

$$$$
=
 OpenBabel10272401523D

 28 34  0  0  1  0  0  0  0  0999 V2000
  189.3130  175.5600  136.0950 C   0  0  2  0  0  3  0  0  0  0  0  0
  187.8940  175.5480  136.7010 C   0  0  1  0  0  3  0  0  0  0  0  0
  188.6300  176.6730  138.7020 C   0  0  2  0  0  3  0  0  0  0  0  0
  191.7690  177.4910  141.5910 C   0  0  0  0  0  2  0  0  0  0  0  0
  192.0560  176.4020  134.3470 C   0  0  0  0  0  1  0  0  0  0  0  0
  185.9830  176.6890  135.3170 C   0  0  1  0  0  3  0  0  0  0  0  0
  187.6460  176.6770  137.6070 N   0  0  1  0  0  0  0  0  0  0  0  0
  187.0510  176.1980  134.3660 C   0  0  0  0  0  2  0  0  0  0  0  0
  188.6730  177.4370  142.1020 C   0  0  0  0  0  2  0  0  0  0  0  0
  191.1690  177.0290  139.1820 C   0  0  2  0  0  3  0  0  0  0  0  0
  186.7750  175.4040  135.6410 C   0  0  1  0  0  3  0  0  0  0  0  0
  190.5260  177.9370  143.7150 C   0  0  0  0  0  0  0  0  0  0  0  0
  190.6730  177.0210  140.6360 C   0  0  2  0  0  3  0  0  0  0  0  0
  188.4210  177.8530  139.6540 C   0  0  0  0  0  2  0  0  0  0  0  0
  189.2610  178.1130  143.3060 C   0  0  0  0  0  3  0  0  0  0  0  0
  191.7450  175.7800  136.6880 N   0  0  0  0  0  0  0  0  0  0  0  0
  190.0670  176.5920  138.2360 C   0  0  0  0  0  0  0  0  0  0  0  0
  189.3990  177.8680  140.8360 C   0  0  1  0  0  3  0  0  0  0  0  0
  191.0770  174.1680  134.8990 C   0  0  0  0  0  2  0  0  0  0  0  0
  192.8500  176.1360  137.5770 C   0  0  0  0  0  2  0  0  0  0  0  0
  192.0600  175.2660  135.3550 C   0  0  1  0  0  3  0  0  0  0  0  0
  186.4240  178.0050  135.9870 C   0  0  0  0  0  2  0  0  0  0  0  0
  190.9520  178.5960  144.8230 F   0  0  0  0  0  0  0  0  0  0  0  0
  191.4840  177.0200  143.0120 C   0  0  0  0  0  2  0  0  0  0  0  0
  192.3900  176.1190  139.0280 C   0  0  0  0  0  2  0  0  0  0  0  0
  189.7070  174.1740  135.5980 C   0  0  0  0  0  2  0  0  0  0  0  0
  190.3730  176.0250  137.0540 C   0  0  0  0  0  0  0  0  0  0  0  0
  187.6890  177.9110  136.8290 C   0  0  0  0  0  2  0  0  0  0  0  0
  1 26  1  1  0  0  0
  1  2  1  0  0  0  0
  1 27  1  0  0  0  0
  2  7  1  0  0  0  0
  3 14  1  0  0  0  0
  4 24  1  0  0  0  0
  5 21  1  0  0  0  0
  6 11  1  0  0  0  0
  6 22  1  0  0  0  0
  7  3  1  0  0  0  0
  8  6  1  0  0  0  0
  8 11  1  0  0  0  0
  9 15  1  0  0  0  0
 10 13  1  0  0  0  0
 11  2  1  0  0  0  0
 12 23  1  0  0  0  0
 13 18  1  0  0  0  0
 13  4  1  0  0  0  0
 14 18  1  0  0  0  0
 15 12  2  0  0  0  0
 16 27  1  0  0  0  0
 16 20  1  0  0  0  0
 17  3  1  0  0  0  0
 17 10  1  0  0  0  0
 18  9  1  0  0  0  0
 19 21  1  0  0  0  0
 19 26  1  0  0  0  0
 20 25  1  0  0  0  0
 21 16  1  0  0  0  0
 22 28  1  0  0  0  0
 24 12  1  0  0  0  0
 25 10  1  0  0  0  0
 27 17  2  0  0  0  0
 28  7  1  0  0  0  0
M  END
>  <MODEL>
8

>  <REMARK>
 VINA RESULT:      -6.8      5.733      9.302
  Name = 
  0 active torsions:
  status: ('A' for Active; 'I' for Inactive)
                            x       y       z     vdW  Elec       q    Type
                         _______ _______ _______ _____ _____    ______ ____

>  <TORSDO>
F 0

$$$$
=
 OpenBabel10272401523D

 28 34  0  0  1  0  0  0  0  0999 V2000
  185.8090  178.4560  138.8800 C   0  0  2  0  0  3  0  0  0  0  0  0
  187.1580  178.6710  138.1610 C   0  0  1  0  0  3  0  0  0  0  0  0
  188.4150  177.9590  140.0910 C   0  0  2  0  0  3  0  0  0  0  0  0
  188.7600  177.6100  144.4070 C   0  0  0  0  0  2  0  0  0  0  0  0
  182.9320  177.1200  139.9870 C   0  0  0  0  0  1  0  0  0  0  0  0
  187.5510  177.3640  135.9230 C   0  0  1  0  0  3  0  0  0  0  0  0
  188.2160  177.7750  138.6430 N   0  0  1  0  0  0  0  0  0  0  0  0
  186.0670  177.5850  136.1070 C   0  0  0  0  0  2  0  0  0  0  0  0
  191.0880  177.9340  142.3260 C   0  0  0  0  0  2  0  0  0  0  0  0
  187.2420  177.5810  142.3890 C   0  0  2  0  0  3  0  0  0  0  0  0
  187.0410  178.6440  136.6170 C   0  0  1  0  0  3  0  0  0  0  0  0
  191.2260  177.6910  144.8180 C   0  0  0  0  0  0  0  0  0  0  0  0
  188.6440  177.9240  142.9160 C   0  0  2  0  0  3  0  0  0  0  0  0
  189.4940  177.0210  140.6370 C   0  0  0  0  0  2  0  0  0  0  0  0
  191.7530  177.4990  143.6000 C   0  0  0  0  0  3  0  0  0  0  0  0
  184.7610  178.2400  141.1540 N   0  0  0  0  0  0  0  0  0  0  0  0
  187.1420  177.8640  140.9020 C   0  0  0  0  0  0  0  0  0  0  0  0
  189.7650  177.2060  142.1360 C   0  0  1  0  0  3  0  0  0  0  0  0
  183.5240  179.4680  139.3630 C   0  0  0  0  0  2  0  0  0  0  0  0
  184.8000  178.0230  142.5990 C   0  0  0  0  0  2  0  0  0  0  0  0
  183.4610  178.4420  140.5130 C   0  0  1  0  0  3  0  0  0  0  0  0
  188.0350  176.1980  136.8090 C   0  0  0  0  0  2  0  0  0  0  0  0
  191.9180  177.2610  145.9040 F   0  0  0  0  0  0  0  0  0  0  0  0
  189.9130  178.3860  145.0310 C   0  0  0  0  0  2  0  0  0  0  0  0
  186.1760  178.3730  143.1510 C   0  0  0  0  0  2  0  0  0  0  0  0
  184.9140  179.6820  138.7420 C   0  0  0  0  0  2  0  0  0  0  0  0
  185.9500  178.1510  140.3450 C   0  0  0  0  0  0  0  0  0  0  0  0
  187.8480  176.4030  138.3060 C   0  0  0  0  0  2  0  0  0  0  0  0
  1 26  1  1  0  0  0
  1 27  1  0  0  0  0
  2  7  1  0  0  0  0
  2  1  1  0  0  0  0
  3 14  1  0  0  0  0
  3 17  1  0  0  0  0
  4 24  1  0  0  0  0
  5 21  1  0  0  0  0
  6  8  1  0  0  0  0
  6 11  1  0  0  0  0
  6 22  1  0  0  0  0
  7  3  1  0  0  0  0
  8 11  1  0  0  0  0
  9 15  1  0  0  0  0
 10 13  1  0  0  0  0
 10 25  1  0  0  0  0
 11  2  1  0  0  0  0
 12 24  1  0  0  0  0
 12 23  1  0  0  0  0
 13  4  1  0  0  0  0
 14 18  1  0  0  0  0
 15 12  2  0  0  0  0
 16 20  1  0  0  0  0
 17 10  1  0  0  0  0
 18  9  1  0  0  0  0
 18 13  1  0  0  0  0
 19 21  1  0  0  0  0
 20 25  1  0  0  0  0
 21 16  1  0  0  0  0
 22 28  1  0  0  0  0
 26 19  1  0  0  0  0
 27 17  2  0  0  0  0
 27 16  1  0  0  0  0
 28  7  1  0  0  0  0
M  END
>  <MODEL>
9

>  <REMARK>
 VINA RESULT:      -6.8      3.904      7.317
  Name = 
  0 active torsions:
  status: ('A' for Active; 'I' for Inactive)
                            x       y       z     vdW  Elec       q    Type
                         _______ _______ _______ _____ _____    ______ ____

>  <TORSDO>
F 0

$$$$
