=
 OpenBabel10272413513D

 30 33  0  0  1  0  0  0  0  0999 V2000
  188.8910  177.1310  140.6790 C   0  0  0  0  0  2  0  0  0  0  0  0
  189.1290  177.1220  143.2440 C   0  0  2  0  0  3  0  0  0  0  0  0
  185.1510  179.1430  140.8760 N   0  0  0  0  0  0  0  0  0  0  0  0
  187.8830  177.3140  139.5170 C   0  0  1  0  0  3  0  0  0  0  0  0
  185.0100  179.2840  139.6000 C   0  0  0  0  0  0  0  0  0  0  0  0
  188.3220  176.9550  144.5410 C   0  0  0  0  0  2  0  0  0  0  0  0
  190.0180  178.3550  143.3390 C   0  0  0  0  0  1  0  0  0  0  0  0
  186.3200  178.2840  140.9770 C   0  0  1  0  0  3  0  0  0  0  0  0
  186.9930  177.6870  144.5620 C   0  0  0  0  0  3  0  0  0  0  0  0
  188.1800  177.1910  142.0480 C   0  0  1  0  0  3  0  0  0  0  0  0
  187.1070  178.5260  139.7800 N   0  0  2  0  0  0  0  0  0  0  0  0
  183.9760  179.9610  139.0460 F   0  0  0  0  0  0  0  0  0  0  0  0
  186.0960  178.7650  138.8430 N   0  0  0  0  0  2  0  0  0  0  0  0
  186.4650  178.2930  143.4840 C   0  0  0  0  0  3  0  0  0  0  0  0
  187.2180  178.3860  142.1870 C   0  0  2  0  0  3  0  0  0  0  0  0
  188.8670  176.7480  136.0260 O   0  0  0  0  0  0  0  0  0  0  0  0
  188.1620  176.7110  137.0710 C   0  0  0  0  0  0  0  0  0  0  0  0
  188.6120  177.4130  138.2500 N   0  0  0  0  0  0  0  0  0  0  0  0
  185.6740  176.3330  136.6040 C   0  0  0  0  0  3  0  0  0  0  0  0
  186.8710  174.6630  137.4070 O   0  0  0  0  0  0  0  0  0  0  0  0
  186.9190  175.9160  137.0300 C   0  0  0  0  0  0  0  0  0  0  0  0
  184.8550  175.2300  136.7650 C   0  0  0  0  0  3  0  0  0  0  0  0
  185.6480  174.2180  137.2720 C   0  0  0  0  0  3  0  0  0  0  0  0
  189.9360  178.0340  138.2370 C   0  0  0  0  0  2  0  0  0  0  0  0
  190.9740  177.0540  138.7590 C   0  0  0  0  0  2  0  0  0  0  0  0
  191.8410  176.5390  137.6280 C   0  0  0  0  0  2  0  0  0  0  0  0
  192.0620  175.0420  137.7660 C   0  0  0  0  0  2  0  0  0  0  0  0
  190.0350  173.6230  137.5100 O   0  0  0  0  0  1  0  0  0  0  0  0
  191.0760  174.3200  136.9170 C   0  0  0  0  0  0  0  0  0  0  0  0
  191.1820  174.3470  135.6640 O   0  0  0  0  0  0  0  0  0  0  0  0
  2  7  1  1  0  0  0
  2  6  1  0  0  0  0
  4 18  1  6  0  0  0
  4 11  1  0  0  0  0
  4  1  1  0  0  0  0
  5  3  2  0  0  0  0
  6  9  1  0  0  0  0
  8  3  1  1  0  0  0
  8 15  1  0  0  0  0
 10  1  1  6  0  0  0
 10 15  1  0  0  0  0
 10  2  1  0  0  0  0
 11 13  1  6  0  0  0
 11  8  1  0  0  0  0
 12  5  1  0  0  0  0
 13  5  1  0  0  0  0
 14  9  2  0  0  0  0
 15 14  1  1  0  0  0
 16 17  2  0  0  0  0
 17 18  1  0  0  0  0
 19 22  1  0  0  0  0
 19 21  2  0  0  0  0
 21 17  1  0  0  0  0
 21 20  1  0  0  0  0
 22 23  2  0  0  0  0
 23 20  1  0  0  0  0
 24 18  1  0  0  0  0
 24 25  1  0  0  0  0
 26 27  1  0  0  0  0
 26 25  1  0  0  0  0
 29 28  1  0  0  0  0
 29 27  1  0  0  0  0
 30 29  2  0  0  0  0
M  END
>  <MODEL>
1

>  <REMARK>
 VINA RESULT:      -6.3      0.000      0.000
  Name = 
  7 active torsions:
  status: ('A' for Active; 'I' for Inactive)
    1  A    between atoms: C_4  and  N_13
    2  A    between atoms: C_7  and  C_15
    3  A    between atoms: C_7  and  C_16
    4  A    between atoms: C_8  and  C_12
    5  A    between atoms: N_13  and  C_27
    6  A    between atoms: C_16  and  C_30
    7  A    between atoms: C_27  and  C_30
                            x       y       z     vdW  Elec       q    Type
                         _______ _______ _______ _____ _____    ______ ____

>  <TORSDO>
F 7

$$$$
=
 OpenBabel10272413513D

 30 33  0  0  1  0  0  0  0  0999 V2000
  188.7020  177.8680  142.9440 C   0  0  0  0  0  2  0  0  0  0  0  0
  191.0010  177.6960  144.0960 C   0  0  2  0  0  3  0  0  0  0  0  0
  186.6560  177.7790  146.6690 N   0  0  0  0  0  0  0  0  0  0  0  0
  187.1820  177.6650  143.1520 C   0  0  1  0  0  3  0  0  0  0  0  0
  185.4770  177.9730  146.1770 C   0  0  0  0  0  0  0  0  0  0  0  0
  191.7280  177.0170  145.2670 C   0  0  0  0  0  2  0  0  0  0  0  0
  191.3130  179.1850  144.0820 C   0  0  0  0  0  1  0  0  0  0  0  0
  187.4730  177.5900  145.4820 C   0  0  1  0  0  3  0  0  0  0  0  0
  190.9550  177.0050  146.5740 C   0  0  0  0  0  3  0  0  0  0  0  0
  189.4990  177.4260  144.1910 C   0  0  1  0  0  3  0  0  0  0  0  0
  186.8070  178.3110  144.4110 N   0  0  2  0  0  0  0  0  0  0  0  0
  184.3740  178.1190  146.9480 F   0  0  0  0  0  0  0  0  0  0  0  0
  185.4670  178.1310  144.7630 N   0  0  0  0  0  2  0  0  0  0  0  0
  189.6720  177.3930  146.6780 C   0  0  0  0  0  3  0  0  0  0  0  0
  188.9310  177.9810  145.5100 C   0  0  2  0  0  3  0  0  0  0  0  0
  186.4380  178.9450  139.7930 O   0  0  0  0  0  0  0  0  0  0  0  0
  187.0640  178.3580  140.7170 C   0  0  0  0  0  0  0  0  0  0  0  0
  186.4520  178.2430  142.0200 N   0  0  0  0  0  0  0  0  0  0  0  0
  189.4350  178.5170  139.7680 C   0  0  0  0  0  3  0  0  0  0  0  0
  188.8020  176.6400  140.7390 O   0  0  0  0  0  0  0  0  0  0  0  0
  188.4140  177.8450  140.4100 C   0  0  0  0  0  0  0  0  0  0  0  0
  190.4810  177.6130  139.7220 C   0  0  0  0  0  3  0  0  0  0  0  0
  190.0340  176.4580  140.3360 C   0  0  0  0  0  3  0  0  0  0  0  0
  185.1840  178.9280  142.2660 C   0  0  0  0  0  2  0  0  0  0  0  0
  184.0320  178.0990  141.7210 C   0  0  0  0  0  2  0  0  0  0  0  0
  182.7180  178.8380  141.8800 C   0  0  0  0  0  2  0  0  0  0  0  0
  182.3630  178.9820  143.3490 C   0  0  0  0  0  2  0  0  0  0  0  0
  180.3360  180.3450  142.8750 O   0  0  0  0  0  0  0  0  0  0  0  0
  180.9030  179.2330  143.4790 C   0  0  0  0  0  0  0  0  0  0  0  0
  180.1810  178.4340  144.1310 O   0  0  0  0  0  1  0  0  0  0  0  0
  1  4  1  0  0  0  0
  2  7  1  1  0  0  0
  2 10  1  0  0  0  0
  2  6  1  0  0  0  0
  4 18  1  6  0  0  0
  4 11  1  0  0  0  0
  5  3  2  0  0  0  0
  5 12  1  0  0  0  0
  6  9  1  0  0  0  0
  8 15  1  0  0  0  0
  8  3  1  1  0  0  0
  9 14  2  0  0  0  0
 10  1  1  6  0  0  0
 10 15  1  0  0  0  0
 11 13  1  1  0  0  0
 11  8  1  0  0  0  0
 13  5  1  0  0  0  0
 15 14  1  1  0  0  0
 16 17  2  0  0  0  0
 17 18  1  0  0  0  0
 18 24  1  0  0  0  0
 19 21  2  0  0  0  0
 21 17  1  0  0  0  0
 21 20  1  0  0  0  0
 22 19  1  0  0  0  0
 22 23  2  0  0  0  0
 23 20  1  0  0  0  0
 25 26  1  0  0  0  0
 25 24  1  0  0  0  0
 26 27  1  0  0  0  0
 27 29  1  0  0  0  0
 28 29  2  0  0  0  0
 29 30  1  0  0  0  0
M  END
>  <MODEL>
2

>  <REMARK>
 VINA RESULT:      -6.2      4.126      6.902
  Name = 
  7 active torsions:
  status: ('A' for Active; 'I' for Inactive)
    1  A    between atoms: C_4  and  N_13
    2  A    between atoms: C_7  and  C_15
    3  A    between atoms: C_7  and  C_16
    4  A    between atoms: C_8  and  C_12
    5  A    between atoms: N_13  and  C_27
    6  A    between atoms: C_16  and  C_30
    7  A    between atoms: C_27  and  C_30
                            x       y       z     vdW  Elec       q    Type
                         _______ _______ _______ _____ _____    ______ ____

>  <TORSDO>
F 7

$$$$
=
 OpenBabel10272413513D

 30 33  0  0  1  0  0  0  0  0999 V2000
  187.6350  177.8650  142.1820 C   0  0  0  0  0  2  0  0  0  0  0  0
  185.1030  178.1680  142.5490 C   0  0  2  0  0  3  0  0  0  0  0  0
  187.3170  178.8740  138.0640 N   0  0  0  0  0  0  0  0  0  0  0  0
  188.7270  177.6720  141.1010 C   0  0  1  0  0  3  0  0  0  0  0  0
  188.5850  178.8490  137.8240 C   0  0  0  0  0  0  0  0  0  0  0  0
  183.7390  177.9290  141.8830 C   0  0  0  0  0  2  0  0  0  0  0  0
  185.1760  179.5890  143.0910 C   0  0  0  0  0  1  0  0  0  0  0  0
  187.2360  178.3530  139.4190 C   0  0  1  0  0  3  0  0  0  0  0  0
  183.6760  178.2990  140.4120 C   0  0  0  0  0  3  0  0  0  0  0  0
  186.2250  177.8770  141.5520 C   0  0  1  0  0  3  0  0  0  0  0  0
  188.5060  178.6680  140.0520 N   0  0  2  0  0  0  0  0  0  0  0  0
  189.1120  179.1840  136.6220 F   0  0  0  0  0  0  0  0  0  0  0  0
  189.3790  178.5500  138.9660 N   0  0  0  0  0  2  0  0  0  0  0  0
  184.7560  178.6430  139.6890 C   0  0  0  0  0  3  0  0  0  0  0  0
  186.1110  178.7970  140.3220 C   0  0  2  0  0  3  0  0  0  0  0  0
  192.3400  177.3710  141.6790 O   0  0  0  0  0  0  0  0  0  0  0  0
  191.2340  177.2970  141.0770 C   0  0  0  0  0  0  0  0  0  0  0  0
  190.0510  177.8290  141.7120 N   0  0  0  0  0  0  0  0  0  0  0  0
  192.1140  176.8060  138.7250 C   0  0  0  0  0  3  0  0  0  0  0  0
  190.2990  175.7610  139.4210 O   0  0  0  0  0  0  0  0  0  0  0  0
  191.2150  176.6330  139.7590 C   0  0  0  0  0  0  0  0  0  0  0  0
  191.6610  175.9720  137.7190 C   0  0  0  0  0  3  0  0  0  0  0  0
  190.5260  175.3470  138.2010 C   0  0  0  0  0  3  0  0  0  0  0  0
  190.1470  178.3170  143.0860 C   0  0  0  0  0  2  0  0  0  0  0  0
  190.2710  177.1440  144.0460 C   0  0  0  0  0  2  0  0  0  0  0  0
  190.0070  177.5880  145.4710 C   0  0  0  0  0  2  0  0  0  0  0  0
  188.5150  177.6000  145.7560 C   0  0  0  0  0  2  0  0  0  0  0  0
  187.0030  178.0120  147.6890 O   0  0  0  0  0  0  0  0  0  0  0  0
  188.2940  177.8700  147.2030 C   0  0  0  0  0  0  0  0  0  0  0  0
  189.2750  177.9640  147.9840 O   0  0  0  0  0  1  0  0  0  0  0  0
  2  7  1  6  0  0  0
  4 18  1  1  0  0  0
  4  1  1  0  0  0  0
  5  3  2  0  0  0  0
  5 13  1  0  0  0  0
  6  2  1  0  0  0  0
  8  3  1  6  0  0  0
  8 11  1  0  0  0  0
  8 15  1  0  0  0  0
  9  6  1  0  0  0  0
 10  1  1  1  0  0  0
 10  2  1  0  0  0  0
 11 13  1  6  0  0  0
 11  4  1  0  0  0  0
 12  5  1  0  0  0  0
 14  9  2  0  0  0  0
 15 14  1  6  0  0  0
 15 10  1  0  0  0  0
 17 16  2  0  0  0  0
 17 18  1  0  0  0  0
 18 24  1  0  0  0  0
 19 21  2  0  0  0  0
 20 21  1  0  0  0  0
 21 17  1  0  0  0  0
 22 23  2  0  0  0  0
 22 19  1  0  0  0  0
 23 20  1  0  0  0  0
 24 25  1  0  0  0  0
 25 26  1  0  0  0  0
 26 27  1  0  0  0  0
 27 29  1  0  0  0  0
 29 28  2  0  0  0  0
 29 30  1  0  0  0  0
M  END
>  <MODEL>
3

>  <REMARK>
 VINA RESULT:      -6.1      3.624      6.023
  Name = 
  7 active torsions:
  status: ('A' for Active; 'I' for Inactive)
    1  A    between atoms: C_4  and  N_13
    2  A    between atoms: C_7  and  C_15
    3  A    between atoms: C_7  and  C_16
    4  A    between atoms: C_8  and  C_12
    5  A    between atoms: N_13  and  C_27
    6  A    between atoms: C_16  and  C_30
    7  A    between atoms: C_27  and  C_30
                            x       y       z     vdW  Elec       q    Type
                         _______ _______ _______ _____ _____    ______ ____

>  <TORSDO>
F 7

$$$$
=
 OpenBabel10272413513D

 30 33  0  0  1  0  0  0  0  0999 V2000
  188.9470  177.6150  143.2120 C   0  0  0  0  0  2  0  0  0  0  0  0
  191.1490  177.2880  144.5080 C   0  0  2  0  0  3  0  0  0  0  0  0
  186.6770  177.7820  146.8020 N   0  0  0  0  0  0  0  0  0  0  0  0
  187.4050  177.5400  143.3280 C   0  0  1  0  0  3  0  0  0  0  0  0
  185.5500  178.0570  146.2330 C   0  0  0  0  0  0  0  0  0  0  0  0
  191.7460  176.5820  145.7350 C   0  0  0  0  0  2  0  0  0  0  0  0
  191.5830  178.7470  144.4840 C   0  0  0  0  0  1  0  0  0  0  0  0
  187.5460  177.4990  145.6720 C   0  0  1  0  0  3  0  0  0  0  0  0
  190.8970  176.6640  146.9910 C   0  0  0  0  0  3  0  0  0  0  0  0
  189.6270  177.1410  144.5140 C   0  0  1  0  0  3  0  0  0  0  0  0
  187.0090  178.2450  144.5470 N   0  0  2  0  0  0  0  0  0  0  0  0
  184.4180  178.3110  146.9310 F   0  0  0  0  0  0  0  0  0  0  0  0
  185.6390  178.1820  144.8190 N   0  0  0  0  0  2  0  0  0  0  0  0
  189.6460  177.1560  147.0070 C   0  0  0  0  0  3  0  0  0  0  0  0
  189.0270  177.7730  145.7840 C   0  0  2  0  0  3  0  0  0  0  0  0
  186.9990  178.8700  139.9300 O   0  0  0  0  0  0  0  0  0  0  0  0
  187.5250  178.2580  140.9000 C   0  0  0  0  0  0  0  0  0  0  0  0
  186.7950  178.1470  142.1410 N   0  0  0  0  0  0  0  0  0  0  0  0
  189.2320  176.5430  140.0680 C   0  0  0  0  0  3  0  0  0  0  0  0
  189.9550  178.3250  141.1490 O   0  0  0  0  0  0  0  0  0  0  0  0
  188.8840  177.7140  140.7100 C   0  0  0  0  0  0  0  0  0  0  0  0
  190.6110  176.4820  140.1620 C   0  0  0  0  0  3  0  0  0  0  0  0
  191.0120  177.6130  140.8490 C   0  0  0  0  0  3  0  0  0  0  0  0
  185.5270  178.8620  142.2790 C   0  0  0  0  0  2  0  0  0  0  0  0
  184.3750  177.9600  141.8640 C   0  0  0  0  0  2  0  0  0  0  0  0
  183.2190  178.7810  141.3280 C   0  0  0  0  0  2  0  0  0  0  0  0
  183.0340  178.5320  139.8410 C   0  0  0  0  0  2  0  0  0  0  0  0
  184.3520  180.4560  138.9720 O   0  0  0  0  0  1  0  0  0  0  0  0
  183.1240  179.8250  139.1120 C   0  0  0  0  0  0  0  0  0  0  0  0
  182.0900  180.3440  138.6170 O   0  0  0  0  0  0  0  0  0  0  0  0
  1  4  1  0  0  0  0
  2  7  1  1  0  0  0
  2 10  1  0  0  0  0
  2  6  1  0  0  0  0
  4 18  1  6  0  0  0
  4 11  1  0  0  0  0
  5  3  2  0  0  0  0
  5 12  1  0  0  0  0
  6  9  1  0  0  0  0
  8 15  1  0  0  0  0
  8  3  1  1  0  0  0
  9 14  2  0  0  0  0
 10  1  1  6  0  0  0
 10 15  1  0  0  0  0
 11 13  1  1  0  0  0
 11  8  1  0  0  0  0
 13  5  1  0  0  0  0
 15 14  1  1  0  0  0
 16 17  2  0  0  0  0
 17 18  1  0  0  0  0
 18 24  1  0  0  0  0
 19 22  1  0  0  0  0
 19 21  2  0  0  0  0
 21 17  1  0  0  0  0
 21 20  1  0  0  0  0
 22 23  2  0  0  0  0
 23 20  1  0  0  0  0
 25 24  1  0  0  0  0
 26 25  1  0  0  0  0
 27 26  1  0  0  0  0
 28 29  1  0  0  0  0
 29 27  1  0  0  0  0
 30 29  2  0  0  0  0
M  END
>  <MODEL>
4

>  <REMARK>
 VINA RESULT:      -6.0      3.629      6.267
  Name = 
  7 active torsions:
  status: ('A' for Active; 'I' for Inactive)
    1  A    between atoms: C_4  and  N_13
    2  A    between atoms: C_7  and  C_15
    3  A    between atoms: C_7  and  C_16
    4  A    between atoms: C_8  and  C_12
    5  A    between atoms: N_13  and  C_27
    6  A    between atoms: C_16  and  C_30
    7  A    between atoms: C_27  and  C_30
                            x       y       z     vdW  Elec       q    Type
                         _______ _______ _______ _____ _____    ______ ____

>  <TORSDO>
F 7

$$$$
=
 OpenBabel10272413513D

 30 33  0  0  1  0  0  0  0  0999 V2000
  192.6380  176.2790  138.0160 C   0  0  0  0  0  2  0  0  0  0  0  0
  194.8410  175.0900  137.4050 C   0  0  2  0  0  3  0  0  0  0  0  0
  190.3050  173.0180  136.6040 N   0  0  0  0  0  0  0  0  0  0  0  0
  191.1100  176.2810  137.7720 C   0  0  1  0  0  3  0  0  0  0  0  0
  189.1660  173.4980  136.9790 C   0  0  0  0  0  0  0  0  0  0  0  0
  195.4840  174.1920  136.3360 C   0  0  0  0  0  2  0  0  0  0  0  0
  195.1290  174.5350  138.7930 C   0  0  0  0  0  1  0  0  0  0  0  0
  191.2160  174.1240  136.8490 C   0  0  1  0  0  3  0  0  0  0  0  0
  194.6110  173.0460  135.8590 C   0  0  0  0  0  3  0  0  0  0  0  0
  193.3410  175.2200  137.1390 C   0  0  1  0  0  3  0  0  0  0  0  0
  190.6260  174.9080  137.9210 N   0  0  2  0  0  0  0  0  0  0  0  0
  188.0030  172.8170  136.8500 F   0  0  0  0  0  0  0  0  0  0  0  0
  189.2650  174.7530  137.6430 N   0  0  0  0  0  2  0  0  0  0  0  0
  193.3170  172.9100  136.2000 C   0  0  0  0  0  3  0  0  0  0  0  0
  192.6610  173.8380  137.1830 C   0  0  2  0  0  3  0  0  0  0  0  0
  188.8640  178.8200  139.1810 O   0  0  0  0  0  0  0  0  0  0  0  0
  189.3330  177.9930  138.3530 C   0  0  0  0  0  0  0  0  0  0  0  0
  190.4630  177.1780  138.7340 N   0  0  0  0  0  0  0  0  0  0  0  0
  187.3570  177.9050  136.7290 C   0  0  0  0  0  3  0  0  0  0  0  0
  189.4070  177.9060  135.9110 O   0  0  0  0  0  0  0  0  0  0  0  0
  188.7070  177.9330  137.0170 C   0  0  0  0  0  0  0  0  0  0  0  0
  187.2900  177.8470  135.3480 C   0  0  0  0  0  3  0  0  0  0  0  0
  188.5940  177.8450  134.8870 C   0  0  0  0  0  3  0  0  0  0  0  0
  191.1120  177.4310  140.0190 C   0  0  0  0  0  2  0  0  0  0  0  0
  190.3770  176.6920  141.1260 C   0  0  0  0  0  2  0  0  0  0  0  0
  190.2190  177.5760  142.3470 C   0  0  0  0  0  2  0  0  0  0  0  0
  191.5300  177.6720  143.1080 C   0  0  0  0  0  2  0  0  0  0  0  0
  191.9340  175.3760  143.9760 O   0  0  0  0  0  0  0  0  0  0  0  0
  191.5280  176.6800  144.2160 C   0  0  0  0  0  0  0  0  0  0  0  0
  191.1660  177.0240  145.3710 O   0  0  0  0  0  1  0  0  0  0  0  0
  2  7  1  1  0  0  0
  3  5  2  0  0  0  0
  4 11  1  0  0  0  0
  4  1  1  0  0  0  0
  4 18  1  1  0  0  0
  5 13  1  0  0  0  0
  6  2  1  0  0  0  0
  8  3  1  1  0  0  0
  8 15  1  0  0  0  0
  8 11  1  0  0  0  0
  9 14  2  0  0  0  0
  9  6  1  0  0  0  0
 10 15  1  0  0  0  0
 10  2  1  0  0  0  0
 10  1  1  1  0  0  0
 11 13  1  6  0  0  0
 12  5  1  0  0  0  0
 15 14  1  6  0  0  0
 17 18  1  0  0  0  0
 17 16  2  0  0  0  0
 18 24  1  0  0  0  0
 19 21  2  0  0  0  0
 20 21  1  0  0  0  0
 21 17  1  0  0  0  0
 22 19  1  0  0  0  0
 23 22  2  0  0  0  0
 23 20  1  0  0  0  0
 24 25  1  0  0  0  0
 25 26  1  0  0  0  0
 26 27  1  0  0  0  0
 27 29  1  0  0  0  0
 28 29  2  0  0  0  0
 29 30  1  0  0  0  0
M  END
>  <MODEL>
5

>  <REMARK>
 VINA RESULT:      -6.0      3.430      6.866
  Name = 
  7 active torsions:
  status: ('A' for Active; 'I' for Inactive)
    1  A    between atoms: C_4  and  N_13
    2  A    between atoms: C_7  and  C_15
    3  A    between atoms: C_7  and  C_16
    4  A    between atoms: C_8  and  C_12
    5  A    between atoms: N_13  and  C_27
    6  A    between atoms: C_16  and  C_30
    7  A    between atoms: C_27  and  C_30
                            x       y       z     vdW  Elec       q    Type
                         _______ _______ _______ _____ _____    ______ ____

>  <TORSDO>
F 7

$$$$
=
 OpenBabel10272413513D

 30 33  0  0  1  0  0  0  0  0999 V2000
  190.8350  176.1510  139.4700 C   0  0  0  0  0  2  0  0  0  0  0  0
  190.4700  176.6490  141.9720 C   0  0  2  0  0  3  0  0  0  0  0  0
  187.6630  178.7420  138.3320 N   0  0  0  0  0  0  0  0  0  0  0  0
  190.1830  176.2450  138.0690 C   0  0  1  0  0  3  0  0  0  0  0  0
  187.8510  178.6300  137.0590 C   0  0  0  0  0  0  0  0  0  0  0  0
  189.3700  176.8940  143.0160 C   0  0  0  0  0  2  0  0  0  0  0  0
  191.5530  177.7110  142.0960 C   0  0  0  0  0  1  0  0  0  0  0  0
  188.5680  177.7450  138.8790 C   0  0  1  0  0  3  0  0  0  0  0  0
  188.2570  177.8210  142.5620 C   0  0  0  0  0  3  0  0  0  0  0  0
  189.8570  176.6160  140.5710 C   0  0  1  0  0  3  0  0  0  0  0  0
  189.6420  177.5950  137.9120 N   0  0  2  0  0  0  0  0  0  0  0  0
  187.1400  179.3330  136.1460 F   0  0  0  0  0  0  0  0  0  0  0  0
  188.9480  177.7920  136.7140 N   0  0  0  0  0  2  0  0  0  0  0  0
  188.1320  178.2620  141.2980 C   0  0  0  0  0  3  0  0  0  0  0  0
  189.1650  177.9540  140.2510 C   0  0  2  0  0  3  0  0  0  0  0  0
  191.8140  174.7680  135.1300 O   0  0  0  0  0  0  0  0  0  0  0  0
  190.8950  175.0670  135.9400 C   0  0  0  0  0  0  0  0  0  0  0  0
  191.1880  175.9530  137.0420 N   0  0  0  0  0  0  0  0  0  0  0  0
  189.0550  173.3350  136.3420 C   0  0  0  0  0  3  0  0  0  0  0  0
  188.6940  174.9510  134.8840 O   0  0  0  0  0  0  0  0  0  0  0  0
  189.5680  174.4570  135.7240 C   0  0  0  0  0  0  0  0  0  0  0  0
  187.7930  173.1750  135.7980 C   0  0  0  0  0  3  0  0  0  0  0  0
  187.6180  174.2050  134.8930 C   0  0  0  0  0  3  0  0  0  0  0  0
  192.5720  176.3700  137.2620 C   0  0  0  0  0  2  0  0  0  0  0  0
  193.4520  175.1510  137.4890 C   0  0  0  0  0  2  0  0  0  0  0  0
  194.8080  175.3410  136.8390 C   0  0  0  0  0  2  0  0  0  0  0  0
  195.7160  174.1630  137.1470 C   0  0  0  0  0  2  0  0  0  0  0  0
  195.2860  172.7370  139.1410 O   0  0  0  0  0  0  0  0  0  0  0  0
  195.7440  173.9370  138.6180 C   0  0  0  0  0  0  0  0  0  0  0  0
  196.1890  174.8290  139.3850 O   0  0  0  0  0  1  0  0  0  0  0  0
  2  7  1  6  0  0  0
  2  6  1  0  0  0  0
  4 18  1  6  0  0  0
  4  1  1  0  0  0  0
  5  3  2  0  0  0  0
  8  3  1  6  0  0  0
  8 15  1  0  0  0  0
  9  6  1  0  0  0  0
 10  1  1  6  0  0  0
 10  2  1  0  0  0  0
 11 13  1  6  0  0  0
 11  4  1  0  0  0  0
 11  8  1  0  0  0  0
 12  5  1  0  0  0  0
 13  5  1  0  0  0  0
 14  9  2  0  0  0  0
 15 10  1  0  0  0  0
 15 14  1  1  0  0  0
 16 17  2  0  0  0  0
 17 18  1  0  0  0  0
 18 24  1  0  0  0  0
 20 23  1  0  0  0  0
 20 21  1  0  0  0  0
 21 17  1  0  0  0  0
 21 19  2  0  0  0  0
 22 19  1  0  0  0  0
 23 22  2  0  0  0  0
 24 25  1  0  0  0  0
 26 27  1  0  0  0  0
 26 25  1  0  0  0  0
 27 29  1  0  0  0  0
 29 28  2  0  0  0  0
 29 30  1  0  0  0  0
M  END
>  <MODEL>
6

>  <REMARK>
 VINA RESULT:      -5.9      2.576      3.536
  Name = 
  7 active torsions:
  status: ('A' for Active; 'I' for Inactive)
    1  A    between atoms: C_4  and  N_13
    2  A    between atoms: C_7  and  C_15
    3  A    between atoms: C_7  and  C_16
    4  A    between atoms: C_8  and  C_12
    5  A    between atoms: N_13  and  C_27
    6  A    between atoms: C_16  and  C_30
    7  A    between atoms: C_27  and  C_30
                            x       y       z     vdW  Elec       q    Type
                         _______ _______ _______ _____ _____    ______ ____

>  <TORSDO>
F 7

$$$$
=
 OpenBabel10272413513D

 30 33  0  0  1  0  0  0  0  0999 V2000
  185.4440  178.4770  138.8820 C   0  0  0  0  0  2  0  0  0  0  0  0
  187.8320  178.4190  137.9170 C   0  0  2  0  0  3  0  0  0  0  0  0
  184.0200  175.7640  135.9350 N   0  0  0  0  0  0  0  0  0  0  0  0
  183.9620  178.1520  138.5720 C   0  0  1  0  0  3  0  0  0  0  0  0
  182.8290  175.6540  136.4210 C   0  0  0  0  0  0  0  0  0  0  0  0
  188.6090  178.3680  136.5920 C   0  0  0  0  0  2  0  0  0  0  0  0
  188.3850  177.3820  138.8850 C   0  0  0  0  0  1  0  0  0  0  0  0
  184.5970  176.8300  136.7370 C   0  0  1  0  0  3  0  0  0  0  0  0
  188.0600  177.3900  135.5700 C   0  0  0  0  0  3  0  0  0  0  0  0
  186.3400  178.2180  137.6520 C   0  0  1  0  0  3  0  0  0  0  0  0
  183.9040  176.8000  138.0130 N   0  0  2  0  0  0  0  0  0  0  0  0
  181.9000  174.8130  135.9080 F   0  0  0  0  0  0  0  0  0  0  0  0
  182.6240  176.4090  137.6100 N   0  0  0  0  0  2  0  0  0  0  0  0
  186.8920  176.7400  135.7210 C   0  0  0  0  0  3  0  0  0  0  0  0
  186.0870  176.8530  136.9850 C   0  0  2  0  0  3  0  0  0  0  0  0
  181.4110  179.2340  140.9790 O   0  0  0  0  0  0  0  0  0  0  0  0
  182.0080  179.1030  139.8770 C   0  0  0  0  0  0  0  0  0  0  0  0
  183.1720  178.2520  139.8030 N   0  0  0  0  0  0  0  0  0  0  0  0
  181.7150  181.1950  138.4320 C   0  0  0  0  0  3  0  0  0  0  0  0
  180.7280  179.3240  137.8060 O   0  0  0  0  0  0  0  0  0  0  0  0
  181.4900  179.8650  138.7230 C   0  0  0  0  0  0  0  0  0  0  0  0
  181.0150  181.4260  137.2610 C   0  0  0  0  0  3  0  0  0  0  0  0
  180.4140  180.2310  136.9160 C   0  0  0  0  0  3  0  0  0  0  0  0
  183.7010  177.6740  141.0370 C   0  0  0  0  0  2  0  0  0  0  0  0
  184.4890  178.7230  141.8060 C   0  0  0  0  0  2  0  0  0  0  0  0
  184.1150  178.7020  143.2750 C   0  0  0  0  0  2  0  0  0  0  0  0
  185.3610  178.6190  144.1400 C   0  0  0  0  0  2  0  0  0  0  0  0
  183.6690  179.1010  145.8990 O   0  0  0  0  0  0  0  0  0  0  0  0
  184.9830  178.8100  145.5660 C   0  0  0  0  0  0  0  0  0  0  0  0
  185.8520  178.7000  146.4690 O   0  0  0  0  0  1  0  0  0  0  0  0
  2  7  1  1  0  0  0
  3  5  2  0  0  0  0
  4  1  1  0  0  0  0
  4 18  1  1  0  0  0
  5 13  1  0  0  0  0
  6  2  1  0  0  0  0
  8  3  1  6  0  0  0
  8 15  1  0  0  0  0
  8 11  1  0  0  0  0
  9 14  2  0  0  0  0
  9  6  1  0  0  0  0
 10  2  1  0  0  0  0
 10  1  1  1  0  0  0
 11 13  1  6  0  0  0
 11  4  1  0  0  0  0
 12  5  1  0  0  0  0
 15 14  1  6  0  0  0
 15 10  1  0  0  0  0
 17 16  2  0  0  0  0
 18 17  1  0  0  0  0
 18 24  1  0  0  0  0
 19 21  2  0  0  0  0
 20 21  1  0  0  0  0
 21 17  1  0  0  0  0
 22 19  1  0  0  0  0
 23 22  2  0  0  0  0
 23 20  1  0  0  0  0
 24 25  1  0  0  0  0
 25 26  1  0  0  0  0
 26 27  1  0  0  0  0
 27 29  1  0  0  0  0
 29 28  2  0  0  0  0
 29 30  1  0  0  0  0
M  END
>  <MODEL>
7

>  <REMARK>
 VINA RESULT:      -5.9      4.654      7.502
  Name = 
  7 active torsions:
  status: ('A' for Active; 'I' for Inactive)
    1  A    between atoms: C_4  and  N_13
    2  A    between atoms: C_7  and  C_15
    3  A    between atoms: C_7  and  C_16
    4  A    between atoms: C_8  and  C_12
    5  A    between atoms: N_13  and  C_27
    6  A    between atoms: C_16  and  C_30
    7  A    between atoms: C_27  and  C_30
                            x       y       z     vdW  Elec       q    Type
                         _______ _______ _______ _____ _____    ______ ____

>  <TORSDO>
F 7

$$$$
=
 OpenBabel10272413513D

 30 33  0  0  1  0  0  0  0  0999 V2000
  186.6340  178.4030  141.3390 C   0  0  0  0  0  2  0  0  0  0  0  0
  184.1400  178.9500  141.6820 C   0  0  2  0  0  3  0  0  0  0  0  0
  187.1240  177.3400  145.4260 N   0  0  0  0  0  0  0  0  0  0  0  0
  187.9770  178.1790  142.0750 C   0  0  1  0  0  3  0  0  0  0  0  0
  188.3480  176.9430  145.3130 C   0  0  0  0  0  0  0  0  0  0  0  0
  183.1580  179.5800  142.6830 C   0  0  0  0  0  2  0  0  0  0  0  0
  183.6010  177.6110  141.1970 C   0  0  0  0  0  1  0  0  0  0  0  0
  186.8560  177.9280  144.1230 C   0  0  1  0  0  3  0  0  0  0  0  0
  183.3770  179.1750  144.1290 C   0  0  0  0  0  3  0  0  0  0  0  0
  185.5200  178.8130  142.3260 C   0  0  1  0  0  3  0  0  0  0  0  0
  187.7360  177.2550  143.1840 N   0  0  2  0  0  0  0  0  0  0  0  0
  189.0400  176.3940  146.3390 F   0  0  0  0  0  0  0  0  0  0  0  0
  188.8580  177.0290  143.9870 N   0  0  0  0  0  2  0  0  0  0  0  0
  184.4390  178.4650  144.5460 C   0  0  0  0  0  3  0  0  0  0  0  0
  185.4480  177.9170  143.5770 C   0  0  2  0  0  3  0  0  0  0  0  0
  191.1990  177.2920  140.5540 O   0  0  0  0  0  0  0  0  0  0  0  0
  190.3780  177.6840  141.4270 C   0  0  0  0  0  0  0  0  0  0  0  0
  188.9640  177.6360  141.1360 N   0  0  0  0  0  0  0  0  0  0  0  0
  191.7520  177.5420  143.5810 C   0  0  0  0  0  3  0  0  0  0  0  0
  190.6730  179.4120  143.1300 O   0  0  0  0  0  0  0  0  0  0  0  0
  190.9250  178.2030  142.6950 C   0  0  0  0  0  0  0  0  0  0  0  0
  191.9760  178.4470  144.6020 C   0  0  0  0  0  3  0  0  0  0  0  0
  191.2780  179.5950  144.2760 C   0  0  0  0  0  3  0  0  0  0  0  0
  188.5340  177.2600  139.7900 C   0  0  0  0  0  2  0  0  0  0  0  0
  188.9130  178.3500  138.8000 C   0  0  0  0  0  2  0  0  0  0  0  0
  187.9680  178.3500  137.6160 C   0  0  0  0  0  2  0  0  0  0  0  0
  186.9180  177.2640  137.7730 C   0  0  0  0  0  2  0  0  0  0  0  0
  185.3650  179.1190  138.3530 O   0  0  0  0  0  1  0  0  0  0  0  0
  185.5650  177.8820  137.7580 C   0  0  0  0  0  0  0  0  0  0  0  0
  184.6050  177.2880  137.2020 O   0  0  0  0  0  0  0  0  0  0  0  0
  1  4  1  0  0  0  0
  2  7  1  1  0  0  0
  2 10  1  0  0  0  0
  2  6  1  0  0  0  0
  4 18  1  6  0  0  0
  4 11  1  0  0  0  0
  5  3  2  0  0  0  0
  5 12  1  0  0  0  0
  6  9  1  0  0  0  0
  8  3  1  1  0  0  0
  9 14  2  0  0  0  0
 10  1  1  6  0  0  0
 10 15  1  0  0  0  0
 11 13  1  1  0  0  0
 11  8  1  0  0  0  0
 13  5  1  0  0  0  0
 15  8  1  0  0  0  0
 15 14  1  1  0  0  0
 16 17  2  0  0  0  0
 17 21  1  0  0  0  0
 18 17  1  0  0  0  0
 19 22  1  0  0  0  0
 20 23  1  0  0  0  0
 21 20  1  0  0  0  0
 21 19  2  0  0  0  0
 23 22  2  0  0  0  0
 24 18  1  0  0  0  0
 25 24  1  0  0  0  0
 26 27  1  0  0  0  0
 26 25  1  0  0  0  0
 29 27  1  0  0  0  0
 29 28  1  0  0  0  0
 30 29  2  0  0  0  0
M  END
>  <MODEL>
8

>  <REMARK>
 VINA RESULT:      -5.8      3.453      6.075
  Name = 
  7 active torsions:
  status: ('A' for Active; 'I' for Inactive)
    1  A    between atoms: C_4  and  N_13
    2  A    between atoms: C_7  and  C_15
    3  A    between atoms: C_7  and  C_16
    4  A    between atoms: C_8  and  C_12
    5  A    between atoms: N_13  and  C_27
    6  A    between atoms: C_16  and  C_30
    7  A    between atoms: C_27  and  C_30
                            x       y       z     vdW  Elec       q    Type
                         _______ _______ _______ _____ _____    ______ ____

>  <TORSDO>
F 7

$$$$
=
 OpenBabel10272413513D

 30 33  0  0  1  0  0  0  0  0999 V2000
  183.7510  177.0710  138.7630 C   0  0  0  0  0  2  0  0  0  0  0  0
  181.9320  175.4000  138.0280 C   0  0  2  0  0  3  0  0  0  0  0  0
  181.2760  180.4050  137.8490 N   0  0  0  0  0  0  0  0  0  0  0  0
  184.1990  178.5500  138.6740 C   0  0  1  0  0  3  0  0  0  0  0  0
  182.0910  181.3010  138.2990 C   0  0  0  0  0  0  0  0  0  0  0  0
  180.8370  175.1790  136.9730 C   0  0  0  0  0  2  0  0  0  0  0  0
  181.3790  175.1230  139.4190 C   0  0  0  0  0  1  0  0  0  0  0  0
  182.0690  179.1880  137.9150 C   0  0  1  0  0  3  0  0  0  0  0  0
  179.9840  176.3980  136.6770 C   0  0  0  0  0  3  0  0  0  0  0  0
  182.4920  176.8170  137.9050 C   0  0  1  0  0  3  0  0  0  0  0  0
  183.0400  179.3920  138.9760 N   0  0  2  0  0  0  0  0  0  0  0  0
  181.7830  182.6190  138.3400 F   0  0  0  0  0  0  0  0  0  0  0  0
  183.2870  180.7620  138.8490 N   0  0  0  0  0  2  0  0  0  0  0  0
  180.2560  177.6250  137.1550 C   0  0  0  0  0  3  0  0  0  0  0  0
  181.3810  177.8600  138.1240 C   0  0  2  0  0  3  0  0  0  0  0  0
  187.5430  178.5450  140.1880 O   0  0  0  0  0  0  0  0  0  0  0  0
  186.6480  178.4090  139.3100 C   0  0  0  0  0  0  0  0  0  0  0  0
  185.2900  178.7880  139.6230 N   0  0  0  0  0  0  0  0  0  0  0  0
  187.2500  178.5110  136.8250 C   0  0  0  0  0  3  0  0  0  0  0  0
  187.2700  176.5540  137.8440 O   0  0  0  0  0  0  0  0  0  0  0  0
  187.0480  177.8330  138.0100 C   0  0  0  0  0  0  0  0  0  0  0  0
  187.6030  177.5330  135.9130 C   0  0  0  0  0  3  0  0  0  0  0  0
  187.5970  176.3320  136.5960 C   0  0  0  0  0  3  0  0  0  0  0  0
  184.9690  179.1920  140.9900 C   0  0  0  0  0  2  0  0  0  0  0  0
  184.4010  178.0110  141.7610 C   0  0  0  0  0  2  0  0  0  0  0  0
  184.0520  178.4150  143.1800 C   0  0  0  0  0  2  0  0  0  0  0  0
  185.3050  178.4860  144.0360 C   0  0  0  0  0  2  0  0  0  0  0  0
  185.9310  179.1610  146.3470 O   0  0  0  0  0  1  0  0  0  0  0  0
  184.9390  178.9410  145.4040 C   0  0  0  0  0  0  0  0  0  0  0  0
  183.7320  179.1320  145.7040 O   0  0  0  0  0  0  0  0  0  0  0  0
  2  7  1  1  0  0  0
  3  5  2  0  0  0  0
  4  1  1  0  0  0  0
  4 11  1  0  0  0  0
  4 18  1  1  0  0  0
  5 12  1  0  0  0  0
  5 13  1  0  0  0  0
  6  2  1  0  0  0  0
  8  3  1  1  0  0  0
  8 15  1  0  0  0  0
  8 11  1  0  0  0  0
  9  6  1  0  0  0  0
  9 14  2  0  0  0  0
 10  2  1  0  0  0  0
 10 15  1  0  0  0  0
 10  1  1  1  0  0  0
 11 13  1  6  0  0  0
 15 14  1  6  0  0  0
 17 18  1  0  0  0  0
 17 16  2  0  0  0  0
 18 24  1  0  0  0  0
 19 21  2  0  0  0  0
 20 21  1  0  0  0  0
 21 17  1  0  0  0  0
 22 23  2  0  0  0  0
 22 19  1  0  0  0  0
 23 20  1  0  0  0  0
 24 25  1  0  0  0  0
 25 26  1  0  0  0  0
 26 27  1  0  0  0  0
 27 29  1  0  0  0  0
 29 30  2  0  0  0  0
 29 28  1  0  0  0  0
M  END
>  <MODEL>
9

>  <REMARK>
 VINA RESULT:      -5.8      3.986      7.183
  Name = 
  7 active torsions:
  status: ('A' for Active; 'I' for Inactive)
    1  A    between atoms: C_4  and  N_13
    2  A    between atoms: C_7  and  C_15
    3  A    between atoms: C_7  and  C_16
    4  A    between atoms: C_8  and  C_12
    5  A    between atoms: N_13  and  C_27
    6  A    between atoms: C_16  and  C_30
    7  A    between atoms: C_27  and  C_30
                            x       y       z     vdW  Elec       q    Type
                         _______ _______ _______ _____ _____    ______ ____

>  <TORSDO>
F 7

$$$$
