=
 OpenBabel10272414053D

 43 48  0  0  1  0  0  0  0  0999 V2000
  187.5220  177.4100  147.3280 C   0  0  1  0  0  3  0  0  0  0  0  0
  185.3670  178.7260  142.9150 C   0  0  0  0  0  0  0  0  0  0  0  0
  187.2900  178.1320  140.9070 C   0  0  0  0  0  0  0  0  0  0  0  0
  186.0950  178.5430  145.6180 C   0  0  0  0  0  0  0  0  0  0  0  0
  188.6060  177.3640  146.2850 C   0  0  0  0  0  3  0  0  0  0  0  0
  188.0870  177.5690  148.5920 O   0  0  0  0  0  1  0  0  0  0  0  0
  187.0100  178.1590  144.6180 C   0  0  0  0  0  0  0  0  0  0  0  0
  186.5170  178.5350  147.0610 C   0  0  0  0  0  2  0  0  0  0  0  0
  188.3460  177.6740  145.0120 C   0  0  0  0  0  3  0  0  0  0  0  0
  187.5640  177.9290  142.2640 O   0  0  0  0  0  0  0  0  0  0  0  0
  186.6490  178.2640  143.2660 C   0  0  2  0  0  3  0  0  0  0  0  0
  184.4690  179.1130  143.9190 C   0  0  0  0  0  3  0  0  0  0  0  0
  184.9430  178.7810  141.4710 C   0  0  0  0  0  0  0  0  0  0  0  0
  186.0860  178.5650  140.5110 C   0  0  0  0  0  3  0  0  0  0  0  0
  184.8360  179.0320  145.2640 C   0  0  0  0  0  3  0  0  0  0  0  0
  188.3780  177.8900  139.9120 C   0  0  1  0  0  3  0  0  0  0  0  0
  188.7530  179.0840  139.2910 O   0  0  0  0  0  1  0  0  0  0  0  0
  189.5810  177.2370  140.5750 C   0  0  0  0  0  2  0  0  0  0  0  0
  190.8030  177.3130  139.6740 C   0  0  1  0  0  3  0  0  0  0  0  0
  192.0370  177.5140  140.5300 C   0  0  0  0  0  1  0  0  0  0  0  0
  190.9310  176.1260  138.9450 O   0  0  0  0  0  0  0  0  0  0  0  0
  191.3550  176.5190  137.6680 C   0  0  2  0  0  3  0  0  0  0  0  0
  190.8400  174.6170  136.2640 C   0  0  0  0  0  2  0  0  0  0  0  0
  190.1380  176.8860  136.8400 C   0  0  0  0  0  2  0  0  0  0  0  0
  191.9940  175.3580  136.9130 C   0  0  1  0  0  0  0  0  0  0  0  0
  192.8190  175.8710  135.9260 F   0  0  0  0  0  0  0  0  0  0  0  0
  189.7050  175.6180  136.1250 C   0  0  0  0  0  2  0  0  0  0  0  0
  192.8060  174.4410  137.8290 C   0  0  0  0  0  2  0  0  0  0  0  0
  194.2140  174.4380  137.4530 N   0  0  0  0  0  0  0  0  0  0  0  0
  196.5680  175.0310  140.1730 N   0  0  0  0  0  1  0  0  0  0  0  0
  195.6630  173.2660  138.8540 N   0  0  0  0  0  0  0  0  0  0  0  0
  195.7320  174.5100  139.1460 C   0  0  0  0  0  0  0  0  0  0  0  0
  194.7350  173.1780  137.8130 N   0  0  0  0  0  2  0  0  0  0  0  0
  194.8760  175.3030  138.3440 N   0  0  0  0  0  2  0  0  0  0  0  0
  183.8550  177.7460  141.2100 C   0  0  0  0  0  2  0  0  0  0  0  0
  180.7400  177.8610  139.0060 C   0  0  0  0  0  2  0  0  0  0  0  0
  181.5360  178.3640  137.7910 C   0  0  0  0  0  0  0  0  0  0  0  0
  181.6600  177.2390  136.7820 C   0  0  0  0  0  1  0  0  0  0  0  0
  183.0010  179.4280  139.5710 C   0  0  0  0  0  2  0  0  0  0  0  0
  181.6560  177.3040  140.0920 C   0  0  0  0  0  2  0  0  0  0  0  0
  182.6050  178.3880  140.6280 C   0  0  0  0  0  3  0  0  0  0  0  0
  180.7690  179.5020  137.1490 C   0  0  0  0  0  1  0  0  0  0  0  0
  182.9470  178.8500  138.1570 C   0  0  0  0  0  2  0  0  0  0  0  0
  1  6  1  1  0  0  0
  2 11  1  0  0  0  0
  2 12  1  0  0  0  0
  3 10  1  0  0  0  0
  4  8  1  0  0  0  0
  5  1  1  0  0  0  0
  7  9  1  0  0  0  0
  7  4  2  0  0  0  0
  8  1  1  0  0  0  0
  9  5  2  0  0  0  0
 11 10  1  6  0  0  0
 11  7  1  0  0  0  0
 12 15  2  0  0  0  0
 13  2  2  0  0  0  0
 14  3  2  0  0  0  0
 14 13  1  0  0  0  0
 15  4  1  0  0  0  0
 16 17  1  1  0  0  0
 16 18  1  0  0  0  0
 16  3  1  0  0  0  0
 19 20  1  1  0  0  0
 19 18  1  0  0  0  0
 21 19  1  0  0  0  0
 22 21  1  1  0  0  0
 23 25  1  0  0  0  0
 24 22  1  0  0  0  0
 25 26  1  6  0  0  0
 25 22  1  0  0  0  0
 25 28  1  0  0  0  0
 27 23  1  0  0  0  0
 27 24  1  0  0  0  0
 29 33  1  0  0  0  0
 29 28  1  0  0  0  0
 29 34  1  0  0  0  0
 31 32  2  0  0  0  0
 32 30  1  0  0  0  0
 33 31  1  0  0  0  0
 34 32  1  0  0  0  0
 35 13  1  0  0  0  0
 36 40  1  0  0  0  0
 37 43  1  0  0  0  0
 37 36  1  0  0  0  0
 38 37  1  0  0  0  0
 39 41  1  0  0  0  0
 40 41  1  0  0  0  0
 41 35  1  0  0  0  0
 42 37  1  0  0  0  0
 43 39  1  0  0  0  0
M  END
>  <MODEL>
1

>  <REMARK>
 VINA RESULT:      -9.9      0.000      0.000
  Name = 
  9 active torsions:
  status: ('A' for Active; 'I' for Inactive)
    1  A    between atoms: C_1  and  C_34
    2  A    between atoms: C_1  and  C_35
    3  A    between atoms: C_2  and  C_6
    4  A    between atoms: C_2  and  C_13
    5  A    between atoms: O_3  and  C_4
    6  A    between atoms: O_3  and  C_12
    7  A    between atoms: C_6  and  C_12
    8  A    between atoms: N_11  and  C_14
    9  A    between atoms: C_14  and  C_22
                            x       y       z     vdW  Elec       q    Type
                         _______ _______ _______ _____ _____    ______ ____

>  <TORSDO>
F 9

$$$$
=
 OpenBabel10272414053D

 43 48  0  0  1  0  0  0  0  0999 V2000
  184.3940  176.7990  135.3320 C   0  0  1  0  0  3  0  0  0  0  0  0
  189.0610  177.2480  137.3010 C   0  0  0  0  0  0  0  0  0  0  0  0
  188.6860  177.7800  140.0670 C   0  0  0  0  0  0  0  0  0  0  0  0
  186.8410  177.2390  135.5850 C   0  0  0  0  0  0  0  0  0  0  0  0
  184.2270  177.3460  136.7230 C   0  0  0  0  0  3  0  0  0  0  0  0
  183.2780  177.1160  134.5600 O   0  0  0  0  0  1  0  0  0  0  0  0
  186.6550  177.4070  136.9710 C   0  0  0  0  0  0  0  0  0  0  0  0
  185.6630  177.3290  134.6550 C   0  0  0  0  0  2  0  0  0  0  0  0
  185.2900  177.5860  137.4980 C   0  0  0  0  0  3  0  0  0  0  0  0
  187.5990  177.6350  139.1980 O   0  0  0  0  0  0  0  0  0  0  0  0
  187.7680  177.4240  137.8260 C   0  0  0  0  0  0  0  0  0  0  0  0
  189.2340  177.0900  135.9190 C   0  0  0  0  0  2  0  0  0  0  0  0
  190.2570  177.1970  138.2140 C   0  0  0  0  0  0  0  0  0  0  0  0
  189.9400  177.6170  139.6270 C   0  0  0  0  0  3  0  0  0  0  0  0
  188.1290  177.0970  135.0640 C   0  0  0  0  0  3  0  0  0  0  0  0
  188.4200  178.1540  141.4900 C   0  0  1  0  0  3  0  0  0  0  0  0
  187.1840  178.7930  141.6090 O   0  0  0  0  0  1  0  0  0  0  0  0
  188.4710  176.9280  142.3900 C   0  0  0  0  0  2  0  0  0  0  0  0
  189.5010  177.1090  143.4930 C   0  0  1  0  0  3  0  0  0  0  0  0
  189.8930  178.5710  143.5670 C   0  0  0  0  0  1  0  0  0  0  0  0
  188.9590  176.7100  144.7190 O   0  0  0  0  0  0  0  0  0  0  0  0
  189.4370  177.6380  145.6540 C   0  0  2  0  0  3  0  0  0  0  0  0
  189.0430  176.5770  147.7940 C   0  0  0  0  0  2  0  0  0  0  0  0
  190.7790  177.1630  146.1750 C   0  0  0  0  0  2  0  0  0  0  0  0
  188.5440  177.6910  146.8910 C   0  0  1  0  0  0  0  0  0  0  0  0
  188.7330  178.9090  147.5230 F   0  0  0  0  0  0  0  0  0  0  0  0
  190.4900  176.3200  147.4060 C   0  0  0  0  0  2  0  0  0  0  0  0
  187.0640  177.5180  146.5500 C   0  0  0  0  0  2  0  0  0  0  0  0
  186.4380  178.8020  146.2630 N   0  0  0  0  0  0  0  0  0  0  0  0
  183.9230  178.7700  143.6240 N   0  0  0  0  0  1  0  0  0  0  0  0
  184.1210  178.7970  145.9970 N   0  0  0  0  0  0  0  0  0  0  0  0
  184.6640  178.7880  144.8380 C   0  0  0  0  0  0  0  0  0  0  0  0
  185.1840  178.8040  146.9060 N   0  0  0  0  0  2  0  0  0  0  0  0
  186.0780  178.7860  144.9030 N   0  0  0  0  0  2  0  0  0  0  0  0
  190.8460  175.7920  138.2200 C   0  0  0  0  0  2  0  0  0  0  0  0
  193.5200  173.8910  136.2650 C   0  0  0  0  0  2  0  0  0  0  0  0
  194.6220  174.2830  137.2610 C   0  0  0  0  0  0  0  0  0  0  0  0
  194.9990  173.0680  138.0840 C   0  0  0  0  0  1  0  0  0  0  0  0
  193.1920  176.3580  137.5660 C   0  0  0  0  0  2  0  0  0  0  0  0
  192.1260  174.1390  136.8360 C   0  0  0  0  0  2  0  0  0  0  0  0
  191.9090  175.6290  137.1420 C   0  0  0  0  0  3  0  0  0  0  0  0
  195.8410  174.7300  136.4800 C   0  0  0  0  0  1  0  0  0  0  0  0
  194.1970  175.4080  138.2170 C   0  0  0  0  0  2  0  0  0  0  0  0
  1  6  1  6  0  0  0
  1  5  1  0  0  0  0
  2 11  1  0  0  0  0
  2 13  2  0  0  0  0
  3 16  1  0  0  0  0
  4  7  1  0  0  0  0
  5  9  2  0  0  0  0
  7  9  1  0  0  0  0
  7 11  2  0  0  0  0
  8  1  1  0  0  0  0
  8  4  1  0  0  0  0
 10  3  1  0  0  0  0
 11 10  1  0  0  0  0
 12  2  1  0  0  0  0
 13 35  1  0  0  0  0
 13 14  1  0  0  0  0
 14  3  2  0  0  0  0
 15  4  2  0  0  0  0
 15 12  1  0  0  0  0
 16 17  1  6  0  0  0
 16 18  1  0  0  0  0
 18 19  1  0  0  0  0
 19 20  1  1  0  0  0
 19 21  1  0  0  0  0
 22 21  1  6  0  0  0
 22 24  1  0  0  0  0
 22 25  1  0  0  0  0
 24 27  1  0  0  0  0
 25 26  1  1  0  0  0
 25 23  1  0  0  0  0
 27 23  1  0  0  0  0
 28 25  1  0  0  0  0
 29 28  1  0  0  0  0
 29 33  1  0  0  0  0
 30 32  1  0  0  0  0
 31 33  1  0  0  0  0
 32 34  1  0  0  0  0
 32 31  2  0  0  0  0
 34 29  1  0  0  0  0
 36 40  1  0  0  0  0
 36 37  1  0  0  0  0
 37 38  1  0  0  0  0
 37 43  1  0  0  0  0
 39 43  1  0  0  0  0
 40 41  1  0  0  0  0
 41 39  1  0  0  0  0
 41 35  1  0  0  0  0
 42 37  1  0  0  0  0
M  END
>  <MODEL>
2

>  <REMARK>
 VINA RESULT:      -9.1      5.233     10.317
  Name = 
  9 active torsions:
  status: ('A' for Active; 'I' for Inactive)
    1  A    between atoms: C_1  and  C_34
    2  A    between atoms: C_1  and  C_35
    3  A    between atoms: C_2  and  C_6
    4  A    between atoms: C_2  and  C_13
    5  A    between atoms: O_3  and  C_4
    6  A    between atoms: O_3  and  C_12
    7  A    between atoms: C_6  and  C_12
    8  A    between atoms: N_11  and  C_14
    9  A    between atoms: C_14  and  C_22
                            x       y       z     vdW  Elec       q    Type
                         _______ _______ _______ _____ _____    ______ ____

>  <TORSDO>
F 9

$$$$
=
 OpenBabel10272414053D

 43 48  0  0  1  0  0  0  0  0999 V2000
  187.6630  177.2760  147.3150 C   0  0  1  0  0  3  0  0  0  0  0  0
  185.3720  178.6750  142.9970 C   0  0  0  0  0  0  0  0  0  0  0  0
  187.3230  178.3740  140.9520 C   0  0  0  0  0  0  0  0  0  0  0  0
  186.1320  178.3870  145.6820 C   0  0  0  0  0  0  0  0  0  0  0  0
  188.7390  177.3880  146.2690 C   0  0  0  0  0  3  0  0  0  0  0  0
  188.2220  177.4040  148.5860 O   0  0  0  0  0  1  0  0  0  0  0  0
  187.0690  178.1450  144.6580 C   0  0  0  0  0  0  0  0  0  0  0  0
  186.5630  178.3250  147.1210 C   0  0  0  0  0  2  0  0  0  0  0  0
  188.4440  177.7530  145.0180 C   0  0  0  0  0  3  0  0  0  0  0  0
  187.6240  178.1100  142.2930 O   0  0  0  0  0  0  0  0  0  0  0  0
  186.6910  178.3030  143.3160 C   0  0  2  0  0  3  0  0  0  0  0  0
  184.4510  178.9200  144.0250 C   0  0  0  0  0  3  0  0  0  0  0  0
  184.9340  178.7820  141.5600 C   0  0  0  0  0  0  0  0  0  0  0  0
  186.0840  178.7250  140.5860 C   0  0  0  0  0  3  0  0  0  0  0  0
  184.8330  178.7870  145.3620 C   0  0  0  0  0  3  0  0  0  0  0  0
  188.4210  178.2880  139.9420 C   0  0  1  0  0  3  0  0  0  0  0  0
  189.6210  177.9090  140.5480 O   0  0  0  0  0  1  0  0  0  0  0  0
  188.0580  177.3130  138.8310 C   0  0  0  0  0  2  0  0  0  0  0  0
  187.9500  178.0310  137.4960 C   0  0  1  0  0  3  0  0  0  0  0  0
  188.9640  179.1570  137.4560 C   0  0  0  0  0  1  0  0  0  0  0  0
  188.2090  177.1350  136.4530 O   0  0  0  0  0  0  0  0  0  0  0  0
  189.0580  176.1640  137.0010 C   0  0  2  0  0  3  0  0  0  0  0  0
  189.5700  174.7070  135.1380 C   0  0  0  0  0  2  0  0  0  0  0  0
  190.4830  176.4630  136.5740 C   0  0  0  0  0  2  0  0  0  0  0  0
  188.7680  174.7820  136.4250 C   0  0  1  0  0  0  0  0  0  0  0  0
  189.2360  173.8250  137.3090 F   0  0  0  0  0  0  0  0  0  0  0  0
  190.7140  175.6970  135.2820 C   0  0  0  0  0  2  0  0  0  0  0  0
  187.2770  174.5560  136.1710 C   0  0  0  0  0  2  0  0  0  0  0  0
  186.5380  174.4810  137.4240 N   0  0  0  0  0  0  0  0  0  0  0  0
  182.9380  174.0110  137.0990 N   0  0  0  0  0  1  0  0  0  0  0  0
  184.9300  172.8000  137.5860 N   0  0  0  0  0  0  0  0  0  0  0  0
  184.3420  173.8980  137.2910 C   0  0  0  0  0  0  0  0  0  0  0  0
  186.2880  173.1160  137.6750 N   0  0  0  0  0  2  0  0  0  0  0  0
  185.2470  174.9800  137.1680 N   0  0  0  0  0  2  0  0  0  0  0  0
  183.9370  177.6760  141.2370 C   0  0  0  0  0  2  0  0  0  0  0  0
  180.9270  177.7730  138.8900 C   0  0  0  0  0  2  0  0  0  0  0  0
  181.6940  178.5790  137.8310 C   0  0  0  0  0  0  0  0  0  0  0  0
  182.0130  177.6750  136.6570 C   0  0  0  0  0  1  0  0  0  0  0  0
  182.9250  179.4950  139.8530 C   0  0  0  0  0  2  0  0  0  0  0  0
  181.8660  177.1560  139.9230 C   0  0  0  0  0  2  0  0  0  0  0  0
  182.6340  178.2430  140.6930 C   0  0  0  0  0  3  0  0  0  0  0  0
  180.8040  179.7030  137.3420 C   0  0  0  0  0  1  0  0  0  0  0  0
  183.0080  179.1720  138.3620 C   0  0  0  0  0  2  0  0  0  0  0  0
  1  6  1  1  0  0  0
  2 11  1  0  0  0  0
  2 12  1  0  0  0  0
  3 10  1  0  0  0  0
  4  8  1  0  0  0  0
  5  1  1  0  0  0  0
  7  9  1  0  0  0  0
  7  4  2  0  0  0  0
  8  1  1  0  0  0  0
  9  5  2  0  0  0  0
 11 10  1  1  0  0  0
 11  7  1  0  0  0  0
 12 15  2  0  0  0  0
 13  2  2  0  0  0  0
 14  3  2  0  0  0  0
 14 13  1  0  0  0  0
 15  4  1  0  0  0  0
 16 17  1  1  0  0  0
 16  3  1  0  0  0  0
 18 16  1  0  0  0  0
 19 20  1  1  0  0  0
 19 18  1  0  0  0  0
 21 19  1  0  0  0  0
 22 21  1  6  0  0  0
 23 27  1  0  0  0  0
 23 25  1  0  0  0  0
 24 22  1  0  0  0  0
 25 22  1  0  0  0  0
 25 26  1  1  0  0  0
 27 24  1  0  0  0  0
 28 25  1  0  0  0  0
 28 29  1  0  0  0  0
 29 33  1  0  0  0  0
 30 32  1  0  0  0  0
 31 33  1  0  0  0  0
 32 31  2  0  0  0  0
 34 32  1  0  0  0  0
 34 29  1  0  0  0  0
 35 13  1  0  0  0  0
 36 40  1  0  0  0  0
 37 43  1  0  0  0  0
 37 36  1  0  0  0  0
 38 37  1  0  0  0  0
 39 41  1  0  0  0  0
 40 41  1  0  0  0  0
 41 35  1  0  0  0  0
 42 37  1  0  0  0  0
 43 39  1  0  0  0  0
M  END
>  <MODEL>
3

>  <REMARK>
 VINA RESULT:      -9.1      3.438      4.329
  Name = 
  9 active torsions:
  status: ('A' for Active; 'I' for Inactive)
    1  A    between atoms: C_1  and  C_34
    2  A    between atoms: C_1  and  C_35
    3  A    between atoms: C_2  and  C_6
    4  A    between atoms: C_2  and  C_13
    5  A    between atoms: O_3  and  C_4
    6  A    between atoms: O_3  and  C_12
    7  A    between atoms: C_6  and  C_12
    8  A    between atoms: N_11  and  C_14
    9  A    between atoms: C_14  and  C_22
                            x       y       z     vdW  Elec       q    Type
                         _______ _______ _______ _____ _____    ______ ____

>  <TORSDO>
F 9

$$$$
=
 OpenBabel10272414053D

 43 48  0  0  1  0  0  0  0  0999 V2000
  193.2120  174.3420  135.9500 C   0  0  1  0  0  3  0  0  0  0  0  0
  190.7560  177.3880  139.1970 C   0  0  0  0  0  0  0  0  0  0  0  0
  188.2450  177.9450  137.9860 C   0  0  0  0  0  0  0  0  0  0  0  0
  192.7220  176.0260  137.7300 C   0  0  0  0  0  0  0  0  0  0  0  0
  192.0060  174.8690  135.2220 C   0  0  0  0  0  3  0  0  0  0  0  0
  194.1810  173.9380  135.0330 O   0  0  0  0  0  1  0  0  0  0  0  0
  191.4420  176.2220  137.1740 C   0  0  0  0  0  0  0  0  0  0  0  0
  193.8030  175.3810  136.9090 C   0  0  0  0  0  2  0  0  0  0  0  0
  191.1600  175.7150  135.8180 C   0  0  0  0  0  3  0  0  0  0  0  0
  189.2050  177.1560  137.3440 O   0  0  0  0  0  0  0  0  0  0  0  0
  190.4640  176.9150  137.9040 C   0  0  2  0  0  3  0  0  0  0  0  0
  192.0350  177.1940  139.7350 C   0  0  0  0  0  3  0  0  0  0  0  0
  189.6960  178.0740  140.0170 C   0  0  0  0  0  0  0  0  0  0  0  0
  188.4620  178.4180  139.2200 C   0  0  0  0  0  3  0  0  0  0  0  0
  193.0170  176.5250  139.0000 C   0  0  0  0  0  3  0  0  0  0  0  0
  186.9850  178.2780  137.2540 C   0  0  1  0  0  3  0  0  0  0  0  0
  187.1160  179.4920  136.5750 O   0  0  0  0  0  1  0  0  0  0  0  0
  186.6150  177.1650  136.2830 C   0  0  0  0  0  2  0  0  0  0  0  0
  185.1570  176.7670  136.4490 C   0  0  1  0  0  3  0  0  0  0  0  0
  185.0890  175.3480  136.9770 C   0  0  0  0  0  1  0  0  0  0  0  0
  184.5290  177.6310  137.3530 O   0  0  0  0  0  0  0  0  0  0  0  0
  183.2490  177.0930  137.5500 C   0  0  2  0  0  3  0  0  0  0  0  0
  182.0210  178.8750  138.6340 C   0  0  0  0  0  2  0  0  0  0  0  0
  182.3070  177.6840  136.5180 C   0  0  0  0  0  2  0  0  0  0  0  0
  182.6650  177.5250  138.8910 C   0  0  1  0  0  0  0  0  0  0  0  0
  181.6870  176.6170  139.2620 F   0  0  0  0  0  0  0  0  0  0  0  0
  181.7020  178.9260  137.1480 C   0  0  0  0  0  2  0  0  0  0  0  0
  183.7250  177.6090  139.9900 C   0  0  0  0  0  2  0  0  0  0  0  0
  183.7340  178.9280  140.6100 N   0  0  0  0  0  0  0  0  0  0  0  0
  185.0380  179.0560  144.0120 N   0  0  0  0  0  1  0  0  0  0  0  0
  185.6710  179.5230  141.7640 N   0  0  0  0  0  0  0  0  0  0  0  0
  184.8010  179.1180  142.6110 C   0  0  0  0  0  0  0  0  0  0  0  0
  185.0520  179.4200  140.5150 N   0  0  0  0  0  2  0  0  0  0  0  0
  183.5870  178.7290  141.9950 N   0  0  0  0  0  2  0  0  0  0  0  0
  189.3090  177.1980  141.2030 C   0  0  0  0  0  2  0  0  0  0  0  0
  190.4110  178.7050  144.5330 C   0  0  0  0  0  2  0  0  0  0  0  0
  189.9890  177.4530  145.3170 C   0  0  0  0  0  0  0  0  0  0  0  0
  191.2310  176.7030  145.7580 C   0  0  0  0  0  1  0  0  0  0  0  0
  188.2580  177.2490  143.4710 C   0  0  0  0  0  2  0  0  0  0  0  0
  190.4940  178.4350  143.0340 C   0  0  0  0  0  2  0  0  0  0  0  0
  189.1250  178.0240  142.4680 C   0  0  0  0  0  3  0  0  0  0  0  0
  189.2290  177.8900  146.5520 C   0  0  0  0  0  1  0  0  0  0  0  0
  189.1080  176.4980  144.4950 C   0  0  0  0  0  2  0  0  0  0  0  0
  1  6  1  6  0  0  0
  1  8  1  0  0  0  0
  2 12  1  0  0  0  0
  2 13  2  0  0  0  0
  3 14  2  0  0  0  0
  4 15  1  0  0  0  0
  5  9  2  0  0  0  0
  5  1  1  0  0  0  0
  7  4  2  0  0  0  0
  8  4  1  0  0  0  0
  9  7  1  0  0  0  0
 10 11  1  0  0  0  0
 10  3  1  0  0  0  0
 11  7  1  6  0  0  0
 11  2  1  0  0  0  0
 13 35  1  0  0  0  0
 14 13  1  0  0  0  0
 15 12  2  0  0  0  0
 16 17  1  6  0  0  0
 16  3  1  0  0  0  0
 18 19  1  0  0  0  0
 18 16  1  0  0  0  0
 19 20  1  1  0  0  0
 19 21  1  0  0  0  0
 22 21  1  6  0  0  0
 22 25  1  0  0  0  0
 23 25  1  0  0  0  0
 24 27  1  0  0  0  0
 24 22  1  0  0  0  0
 25 26  1  1  0  0  0
 25 28  1  0  0  0  0
 27 23  1  0  0  0  0
 28 29  1  0  0  0  0
 29 34  1  0  0  0  0
 31 32  2  0  0  0  0
 32 30  1  0  0  0  0
 33 29  1  0  0  0  0
 33 31  1  0  0  0  0
 34 32  1  0  0  0  0
 35 41  1  0  0  0  0
 36 37  1  0  0  0  0
 37 38  1  0  0  0  0
 37 42  1  0  0  0  0
 39 43  1  0  0  0  0
 40 36  1  0  0  0  0
 41 40  1  0  0  0  0
 41 39  1  0  0  0  0
 43 37  1  0  0  0  0
M  END
>  <MODEL>
4

>  <REMARK>
 VINA RESULT:      -9.0      4.951      9.602
  Name = 
  9 active torsions:
  status: ('A' for Active; 'I' for Inactive)
    1  A    between atoms: C_1  and  C_34
    2  A    between atoms: C_1  and  C_35
    3  A    between atoms: C_2  and  C_6
    4  A    between atoms: C_2  and  C_13
    5  A    between atoms: O_3  and  C_4
    6  A    between atoms: O_3  and  C_12
    7  A    between atoms: C_6  and  C_12
    8  A    between atoms: N_11  and  C_14
    9  A    between atoms: C_14  and  C_22
                            x       y       z     vdW  Elec       q    Type
                         _______ _______ _______ _____ _____    ______ ____

>  <TORSDO>
F 9

$$$$
=
 OpenBabel10272414053D

 43 48  0  0  1  0  0  0  0  0999 V2000
  194.8430  175.0640  135.7230 C   0  0  1  0  0  3  0  0  0  0  0  0
  190.1610  176.4140  137.1750 C   0  0  0  0  0  0  0  0  0  0  0  0
  190.3260  176.8960  139.9710 C   0  0  0  0  0  0  0  0  0  0  0  0
  192.3570  175.2930  135.8360 C   0  0  0  0  0  0  0  0  0  0  0  0
  194.8370  175.0590  137.2280 C   0  0  0  0  0  3  0  0  0  0  0  0
  195.8670  174.2450  135.2500 O   0  0  0  0  0  1  0  0  0  0  0  0
  192.4620  175.6250  137.2010 C   0  0  0  0  0  0  0  0  0  0  0  0
  193.5000  174.6060  135.1430 C   0  0  0  0  0  2  0  0  0  0  0  0
  193.7300  175.3660  137.9100 C   0  0  0  0  0  3  0  0  0  0  0  0
  191.4370  176.4630  139.2380 O   0  0  0  0  0  0  0  0  0  0  0  0
  191.3590  176.1730  137.8730 C   0  0  0  0  0  0  0  0  0  0  0  0
  190.0660  176.0720  135.8190 C   0  0  0  0  0  2  0  0  0  0  0  0
  188.9910  177.0630  137.8660 C   0  0  0  0  0  0  0  0  0  0  0  0
  189.1610  177.1480  139.3620 C   0  0  0  0  0  3  0  0  0  0  0  0
  191.1560  175.5040  135.1560 C   0  0  0  0  0  3  0  0  0  0  0  0
  190.4580  177.0380  141.4530 C   0  0  1  0  0  3  0  0  0  0  0  0
  191.7670  177.3760  141.8020 O   0  0  0  0  0  1  0  0  0  0  0  0
  189.4820  178.0780  141.9850 C   0  0  0  0  0  2  0  0  0  0  0  0
  188.2420  177.4120  142.5590 C   0  0  1  0  0  3  0  0  0  0  0  0
  188.6550  176.1600  143.3060 C   0  0  0  0  0  1  0  0  0  0  0  0
  187.5970  178.2880  143.4390 O   0  0  0  0  0  0  0  0  0  0  0  0
  186.5730  177.5330  144.0280 C   0  0  2  0  0  3  0  0  0  0  0  0
  185.3240  179.1460  145.3290 C   0  0  0  0  0  2  0  0  0  0  0  0
  185.2780  177.8040  143.2860 C   0  0  0  0  0  2  0  0  0  0  0  0
  186.2970  177.9890  145.4570 C   0  0  1  0  0  0  0  0  0  0  0  0
  185.6860  176.9530  146.1440 F   0  0  0  0  0  0  0  0  0  0  0  0
  184.6070  178.9650  144.0010 C   0  0  0  0  0  2  0  0  0  0  0  0
  187.5710  178.4060  146.1930 C   0  0  0  0  0  2  0  0  0  0  0  0
  188.0080  177.3640  147.1140 N   0  0  0  0  0  0  0  0  0  0  0  0
  191.6160  176.9170  147.3820 N   0  0  0  0  0  1  0  0  0  0  0  0
  189.7800  177.9040  148.5320 N   0  0  0  0  0  0  0  0  0  0  0  0
  190.2400  177.2370  147.5410 C   0  0  0  0  0  0  0  0  0  0  0  0
  188.4040  178.0060  148.3060 N   0  0  0  0  0  2  0  0  0  0  0  0
  189.2290  176.8690  146.6210 N   0  0  0  0  0  2  0  0  0  0  0  0
  188.7620  178.4590  137.2980 C   0  0  0  0  0  2  0  0  0  0  0  0
  185.0220  177.6990  137.4140 C   0  0  0  0  0  2  0  0  0  0  0  0
  185.1280  176.6690  136.2800 C   0  0  0  0  0  0  0  0  0  0  0  0
  184.9720  175.2770  136.8600 C   0  0  0  0  0  1  0  0  0  0  0  0
  187.0380  178.1540  135.5130 C   0  0  0  0  0  2  0  0  0  0  0  0
  186.3900  178.0440  137.9960 C   0  0  0  0  0  2  0  0  0  0  0  0
  187.3020  178.6780  136.9330 C   0  0  0  0  0  3  0  0  0  0  0  0
  183.9960  176.9100  135.3020 C   0  0  0  0  0  1  0  0  0  0  0  0
  186.4660  176.7370  135.5280 C   0  0  0  0  0  2  0  0  0  0  0  0
  1  6  1  6  0  0  0
  1  5  1  0  0  0  0
  2 13  2  0  0  0  0
  2 11  1  0  0  0  0
  3 16  1  0  0  0  0
  4  7  1  0  0  0  0
  5  9  2  0  0  0  0
  7 11  2  0  0  0  0
  7  9  1  0  0  0  0
  8  1  1  0  0  0  0
  8  4  1  0  0  0  0
 10  3  1  0  0  0  0
 11 10  1  0  0  0  0
 12  2  1  0  0  0  0
 13 14  1  0  0  0  0
 14  3  2  0  0  0  0
 15 12  1  0  0  0  0
 15  4  2  0  0  0  0
 16 17  1  6  0  0  0
 16 18  1  0  0  0  0
 18 19  1  0  0  0  0
 19 20  1  1  0  0  0
 19 21  1  0  0  0  0
 22 21  1  6  0  0  0
 22 25  1  0  0  0  0
 23 25  1  0  0  0  0
 24 27  1  0  0  0  0
 24 22  1  0  0  0  0
 25 26  1  1  0  0  0
 25 28  1  0  0  0  0
 27 23  1  0  0  0  0
 28 29  1  0  0  0  0
 29 33  1  0  0  0  0
 30 32  1  0  0  0  0
 32 31  2  0  0  0  0
 33 31  1  0  0  0  0
 34 29  1  0  0  0  0
 34 32  1  0  0  0  0
 35 13  1  0  0  0  0
 36 40  1  0  0  0  0
 37 38  1  0  0  0  0
 37 36  1  0  0  0  0
 39 43  1  0  0  0  0
 39 41  1  0  0  0  0
 41 35  1  0  0  0  0
 41 40  1  0  0  0  0
 42 37  1  0  0  0  0
 43 37  1  0  0  0  0
M  END
>  <MODEL>
5

>  <REMARK>
 VINA RESULT:      -9.0      4.633      8.883
  Name = 
  9 active torsions:
  status: ('A' for Active; 'I' for Inactive)
    1  A    between atoms: C_1  and  C_34
    2  A    between atoms: C_1  and  C_35
    3  A    between atoms: C_2  and  C_6
    4  A    between atoms: C_2  and  C_13
    5  A    between atoms: O_3  and  C_4
    6  A    between atoms: O_3  and  C_12
    7  A    between atoms: C_6  and  C_12
    8  A    between atoms: N_11  and  C_14
    9  A    between atoms: C_14  and  C_22
                            x       y       z     vdW  Elec       q    Type
                         _______ _______ _______ _____ _____    ______ ____

>  <TORSDO>
F 9

$$$$
=
 OpenBabel10272414053D

 43 48  0  0  1  0  0  0  0  0999 V2000
  187.6690  177.2430  147.1480 C   0  0  1  0  0  3  0  0  0  0  0  0
  185.0940  178.6740  143.0040 C   0  0  0  0  0  0  0  0  0  0  0  0
  186.8730  178.3000  140.8190 C   0  0  0  0  0  0  0  0  0  0  0  0
  186.0500  178.3850  145.6250 C   0  0  0  0  0  0  0  0  0  0  0  0
  188.6650  177.3150  146.0210 C   0  0  0  0  0  3  0  0  0  0  0  0
  188.3270  177.3650  148.3700 O   0  0  0  0  0  1  0  0  0  0  0  0
  186.8980  178.1090  144.5350 C   0  0  0  0  0  0  0  0  0  0  0  0
  186.5880  178.3230  147.0270 C   0  0  0  0  0  2  0  0  0  0  0  0
  188.2850  177.6790  144.7930 C   0  0  0  0  0  3  0  0  0  0  0  0
  187.2680  178.0380  142.1350 O   0  0  0  0  0  0  0  0  0  0  0  0
  186.4220  178.2660  143.2240 C   0  0  2  0  0  3  0  0  0  0  0  0
  184.2620  178.9550  144.0960 C   0  0  0  0  0  3  0  0  0  0  0  0
  184.5500  178.7830  141.6040 C   0  0  0  0  0  0  0  0  0  0  0  0
  185.6200  178.6840  140.5450 C   0  0  0  0  0  3  0  0  0  0  0  0
  184.7420  178.8210  145.4010 C   0  0  0  0  0  3  0  0  0  0  0  0
  187.8870  178.1740  139.7280 C   0  0  1  0  0  3  0  0  0  0  0  0
  187.4300  178.7850  138.5570 O   0  0  0  0  0  1  0  0  0  0  0  0
  189.2180  178.7760  140.1550 C   0  0  0  0  0  2  0  0  0  0  0  0
  190.3550  177.7960  139.9170 C   0  0  1  0  0  3  0  0  0  0  0  0
  190.1090  176.5450  140.7360 C   0  0  0  0  0  1  0  0  0  0  0  0
  190.4150  177.4590  138.5600 O   0  0  0  0  0  0  0  0  0  0  0  0
  190.9260  176.1540  138.5250 C   0  0  2  0  0  3  0  0  0  0  0  0
  191.2670  175.7160  136.1700 C   0  0  0  0  0  2  0  0  0  0  0  0
  192.4190  176.2190  138.2660 C   0  0  0  0  0  2  0  0  0  0  0  0
  190.3670  175.3690  137.3420 C   0  0  1  0  0  0  0  0  0  0  0  0
  190.4760  174.0160  137.6160 F   0  0  0  0  0  0  0  0  0  0  0  0
  192.5980  176.1530  136.7590 C   0  0  0  0  0  2  0  0  0  0  0  0
  188.9060  175.7140  137.0510 C   0  0  0  0  0  2  0  0  0  0  0  0
  188.7240  176.0800  135.6520 N   0  0  0  0  0  0  0  0  0  0  0  0
  185.3670  177.1700  134.7390 N   0  0  0  0  0  1  0  0  0  0  0  0
  187.5280  178.0390  135.2360 N   0  0  0  0  0  0  0  0  0  0  0  0
  186.7390  177.0410  135.0900 C   0  0  0  0  0  0  0  0  0  0  0  0
  188.7640  177.4880  135.5850 N   0  0  0  0  0  2  0  0  0  0  0  0
  187.3820  175.8030  135.3290 N   0  0  0  0  0  2  0  0  0  0  0  0
  183.5000  177.7040  141.3690 C   0  0  0  0  0  2  0  0  0  0  0  0
  180.6090  177.8540  138.8790 C   0  0  0  0  0  2  0  0  0  0  0  0
  181.4310  178.6740  137.8720 C   0  0  0  0  0  0  0  0  0  0  0  0
  181.8040  177.7880  136.7000 C   0  0  0  0  0  1  0  0  0  0  0  0
  182.5650  179.5510  139.9680 C   0  0  0  0  0  2  0  0  0  0  0  0
  181.4940  177.2160  139.9460 C   0  0  0  0  0  2  0  0  0  0  0  0
  182.2280  178.2860  140.7710 C   0  0  0  0  0  3  0  0  0  0  0  0
  180.5700  179.8110  137.3590 C   0  0  0  0  0  1  0  0  0  0  0  0
  182.7200  179.2520  138.4770 C   0  0  0  0  0  2  0  0  0  0  0  0
  1  6  1  1  0  0  0
  2 11  1  0  0  0  0
  2 12  1  0  0  0  0
  3 10  1  0  0  0  0
  4  8  1  0  0  0  0
  5  1  1  0  0  0  0
  7  9  1  0  0  0  0
  7  4  2  0  0  0  0
  8  1  1  0  0  0  0
  9  5  2  0  0  0  0
 11 10  1  1  0  0  0
 11  7  1  0  0  0  0
 12 15  2  0  0  0  0
 13  2  2  0  0  0  0
 14  3  2  0  0  0  0
 14 13  1  0  0  0  0
 15  4  1  0  0  0  0
 16 17  1  6  0  0  0
 16 18  1  0  0  0  0
 16  3  1  0  0  0  0
 19 18  1  0  0  0  0
 19 20  1  1  0  0  0
 21 19  1  0  0  0  0
 22 21  1  6  0  0  0
 23 27  1  0  0  0  0
 23 25  1  0  0  0  0
 24 22  1  0  0  0  0
 25 26  1  1  0  0  0
 25 22  1  0  0  0  0
 27 24  1  0  0  0  0
 28 25  1  0  0  0  0
 29 28  1  0  0  0  0
 30 32  1  0  0  0  0
 31 33  1  0  0  0  0
 32 31  2  0  0  0  0
 32 34  1  0  0  0  0
 33 29  1  0  0  0  0
 34 29  1  0  0  0  0
 35 13  1  0  0  0  0
 36 40  1  0  0  0  0
 37 43  1  0  0  0  0
 37 36  1  0  0  0  0
 38 37  1  0  0  0  0
 39 41  1  0  0  0  0
 40 41  1  0  0  0  0
 41 35  1  0  0  0  0
 42 37  1  0  0  0  0
 43 39  1  0  0  0  0
M  END
>  <MODEL>
6

>  <REMARK>
 VINA RESULT:      -8.8      2.773      3.715
  Name = 
  9 active torsions:
  status: ('A' for Active; 'I' for Inactive)
    1  A    between atoms: C_1  and  C_34
    2  A    between atoms: C_1  and  C_35
    3  A    between atoms: C_2  and  C_6
    4  A    between atoms: C_2  and  C_13
    5  A    between atoms: O_3  and  C_4
    6  A    between atoms: O_3  and  C_12
    7  A    between atoms: C_6  and  C_12
    8  A    between atoms: N_11  and  C_14
    9  A    between atoms: C_14  and  C_22
                            x       y       z     vdW  Elec       q    Type
                         _______ _______ _______ _____ _____    ______ ____

>  <TORSDO>
F 9

$$$$
=
 OpenBabel10272414053D

 43 48  0  0  1  0  0  0  0  0999 V2000
  187.8800  177.2160  146.9870 C   0  0  1  0  0  3  0  0  0  0  0  0
  185.2060  178.8000  142.9620 C   0  0  0  0  0  0  0  0  0  0  0  0
  186.8700  178.3490  140.7020 C   0  0  0  0  0  0  0  0  0  0  0  0
  186.2570  178.4480  145.5400 C   0  0  0  0  0  0  0  0  0  0  0  0
  188.8290  177.2450  145.8200 C   0  0  0  0  0  3  0  0  0  0  0  0
  188.5940  177.2980  148.1810 O   0  0  0  0  0  1  0  0  0  0  0  0
  187.0430  178.1350  144.4130 C   0  0  0  0  0  0  0  0  0  0  0  0
  186.8510  178.3500  146.9170 C   0  0  0  0  0  2  0  0  0  0  0  0
  188.4160  177.6350  144.6100 C   0  0  0  0  0  3  0  0  0  0  0  0
  187.3070  178.0600  141.9990 O   0  0  0  0  0  0  0  0  0  0  0  0
  186.5210  178.3240  143.1250 C   0  0  2  0  0  3  0  0  0  0  0  0
  184.4370  179.1150  144.0910 C   0  0  0  0  0  3  0  0  0  0  0  0
  184.6100  178.9440  141.5870 C   0  0  0  0  0  0  0  0  0  0  0  0
  185.6270  178.7980  140.4840 C   0  0  0  0  0  3  0  0  0  0  0  0
  184.9650  178.9500  145.3740 C   0  0  0  0  0  3  0  0  0  0  0  0
  187.8290  178.1790  139.5680 C   0  0  1  0  0  3  0  0  0  0  0  0
  187.3330  178.7810  138.4090 O   0  0  0  0  0  1  0  0  0  0  0  0
  189.1920  178.7550  139.9230 C   0  0  0  0  0  2  0  0  0  0  0  0
  190.2920  177.7380  139.6630 C   0  0  1  0  0  3  0  0  0  0  0  0
  190.0530  176.5190  140.5300 C   0  0  0  0  0  1  0  0  0  0  0  0
  190.2800  177.3600  138.3160 O   0  0  0  0  0  0  0  0  0  0  0  0
  190.8380  176.0740  138.2870 C   0  0  2  0  0  3  0  0  0  0  0  0
  190.9050  175.5110  135.9350 C   0  0  0  0  0  2  0  0  0  0  0  0
  192.2840  176.1770  137.8400 C   0  0  0  0  0  2  0  0  0  0  0  0
  190.1720  175.2020  137.2280 C   0  0  1  0  0  0  0  0  0  0  0  0
  190.3710  173.8720  137.5570 F   0  0  0  0  0  0  0  0  0  0  0  0
  192.2790  176.0290  136.3280 C   0  0  0  0  0  2  0  0  0  0  0  0
  188.6730  175.4770  137.1030 C   0  0  0  0  0  2  0  0  0  0  0  0
  188.0220  174.4690  136.2760 N   0  0  0  0  0  0  0  0  0  0  0  0
  184.9970  172.9980  137.6800 N   0  0  0  0  0  1  0  0  0  0  0  0
  185.7030  174.6170  136.0830 N   0  0  0  0  0  0  0  0  0  0  0  0
  185.9820  173.7310  136.9640 C   0  0  0  0  0  0  0  0  0  0  0  0
  186.9360  175.0980  135.6340 N   0  0  0  0  0  2  0  0  0  0  0  0
  187.3770  173.5760  137.1520 N   0  0  0  0  0  2  0  0  0  0  0  0
  183.4970  177.9210  141.3940 C   0  0  0  0  0  2  0  0  0  0  0  0
  180.1970  177.9960  139.4760 C   0  0  0  0  0  2  0  0  0  0  0  0
  180.8970  178.3360  138.1510 C   0  0  0  0  0  0  0  0  0  0  0  0
  180.8740  177.1150  137.2530 C   0  0  0  0  0  1  0  0  0  0  0  0
  182.5710  179.4830  139.6770 C   0  0  0  0  0  2  0  0  0  0  0  0
  181.1840  177.4960  140.5270 C   0  0  0  0  0  2  0  0  0  0  0  0
  182.2280  178.5720  140.8640 C   0  0  0  0  0  3  0  0  0  0  0  0
  180.1260  179.4480  137.4690 C   0  0  0  0  0  1  0  0  0  0  0  0
  182.3570  178.7770  138.3380 C   0  0  0  0  0  2  0  0  0  0  0  0
  1  6  1  1  0  0  0
  2 11  1  0  0  0  0
  2 12  1  0  0  0  0
  3 10  1  0  0  0  0
  4  8  1  0  0  0  0
  5  1  1  0  0  0  0
  7  9  1  0  0  0  0
  7  4  2  0  0  0  0
  8  1  1  0  0  0  0
  9  5  2  0  0  0  0
 11 10  1  1  0  0  0
 11  7  1  0  0  0  0
 12 15  2  0  0  0  0
 13  2  2  0  0  0  0
 14  3  2  0  0  0  0
 14 13  1  0  0  0  0
 15  4  1  0  0  0  0
 16 17  1  6  0  0  0
 16 18  1  0  0  0  0
 16  3  1  0  0  0  0
 19 18  1  0  0  0  0
 19 20  1  1  0  0  0
 21 19  1  0  0  0  0
 22 21  1  6  0  0  0
 23 27  1  0  0  0  0
 23 25  1  0  0  0  0
 24 22  1  0  0  0  0
 25 26  1  1  0  0  0
 25 22  1  0  0  0  0
 27 24  1  0  0  0  0
 28 25  1  0  0  0  0
 29 28  1  0  0  0  0
 29 34  1  0  0  0  0
 31 32  2  0  0  0  0
 32 34  1  0  0  0  0
 32 30  1  0  0  0  0
 33 31  1  0  0  0  0
 33 29  1  0  0  0  0
 35 13  1  0  0  0  0
 36 40  1  0  0  0  0
 37 43  1  0  0  0  0
 37 36  1  0  0  0  0
 38 37  1  0  0  0  0
 39 41  1  0  0  0  0
 40 41  1  0  0  0  0
 41 35  1  0  0  0  0
 42 37  1  0  0  0  0
 43 39  1  0  0  0  0
M  END
>  <MODEL>
7

>  <REMARK>
 VINA RESULT:      -8.8      2.886      3.713
  Name = 
  9 active torsions:
  status: ('A' for Active; 'I' for Inactive)
    1  A    between atoms: C_1  and  C_34
    2  A    between atoms: C_1  and  C_35
    3  A    between atoms: C_2  and  C_6
    4  A    between atoms: C_2  and  C_13
    5  A    between atoms: O_3  and  C_4
    6  A    between atoms: O_3  and  C_12
    7  A    between atoms: C_6  and  C_12
    8  A    between atoms: N_11  and  C_14
    9  A    between atoms: C_14  and  C_22
                            x       y       z     vdW  Elec       q    Type
                         _______ _______ _______ _____ _____    ______ ____

>  <TORSDO>
F 9

$$$$
=
 OpenBabel10272414053D

 43 48  0  0  1  0  0  0  0  0999 V2000
  191.3200  177.1030  146.6420 C   0  0  1  0  0  3  0  0  0  0  0  0
  189.0150  177.2120  142.1110 C   0  0  0  0  0  0  0  0  0  0  0  0
  186.3890  178.1850  142.6010 C   0  0  0  0  0  0  0  0  0  0  0  0
  190.6830  176.5930  144.2800 C   0  0  0  0  0  0  0  0  0  0  0  0
  189.8590  177.3510  146.9040 C   0  0  0  0  0  3  0  0  0  0  0  0
  191.9200  176.5620  147.7770 O   0  0  0  0  0  1  0  0  0  0  0  0
  189.4170  177.1660  144.5100 C   0  0  0  0  0  0  0  0  0  0  0  0
  191.5380  176.1740  145.4430 C   0  0  0  0  0  2  0  0  0  0  0  0
  188.9830  177.4220  145.8970 C   0  0  0  0  0  3  0  0  0  0  0  0
  187.3010  177.9890  143.6440 O   0  0  0  0  0  0  0  0  0  0  0  0
  188.5780  177.4620  143.4250 C   0  0  0  0  0  0  0  0  0  0  0  0
  190.2730  176.6340  141.8950 C   0  0  0  0  0  2  0  0  0  0  0  0
  188.1530  177.5870  140.9350 C   0  0  0  0  0  0  0  0  0  0  0  0
  186.7480  177.9710  141.3290 C   0  0  0  0  0  3  0  0  0  0  0  0
  191.0990  176.3160  142.9760 C   0  0  0  0  0  3  0  0  0  0  0  0
  184.9960  178.6080  142.9390 C   0  0  1  0  0  3  0  0  0  0  0  0
  185.0080  179.7610  143.7280 O   0  0  0  0  0  1  0  0  0  0  0  0
  184.1800  178.8390  141.6750 C   0  0  0  0  0  2  0  0  0  0  0  0
  182.8520  178.1030  141.7470 C   0  0  1  0  0  3  0  0  0  0  0  0
  181.9610  178.7910  142.7620 C   0  0  0  0  0  1  0  0  0  0  0  0
  182.2300  178.1220  140.4940 O   0  0  0  0  0  0  0  0  0  0  0  0
  183.1240  178.7930  139.6470 C   0  0  2  0  0  3  0  0  0  0  0  0
  182.2130  178.4460  137.4320 C   0  0  0  0  0  2  0  0  0  0  0  0
  182.4950  180.1020  139.2090 C   0  0  0  0  0  2  0  0  0  0  0  0
  183.3460  178.0220  138.3500 C   0  0  1  0  0  0  0  0  0  0  0  0
  184.5520  178.4190  137.7970 F   0  0  0  0  0  0  0  0  0  0  0  0
  181.7500  179.8100  137.9170 C   0  0  0  0  0  2  0  0  0  0  0  0
  183.3570  176.5080  138.5640 C   0  0  0  0  0  2  0  0  0  0  0  0
  183.5110  175.8010  137.2990 N   0  0  0  0  0  0  0  0  0  0  0  0
  185.5600  172.7880  137.4240 N   0  0  0  0  0  1  0  0  0  0  0  0
  183.2820  173.4810  137.3690 N   0  0  0  0  0  0  0  0  0  0  0  0
  184.5300  173.7670  137.3740 C   0  0  0  0  0  0  0  0  0  0  0  0
  182.6180  174.7100  137.3250 N   0  0  0  0  0  2  0  0  0  0  0  0
  184.7650  175.1630  137.3390 N   0  0  0  0  0  2  0  0  0  0  0  0
  188.7970  178.7330  140.1640 C   0  0  0  0  0  2  0  0  0  0  0  0
  189.0380  178.4370  136.3650 C   0  0  0  0  0  2  0  0  0  0  0  0
  188.0760  177.2390  136.3300 C   0  0  0  0  0  0  0  0  0  0  0  0
  186.7450  177.6910  135.7610 C   0  0  0  0  0  1  0  0  0  0  0  0
  189.0470  176.7760  138.6290 C   0  0  0  0  0  2  0  0  0  0  0  0
  188.9820  179.1700  137.7030 C   0  0  0  0  0  2  0  0  0  0  0  0
  189.4090  178.2500  138.8580 C   0  0  0  0  0  3  0  0  0  0  0  0
  188.6550  176.1810  135.4140 C   0  0  0  0  0  1  0  0  0  0  0  0
  187.8300  176.6250  137.7170 C   0  0  0  0  0  2  0  0  0  0  0  0
  1  5  1  0  0  0  0
  1  6  1  1  0  0  0
  2 11  1  0  0  0  0
  3 16  1  0  0  0  0
  3 10  1  0  0  0  0
  4  7  1  0  0  0  0
  4  8  1  0  0  0  0
  7  9  1  0  0  0  0
  8  1  1  0  0  0  0
  9  5  2  0  0  0  0
 11 10  1  0  0  0  0
 11  7  2  0  0  0  0
 12  2  1  0  0  0  0
 12 15  1  0  0  0  0
 13 14  1  0  0  0  0
 13  2  2  0  0  0  0
 14  3  2  0  0  0  0
 15  4  2  0  0  0  0
 16 17  1  6  0  0  0
 18 19  1  0  0  0  0
 18 16  1  0  0  0  0
 19 20  1  1  0  0  0
 21 19  1  0  0  0  0
 22 21  1  1  0  0  0
 23 27  1  0  0  0  0
 23 25  1  0  0  0  0
 24 22  1  0  0  0  0
 25 26  1  6  0  0  0
 25 28  1  0  0  0  0
 25 22  1  0  0  0  0
 27 24  1  0  0  0  0
 29 33  1  0  0  0  0
 29 34  1  0  0  0  0
 29 28  1  0  0  0  0
 31 32  2  0  0  0  0
 32 30  1  0  0  0  0
 33 31  1  0  0  0  0
 34 32  1  0  0  0  0
 35 13  1  0  0  0  0
 36 40  1  0  0  0  0
 37 36  1  0  0  0  0
 37 43  1  0  0  0  0
 38 37  1  0  0  0  0
 39 41  1  0  0  0  0
 40 41  1  0  0  0  0
 41 35  1  0  0  0  0
 42 37  1  0  0  0  0
 43 39  1  0  0  0  0
M  END
>  <MODEL>
8

>  <REMARK>
 VINA RESULT:      -8.6      4.349      7.457
  Name = 
  9 active torsions:
  status: ('A' for Active; 'I' for Inactive)
    1  A    between atoms: C_1  and  C_34
    2  A    between atoms: C_1  and  C_35
    3  A    between atoms: C_2  and  C_6
    4  A    between atoms: C_2  and  C_13
    5  A    between atoms: O_3  and  C_4
    6  A    between atoms: O_3  and  C_12
    7  A    between atoms: C_6  and  C_12
    8  A    between atoms: N_11  and  C_14
    9  A    between atoms: C_14  and  C_22
                            x       y       z     vdW  Elec       q    Type
                         _______ _______ _______ _____ _____    ______ ____

>  <TORSDO>
F 9

$$$$
=
 OpenBabel10272414053D

 43 48  0  0  1  0  0  0  0  0999 V2000
  194.8620  175.3300  136.3040 C   0  0  1  0  0  3  0  0  0  0  0  0
  190.1260  176.5840  137.6660 C   0  0  0  0  0  0  0  0  0  0  0  0
  190.2080  176.9770  140.4800 C   0  0  0  0  0  0  0  0  0  0  0  0
  192.3720  175.5300  136.3550 C   0  0  0  0  0  0  0  0  0  0  0  0
  194.8140  175.2770  137.8070 C   0  0  0  0  0  3  0  0  0  0  0  0
  195.9080  174.5380  135.8350 O   0  0  0  0  0  1  0  0  0  0  0  0
  192.4350  175.8180  137.7320 C   0  0  0  0  0  0  0  0  0  0  0  0
  193.5410  174.8780  135.6720 C   0  0  0  0  0  2  0  0  0  0  0  0
  193.6850  175.5500  138.4680 C   0  0  0  0  0  3  0  0  0  0  0  0
  191.3430  176.5800  139.7650 O   0  0  0  0  0  0  0  0  0  0  0  0
  191.3070  176.3330  138.3890 C   0  0  0  0  0  0  0  0  0  0  0  0
  190.0730  176.2850  136.2980 C   0  0  0  0  0  2  0  0  0  0  0  0
  188.9300  177.1980  138.3440 C   0  0  0  0  0  0  0  0  0  0  0  0
  189.0580  177.2370  139.8460 C   0  0  0  0  0  3  0  0  0  0  0  0
  191.1880  175.7500  135.6480 C   0  0  0  0  0  3  0  0  0  0  0  0
  190.2960  177.0730  141.9690 C   0  0  1  0  0  3  0  0  0  0  0  0
  191.6280  177.1690  142.3780 O   0  0  0  0  0  1  0  0  0  0  0  0
  189.4960  178.2610  142.4820 C   0  0  0  0  0  2  0  0  0  0  0  0
  188.4570  177.8150  143.4970 C   0  0  1  0  0  3  0  0  0  0  0  0
  187.3540  177.0630  142.7770 C   0  0  0  0  0  1  0  0  0  0  0  0
  189.0500  176.9740  144.4450 O   0  0  0  0  0  0  0  0  0  0  0  0
  189.5160  177.8270  145.4550 C   0  0  2  0  0  3  0  0  0  0  0  0
  189.2040  176.5570  147.4920 C   0  0  0  0  0  2  0  0  0  0  0  0
  190.8850  177.3510  145.9040 C   0  0  0  0  0  2  0  0  0  0  0  0
  188.6500  177.7330  146.7070 C   0  0  1  0  0  0  0  0  0  0  0  0
  188.8120  178.8920  147.4480 F   0  0  0  0  0  0  0  0  0  0  0  0
  190.6500  176.3880  147.0550 C   0  0  0  0  0  2  0  0  0  0  0  0
  187.1690  177.5410  146.3790 C   0  0  0  0  0  2  0  0  0  0  0  0
  186.4220  178.7750  146.5870 N   0  0  0  0  0  0  0  0  0  0  0  0
  183.8290  179.4760  144.1220 N   0  0  0  0  0  1  0  0  0  0  0  0
  184.1070  178.6460  146.3370 N   0  0  0  0  0  0  0  0  0  0  0  0
  184.6070  179.1170  145.2570 C   0  0  0  0  0  0  0  0  0  0  0  0
  185.1950  178.4200  147.1840 N   0  0  0  0  0  2  0  0  0  0  0  0
  186.0180  179.2260  145.3170 N   0  0  0  0  0  2  0  0  0  0  0  0
  188.7010  178.6080  137.8140 C   0  0  0  0  0  2  0  0  0  0  0  0
  185.0140  177.6770  137.4730 C   0  0  0  0  0  2  0  0  0  0  0  0
  185.2920  176.7380  136.2890 C   0  0  0  0  0  0  0  0  0  0  0  0
  185.1490  175.3020  136.7520 C   0  0  0  0  0  1  0  0  0  0  0  0
  187.1920  178.3600  135.8370 C   0  0  0  0  0  2  0  0  0  0  0  0
  186.2940  178.0380  138.2220 C   0  0  0  0  0  2  0  0  0  0  0  0
  187.2770  178.7890  137.3090 C   0  0  0  0  0  3  0  0  0  0  0  0
  184.2570  177.0010  135.2130 C   0  0  0  0  0  1  0  0  0  0  0  0
  186.6960  176.9220  135.6920 C   0  0  0  0  0  2  0  0  0  0  0  0
  1  6  1  6  0  0  0
  1  5  1  0  0  0  0
  2 13  2  0  0  0  0
  2 11  1  0  0  0  0
  3 16  1  0  0  0  0
  4  7  1  0  0  0  0
  5  9  2  0  0  0  0
  7 11  2  0  0  0  0
  7  9  1  0  0  0  0
  8  1  1  0  0  0  0
  8  4  1  0  0  0  0
 10  3  1  0  0  0  0
 11 10  1  0  0  0  0
 12  2  1  0  0  0  0
 13 14  1  0  0  0  0
 14  3  2  0  0  0  0
 15 12  1  0  0  0  0
 15  4  2  0  0  0  0
 16 17  1  6  0  0  0
 16 18  1  0  0  0  0
 18 19  1  0  0  0  0
 19 20  1  6  0  0  0
 19 21  1  0  0  0  0
 22 21  1  6  0  0  0
 22 24  1  0  0  0  0
 22 25  1  0  0  0  0
 24 27  1  0  0  0  0
 25 26  1  1  0  0  0
 25 23  1  0  0  0  0
 27 23  1  0  0  0  0
 28 29  1  0  0  0  0
 28 25  1  0  0  0  0
 29 33  1  0  0  0  0
 30 32  1  0  0  0  0
 31 33  1  0  0  0  0
 32 34  1  0  0  0  0
 32 31  2  0  0  0  0
 34 29  1  0  0  0  0
 35 13  1  0  0  0  0
 36 40  1  0  0  0  0
 37 38  1  0  0  0  0
 37 36  1  0  0  0  0
 39 41  1  0  0  0  0
 41 35  1  0  0  0  0
 41 40  1  0  0  0  0
 42 37  1  0  0  0  0
 43 39  1  0  0  0  0
 43 37  1  0  0  0  0
M  END
>  <MODEL>
9

>  <REMARK>
 VINA RESULT:      -8.6      5.280      9.241
  Name = 
  9 active torsions:
  status: ('A' for Active; 'I' for Inactive)
    1  A    between atoms: C_1  and  C_34
    2  A    between atoms: C_1  and  C_35
    3  A    between atoms: C_2  and  C_6
    4  A    between atoms: C_2  and  C_13
    5  A    between atoms: O_3  and  C_4
    6  A    between atoms: O_3  and  C_12
    7  A    between atoms: C_6  and  C_12
    8  A    between atoms: N_11  and  C_14
    9  A    between atoms: C_14  and  C_22
                            x       y       z     vdW  Elec       q    Type
                         _______ _______ _______ _____ _____    ______ ____

>  <TORSDO>
F 9

$$$$
