=
 OpenBabel10272401333D

 55 60  0  0  1  0  0  0  0  0999 V2000
  186.9980  177.3050  143.4240 C   0  0  2  0  0  3  0  0  0  0  0  0
  187.1860  177.8760  138.7560 C   0  0  0  0  0  2  0  0  0  0  0  0
  184.8880  179.7790  139.3250 O   0  0  0  0  0  0  0  0  0  0  0  0
  181.6090  178.9020  141.1850 C   0  0  0  0  0  2  0  0  0  0  0  0
  185.7800  179.2080  146.4840 C   0  0  0  0  0  3  0  0  0  0  0  0
  180.2920  179.4970  141.7270 C   0  0  0  0  0  2  0  0  0  0  0  0
  182.3760  179.2120  143.6000 C   0  0  2  0  0  3  0  0  0  0  0  0
  180.9680  178.9580  144.0380 C   0  0  0  0  0  3  0  0  0  0  0  0
  184.3240  177.8970  140.5830 N   0  0  0  0  0  2  0  0  0  0  0  0
  179.9820  179.0750  143.1410 C   0  0  0  0  0  3  0  0  0  0  0  0
  189.0460  175.8400  143.5070 C   0  0  0  0  0  3  0  0  0  0  0  0
  182.6150  178.4670  142.2690 C   0  0  2  0  0  3  0  0  0  0  0  0
  190.0970  177.0370  141.2090 C   0  0  0  0  0  0  0  0  0  0  0  0
  186.3300  178.1500  142.5130 O   0  0  0  0  0  0  0  0  0  0  0  0
  188.8830  177.4850  141.7410 C   0  0  0  0  0  3  0  0  0  0  0  0
  187.9120  178.1930  147.0560 C   0  0  0  0  0  0  0  0  0  0  0  0
  184.7930  178.9900  144.1680 C   0  0  2  0  0  3  0  0  0  0  0  0
  186.9860  177.9150  144.8160 C   0  0  0  0  0  0  0  0  0  0  0  0
  187.9540  177.0180  137.8710 N   0  0  0  0  0  2  0  0  0  0  0  0
  183.3680  178.7780  144.6810 C   0  0  0  0  0  2  0  0  0  0  0  0
  185.7050  177.7090  138.4830 C   0  0  0  0  0  2  0  0  0  0  0  0
  187.9920  177.6650  145.7570 C   0  0  0  0  0  3  0  0  0  0  0  0
  184.9390  178.5280  139.4610 C   0  0  0  0  0  0  0  0  0  0  0  0
  190.2650  175.3990  142.9840 C   0  0  0  0  0  3  0  0  0  0  0  0
  189.3070  177.5620  137.8170 C   0  0  1  0  0  3  0  0  0  0  0  0
  188.3530  176.8980  142.9000 C   0  0  0  0  0  0  0  0  0  0  0  0
  184.0650  178.6450  141.8050 C   0  0  1  0  0  3  0  0  0  0  0  0
  186.8000  178.9680  147.4080 C   0  0  0  0  0  3  0  0  0  0  0  0
  184.9850  178.1360  142.9080 C   0  0  1  0  0  3  0  0  0  0  0  0
  190.1950  176.7570  138.7620 C   0  0  0  0  0  2  0  0  0  0  0  0
  185.8510  178.6630  145.1960 C   0  0  0  0  0  0  0  0  0  0  0  0
  190.6110  177.6210  139.9400 C   0  0  0  0  0  2  0  0  0  0  0  0
  190.7890  175.9940  141.8340 C   0  0  0  0  0  3  0  0  0  0  0  0
  188.9770  177.9400  148.0500 C   0  0  0  0  0  0  0  0  0  0  0  0
  188.8960  178.4210  149.2850 C   0  0  0  0  0  2  0  0  0  0  0  0
  190.1260  177.1850  147.6840 N   0  0  0  0  0  1  0  0  0  0  0  0
  188.8840  178.1970  135.5680 C   0  0  0  0  0  1  0  0  0  0  0  0
  189.8200  177.5020  136.4420 N   0  0  0  0  0  0  0  0  0  0  0  0
  189.7900  176.1120  136.0070 C   0  0  0  0  0  2  0  0  0  0  0  0
  191.1370  175.7110  135.4160 C   0  0  1  0  0  3  0  0  0  0  0  0
  192.0140  176.7960  135.3950 O   0  0  0  0  0  1  0  0  0  0  0  0
  191.7630  174.5150  136.1420 C   0  0  2  0  0  3  0  0  0  0  0  0
  190.7780  173.9170  136.9290 O   0  0  0  0  0  1  0  0  0  0  0  0
  193.1950  176.3040  137.3150 C   0  0  0  0  0  1  0  0  0  0  0  0
  193.0140  174.8140  137.0100 C   0  0  2  0  0  3  0  0  0  0  0  0
  193.9970  173.4870  135.1610 C   0  0  0  0  0  1  0  0  0  0  0  0
  194.3340  174.1850  136.4740 C   0  0  2  0  0  0  0  0  0  0  0  0
  195.3220  171.8720  136.9400 N   0  0  0  0  0  2  0  0  0  0  0  0
  195.9260  170.8720  137.8050 C   0  0  0  0  0  1  0  0  0  0  0  0
  194.9170  173.1540  137.4310 C   0  0  0  0  0  0  0  0  0  0  0  0
  195.1120  173.4470  138.6430 O   0  0  0  0  0  0  0  0  0  0  0  0
  195.3510  175.2840  136.0900 C   0  0  0  0  0  2  0  0  0  0  0  0
  196.8000  174.8970  136.1570 C   0  0  0  0  0  0  0  0  0  0  0  0
  197.3160  174.1980  135.2480 O   0  0  0  0  0  0  0  0  0  0  0  0
  197.5820  175.3410  137.2160 O   0  0  0  0  0  1  0  0  0  0  0  0
  1 14  1  6  0  0  0
  1 18  1  0  0  0  0
  3 23  2  0  0  0  0
  4  6  1  0  0  0  0
  5 28  1  0  0  0  0
  6 10  1  0  0  0  0
  7  8  1  1  0  0  0
  7 20  1  0  0  0  0
 10  8  2  0  0  0  0
 12  4  1  6  0  0  0
 12  7  1  0  0  0  0
 13 15  2  0  0  0  0
 13 33  1  0  0  0  0
 15 26  1  0  0  0  0
 16 28  2  0  0  0  0
 16 34  1  0  0  0  0
 17 20  1  1  0  0  0
 17 31  1  0  0  0  0
 18 31  1  0  0  0  0
 18 22  2  0  0  0  0
 19  2  1  0  0  0  0
 21  2  1  0  0  0  0
 21 23  1  0  0  0  0
 22 16  1  0  0  0  0
 23  9  1  0  0  0  0
 24 11  1  0  0  0  0
 25 38  1  6  0  0  0
 25 19  1  0  0  0  0
 25 30  1  0  0  0  0
 26  1  1  0  0  0  0
 26 11  2  0  0  0  0
 27  9  1  6  0  0  0
 27 12  1  0  0  0  0
 27 29  1  0  0  0  0
 29 14  1  6  0  0  0
 29 17  1  0  0  0  0
 30 32  1  0  0  0  0
 31  5  2  0  0  0  0
 32 13  1  0  0  0  0
 33 24  2  0  0  0  0
 34 35  2  0  0  0  0
 36 34  1  0  0  0  0
 37 38  1  0  0  0  0
 39 38  1  0  0  0  0
 40 41  1  1  0  0  0
 40 39  1  0  0  0  0
 40 42  1  0  0  0  0
 42 43  1  1  0  0  0
 42 45  1  0  0  0  0
 45 44  1  6  0  0  0
 47 46  1  6  0  0  0
 47 45  1  0  0  0  0
 47 50  1  0  0  0  0
 48 50  1  0  0  0  0
 48 49  1  0  0  0  0
 50 51  2  0  0  0  0
 52 53  1  0  0  0  0
 52 47  1  0  0  0  0
 53 55  1  0  0  0  0
 54 53  2  0  0  0  0
M  END
>  <MODEL>
1

>  <REMARK>
 VINA RESULT:     -10.4      0.000      0.000
  Name = 
  10 active torsions:
  status: ('A' for Active; 'I' for Inactive)
    1  A    between atoms: C_1  and  C_53
    2  A    between atoms: C_6  and  C_14
    3  A    between atoms: C_6  and  C_20
    4  A    between atoms: N_8  and  C_22
    5  A    between atoms: N_8  and  C_43
    6  A    between atoms: C_10  and  C_32
    7  A    between atoms: C_14  and  C_38
    8  A    between atoms: C_20  and  C_22
    9  A    between atoms: C_29  and  C_38
   10  A    between atoms: C_38  and  C_53
                            x       y       z     vdW  Elec       q    Type
                         _______ _______ _______ _____ _____    ______ ____

>  <TORSDO>
F 10

$$$$
=
 OpenBabel10272401333D

 55 60  0  0  1  0  0  0  0  0999 V2000
  186.9200  177.2640  143.2120 C   0  0  2  0  0  3  0  0  0  0  0  0
  187.5400  177.7470  138.5720 C   0  0  0  0  0  2  0  0  0  0  0  0
  185.2240  179.6860  138.8970 O   0  0  0  0  0  0  0  0  0  0  0  0
  181.7780  178.8790  140.4640 C   0  0  0  0  0  2  0  0  0  0  0  0
  185.4530  179.2360  146.1160 C   0  0  0  0  0  3  0  0  0  0  0  0
  180.4250  179.4980  140.8730 C   0  0  0  0  0  2  0  0  0  0  0  0
  182.3260  179.2250  142.9330 C   0  0  2  0  0  3  0  0  0  0  0  0
  180.8810  178.9940  143.2450 C   0  0  0  0  0  3  0  0  0  0  0  0
  184.5240  177.8330  140.1300 N   0  0  0  0  0  2  0  0  0  0  0  0
  179.9820  179.1050  142.2590 C   0  0  0  0  0  3  0  0  0  0  0  0
  188.9330  175.7780  143.5080 C   0  0  0  0  0  3  0  0  0  0  0  0
  182.6760  178.4530  141.6430 C   0  0  2  0  0  3  0  0  0  0  0  0
  190.2050  176.9210  141.2950 C   0  0  0  0  0  0  0  0  0  0  0  0
  186.3490  178.1000  142.2310 O   0  0  0  0  0  0  0  0  0  0  0  0
  188.9530  177.3920  141.7060 C   0  0  0  0  0  3  0  0  0  0  0  0
  187.5110  178.2080  146.8970 C   0  0  0  0  0  0  0  0  0  0  0  0
  184.6780  178.9870  143.7230 C   0  0  2  0  0  3  0  0  0  0  0  0
  186.7890  177.9000  144.5870 C   0  0  0  0  0  0  0  0  0  0  0  0
  188.3750  176.8650  137.7770 N   0  0  0  0  0  2  0  0  0  0  0  0
  183.2100  178.7990  144.1070 C   0  0  0  0  0  2  0  0  0  0  0  0
  186.0880  177.5920  138.1680 C   0  0  0  0  0  2  0  0  0  0  0  0
  187.7020  177.6550  145.6200 C   0  0  0  0  0  3  0  0  0  0  0  0
  185.2470  178.4370  139.0580 C   0  0  0  0  0  0  0  0  0  0  0  0
  190.1900  175.3140  143.1060 C   0  0  0  0  0  3  0  0  0  0  0  0
  189.7340  177.3930  137.8360 C   0  0  1  0  0  3  0  0  0  0  0  0
  188.3120  176.8320  142.8220 C   0  0  0  0  0  0  0  0  0  0  0  0
  184.1640  178.6060  141.3100 C   0  0  1  0  0  3  0  0  0  0  0  0
  186.3810  179.0010  147.1330 C   0  0  0  0  0  3  0  0  0  0  0  0
  184.9730  178.1080  142.5000 C   0  0  1  0  0  3  0  0  0  0  0  0
  190.5220  176.5950  138.8730 C   0  0  0  0  0  2  0  0  0  0  0  0
  185.6340  178.6670  144.8490 C   0  0  0  0  0  0  0  0  0  0  0  0
  190.8400  177.4770  140.0690 C   0  0  0  0  0  2  0  0  0  0  0  0
  190.8230  175.8830  141.9980 C   0  0  0  0  0  3  0  0  0  0  0  0
  188.4770  177.9620  147.9890 C   0  0  0  0  0  0  0  0  0  0  0  0
  188.0960  177.9600  149.2610 C   0  0  0  0  0  2  0  0  0  0  0  0
  189.8500  177.7400  147.6860 N   0  0  0  0  0  1  0  0  0  0  0  0
  189.3470  177.5010  135.4960 C   0  0  0  0  0  1  0  0  0  0  0  0
  190.3690  177.3020  136.5160 N   0  0  0  0  0  0  0  0  0  0  0  0
  190.8350  175.9340  136.3290 C   0  0  0  0  0  2  0  0  0  0  0  0
  192.2240  175.9270  135.7010 C   0  0  1  0  0  3  0  0  0  0  0  0
  192.4520  177.1030  134.9850 O   0  0  0  0  0  1  0  0  0  0  0  0
  193.3330  175.6900  136.7320 C   0  0  2  0  0  3  0  0  0  0  0  0
  193.6450  176.9130  137.3270 O   0  0  0  0  0  1  0  0  0  0  0  0
  194.6100  174.7660  134.6960 C   0  0  0  0  0  1  0  0  0  0  0  0
  194.6290  175.0190  136.2060 C   0  0  2  0  0  3  0  0  0  0  0  0
  193.7830  173.1300  137.5710 C   0  0  0  0  0  1  0  0  0  0  0  0
  195.0530  173.7390  136.9860 C   0  0  2  0  0  0  0  0  0  0  0  0
  197.2770  174.6560  137.8580 N   0  0  0  0  0  2  0  0  0  0  0  0
  198.2040  175.0110  138.9190 C   0  0  0  0  0  1  0  0  0  0  0  0
  196.0100  174.0460  138.1300 C   0  0  0  0  0  0  0  0  0  0  0  0
  195.6650  173.8330  139.3240 O   0  0  0  0  0  0  0  0  0  0  0  0
  195.6020  172.6640  136.0210 C   0  0  0  0  0  2  0  0  0  0  0  0
  196.3470  171.5250  136.6540 C   0  0  0  0  0  0  0  0  0  0  0  0
  195.7250  170.6150  137.2610 O   0  0  0  0  0  1  0  0  0  0  0  0
  197.7290  171.4610  136.5440 O   0  0  0  0  0  0  0  0  0  0  0  0
  1 14  1  6  0  0  0
  1 18  1  0  0  0  0
  3 23  2  0  0  0  0
  4  6  1  0  0  0  0
  5 28  1  0  0  0  0
  6 10  1  0  0  0  0
  7  8  1  1  0  0  0
  7 20  1  0  0  0  0
 10  8  2  0  0  0  0
 12  4  1  6  0  0  0
 12  7  1  0  0  0  0
 13 15  2  0  0  0  0
 13 33  1  0  0  0  0
 15 26  1  0  0  0  0
 16 28  2  0  0  0  0
 16 34  1  0  0  0  0
 17 20  1  1  0  0  0
 17 31  1  0  0  0  0
 18 31  1  0  0  0  0
 18 22  2  0  0  0  0
 19 25  1  0  0  0  0
 19  2  1  0  0  0  0
 21  2  1  0  0  0  0
 21 23  1  0  0  0  0
 22 16  1  0  0  0  0
 23  9  1  0  0  0  0
 24 11  1  0  0  0  0
 25 38  1  6  0  0  0
 25 30  1  0  0  0  0
 26  1  1  0  0  0  0
 26 11  2  0  0  0  0
 27  9  1  6  0  0  0
 27 12  1  0  0  0  0
 27 29  1  0  0  0  0
 29 14  1  6  0  0  0
 29 17  1  0  0  0  0
 30 32  1  0  0  0  0
 31  5  2  0  0  0  0
 32 13  1  0  0  0  0
 33 24  2  0  0  0  0
 34 35  2  0  0  0  0
 36 34  1  0  0  0  0
 37 38  1  0  0  0  0
 39 38  1  0  0  0  0
 40 41  1  1  0  0  0
 40 39  1  0  0  0  0
 40 42  1  0  0  0  0
 42 43  1  6  0  0  0
 45 44  1  6  0  0  0
 45 42  1  0  0  0  0
 45 47  1  0  0  0  0
 47 46  1  1  0  0  0
 47 50  1  0  0  0  0
 48 50  1  0  0  0  0
 48 49  1  0  0  0  0
 50 51  2  0  0  0  0
 52 53  1  0  0  0  0
 52 47  1  0  0  0  0
 53 54  1  0  0  0  0
 55 53  2  0  0  0  0
M  END
>  <MODEL>
2

>  <REMARK>
 VINA RESULT:     -10.4      1.187      1.648
  Name = 
  10 active torsions:
  status: ('A' for Active; 'I' for Inactive)
    1  A    between atoms: C_1  and  C_53
    2  A    between atoms: C_6  and  C_14
    3  A    between atoms: C_6  and  C_20
    4  A    between atoms: N_8  and  C_22
    5  A    between atoms: N_8  and  C_43
    6  A    between atoms: C_10  and  C_32
    7  A    between atoms: C_14  and  C_38
    8  A    between atoms: C_20  and  C_22
    9  A    between atoms: C_29  and  C_38
   10  A    between atoms: C_38  and  C_53
                            x       y       z     vdW  Elec       q    Type
                         _______ _______ _______ _____ _____    ______ ____

>  <TORSDO>
F 10

$$$$
=
 OpenBabel10272401333D

 55 60  0  0  1  0  0  0  0  0999 V2000
  185.6020  178.7870  141.9160 C   0  0  2  0  0  3  0  0  0  0  0  0
  189.2590  176.6190  139.8970 C   0  0  0  0  0  2  0  0  0  0  0  0
  189.5650  175.4610  142.6880 O   0  0  0  0  0  0  0  0  0  0  0  0
  189.8980  177.4830  145.9720 C   0  0  0  0  0  2  0  0  0  0  0  0
  183.2840  178.3000  144.8930 C   0  0  0  0  0  3  0  0  0  0  0  0
  190.0000  177.3510  147.5060 C   0  0  0  0  0  2  0  0  0  0  0  0
  187.4320  177.8950  146.4860 C   0  0  2  0  0  3  0  0  0  0  0  0
  187.8480  178.5270  147.7780 C   0  0  0  0  0  3  0  0  0  0  0  0
  189.2120  177.7290  143.1060 N   0  0  0  0  0  2  0  0  0  0  0  0
  189.0760  178.2820  148.2490 C   0  0  0  0  0  3  0  0  0  0  0  0
  184.7890  179.8100  139.7620 C   0  0  0  0  0  3  0  0  0  0  0  0
  188.5720  178.0820  145.4620 C   0  0  2  0  0  3  0  0  0  0  0  0
  185.9000  177.7300  138.2590 C   0  0  0  0  0  0  0  0  0  0  0  0
  186.5220  177.8110  142.3500 O   0  0  0  0  0  0  0  0  0  0  0  0
  185.9890  177.7120  139.6550 C   0  0  0  0  0  3  0  0  0  0  0  0
  181.9270  179.0610  143.0270 C   0  0  0  0  0  0  0  0  0  0  0  0
  185.7620  177.8740  144.6360 C   0  0  2  0  0  3  0  0  0  0  0  0
  184.3220  178.7070  142.7330 C   0  0  0  0  0  0  0  0  0  0  0  0
  189.7800  176.9710  138.5880 N   0  0  0  0  0  2  0  0  0  0  0  0
  186.1160  178.4960  145.9880 C   0  0  0  0  0  2  0  0  0  0  0  0
  190.2840  176.9370  140.9660 C   0  0  0  0  0  2  0  0  0  0  0  0
  183.0760  179.0860  142.2200 C   0  0  0  0  0  3  0  0  0  0  0  0
  189.6930  176.6530  142.3010 C   0  0  0  0  0  0  0  0  0  0  0  0
  184.6890  179.8240  138.3670 C   0  0  0  0  0  3  0  0  0  0  0  0
  189.0120  176.2150  137.6040 C   0  0  1  0  0  3  0  0  0  0  0  0
  185.4250  178.7460  140.4180 C   0  0  0  0  0  0  0  0  0  0  0  0
  188.1720  177.5060  144.1000 C   0  0  1  0  0  3  0  0  0  0  0  0
  182.0430  178.6620  144.3650 C   0  0  0  0  0  3  0  0  0  0  0  0
  186.8910  178.1940  143.6470 C   0  0  1  0  0  3  0  0  0  0  0  0
  187.9410  177.1290  137.0140 C   0  0  0  0  0  2  0  0  0  0  0  0
  184.4330  178.3460  144.0930 C   0  0  0  0  0  0  0  0  0  0  0  0
  186.5650  176.6650  137.4600 C   0  0  0  0  0  2  0  0  0  0  0  0
  185.2480  178.7870  137.6160 C   0  0  0  0  0  3  0  0  0  0  0  0
  180.6060  179.4510  142.4880 C   0  0  0  0  0  0  0  0  0  0  0  0
  179.9820  178.7050  141.5840 C   0  0  0  0  0  2  0  0  0  0  0  0
  179.9890  180.6580  142.9220 N   0  0  0  0  0  1  0  0  0  0  0  0
  189.2430  174.5880  135.8900 C   0  0  0  0  0  1  0  0  0  0  0  0
  189.9020  175.7070  136.5520 N   0  0  0  0  0  0  0  0  0  0  0  0
  191.0790  175.1340  137.1910 C   0  0  0  0  0  2  0  0  0  0  0  0
  192.3030  175.3060  136.2980 C   0  0  1  0  0  3  0  0  0  0  0  0
  192.2050  176.4720  135.5380 O   0  0  0  0  0  1  0  0  0  0  0  0
  193.6150  175.2760  137.0890 C   0  0  2  0  0  3  0  0  0  0  0  0
  193.8240  176.5420  137.6360 O   0  0  0  0  0  1  0  0  0  0  0  0
  194.6280  174.6330  134.8110 C   0  0  0  0  0  1  0  0  0  0  0  0
  194.8800  174.8290  136.3080 C   0  0  2  0  0  3  0  0  0  0  0  0
  194.7060  172.3900  136.7180 C   0  0  0  0  0  1  0  0  0  0  0  0
  195.6130  173.5990  136.9210 C   0  0  2  0  0  0  0  0  0  0  0  0
  196.6530  174.8620  138.8880 N   0  0  0  0  0  2  0  0  0  0  0  0
  196.8870  175.0850  140.3050 C   0  0  0  0  0  1  0  0  0  0  0  0
  195.8700  173.7610  138.4130 C   0  0  0  0  0  0  0  0  0  0  0  0
  195.3380  172.9720  139.2410 O   0  0  0  0  0  0  0  0  0  0  0  0
  196.8960  173.2720  136.1260 C   0  0  0  0  0  2  0  0  0  0  0  0
  197.9680  172.5320  136.8740 C   0  0  0  0  0  0  0  0  0  0  0  0
  199.0440  173.1060  137.1810 O   0  0  0  0  0  0  0  0  0  0  0  0
  197.7550  171.2140  137.2550 O   0  0  0  0  0  1  0  0  0  0  0  0
  1 26  1  6  0  0  0
  1 14  1  0  0  0  0
  1 18  1  0  0  0  0
  2 21  1  0  0  0  0
  4  6  1  0  0  0  0
  6 10  1  0  0  0  0
  7 20  1  6  0  0  0
  7  8  1  0  0  0  0
  8 10  2  0  0  0  0
 11 26  1  0  0  0  0
 12  4  1  1  0  0  0
 12  7  1  0  0  0  0
 13 15  1  0  0  0  0
 15 26  2  0  0  0  0
 16 28  2  0  0  0  0
 17 20  1  1  0  0  0
 18 31  1  0  0  0  0
 19  2  1  0  0  0  0
 21 23  1  0  0  0  0
 22 18  2  0  0  0  0
 22 16  1  0  0  0  0
 23  3  2  0  0  0  0
 23  9  1  0  0  0  0
 24 11  2  0  0  0  0
 25 38  1  6  0  0  0
 25 19  1  0  0  0  0
 27  9  1  6  0  0  0
 27 12  1  0  0  0  0
 28  5  1  0  0  0  0
 29 14  1  6  0  0  0
 29 27  1  0  0  0  0
 29 17  1  0  0  0  0
 30 32  1  0  0  0  0
 30 25  1  0  0  0  0
 31 17  1  0  0  0  0
 31  5  2  0  0  0  0
 32 13  1  0  0  0  0
 33 13  2  0  0  0  0
 33 24  1  0  0  0  0
 34 36  1  0  0  0  0
 34 16  1  0  0  0  0
 35 34  2  0  0  0  0
 37 38  1  0  0  0  0
 38 39  1  0  0  0  0
 40 41  1  1  0  0  0
 40 42  1  0  0  0  0
 40 39  1  0  0  0  0
 42 43  1  6  0  0  0
 45 44  1  6  0  0  0
 45 47  1  0  0  0  0
 45 42  1  0  0  0  0
 47 46  1  6  0  0  0
 47 50  1  0  0  0  0
 48 49  1  0  0  0  0
 50 48  1  0  0  0  0
 50 51  2  0  0  0  0
 52 53  1  0  0  0  0
 52 47  1  0  0  0  0
 53 54  2  0  0  0  0
 53 55  1  0  0  0  0
M  END
>  <MODEL>
3

>  <REMARK>
 VINA RESULT:      -9.3      1.913      5.431
  Name = 
  10 active torsions:
  status: ('A' for Active; 'I' for Inactive)
    1  A    between atoms: C_1  and  C_53
    2  A    between atoms: C_6  and  C_14
    3  A    between atoms: C_6  and  C_20
    4  A    between atoms: N_8  and  C_22
    5  A    between atoms: N_8  and  C_43
    6  A    between atoms: C_10  and  C_32
    7  A    between atoms: C_14  and  C_38
    8  A    between atoms: C_20  and  C_22
    9  A    between atoms: C_29  and  C_38
   10  A    between atoms: C_38  and  C_53
                            x       y       z     vdW  Elec       q    Type
                         _______ _______ _______ _____ _____    ______ ____

>  <TORSDO>
F 10

$$$$
=
 OpenBabel10272401333D

 55 60  0  0  1  0  0  0  0  0999 V2000
  187.0000  178.4390  142.4720 C   0  0  2  0  0  3  0  0  0  0  0  0
  184.6860  177.7380  138.4340 C   0  0  0  0  0  2  0  0  0  0  0  0
  187.1250  176.0320  137.8290 O   0  0  0  0  0  0  0  0  0  0  0  0
  190.8130  177.2050  137.9390 C   0  0  0  0  0  2  0  0  0  0  0  0
  189.6610  176.7120  144.5730 C   0  0  0  0  0  3  0  0  0  0  0  0
  192.2720  176.7260  137.7890 C   0  0  0  0  0  2  0  0  0  0  0  0
  191.2980  176.8970  140.4260 C   0  0  2  0  0  3  0  0  0  0  0  0
  192.7210  177.2700  140.1540 C   0  0  0  0  0  3  0  0  0  0  0  0
  188.0630  177.9830  138.7000 N   0  0  0  0  0  2  0  0  0  0  0  0
  193.1750  177.2070  138.8970 C   0  0  0  0  0  3  0  0  0  0  0  0
  185.1230  179.7440  143.5300 C   0  0  0  0  0  3  0  0  0  0  0  0
  190.4030  177.5880  139.3750 C   0  0  2  0  0  3  0  0  0  0  0  0
  183.2140  178.4130  141.9800 C   0  0  0  0  0  0  0  0  0  0  0  0
  187.2270  177.6250  141.3430 O   0  0  0  0  0  0  0  0  0  0  0  0
  184.5660  178.0730  141.8720 C   0  0  0  0  0  3  0  0  0  0  0  0
  187.9750  177.5750  146.0950 C   0  0  0  0  0  0  0  0  0  0  0  0
  189.4230  176.9470  142.0680 C   0  0  2  0  0  3  0  0  0  0  0  0
  187.7140  177.8660  143.6860 C   0  0  0  0  0  0  0  0  0  0  0  0
  183.5270  178.5120  138.0270 N   0  0  0  0  0  2  0  0  0  0  0  0
  190.8990  177.2810  141.8520 C   0  0  0  0  0  2  0  0  0  0  0  0
  185.8470  178.0110  137.4980 C   0  0  0  0  0  2  0  0  0  0  0  0
  187.2510  178.0620  144.9930 C   0  0  0  0  0  3  0  0  0  0  0  0
  187.0450  177.2790  137.9900 C   0  0  0  0  0  0  0  0  0  0  0  0
  183.7700  180.0770  143.6480 C   0  0  0  0  0  3  0  0  0  0  0  0
  182.3550  177.8650  138.6080 C   0  0  1  0  0  3  0  0  0  0  0  0
  185.5300  178.7280  142.6530 C   0  0  0  0  0  0  0  0  0  0  0  0
  188.9250  177.2880  139.6450 C   0  0  1  0  0  3  0  0  0  0  0  0
  189.1800  176.8970  145.8710 C   0  0  0  0  0  3  0  0  0  0  0  0
  188.5930  177.7520  141.0580 C   0  0  1  0  0  3  0  0  0  0  0  0
  181.9550  178.6230  139.8720 C   0  0  0  0  0  2  0  0  0  0  0  0
  188.9500  177.2180  143.4770 C   0  0  0  0  0  0  0  0  0  0  0  0
  182.2120  177.7590  141.0940 C   0  0  0  0  0  2  0  0  0  0  0  0
  182.8170  179.4140  142.8710 C   0  0  0  0  0  3  0  0  0  0  0  0
  187.4860  177.7700  147.4760 C   0  0  0  0  0  0  0  0  0  0  0  0
  186.5400  178.6590  147.7540 C   0  0  0  0  0  2  0  0  0  0  0  0
  188.0450  177.0100  148.5420 N   0  0  0  0  0  1  0  0  0  0  0  0
  180.0070  178.1020  138.3500 C   0  0  0  0  0  1  0  0  0  0  0  0
  181.2530  177.8510  137.6370 N   0  0  0  0  0  0  0  0  0  0  0  0
  181.1270  176.4980  137.1120 C   0  0  0  0  0  2  0  0  0  0  0  0
  181.6870  176.4250  135.6950 C   0  0  1  0  0  3  0  0  0  0  0  0
  181.6730  177.6810  135.0900 O   0  0  0  0  0  1  0  0  0  0  0  0
  183.0890  175.8090  135.6490 C   0  0  2  0  0  3  0  0  0  0  0  0
  183.8560  176.5360  134.7380 O   0  0  0  0  0  1  0  0  0  0  0  0
  181.8330  173.7170  134.8280 C   0  0  0  0  0  1  0  0  0  0  0  0
  183.1660  174.2980  135.3080 C   0  0  2  0  0  3  0  0  0  0  0  0
  183.7660  174.2390  137.7130 C   0  0  0  0  0  1  0  0  0  0  0  0
  183.7930  173.4160  136.4290 C   0  0  2  0  0  0  0  0  0  0  0  0
  186.1500  172.7980  137.2080 N   0  0  0  0  0  2  0  0  0  0  0  0
  187.5250  172.3890  136.9750 C   0  0  0  0  0  1  0  0  0  0  0  0
  185.2370  173.0370  136.1310 C   0  0  0  0  0  0  0  0  0  0  0  0
  185.6170  172.8610  134.9410 O   0  0  0  0  0  0  0  0  0  0  0  0
  182.9030  172.1880  136.7250 C   0  0  0  0  0  2  0  0  0  0  0  0
  183.2970  170.9070  136.0500 C   0  0  0  0  0  0  0  0  0  0  0  0
  184.1120  170.1210  136.5990 O   0  0  0  0  0  1  0  0  0  0  0  0
  182.7350  170.5730  134.8250 O   0  0  0  0  0  0  0  0  0  0  0  0
  1 14  1  6  0  0  0
  1 26  1  0  0  0  0
  1 18  1  0  0  0  0
  3 23  2  0  0  0  0
  5 28  1  0  0  0  0
  6  4  1  0  0  0  0
  6 10  1  0  0  0  0
  7  8  1  6  0  0  0
  7 20  1  0  0  0  0
 10  8  2  0  0  0  0
 11 24  1  0  0  0  0
 12  4  1  6  0  0  0
 12 27  1  0  0  0  0
 12  7  1  0  0  0  0
 13 33  1  0  0  0  0
 15 13  2  0  0  0  0
 15 26  1  0  0  0  0
 16 34  1  0  0  0  0
 17 20  1  1  0  0  0
 17 31  1  0  0  0  0
 18 22  2  0  0  0  0
 19  2  1  0  0  0  0
 19 25  1  0  0  0  0
 21 23  1  0  0  0  0
 21  2  1  0  0  0  0
 22 16  1  0  0  0  0
 23  9  1  0  0  0  0
 25 38  1  6  0  0  0
 25 30  1  0  0  0  0
 26 11  2  0  0  0  0
 27  9  1  6  0  0  0
 27 29  1  0  0  0  0
 28 16  2  0  0  0  0
 29 14  1  1  0  0  0
 29 17  1  0  0  0  0
 30 32  1  0  0  0  0
 31 18  1  0  0  0  0
 31  5  2  0  0  0  0
 32 13  1  0  0  0  0
 33 24  2  0  0  0  0
 34 35  2  0  0  0  0
 34 36  1  0  0  0  0
 38 37  1  0  0  0  0
 39 38  1  0  0  0  0
 40 41  1  1  0  0  0
 40 39  1  0  0  0  0
 42 43  1  6  0  0  0
 42 40  1  0  0  0  0
 45 44  1  1  0  0  0
 45 42  1  0  0  0  0
 45 47  1  0  0  0  0
 47 52  1  0  0  0  0
 47 46  1  1  0  0  0
 49 48  1  0  0  0  0
 50 47  1  0  0  0  0
 50 48  1  0  0  0  0
 51 50  2  0  0  0  0
 53 54  1  0  0  0  0
 53 52  1  0  0  0  0
 55 53  2  0  0  0  0
M  END
>  <MODEL>
4

>  <REMARK>
 VINA RESULT:      -8.9      3.589      8.229
  Name = 
  10 active torsions:
  status: ('A' for Active; 'I' for Inactive)
    1  A    between atoms: C_1  and  C_53
    2  A    between atoms: C_6  and  C_14
    3  A    between atoms: C_6  and  C_20
    4  A    between atoms: N_8  and  C_22
    5  A    between atoms: N_8  and  C_43
    6  A    between atoms: C_10  and  C_32
    7  A    between atoms: C_14  and  C_38
    8  A    between atoms: C_20  and  C_22
    9  A    between atoms: C_29  and  C_38
   10  A    between atoms: C_38  and  C_53
                            x       y       z     vdW  Elec       q    Type
                         _______ _______ _______ _____ _____    ______ ____

>  <TORSDO>
F 10

$$$$
=
 OpenBabel10272401333D

 55 60  0  0  1  0  0  0  0  0999 V2000
  187.0110  177.2990  143.4170 C   0  0  2  0  0  3  0  0  0  0  0  0
  186.9010  178.0400  138.7700 C   0  0  0  0  0  2  0  0  0  0  0  0
  184.6340  179.9040  139.5530 O   0  0  0  0  0  0  0  0  0  0  0  0
  181.4830  178.9370  141.5820 C   0  0  0  0  0  2  0  0  0  0  0  0
  185.9790  179.0810  146.6160 C   0  0  0  0  0  3  0  0  0  0  0  0
  180.2000  179.5030  142.2270 C   0  0  0  0  0  2  0  0  0  0  0  0
  182.3990  179.1650  143.9530 C   0  0  2  0  0  3  0  0  0  0  0  0
  181.0230  178.8850  144.4700 C   0  0  0  0  0  3  0  0  0  0  0  0
  184.1590  177.9740  140.7740 N   0  0  0  0  0  2  0  0  0  0  0  0
  179.9820  179.0270  143.6410 C   0  0  0  0  0  3  0  0  0  0  0  0
  189.0670  175.8470  143.3180 C   0  0  0  0  0  3  0  0  0  0  0  0
  182.5580  178.4710  142.5840 C   0  0  2  0  0  3  0  0  0  0  0  0
  189.9650  177.1340  141.0040 C   0  0  0  0  0  0  0  0  0  0  0  0
  186.2820  178.1720  142.5820 O   0  0  0  0  0  0  0  0  0  0  0  0
  188.7850  177.5540  141.6270 C   0  0  0  0  0  3  0  0  0  0  0  0
  188.1480  178.0610  147.0150 C   0  0  0  0  0  0  0  0  0  0  0  0
  184.8490  178.9400  144.3600 C   0  0  2  0  0  3  0  0  0  0  0  0
  187.0830  177.8590  144.8290 C   0  0  0  0  0  0  0  0  0  0  0  0
  187.6160  177.2210  137.8090 N   0  0  0  0  0  2  0  0  0  0  0  0
  183.4600  178.6990  144.9530 C   0  0  0  0  0  2  0  0  0  0  0  0
  185.4060  177.8730  138.5850 C   0  0  0  0  0  2  0  0  0  0  0  0
  188.1480  177.5820  145.6940 C   0  0  0  0  0  3  0  0  0  0  0  0
  184.7000  178.6500  139.6390 C   0  0  0  0  0  0  0  0  0  0  0  0
  190.2530  175.4340  142.7040 C   0  0  0  0  0  3  0  0  0  0  0  0
  188.9600  177.7760  137.6890 C   0  0  1  0  0  3  0  0  0  0  0  0
  188.3320  176.9210  142.7940 C   0  0  0  0  0  0  0  0  0  0  0  0
  183.9740  178.6750  142.0360 C   0  0  1  0  0  3  0  0  0  0  0  0
  187.0560  178.8150  147.4640 C   0  0  0  0  0  3  0  0  0  0  0  0
  184.9650  178.1340  143.0590 C   0  0  1  0  0  3  0  0  0  0  0  0
  189.9100  176.9430  138.5470 C   0  0  0  0  0  2  0  0  0  0  0  0
  185.9710  178.5840  145.3070 C   0  0  0  0  0  0  0  0  0  0  0  0
  190.3950  177.7680  139.7270 C   0  0  0  0  0  2  0  0  0  0  0  0
  190.7000  176.0750  141.5450 C   0  0  0  0  0  3  0  0  0  0  0  0
  189.2740  177.7810  147.9300 C   0  0  0  0  0  0  0  0  0  0  0  0
  189.4880  178.5240  149.0090 C   0  0  0  0  0  2  0  0  0  0  0  0
  190.1670  176.7080  147.6510 N   0  0  0  0  0  1  0  0  0  0  0  0
  188.4350  178.5570  135.5090 C   0  0  0  0  0  1  0  0  0  0  0  0
  189.3850  177.7690  136.2840 N   0  0  0  0  0  0  0  0  0  0  0  0
  189.2570  176.4090  135.7770 C   0  0  0  0  0  2  0  0  0  0  0  0
  187.7870  176.0560  135.5720 C   0  0  1  0  0  3  0  0  0  0  0  0
  187.2880  176.6580  134.4170 O   0  0  0  0  0  1  0  0  0  0  0  0
  187.5450  174.5440  135.5500 C   0  0  2  0  0  3  0  0  0  0  0  0
  188.0410  174.0390  134.3480 O   0  0  0  0  0  1  0  0  0  0  0  0
  185.2070  175.1120  136.4670 C   0  0  0  0  0  1  0  0  0  0  0  0
  186.0770  174.0790  135.7460 C   0  0  2  0  0  3  0  0  0  0  0  0
  186.4110  172.7850  137.8350 C   0  0  0  0  0  1  0  0  0  0  0  0
  185.9300  172.6690  136.3920 C   0  0  2  0  0  0  0  0  0  0  0  0
  187.6260  170.7550  136.4490 N   0  0  0  0  0  2  0  0  0  0  0  0
  188.4140  169.7050  135.8280 C   0  0  0  0  0  1  0  0  0  0  0  0
  186.7730  171.6160  135.6870 C   0  0  0  0  0  0  0  0  0  0  0  0
  186.6720  171.4480  134.4410 O   0  0  0  0  0  0  0  0  0  0  0  0
  184.4420  172.2680  136.5000 C   0  0  0  0  0  2  0  0  0  0  0  0
  183.8510  171.5840  135.3000 C   0  0  0  0  0  0  0  0  0  0  0  0
  183.3690  172.2600  134.3550 O   0  0  0  0  0  0  0  0  0  0  0  0
  183.8660  170.1990  135.2210 O   0  0  0  0  0  1  0  0  0  0  0  0
  1 14  1  6  0  0  0
  1 18  1  0  0  0  0
  3 23  2  0  0  0  0
  4  6  1  0  0  0  0
  5 28  1  0  0  0  0
  6 10  1  0  0  0  0
  7  8  1  1  0  0  0
  7 20  1  0  0  0  0
 10  8  2  0  0  0  0
 12  4  1  6  0  0  0
 12  7  1  0  0  0  0
 13 33  2  0  0  0  0
 13 15  1  0  0  0  0
 15 26  2  0  0  0  0
 16 28  2  0  0  0  0
 16 34  1  0  0  0  0
 17 20  1  1  0  0  0
 17 31  1  0  0  0  0
 18 31  1  0  0  0  0
 18 22  2  0  0  0  0
 19  2  1  0  0  0  0
 21  2  1  0  0  0  0
 21 23  1  0  0  0  0
 22 16  1  0  0  0  0
 23  9  1  0  0  0  0
 24 11  2  0  0  0  0
 25 38  1  6  0  0  0
 25 19  1  0  0  0  0
 25 30  1  0  0  0  0
 26 11  1  0  0  0  0
 26  1  1  0  0  0  0
 27  9  1  6  0  0  0
 27 12  1  0  0  0  0
 27 29  1  0  0  0  0
 29 14  1  6  0  0  0
 29 17  1  0  0  0  0
 30 32  1  0  0  0  0
 31  5  2  0  0  0  0
 32 13  1  0  0  0  0
 33 24  1  0  0  0  0
 34 35  2  0  0  0  0
 36 34  1  0  0  0  0
 37 38  1  0  0  0  0
 39 38  1  0  0  0  0
 40 41  1  6  0  0  0
 40 39  1  0  0  0  0
 42 43  1  6  0  0  0
 42 40  1  0  0  0  0
 42 45  1  0  0  0  0
 45 47  1  0  0  0  0
 45 44  1  1  0  0  0
 47 52  1  0  0  0  0
 47 46  1  1  0  0  0
 49 48  1  0  0  0  0
 50 47  1  0  0  0  0
 50 48  1  0  0  0  0
 51 50  2  0  0  0  0
 53 52  1  0  0  0  0
 54 53  2  0  0  0  0
 55 53  1  0  0  0  0
M  END
>  <MODEL>
5

>  <REMARK>
 VINA RESULT:      -8.3      3.474      4.933
  Name = 
  10 active torsions:
  status: ('A' for Active; 'I' for Inactive)
    1  A    between atoms: C_1  and  C_53
    2  A    between atoms: C_6  and  C_14
    3  A    between atoms: C_6  and  C_20
    4  A    between atoms: N_8  and  C_22
    5  A    between atoms: N_8  and  C_43
    6  A    between atoms: C_10  and  C_32
    7  A    between atoms: C_14  and  C_38
    8  A    between atoms: C_20  and  C_22
    9  A    between atoms: C_29  and  C_38
   10  A    between atoms: C_38  and  C_53
                            x       y       z     vdW  Elec       q    Type
                         _______ _______ _______ _____ _____    ______ ____

>  <TORSDO>
F 10

$$$$
=
 OpenBabel10272401333D

 55 60  0  0  1  0  0  0  0  0999 V2000
  187.1440  178.3890  142.4350 C   0  0  2  0  0  3  0  0  0  0  0  0
  184.6650  177.6960  138.4940 C   0  0  0  0  0  2  0  0  0  0  0  0
  187.0530  175.9480  137.8090 O   0  0  0  0  0  0  0  0  0  0  0  0
  190.7590  177.0630  137.7680 C   0  0  0  0  0  2  0  0  0  0  0  0
  189.8560  176.6360  144.4450 C   0  0  0  0  0  3  0  0  0  0  0  0
  192.2040  176.5610  137.5660 C   0  0  0  0  0  2  0  0  0  0  0  0
  191.3350  176.7660  140.2370 C   0  0  2  0  0  3  0  0  0  0  0  0
  192.7520  177.1140  139.9070 C   0  0  0  0  0  3  0  0  0  0  0  0
  188.0530  177.8900  138.6280 N   0  0  0  0  0  2  0  0  0  0  0  0
  193.1570  177.0350  138.6340 C   0  0  0  0  0  3  0  0  0  0  0  0
  185.3290  179.7300  143.5540 C   0  0  0  0  0  3  0  0  0  0  0  0
  190.4110  177.4630  139.2160 C   0  0  2  0  0  3  0  0  0  0  0  0
  183.3410  178.4180  142.0890 C   0  0  0  0  0  0  0  0  0  0  0  0
  187.3140  177.5630  141.3040 O   0  0  0  0  0  0  0  0  0  0  0  0
  184.6830  178.0560  141.9310 C   0  0  0  0  0  3  0  0  0  0  0  0
  188.2440  177.5350  146.0240 C   0  0  0  0  0  0  0  0  0  0  0  0
  189.5260  176.8560  141.9490 C   0  0  2  0  0  3  0  0  0  0  0  0
  187.8950  177.8130  143.6250 C   0  0  0  0  0  0  0  0  0  0  0  0
  183.5030  178.4850  138.1260 N   0  0  0  0  0  2  0  0  0  0  0  0
  190.9980  177.1660  141.6750 C   0  0  0  0  0  2  0  0  0  0  0  0
  185.7930  177.9440  137.5130 C   0  0  0  0  0  2  0  0  0  0  0  0
  187.4860  178.0260  144.9470 C   0  0  0  0  0  3  0  0  0  0  0  0
  186.9970  177.1970  137.9630 C   0  0  0  0  0  0  0  0  0  0  0  0
  183.9870  180.0850  143.7220 C   0  0  0  0  0  3  0  0  0  0  0  0
  182.3450  177.8600  138.7570 C   0  0  1  0  0  3  0  0  0  0  0  0
  185.6870  178.7020  142.6700 C   0  0  0  0  0  0  0  0  0  0  0  0
  188.9400  177.1880  139.5450 C   0  0  1  0  0  3  0  0  0  0  0  0
  189.4290  176.8360  145.7590 C   0  0  0  0  0  3  0  0  0  0  0  0
  188.6700  177.6670  140.9660 C   0  0  1  0  0  3  0  0  0  0  0  0
  182.0060  178.6330  140.0290 C   0  0  0  0  0  2  0  0  0  0  0  0
  189.1120  177.1440  143.3730 C   0  0  0  0  0  0  0  0  0  0  0  0
  182.2960  177.7740  141.2470 C   0  0  0  0  0  2  0  0  0  0  0  0
  182.9940  179.4320  142.9870 C   0  0  0  0  0  3  0  0  0  0  0  0
  187.8120  177.7470  147.4210 C   0  0  0  0  0  0  0  0  0  0  0  0
  188.6860  177.7550  148.4200 C   0  0  0  0  0  2  0  0  0  0  0  0
  186.4320  177.9280  147.7190 N   0  0  0  0  0  1  0  0  0  0  0  0
  180.0230  178.3110  138.5490 C   0  0  0  0  0  1  0  0  0  0  0  0
  181.2060  177.8560  137.8290 N   0  0  0  0  0  0  0  0  0  0  0  0
  180.9240  176.4750  137.4620 C   0  0  0  0  0  2  0  0  0  0  0  0
  181.0100  176.3000  135.9500 C   0  0  1  0  0  3  0  0  0  0  0  0
  181.9240  177.1970  135.3970 O   0  0  0  0  0  1  0  0  0  0  0  0
  181.3410  174.8600  135.5440 C   0  0  2  0  0  3  0  0  0  0  0  0
  180.1530  174.2240  135.1810 O   0  0  0  0  0  1  0  0  0  0  0  0
  183.3150  174.7050  137.1890 C   0  0  0  0  0  1  0  0  0  0  0  0
  182.0900  174.0030  136.5990 C   0  0  2  0  0  3  0  0  0  0  0  0
  182.7700  172.6470  134.6370 C   0  0  0  0  0  1  0  0  0  0  0  0
  182.4420  172.5610  136.1240 C   0  0  2  0  0  0  0  0  0  0  0  0
  181.0460  170.5710  135.3290 N   0  0  0  0  0  2  0  0  0  0  0  0
  179.9820  169.5920  135.4810 C   0  0  0  0  0  1  0  0  0  0  0  0
  181.2830  171.5910  136.3050 C   0  0  0  0  0  0  0  0  0  0  0  0
  180.5730  171.6330  137.3470 O   0  0  0  0  0  0  0  0  0  0  0  0
  183.7450  172.0660  136.7900 C   0  0  0  0  0  2  0  0  0  0  0  0
  184.8630  171.6910  135.8600 C   0  0  0  0  0  0  0  0  0  0  0  0
  185.0290  170.4930  135.5140 O   0  0  0  0  0  1  0  0  0  0  0  0
  185.6990  172.6780  135.3570 O   0  0  0  0  0  0  0  0  0  0  0  0
  1 14  1  6  0  0  0
  1 26  1  0  0  0  0
  1 18  1  0  0  0  0
  3 23  2  0  0  0  0
  5 28  1  0  0  0  0
  6  4  1  0  0  0  0
  6 10  1  0  0  0  0
  7  8  1  6  0  0  0
  7 20  1  0  0  0  0
 10  8  2  0  0  0  0
 11 24  1  0  0  0  0
 12  4  1  6  0  0  0
 12 27  1  0  0  0  0
 12  7  1  0  0  0  0
 13 33  1  0  0  0  0
 15 13  2  0  0  0  0
 15 26  1  0  0  0  0
 16 34  1  0  0  0  0
 17 20  1  1  0  0  0
 17 31  1  0  0  0  0
 18 22  2  0  0  0  0
 19  2  1  0  0  0  0
 19 25  1  0  0  0  0
 21 23  1  0  0  0  0
 21  2  1  0  0  0  0
 22 16  1  0  0  0  0
 23  9  1  0  0  0  0
 25 38  1  6  0  0  0
 25 30  1  0  0  0  0
 26 11  2  0  0  0  0
 27  9  1  6  0  0  0
 27 29  1  0  0  0  0
 28 16  2  0  0  0  0
 29 14  1  1  0  0  0
 29 17  1  0  0  0  0
 30 32  1  0  0  0  0
 31 18  1  0  0  0  0
 31  5  2  0  0  0  0
 32 13  1  0  0  0  0
 33 24  2  0  0  0  0
 34 36  1  0  0  0  0
 34 35  2  0  0  0  0
 38 37  1  0  0  0  0
 39 38  1  0  0  0  0
 40 41  1  1  0  0  0
 40 39  1  0  0  0  0
 42 43  1  1  0  0  0
 42 40  1  0  0  0  0
 42 45  1  0  0  0  0
 45 44  1  6  0  0  0
 47 46  1  6  0  0  0
 47 50  1  0  0  0  0
 47 45  1  0  0  0  0
 47 52  1  0  0  0  0
 48 49  1  0  0  0  0
 48 50  1  0  0  0  0
 50 51  2  0  0  0  0
 53 52  1  0  0  0  0
 54 53  1  0  0  0  0
 55 53  2  0  0  0  0
M  END
>  <MODEL>
6

>  <REMARK>
 VINA RESULT:      -8.1      4.164      8.734
  Name = 
  10 active torsions:
  status: ('A' for Active; 'I' for Inactive)
    1  A    between atoms: C_1  and  C_53
    2  A    between atoms: C_6  and  C_14
    3  A    between atoms: C_6  and  C_20
    4  A    between atoms: N_8  and  C_22
    5  A    between atoms: N_8  and  C_43
    6  A    between atoms: C_10  and  C_32
    7  A    between atoms: C_14  and  C_38
    8  A    between atoms: C_20  and  C_22
    9  A    between atoms: C_29  and  C_38
   10  A    between atoms: C_38  and  C_53
                            x       y       z     vdW  Elec       q    Type
                         _______ _______ _______ _____ _____    ______ ____

>  <TORSDO>
F 10

$$$$
=
 OpenBabel10272401333D

 55 60  0  0  1  0  0  0  0  0999 V2000
  186.1060  178.5880  141.8840 C   0  0  2  0  0  3  0  0  0  0  0  0
  189.9270  176.4780  140.1250 C   0  0  0  0  0  2  0  0  0  0  0  0
  190.0960  175.3780  142.9510 O   0  0  0  0  0  0  0  0  0  0  0  0
  190.1850  177.4660  146.2100 C   0  0  0  0  0  2  0  0  0  0  0  0
  183.6280  178.0940  144.7280 C   0  0  0  0  0  3  0  0  0  0  0  0
  190.1990  177.3630  147.7490 C   0  0  0  0  0  2  0  0  0  0  0  0
  187.6830  177.8230  146.5700 C   0  0  2  0  0  3  0  0  0  0  0  0
  188.0060  178.4880  147.8710 C   0  0  0  0  0  3  0  0  0  0  0  0
  189.6640  177.6430  143.3040 N   0  0  0  0  0  2  0  0  0  0  0  0
  189.2100  178.2830  148.4190 C   0  0  0  0  0  3  0  0  0  0  0  0
  185.3970  179.5510  139.6670 C   0  0  0  0  0  3  0  0  0  0  0  0
  188.8770  178.0210  145.6120 C   0  0  2  0  0  3  0  0  0  0  0  0
  186.6460  177.4750  138.2720 C   0  0  0  0  0  0  0  0  0  0  0  0
  187.0220  177.6430  142.3900 O   0  0  0  0  0  0  0  0  0  0  0  0
  186.6520  177.4830  139.6700 C   0  0  0  0  0  3  0  0  0  0  0  0
  182.3650  178.7870  142.7720 C   0  0  0  0  0  0  0  0  0  0  0  0
  186.1270  177.7270  144.6260 C   0  0  2  0  0  3  0  0  0  0  0  0
  184.7820  178.4890  142.6260 C   0  0  0  0  0  0  0  0  0  0  0  0
  190.5160  176.8210  138.8430 N   0  0  0  0  0  2  0  0  0  0  0  0
  186.3850  178.3810  145.9840 C   0  0  0  0  0  2  0  0  0  0  0  0
  190.8800  176.8410  141.2460 C   0  0  0  0  0  2  0  0  0  0  0  0
  183.5600  178.8270  142.0340 C   0  0  0  0  0  3  0  0  0  0  0  0
  190.2180  176.5660  142.5490 C   0  0  0  0  0  0  0  0  0  0  0  0
  185.3790  179.5390  138.2690 C   0  0  0  0  0  3  0  0  0  0  0  0
  189.8270  176.0280  137.8300 C   0  0  1  0  0  3  0  0  0  0  0  0
  186.0190  178.5160  140.3790 C   0  0  0  0  0  0  0  0  0  0  0  0
  188.5730  177.4110  144.2390 C   0  0  1  0  0  3  0  0  0  0  0  0
  182.4120  178.4150  144.1210 C   0  0  0  0  0  3  0  0  0  0  0  0
  187.3040  178.0580  143.6990 C   0  0  1  0  0  3  0  0  0  0  0  0
  188.7700  176.9030  137.1600 C   0  0  0  0  0  2  0  0  0  0  0  0
  184.8210  178.1550  143.9970 C   0  0  0  0  0  0  0  0  0  0  0  0
  187.3820  176.4120  137.5330 C   0  0  0  0  0  2  0  0  0  0  0  0
  186.0060  178.5030  137.5720 C   0  0  0  0  0  3  0  0  0  0  0  0
  181.0700  179.1340  142.1490 C   0  0  0  0  0  0  0  0  0  0  0  0
  180.5650  178.4070  141.1590 C   0  0  0  0  0  2  0  0  0  0  0  0
  180.3500  180.2770  142.5950 N   0  0  0  0  0  1  0  0  0  0  0  0
  190.3350  174.2190  136.3770 C   0  0  0  0  0  1  0  0  0  0  0  0
  190.7890  175.5240  136.8420 N   0  0  0  0  0  0  0  0  0  0  0  0
  192.0500  175.2700  137.5250 C   0  0  0  0  0  2  0  0  0  0  0  0
  193.1750  176.0730  136.8800 C   0  0  1  0  0  3  0  0  0  0  0  0
  193.7740  176.9240  137.8090 O   0  0  0  0  0  1  0  0  0  0  0  0
  194.2190  175.1810  136.2010 C   0  0  2  0  0  3  0  0  0  0  0  0
  193.5950  174.4920  135.1610 O   0  0  0  0  0  1  0  0  0  0  0  0
  194.9720  174.5930  138.5920 C   0  0  0  0  0  1  0  0  0  0  0  0
  194.9670  174.1770  137.1180 C   0  0  2  0  0  3  0  0  0  0  0  0
  196.9670  175.0370  135.9320 C   0  0  0  0  0  1  0  0  0  0  0  0
  196.4000  173.8070  136.6330 C   0  0  2  0  0  0  0  0  0  0  0  0
  195.4370  171.5960  135.7800 N   0  0  0  0  0  2  0  0  0  0  0  0
  195.3640  170.4940  134.8360 C   0  0  0  0  0  1  0  0  0  0  0  0
  196.3970  172.6490  135.6440 C   0  0  0  0  0  0  0  0  0  0  0  0
  197.1880  172.6480  134.6620 O   0  0  0  0  0  0  0  0  0  0  0  0
  197.3420  173.5640  137.8340 C   0  0  0  0  0  2  0  0  0  0  0  0
  198.7630  174.0150  137.6620 C   0  0  0  0  0  0  0  0  0  0  0  0
  199.1830  175.0410  138.2570 O   0  0  0  0  0  1  0  0  0  0  0  0
  199.6270  173.2780  136.8630 O   0  0  0  0  0  0  0  0  0  0  0  0
  1 26  1  6  0  0  0
  1 14  1  0  0  0  0
  1 18  1  0  0  0  0
  2 21  1  0  0  0  0
  4  6  1  0  0  0  0
  6 10  1  0  0  0  0
  7 20  1  6  0  0  0
  7  8  1  0  0  0  0
  8 10  2  0  0  0  0
 11 26  1  0  0  0  0
 12  4  1  1  0  0  0
 12  7  1  0  0  0  0
 13 15  1  0  0  0  0
 15 26  2  0  0  0  0
 16 28  2  0  0  0  0
 17 20  1  1  0  0  0
 18 31  1  0  0  0  0
 19  2  1  0  0  0  0
 21 23  1  0  0  0  0
 22 18  2  0  0  0  0
 22 16  1  0  0  0  0
 23  3  2  0  0  0  0
 23  9  1  0  0  0  0
 24 11  2  0  0  0  0
 25 38  1  6  0  0  0
 25 19  1  0  0  0  0
 27  9  1  6  0  0  0
 27 12  1  0  0  0  0
 28  5  1  0  0  0  0
 29 14  1  6  0  0  0
 29 27  1  0  0  0  0
 29 17  1  0  0  0  0
 30 32  1  0  0  0  0
 30 25  1  0  0  0  0
 31 17  1  0  0  0  0
 31  5  2  0  0  0  0
 32 13  1  0  0  0  0
 33 24  1  0  0  0  0
 33 13  2  0  0  0  0
 34 36  1  0  0  0  0
 34 16  1  0  0  0  0
 35 34  2  0  0  0  0
 37 38  1  0  0  0  0
 38 39  1  0  0  0  0
 40 39  1  0  0  0  0
 40 41  1  1  0  0  0
 42 43  1  6  0  0  0
 42 40  1  0  0  0  0
 42 45  1  0  0  0  0
 45 44  1  1  0  0  0
 47 46  1  6  0  0  0
 47 45  1  0  0  0  0
 47 52  1  0  0  0  0
 49 48  1  0  0  0  0
 50 48  1  0  0  0  0
 50 47  1  0  0  0  0
 51 50  2  0  0  0  0
 53 52  1  0  0  0  0
 53 54  1  0  0  0  0
 55 53  2  0  0  0  0
M  END
>  <MODEL>
7

>  <REMARK>
 VINA RESULT:      -8.0      1.866      5.468
  Name = 
  10 active torsions:
  status: ('A' for Active; 'I' for Inactive)
    1  A    between atoms: C_1  and  C_53
    2  A    between atoms: C_6  and  C_14
    3  A    between atoms: C_6  and  C_20
    4  A    between atoms: N_8  and  C_22
    5  A    between atoms: N_8  and  C_43
    6  A    between atoms: C_10  and  C_32
    7  A    between atoms: C_14  and  C_38
    8  A    between atoms: C_20  and  C_22
    9  A    between atoms: C_29  and  C_38
   10  A    between atoms: C_38  and  C_53
                            x       y       z     vdW  Elec       q    Type
                         _______ _______ _______ _____ _____    ______ ____

>  <TORSDO>
F 10

$$$$
=
 OpenBabel10272401333D

 55 60  0  0  1  0  0  0  0  0999 V2000
  185.8410  173.9170  135.9130 C   0  0  2  0  0  3  0  0  0  0  0  0
  188.7750  177.1660  137.6410 C   0  0  0  0  0  2  0  0  0  0  0  0
  186.3000  177.9430  139.2220 O   0  0  0  0  0  0  0  0  0  0  0  0
  182.8380  178.8410  137.7420 C   0  0  0  0  0  2  0  0  0  0  0  0
  182.6320  172.1430  136.9260 C   0  0  0  0  0  3  0  0  0  0  0  0
  181.3850  179.2050  138.1150 C   0  0  0  0  0  2  0  0  0  0  0  0
  181.8520  176.5020  137.4780 C   0  0  2  0  0  3  0  0  0  0  0  0
  180.5660  177.1350  137.0500 C   0  0  0  0  0  3  0  0  0  0  0  0
  185.4680  177.6750  137.0590 N   0  0  0  0  0  2  0  0  0  0  0  0
  180.3550  178.4250  137.3370 C   0  0  0  0  0  3  0  0  0  0  0  0
  187.6320  172.7500  134.5800 C   0  0  0  0  0  3  0  0  0  0  0  0
  183.0110  177.4490  137.1020 C   0  0  2  0  0  3  0  0  0  0  0  0
  189.6170  173.5800  136.3660 C   0  0  0  0  0  0  0  0  0  0  0  0
  185.7330  174.8950  136.9240 O   0  0  0  0  0  0  0  0  0  0  0  0
  188.2780  173.9070  136.6040 C   0  0  0  0  0  3  0  0  0  0  0  0
  184.0920  170.4880  135.9100 C   0  0  0  0  0  0  0  0  0  0  0  0
  183.3710  174.5380  137.2440 C   0  0  2  0  0  3  0  0  0  0  0  0
  184.8420  172.7970  136.1550 C   0  0  0  0  0  0  0  0  0  0  0  0
  190.0780  177.4560  137.0720 N   0  0  0  0  0  2  0  0  0  0  0  0
  182.0170  175.1210  136.8380 C   0  0  0  0  0  2  0  0  0  0  0  0
  187.8580  178.3610  137.4730 C   0  0  0  0  0  2  0  0  0  0  0  0
  185.0680  171.4820  135.7290 C   0  0  0  0  0  3  0  0  0  0  0  0
  186.5060  178.0070  137.9810 C   0  0  0  0  0  0  0  0  0  0  0  0
  188.9680  172.4120  134.3460 C   0  0  0  0  0  3  0  0  0  0  0  0
  191.0270  176.5290  137.6810 C   0  0  1  0  0  3  0  0  0  0  0  0
  187.2740  173.4860  135.7190 C   0  0  0  0  0  0  0  0  0  0  0  0
  184.3610  176.8200  137.4630 C   0  0  1  0  0  3  0  0  0  0  0  0
  182.8760  170.8310  136.5150 C   0  0  0  0  0  3  0  0  0  0  0  0
  184.4730  175.4820  136.7430 C   0  0  1  0  0  3  0  0  0  0  0  0
  191.2710  175.3750  136.7110 C   0  0  0  0  0  2  0  0  0  0  0  0
  183.5970  173.1380  136.7250 C   0  0  0  0  0  0  0  0  0  0  0  0
  190.6790  174.0940  137.2740 C   0  0  0  0  0  2  0  0  0  0  0  0
  189.9610  172.8300  135.2370 C   0  0  0  0  0  3  0  0  0  0  0  0
  184.3290  169.0960  135.4720 C   0  0  0  0  0  0  0  0  0  0  0  0
  185.4300  168.7590  134.8100 C   0  0  0  0  0  2  0  0  0  0  0  0
  183.3580  168.0910  135.7410 N   0  0  0  0  0  1  0  0  0  0  0  0
  193.3780  176.5090  137.3470 C   0  0  0  0  0  1  0  0  0  0  0  0
  192.2830  177.2230  137.9920 N   0  0  0  0  0  0  0  0  0  0  0  0
  192.5310  177.0920  139.4220 C   0  0  0  0  0  2  0  0  0  0  0  0
  191.2280  177.2270  140.2010 C   0  0  1  0  0  3  0  0  0  0  0  0
  190.4850  176.0480  140.1370 O   0  0  0  0  0  1  0  0  0  0  0  0
  191.4550  177.6520  141.6560 C   0  0  2  0  0  3  0  0  0  0  0  0
  192.5220  176.9120  142.1660 O   0  0  0  0  0  1  0  0  0  0  0  0
  189.0050  178.2970  142.1110 C   0  0  0  0  0  1  0  0  0  0  0  0
  190.2350  177.5330  142.6070 C   0  0  2  0  0  3  0  0  0  0  0  0
  191.5350  179.0300  144.0960 C   0  0  0  0  0  1  0  0  0  0  0  0
  190.5440  177.8700  144.0960 C   0  0  2  0  0  0  0  0  0  0  0  0
  191.7070  176.8890  146.1530 N   0  0  0  0  0  2  0  0  0  0  0  0
  192.2760  175.7940  146.9190 C   0  0  0  0  0  1  0  0  0  0  0  0
  191.1750  176.6990  144.8370 C   0  0  0  0  0  0  0  0  0  0  0  0
  191.1680  175.5440  144.3290 O   0  0  0  0  0  0  0  0  0  0  0  0
  189.2880  178.4200  144.8070 C   0  0  0  0  0  2  0  0  0  0  0  0
  188.3830  177.3990  145.4350 C   0  0  0  0  0  0  0  0  0  0  0  0
  187.5920  176.7260  144.7240 O   0  0  0  0  0  0  0  0  0  0  0  0
  188.4410  177.1780  146.8040 O   0  0  0  0  0  1  0  0  0  0  0  0
  1 26  1  1  0  0  0
  1 18  1  0  0  0  0
  1 14  1  0  0  0  0
  4  6  1  0  0  0  0
  7 20  1  6  0  0  0
  8 10  2  0  0  0  0
  8  7  1  0  0  0  0
  9 23  1  0  0  0  0
 10  6  1  0  0  0  0
 11 26  1  0  0  0  0
 12 27  1  0  0  0  0
 12  7  1  0  0  0  0
 12  4  1  1  0  0  0
 13 15  1  0  0  0  0
 13 32  1  0  0  0  0
 16 28  1  0  0  0  0
 17 20  1  6  0  0  0
 18 31  2  0  0  0  0
 19  2  1  0  0  0  0
 19 25  1  0  0  0  0
 21  2  1  0  0  0  0
 21 23  1  0  0  0  0
 22 16  2  0  0  0  0
 22 18  1  0  0  0  0
 23  3  2  0  0  0  0
 24 11  2  0  0  0  0
 24 33  1  0  0  0  0
 25 38  1  6  0  0  0
 26 15  2  0  0  0  0
 27  9  1  6  0  0  0
 28  5  2  0  0  0  0
 29 14  1  1  0  0  0
 29 17  1  0  0  0  0
 29 27  1  0  0  0  0
 30 32  1  0  0  0  0
 30 25  1  0  0  0  0
 31  5  1  0  0  0  0
 31 17  1  0  0  0  0
 33 13  2  0  0  0  0
 34 36  1  0  0  0  0
 34 16  1  0  0  0  0
 35 34  2  0  0  0  0
 37 38  1  0  0  0  0
 38 39  1  0  0  0  0
 39 40  1  0  0  0  0
 40 41  1  1  0  0  0
 40 42  1  0  0  0  0
 42 43  1  1  0  0  0
 42 45  1  0  0  0  0
 45 44  1  6  0  0  0
 45 47  1  0  0  0  0
 47 46  1  6  0  0  0
 47 52  1  0  0  0  0
 47 50  1  0  0  0  0
 48 49  1  0  0  0  0
 50 48  1  0  0  0  0
 51 50  2  0  0  0  0
 52 53  1  0  0  0  0
 53 55  1  0  0  0  0
 54 53  2  0  0  0  0
M  END
>  <MODEL>
8

>  <REMARK>
 VINA RESULT:      -7.6      4.219      8.759
  Name = 
  10 active torsions:
  status: ('A' for Active; 'I' for Inactive)
    1  A    between atoms: C_1  and  C_53
    2  A    between atoms: C_6  and  C_14
    3  A    between atoms: C_6  and  C_20
    4  A    between atoms: N_8  and  C_22
    5  A    between atoms: N_8  and  C_43
    6  A    between atoms: C_10  and  C_32
    7  A    between atoms: C_14  and  C_38
    8  A    between atoms: C_20  and  C_22
    9  A    between atoms: C_29  and  C_38
   10  A    between atoms: C_38  and  C_53
                            x       y       z     vdW  Elec       q    Type
                         _______ _______ _______ _____ _____    ______ ____

>  <TORSDO>
F 10

$$$$
