=
 OpenBabel10272414553D

 37 41  0  0  1  0  0  0  0  0999 V2000
  190.7460  176.7500  146.0030 C   0  0  2  0  0  3  0  0  0  0  0  0
  190.5140  176.1710  142.4650 C   0  0  0  0  0  2  0  0  0  0  0  0
  188.2780  176.8850  143.5110 C   0  0  2  0  0  3  0  0  0  0  0  0
  192.4760  179.1980  144.2450 O   0  0  0  0  0  1  0  0  0  0  0  0
  189.1340  175.7380  142.9690 C   0  0  0  0  0  2  0  0  0  0  0  0
  191.4980  177.9260  145.8690 O   0  0  0  0  0  0  0  0  0  0  0  0
  191.5350  178.1990  144.4940 C   0  0  1  0  0  3  0  0  0  0  0  0
  190.5560  177.4930  141.6760 C   0  0  2  0  0  3  0  0  0  0  0  0
  188.9810  177.7860  144.5390 C   0  0  2  0  0  3  0  0  0  0  0  0
  190.1230  178.7610  142.4440 C   0  0  0  0  0  2  0  0  0  0  0  0
  190.1510  178.6430  143.9790 C   0  0  2  0  0  3  0  0  0  0  0  0
  189.2690  177.0970  145.8800 C   0  0  0  0  0  2  0  0  0  0  0  0
  189.8920  177.3970  140.3370 C   0  0  0  0  0  0  0  0  0  0  0  0
  188.9820  178.7100  137.5850 C   0  0  0  0  0  2  0  0  0  0  0  0
  189.1090  177.8220  136.3580 C   0  0  0  0  0  2  0  0  0  0  0  0
  190.3970  177.0090  136.4020 C   0  0  0  0  0  2  0  0  0  0  0  0
  190.8690  175.7880  138.5260 C   0  0  0  0  0  3  0  0  0  0  0  0
  190.2140  175.7140  137.1850 C   0  0  0  0  0  2  0  0  0  0  0  0
  188.1040  178.0390  138.6270 C   0  0  0  0  0  2  0  0  0  0  0  0
  190.3990  176.5800  139.4490 C   0  0  0  0  0  0  0  0  0  0  0  0
  188.6850  178.2510  140.0230 C   0  0  0  0  0  2  0  0  0  0  0  0
  191.0150  176.1180  147.3550 C   0  0  0  0  0  3  0  0  0  0  0  0
  192.2310  176.7700  147.9810 C   0  0  0  0  0  2  0  0  0  0  0  0
  192.3570  175.4130  147.3210 C   0  0  0  0  0  2  0  0  0  0  0  0
  186.9280  176.3890  144.0160 C   0  0  0  0  0  2  0  0  0  0  0  0
  184.9600  179.5250  144.8280 N   0  0  0  0  0  0  0  0  0  0  0  0
  185.5250  178.5340  144.0800 C   0  0  0  0  0  0  0  0  0  0  0  0
  185.0170  179.5380  146.1850 C   0  0  0  0  0  3  0  0  0  0  0  0
  186.2670  177.4890  146.1400 C   0  0  0  0  0  3  0  0  0  0  0  0
  185.6700  178.5160  146.8670 C   0  0  0  0  0  3  0  0  0  0  0  0
  186.2050  177.4820  144.7420 C   0  0  0  0  0  0  0  0  0  0  0  0
  183.9610  178.0440  140.5780 C   0  0  0  0  0  0  0  0  0  0  0  0
  185.3870  178.6140  142.6080 C   0  0  0  0  0  0  0  0  0  0  0  0
  184.2320  178.0380  141.9830 N   0  0  0  0  0  2  0  0  0  0  0  0
  186.2770  179.1640  141.9030 O   0  0  0  0  0  0  0  0  0  0  0  0
  182.4700  177.2710  139.9710 S   0  0  0  0  0  1  0  0  0  0  0  0
  184.7540  178.5840  139.7630 O   0  0  0  0  0  0  0  0  0  0  0  0
  1 22  1  1  0  0  0
  2  5  1  0  0  0  0
  3 25  1  1  0  0  0
  3  9  1  0  0  0  0
  5  3  1  0  0  0  0
  6  1  1  0  0  0  0
  7  4  1  1  0  0  0
  7  6  1  0  0  0  0
  8 13  1  6  0  0  0
  8 10  1  0  0  0  0
  8  2  1  0  0  0  0
  9 12  1  1  0  0  0
 11 10  1  6  0  0  0
 11  7  1  0  0  0  0
 11  9  1  0  0  0  0
 12  1  1  0  0  0  0
 14 19  1  0  0  0  0
 15 16  1  0  0  0  0
 15 14  1  0  0  0  0
 16 18  1  0  0  0  0
 17 20  2  0  0  0  0
 18 17  1  0  0  0  0
 19 21  1  0  0  0  0
 20 13  2  0  0  0  0
 21 13  1  0  0  0  0
 22 23  1  0  0  0  0
 24 22  1  0  0  0  0
 24 23  1  0  0  0  0
 25 31  1  0  0  0  0
 26 28  1  0  0  0  0
 27 31  1  0  0  0  0
 27 26  2  0  0  0  0
 28 30  2  0  0  0  0
 29 30  1  0  0  0  0
 31 29  2  0  0  0  0
 32 34  1  0  0  0  0
 33 27  1  0  0  0  0
 34 33  1  0  0  0  0
 35 33  2  0  0  0  0
 36 32  1  0  0  0  0
 37 32  2  0  0  0  0
M  END
>  <MODEL>
1

>  <REMARK>
 VINA RESULT:      -9.9      0.000      0.000
  Name = 
  5 active torsions:
  status: ('A' for Active; 'I' for Inactive)
    1  A    between atoms: C_1  and  C_5
    2  A    between atoms: C_2  and  C_27
    3  A    between atoms: C_4  and  C_10
    4  A    between atoms: C_4  and  C_28
    5  A    between atoms: C_13  and  C_20
                            x       y       z     vdW  Elec       q    Type
                         _______ _______ _______ _____ _____    ______ ____

>  <TORSDO>
F 5

$$$$
=
 OpenBabel10272414553D

 37 41  0  0  1  0  0  0  0  0999 V2000
  190.6370  176.8110  145.8980 C   0  0  2  0  0  3  0  0  0  0  0  0
  190.3580  176.1160  142.3850 C   0  0  0  0  0  2  0  0  0  0  0  0
  188.2420  177.1980  143.3620 C   0  0  2  0  0  3  0  0  0  0  0  0
  192.7290  178.8970  144.0680 O   0  0  0  0  0  1  0  0  0  0  0  0
  188.9250  175.9140  142.8840 C   0  0  0  0  0  2  0  0  0  0  0  0
  191.5560  177.8560  145.7280 O   0  0  0  0  0  0  0  0  0  0  0  0
  191.6470  178.0600  144.3430 C   0  0  1  0  0  3  0  0  0  0  0  0
  190.6040  177.3810  141.5410 C   0  0  2  0  0  3  0  0  0  0  0  0
  189.0600  178.0300  144.3630 C   0  0  2  0  0  3  0  0  0  0  0  0
  190.3550  178.7320  142.2470 C   0  0  0  0  0  2  0  0  0  0  0  0
  190.3500  178.6790  143.7870 C   0  0  2  0  0  3  0  0  0  0  0  0
  189.2290  177.3670  145.7370 C   0  0  0  0  0  2  0  0  0  0  0  0
  189.9470  177.3240  140.1970 C   0  0  0  0  0  0  0  0  0  0  0  0
  189.1460  178.6860  137.4350 C   0  0  0  0  0  2  0  0  0  0  0  0
  189.2270  177.7900  136.2110 C   0  0  0  0  0  2  0  0  0  0  0  0
  190.4600  176.8960  136.2670 C   0  0  0  0  0  2  0  0  0  0  0  0
  190.8340  175.6520  138.3980 C   0  0  0  0  0  3  0  0  0  0  0  0
  190.1880  175.6170  137.0510 C   0  0  0  0  0  2  0  0  0  0  0  0
  188.2180  178.0750  138.4700 C   0  0  0  0  0  2  0  0  0  0  0  0
  190.4080  176.4750  139.3140 C   0  0  0  0  0  0  0  0  0  0  0  0
  188.7990  178.2530  139.8710 C   0  0  0  0  0  2  0  0  0  0  0  0
  190.7960  176.2070  147.2810 C   0  0  0  0  0  3  0  0  0  0  0  0
  192.0510  176.7560  147.9280 C   0  0  0  0  0  2  0  0  0  0  0  0
  192.0590  175.3700  147.3200 C   0  0  0  0  0  2  0  0  0  0  0  0
  186.8280  176.9300  143.8650 C   0  0  0  0  0  2  0  0  0  0  0  0
  183.9870  179.3220  143.1100 N   0  0  0  0  0  0  0  0  0  0  0  0
  184.8940  178.6110  143.8400 C   0  0  0  0  0  0  0  0  0  0  0  0
  183.9650  179.2980  141.7510 C   0  0  0  0  0  3  0  0  0  0  0  0
  185.8260  177.7810  141.7600 C   0  0  0  0  0  3  0  0  0  0  0  0
  184.8890  178.5270  141.0500 C   0  0  0  0  0  3  0  0  0  0  0  0
  185.8430  177.8100  143.1590 C   0  0  0  0  0  0  0  0  0  0  0  0
  186.1310  178.6230  147.5040 C   0  0  0  0  0  0  0  0  0  0  0  0
  184.8350  178.7260  145.3160 C   0  0  0  0  0  0  0  0  0  0  0  0
  186.0340  178.5390  146.0780 N   0  0  0  0  0  2  0  0  0  0  0  0
  183.7440  178.9660  145.9030 O   0  0  0  0  0  0  0  0  0  0  0  0
  187.7110  178.3540  148.2910 S   0  0  0  0  0  1  0  0  0  0  0  0
  185.1230  178.8850  148.2110 O   0  0  0  0  0  0  0  0  0  0  0  0
  1 22  1  1  0  0  0
  2  5  1  0  0  0  0
  3 25  1  1  0  0  0
  3  9  1  0  0  0  0
  5  3  1  0  0  0  0
  6  1  1  0  0  0  0
  7  4  1  1  0  0  0
  7  6  1  0  0  0  0
  8 13  1  6  0  0  0
  8 10  1  0  0  0  0
  8  2  1  0  0  0  0
  9 12  1  1  0  0  0
 11 10  1  6  0  0  0
 11  7  1  0  0  0  0
 11  9  1  0  0  0  0
 12  1  1  0  0  0  0
 14 19  1  0  0  0  0
 15 16  1  0  0  0  0
 15 14  1  0  0  0  0
 16 18  1  0  0  0  0
 17 20  2  0  0  0  0
 18 17  1  0  0  0  0
 19 21  1  0  0  0  0
 20 13  2  0  0  0  0
 21 13  1  0  0  0  0
 22 24  1  0  0  0  0
 22 23  1  0  0  0  0
 24 23  1  0  0  0  0
 26 27  1  0  0  0  0
 27 33  1  0  0  0  0
 28 26  2  0  0  0  0
 29 31  1  0  0  0  0
 30 28  1  0  0  0  0
 30 29  2  0  0  0  0
 31 27  2  0  0  0  0
 31 25  1  0  0  0  0
 32 37  2  0  0  0  0
 32 36  1  0  0  0  0
 33 35  2  0  0  0  0
 33 34  1  0  0  0  0
 34 32  1  0  0  0  0
M  END
>  <MODEL>
2

>  <REMARK>
 VINA RESULT:      -8.4      2.203      3.104
  Name = 
  5 active torsions:
  status: ('A' for Active; 'I' for Inactive)
    1  A    between atoms: C_1  and  C_5
    2  A    between atoms: C_2  and  C_27
    3  A    between atoms: C_4  and  C_10
    4  A    between atoms: C_4  and  C_28
    5  A    between atoms: C_13  and  C_20
                            x       y       z     vdW  Elec       q    Type
                         _______ _______ _______ _____ _____    ______ ____

>  <TORSDO>
F 5

$$$$
=
 OpenBabel10272414553D

 37 41  0  0  1  0  0  0  0  0999 V2000
  183.9390  177.9130  141.0750 C   0  0  2  0  0  3  0  0  0  0  0  0
  186.3830  176.8770  143.4950 C   0  0  0  0  0  2  0  0  0  0  0  0
  187.1400  178.9080  142.1150 C   0  0  2  0  0  3  0  0  0  0  0  0
  182.8240  178.5700  144.2990 O   0  0  0  0  0  1  0  0  0  0  0  0
  187.2480  177.3980  142.3440 C   0  0  0  0  0  2  0  0  0  0  0  0
  183.0460  178.4130  142.0320 O   0  0  0  0  0  0  0  0  0  0  0  0
  183.7230  178.3410  143.2580 C   0  0  1  0  0  3  0  0  0  0  0  0
  186.3360  177.7620  144.7550 C   0  0  2  0  0  3  0  0  0  0  0  0
  185.7030  179.4440  142.0090 C   0  0  2  0  0  3  0  0  0  0  0  0
  185.7440  179.1780  144.5730 C   0  0  0  0  0  2  0  0  0  0  0  0
  184.8700  179.3700  143.3200 C   0  0  2  0  0  3  0  0  0  0  0  0
  184.9590  178.9940  140.7440 C   0  0  0  0  0  2  0  0  0  0  0  0
  187.6350  177.7910  145.4990 C   0  0  0  0  0  0  0  0  0  0  0  0
  189.8170  176.3830  147.3380 C   0  0  0  0  0  2  0  0  0  0  0  0
  191.2640  176.7060  147.0060 C   0  0  0  0  0  2  0  0  0  0  0  0
  191.4830  176.7540  145.5000 C   0  0  0  0  0  2  0  0  0  0  0  0
  189.8670  178.1250  144.1840 C   0  0  0  0  0  3  0  0  0  0  0  0
  191.1610  178.1310  144.9310 C   0  0  0  0  0  2  0  0  0  0  0  0
  189.0490  177.6620  147.6240 C   0  0  0  0  0  2  0  0  0  0  0  0
  188.7380  177.9640  144.8170 C   0  0  0  0  0  0  0  0  0  0  0  0
  187.6580  177.5940  146.9980 C   0  0  0  0  0  2  0  0  0  0  0  0
  183.1820  177.5210  139.8200 C   0  0  0  0  0  3  0  0  0  0  0  0
  181.7140  177.3460  140.1530 C   0  0  0  0  0  2  0  0  0  0  0  0
  182.6030  176.1310  139.9980 C   0  0  0  0  0  2  0  0  0  0  0  0
  188.0060  179.3630  140.9460 C   0  0  0  0  0  2  0  0  0  0  0  0
  189.5700  176.4800  139.0480 N   0  0  0  0  0  0  0  0  0  0  0  0
  188.7250  177.5150  139.3220 C   0  0  0  0  0  0  0  0  0  0  0  0
  190.6000  176.1420  139.8660 C   0  0  0  0  0  3  0  0  0  0  0  0
  189.9810  177.9190  141.3580 C   0  0  0  0  0  3  0  0  0  0  0  0
  190.8270  176.8600  141.0370 C   0  0  0  0  0  3  0  0  0  0  0  0
  188.9220  178.2610  140.5100 C   0  0  0  0  0  0  0  0  0  0  0  0
  185.6250  176.8950  137.0960 C   0  0  0  0  0  0  0  0  0  0  0  0
  187.6460  177.8020  138.3500 C   0  0  0  0  0  0  0  0  0  0  0  0
  186.7170  176.7640  138.0120 N   0  0  0  0  0  2  0  0  0  0  0  0
  187.5480  178.9370  137.8070 O   0  0  0  0  0  0  0  0  0  0  0  0
  184.5670  175.4900  136.7870 S   0  0  0  0  0  1  0  0  0  0  0  0
  185.3970  177.9830  136.5050 O   0  0  0  0  0  0  0  0  0  0  0  0
  1 22  1  6  0  0  0
  1  6  1  0  0  0  0
  2  8  1  0  0  0  0
  3 25  1  6  0  0  0
  3  5  1  0  0  0  0
  5  2  1  0  0  0  0
  6  7  1  0  0  0  0
  7 11  1  0  0  0  0
  7  4  1  1  0  0  0
  8 13  1  6  0  0  0
  9 12  1  6  0  0  0
  9  3  1  0  0  0  0
  9 11  1  0  0  0  0
 10  8  1  0  0  0  0
 11 10  1  1  0  0  0
 12  1  1  0  0  0  0
 13 21  1  0  0  0  0
 14 19  1  0  0  0  0
 15 14  1  0  0  0  0
 16 15  1  0  0  0  0
 17 20  2  0  0  0  0
 17 18  1  0  0  0  0
 18 16  1  0  0  0  0
 20 13  2  0  0  0  0
 21 19  1  0  0  0  0
 22 24  1  0  0  0  0
 22 23  1  0  0  0  0
 24 23  1  0  0  0  0
 26 27  2  0  0  0  0
 26 28  1  0  0  0  0
 27 31  1  0  0  0  0
 28 30  2  0  0  0  0
 30 29  1  0  0  0  0
 31 25  1  0  0  0  0
 31 29  2  0  0  0  0
 32 34  1  0  0  0  0
 33 27  1  0  0  0  0
 34 33  1  0  0  0  0
 35 33  2  0  0  0  0
 36 32  1  0  0  0  0
 37 32  2  0  0  0  0
M  END
>  <MODEL>
3

>  <REMARK>
 VINA RESULT:      -8.1      2.992      7.318
  Name = 
  5 active torsions:
  status: ('A' for Active; 'I' for Inactive)
    1  A    between atoms: C_1  and  C_5
    2  A    between atoms: C_2  and  C_27
    3  A    between atoms: C_4  and  C_10
    4  A    between atoms: C_4  and  C_28
    5  A    between atoms: C_13  and  C_20
                            x       y       z     vdW  Elec       q    Type
                         _______ _______ _______ _____ _____    ______ ____

>  <TORSDO>
F 5

$$$$
=
 OpenBabel10272414553D

 37 41  0  0  1  0  0  0  0  0999 V2000
  182.1300  179.8750  138.8410 C   0  0  2  0  0  3  0  0  0  0  0  0
  182.1690  176.8920  136.8390 C   0  0  0  0  0  2  0  0  0  0  0  0
  184.4760  177.4760  137.8090 C   0  0  2  0  0  3  0  0  0  0  0  0
  180.3950  177.3150  140.4240 O   0  0  0  0  0  1  0  0  0  0  0  0
  183.5570  177.4870  136.5850 C   0  0  0  0  0  2  0  0  0  0  0  0
  181.4110  179.2890  139.8920 O   0  0  0  0  0  0  0  0  0  0  0  0
  181.3150  177.9260  139.5730 C   0  0  1  0  0  3  0  0  0  0  0  0
  182.1300  175.6270  137.7160 C   0  0  2  0  0  3  0  0  0  0  0  0
  183.8530  178.0590  139.0890 C   0  0  2  0  0  3  0  0  0  0  0  0
  182.6420  175.7850  139.1650 C   0  0  0  0  0  2  0  0  0  0  0  0
  182.6850  177.2300  139.6940 C   0  0  2  0  0  3  0  0  0  0  0  0
  183.6100  179.5730  139.0320 C   0  0  0  0  0  2  0  0  0  0  0  0
  182.7240  174.4290  137.0420 C   0  0  0  0  0  0  0  0  0  0  0  0
  183.6670  171.3910  137.0970 C   0  0  0  0  0  2  0  0  0  0  0  0
  183.3880  170.5920  135.8350 C   0  0  0  0  0  2  0  0  0  0  0  0
  182.0190  170.9330  135.2620 C   0  0  0  0  0  2  0  0  0  0  0  0
  181.4960  173.3590  135.0000 C   0  0  0  0  0  3  0  0  0  0  0  0
  182.0830  172.1500  134.3460 C   0  0  0  0  0  2  0  0  0  0  0  0
  184.5030  172.6150  136.7670 C   0  0  0  0  0  2  0  0  0  0  0  0
  182.0910  173.9140  136.0180 C   0  0  0  0  0  0  0  0  0  0  0  0
  184.0080  173.8230  137.5600 C   0  0  0  0  0  2  0  0  0  0  0  0
  181.9080  181.3760  138.8390 C   0  0  0  0  0  3  0  0  0  0  0  0
  180.4250  181.6640  138.9500 C   0  0  0  0  0  2  0  0  0  0  0  0
  181.1150  181.7630  137.6070 C   0  0  0  0  0  2  0  0  0  0  0  0
  185.8320  178.0980  137.5010 C   0  0  0  0  0  2  0  0  0  0  0  0
  188.9560  175.9550  137.6220 N   0  0  0  0  0  0  0  0  0  0  0  0
  188.0520  176.9100  137.9830 C   0  0  0  0  0  0  0  0  0  0  0  0
  188.7460  175.1090  136.5800 C   0  0  0  0  0  3  0  0  0  0  0  0
  186.6300  176.1650  136.1650 C   0  0  0  0  0  3  0  0  0  0  0  0
  187.5740  175.1970  135.8330 C   0  0  0  0  0  3  0  0  0  0  0  0
  186.8520  177.0330  137.2400 C   0  0  0  0  0  0  0  0  0  0  0  0
  188.4080  177.9750  141.6830 C   0  0  0  0  0  0  0  0  0  0  0  0
  188.3790  177.7660  139.1470 C   0  0  0  0  0  0  0  0  0  0  0  0
  188.1380  177.2670  140.4690 N   0  0  0  0  0  2  0  0  0  0  0  0
  188.8470  178.9270  138.9860 O   0  0  0  0  0  0  0  0  0  0  0  0
  188.0380  177.2010  143.2490 S   0  0  0  0  0  1  0  0  0  0  0  0
  188.9020  179.1340  141.6670 O   0  0  0  0  0  0  0  0  0  0  0  0
  1 22  1  1  0  0  0
  1 12  1  0  0  0  0
  1  6  1  0  0  0  0
  2  8  1  0  0  0  0
  3 25  1  6  0  0  0
  3  9  1  0  0  0  0
  5  2  1  0  0  0  0
  5  3  1  0  0  0  0
  7 11  1  0  0  0  0
  7  6  1  0  0  0  0
  7  4  1  1  0  0  0
  8 13  1  6  0  0  0
  8 10  1  0  0  0  0
  9 12  1  6  0  0  0
  9 11  1  0  0  0  0
 11 10  1  6  0  0  0
 13 21  1  0  0  0  0
 15 14  1  0  0  0  0
 16 15  1  0  0  0  0
 17 20  2  0  0  0  0
 18 17  1  0  0  0  0
 18 16  1  0  0  0  0
 19 14  1  0  0  0  0
 19 21  1  0  0  0  0
 20 13  2  0  0  0  0
 22 23  1  0  0  0  0
 24 22  1  0  0  0  0
 24 23  1  0  0  0  0
 26 27  1  0  0  0  0
 27 33  1  0  0  0  0
 28 26  2  0  0  0  0
 29 31  1  0  0  0  0
 30 29  2  0  0  0  0
 30 28  1  0  0  0  0
 31 25  1  0  0  0  0
 31 27  2  0  0  0  0
 32 36  1  0  0  0  0
 33 34  1  0  0  0  0
 34 32  1  0  0  0  0
 35 33  2  0  0  0  0
 37 32  2  0  0  0  0
M  END
>  <MODEL>
4

>  <REMARK>
 VINA RESULT:      -7.6      4.820      9.469
  Name = 
  5 active torsions:
  status: ('A' for Active; 'I' for Inactive)
    1  A    between atoms: C_1  and  C_5
    2  A    between atoms: C_2  and  C_27
    3  A    between atoms: C_4  and  C_10
    4  A    between atoms: C_4  and  C_28
    5  A    between atoms: C_13  and  C_20
                            x       y       z     vdW  Elec       q    Type
                         _______ _______ _______ _____ _____    ______ ____

>  <TORSDO>
F 5

$$$$
=
 OpenBabel10272414553D

 37 41  0  0  1  0  0  0  0  0999 V2000
  190.7130  176.5390  137.0250 C   0  0  2  0  0  3  0  0  0  0  0  0
  187.2160  176.1670  137.7600 C   0  0  0  0  0  2  0  0  0  0  0  0
  188.3430  178.0050  139.1600 C   0  0  2  0  0  3  0  0  0  0  0  0
  188.7780  177.6110  134.3460 O   0  0  0  0  0  1  0  0  0  0  0  0
  187.8050  176.5730  139.1150 C   0  0  0  0  0  2  0  0  0  0  0  0
  190.4970  177.1020  135.7590 O   0  0  0  0  0  0  0  0  0  0  0  0
  189.1120  177.3020  135.6640 C   0  0  1  0  0  3  0  0  0  0  0  0
  186.3760  177.2410  137.0450 C   0  0  2  0  0  3  0  0  0  0  0  0
  189.3000  178.3720  138.0130 C   0  0  2  0  0  3  0  0  0  0  0  0
  187.1140  178.5410  136.6570 C   0  0  0  0  0  2  0  0  0  0  0  0
  188.6490  178.4350  136.6020 C   0  0  2  0  0  3  0  0  0  0  0  0
  190.6510  177.6460  138.0700 C   0  0  0  0  0  2  0  0  0  0  0  0
  185.0760  177.5210  137.7340 C   0  0  0  0  0  0  0  0  0  0  0  0
  182.4400  179.2670  138.0930 C   0  0  0  0  0  2  0  0  0  0  0  0
  181.1720  178.4890  138.4030 C   0  0  0  0  0  2  0  0  0  0  0  0
  181.1060  177.2030  137.5890 C   0  0  0  0  0  2  0  0  0  0  0  0
  183.1450  175.7670  137.6090 C   0  0  0  0  0  3  0  0  0  0  0  0
  181.8440  176.0630  138.2810 C   0  0  0  0  0  2  0  0  0  0  0  0
  183.5040  178.9700  139.1350 C   0  0  0  0  0  2  0  0  0  0  0  0
  184.1260  176.6240  137.6600 C   0  0  0  0  0  0  0  0  0  0  0  0
  184.8710  178.8260  138.4690 C   0  0  0  0  0  2  0  0  0  0  0  0
  192.0750  175.8710  137.0660 C   0  0  0  0  0  3  0  0  0  0  0  0
  192.2900  175.0940  135.7830 C   0  0  0  0  0  2  0  0  0  0  0  0
  191.8940  174.3660  137.0490 C   0  0  0  0  0  2  0  0  0  0  0  0
  188.9330  178.3420  140.5240 C   0  0  0  0  0  2  0  0  0  0  0  0
  187.0630  177.2960  143.6500 N   0  0  0  0  0  0  0  0  0  0  0  0
  188.0950  177.4290  142.7670 C   0  0  0  0  0  0  0  0  0  0  0  0
  185.8540  177.8830  143.4530 C   0  0  0  0  0  3  0  0  0  0  0  0
  186.6530  178.8060  141.3860 C   0  0  0  0  0  3  0  0  0  0  0  0
  185.6280  178.6540  142.3160 C   0  0  0  0  0  3  0  0  0  0  0  0
  187.8960  178.1990  141.5950 C   0  0  0  0  0  0  0  0  0  0  0  0
  191.1240  176.2830  144.8800 C   0  0  0  0  0  0  0  0  0  0  0  0
  189.3740  176.7580  143.0930 C   0  0  0  0  0  0  0  0  0  0  0  0
  189.9060  176.8780  144.4190 N   0  0  0  0  0  2  0  0  0  0  0  0
  190.0030  176.1030  142.2180 O   0  0  0  0  0  0  0  0  0  0  0  0
  191.6400  176.5430  146.5690 S   0  0  0  0  0  1  0  0  0  0  0  0
  191.8360  175.5800  144.1160 O   0  0  0  0  0  0  0  0  0  0  0  0
  1 22  1  6  0  0  0
  1 12  1  0  0  0  0
  2  5  1  0  0  0  0
  3 25  1  1  0  0  0
  5  3  1  0  0  0  0
  6  1  1  0  0  0  0
  7  4  1  6  0  0  0
  7  6  1  0  0  0  0
  7 11  1  0  0  0  0
  8 13  1  1  0  0  0
  8  2  1  0  0  0  0
  9 12  1  6  0  0  0
  9  3  1  0  0  0  0
 10  8  1  0  0  0  0
 11 10  1  1  0  0  0
 11  9  1  0  0  0  0
 13 21  1  0  0  0  0
 14 15  1  0  0  0  0
 14 19  1  0  0  0  0
 16 18  1  0  0  0  0
 16 15  1  0  0  0  0
 17 20  2  0  0  0  0
 17 18  1  0  0  0  0
 20 13  2  0  0  0  0
 21 19  1  0  0  0  0
 23 24  1  0  0  0  0
 23 22  1  0  0  0  0
 24 22  1  0  0  0  0
 25 31  1  0  0  0  0
 27 33  1  0  0  0  0
 27 26  2  0  0  0  0
 28 26  1  0  0  0  0
 29 31  2  0  0  0  0
 29 30  1  0  0  0  0
 30 28  2  0  0  0  0
 31 27  1  0  0  0  0
 32 36  1  0  0  0  0
 33 34  1  0  0  0  0
 34 32  1  0  0  0  0
 35 33  2  0  0  0  0
 37 32  2  0  0  0  0
M  END
>  <MODEL>
5

>  <REMARK>
 VINA RESULT:      -7.5      3.464      7.312
  Name = 
  5 active torsions:
  status: ('A' for Active; 'I' for Inactive)
    1  A    between atoms: C_1  and  C_5
    2  A    between atoms: C_2  and  C_27
    3  A    between atoms: C_4  and  C_10
    4  A    between atoms: C_4  and  C_28
    5  A    between atoms: C_13  and  C_20
                            x       y       z     vdW  Elec       q    Type
                         _______ _______ _______ _____ _____    ______ ____

>  <TORSDO>
F 5

$$$$
=
 OpenBabel10272414553D

 37 41  0  0  1  0  0  0  0  0999 V2000
  183.8160  177.7370  140.6340 C   0  0  2  0  0  3  0  0  0  0  0  0
  185.6270  177.0930  143.6690 C   0  0  0  0  0  2  0  0  0  0  0  0
  186.8120  178.7810  142.1360 C   0  0  2  0  0  3  0  0  0  0  0  0
  182.1300  179.0590  143.3700 O   0  0  0  0  0  1  0  0  0  0  0  0
  186.7470  177.3420  142.6540 C   0  0  0  0  0  2  0  0  0  0  0  0
  182.7920  178.4520  141.2710 O   0  0  0  0  0  0  0  0  0  0  0  0
  183.2000  178.5930  142.6050 C   0  0  1  0  0  3  0  0  0  0  0  0
  185.3990  178.2090  144.7060 C   0  0  2  0  0  3  0  0  0  0  0  0
  185.4750  179.3460  141.6290 C   0  0  2  0  0  3  0  0  0  0  0  0
  184.9750  179.5850  144.1470 C   0  0  0  0  0  2  0  0  0  0  0  0
  184.3910  179.5650  142.7220 C   0  0  2  0  0  3  0  0  0  0  0  0
  184.9670  178.6890  140.3390 C   0  0  0  0  0  2  0  0  0  0  0  0
  186.5190  178.3280  145.6930 C   0  0  0  0  0  0  0  0  0  0  0  0
  187.7050  177.9100  148.6160 C   0  0  0  0  0  2  0  0  0  0  0  0
  189.1610  177.4800  148.6810 C   0  0  0  0  0  2  0  0  0  0  0  0
  189.4780  176.4560  147.5980 C   0  0  0  0  0  2  0  0  0  0  0  0
  188.7440  177.0230  145.2820 C   0  0  0  0  0  3  0  0  0  0  0  0
  189.8490  177.1300  146.2820 C   0  0  0  0  0  2  0  0  0  0  0  0
  187.5780  179.2120  147.8450 C   0  0  0  0  0  2  0  0  0  0  0  0
  187.6250  177.6670  145.4620 C   0  0  0  0  0  0  0  0  0  0  0  0
  186.3510  179.1710  146.9370 C   0  0  0  0  0  2  0  0  0  0  0  0
  183.2980  177.1390  139.3400 C   0  0  0  0  0  3  0  0  0  0  0  0
  181.7850  177.0770  139.3860 C   0  0  0  0  0  2  0  0  0  0  0  0
  182.6010  175.8270  139.6370 C   0  0  0  0  0  2  0  0  0  0  0  0
  187.9300  178.9620  141.1170 C   0  0  0  0  0  2  0  0  0  0  0  0
  191.2240  177.2120  141.7890 N   0  0  0  0  0  0  0  0  0  0  0  0
  190.0770  177.5620  141.1390 C   0  0  0  0  0  0  0  0  0  0  0  0
  191.6070  177.7910  142.9560 C   0  0  0  0  0  3  0  0  0  0  0  0
  189.6370  179.1620  142.9070 C   0  0  0  0  0  3  0  0  0  0  0  0
  190.8200  178.7820  143.5360 C   0  0  0  0  0  3  0  0  0  0  0  0
  189.2480  178.5610  141.7050 C   0  0  0  0  0  0  0  0  0  0  0  0
  190.6460  175.4020  137.9820 C   0  0  0  0  0  0  0  0  0  0  0  0
  189.7680  176.8740  139.8640 C   0  0  0  0  0  0  0  0  0  0  0  0
  190.7980  176.1200  139.2110 N   0  0  0  0  0  2  0  0  0  0  0  0
  188.6220  176.9590  139.3440 O   0  0  0  0  0  0  0  0  0  0  0  0
  192.0430  174.5190  137.3060 S   0  0  0  0  0  1  0  0  0  0  0  0
  189.5450  175.3810  137.3710 O   0  0  0  0  0  0  0  0  0  0  0  0
  1 22  1  6  0  0  0
  1  6  1  0  0  0  0
  2  8  1  0  0  0  0
  3 25  1  6  0  0  0
  3  5  1  0  0  0  0
  5  2  1  0  0  0  0
  6  7  1  0  0  0  0
  7 11  1  0  0  0  0
  7  4  1  1  0  0  0
  8 13  1  6  0  0  0
  9 12  1  6  0  0  0
  9  3  1  0  0  0  0
  9 11  1  0  0  0  0
 10  8  1  0  0  0  0
 11 10  1  1  0  0  0
 12  1  1  0  0  0  0
 13 21  1  0  0  0  0
 14 15  1  0  0  0  0
 16 15  1  0  0  0  0
 17 20  2  0  0  0  0
 17 18  1  0  0  0  0
 18 16  1  0  0  0  0
 19 14  1  0  0  0  0
 20 13  2  0  0  0  0
 21 19  1  0  0  0  0
 22 23  1  0  0  0  0
 22 24  1  0  0  0  0
 23 24  1  0  0  0  0
 25 31  1  0  0  0  0
 26 28  1  0  0  0  0
 27 31  1  0  0  0  0
 27 26  2  0  0  0  0
 28 30  2  0  0  0  0
 29 30  1  0  0  0  0
 31 29  2  0  0  0  0
 32 34  1  0  0  0  0
 33 27  1  0  0  0  0
 34 33  1  0  0  0  0
 35 33  2  0  0  0  0
 36 32  1  0  0  0  0
 37 32  2  0  0  0  0
M  END
>  <MODEL>
6

>  <REMARK>
 VINA RESULT:      -7.5      3.332      7.964
  Name = 
  5 active torsions:
  status: ('A' for Active; 'I' for Inactive)
    1  A    between atoms: C_1  and  C_5
    2  A    between atoms: C_2  and  C_27
    3  A    between atoms: C_4  and  C_10
    4  A    between atoms: C_4  and  C_28
    5  A    between atoms: C_13  and  C_20
                            x       y       z     vdW  Elec       q    Type
                         _______ _______ _______ _____ _____    ______ ____

>  <TORSDO>
F 5

$$$$
=
 OpenBabel10272414553D

 37 41  0  0  1  0  0  0  0  0999 V2000
  185.9560  179.1160  145.4340 C   0  0  2  0  0  3  0  0  0  0  0  0
  186.5780  179.5380  141.9210 C   0  0  0  0  0  2  0  0  0  0  0  0
  187.1190  177.1680  142.7550 C   0  0  2  0  0  3  0  0  0  0  0  0
  182.9700  179.4950  143.6990 O   0  0  0  0  0  1  0  0  0  0  0  0
  187.6600  178.5380  142.3370 C   0  0  0  0  0  2  0  0  0  0  0  0
  184.5610  179.1660  145.3020 O   0  0  0  0  0  0  0  0  0  0  0  0
  184.3100  179.1820  143.9220 C   0  0  1  0  0  3  0  0  0  0  0  0
  185.4250  178.9670  141.0740 C   0  0  2  0  0  3  0  0  0  0  0  0
  185.9820  177.2120  143.7900 C   0  0  2  0  0  3  0  0  0  0  0  0
  184.5610  177.8760  141.7440 C   0  0  0  0  0  2  0  0  0  0  0  0
  184.6450  177.8210  143.2810 C   0  0  2  0  0  3  0  0  0  0  0  0
  186.4220  177.6890  145.1810 C   0  0  0  0  0  2  0  0  0  0  0  0
  185.8520  178.5720  139.6940 C   0  0  0  0  0  0  0  0  0  0  0  0
  187.4750  176.6730  137.7230 C   0  0  0  0  0  2  0  0  0  0  0  0
  186.7810  176.3350  136.4140 C   0  0  0  0  0  2  0  0  0  0  0  0
  185.2940  176.0820  136.6320 C   0  0  0  0  0  2  0  0  0  0  0  0
  184.0580  177.7930  137.9630 C   0  0  0  0  0  3  0  0  0  0  0  0
  184.4950  177.3800  136.5950 C   0  0  0  0  0  2  0  0  0  0  0  0
  187.6020  178.1790  137.8740 C   0  0  0  0  0  2  0  0  0  0  0  0
  184.9330  178.1890  138.8450 C   0  0  0  0  0  0  0  0  0  0  0  0
  187.3150  178.5920  139.3160 C   0  0  0  0  0  2  0  0  0  0  0  0
  186.3570  179.5470  146.8320 C   0  0  0  0  0  3  0  0  0  0  0  0
  187.1570  178.4410  147.4880 C   0  0  0  0  0  2  0  0  0  0  0  0
  185.6990  178.6330  147.8460 C   0  0  0  0  0  2  0  0  0  0  0  0
  188.2390  176.2260  143.1770 C   0  0  0  0  0  2  0  0  0  0  0  0
  191.7210  177.6270  142.6550 N   0  0  0  0  0  0  0  0  0  0  0  0
  190.6040  177.2040  143.3140 C   0  0  0  0  0  0  0  0  0  0  0  0
  191.8560  177.5260  141.3070 C   0  0  0  0  0  3  0  0  0  0  0  0
  189.6720  176.5380  141.1760 C   0  0  0  0  0  3  0  0  0  0  0  0
  190.8320  176.9750  140.5410 C   0  0  0  0  0  3  0  0  0  0  0  0
  189.5390  176.6460  142.5640 C   0  0  0  0  0  0  0  0  0  0  0  0
  191.4980  176.5400  147.0170 C   0  0  0  0  0  0  0  0  0  0  0  0
  190.5740  177.3490  144.7870 C   0  0  0  0  0  0  0  0  0  0  0  0
  191.4170  176.5100  145.5880 N   0  0  0  0  0  2  0  0  0  0  0  0
  189.8070  178.1840  145.3400 O   0  0  0  0  0  0  0  0  0  0  0  0
  192.6020  175.4140  147.8540 S   0  0  0  0  0  1  0  0  0  0  0  0
  190.8060  177.3460  147.6920 O   0  0  0  0  0  0  0  0  0  0  0  0
  1 22  1  1  0  0  0
  2  5  1  0  0  0  0
  3 25  1  1  0  0  0
  3  9  1  0  0  0  0
  5  3  1  0  0  0  0
  6  1  1  0  0  0  0
  7  4  1  1  0  0  0
  7  6  1  0  0  0  0
  8 13  1  6  0  0  0
  8 10  1  0  0  0  0
  8  2  1  0  0  0  0
  9 12  1  1  0  0  0
 11 10  1  6  0  0  0
 11  9  1  0  0  0  0
 11  7  1  0  0  0  0
 12  1  1  0  0  0  0
 14 19  1  0  0  0  0
 15 16  1  0  0  0  0
 15 14  1  0  0  0  0
 17 20  2  0  0  0  0
 18 16  1  0  0  0  0
 18 17  1  0  0  0  0
 19 21  1  0  0  0  0
 20 13  2  0  0  0  0
 21 13  1  0  0  0  0
 22 23  1  0  0  0  0
 22 24  1  0  0  0  0
 23 24  1  0  0  0  0
 26 27  1  0  0  0  0
 27 33  1  0  0  0  0
 28 26  2  0  0  0  0
 29 31  1  0  0  0  0
 30 29  2  0  0  0  0
 30 28  1  0  0  0  0
 31 25  1  0  0  0  0
 31 27  2  0  0  0  0
 32 37  2  0  0  0  0
 32 36  1  0  0  0  0
 33 35  2  0  0  0  0
 33 34  1  0  0  0  0
 34 32  1  0  0  0  0
M  END
>  <MODEL>
7

>  <REMARK>
 VINA RESULT:      -7.4      3.312      6.261
  Name = 
  5 active torsions:
  status: ('A' for Active; 'I' for Inactive)
    1  A    between atoms: C_1  and  C_5
    2  A    between atoms: C_2  and  C_27
    3  A    between atoms: C_4  and  C_10
    4  A    between atoms: C_4  and  C_28
    5  A    between atoms: C_13  and  C_20
                            x       y       z     vdW  Elec       q    Type
                         _______ _______ _______ _____ _____    ______ ____

>  <TORSDO>
F 5

$$$$
=
 OpenBabel10272414553D

 37 41  0  0  1  0  0  0  0  0999 V2000
  181.2660  178.6450  141.1070 C   0  0  2  0  0  3  0  0  0  0  0  0
  182.9220  178.5560  137.9200 C   0  0  0  0  0  2  0  0  0  0  0  0
  184.5500  178.3620  139.8990 C   0  0  2  0  0  3  0  0  0  0  0  0
  180.5270  175.6960  139.4250 O   0  0  0  0  0  1  0  0  0  0  0  0
  183.9480  179.2590  138.8140 C   0  0  0  0  0  2  0  0  0  0  0  0
  180.6880  177.3760  140.9620 O   0  0  0  0  0  0  0  0  0  0  0  0
  181.2370  176.8400  139.7880 C   0  0  1  0  0  3  0  0  0  0  0  0
  183.2670  177.1130  137.5070 C   0  0  2  0  0  3  0  0  0  0  0  0
  183.5220  177.5910  140.7430 C   0  0  2  0  0  3  0  0  0  0  0  0
  183.3960  176.0860  138.6530 C   0  0  0  0  0  2  0  0  0  0  0  0
  182.7270  176.4940  139.9800 C   0  0  2  0  0  3  0  0  0  0  0  0
  182.6740  178.4800  141.6630 C   0  0  0  0  0  2  0  0  0  0  0  0
  184.4220  177.0370  136.5570 C   0  0  0  0  0  0  0  0  0  0  0  0
  186.7420  178.4310  134.8830 C   0  0  0  0  0  2  0  0  0  0  0  0
  188.0510  177.6650  134.8070 C   0  0  0  0  0  2  0  0  0  0  0  0
  188.3870  177.0210  136.1470 C   0  0  0  0  0  2  0  0  0  0  0  0
  186.5660  175.7100  137.2380 C   0  0  0  0  0  3  0  0  0  0  0  0
  187.7230  175.6570  136.2940 C   0  0  0  0  0  2  0  0  0  0  0  0
  185.6040  177.5750  134.3550 C   0  0  0  0  0  2  0  0  0  0  0  0
  185.4830  176.3630  136.9210 C   0  0  0  0  0  0  0  0  0  0  0  0
  184.3610  177.7510  135.2260 C   0  0  0  0  0  2  0  0  0  0  0  0
  180.4340  179.4840  142.0570 C   0  0  0  0  0  3  0  0  0  0  0  0
  181.1450  179.5870  143.3910 C   0  0  0  0  0  2  0  0  0  0  0  0
  179.9880  178.6260  143.2240 C   0  0  0  0  0  2  0  0  0  0  0  0
  185.5460  179.1210  140.7680 C   0  0  0  0  0  2  0  0  0  0  0  0
  188.7020  177.3590  141.9080 N   0  0  0  0  0  0  0  0  0  0  0  0
  187.4600  177.9190  141.9770 C   0  0  0  0  0  0  0  0  0  0  0  0
  189.3910  177.2530  140.7410 C   0  0  0  0  0  3  0  0  0  0  0  0
  187.5720  178.3100  139.5850 C   0  0  0  0  0  3  0  0  0  0  0  0
  188.8350  177.7240  139.5560 C   0  0  0  0  0  3  0  0  0  0  0  0
  186.8680  178.4160  140.7900 C   0  0  0  0  0  0  0  0  0  0  0  0
  187.0960  177.8730  145.8260 C   0  0  0  0  0  0  0  0  0  0  0  0
  186.7970  177.9670  143.3000 C   0  0  0  0  0  0  0  0  0  0  0  0
  187.5940  177.8400  144.4850 N   0  0  0  0  0  2  0  0  0  0  0  0
  185.5460  178.1000  143.3930 O   0  0  0  0  0  0  0  0  0  0  0  0
  188.2360  177.6920  147.1880 S   0  0  0  0  0  1  0  0  0  0  0  0
  185.8690  178.0270  146.0620 O   0  0  0  0  0  0  0  0  0  0  0  0
  1 12  1  0  0  0  0
  1 22  1  1  0  0  0
  2  5  1  0  0  0  0
  3  9  1  0  0  0  0
  3 25  1  1  0  0  0
  5  3  1  0  0  0  0
  6  1  1  0  0  0  0
  7  4  1  1  0  0  0
  7 11  1  0  0  0  0
  7  6  1  0  0  0  0
  8 13  1  1  0  0  0
  8  2  1  0  0  0  0
  8 10  1  0  0  0  0
  9 12  1  6  0  0  0
 11 10  1  6  0  0  0
 11  9  1  0  0  0  0
 13 20  2  0  0  0  0
 15 14  1  0  0  0  0
 15 16  1  0  0  0  0
 16 18  1  0  0  0  0
 18 17  1  0  0  0  0
 19 14  1  0  0  0  0
 19 21  1  0  0  0  0
 20 17  2  0  0  0  0
 21 13  1  0  0  0  0
 22 24  1  0  0  0  0
 22 23  1  0  0  0  0
 24 23  1  0  0  0  0
 25 31  1  0  0  0  0
 26 27  1  0  0  0  0
 27 33  1  0  0  0  0
 28 26  2  0  0  0  0
 29 31  1  0  0  0  0
 30 29  2  0  0  0  0
 30 28  1  0  0  0  0
 31 27  2  0  0  0  0
 32 37  2  0  0  0  0
 32 36  1  0  0  0  0
 33 35  2  0  0  0  0
 33 34  1  0  0  0  0
 34 32  1  0  0  0  0
M  END
>  <MODEL>
8

>  <REMARK>
 VINA RESULT:      -7.4      3.425      7.630
  Name = 
  5 active torsions:
  status: ('A' for Active; 'I' for Inactive)
    1  A    between atoms: C_1  and  C_5
    2  A    between atoms: C_2  and  C_27
    3  A    between atoms: C_4  and  C_10
    4  A    between atoms: C_4  and  C_28
    5  A    between atoms: C_13  and  C_20
                            x       y       z     vdW  Elec       q    Type
                         _______ _______ _______ _____ _____    ______ ____

>  <TORSDO>
F 5

$$$$
=
 OpenBabel10272414553D

 37 41  0  0  1  0  0  0  0  0999 V2000
  194.3960  174.6160  137.7890 C   0  0  2  0  0  3  0  0  0  0  0  0
  190.9500  174.1000  136.9140 C   0  0  0  0  0  2  0  0  0  0  0  0
  191.3450  176.3100  138.1650 C   0  0  2  0  0  3  0  0  0  0  0  0
  193.9580  174.8480  134.3500 O   0  0  0  0  0  1  0  0  0  0  0  0
  190.8520  174.8630  138.2390 C   0  0  0  0  0  2  0  0  0  0  0  0
  194.8080  174.8450  136.4690 O   0  0  0  0  0  0  0  0  0  0  0  0
  193.6320  174.8870  135.7060 C   0  0  1  0  0  3  0  0  0  0  0  0
  190.5670  174.8930  135.6510 C   0  0  2  0  0  3  0  0  0  0  0  0
  192.7340  176.4870  137.5300 C   0  0  2  0  0  3  0  0  0  0  0  0
  191.4350  176.1300  135.3320 C   0  0  0  0  0  2  0  0  0  0  0  0
  192.8160  176.1580  136.0130 C   0  0  2  0  0  3  0  0  0  0  0  0
  193.8840  175.9240  138.3770 C   0  0  0  0  0  2  0  0  0  0  0  0
  189.1040  175.2040  135.5770 C   0  0  0  0  0  0  0  0  0  0  0  0
  186.2740  175.6110  136.9730 C   0  0  0  0  0  2  0  0  0  0  0  0
  185.4180  176.7330  136.4110 C   0  0  0  0  0  2  0  0  0  0  0  0
  186.2650  177.9550  136.0810 C   0  0  0  0  0  2  0  0  0  0  0  0
  188.3250  177.5500  134.7330 C   0  0  0  0  0  3  0  0  0  0  0  0
  186.8640  177.8600  134.6820 C   0  0  0  0  0  2  0  0  0  0  0  0
  186.6320  174.6260  135.8740 C   0  0  0  0  0  2  0  0  0  0  0  0
  188.7400  176.3850  135.1470 C   0  0  0  0  0  0  0  0  0  0  0  0
  188.0850  174.1780  136.0180 C   0  0  0  0  0  2  0  0  0  0  0  0
  195.5640  174.1050  138.6120 C   0  0  0  0  0  3  0  0  0  0  0  0
  196.6080  173.5130  137.6880 C   0  0  0  0  0  2  0  0  0  0  0  0
  195.6710  172.6020  138.4510 C   0  0  0  0  0  2  0  0  0  0  0  0
  191.2410  177.0100  139.5150 C   0  0  0  0  0  2  0  0  0  0  0  0
  187.9370  178.0080  141.0800 N   0  0  0  0  0  0  0  0  0  0  0  0
  189.2290  177.5780  140.9970 C   0  0  0  0  0  0  0  0  0  0  0  0
  187.2300  178.4100  139.9910 C   0  0  0  0  0  3  0  0  0  0  0  0
  189.1350  177.9520  138.6020 C   0  0  0  0  0  3  0  0  0  0  0  0
  187.8200  178.3920  138.7290 C   0  0  0  0  0  3  0  0  0  0  0  0
  189.8570  177.5400  139.7270 C   0  0  0  0  0  0  0  0  0  0  0  0
  189.8040  177.1390  144.7950 C   0  0  0  0  0  0  0  0  0  0  0  0
  189.9060  177.1800  142.2520 C   0  0  0  0  0  0  0  0  0  0  0  0
  189.2740  177.4670  143.5070 N   0  0  0  0  0  2  0  0  0  0  0  0
  191.0330  176.6120  142.2290 O   0  0  0  0  0  0  0  0  0  0  0  0
  188.8800  177.5790  146.2590 S   0  0  0  0  0  1  0  0  0  0  0  0
  190.9080  176.5460  144.9150 O   0  0  0  0  0  0  0  0  0  0  0  0
  1 12  1  0  0  0  0
  1 22  1  1  0  0  0
  2  5  1  0  0  0  0
  3  5  1  0  0  0  0
  3 25  1  1  0  0  0
  6  1  1  0  0  0  0
  7  4  1  6  0  0  0
  7 11  1  0  0  0  0
  7  6  1  0  0  0  0
  8 13  1  1  0  0  0
  8  2  1  0  0  0  0
  9  3  1  0  0  0  0
  9 12  1  1  0  0  0
 10  8  1  0  0  0  0
 11 10  1  1  0  0  0
 11  9  1  0  0  0  0
 13 21  1  0  0  0  0
 15 14  1  0  0  0  0
 16 15  1  0  0  0  0
 17 20  2  0  0  0  0
 18 17  1  0  0  0  0
 18 16  1  0  0  0  0
 19 21  1  0  0  0  0
 19 14  1  0  0  0  0
 20 13  2  0  0  0  0
 23 24  1  0  0  0  0
 23 22  1  0  0  0  0
 24 22  1  0  0  0  0
 25 31  1  0  0  0  0
 27 26  1  0  0  0  0
 27 33  1  0  0  0  0
 28 26  2  0  0  0  0
 29 30  2  0  0  0  0
 29 31  1  0  0  0  0
 30 28  1  0  0  0  0
 31 27  2  0  0  0  0
 32 37  2  0  0  0  0
 32 36  1  0  0  0  0
 33 34  1  0  0  0  0
 34 32  1  0  0  0  0
 35 33  2  0  0  0  0
M  END
>  <MODEL>
9

>  <REMARK>
 VINA RESULT:      -7.3      3.966      7.264
  Name = 
  5 active torsions:
  status: ('A' for Active; 'I' for Inactive)
    1  A    between atoms: C_1  and  C_5
    2  A    between atoms: C_2  and  C_27
    3  A    between atoms: C_4  and  C_10
    4  A    between atoms: C_4  and  C_28
    5  A    between atoms: C_13  and  C_20
                            x       y       z     vdW  Elec       q    Type
                         _______ _______ _______ _____ _____    ______ ____

>  <TORSDO>
F 5

$$$$
