=
 OpenBabel10272400303D

 31 35  0  0  1  0  0  0  0  0999 V2000
  188.7010  177.4310  143.9360 C   0  0  0  0  0  0  0  0  0  0  0  0
  189.2720  177.3220  145.2270 C   0  0  2  0  0  3  0  0  0  0  0  0
  189.1190  177.5620  147.6230 C   0  0  0  0  0  0  0  0  0  0  0  0
  187.4450  177.8690  143.7060 C   0  0  0  0  0  0  0  0  0  0  0  0
  185.4330  178.6200  143.9920 C   0  0  0  0  0  0  0  0  0  0  0  0
  188.5930  177.6500  146.2920 N   0  0  0  0  0  0  0  0  0  0  0  0
  188.9380  177.1530  141.4200 C   0  0  0  0  0  0  0  0  0  0  0  0
  191.3190  176.5040  144.2180 C   0  0  0  0  0  3  0  0  0  0  0  0
  188.2700  177.9580  148.7770 C   0  0  0  0  0  1  0  0  0  0  0  0
  187.6840  177.5940  141.2430 C   0  0  0  0  0  3  0  0  0  0  0  0
  189.4870  177.0600  142.8080 C   0  0  0  0  0  0  0  0  0  0  0  0
  186.4910  178.2880  144.6680 N   0  0  0  0  0  0  0  0  0  0  0  0
  190.3610  177.1280  147.8370 C   0  0  0  0  0  3  0  0  0  0  0  0
  186.9300  177.9560  142.3970 N   0  0  0  0  0  0  0  0  0  0  0  0
  185.5740  178.4530  142.4950 C   0  0  0  0  0  2  0  0  0  0  0  0
  190.7580  176.6120  142.9870 N   0  0  0  0  0  0  0  0  0  0  0  0
  190.5960  176.8530  145.3560 C   0  0  0  0  0  0  0  0  0  0  0  0
  191.2550  176.7170  146.7020 C   0  0  0  0  0  3  0  0  0  0  0  0
  189.4740  178.6400  138.9420 O   0  0  0  0  0  0  0  0  0  0  0  0
  190.0130  177.5130  139.1080 C   0  0  0  0  0  0  0  0  0  0  0  0
  189.7650  176.7680  140.3110 N   0  0  0  0  0  2  0  0  0  0  0  0
  192.4710  175.8340  136.0030 C   0  0  0  0  0  0  0  0  0  0  0  0
  190.3280  176.5600  136.8460 C   0  0  0  0  0  3  0  0  0  0  0  0
  193.1660  177.1760  139.7170 Cl  0  0  0  0  0  0  0  0  0  0  0  0
  193.4420  175.1480  134.7190 Cl  0  0  0  0  0  0  0  0  0  0  0  0
  191.1000  176.0130  135.8210 C   0  0  0  0  0  3  0  0  0  0  0  0
  192.3030  176.7510  138.2450 C   0  0  0  0  0  0  0  0  0  0  0  0
  190.9060  176.9380  138.0690 C   0  0  0  0  0  0  0  0  0  0  0  0
  193.0660  176.2020  137.2090 C   0  0  0  0  0  3  0  0  0  0  0  0
  184.2530  179.0970  144.6420 N   0  0  0  0  0  0  0  0  0  0  0  0
  183.0700  178.8490  144.1840 C   0  0  0  0  0  2  0  0  0  0  0  0
  2  1  1  6  0  0  0
  2 17  1  0  0  0  0
  2  6  1  0  0  0  0
  3 13  1  0  0  0  0
  3  9  1  0  0  0  0
  4  1  2  0  0  0  0
  4 12  1  0  0  0  0
  5 30  1  0  0  0  0
  5 12  2  0  0  0  0
  6  3  2  0  0  0  0
  7 11  1  0  0  0  0
  8 17  2  0  0  0  0
 10  7  2  0  0  0  0
 10 14  1  0  0  0  0
 11 16  2  0  0  0  0
 11  1  1  0  0  0  0
 14 15  1  0  0  0  0
 14  4  1  0  0  0  0
 15  5  1  0  0  0  0
 16  8  1  0  0  0  0
 17 18  1  0  0  0  0
 18 13  2  0  0  0  0
 19 20  2  0  0  0  0
 20 21  1  0  0  0  0
 21  7  1  0  0  0  0
 22 29  1  0  0  0  0
 23 28  2  0  0  0  0
 25 22  1  0  0  0  0
 26 22  2  0  0  0  0
 26 23  1  0  0  0  0
 27 24  1  0  0  0  0
 28 27  1  0  0  0  0
 28 20  1  0  0  0  0
 29 27  2  0  0  0  0
 31 30  2  0  0  0  0
M  END
>  <MODEL>
1

>  <REMARK>
 VINA RESULT:      -9.5      0.000      0.000
  Name = 
  3 active torsions:
  status: ('A' for Active; 'I' for Inactive)
    1  A    between atoms: N_2  and  C_13
    2  A    between atoms: C_9  and  C_22
    3  A    between atoms: C_15  and  N_23
                            x       y       z     vdW  Elec       q    Type
                         _______ _______ _______ _____ _____    ______ ____

>  <TORSDO>
F 3

$$$$
=
 OpenBabel10272400303D

 31 35  0  0  0  0  0  0  0  0999 V2000
  187.2110  178.2330  139.3210 C   0  0  0  0  0  0  0  0  0  0  0  0
  187.8080  178.0100  138.0560 C   0  0  0  0  0  0  0  0  0  0  0  0
  187.6770  177.9590  135.6470 C   0  0  0  0  0  0  0  0  0  0  0  0
  185.9280  178.6160  139.4880 C   0  0  0  0  0  0  0  0  0  0  0  0
  183.8800  179.2050  139.0990 C   0  0  0  0  0  0  0  0  0  0  0  0
  187.1270  178.1690  136.9550 N   0  0  0  0  0  0  0  0  0  0  0  0
  187.4260  178.2630  141.8530 C   0  0  0  0  0  0  0  0  0  0  0  0
  189.8840  177.4400  139.1700 C   0  0  0  0  0  3  0  0  0  0  0  0
  186.8240  178.1660  134.4480 C   0  0  0  0  0  1  0  0  0  0  0  0
  186.1450  178.6440  141.9680 C   0  0  0  0  0  3  0  0  0  0  0  0
  188.0010  178.0430  140.4910 C   0  0  0  0  0  0  0  0  0  0  0  0
  184.9660  178.8620  138.4760 N   0  0  0  0  0  0  0  0  0  0  0  0
  188.9450  177.5800  135.4960 C   0  0  0  0  0  3  0  0  0  0  0  0
  185.3890  178.8230  140.7730 N   0  0  0  0  0  0  0  0  0  0  0  0
  184.0080  179.2240  140.6070 C   0  0  0  0  0  2  0  0  0  0  0  0
  189.2990  177.6570  140.3750 N   0  0  0  0  0  0  0  0  0  0  0  0
  189.1590  177.6090  137.9940 C   0  0  0  0  0  0  0  0  0  0  0  0
  189.8450  177.3580  136.6780 C   0  0  0  0  0  2  0  0  0  0  0  0
  188.0040  175.7520  143.2690 O   0  0  0  0  0  0  0  0  0  0  0  0
  188.5260  176.8210  143.6830 C   0  0  0  0  0  0  0  0  0  0  0  0
  188.2580  178.0610  143.0070 N   0  0  0  0  0  2  0  0  0  0  0  0
  191.2420  176.7800  147.0180 C   0  0  0  0  0  0  0  0  0  0  0  0
  190.7790  176.5210  144.6630 C   0  0  0  0  0  3  0  0  0  0  0  0
  187.3180  177.4940  146.6020 Cl  0  0  0  0  0  0  0  0  0  0  0  0
  192.3740  176.7550  148.3530 Cl  0  0  0  0  0  0  0  0  0  0  0  0
  191.6830  176.5010  145.7250 C   0  0  0  0  0  3  0  0  0  0  0  0
  188.9830  177.1030  146.1890 C   0  0  0  0  0  0  0  0  0  0  0  0
  189.4210  176.8210  144.8680 C   0  0  0  0  0  0  0  0  0  0  0  0
  189.8990  177.0790  147.2450 C   0  0  0  0  0  3  0  0  0  0  0  0
  182.6840  179.5310  138.3880 N   0  0  0  0  0  0  0  0  0  0  0  0
  182.0890  180.6700  138.5320 C   0  0  0  0  0  2  0  0  0  0  0  0
  1  4  2  0  0  0  0
  1 11  1  0  0  0  0
  2  1  1  0  0  0  0
  3  6  1  0  0  0  0
  4 14  1  0  0  0  0
  5 15  1  0  0  0  0
  6  2  2  0  0  0  0
  7 10  2  0  0  0  0
  7 21  1  0  0  0  0
  8 16  1  0  0  0  0
  9  3  1  0  0  0  0
 11  7  1  0  0  0  0
 12  5  2  0  0  0  0
 12  4  1  0  0  0  0
 13  3  2  0  0  0  0
 13 18  1  0  0  0  0
 14 10  1  0  0  0  0
 15 14  1  0  0  0  0
 16 11  2  0  0  0  0
 17  2  1  0  0  0  0
 17  8  2  0  0  0  0
 18 17  1  0  0  0  0
 19 20  2  0  0  0  0
 20 28  1  0  0  0  0
 21 20  1  0  0  0  0
 22 29  1  0  0  0  0
 22 25  1  0  0  0  0
 23 28  2  0  0  0  0
 23 26  1  0  0  0  0
 26 22  2  0  0  0  0
 27 24  1  0  0  0  0
 27 29  2  0  0  0  0
 28 27  1  0  0  0  0
 30 31  2  0  0  0  0
 30  5  1  0  0  0  0
M  END
>  <MODEL>
2

>  <REMARK>
 VINA RESULT:      -9.3      3.619      7.874
  Name = 
  3 active torsions:
  status: ('A' for Active; 'I' for Inactive)
    1  A    between atoms: N_2  and  C_13
    2  A    between atoms: C_9  and  C_22
    3  A    between atoms: C_15  and  N_23
                            x       y       z     vdW  Elec       q    Type
                         _______ _______ _______ _____ _____    ______ ____

>  <TORSDO>
F 3

$$$$
=
 OpenBabel10272400303D

 31 35  0  0  1  0  0  0  0  0999 V2000
  188.9610  177.6400  142.7320 C   0  0  0  0  0  0  0  0  0  0  0  0
  189.3940  177.4080  144.0600 C   0  0  2  0  0  3  0  0  0  0  0  0
  188.9710  177.3770  146.4360 C   0  0  0  0  0  0  0  0  0  0  0  0
  187.7210  178.0620  142.4100 C   0  0  0  0  0  0  0  0  0  0  0  0
  185.6590  178.7150  142.5450 C   0  0  0  0  0  0  0  0  0  0  0  0
  188.5900  177.5960  145.0710 N   0  0  0  0  0  0  0  0  0  0  0  0
  189.4820  177.6470  140.2440 C   0  0  0  0  0  0  0  0  0  0  0  0
  191.5710  176.7680  143.2070 C   0  0  0  0  0  3  0  0  0  0  0  0
  187.9860  177.6180  147.5230 C   0  0  0  0  0  1  0  0  0  0  0  0
  188.2370  178.0670  139.9740 C   0  0  0  0  0  3  0  0  0  0  0  0
  189.8800  177.4190  141.6670 C   0  0  0  0  0  0  0  0  0  0  0  0
  186.6510  178.3430  143.2970 N   0  0  0  0  0  0  0  0  0  0  0  0
  190.2000  176.9620  146.7410 C   0  0  0  0  0  3  0  0  0  0  0  0
  187.3470  178.2760  141.0680 N   0  0  0  0  0  0  0  0  0  0  0  0
  185.9690  178.7180  141.0650 C   0  0  0  0  0  2  0  0  0  0  0  0
  191.1430  176.9940  141.9400 N   0  0  0  0  0  0  0  0  0  0  0  0
  190.7150  176.9680  144.2870 C   0  0  0  0  0  0  0  0  0  0  0  0
  191.2290  176.7050  145.6770 C   0  0  0  0  0  3  0  0  0  0  0  0
  189.7000  175.3230  138.4580 O   0  0  0  0  0  0  0  0  0  0  0  0
  190.5270  176.2660  138.3380 C   0  0  0  0  0  0  0  0  0  0  0  0
  190.4400  177.4120  139.2000 N   0  0  0  0  0  2  0  0  0  0  0  0
  193.7410  176.1350  135.4820 C   0  0  0  0  0  0  0  0  0  0  0  0
  192.9230  176.4110  137.7370 C   0  0  0  0  0  3  0  0  0  0  0  0
  189.7610  175.6970  135.2520 Cl  0  0  0  0  0  0  0  0  0  0  0  0
  195.0720  176.0880  134.3470 Cl  0  0  0  0  0  0  0  0  0  0  0  0
  193.9860  176.3740  136.8340 C   0  0  0  0  0  3  0  0  0  0  0  0
  191.3610  175.9670  135.9320 C   0  0  0  0  0  0  0  0  0  0  0  0
  191.5990  176.2100  137.3110 C   0  0  0  0  0  0  0  0  0  0  0  0
  192.4350  175.9330  135.0370 C   0  0  0  0  0  3  0  0  0  0  0  0
  184.3970  179.0820  143.1060 N   0  0  0  0  0  0  0  0  0  0  0  0
  184.1660  179.0200  144.3770 C   0  0  0  0  0  2  0  0  0  0  0  0
  2  1  1  1  0  0  0
  2 17  1  0  0  0  0
  2  6  1  0  0  0  0
  3 13  1  0  0  0  0
  3  9  1  0  0  0  0
  4  1  2  0  0  0  0
  4 12  1  0  0  0  0
  5 30  1  0  0  0  0
  5 12  2  0  0  0  0
  6  3  2  0  0  0  0
  7 11  1  0  0  0  0
  8 17  2  0  0  0  0
 10  7  2  0  0  0  0
 10 14  1  0  0  0  0
 11 16  2  0  0  0  0
 11  1  1  0  0  0  0
 14  4  1  0  0  0  0
 15 14  1  0  0  0  0
 15  5  1  0  0  0  0
 16  8  1  0  0  0  0
 17 18  1  0  0  0  0
 18 13  2  0  0  0  0
 20 19  2  0  0  0  0
 20 21  1  0  0  0  0
 21  7  1  0  0  0  0
 22 26  1  0  0  0  0
 24 27  1  0  0  0  0
 25 22  1  0  0  0  0
 26 23  2  0  0  0  0
 27 28  2  0  0  0  0
 28 23  1  0  0  0  0
 28 20  1  0  0  0  0
 29 22  2  0  0  0  0
 29 27  1  0  0  0  0
 30 31  2  0  0  0  0
M  END
>  <MODEL>
3

>  <REMARK>
 VINA RESULT:      -9.2      1.626      1.959
  Name = 
  3 active torsions:
  status: ('A' for Active; 'I' for Inactive)
    1  A    between atoms: N_2  and  C_13
    2  A    between atoms: C_9  and  C_22
    3  A    between atoms: C_15  and  N_23
                            x       y       z     vdW  Elec       q    Type
                         _______ _______ _______ _____ _____    ______ ____

>  <TORSDO>
F 3

$$$$
=
 OpenBabel10272400303D

 31 35  0  0  1  0  0  0  0  0999 V2000
  185.9860  178.4660  140.1960 C   0  0  0  0  0  0  0  0  0  0  0  0
  184.5830  178.6510  140.2440 C   0  0  2  0  0  3  0  0  0  0  0  0
  182.4650  178.9920  139.1390 C   0  0  0  0  0  0  0  0  0  0  0  0
  186.6980  178.4310  139.0500 C   0  0  0  0  0  0  0  0  0  0  0  0
  187.2450  178.4660  136.9530 C   0  0  0  0  0  0  0  0  0  0  0  0
  183.8870  178.8010  139.1510 N   0  0  0  0  0  0  0  0  0  0  0  0
  188.1790  178.1090  141.4310 C   0  0  0  0  0  0  0  0  0  0  0  0
  184.6800  178.5120  142.6630 C   0  0  0  0  0  3  0  0  0  0  0  0
  181.7560  179.1540  137.8430 C   0  0  0  0  0  1  0  0  0  0  0  0
  188.8420  178.0810  140.2660 C   0  0  0  0  0  3  0  0  0  0  0  0
  186.6970  178.3070  141.4190 C   0  0  0  0  0  0  0  0  0  0  0  0
  186.2060  178.5650  137.7270 N   0  0  0  0  0  0  0  0  0  0  0  0
  181.7740  179.0260  140.2770 C   0  0  0  0  0  3  0  0  0  0  0  0
  188.0950  178.2430  139.0630 N   0  0  0  0  0  0  0  0  0  0  0  0
  188.5490  178.2530  137.6890 C   0  0  0  0  0  2  0  0  0  0  0  0
  186.0240  178.3350  142.6000 N   0  0  0  0  0  0  0  0  0  0  0  0
  183.9350  178.6730  141.4970 C   0  0  0  0  0  0  0  0  0  0  0  0
  182.4470  178.8660  141.6100 C   0  0  0  0  0  3  0  0  0  0  0  0
  188.2800  175.7390  143.1670 O   0  0  0  0  0  0  0  0  0  0  0  0
  188.8920  176.7820  143.5200 C   0  0  0  0  0  0  0  0  0  0  0  0
  188.8560  177.9530  142.6880 N   0  0  0  0  0  2  0  0  0  0  0  0
  191.2350  176.8510  147.1260 C   0  0  0  0  0  0  0  0  0  0  0  0
  191.0250  176.5100  144.7450 C   0  0  0  0  0  3  0  0  0  0  0  0
  187.3830  177.5600  146.2680 Cl  0  0  0  0  0  0  0  0  0  0  0  0
  192.2180  176.8690  148.5750 Cl  0  0  0  0  0  0  0  0  0  0  0  0
  191.8100  176.5250  145.8980 C   0  0  0  0  0  3  0  0  0  0  0  0
  189.0790  177.1500  146.0500 C   0  0  0  0  0  0  0  0  0  0  0  0
  189.6550  176.8200  144.7940 C   0  0  0  0  0  0  0  0  0  0  0  0
  189.8780  177.1610  147.1980 C   0  0  0  0  0  3  0  0  0  0  0  0
  187.1260  178.5560  135.5320 N   0  0  0  0  0  0  0  0  0  0  0  0
  186.4640  177.6850  134.8420 C   0  0  0  0  0  2  0  0  0  0  0  0
  1  2  1  0  0  0  0
  1 11  1  0  0  0  0
  2  6  1  1  0  0  0
  2 17  1  0  0  0  0
  3  6  2  0  0  0  0
  3 13  1  0  0  0  0
  4 14  1  0  0  0  0
  4  1  2  0  0  0  0
  5 15  1  0  0  0  0
  5 12  2  0  0  0  0
  7 21  1  0  0  0  0
  9  3  1  0  0  0  0
 10  7  2  0  0  0  0
 11  7  1  0  0  0  0
 11 16  2  0  0  0  0
 12  4  1  0  0  0  0
 13 18  2  0  0  0  0
 14 10  1  0  0  0  0
 15 14  1  0  0  0  0
 16  8  1  0  0  0  0
 17 18  1  0  0  0  0
 17  8  2  0  0  0  0
 19 20  2  0  0  0  0
 20 28  1  0  0  0  0
 21 20  1  0  0  0  0
 22 29  1  0  0  0  0
 22 25  1  0  0  0  0
 23 28  2  0  0  0  0
 23 26  1  0  0  0  0
 26 22  2  0  0  0  0
 27 24  1  0  0  0  0
 27 29  2  0  0  0  0
 28 27  1  0  0  0  0
 30  5  1  0  0  0  0
 31 30  2  0  0  0  0
M  END
>  <MODEL>
4

>  <REMARK>
 VINA RESULT:      -9.1      3.770      8.100
  Name = 
  3 active torsions:
  status: ('A' for Active; 'I' for Inactive)
    1  A    between atoms: N_2  and  C_13
    2  A    between atoms: C_9  and  C_22
    3  A    between atoms: C_15  and  N_23
                            x       y       z     vdW  Elec       q    Type
                         _______ _______ _______ _____ _____    ______ ____

>  <TORSDO>
F 3

$$$$
=
 OpenBabel10272400303D

 31 35  0  0  1  0  0  0  0  0999 V2000
  188.6600  177.2260  144.4960 C   0  0  0  0  0  0  0  0  0  0  0  0
  187.7930  177.6700  145.5240 C   0  0  2  0  0  3  0  0  0  0  0  0
  187.3310  178.0850  147.8560 C   0  0  0  0  0  0  0  0  0  0  0  0
  189.9050  176.7560  144.7180 C   0  0  0  0  0  0  0  0  0  0  0  0
  191.7370  176.1320  145.6940 C   0  0  0  0  0  0  0  0  0  0  0  0
  188.1650  177.6480  146.7740 N   0  0  0  0  0  0  0  0  0  0  0  0
  189.0720  176.8160  142.0220 C   0  0  0  0  0  0  0  0  0  0  0  0
  186.1120  178.1650  143.8480 C   0  0  0  0  0  3  0  0  0  0  0  0
  187.8420  178.0220  149.2500 C   0  0  0  0  0  1  0  0  0  0  0  0
  190.3030  176.3570  142.2920 C   0  0  0  0  0  3  0  0  0  0  0  0
  188.2020  177.2720  143.1490 C   0  0  0  0  0  0  0  0  0  0  0  0
  190.5650  176.6210  145.9660 N   0  0  0  0  0  0  0  0  0  0  0  0
  186.1020  178.5450  147.6240 C   0  0  0  0  0  3  0  0  0  0  0  0
  190.7240  176.3270  143.6540 N   0  0  0  0  0  0  0  0  0  0  0  0
  191.9810  175.8890  144.2210 C   0  0  0  0  0  2  0  0  0  0  0  0
  186.9540  177.7370  142.8740 N   0  0  0  0  0  0  0  0  0  0  0  0
  186.5080  178.1420  145.1830 C   0  0  0  0  0  0  0  0  0  0  0  0
  185.5440  178.6270  146.2320 C   0  0  0  0  0  3  0  0  0  0  0  0
  188.8030  179.1720  140.2850 O   0  0  0  0  0  0  0  0  0  0  0  0
  188.4490  178.0460  139.8460 C   0  0  0  0  0  0  0  0  0  0  0  0
  188.5700  176.8800  140.6770 N   0  0  0  0  0  2  0  0  0  0  0  0
  186.7170  177.6690  135.9270 C   0  0  0  0  0  0  0  0  0  0  0  0
  186.5240  178.1150  138.2920 C   0  0  0  0  0  3  0  0  0  0  0  0
  190.4220  177.2720  137.4090 Cl  0  0  0  0  0  0  0  0  0  0  0  0
  185.9800  177.5230  134.3460 Cl  0  0  0  0  0  0  0  0  0  0  0  0
  185.9350  178.0000  137.0330 C   0  0  0  0  0  3  0  0  0  0  0  0
  188.6890  177.5660  137.3400 C   0  0  0  0  0  0  0  0  0  0  0  0
  187.9020  177.9030  138.4720 C   0  0  0  0  0  0  0  0  0  0  0  0
  188.0860  177.4540  136.0830 C   0  0  0  0  0  3  0  0  0  0  0  0
  192.6880  175.8600  146.7250 N   0  0  0  0  0  0  0  0  0  0  0  0
  192.3470  175.7870  147.9700 C   0  0  0  0  0  2  0  0  0  0  0  0
  1  4  2  0  0  0  0
  2  1  1  1  0  0  0
  2  6  1  0  0  0  0
  3  9  1  0  0  0  0
  4 12  1  0  0  0  0
  5 12  2  0  0  0  0
  5 30  1  0  0  0  0
  6  3  2  0  0  0  0
  7 10  2  0  0  0  0
  7 11  1  0  0  0  0
  8 17  2  0  0  0  0
 10 14  1  0  0  0  0
 11  1  1  0  0  0  0
 13  3  1  0  0  0  0
 14 15  1  0  0  0  0
 14  4  1  0  0  0  0
 15  5  1  0  0  0  0
 16 11  2  0  0  0  0
 16  8  1  0  0  0  0
 17  2  1  0  0  0  0
 17 18  1  0  0  0  0
 18 13  2  0  0  0  0
 20 19  2  0  0  0  0
 20 21  1  0  0  0  0
 21  7  1  0  0  0  0
 22 29  2  0  0  0  0
 22 26  1  0  0  0  0
 23 28  1  0  0  0  0
 25 22  1  0  0  0  0
 26 23  2  0  0  0  0
 27 24  1  0  0  0  0
 27 28  2  0  0  0  0
 28 20  1  0  0  0  0
 29 27  1  0  0  0  0
 30 31  2  0  0  0  0
M  END
>  <MODEL>
5

>  <REMARK>
 VINA RESULT:      -9.1      2.521      4.767
  Name = 
  3 active torsions:
  status: ('A' for Active; 'I' for Inactive)
    1  A    between atoms: N_2  and  C_13
    2  A    between atoms: C_9  and  C_22
    3  A    between atoms: C_15  and  N_23
                            x       y       z     vdW  Elec       q    Type
                         _______ _______ _______ _____ _____    ______ ____

>  <TORSDO>
F 3

$$$$
=
 OpenBabel10272400303D

 31 35  0  0  0  0  0  0  0  0999 V2000
  189.8070  177.4950  139.1180 C   0  0  0  0  0  0  0  0  0  0  0  0
  188.8570  177.6760  138.0840 C   0  0  0  0  0  0  0  0  0  0  0  0
  188.2730  177.6960  135.7420 C   0  0  0  0  0  0  0  0  0  0  0  0
  191.0970  177.1640  138.9020 C   0  0  0  0  0  0  0  0  0  0  0  0
  192.9640  176.6480  137.9310 C   0  0  0  0  0  0  0  0  0  0  0  0
  189.1910  177.5260  136.8310 N   0  0  0  0  0  0  0  0  0  0  0  0
  190.3450  177.4950  141.6020 C   0  0  0  0  0  0  0  0  0  0  0  0
  187.1770  178.1830  139.7570 C   0  0  0  0  0  3  0  0  0  0  0  0
  188.7450  177.5040  134.3460 C   0  0  0  0  0  1  0  0  0  0  0  0
  191.6180  177.1650  141.3370 C   0  0  0  0  0  3  0  0  0  0  0  0
  189.3880  177.6710  140.4680 C   0  0  0  0  0  0  0  0  0  0  0  0
  191.7300  176.9400  137.6530 N   0  0  0  0  0  0  0  0  0  0  0  0
  187.0020  178.0240  135.9690 C   0  0  0  0  0  3  0  0  0  0  0  0
  191.9980  176.9980  139.9730 N   0  0  0  0  0  0  0  0  0  0  0  0
  193.2840  176.6480  139.4100 C   0  0  0  0  0  2  0  0  0  0  0  0
  188.0980  178.0060  140.7370 N   0  0  0  0  0  0  0  0  0  0  0  0
  187.5310  178.0230  138.4200 C   0  0  0  0  0  0  0  0  0  0  0  0
  186.4800  178.2280  137.3620 C   0  0  0  0  0  2  0  0  0  0  0  0
  188.6940  175.6880  143.2300 O   0  0  0  0  0  0  0  0  0  0  0  0
  189.0730  176.7820  143.7260 C   0  0  0  0  0  0  0  0  0  0  0  0
  189.8810  177.6820  142.9490 N   0  0  0  0  0  2  0  0  0  0  0  0
  188.1310  177.8450  147.7860 C   0  0  0  0  0  0  0  0  0  0  0  0
  189.6880  177.0870  146.1030 C   0  0  0  0  0  3  0  0  0  0  0  0
  186.0510  177.7300  144.3590 Cl  0  0  0  0  0  0  0  0  0  0  0  0
  187.7820  178.2700  149.4470 Cl  0  0  0  0  0  0  0  0  0  0  0  0
  189.4120  177.4260  147.4280 C   0  0  0  0  0  3  0  0  0  0  0  0
  187.3940  177.5880  145.4860 C   0  0  0  0  0  0  0  0  0  0  0  0
  188.6950  177.1610  145.1120 C   0  0  0  0  0  0  0  0  0  0  0  0
  187.1300  177.9250  146.8180 C   0  0  0  0  0  3  0  0  0  0  0  0
  193.9110  176.3590  136.9010 N   0  0  0  0  0  0  0  0  0  0  0  0
  193.5470  175.9490  135.7300 C   0  0  0  0  0  2  0  0  0  0  0  0
  1 11  1  0  0  0  0
  2 17  1  0  0  0  0
  2  1  1  0  0  0  0
  3 13  2  0  0  0  0
  3  6  1  0  0  0  0
  4  1  2  0  0  0  0
  4 14  1  0  0  0  0
  5 15  1  0  0  0  0
  6  2  2  0  0  0  0
  7 21  1  0  0  0  0
  8 16  1  0  0  0  0
  9  3  1  0  0  0  0
 10  7  2  0  0  0  0
 11 16  2  0  0  0  0
 11  7  1  0  0  0  0
 12  5  2  0  0  0  0
 12  4  1  0  0  0  0
 13 18  1  0  0  0  0
 14 10  1  0  0  0  0
 15 14  1  0  0  0  0
 17  8  2  0  0  0  0
 18 17  1  0  0  0  0
 19 20  2  0  0  0  0
 20 28  1  0  0  0  0
 21 20  1  0  0  0  0
 22 25  1  0  0  0  0
 23 26  2  0  0  0  0
 24 27  1  0  0  0  0
 26 22  1  0  0  0  0
 27 29  1  0  0  0  0
 28 27  2  0  0  0  0
 28 23  1  0  0  0  0
 29 22  2  0  0  0  0
 30  5  1  0  0  0  0
 31 30  2  0  0  0  0
M  END
>  <MODEL>
6

>  <REMARK>
 VINA RESULT:      -9.0      3.587      9.202
  Name = 
  3 active torsions:
  status: ('A' for Active; 'I' for Inactive)
    1  A    between atoms: N_2  and  C_13
    2  A    between atoms: C_9  and  C_22
    3  A    between atoms: C_15  and  N_23
                            x       y       z     vdW  Elec       q    Type
                         _______ _______ _______ _____ _____    ______ ____

>  <TORSDO>
F 3

$$$$
=
 OpenBabel10272400303D

 31 35  0  0  1  0  0  0  0  0999 V2000
  189.1480  177.5630  142.1340 C   0  0  0  0  0  0  0  0  0  0  0  0
  189.3430  177.4590  143.5330 C   0  0  2  0  0  3  0  0  0  0  0  0
  188.5250  177.6690  145.7930 C   0  0  0  0  0  0  0  0  0  0  0  0
  187.9910  177.9650  141.5660 C   0  0  0  0  0  0  0  0  0  0  0  0
  185.9550  178.6500  141.2840 C   0  0  0  0  0  0  0  0  0  0  0  0
  188.3860  177.7550  144.3680 N   0  0  0  0  0  0  0  0  0  0  0  0
  190.0810  177.3180  139.7820 C   0  0  0  0  0  0  0  0  0  0  0  0
  191.6140  176.7140  143.1290 C   0  0  0  0  0  3  0  0  0  0  0  0
  187.3780  178.0270  146.6680 C   0  0  0  0  0  1  0  0  0  0  0  0
  188.9110  177.7220  139.2650 C   0  0  0  0  0  3  0  0  0  0  0  0
  190.2270  177.2280  141.2670 C   0  0  0  0  0  0  0  0  0  0  0  0
  186.7950  178.3440  142.2260 N   0  0  0  0  0  0  0  0  0  0  0  0
  189.6720  177.2720  146.3420 C   0  0  0  0  0  3  0  0  0  0  0  0
  187.8550  178.0480  140.1660 N   0  0  0  0  0  0  0  0  0  0  0  0
  186.5110  178.5030  139.8850 C   0  0  0  0  0  2  0  0  0  0  0  0
  191.4120  176.8180  141.7910 N   0  0  0  0  0  0  0  0  0  0  0  0
  190.5940  177.0290  144.0230 C   0  0  0  0  0  0  0  0  0  0  0  0
  190.8580  176.9010  145.4990 C   0  0  0  0  0  3  0  0  0  0  0  0
  190.4320  174.9210  138.1170 O   0  0  0  0  0  0  0  0  0  0  0  0
  191.3440  175.7900  138.1380 C   0  0  0  0  0  0  0  0  0  0  0  0
  191.1950  176.9700  138.9440 N   0  0  0  0  0  2  0  0  0  0  0  0
  195.0070  175.2420  135.9520 C   0  0  0  0  0  0  0  0  0  0  0  0
  193.7600  175.2700  138.0190 C   0  0  0  0  0  3  0  0  0  0  0  0
  191.2470  176.1940  134.9350 Cl  0  0  0  0  0  0  0  0  0  0  0  0
  196.5150  175.0110  135.0930 Cl  0  0  0  0  0  0  0  0  0  0  0  0
  194.9630  175.0860  137.3360 C   0  0  0  0  0  3  0  0  0  0  0  0
  192.6370  175.7690  135.9250 C   0  0  0  0  0  0  0  0  0  0  0  0
  192.5810  175.6120  137.3350 C   0  0  0  0  0  0  0  0  0  0  0  0
  193.8500  175.5820  135.2530 C   0  0  0  0  0  3  0  0  0  0  0  0
  184.6270  179.0840  141.5830 N   0  0  0  0  0  0  0  0  0  0  0  0
  184.0560  178.8180  142.7120 C   0  0  0  0  0  2  0  0  0  0  0  0
  2  1  1  1  0  0  0
  2 17  1  0  0  0  0
  2  6  1  0  0  0  0
  3 13  1  0  0  0  0
  3  9  1  0  0  0  0
  4  1  2  0  0  0  0
  4 12  1  0  0  0  0
  5 30  1  0  0  0  0
  5 12  2  0  0  0  0
  6  3  2  0  0  0  0
  7 11  1  0  0  0  0
  8 17  2  0  0  0  0
 10  7  2  0  0  0  0
 10 14  1  0  0  0  0
 11 16  2  0  0  0  0
 11  1  1  0  0  0  0
 14  4  1  0  0  0  0
 15 14  1  0  0  0  0
 15  5  1  0  0  0  0
 16  8  1  0  0  0  0
 17 18  1  0  0  0  0
 18 13  2  0  0  0  0
 19 20  2  0  0  0  0
 20 21  1  0  0  0  0
 21  7  1  0  0  0  0
 22 26  1  0  0  0  0
 24 27  1  0  0  0  0
 25 22  1  0  0  0  0
 26 23  2  0  0  0  0
 27 28  2  0  0  0  0
 28 23  1  0  0  0  0
 28 20  1  0  0  0  0
 29 27  1  0  0  0  0
 29 22  2  0  0  0  0
 30 31  2  0  0  0  0
M  END
>  <MODEL>
7

>  <REMARK>
 VINA RESULT:      -8.8      1.888      2.564
  Name = 
  3 active torsions:
  status: ('A' for Active; 'I' for Inactive)
    1  A    between atoms: N_2  and  C_13
    2  A    between atoms: C_9  and  C_22
    3  A    between atoms: C_15  and  N_23
                            x       y       z     vdW  Elec       q    Type
                         _______ _______ _______ _____ _____    ______ ____

>  <TORSDO>
F 3

$$$$
=
 OpenBabel10272400303D

 31 35  0  0  0  0  0  0  0  0999 V2000
  188.9170  177.2020  144.6460 C   0  0  0  0  0  0  0  0  0  0  0  0
  187.7480  177.7500  145.2280 C   0  0  0  0  0  0  0  0  0  0  0  0
  186.5220  178.5270  147.1560 C   0  0  0  0  0  0  0  0  0  0  0  0
  190.0220  176.8770  145.3480 C   0  0  0  0  0  0  0  0  0  0  0  0
  191.4280  176.5780  146.9710 C   0  0  0  0  0  0  0  0  0  0  0  0
  187.6780  177.9750  146.5110 N   0  0  0  0  0  0  0  0  0  0  0  0
  190.1440  176.4010  142.5690 C   0  0  0  0  0  0  0  0  0  0  0  0
  186.7220  177.8120  143.0330 C   0  0  0  0  0  3  0  0  0  0  0  0
  186.5350  178.7490  148.6260 C   0  0  0  0  0  1  0  0  0  0  0  0
  191.2190  176.0940  143.3100 C   0  0  0  0  0  3  0  0  0  0  0  0
  188.9380  176.9770  143.2400 C   0  0  0  0  0  0  0  0  0  0  0  0
  190.2250  177.0140  146.7450 N   0  0  0  0  0  0  0  0  0  0  0  0
  185.4360  178.8430  146.4520 C   0  0  0  0  0  3  0  0  0  0  0  0
  191.1580  176.3350  144.7140 N   0  0  0  0  0  0  0  0  0  0  0  0
  192.1580  176.1020  145.7340 C   0  0  0  0  0  2  0  0  0  0  0  0
  187.8490  177.2870  142.4890 N   0  0  0  0  0  0  0  0  0  0  0  0
  186.6450  178.0530  144.4020 C   0  0  0  0  0  0  0  0  0  0  0  0
  185.3770  178.6360  144.9650 C   0  0  0  0  0  2  0  0  0  0  0  0
  191.8050  177.6810  140.5100 O   0  0  0  0  0  0  0  0  0  0  0  0
  190.9470  176.8280  140.1600 C   0  0  0  0  0  0  0  0  0  0  0  0
  190.1230  176.1890  141.1480 N   0  0  0  0  0  2  0  0  0  0  0  0
  190.5730  175.7000  136.0260 C   0  0  0  0  0  0  0  0  0  0  0  0
  191.7150  175.6040  138.1510 C   0  0  0  0  0  3  0  0  0  0  0  0
  188.4560  178.0410  138.5000 Cl  0  0  0  0  0  0  0  0  0  0  0  0
  190.4510  175.2210  134.3470 Cl  0  0  0  0  0  0  0  0  0  0  0  0
  191.6200  175.2210  136.8130 C   0  0  0  0  0  3  0  0  0  0  0  0
  189.7100  176.9530  137.9180 C   0  0  0  0  0  0  0  0  0  0  0  0
  190.7710  176.4710  138.7290 C   0  0  0  0  0  0  0  0  0  0  0  0
  189.6260  176.5610  136.5780 C   0  0  0  0  0  3  0  0  0  0  0  0
  191.9800  176.5650  148.2880 N   0  0  0  0  0  0  0  0  0  0  0  0
  193.0500  175.8980  148.5770 C   0  0  0  0  0  2  0  0  0  0  0  0
  1  2  1  0  0  0  0
  1  4  2  0  0  0  0
  2  6  2  0  0  0  0
  3  9  1  0  0  0  0
  4 12  1  0  0  0  0
  5 30  1  0  0  0  0
  6  3  1  0  0  0  0
  7 11  1  0  0  0  0
  7 10  2  0  0  0  0
  8 17  2  0  0  0  0
 10 14  1  0  0  0  0
 11  1  1  0  0  0  0
 12  5  2  0  0  0  0
 13  3  2  0  0  0  0
 14  4  1  0  0  0  0
 14 15  1  0  0  0  0
 15  5  1  0  0  0  0
 16  8  1  0  0  0  0
 16 11  2  0  0  0  0
 17 18  1  0  0  0  0
 17  2  1  0  0  0  0
 18 13  1  0  0  0  0
 20 19  2  0  0  0  0
 20 21  1  0  0  0  0
 21  7  1  0  0  0  0
 22 29  2  0  0  0  0
 22 26  1  0  0  0  0
 23 28  1  0  0  0  0
 25 22  1  0  0  0  0
 26 23  2  0  0  0  0
 27 24  1  0  0  0  0
 27 28  2  0  0  0  0
 28 20  1  0  0  0  0
 29 27  1  0  0  0  0
 30 31  2  0  0  0  0
M  END
>  <MODEL>
8

>  <REMARK>
 VINA RESULT:      -8.7      1.910      4.427
  Name = 
  3 active torsions:
  status: ('A' for Active; 'I' for Inactive)
    1  A    between atoms: N_2  and  C_13
    2  A    between atoms: C_9  and  C_22
    3  A    between atoms: C_15  and  N_23
                            x       y       z     vdW  Elec       q    Type
                         _______ _______ _______ _____ _____    ______ ____

>  <TORSDO>
F 3

$$$$
=
 OpenBabel10272400303D

 31 35  0  0  1  0  0  0  0  0999 V2000
  185.9240  178.4640  140.1980 C   0  0  0  0  0  0  0  0  0  0  0  0
  184.5230  178.6510  140.2730 C   0  0  2  0  0  3  0  0  0  0  0  0
  182.3820  178.9790  139.2080 C   0  0  0  0  0  0  0  0  0  0  0  0
  186.6120  178.4130  139.0380 C   0  0  0  0  0  0  0  0  0  0  0  0
  187.1150  178.4190  136.9300 C   0  0  0  0  0  0  0  0  0  0  0  0
  183.8040  178.7870  139.1930 N   0  0  0  0  0  0  0  0  0  0  0  0
  188.1420  178.1230  141.3920 C   0  0  0  0  0  0  0  0  0  0  0  0
  184.6710  178.5460  142.6910 C   0  0  0  0  0  3  0  0  0  0  0  0
  181.6460  179.1240  137.9250 C   0  0  0  0  0  1  0  0  0  0  0  0
  188.7810  178.0780  140.2140 C   0  0  0  0  0  3  0  0  0  0  0  0
  186.6610  178.3220  141.4080 C   0  0  0  0  0  0  0  0  0  0  0  0
  186.0930  178.5290  137.7230 N   0  0  0  0  0  0  0  0  0  0  0  0
  181.7150  179.0290  140.3600 C   0  0  0  0  0  3  0  0  0  0  0  0
  188.0090  178.2240  139.0240 N   0  0  0  0  0  0  0  0  0  0  0  0
  188.4340  178.2150  137.6410 C   0  0  0  0  0  2  0  0  0  0  0  0
  186.0130  178.3670  142.6030 N   0  0  0  0  0  0  0  0  0  0  0  0
  183.9010  178.6910  141.5390 C   0  0  0  0  0  0  0  0  0  0  0  0
  182.4160  178.8870  141.6800 C   0  0  0  0  0  3  0  0  0  0  0  0
  188.2350  175.7950  143.1840 O   0  0  0  0  0  0  0  0  0  0  0  0
  188.8770  176.8330  143.4970 C   0  0  0  0  0  0  0  0  0  0  0  0
  188.8460  177.9830  142.6360 N   0  0  0  0  0  2  0  0  0  0  0  0
  191.0450  177.0530  147.2050 C   0  0  0  0  0  0  0  0  0  0  0  0
  189.0420  177.3940  145.9010 C   0  0  0  0  0  3  0  0  0  0  0  0
  191.9370  175.8010  143.5010 Cl  0  0  0  0  0  0  0  0  0  0  0  0
  191.8980  177.1560  148.7300 Cl  0  0  0  0  0  0  0  0  0  0  0  0
  189.7200  177.4770  147.1180 C   0  0  0  0  0  3  0  0  0  0  0  0
  191.0200  176.4580  144.8510 C   0  0  0  0  0  0  0  0  0  0  0  0
  189.6700  176.8870  144.7510 C   0  0  0  0  0  0  0  0  0  0  0  0
  191.6880  176.5470  146.0770 C   0  0  0  0  0  3  0  0  0  0  0  0
  186.9660  178.4890  135.5100 N   0  0  0  0  0  0  0  0  0  0  0  0
  186.3810  177.5550  134.8350 C   0  0  0  0  0  2  0  0  0  0  0  0
  1  2  1  0  0  0  0
  1 11  1  0  0  0  0
  2  6  1  1  0  0  0
  2 17  1  0  0  0  0
  3 13  1  0  0  0  0
  4  1  2  0  0  0  0
  5 15  1  0  0  0  0
  5 12  2  0  0  0  0
  6  3  2  0  0  0  0
  7 11  1  0  0  0  0
  7 21  1  0  0  0  0
  9  3  1  0  0  0  0
 10  7  2  0  0  0  0
 11 16  2  0  0  0  0
 12  4  1  0  0  0  0
 13 18  2  0  0  0  0
 14  4  1  0  0  0  0
 14 10  1  0  0  0  0
 15 14  1  0  0  0  0
 16  8  1  0  0  0  0
 17 18  1  0  0  0  0
 17  8  2  0  0  0  0
 19 20  2  0  0  0  0
 20 28  1  0  0  0  0
 21 20  1  0  0  0  0
 22 25  1  0  0  0  0
 23 26  2  0  0  0  0
 24 27  1  0  0  0  0
 26 22  1  0  0  0  0
 27 29  1  0  0  0  0
 28 27  2  0  0  0  0
 28 23  1  0  0  0  0
 29 22  2  0  0  0  0
 30  5  1  0  0  0  0
 31 30  2  0  0  0  0
M  END
>  <MODEL>
9

>  <REMARK>
 VINA RESULT:      -8.5      3.448      7.988
  Name = 
  3 active torsions:
  status: ('A' for Active; 'I' for Inactive)
    1  A    between atoms: N_2  and  C_13
    2  A    between atoms: C_9  and  C_22
    3  A    between atoms: C_15  and  N_23
                            x       y       z     vdW  Elec       q    Type
                         _______ _______ _______ _____ _____    ______ ____

>  <TORSDO>
F 3

$$$$
