=
 OpenBabel10272414233D

 43 48  0  0  1  0  0  0  0  0999 V2000
  190.5040  177.5520  144.3130 C   0  0  1  0  0  3  0  0  0  0  0  0
  190.9450  177.2840  139.1840 C   0  0  0  0  0  0  0  0  0  0  0  0
  188.3040  177.2910  138.0550 C   0  0  2  0  0  3  0  0  0  0  0  0
  191.3550  177.2770  141.9590 C   0  0  0  0  0  0  0  0  0  0  0  0
  189.1730  177.0420  143.7720 C   0  0  0  0  0  2  0  0  0  0  0  0
  190.7740  176.9540  145.5420 O   0  0  0  0  0  1  0  0  0  0  0  0
  190.0520  177.4390  141.4500 C   0  0  0  0  0  0  0  0  0  0  0  0
  191.5760  177.2460  143.3720 N   0  0  0  0  0  2  0  0  0  0  0  0
  188.9060  177.6710  142.4050 C   0  0  0  0  0  2  0  0  0  0  0  0
  188.4650  177.7330  139.5110 C   0  0  0  0  0  2  0  0  0  0  0  0
  189.8410  177.4460  140.0560 C   0  0  0  0  0  0  0  0  0  0  0  0
  192.2260  177.1000  139.7110 C   0  0  0  0  0  3  0  0  0  0  0  0
  190.7740  177.2020  137.6890 C   0  0  2  0  0  3  0  0  0  0  0  0
  189.4590  177.8290  137.2200 C   0  0  0  0  0  2  0  0  0  0  0  0
  192.4310  177.0990  141.0900 C   0  0  0  0  0  3  0  0  0  0  0  0
  186.9510  177.7010  137.4720 C   0  0  2  0  0  3  0  0  0  0  0  0
  187.0990  178.4940  136.1770 C   0  0  0  0  0  1  0  0  0  0  0  0
  186.2120  178.4800  138.4560 N   0  0  0  0  0  2  0  0  0  0  0  0
  184.7890  178.4450  138.5820 C   0  0  0  0  0  0  0  0  0  0  0  0
  184.0990  177.6740  137.8630 O   0  0  0  0  0  0  0  0  0  0  0  0
  184.1140  179.3520  139.5550 C   0  0  0  0  0  2  0  0  0  0  0  0
  184.0190  178.7080  140.9390 C   0  0  2  0  0  0  0  0  0  0  0  0
  185.0840  179.0160  141.9310 C   0  0  1  0  0  0  0  0  0  0  0  0
  185.0940  177.8250  141.1730 O   0  0  0  0  0  0  0  0  0  0  0  0
  186.1190  179.8670  141.5350 O   0  0  0  0  0  1  0  0  0  0  0  0
  184.9210  178.7500  143.3990 C   0  0  0  0  0  0  0  0  0  0  0  0
  183.6280  178.9600  145.5720 C   0  0  0  0  0  2  0  0  0  0  0  0
  185.7680  177.7150  145.5140 C   0  0  0  0  0  2  0  0  0  0  0  0
  184.9740  178.7800  146.2600 C   0  0  0  0  0  2  0  0  0  0  0  0
  185.8490  178.0170  144.0410 C   0  0  0  0  0  3  0  0  0  0  0  0
  183.8380  179.4890  144.1530 C   0  0  0  0  0  2  0  0  0  0  0  0
  182.6980  178.1060  141.4150 C   0  0  0  0  0  2  0  0  0  0  0  0
  180.8450  179.6110  141.5530 O   0  0  0  0  0  1  0  0  0  0  0  0
  181.5100  178.7310  140.7010 C   0  0  0  0  0  2  0  0  0  0  0  0
  190.8410  175.8400  137.2770 O   0  0  0  0  0  0  0  0  0  0  0  0
  193.4100  173.2560  136.5330 C   0  0  0  0  0  3  0  0  0  0  0  0
  194.4210  174.0500  135.9690 C   0  0  0  0  0  0  0  0  0  0  0  0
  193.0310  176.0140  136.2880 C   0  0  0  0  0  3  0  0  0  0  0  0
  192.2180  173.8400  136.9720 C   0  0  0  0  0  3  0  0  0  0  0  0
  192.0230  175.2250  136.8510 C   0  0  0  0  0  0  0  0  0  0  0  0
  194.2240  175.4290  135.8500 C   0  0  0  0  0  3  0  0  0  0  0  0
  195.6240  173.4990  135.5200 O   0  0  0  0  0  0  0  0  0  0  0  0
  196.2250  172.3670  136.1360 C   0  0  0  0  0  1  0  0  0  0  0  0
  1  6  1  1  0  0  0
  2 12  2  0  0  0  0
  2 11  1  0  0  0  0
  3 16  1  6  0  0  0
  3 10  1  0  0  0  0
  4  8  1  0  0  0  0
  5  1  1  0  0  0  0
  7  4  1  0  0  0  0
  7  9  1  0  0  0  0
  8  1  1  0  0  0  0
  9  5  1  0  0  0  0
 10 11  1  0  0  0  0
 11  7  2  0  0  0  0
 12 15  1  0  0  0  0
 13 35  1  1  0  0  0
 13  2  1  0  0  0  0
 14 13  1  0  0  0  0
 14  3  1  0  0  0  0
 15  4  2  0  0  0  0
 16 17  1  6  0  0  0
 16 18  1  0  0  0  0
 18 19  1  0  0  0  0
 19 21  1  0  0  0  0
 20 19  2  0  0  0  0
 22 21  1  6  0  0  0
 22 24  1  0  0  0  0
 22 32  1  0  0  0  0
 22 23  1  0  0  0  0
 23 25  1  6  0  0  0
 23 26  1  0  0  0  0
 24 23  1  0  0  0  0
 26 30  2  0  0  0  0
 26 31  1  0  0  0  0
 27 29  1  0  0  0  0
 28 29  1  0  0  0  0
 30 28  1  0  0  0  0
 31 27  1  0  0  0  0
 34 32  1  0  0  0  0
 34 33  1  0  0  0  0
 36 39  1  0  0  0  0
 37 36  2  0  0  0  0
 38 40  1  0  0  0  0
 40 39  2  0  0  0  0
 40 35  1  0  0  0  0
 41 37  1  0  0  0  0
 41 38  2  0  0  0  0
 42 37  1  0  0  0  0
 42 43  1  0  0  0  0
M  END
>  <MODEL>
1

>  <REMARK>
 VINA RESULT:      -8.5      0.000      0.000
  Name = 
  10 active torsions:
  status: ('A' for Active; 'I' for Inactive)
    1  A    between atoms: O_1  and  C_34
    2  A    between atoms: O_1  and  C_35
    3  A    between atoms: C_2  and  N_6
    4  A    between atoms: C_2  and  C_13
    5  A    between atoms: C_3  and  C_4
    6  A    between atoms: C_3  and  C_12
    7  A    between atoms: C_4  and  C_15
    8  A    between atoms: C_11  and  C_14
    9  A    between atoms: C_15  and  C_42
   10  A    between atoms: C_19  and  O_25
                            x       y       z     vdW  Elec       q    Type
                         _______ _______ _______ _____ _____    ______ ____

>  <TORSDO>
F 10

$$$$
=
 OpenBabel10272414233D

 43 48  0  0  1  0  0  0  0  0999 V2000
  181.1970  178.7900  141.7390 C   0  0  1  0  0  3  0  0  0  0  0  0
  186.3400  178.6630  142.0600 C   0  0  0  0  0  0  0  0  0  0  0  0
  187.3820  177.9390  139.4830 C   0  0  2  0  0  3  0  0  0  0  0  0
  183.5800  178.7660  142.5510 C   0  0  0  0  0  0  0  0  0  0  0  0
  181.7000  177.9320  140.5840 C   0  0  0  0  0  2  0  0  0  0  0  0
  179.9840  178.2880  142.2070 O   0  0  0  0  0  1  0  0  0  0  0  0
  184.0450  178.5610  141.2370 C   0  0  0  0  0  0  0  0  0  0  0  0
  182.1760  178.7950  142.8210 N   0  0  0  0  0  2  0  0  0  0  0  0
  183.0500  178.4640  140.1060 C   0  0  0  0  0  2  0  0  0  0  0  0
  185.9270  178.4070  139.5650 C   0  0  0  0  0  2  0  0  0  0  0  0
  185.4310  178.5110  140.9850 C   0  0  0  0  0  0  0  0  0  0  0  0
  185.8580  178.8410  143.3590 C   0  0  0  0  0  3  0  0  0  0  0  0
  187.8300  178.5390  141.8670 C   0  0  2  0  0  3  0  0  0  0  0  0
  188.2490  178.7780  140.4140 C   0  0  0  0  0  2  0  0  0  0  0  0
  184.4860  178.8940  143.6040 C   0  0  0  0  0  3  0  0  0  0  0  0
  187.9170  177.9590  138.0500 C   0  0  2  0  0  3  0  0  0  0  0  0
  186.7960  178.0670  137.0200 C   0  0  0  0  0  1  0  0  0  0  0  0
  188.7060  176.7580  137.8080 N   0  0  0  0  0  2  0  0  0  0  0  0
  189.4960  176.5580  136.6350 C   0  0  0  0  0  0  0  0  0  0  0  0
  189.5890  177.4610  135.7610 O   0  0  0  0  0  0  0  0  0  0  0  0
  190.1930  175.2550  136.4310 C   0  0  0  0  0  2  0  0  0  0  0  0
  191.6020  175.2810  137.0260 C   0  0  2  0  0  0  0  0  0  0  0  0
  192.4800  174.1010  136.8030 C   0  0  1  0  0  0  0  0  0  0  0  0
  191.7670  174.2820  138.0070 O   0  0  0  0  0  0  0  0  0  0  0  0
  191.9610  173.0300  136.0730 O   0  0  0  0  0  1  0  0  0  0  0  0
  193.9660  174.1500  137.0130 C   0  0  0  0  0  0  0  0  0  0  0  0
  196.3090  174.7320  136.2330 C   0  0  0  0  0  2  0  0  0  0  0  0
  195.9570  173.7100  138.4620 C   0  0  0  0  0  2  0  0  0  0  0  0
  196.7750  173.6340  137.1790 C   0  0  0  0  0  2  0  0  0  0  0  0
  194.4790  173.7100  138.1760 C   0  0  0  0  0  3  0  0  0  0  0  0
  194.8530  174.4890  135.8360 C   0  0  0  0  0  2  0  0  0  0  0  0
  192.2190  176.6040  137.4770 C   0  0  0  0  0  2  0  0  0  0  0  0
  193.4790  177.2640  139.3990 O   0  0  0  0  0  1  0  0  0  0  0  0
  192.2660  176.7100  138.9930 C   0  0  0  0  0  2  0  0  0  0  0  0
  188.2590  177.2490  142.2950 O   0  0  0  0  0  0  0  0  0  0  0  0
  190.0380  177.3660  145.5570 C   0  0  0  0  0  3  0  0  0  0  0  0
  191.1850  176.6150  145.2550 C   0  0  0  0  0  0  0  0  0  0  0  0
  190.3620  176.3050  142.9930 C   0  0  0  0  0  3  0  0  0  0  0  0
  189.0610  177.5840  144.5820 C   0  0  0  0  0  3  0  0  0  0  0  0
  189.2200  177.0530  143.2920 C   0  0  0  0  0  0  0  0  0  0  0  0
  191.3400  176.0880  143.9690 C   0  0  0  0  0  3  0  0  0  0  0  0
  192.1810  176.3790  146.2060 O   0  0  0  0  0  0  0  0  0  0  0  0
  191.9040  175.8150  147.4820 C   0  0  0  0  0  1  0  0  0  0  0  0
  1  6  1  1  0  0  0
  1  8  1  0  0  0  0
  2 12  1  0  0  0  0
  3 16  1  6  0  0  0
  3 10  1  0  0  0  0
  3 14  1  0  0  0  0
  4  8  1  0  0  0  0
  4 15  1  0  0  0  0
  5  1  1  0  0  0  0
  7  4  2  0  0  0  0
  9  5  1  0  0  0  0
  9  7  1  0  0  0  0
 10 11  1  0  0  0  0
 11  7  1  0  0  0  0
 11  2  2  0  0  0  0
 12 15  2  0  0  0  0
 13  2  1  0  0  0  0
 13 35  1  6  0  0  0
 14 13  1  0  0  0  0
 16 17  1  6  0  0  0
 18 16  1  0  0  0  0
 19 18  1  0  0  0  0
 20 19  2  0  0  0  0
 21 19  1  0  0  0  0
 22 21  1  6  0  0  0
 22 32  1  0  0  0  0
 22 24  1  0  0  0  0
 23 25  1  6  0  0  0
 23 26  1  0  0  0  0
 23 22  1  0  0  0  0
 23 24  1  0  0  0  0
 26 30  2  0  0  0  0
 27 29  1  0  0  0  0
 29 28  1  0  0  0  0
 30 28  1  0  0  0  0
 31 27  1  0  0  0  0
 31 26  1  0  0  0  0
 32 34  1  0  0  0  0
 34 33  1  0  0  0  0
 35 40  1  0  0  0  0
 37 36  1  0  0  0  0
 37 42  1  0  0  0  0
 38 40  2  0  0  0  0
 38 41  1  0  0  0  0
 39 36  2  0  0  0  0
 40 39  1  0  0  0  0
 41 37  2  0  0  0  0
 42 43  1  0  0  0  0
M  END
>  <MODEL>
2

>  <REMARK>
 VINA RESULT:      -8.1      2.143      9.195
  Name = 
  10 active torsions:
  status: ('A' for Active; 'I' for Inactive)
    1  A    between atoms: O_1  and  C_34
    2  A    between atoms: O_1  and  C_35
    3  A    between atoms: C_2  and  N_6
    4  A    between atoms: C_2  and  C_13
    5  A    between atoms: C_3  and  C_4
    6  A    between atoms: C_3  and  C_12
    7  A    between atoms: C_4  and  C_15
    8  A    between atoms: C_11  and  C_14
    9  A    between atoms: C_15  and  C_42
   10  A    between atoms: C_19  and  O_25
                            x       y       z     vdW  Elec       q    Type
                         _______ _______ _______ _____ _____    ______ ____

>  <TORSDO>
F 10

$$$$
=
 OpenBabel10272414233D

 43 48  0  0  1  0  0  0  0  0999 V2000
  188.3290  177.8040  144.8920 C   0  0  1  0  0  3  0  0  0  0  0  0
  190.4510  177.1680  140.2370 C   0  0  0  0  0  0  0  0  0  0  0  0
  188.3510  177.2280  138.2780 C   0  0  2  0  0  3  0  0  0  0  0  0
  189.9020  177.3280  142.9830 C   0  0  0  0  0  0  0  0  0  0  0  0
  187.2270  177.3240  143.9550 C   0  0  0  0  0  2  0  0  0  0  0  0
  188.1280  177.2770  146.1660 O   0  0  0  0  0  1  0  0  0  0  0  0
  188.8610  177.5200  142.0540 C   0  0  0  0  0  0  0  0  0  0  0  0
  189.6320  177.3820  144.3870 N   0  0  0  0  0  2  0  0  0  0  0  0
  187.4790  177.8710  142.5510 C   0  0  0  0  0  2  0  0  0  0  0  0
  188.0430  177.7600  139.6800 C   0  0  0  0  0  2  0  0  0  0  0  0
  189.1320  177.4430  140.6730 C   0  0  0  0  0  0  0  0  0  0  0  0
  191.4640  176.9570  141.1760 C   0  0  0  0  0  3  0  0  0  0  0  0
  190.7880  176.9930  138.7780 C   0  0  2  0  0  3  0  0  0  0  0  0
  189.7540  177.6510  137.8610 C   0  0  0  0  0  2  0  0  0  0  0  0
  191.1930  177.0390  142.5410 C   0  0  0  0  0  3  0  0  0  0  0  0
  187.3050  177.6630  137.2510 C   0  0  2  0  0  3  0  0  0  0  0  0
  187.3740  179.1590  136.9580 C   0  0  0  0  0  1  0  0  0  0  0  0
  185.9760  177.3070  137.7280 N   0  0  0  0  0  2  0  0  0  0  0  0
  184.8380  177.1830  136.8730 C   0  0  0  0  0  0  0  0  0  0  0  0
  184.9530  177.3280  135.6260 O   0  0  0  0  0  0  0  0  0  0  0  0
  183.4980  176.9090  137.4670 C   0  0  0  0  0  2  0  0  0  0  0  0
  183.2020  177.8580  138.6290 C   0  0  2  0  0  0  0  0  0  0  0  0
  182.8000  177.2670  139.9340 C   0  0  1  0  0  0  0  0  0  0  0  0
  181.8510  177.7840  139.0260 O   0  0  0  0  0  0  0  0  0  0  0  0
  182.7030  175.8760  140.0170 O   0  0  0  0  0  1  0  0  0  0  0  0
  182.8370  178.0430  141.2180 C   0  0  0  0  0  0  0  0  0  0  0  0
  184.1030  179.1460  143.1200 C   0  0  0  0  0  2  0  0  0  0  0  0
  181.6280  179.2350  143.0560 C   0  0  0  0  0  2  0  0  0  0  0  0
  182.8350  178.9350  143.9360 C   0  0  0  0  0  2  0  0  0  0  0  0
  181.6810  178.4630  141.7640 C   0  0  0  0  0  3  0  0  0  0  0  0
  184.1480  178.1440  141.9660 C   0  0  0  0  0  2  0  0  0  0  0  0
  183.6820  179.3080  138.5760 C   0  0  0  0  0  2  0  0  0  0  0  0
  182.9250  181.5680  138.7610 O   0  0  0  0  0  1  0  0  0  0  0  0
  182.5180  180.2760  138.4320 C   0  0  0  0  0  2  0  0  0  0  0  0
  190.8950  175.6040  138.4780 O   0  0  0  0  0  0  0  0  0  0  0  0
  192.9040  173.3370  136.3210 C   0  0  0  0  0  3  0  0  0  0  0  0
  194.1350  174.0110  136.3120 C   0  0  0  0  0  0  0  0  0  0  0  0
  193.1860  175.7260  137.7430 C   0  0  0  0  0  3  0  0  0  0  0  0
  191.8220  173.8560  137.0380 C   0  0  0  0  0  3  0  0  0  0  0  0
  191.9590  175.0560  137.7540 C   0  0  0  0  0  0  0  0  0  0  0  0
  194.2690  175.2060  137.0260 C   0  0  0  0  0  3  0  0  0  0  0  0
  195.2360  173.5200  135.6060 O   0  0  0  0  0  0  0  0  0  0  0  0
  195.1270  172.4800  134.6420 C   0  0  0  0  0  1  0  0  0  0  0  0
  1  6  1  1  0  0  0
  2 11  2  0  0  0  0
  2 12  1  0  0  0  0
  3 16  1  6  0  0  0
  3 10  1  0  0  0  0
  4  8  1  0  0  0  0
  5  1  1  0  0  0  0
  7  9  1  0  0  0  0
  7  4  2  0  0  0  0
  8  1  1  0  0  0  0
  9  5  1  0  0  0  0
 10 11  1  0  0  0  0
 11  7  1  0  0  0  0
 12 15  2  0  0  0  0
 13 35  1  6  0  0  0
 13  2  1  0  0  0  0
 14  3  1  0  0  0  0
 14 13  1  0  0  0  0
 15  4  1  0  0  0  0
 16 17  1  1  0  0  0
 16 18  1  0  0  0  0
 19 21  1  0  0  0  0
 19 18  1  0  0  0  0
 20 19  2  0  0  0  0
 22 21  1  6  0  0  0
 22 24  1  0  0  0  0
 22 23  1  0  0  0  0
 23 25  1  1  0  0  0
 23 26  1  0  0  0  0
 24 23  1  0  0  0  0
 26 30  2  0  0  0  0
 26 31  1  0  0  0  0
 27 29  1  0  0  0  0
 28 29  1  0  0  0  0
 30 28  1  0  0  0  0
 31 27  1  0  0  0  0
 32 22  1  0  0  0  0
 34 32  1  0  0  0  0
 34 33  1  0  0  0  0
 36 39  1  0  0  0  0
 37 36  2  0  0  0  0
 37 41  1  0  0  0  0
 38 40  1  0  0  0  0
 39 40  2  0  0  0  0
 40 35  1  0  0  0  0
 41 38  2  0  0  0  0
 42 37  1  0  0  0  0
 43 42  1  0  0  0  0
M  END
>  <MODEL>
3

>  <REMARK>
 VINA RESULT:      -8.0      1.643      2.428
  Name = 
  10 active torsions:
  status: ('A' for Active; 'I' for Inactive)
    1  A    between atoms: O_1  and  C_34
    2  A    between atoms: O_1  and  C_35
    3  A    between atoms: C_2  and  N_6
    4  A    between atoms: C_2  and  C_13
    5  A    between atoms: C_3  and  C_4
    6  A    between atoms: C_3  and  C_12
    7  A    between atoms: C_4  and  C_15
    8  A    between atoms: C_11  and  C_14
    9  A    between atoms: C_15  and  C_42
   10  A    between atoms: C_19  and  O_25
                            x       y       z     vdW  Elec       q    Type
                         _______ _______ _______ _____ _____    ______ ____

>  <TORSDO>
F 10

$$$$
=
 OpenBabel10272414233D

 43 48  0  0  1  0  0  0  0  0999 V2000
  195.1250  174.5750  137.3660 C   0  0  1  0  0  3  0  0  0  0  0  0
  190.1150  174.0650  136.2630 C   0  0  0  0  0  0  0  0  0  0  0  0
  188.6620  176.0400  137.7590 C   0  0  2  0  0  3  0  0  0  0  0  0
  192.8890  173.7560  136.5480 C   0  0  0  0  0  0  0  0  0  0  0  0
  194.3440  175.2280  138.5010 C   0  0  0  0  0  2  0  0  0  0  0  0
  196.2780  173.9760  137.8700 O   0  0  0  0  0  1  0  0  0  0  0  0
  192.2420  174.8360  137.1790 C   0  0  0  0  0  0  0  0  0  0  0  0
  194.2990  173.5700  136.7050 N   0  0  0  0  0  2  0  0  0  0  0  0
  193.0610  175.8460  137.9460 C   0  0  0  0  0  2  0  0  0  0  0  0
  190.1760  176.2150  137.6180 C   0  0  0  0  0  2  0  0  0  0  0  0
  190.8490  174.9970  137.0370 C   0  0  0  0  0  0  0  0  0  0  0  0
  190.7740  172.9870  135.6660 C   0  0  0  0  0  3  0  0  0  0  0  0
  188.6150  174.1370  136.1400 C   0  0  2  0  0  3  0  0  0  0  0  0
  188.0740  175.5350  136.4470 C   0  0  0  0  0  2  0  0  0  0  0  0
  192.1520  172.8330  135.8050 C   0  0  0  0  0  3  0  0  0  0  0  0
  187.9720  177.3220  138.2270 C   0  0  2  0  0  3  0  0  0  0  0  0
  187.9480  178.3920  137.1400 C   0  0  0  0  0  1  0  0  0  0  0  0
  188.6430  177.8300  139.4160 N   0  0  0  0  0  2  0  0  0  0  0  0
  187.9550  178.4390  140.5100 C   0  0  0  0  0  0  0  0  0  0  0  0
  186.6970  178.5150  140.5150 O   0  0  0  0  0  0  0  0  0  0  0  0
  188.7370  179.0180  141.6400 C   0  0  0  0  0  2  0  0  0  0  0  0
  189.0630  177.9540  142.6900 C   0  0  2  0  0  0  0  0  0  0  0  0
  190.2600  178.1580  143.5490 C   0  0  1  0  0  0  0  0  0  0  0  0
  190.2910  177.3170  142.4160 O   0  0  0  0  0  0  0  0  0  0  0  0
  191.0270  179.3070  143.3370 O   0  0  0  0  0  1  0  0  0  0  0  0
  190.4780  177.3980  144.8240 C   0  0  0  0  0  0  0  0  0  0  0  0
  189.7990  176.7630  147.1850 C   0  0  0  0  0  2  0  0  0  0  0  0
  191.8240  175.7680  146.1630 C   0  0  0  0  0  2  0  0  0  0  0  0
  191.2730  176.4560  147.4060 C   0  0  0  0  0  2  0  0  0  0  0  0
  191.5250  176.5580  144.9160 C   0  0  0  0  0  3  0  0  0  0  0  0
  189.6440  177.7570  146.0340 C   0  0  0  0  0  2  0  0  0  0  0  0
  187.9990  176.9410  143.1110 C   0  0  0  0  0  2  0  0  0  0  0  0
  186.4950  177.0340  144.9670 O   0  0  0  0  0  1  0  0  0  0  0  0
  186.7950  177.6240  143.7390 C   0  0  0  0  0  2  0  0  0  0  0  0
  188.0200  173.1800  137.0110 O   0  0  0  0  0  0  0  0  0  0  0  0
  184.3960  172.4650  137.4390 C   0  0  0  0  0  3  0  0  0  0  0  0
  184.1770  171.5840  136.3690 C   0  0  0  0  0  0  0  0  0  0  0  0
  186.5150  171.7830  135.7510 C   0  0  0  0  0  3  0  0  0  0  0  0
  185.6680  173.0000  137.6630 C   0  0  0  0  0  3  0  0  0  0  0  0
  186.7360  172.6590  136.8170 C   0  0  0  0  0  0  0  0  0  0  0  0
  185.2430  171.2470  135.5280 C   0  0  0  0  0  3  0  0  0  0  0  0
  182.9180  171.0320  136.1170 O   0  0  0  0  0  0  0  0  0  0  0  0
  182.7460  169.7910  135.4460 C   0  0  0  0  0  1  0  0  0  0  0  0
  1  6  1  1  0  0  0
  1  5  1  0  0  0  0
  2 11  1  0  0  0  0
  3 16  1  6  0  0  0
  4  8  1  0  0  0  0
  4  7  1  0  0  0  0
  7  9  1  0  0  0  0
  8  1  1  0  0  0  0
  9  5  1  0  0  0  0
 10  3  1  0  0  0  0
 11  7  2  0  0  0  0
 11 10  1  0  0  0  0
 12 15  1  0  0  0  0
 12  2  2  0  0  0  0
 13  2  1  0  0  0  0
 13 14  1  0  0  0  0
 13 35  1  1  0  0  0
 14  3  1  0  0  0  0
 15  4  2  0  0  0  0
 16 17  1  6  0  0  0
 16 18  1  0  0  0  0
 18 19  1  0  0  0  0
 19 20  2  0  0  0  0
 19 21  1  0  0  0  0
 22 21  1  6  0  0  0
 22 32  1  0  0  0  0
 22 23  1  0  0  0  0
 23 25  1  6  0  0  0
 23 26  1  0  0  0  0
 24 22  1  0  0  0  0
 24 23  1  0  0  0  0
 26 30  2  0  0  0  0
 26 31  1  0  0  0  0
 27 29  1  0  0  0  0
 28 29  1  0  0  0  0
 30 28  1  0  0  0  0
 31 27  1  0  0  0  0
 32 34  1  0  0  0  0
 34 33  1  0  0  0  0
 36 39  1  0  0  0  0
 37 36  2  0  0  0  0
 38 40  1  0  0  0  0
 40 35  1  0  0  0  0
 40 39  2  0  0  0  0
 41 38  2  0  0  0  0
 41 37  1  0  0  0  0
 42 37  1  0  0  0  0
 43 42  1  0  0  0  0
M  END
>  <MODEL>
4

>  <REMARK>
 VINA RESULT:      -8.0      3.666      6.671
  Name = 
  10 active torsions:
  status: ('A' for Active; 'I' for Inactive)
    1  A    between atoms: O_1  and  C_34
    2  A    between atoms: O_1  and  C_35
    3  A    between atoms: C_2  and  N_6
    4  A    between atoms: C_2  and  C_13
    5  A    between atoms: C_3  and  C_4
    6  A    between atoms: C_3  and  C_12
    7  A    between atoms: C_4  and  C_15
    8  A    between atoms: C_11  and  C_14
    9  A    between atoms: C_15  and  C_42
   10  A    between atoms: C_19  and  O_25
                            x       y       z     vdW  Elec       q    Type
                         _______ _______ _______ _____ _____    ______ ____

>  <TORSDO>
F 10

$$$$
=
 OpenBabel10272414233D

 43 48  0  0  1  0  0  0  0  0999 V2000
  188.0320  178.0560  144.5350 C   0  0  1  0  0  3  0  0  0  0  0  0
  190.4580  177.1830  140.0710 C   0  0  0  0  0  0  0  0  0  0  0  0
  188.4760  176.6600  138.0600 C   0  0  2  0  0  3  0  0  0  0  0  0
  189.7530  177.6000  142.7540 C   0  0  0  0  0  0  0  0  0  0  0  0
  187.0650  177.2930  143.6370 C   0  0  0  0  0  2  0  0  0  0  0  0
  187.8510  177.6700  145.8610 O   0  0  0  0  0  1  0  0  0  0  0  0
  188.7430  177.5040  141.7770 C   0  0  0  0  0  0  0  0  0  0  0  0
  189.4080  177.7870  144.1300 N   0  0  0  0  0  2  0  0  0  0  0  0
  187.3000  177.6910  142.1810 C   0  0  0  0  0  2  0  0  0  0  0  0
  188.0190  177.3080  139.3680 C   0  0  0  0  0  2  0  0  0  0  0  0
  189.0920  177.2970  140.4270 C   0  0  0  0  0  0  0  0  0  0  0  0
  191.4430  177.2570  141.0600 C   0  0  0  0  0  3  0  0  0  0  0  0
  190.8910  176.8810  138.6590 C   0  0  2  0  0  3  0  0  0  0  0  0
  189.8160  177.2440  137.6320 C   0  0  0  0  0  2  0  0  0  0  0  0
  191.0940  177.4660  142.3930 C   0  0  0  0  0  3  0  0  0  0  0  0
  187.4280  176.7900  136.9530 C   0  0  2  0  0  3  0  0  0  0  0  0
  187.9920  177.4600  135.7030 C   0  0  0  0  0  1  0  0  0  0  0  0
  186.2830  177.5400  137.4510 N   0  0  0  0  0  2  0  0  0  0  0  0
  184.9310  177.1040  137.3050 C   0  0  0  0  0  0  0  0  0  0  0  0
  184.6680  175.9930  136.7720 O   0  0  0  0  0  0  0  0  0  0  0  0
  183.8200  177.9880  137.7620 C   0  0  0  0  0  2  0  0  0  0  0  0
  183.5550  177.8160  139.2580 C   0  0  2  0  0  0  0  0  0  0  0  0
  183.4920  179.0370  140.1050 C   0  0  1  0  0  0  0  0  0  0  0  0
  184.6550  178.2420  140.0300 O   0  0  0  0  0  0  0  0  0  0  0  0
  183.6930  180.2730  139.4840 O   0  0  0  0  0  1  0  0  0  0  0  0
  182.8940  179.0360  141.4810 C   0  0  0  0  0  0  0  0  0  0  0  0
  183.1150  178.9760  144.0080 C   0  0  0  0  0  2  0  0  0  0  0  0
  180.8760  179.1180  142.9580 C   0  0  0  0  0  2  0  0  0  0  0  0
  181.7100  178.3900  144.0050 C   0  0  0  0  0  2  0  0  0  0  0  0
  181.5580  179.1260  141.6160 C   0  0  0  0  0  3  0  0  0  0  0  0
  183.7870  178.7170  142.6600 C   0  0  0  0  0  2  0  0  0  0  0  0
  182.9840  176.5020  139.7900 C   0  0  0  0  0  2  0  0  0  0  0  0
  180.7540  175.6430  139.8640 O   0  0  0  0  0  1  0  0  0  0  0  0
  181.7630  176.0620  138.9980 C   0  0  0  0  0  2  0  0  0  0  0  0
  191.2260  175.5000  138.5500 O   0  0  0  0  0  0  0  0  0  0  0  0
  193.1840  173.4100  136.1780 C   0  0  0  0  0  3  0  0  0  0  0  0
  194.3910  174.1260  136.1370 C   0  0  0  0  0  0  0  0  0  0  0  0
  193.4680  175.7370  137.7000 C   0  0  0  0  0  3  0  0  0  0  0  0
  192.1270  173.8570  136.9770 C   0  0  0  0  0  3  0  0  0  0  0  0
  192.2650  175.0250  137.7430 C   0  0  0  0  0  0  0  0  0  0  0  0
  194.5250  175.2890  136.9010 C   0  0  0  0  0  3  0  0  0  0  0  0
  195.4670  173.7080  135.3490 O   0  0  0  0  0  0  0  0  0  0  0  0
  195.5060  172.4340  134.7190 C   0  0  0  0  0  1  0  0  0  0  0  0
  1  6  1  1  0  0  0
  2 11  2  0  0  0  0
  2 12  1  0  0  0  0
  3 16  1  6  0  0  0
  3 10  1  0  0  0  0
  4  8  1  0  0  0  0
  5  1  1  0  0  0  0
  7  9  1  0  0  0  0
  7  4  2  0  0  0  0
  8  1  1  0  0  0  0
  9  5  1  0  0  0  0
 10 11  1  0  0  0  0
 11  7  1  0  0  0  0
 12 15  2  0  0  0  0
 13 35  1  1  0  0  0
 13  2  1  0  0  0  0
 14  3  1  0  0  0  0
 14 13  1  0  0  0  0
 15  4  1  0  0  0  0
 16 17  1  6  0  0  0
 16 18  1  0  0  0  0
 19 18  1  0  0  0  0
 19 21  1  0  0  0  0
 20 19  2  0  0  0  0
 22 21  1  6  0  0  0
 22 32  1  0  0  0  0
 22 24  1  0  0  0  0
 22 23  1  0  0  0  0
 23 25  1  6  0  0  0
 23 26  1  0  0  0  0
 24 23  1  0  0  0  0
 26 30  2  0  0  0  0
 26 31  1  0  0  0  0
 28 29  1  0  0  0  0
 29 27  1  0  0  0  0
 30 28  1  0  0  0  0
 31 27  1  0  0  0  0
 34 32  1  0  0  0  0
 34 33  1  0  0  0  0
 36 39  1  0  0  0  0
 37 36  2  0  0  0  0
 37 41  1  0  0  0  0
 38 40  1  0  0  0  0
 39 40  2  0  0  0  0
 40 35  1  0  0  0  0
 41 38  2  0  0  0  0
 42 37  1  0  0  0  0
 43 42  1  0  0  0  0
M  END
>  <MODEL>
5

>  <REMARK>
 VINA RESULT:      -7.9      1.645      2.231
  Name = 
  10 active torsions:
  status: ('A' for Active; 'I' for Inactive)
    1  A    between atoms: O_1  and  C_34
    2  A    between atoms: O_1  and  C_35
    3  A    between atoms: C_2  and  N_6
    4  A    between atoms: C_2  and  C_13
    5  A    between atoms: C_3  and  C_4
    6  A    between atoms: C_3  and  C_12
    7  A    between atoms: C_4  and  C_15
    8  A    between atoms: C_11  and  C_14
    9  A    between atoms: C_15  and  C_42
   10  A    between atoms: C_19  and  O_25
                            x       y       z     vdW  Elec       q    Type
                         _______ _______ _______ _____ _____    ______ ____

>  <TORSDO>
F 10

$$$$
=
 OpenBabel10272414233D

 43 48  0  0  1  0  0  0  0  0999 V2000
  190.8160  176.9310  137.4540 C   0  0  1  0  0  3  0  0  0  0  0  0
  185.7430  176.4060  136.7010 C   0  0  0  0  0  0  0  0  0  0  0  0
  184.3750  177.8590  138.7660 C   0  0  2  0  0  3  0  0  0  0  0  0
  188.5410  176.2050  136.6550 C   0  0  0  0  0  0  0  0  0  0  0  0
  190.1290  177.2360  138.7800 C   0  0  0  0  0  2  0  0  0  0  0  0
  192.0340  176.2970  137.6880 O   0  0  0  0  0  1  0  0  0  0  0  0
  187.9200  177.0550  137.5910 C   0  0  0  0  0  0  0  0  0  0  0  0
  189.9650  176.0720  136.6360 N   0  0  0  0  0  2  0  0  0  0  0  0
  188.7750  177.8920  138.5130 C   0  0  0  0  0  2  0  0  0  0  0  0
  185.8590  178.1550  138.5410 C   0  0  0  0  0  2  0  0  0  0  0  0
  186.5160  177.1610  137.6170 C   0  0  0  0  0  0  0  0  0  0  0  0
  186.3780  175.5500  135.7960 C   0  0  0  0  0  3  0  0  0  0  0  0
  184.2360  176.4160  136.7320 C   0  0  2  0  0  3  0  0  0  0  0  0
  183.6770  177.6590  137.4260 C   0  0  0  0  0  2  0  0  0  0  0  0
  187.7680  175.4510  135.7710 C   0  0  0  0  0  3  0  0  0  0  0  0
  183.6880  178.9420  139.6000 C   0  0  2  0  0  3  0  0  0  0  0  0
  183.3010  180.1550  138.7600 C   0  0  0  0  0  1  0  0  0  0  0  0
  184.5650  179.3460  140.6900 N   0  0  0  0  0  2  0  0  0  0  0  0
  184.4170  178.8840  142.0340 C   0  0  0  0  0  0  0  0  0  0  0  0
  183.5280  178.0400  142.3290 O   0  0  0  0  0  0  0  0  0  0  0  0
  185.3040  179.4300  143.1020 C   0  0  0  0  0  2  0  0  0  0  0  0
  186.2960  178.3740  143.5900 C   0  0  2  0  0  0  0  0  0  0  0  0
  187.5540  178.1820  142.8190 C   0  0  1  0  0  0  0  0  0  0  0  0
  186.4420  177.3290  142.6550 O   0  0  0  0  0  0  0  0  0  0  0  0
  187.7490  178.9710  141.6820 O   0  0  0  0  0  1  0  0  0  0  0  0
  188.7430  177.4590  143.3800 C   0  0  0  0  0  0  0  0  0  0  0  0
  190.5390  177.1590  145.1470 C   0  0  0  0  0  2  0  0  0  0  0  0
  190.4080  175.5980  143.2280 C   0  0  0  0  0  2  0  0  0  0  0  0
  191.3440  176.4740  144.0520 C   0  0  0  0  0  2  0  0  0  0  0  0
  189.2130  176.3730  142.7410 C   0  0  0  0  0  3  0  0  0  0  0  0
  189.5050  178.0950  144.5220 C   0  0  0  0  0  2  0  0  0  0  0  0
  186.1970  177.8280  145.0140 C   0  0  0  0  0  2  0  0  0  0  0  0
  184.8090  178.3930  146.8780 O   0  0  0  0  0  1  0  0  0  0  0  0
  185.7600  178.9050  145.9950 C   0  0  0  0  0  2  0  0  0  0  0  0
  183.7670  175.2380  137.3840 O   0  0  0  0  0  0  0  0  0  0  0  0
  182.5510  172.7750  134.8780 C   0  0  0  0  0  3  0  0  0  0  0  0
  183.0740  171.5860  135.4070 C   0  0  0  0  0  0  0  0  0  0  0  0
  184.0450  172.8490  137.2380 C   0  0  0  0  0  3  0  0  0  0  0  0
  182.7740  173.9940  135.5260 C   0  0  0  0  0  3  0  0  0  0  0  0
  183.5230  174.0360  136.7120 C   0  0  0  0  0  0  0  0  0  0  0  0
  183.8210  171.6310  136.5890 C   0  0  0  0  0  3  0  0  0  0  0  0
  182.8710  170.3520  134.7840 O   0  0  0  0  0  0  0  0  0  0  0  0
  183.7060  169.2260  135.0220 C   0  0  0  0  0  1  0  0  0  0  0  0
  1  6  1  1  0  0  0
  1  5  1  0  0  0  0
  2 13  1  0  0  0  0
  2 11  1  0  0  0  0
  3 16  1  6  0  0  0
  4  7  1  0  0  0  0
  7 11  2  0  0  0  0
  7  9  1  0  0  0  0
  8  4  1  0  0  0  0
  8  1  1  0  0  0  0
  9  5  1  0  0  0  0
 10  3  1  0  0  0  0
 11 10  1  0  0  0  0
 12  2  2  0  0  0  0
 13 35  1  1  0  0  0
 13 14  1  0  0  0  0
 14  3  1  0  0  0  0
 15 12  1  0  0  0  0
 15  4  2  0  0  0  0
 16 17  1  6  0  0  0
 16 18  1  0  0  0  0
 18 19  1  0  0  0  0
 19 20  2  0  0  0  0
 19 21  1  0  0  0  0
 22 21  1  6  0  0  0
 22 32  1  0  0  0  0
 23 25  1  6  0  0  0
 23 26  1  0  0  0  0
 23 22  1  0  0  0  0
 24 23  1  0  0  0  0
 24 22  1  0  0  0  0
 26 31  1  0  0  0  0
 28 29  1  0  0  0  0
 29 27  1  0  0  0  0
 30 28  1  0  0  0  0
 30 26  2  0  0  0  0
 31 27  1  0  0  0  0
 32 34  1  0  0  0  0
 34 33  1  0  0  0  0
 36 37  2  0  0  0  0
 36 39  1  0  0  0  0
 37 41  1  0  0  0  0
 39 40  2  0  0  0  0
 40 38  1  0  0  0  0
 40 35  1  0  0  0  0
 41 38  2  0  0  0  0
 42 43  1  0  0  0  0
 42 37  1  0  0  0  0
M  END
>  <MODEL>
6

>  <REMARK>
 VINA RESULT:      -7.8      3.534      6.791
  Name = 
  10 active torsions:
  status: ('A' for Active; 'I' for Inactive)
    1  A    between atoms: O_1  and  C_34
    2  A    between atoms: O_1  and  C_35
    3  A    between atoms: C_2  and  N_6
    4  A    between atoms: C_2  and  C_13
    5  A    between atoms: C_3  and  C_4
    6  A    between atoms: C_3  and  C_12
    7  A    between atoms: C_4  and  C_15
    8  A    between atoms: C_11  and  C_14
    9  A    between atoms: C_15  and  C_42
   10  A    between atoms: C_19  and  O_25
                            x       y       z     vdW  Elec       q    Type
                         _______ _______ _______ _____ _____    ______ ____

>  <TORSDO>
F 10

$$$$
=
 OpenBabel10272414233D

 43 48  0  0  1  0  0  0  0  0999 V2000
  181.5630  178.6720  140.3540 C   0  0  1  0  0  3  0  0  0  0  0  0
  186.6490  178.6310  141.1930 C   0  0  0  0  0  0  0  0  0  0  0  0
  187.9450  177.7130  138.8000 C   0  0  2  0  0  3  0  0  0  0  0  0
  183.8530  178.7410  141.3980 C   0  0  0  0  0  0  0  0  0  0  0  0
  182.1820  177.7290  139.3290 C   0  0  0  0  0  2  0  0  0  0  0  0
  180.3110  178.1950  140.7380 O   0  0  0  0  0  1  0  0  0  0  0  0
  184.4480  178.4360  140.1580 C   0  0  0  0  0  0  0  0  0  0  0  0
  182.4290  178.7760  141.5240 N   0  0  0  0  0  2  0  0  0  0  0  0
  183.5710  178.2360  138.9450 C   0  0  0  0  0  2  0  0  0  0  0  0
  186.4880  178.1680  138.6990 C   0  0  0  0  0  2  0  0  0  0  0  0
  185.8520  178.3820  140.0490 C   0  0  0  0  0  0  0  0  0  0  0  0
  186.0380  178.9090  142.4190 C   0  0  0  0  0  3  0  0  0  0  0  0
  188.1510  178.5100  141.1590 C   0  0  2  0  0  3  0  0  0  0  0  0
  188.7120  178.6340  139.7410 C   0  0  0  0  0  2  0  0  0  0  0  0
  184.6490  178.9650  142.5210 C   0  0  0  0  0  3  0  0  0  0  0  0
  188.6200  177.6220  137.4310 C   0  0  2  0  0  3  0  0  0  0  0  0
  188.1690  176.3930  136.6480 C   0  0  0  0  0  1  0  0  0  0  0  0
  190.0670  177.6050  137.6010 N   0  0  0  0  0  2  0  0  0  0  0  0
  190.7810  176.5040  138.1660 C   0  0  0  0  0  0  0  0  0  0  0  0
  190.1770  175.4490  138.4990 O   0  0  0  0  0  0  0  0  0  0  0  0
  192.2510  176.6180  138.3900 C   0  0  0  0  0  2  0  0  0  0  0  0
  193.0240  175.6430  137.5010 C   0  0  2  0  0  0  0  0  0  0  0  0
  194.3440  175.1510  137.9790 C   0  0  1  0  0  0  0  0  0  0  0  0
  194.2360  176.2060  137.0480 O   0  0  0  0  0  0  0  0  0  0  0  0
  194.8080  175.6200  139.2110 O   0  0  0  0  0  1  0  0  0  0  0  0
  195.0180  173.9460  137.3910 C   0  0  0  0  0  0  0  0  0  0  0  0
  195.6800  171.4980  137.4790 C   0  0  0  0  0  2  0  0  0  0  0  0
  196.3190  172.8900  135.5330 C   0  0  0  0  0  2  0  0  0  0  0  0
  196.8300  171.8920  136.5650 C   0  0  0  0  0  2  0  0  0  0  0  0
  195.6100  174.0470  136.1870 C   0  0  0  0  0  3  0  0  0  0  0  0
  195.1970  172.7200  138.2600 C   0  0  0  0  0  2  0  0  0  0  0  0
  192.3080  174.9000  136.3740 C   0  0  0  0  0  2  0  0  0  0  0  0
  191.2490  176.2440  134.7040 O   0  0  0  0  0  1  0  0  0  0  0  0
  192.4520  175.6270  135.0460 C   0  0  0  0  0  2  0  0  0  0  0  0
  188.5400  177.2640  141.7320 O   0  0  0  0  0  0  0  0  0  0  0  0
  191.6210  176.8600  143.7740 C   0  0  0  0  0  3  0  0  0  0  0  0
  191.0900  176.9670  145.0690 C   0  0  0  0  0  0  0  0  0  0  0  0
  188.8780  177.2670  144.1170 C   0  0  0  0  0  3  0  0  0  0  0  0
  190.7830  176.9560  142.6590 C   0  0  0  0  0  3  0  0  0  0  0  0
  189.4040  177.1600  142.8260 C   0  0  0  0  0  0  0  0  0  0  0  0
  189.7170  177.1700  145.2320 C   0  0  0  0  0  3  0  0  0  0  0  0
  191.8990  176.8750  146.2040 O   0  0  0  0  0  0  0  0  0  0  0  0
  191.4040  176.4460  147.4660 C   0  0  0  0  0  1  0  0  0  0  0  0
  1  6  1  1  0  0  0
  1  8  1  0  0  0  0
  2 12  1  0  0  0  0
  3 16  1  6  0  0  0
  3 14  1  0  0  0  0
  4  8  1  0  0  0  0
  4 15  1  0  0  0  0
  5  1  1  0  0  0  0
  7  4  2  0  0  0  0
  9  5  1  0  0  0  0
  9  7  1  0  0  0  0
 10  3  1  0  0  0  0
 10 11  1  0  0  0  0
 11  7  1  0  0  0  0
 11  2  2  0  0  0  0
 12 15  2  0  0  0  0
 13  2  1  0  0  0  0
 13 35  1  6  0  0  0
 14 13  1  0  0  0  0
 16 17  1  1  0  0  0
 16 18  1  0  0  0  0
 18 19  1  0  0  0  0
 19 21  1  0  0  0  0
 19 20  2  0  0  0  0
 22 32  1  6  0  0  0
 22 23  1  0  0  0  0
 22 21  1  0  0  0  0
 23 25  1  1  0  0  0
 24 22  1  0  0  0  0
 24 23  1  0  0  0  0
 26 23  1  0  0  0  0
 26 31  1  0  0  0  0
 27 31  1  0  0  0  0
 28 30  1  0  0  0  0
 28 29  1  0  0  0  0
 29 27  1  0  0  0  0
 30 26  2  0  0  0  0
 33 34  1  0  0  0  0
 34 32  1  0  0  0  0
 35 40  1  0  0  0  0
 36 37  1  0  0  0  0
 37 41  2  0  0  0  0
 37 42  1  0  0  0  0
 38 41  1  0  0  0  0
 39 40  1  0  0  0  0
 39 36  2  0  0  0  0
 40 38  2  0  0  0  0
 42 43  1  0  0  0  0
M  END
>  <MODEL>
7

>  <REMARK>
 VINA RESULT:      -7.7      2.196      9.506
  Name = 
  10 active torsions:
  status: ('A' for Active; 'I' for Inactive)
    1  A    between atoms: O_1  and  C_34
    2  A    between atoms: O_1  and  C_35
    3  A    between atoms: C_2  and  N_6
    4  A    between atoms: C_2  and  C_13
    5  A    between atoms: C_3  and  C_4
    6  A    between atoms: C_3  and  C_12
    7  A    between atoms: C_4  and  C_15
    8  A    between atoms: C_11  and  C_14
    9  A    between atoms: C_15  and  C_42
   10  A    between atoms: C_19  and  O_25
                            x       y       z     vdW  Elec       q    Type
                         _______ _______ _______ _____ _____    ______ ____

>  <TORSDO>
F 10

$$$$
=
 OpenBabel10272414233D

 43 48  0  0  1  0  0  0  0  0999 V2000
  181.3070  178.8940  142.6890 C   0  0  1  0  0  3  0  0  0  0  0  0
  186.4270  178.6690  143.2400 C   0  0  0  0  0  0  0  0  0  0  0  0
  187.5600  177.7840  140.7540 C   0  0  2  0  0  3  0  0  0  0  0  0
  183.6520  178.8600  143.6050 C   0  0  0  0  0  0  0  0  0  0  0  0
  181.8370  177.9630  141.6040 C   0  0  0  0  0  2  0  0  0  0  0  0
  180.0630  178.4450  143.1290 O   0  0  0  0  0  1  0  0  0  0  0  0
  184.1670  178.5740  142.3250 C   0  0  0  0  0  0  0  0  0  0  0  0
  182.2380  178.9350  143.8110 N   0  0  0  0  0  2  0  0  0  0  0  0
  183.2190  178.4380  141.1580 C   0  0  0  0  0  2  0  0  0  0  0  0
  186.1140  178.2870  140.7470 C   0  0  0  0  0  2  0  0  0  0  0  0
  185.5610  178.4800  142.1360 C   0  0  0  0  0  0  0  0  0  0  0  0
  185.8940  178.9280  144.5060 C   0  0  0  0  0  3  0  0  0  0  0  0
  187.9200  178.5030  143.1200 C   0  0  2  0  0  3  0  0  0  0  0  0
  188.4060  178.6520  141.6760 C   0  0  0  0  0  2  0  0  0  0  0  0
  184.5160  179.0250  144.6880 C   0  0  0  0  0  3  0  0  0  0  0  0
  188.1550  177.7130  139.3470 C   0  0  2  0  0  3  0  0  0  0  0  0
  189.2110  178.7900  139.1150 C   0  0  0  0  0  1  0  0  0  0  0  0
  187.0890  177.8350  138.3610 N   0  0  0  0  0  2  0  0  0  0  0  0
  187.0030  177.0220  137.1890 C   0  0  0  0  0  0  0  0  0  0  0  0
  187.8400  176.1030  136.9820 O   0  0  0  0  0  0  0  0  0  0  0  0
  185.9300  177.2870  136.1880 C   0  0  0  0  0  2  0  0  0  0  0  0
  184.7630  176.3130  136.3560 C   0  0  2  0  0  0  0  0  0  0  0  0
  184.7350  175.0950  135.5020 C   0  0  1  0  0  0  0  0  0  0  0  0
  183.9760  176.2420  135.1880 O   0  0  0  0  0  0  0  0  0  0  0  0
  185.7740  174.9180  134.5840 O   0  0  0  0  0  1  0  0  0  0  0  0
  183.8680  173.9100  135.8130 C   0  0  0  0  0  0  0  0  0  0  0  0
  181.7100  172.6010  135.5620 C   0  0  0  0  0  2  0  0  0  0  0  0
  183.5380  171.7240  136.9850 C   0  0  0  0  0  2  0  0  0  0  0  0
  182.0420  172.0080  136.9240 C   0  0  0  0  0  2  0  0  0  0  0  0
  184.3460  172.9390  136.6120 C   0  0  0  0  0  3  0  0  0  0  0  0
  182.4140  173.9470  135.3970 C   0  0  0  0  0  2  0  0  0  0  0  0
  183.8870  176.3740  137.6070 C   0  0  0  0  0  2  0  0  0  0  0  0
  183.4890  178.6940  138.0240 O   0  0  0  0  0  1  0  0  0  0  0  0
  182.8990  177.5270  137.5400 C   0  0  0  0  0  2  0  0  0  0  0  0
  188.2990  177.2280  143.6340 O   0  0  0  0  0  0  0  0  0  0  0  0
  191.5080  176.7500  145.4500 C   0  0  0  0  0  3  0  0  0  0  0  0
  191.0560  176.7430  146.7790 C   0  0  0  0  0  0  0  0  0  0  0  0
  188.7840  177.0570  145.9880 C   0  0  0  0  0  3  0  0  0  0  0  0
  190.6010  176.9090  144.3980 C   0  0  0  0  0  3  0  0  0  0  0  0
  189.2310  177.0640  144.6640 C   0  0  0  0  0  0  0  0  0  0  0  0
  189.6910  176.8970  147.0400 C   0  0  0  0  0  3  0  0  0  0  0  0
  191.9360  176.5860  147.8530 O   0  0  0  0  0  0  0  0  0  0  0  0
  192.7430  175.4280  148.0210 C   0  0  0  0  0  1  0  0  0  0  0  0
  1  6  1  1  0  0  0
  1  8  1  0  0  0  0
  2 12  1  0  0  0  0
  3 16  1  6  0  0  0
  3 14  1  0  0  0  0
  4  8  1  0  0  0  0
  4 15  1  0  0  0  0
  5  1  1  0  0  0  0
  7  4  2  0  0  0  0
  9  5  1  0  0  0  0
  9  7  1  0  0  0  0
 10  3  1  0  0  0  0
 10 11  1  0  0  0  0
 11  7  1  0  0  0  0
 11  2  2  0  0  0  0
 12 15  2  0  0  0  0
 13  2  1  0  0  0  0
 13 35  1  6  0  0  0
 14 13  1  0  0  0  0
 16 17  1  6  0  0  0
 18 16  1  0  0  0  0
 19 18  1  0  0  0  0
 20 19  2  0  0  0  0
 21 19  1  0  0  0  0
 22 21  1  6  0  0  0
 22 32  1  0  0  0  0
 23 25  1  6  0  0  0
 23 26  1  0  0  0  0
 23 22  1  0  0  0  0
 24 23  1  0  0  0  0
 24 22  1  0  0  0  0
 26 30  2  0  0  0  0
 27 29  1  0  0  0  0
 29 28  1  0  0  0  0
 30 28  1  0  0  0  0
 31 27  1  0  0  0  0
 31 26  1  0  0  0  0
 34 32  1  0  0  0  0
 34 33  1  0  0  0  0
 35 40  1  0  0  0  0
 36 37  1  0  0  0  0
 37 41  2  0  0  0  0
 37 42  1  0  0  0  0
 38 41  1  0  0  0  0
 39 40  1  0  0  0  0
 39 36  2  0  0  0  0
 40 38  2  0  0  0  0
 42 43  1  0  0  0  0
M  END
>  <MODEL>
8

>  <REMARK>
 VINA RESULT:      -7.5      3.768      8.052
  Name = 
  10 active torsions:
  status: ('A' for Active; 'I' for Inactive)
    1  A    between atoms: O_1  and  C_34
    2  A    between atoms: O_1  and  C_35
    3  A    between atoms: C_2  and  N_6
    4  A    between atoms: C_2  and  C_13
    5  A    between atoms: C_3  and  C_4
    6  A    between atoms: C_3  and  C_12
    7  A    between atoms: C_4  and  C_15
    8  A    between atoms: C_11  and  C_14
    9  A    between atoms: C_15  and  C_42
   10  A    between atoms: C_19  and  O_25
                            x       y       z     vdW  Elec       q    Type
                         _______ _______ _______ _____ _____    ______ ____

>  <TORSDO>
F 10

$$$$
=
 OpenBabel10272414233D

 43 48  0  0  1  0  0  0  0  0999 V2000
  189.5570  177.2710  138.0980 C   0  0  1  0  0  3  0  0  0  0  0  0
  187.9950  177.0330  143.0050 C   0  0  0  0  0  0  0  0  0  0  0  0
  185.6670  178.6910  143.2870 C   0  0  2  0  0  3  0  0  0  0  0  0
  189.3900  176.8610  140.5770 C   0  0  0  0  0  0  0  0  0  0  0  0
  188.6940  178.5010  138.3570 C   0  0  0  0  0  2  0  0  0  0  0  0
  190.5840  177.5930  137.2130 O   0  0  0  0  0  1  0  0  0  0  0  0
  188.1670  177.5590  140.6280 C   0  0  0  0  0  0  0  0  0  0  0  0
  190.1250  176.7860  139.3520 N   0  0  0  0  0  2  0  0  0  0  0  0
  187.5970  178.1500  139.3610 C   0  0  0  0  0  2  0  0  0  0  0  0
  186.1010  178.2950  141.8740 C   0  0  0  0  0  2  0  0  0  0  0  0
  187.4620  177.6460  141.8450 C   0  0  0  0  0  0  0  0  0  0  0  0
  189.2210  176.3650  142.9370 C   0  0  0  0  0  3  0  0  0  0  0  0
  187.3290  177.1580  144.3510 C   0  0  2  0  0  3  0  0  0  0  0  0
  185.8440  177.5110  144.2330 C   0  0  0  0  0  2  0  0  0  0  0  0
  189.9140  176.2770  141.7300 C   0  0  0  0  0  3  0  0  0  0  0  0
  184.2360  179.2310  143.3230 C   0  0  2  0  0  3  0  0  0  0  0  0
  183.6310  179.1610  144.7220 C   0  0  0  0  0  1  0  0  0  0  0  0
  183.4110  178.4860  142.3820 N   0  0  0  0  0  2  0  0  0  0  0  0
  182.0800  178.8670  142.0280 C   0  0  0  0  0  0  0  0  0  0  0  0
  181.5710  179.9240  142.4870 O   0  0  0  0  0  0  0  0  0  0  0  0
  181.2780  177.9870  141.1300 C   0  0  0  0  0  2  0  0  0  0  0  0
  182.0190  177.7070  139.8220 C   0  0  2  0  0  0  0  0  0  0  0  0
  181.9320  176.3390  139.2440 C   0  0  1  0  0  0  0  0  0  0  0  0
  183.0460  176.7580  140.0020 O   0  0  0  0  0  0  0  0  0  0  0  0
  181.1870  175.3830  139.9390 O   0  0  0  0  0  1  0  0  0  0  0  0
  182.2980  176.0400  137.8190 C   0  0  0  0  0  0  0  0  0  0  0  0
  181.7640  176.0130  135.3390 C   0  0  0  0  0  2  0  0  0  0  0  0
  183.9590  175.1960  136.1480 C   0  0  0  0  0  2  0  0  0  0  0  0
  182.7710  174.8750  135.2490 C   0  0  0  0  0  2  0  0  0  0  0  0
  183.5160  175.5370  137.5470 C   0  0  0  0  0  3  0  0  0  0  0  0
  181.2170  176.1100  136.7630 C   0  0  0  0  0  2  0  0  0  0  0  0
  182.4890  178.8660  138.9440 C   0  0  0  0  0  2  0  0  0  0  0  0
  184.4010  180.2660  139.2610 O   0  0  0  0  0  1  0  0  0  0  0  0
  184.0060  178.9720  138.9240 C   0  0  0  0  0  2  0  0  0  0  0  0
  188.0060  178.1450  145.1260 O   0  0  0  0  0  0  0  0  0  0  0  0
  189.9680  177.6990  148.2520 C   0  0  0  0  0  3  0  0  0  0  0  0
  191.1780  177.2120  147.7330 C   0  0  0  0  0  0  0  0  0  0  0  0
  190.2530  177.3570  145.4940 C   0  0  0  0  0  3  0  0  0  0  0  0
  188.9090  178.0130  147.3960 C   0  0  0  0  0  3  0  0  0  0  0  0
  189.0480  177.8430  146.0090 C   0  0  0  0  0  0  0  0  0  0  0  0
  191.3120  177.0440  146.3510 C   0  0  0  0  0  3  0  0  0  0  0  0
  192.2560  176.8880  148.5600 O   0  0  0  0  0  0  0  0  0  0  0  0
  193.0880  175.7590  148.3290 C   0  0  0  0  0  1  0  0  0  0  0  0
  1  6  1  6  0  0  0
  1  5  1  0  0  0  0
  1  8  1  0  0  0  0
  2 13  1  0  0  0  0
  3 16  1  6  0  0  0
  3 14  1  0  0  0  0
  4  7  2  0  0  0  0
  4 15  1  0  0  0  0
  5  9  1  0  0  0  0
  7 11  1  0  0  0  0
  8  4  1  0  0  0  0
  9  7  1  0  0  0  0
 10  3  1  0  0  0  0
 11 10  1  0  0  0  0
 11  2  2  0  0  0  0
 12  2  1  0  0  0  0
 13 35  1  1  0  0  0
 14 13  1  0  0  0  0
 15 12  2  0  0  0  0
 16 17  1  1  0  0  0
 18 16  1  0  0  0  0
 19 18  1  0  0  0  0
 19 20  2  0  0  0  0
 21 19  1  0  0  0  0
 22 32  1  6  0  0  0
 22 24  1  0  0  0  0
 22 21  1  0  0  0  0
 23 22  1  0  0  0  0
 23 25  1  1  0  0  0
 23 24  1  0  0  0  0
 26 23  1  0  0  0  0
 27 31  1  0  0  0  0
 28 30  1  0  0  0  0
 29 27  1  0  0  0  0
 29 28  1  0  0  0  0
 30 26  2  0  0  0  0
 31 26  1  0  0  0  0
 34 32  1  0  0  0  0
 34 33  1  0  0  0  0
 35 40  1  0  0  0  0
 37 36  1  0  0  0  0
 37 42  1  0  0  0  0
 38 40  2  0  0  0  0
 38 41  1  0  0  0  0
 39 36  2  0  0  0  0
 40 39  1  0  0  0  0
 41 37  2  0  0  0  0
 43 42  1  0  0  0  0
M  END
>  <MODEL>
9

>  <REMARK>
 VINA RESULT:      -7.5      3.067      7.607
  Name = 
  10 active torsions:
  status: ('A' for Active; 'I' for Inactive)
    1  A    between atoms: O_1  and  C_34
    2  A    between atoms: O_1  and  C_35
    3  A    between atoms: C_2  and  N_6
    4  A    between atoms: C_2  and  C_13
    5  A    between atoms: C_3  and  C_4
    6  A    between atoms: C_3  and  C_12
    7  A    between atoms: C_4  and  C_15
    8  A    between atoms: C_11  and  C_14
    9  A    between atoms: C_15  and  C_42
   10  A    between atoms: C_19  and  O_25
                            x       y       z     vdW  Elec       q    Type
                         _______ _______ _______ _____ _____    ______ ____

>  <TORSDO>
F 10

$$$$
