=
 OpenBabel10272402043D

 32 38  0  0  1  0  0  0  0  0999 V2000
  187.0970  177.4610  145.5070 C   0  0  2  0  0  0  0  0  0  0  0  0
  185.6440  178.0100  143.5190 C   0  0  0  0  0  0  0  0  0  0  0  0
  187.2530  177.1660  146.9840 C   0  0  0  0  0  2  0  0  0  0  0  0
  185.6710  177.4990  144.9480 C   0  0  2  0  0  3  0  0  0  0  0  0
  184.4360  178.4900  142.9930 C   0  0  0  0  0  0  0  0  0  0  0  0
  187.6120  178.5650  139.0280 C   0  0  0  0  0  2  0  0  0  0  0  0
  186.7570  177.8920  142.6790 C   0  0  0  0  0  0  0  0  0  0  0  0
  185.1930  178.9480  139.3680 C   0  0  0  0  0  2  0  0  0  0  0  0
  185.3590  178.5340  140.7970 C   0  0  0  0  0  0  0  0  0  0  0  0
  184.8340  178.3480  145.9200 C   0  0  2  0  0  3  0  0  0  0  0  0
  184.3270  178.7590  141.6620 N   0  0  0  0  0  0  0  0  0  0  0  0
  183.7660  179.2380  145.2660 C   0  0  0  0  0  2  0  0  0  0  0  0
  185.8250  179.2100  146.6840 C   0  0  0  0  0  2  0  0  0  0  0  0
  188.0520  177.4590  143.2340 C   0  0  0  0  0  3  0  0  0  0  0  0
  188.2770  177.2460  144.5460 C   0  0  0  0  0  0  0  0  0  0  0  0
  186.6190  178.1300  141.2990 C   0  0  0  0  0  0  0  0  0  0  0  0
  183.2710  178.6780  143.9230 C   0  0  1  0  0  3  0  0  0  0  0  0
  187.2180  178.6080  146.4980 C   0  0  2  0  0  3  0  0  0  0  0  0
  186.2280  178.3020  138.4610 C   0  0  0  0  0  2  0  0  0  0  0  0
  187.7450  177.8020  140.3400 C   0  0  0  0  0  2  0  0  0  0  0  0
  191.9540  177.8140  142.0010 C   0  0  0  0  0  1  0  0  0  0  0  0
  192.1780  179.8390  144.0350 O   0  0  0  0  0  1  0  0  0  0  0  0
  191.6150  175.2320  144.2640 C   0  0  0  0  0  1  0  0  0  0  0  0
  190.9280  178.6510  145.6750 C   0  0  0  0  0  2  0  0  0  0  0  0
  189.6470  176.6150  144.8310 C   0  0  2  0  0  3  0  0  0  0  0  0
  191.6340  177.5620  143.4720 C   0  0  2  0  0  3  0  0  0  0  0  0
  190.3240  177.2880  146.0310 C   0  0  0  0  0  2  0  0  0  0  0  0
  190.7080  176.3300  143.7320 C   0  0  0  0  0  0  0  0  0  0  0  0
  190.0620  175.7400  142.4840 C   0  0  0  0  0  1  0  0  0  0  0  0
  191.1900  178.8600  144.1800 C   0  0  2  0  0  3  0  0  0  0  0  0
  182.2130  179.4330  143.3630 O   0  0  0  0  0  0  0  0  0  0  0  0
  180.9790  178.8100  143.6200 C   0  0  0  0  0  1  0  0  0  0  0  0
  1 18  1  0  0  0  0
  1  3  1  1  0  0  0
  4  2  1  6  0  0  0
  4  1  1  0  0  0  0
  4 10  1  0  0  0  0
  5  2  1  0  0  0  0
  5 17  1  0  0  0  0
  6 20  1  0  0  0  0
  7 14  1  0  0  0  0
  7  2  2  0  0  0  0
  8  9  1  0  0  0  0
  9 16  2  0  0  0  0
  9 11  1  0  0  0  0
 10 12  1  6  0  0  0
 10 13  1  0  0  0  0
 11  5  2  0  0  0  0
 14 15  2  0  0  0  0
 15  1  1  0  0  0  0
 16  7  1  0  0  0  0
 17 31  1  6  0  0  0
 17 12  1  0  0  0  0
 18 13  1  1  0  0  0
 18  3  1  0  0  0  0
 19  6  1  0  0  0  0
 19  8  1  0  0  0  0
 20 16  1  0  0  0  0
 24 27  1  0  0  0  0
 25 15  1  6  0  0  0
 25 27  1  0  0  0  0
 26 21  1  6  0  0  0
 26 28  1  0  0  0  0
 26 30  1  0  0  0  0
 28 23  1  0  0  0  0
 28 25  1  0  0  0  0
 29 28  1  0  0  0  0
 30 22  1  1  0  0  0
 30 24  1  0  0  0  0
 31 32  1  0  0  0  0
M  END
>  <MODEL>
1

>  <REMARK>
 VINA RESULT:      -9.0      0.000      0.000
  Name = 
  2 active torsions:
  status: ('A' for Active; 'I' for Inactive)
    1  A    between atoms: O_13  and  C_29
    2  A    between atoms: C_16  and  C_27
                            x       y       z     vdW  Elec       q    Type
                         _______ _______ _______ _____ _____    ______ ____

>  <TORSDO>
F 2

$$$$
=
 OpenBabel10272402043D

 32 38  0  0  1  0  0  0  0  0999 V2000
  185.5350  178.7990  140.3940 C   0  0  2  0  0  0  0  0  0  0  0  0
  186.5830  178.3590  142.6460 C   0  0  0  0  0  0  0  0  0  0  0  0
  184.4110  179.3670  139.5520 C   0  0  0  0  0  2  0  0  0  0  0  0
  185.5400  179.1560  141.8850 C   0  0  2  0  0  3  0  0  0  0  0  0
  186.4680  178.2460  144.0380 C   0  0  0  0  0  0  0  0  0  0  0  0
  190.9240  176.0390  143.0000 C   0  0  0  0  0  2  0  0  0  0  0  0
  187.7210  177.8490  142.0110 C   0  0  0  0  0  0  0  0  0  0  0  0
  189.6950  176.6720  145.0510 C   0  0  0  0  0  2  0  0  0  0  0  0
  188.6610  177.3300  144.1910 C   0  0  0  0  0  0  0  0  0  0  0  0
  184.1060  178.9400  142.3990 C   0  0  2  0  0  3  0  0  0  0  0  0
  187.4890  177.7210  144.7710 N   0  0  0  0  0  0  0  0  0  0  0  0
  183.9950  178.3770  143.8240 C   0  0  0  0  0  2  0  0  0  0  0  0
  183.4470  177.9870  141.4160 C   0  0  0  0  0  2  0  0  0  0  0  0
  187.8240  177.8950  140.5410 C   0  0  0  0  0  3  0  0  0  0  0  0
  186.8360  178.3220  139.7290 C   0  0  0  0  0  0  0  0  0  0  0  0
  188.7870  177.3500  142.7820 C   0  0  0  0  0  0  0  0  0  0  0  0
  185.2080  178.7340  144.6970 C   0  0  1  0  0  3  0  0  0  0  0  0
  184.2870  177.9670  140.1390 C   0  0  2  0  0  3  0  0  0  0  0  0
  191.0630  176.6480  144.3850 C   0  0  0  0  0  2  0  0  0  0  0  0
  190.1100  176.9950  142.1360 C   0  0  0  0  0  2  0  0  0  0  0  0
  189.7360  175.5690  137.6490 C   0  0  0  0  0  1  0  0  0  0  0  0
  187.1480  174.4580  137.0510 O   0  0  0  0  0  1  0  0  0  0  0  0
  188.9370  178.7060  136.4560 C   0  0  0  0  0  1  0  0  0  0  0  0
  185.9720  176.5200  137.2230 C   0  0  0  0  0  2  0  0  0  0  0  0
  187.2690  178.4520  138.2630 C   0  0  2  0  0  3  0  0  0  0  0  0
  188.5260  176.4200  137.2710 C   0  0  2  0  0  3  0  0  0  0  0  0
  186.1360  178.0410  137.3150 C   0  0  0  0  0  2  0  0  0  0  0  0
  188.6220  177.9150  137.7160 C   0  0  0  0  0  0  0  0  0  0  0  0
  189.7650  178.2270  138.6740 C   0  0  0  0  0  1  0  0  0  0  0  0
  187.2050  175.7190  137.6530 C   0  0  2  0  0  3  0  0  0  0  0  0
  185.0690  178.3110  146.0410 O   0  0  0  0  0  0  0  0  0  0  0  0
  185.6550  179.2470  146.9110 C   0  0  0  0  0  1  0  0  0  0  0  0
  1  3  1  6  0  0  0
  1  4  1  0  0  0  0
  2  5  1  0  0  0  0
  4 10  1  0  0  0  0
  4  2  1  1  0  0  0
  5 17  1  0  0  0  0
  5 11  2  0  0  0  0
  6 19  1  0  0  0  0
  7  2  2  0  0  0  0
  7 16  1  0  0  0  0
  9 11  1  0  0  0  0
  9  8  1  0  0  0  0
 10 13  1  6  0  0  0
 10 12  1  0  0  0  0
 12 17  1  0  0  0  0
 14  7  1  0  0  0  0
 15  1  1  0  0  0  0
 15 14  2  0  0  0  0
 16  9  2  0  0  0  0
 17 31  1  1  0  0  0
 18  3  1  6  0  0  0
 18  1  1  0  0  0  0
 18 13  1  0  0  0  0
 19  8  1  0  0  0  0
 20 16  1  0  0  0  0
 20  6  1  0  0  0  0
 23 28  1  0  0  0  0
 24 27  1  0  0  0  0
 24 30  1  0  0  0  0
 25 15  1  1  0  0  0
 26 21  1  1  0  0  0
 26 30  1  0  0  0  0
 26 28  1  0  0  0  0
 27 25  1  0  0  0  0
 28 25  1  0  0  0  0
 28 29  1  0  0  0  0
 30 22  1  6  0  0  0
 31 32  1  0  0  0  0
M  END
>  <MODEL>
2

>  <REMARK>
 VINA RESULT:      -8.4      2.507      6.025
  Name = 
  2 active torsions:
  status: ('A' for Active; 'I' for Inactive)
    1  A    between atoms: O_13  and  C_29
    2  A    between atoms: C_16  and  C_27
                            x       y       z     vdW  Elec       q    Type
                         _______ _______ _______ _____ _____    ______ ____

>  <TORSDO>
F 2

$$$$
=
 OpenBabel10272402043D

 32 38  0  0  1  0  0  0  0  0999 V2000
  190.5540  177.1020  140.6140 C   0  0  2  0  0  0  0  0  0  0  0  0
  188.7570  177.2480  142.3800 C   0  0  0  0  0  0  0  0  0  0  0  0
  191.9340  176.6650  140.1720 C   0  0  0  0  0  2  0  0  0  0  0  0
  190.0500  176.5710  141.9600 C   0  0  2  0  0  3  0  0  0  0  0  0
  188.3710  177.1970  143.7260 C   0  0  0  0  0  0  0  0  0  0  0  0
  184.4300  179.4110  141.4070 C   0  0  0  0  0  2  0  0  0  0  0  0
  187.8850  177.8050  141.4380 C   0  0  0  0  0  0  0  0  0  0  0  0
  184.9010  178.5670  143.6840 C   0  0  0  0  0  2  0  0  0  0  0  0
  186.2100  178.0380  143.1840 C   0  0  0  0  0  0  0  0  0  0  0  0
  191.1960  176.7560  142.9700 C   0  0  2  0  0  3  0  0  0  0  0  0
  187.1270  177.6080  144.0980 N   0  0  0  0  0  0  0  0  0  0  0  0
  190.7650  177.1480  144.3910 C   0  0  0  0  0  2  0  0  0  0  0  0
  192.0960  177.8340  142.3890 C   0  0  0  0  0  2  0  0  0  0  0  0
  188.3060  177.9310  140.0310 C   0  0  0  0  0  3  0  0  0  0  0  0
  189.5410  177.6260  139.5840 C   0  0  0  0  0  0  0  0  0  0  0  0
  186.5870  178.1840  141.8280 C   0  0  0  0  0  0  0  0  0  0  0  0
  189.3490  176.6620  144.7340 C   0  0  1  0  0  3  0  0  0  0  0  0
  191.7560  177.9860  140.9060 C   0  0  2  0  0  3  0  0  0  0  0  0
  183.8550  178.6390  142.5820 C   0  0  0  0  0  2  0  0  0  0  0  0
  185.5540  178.5840  140.7950 C   0  0  0  0  0  2  0  0  0  0  0  0
  187.2610  174.9480  136.7640 C   0  0  0  0  0  1  0  0  0  0  0  0
  185.6440  177.3230  136.9520 O   0  0  0  0  0  1  0  0  0  0  0  0
  190.1070  176.6630  135.8380 C   0  0  0  0  0  1  0  0  0  0  0  0
  187.4520  178.7880  137.4480 C   0  0  0  0  0  2  0  0  0  0  0  0
  189.6570  177.6620  138.0540 C   0  0  2  0  0  3  0  0  0  0  0  0
  187.8410  176.3600  136.7500 C   0  0  2  0  0  3  0  0  0  0  0  0
  188.9790  178.9120  137.4790 C   0  0  0  0  0  2  0  0  0  0  0  0
  189.3520  176.4420  137.1400 C   0  0  0  0  0  0  0  0  0  0  0  0
  189.9360  175.1600  137.7210 C   0  0  0  0  0  1  0  0  0  0  0  0
  186.9280  177.3500  137.5050 C   0  0  2  0  0  3  0  0  0  0  0  0
  188.9820  176.9260  146.0770 O   0  0  0  0  0  0  0  0  0  0  0  0
  190.1180  176.9140  146.9040 C   0  0  0  0  0  1  0  0  0  0  0  0
  1  3  1  6  0  0  0
  1 18  1  0  0  0  0
  1  4  1  0  0  0  0
  2  5  1  0  0  0  0
  4  2  1  1  0  0  0
  4 10  1  0  0  0  0
  5 11  2  0  0  0  0
  5 17  1  0  0  0  0
  6 19  1  0  0  0  0
  7 16  1  0  0  0  0
  7  2  2  0  0  0  0
  9  8  1  0  0  0  0
  9 11  1  0  0  0  0
 10 13  1  6  0  0  0
 10 12  1  0  0  0  0
 12 17  1  0  0  0  0
 14  7  1  0  0  0  0
 15 14  2  0  0  0  0
 15  1  1  0  0  0  0
 16  9  2  0  0  0  0
 17 31  1  1  0  0  0
 18  3  1  6  0  0  0
 18 13  1  0  0  0  0
 19  8  1  0  0  0  0
 20  6  1  0  0  0  0
 20 16  1  0  0  0  0
 23 28  1  0  0  0  0
 24 27  1  0  0  0  0
 24 30  1  0  0  0  0
 25 15  1  1  0  0  0
 26 21  1  1  0  0  0
 26 28  1  0  0  0  0
 26 30  1  0  0  0  0
 27 25  1  0  0  0  0
 28 29  1  0  0  0  0
 28 25  1  0  0  0  0
 30 22  1  6  0  0  0
 31 32  1  0  0  0  0
M  END
>  <MODEL>
3

>  <REMARK>
 VINA RESULT:      -8.3      2.565      6.462
  Name = 
  2 active torsions:
  status: ('A' for Active; 'I' for Inactive)
    1  A    between atoms: O_13  and  C_29
    2  A    between atoms: C_16  and  C_27
                            x       y       z     vdW  Elec       q    Type
                         _______ _______ _______ _____ _____    ______ ____

>  <TORSDO>
F 2

$$$$
=
 OpenBabel10272402043D

 32 38  0  0  1  0  0  0  0  0999 V2000
  189.7600  177.5500  141.5410 C   0  0  2  0  0  0  0  0  0  0  0  0
  187.4780  177.6750  142.6110 C   0  0  0  0  0  0  0  0  0  0  0  0
  191.2250  177.1730  141.6030 C   0  0  0  0  0  2  0  0  0  0  0  0
  188.8620  177.0540  142.6800 C   0  0  2  0  0  3  0  0  0  0  0  0
  186.6720  177.6640  143.7570 C   0  0  0  0  0  0  0  0  0  0  0  0
  183.6310  179.5370  140.1450 C   0  0  0  0  0  2  0  0  0  0  0  0
  186.9430  178.1350  141.4030 C   0  0  0  0  0  0  0  0  0  0  0  0
  183.3590  178.8280  142.4980 C   0  0  0  0  0  2  0  0  0  0  0  0
  184.7790  178.3530  142.4880 C   0  0  0  0  0  0  0  0  0  0  0  0
  189.6030  177.3520  143.9940 C   0  0  2  0  0  3  0  0  0  0  0  0
  185.3600  178.0200  143.6770 N   0  0  0  0  0  0  0  0  0  0  0  0
  188.7140  177.7840  145.1700 C   0  0  0  0  0  2  0  0  0  0  0  0
  190.6020  178.4510  143.6730 C   0  0  0  0  0  2  0  0  0  0  0  0
  187.7990  178.2210  140.2060 C   0  0  0  0  0  3  0  0  0  0  0  0
  189.1230  177.9660  140.2060 C   0  0  0  0  0  0  0  0  0  0  0  0
  185.5750  178.4570  141.3230 C   0  0  0  0  0  0  0  0  0  0  0  0
  187.2830  177.2340  145.0610 C   0  0  1  0  0  3  0  0  0  0  0  0
  190.7640  178.5150  142.1540 C   0  0  2  0  0  3  0  0  0  0  0  0
  182.7320  178.7890  141.1130 C   0  0  0  0  0  2  0  0  0  0  0  0
  184.9250  178.7480  139.9860 C   0  0  0  0  0  2  0  0  0  0  0  0
  188.3350  174.7770  137.1190 C   0  0  0  0  0  1  0  0  0  0  0  0
  186.4140  176.8370  136.5190 O   0  0  0  0  0  1  0  0  0  0  0  0
  191.0390  176.9130  136.9660 C   0  0  0  0  0  1  0  0  0  0  0  0
  187.7160  178.6230  137.4010 C   0  0  0  0  0  2  0  0  0  0  0  0
  189.7340  177.9380  138.7990 C   0  0  2  0  0  3  0  0  0  0  0  0
  188.6710  176.2660  137.1350 C   0  0  2  0  0  3  0  0  0  0  0  0
  189.1090  179.0150  137.9040 C   0  0  0  0  0  2  0  0  0  0  0  0
  189.9360  176.6350  137.9750 C   0  0  0  0  0  0  0  0  0  0  0  0
  190.4760  175.5100  138.8490 C   0  0  0  0  0  1  0  0  0  0  0  0
  187.4220  177.1200  137.4460 C   0  0  2  0  0  3  0  0  0  0  0  0
  186.4850  177.5380  146.1910 O   0  0  0  0  0  0  0  0  0  0  0  0
  187.2840  178.0380  147.2330 C   0  0  0  0  0  1  0  0  0  0  0  0
  1  3  1  6  0  0  0
  1 18  1  0  0  0  0
  1  4  1  0  0  0  0
  2  5  1  0  0  0  0
  4  2  1  1  0  0  0
  4 10  1  0  0  0  0
  5 17  1  0  0  0  0
  6 19  1  0  0  0  0
  7  2  2  0  0  0  0
  9  8  1  0  0  0  0
  9 11  1  0  0  0  0
 10 13  1  6  0  0  0
 10 12  1  0  0  0  0
 11  5  2  0  0  0  0
 14  7  1  0  0  0  0
 15 14  2  0  0  0  0
 15  1  1  0  0  0  0
 16  7  1  0  0  0  0
 16  9  2  0  0  0  0
 17 12  1  0  0  0  0
 17 31  1  1  0  0  0
 18  3  1  1  0  0  0
 18 13  1  0  0  0  0
 19  8  1  0  0  0  0
 20  6  1  0  0  0  0
 20 16  1  0  0  0  0
 23 28  1  0  0  0  0
 24 30  1  0  0  0  0
 24 27  1  0  0  0  0
 25 15  1  1  0  0  0
 26 21  1  1  0  0  0
 26 30  1  0  0  0  0
 26 28  1  0  0  0  0
 27 25  1  0  0  0  0
 28 25  1  0  0  0  0
 28 29  1  0  0  0  0
 30 22  1  6  0  0  0
 31 32  1  0  0  0  0
M  END
>  <MODEL>
4

>  <REMARK>
 VINA RESULT:      -8.2      2.634      5.491
  Name = 
  2 active torsions:
  status: ('A' for Active; 'I' for Inactive)
    1  A    between atoms: O_13  and  C_29
    2  A    between atoms: C_16  and  C_27
                            x       y       z     vdW  Elec       q    Type
                         _______ _______ _______ _____ _____    ______ ____

>  <TORSDO>
F 2

$$$$
=
 OpenBabel10272402043D

 32 38  0  0  1  0  0  0  0  0999 V2000
  186.7770  177.5280  144.6410 C   0  0  2  0  0  0  0  0  0  0  0  0
  185.7600  178.0090  142.3820 C   0  0  0  0  0  0  0  0  0  0  0  0
  186.6260  177.2600  146.1240 C   0  0  0  0  0  2  0  0  0  0  0  0
  185.4980  177.5210  143.7960 C   0  0  2  0  0  3  0  0  0  0  0  0
  184.6800  178.4490  141.6060 C   0  0  0  0  0  0  0  0  0  0  0  0
  188.6130  178.5400  138.3910 C   0  0  0  0  0  2  0  0  0  0  0  0
  187.0270  177.9050  141.7960 C   0  0  0  0  0  0  0  0  0  0  0  0
  186.1690  178.8680  138.2100 C   0  0  0  0  0  2  0  0  0  0  0  0
  186.0410  178.4810  139.6510 C   0  0  0  0  0  0  0  0  0  0  0  0
  184.4590  178.3650  144.5530 C   0  0  2  0  0  3  0  0  0  0  0  0
  184.8470  178.6940  140.2760 N   0  0  0  0  0  0  0  0  0  0  0  0
  183.5330  179.2170  143.6720 C   0  0  0  0  0  2  0  0  0  0  0  0
  185.2500  179.2630  145.4890 C   0  0  0  0  0  2  0  0  0  0  0  0
  188.1860  177.5130  142.6180 C   0  0  0  0  0  3  0  0  0  0  0  0
  188.1360  177.3270  143.9530 C   0  0  0  0  0  0  0  0  0  0  0  0
  187.1760  178.1170  140.4130 C   0  0  0  0  0  0  0  0  0  0  0  0
  183.3430  178.6230  142.2680 C   0  0  1  0  0  3  0  0  0  0  0  0
  186.6630  178.6930  145.6110 C   0  0  2  0  0  3  0  0  0  0  0  0
  187.3850  178.2340  137.5530 C   0  0  0  0  0  2  0  0  0  0  0  0
  188.4840  177.8020  139.7180 C   0  0  0  0  0  2  0  0  0  0  0  0
  192.2370  177.8480  142.1540 C   0  0  0  0  0  1  0  0  0  0  0  0
  192.0370  179.9660  144.0950 O   0  0  0  0  0  1  0  0  0  0  0  0
  191.4830  175.3640  144.4270 C   0  0  0  0  0  1  0  0  0  0  0  0
  190.4990  178.8300  145.5120 C   0  0  0  0  0  2  0  0  0  0  0  0
  189.4280  176.7350  144.5310 C   0  0  2  0  0  3  0  0  0  0  0  0
  191.6360  177.6560  143.5450 C   0  0  2  0  0  3  0  0  0  0  0  0
  189.8500  177.4740  145.8070 C   0  0  0  0  0  2  0  0  0  0  0  0
  190.6880  176.4210  143.6760 C   0  0  0  0  0  0  0  0  0  0  0  0
  190.3060  175.7630  142.3560 C   0  0  0  0  0  1  0  0  0  0  0  0
  191.0490  178.9770  144.0890 C   0  0  2  0  0  3  0  0  0  0  0  0
  182.4090  179.3430  141.4830 O   0  0  0  0  0  0  0  0  0  0  0  0
  181.3220  178.5200  141.1400 C   0  0  0  0  0  1  0  0  0  0  0  0
  1 18  1  0  0  0  0
  1  3  1  1  0  0  0
  4  2  1  6  0  0  0
  4 10  1  0  0  0  0
  4  1  1  0  0  0  0
  5 17  1  0  0  0  0
  5  2  2  0  0  0  0
  6 20  1  0  0  0  0
  7  2  1  0  0  0  0
  7 14  1  0  0  0  0
  8  9  1  0  0  0  0
  9 11  2  0  0  0  0
  9 16  1  0  0  0  0
 10 12  1  6  0  0  0
 10 13  1  0  0  0  0
 11  5  1  0  0  0  0
 14 15  2  0  0  0  0
 15  1  1  0  0  0  0
 16  7  2  0  0  0  0
 17 31  1  6  0  0  0
 17 12  1  0  0  0  0
 18 13  1  6  0  0  0
 18  3  1  0  0  0  0
 19  8  1  0  0  0  0
 19  6  1  0  0  0  0
 20 16  1  0  0  0  0
 24 27  1  0  0  0  0
 25 15  1  6  0  0  0
 25 27  1  0  0  0  0
 26 21  1  6  0  0  0
 26 28  1  0  0  0  0
 26 30  1  0  0  0  0
 28 23  1  0  0  0  0
 28 25  1  0  0  0  0
 29 28  1  0  0  0  0
 30 22  1  1  0  0  0
 30 24  1  0  0  0  0
 32 31  1  0  0  0  0
M  END
>  <MODEL>
5

>  <REMARK>
 VINA RESULT:      -8.1      0.985      1.137
  Name = 
  2 active torsions:
  status: ('A' for Active; 'I' for Inactive)
    1  A    between atoms: O_13  and  C_29
    2  A    between atoms: C_16  and  C_27
                            x       y       z     vdW  Elec       q    Type
                         _______ _______ _______ _____ _____    ______ ____

>  <TORSDO>
F 2

$$$$
=
 OpenBabel10272402043D

 32 38  0  0  1  0  0  0  0  0999 V2000
  184.7950  178.5070  139.0590 C   0  0  2  0  0  0  0  0  0  0  0  0
  186.2270  178.5750  141.1360 C   0  0  0  0  0  0  0  0  0  0  0  0
  183.4920  178.8030  138.3470 C   0  0  0  0  0  2  0  0  0  0  0  0
  184.9850  179.1180  140.4520 C   0  0  2  0  0  3  0  0  0  0  0  0
  186.3430  178.6970  142.5270 C   0  0  0  0  0  0  0  0  0  0  0  0
  190.8310  176.7990  141.0880 C   0  0  0  0  0  2  0  0  0  0  0  0
  187.3080  178.0780  140.4000 C   0  0  0  0  0  0  0  0  0  0  0  0
  189.8630  177.6550  143.1960 C   0  0  0  0  0  2  0  0  0  0  0  0
  188.6330  178.0460  142.4370 C   0  0  0  0  0  0  0  0  0  0  0  0
  183.6880  178.8540  141.2350 C   0  0  2  0  0  3  0  0  0  0  0  0
  187.5240  178.4130  143.1440 N   0  0  0  0  0  0  0  0  0  0  0  0
  183.8710  178.5410  142.7280 C   0  0  0  0  0  2  0  0  0  0  0  0
  183.0110  177.6820  140.5430 C   0  0  0  0  0  2  0  0  0  0  0  0
  187.1760  177.8760  138.9450 C   0  0  0  0  0  3  0  0  0  0  0  0
  186.0280  178.0540  138.2610 C   0  0  0  0  0  0  0  0  0  0  0  0
  188.5360  177.8310  141.0420 C   0  0  0  0  0  0  0  0  0  0  0  0
  185.1490  179.1650  143.3100 C   0  0  1  0  0  3  0  0  0  0  0  0
  183.6400  177.5230  139.1580 C   0  0  2  0  0  3  0  0  0  0  0  0
  191.1030  177.6520  142.3150 C   0  0  0  0  0  2  0  0  0  0  0  0
  189.7770  177.5020  140.2400 C   0  0  0  0  0  2  0  0  0  0  0  0
  189.6960  176.4430  136.1940 C   0  0  0  0  0  1  0  0  0  0  0  0
  187.9260  174.1790  136.3670 O   0  0  0  0  0  1  0  0  0  0  0  0
  187.3740  178.4470  134.6130 C   0  0  0  0  0  1  0  0  0  0  0  0
  185.9200  175.4600  136.3800 C   0  0  0  0  0  2  0  0  0  0  0  0
  186.2100  177.9670  136.7400 C   0  0  2  0  0  3  0  0  0  0  0  0
  188.1970  176.5290  135.9170 C   0  0  2  0  0  3  0  0  0  0  0  0
  185.3360  176.8570  136.1430 C   0  0  0  0  0  2  0  0  0  0  0  0
  187.5970  177.9670  136.0390 C   0  0  0  0  0  0  0  0  0  0  0  0
  188.5280  179.0000  136.6610 C   0  0  0  0  0  1  0  0  0  0  0  0
  187.4200  175.4410  136.6920 C   0  0  2  0  0  3  0  0  0  0  0  0
  185.2740  178.9720  144.7070 O   0  0  0  0  0  0  0  0  0  0  0  0
  184.0040  178.8990  145.3050 C   0  0  0  0  0  1  0  0  0  0  0  0
  1  3  1  6  0  0  0
  1 18  1  0  0  0  0
  1  4  1  0  0  0  0
  2  5  1  0  0  0  0
  4  2  1  1  0  0  0
  4 10  1  0  0  0  0
  5 11  2  0  0  0  0
  5 17  1  0  0  0  0
  6 19  1  0  0  0  0
  7 16  1  0  0  0  0
  7  2  2  0  0  0  0
  9 11  1  0  0  0  0
  9  8  1  0  0  0  0
 10 13  1  6  0  0  0
 10 12  1  0  0  0  0
 12 17  1  0  0  0  0
 14  7  1  0  0  0  0
 15 14  2  0  0  0  0
 15  1  1  0  0  0  0
 16  9  2  0  0  0  0
 17 31  1  1  0  0  0
 18  3  1  6  0  0  0
 18 13  1  0  0  0  0
 19  8  1  0  0  0  0
 20 16  1  0  0  0  0
 20  6  1  0  0  0  0
 23 28  1  0  0  0  0
 24 30  1  0  0  0  0
 25 15  1  1  0  0  0
 26 28  1  0  0  0  0
 26 21  1  1  0  0  0
 26 30  1  0  0  0  0
 27 24  1  0  0  0  0
 27 25  1  0  0  0  0
 28 29  1  0  0  0  0
 28 25  1  0  0  0  0
 30 22  1  6  0  0  0
 31 32  1  0  0  0  0
M  END
>  <MODEL>
6

>  <REMARK>
 VINA RESULT:      -7.8      2.886      6.640
  Name = 
  2 active torsions:
  status: ('A' for Active; 'I' for Inactive)
    1  A    between atoms: O_13  and  C_29
    2  A    between atoms: C_16  and  C_27
                            x       y       z     vdW  Elec       q    Type
                         _______ _______ _______ _____ _____    ______ ____

>  <TORSDO>
F 2

$$$$
=
 OpenBabel10272402043D

 32 38  0  0  1  0  0  0  0  0999 V2000
  184.4000  178.7290  139.0850 C   0  0  2  0  0  0  0  0  0  0  0  0
  184.6120  178.6750  141.6000 C   0  0  0  0  0  0  0  0  0  0  0  0
  183.6020  179.0400  137.8370 C   0  0  0  0  0  2  0  0  0  0  0  0
  183.8360  179.2320  140.4190 C   0  0  2  0  0  3  0  0  0  0  0  0
  184.0180  178.6880  142.8680 C   0  0  0  0  0  0  0  0  0  0  0  0
  188.7470  177.0550  143.7500 C   0  0  0  0  0  2  0  0  0  0  0  0
  185.9470  178.2730  141.4730 C   0  0  0  0  0  0  0  0  0  0  0  0
  186.8100  177.7080  145.1410 C   0  0  0  0  0  2  0  0  0  0  0  0
  186.0920  178.1190  143.8940 C   0  0  0  0  0  0  0  0  0  0  0  0
  182.3430  178.8640  140.4380 C   0  0  2  0  0  3  0  0  0  0  0  0
  184.7570  178.3930  143.9740 N   0  0  0  0  0  0  0  0  0  0  0  0
  181.7860  178.4380  141.8050 C   0  0  0  0  0  2  0  0  0  0  0  0
  182.1770  177.7320  139.4390 C   0  0  0  0  0  2  0  0  0  0  0  0
  186.5630  178.1850  140.1360 C   0  0  0  0  0  3  0  0  0  0  0  0
  185.8940  178.3810  138.9830 C   0  0  0  0  0  0  0  0  0  0  0  0
  186.7100  178.0140  142.6260 C   0  0  0  0  0  0  0  0  0  0  0  0
  182.5650  179.0530  142.9780 C   0  0  1  0  0  3  0  0  0  0  0  0
  183.4160  177.7040  138.5430 C   0  0  2  0  0  3  0  0  0  0  0  0
  188.3200  177.8150  144.9940 C   0  0  0  0  0  2  0  0  0  0  0  0
  188.2050  177.7910  142.5310 C   0  0  0  0  0  2  0  0  0  0  0  0
  189.7480  176.0820  138.5580 C   0  0  0  0  0  1  0  0  0  0  0  0
  187.7680  174.3790  137.3460 O   0  0  0  0  0  1  0  0  0  0  0  0
  188.9590  178.8080  136.5960 C   0  0  0  0  0  1  0  0  0  0  0  0
  186.3020  176.1470  136.7200 C   0  0  0  0  0  2  0  0  0  0  0  0
  186.8080  178.4220  137.7510 C   0  0  2  0  0  3  0  0  0  0  0  0
  188.6430  176.6030  137.6410 C   0  0  2  0  0  3  0  0  0  0  0  0
  186.1800  177.6680  136.5730 C   0  0  0  0  0  2  0  0  0  0  0  0
  188.3330  178.1260  137.8020 C   0  0  0  0  0  0  0  0  0  0  0  0
  188.9820  178.7880  139.0110 C   0  0  0  0  0  1  0  0  0  0  0  0
  187.4020  175.6860  137.6830 C   0  0  2  0  0  3  0  0  0  0  0  0
  181.9970  178.7520  144.2400 O   0  0  0  0  0  0  0  0  0  0  0  0
  180.6400  178.4130  144.0960 C   0  0  0  0  0  1  0  0  0  0  0  0
  1  3  1  6  0  0  0
  1  4  1  0  0  0  0
  2  5  1  0  0  0  0
  4 10  1  0  0  0  0
  4  2  1  1  0  0  0
  5 17  1  0  0  0  0
  5 11  2  0  0  0  0
  6 19  1  0  0  0  0
  7  2  2  0  0  0  0
  7 16  1  0  0  0  0
  9 11  1  0  0  0  0
  9  8  1  0  0  0  0
 10 13  1  6  0  0  0
 10 12  1  0  0  0  0
 12 17  1  0  0  0  0
 14  7  1  0  0  0  0
 15  1  1  0  0  0  0
 15 14  2  0  0  0  0
 16  9  2  0  0  0  0
 17 31  1  1  0  0  0
 18  3  1  6  0  0  0
 18  1  1  0  0  0  0
 18 13  1  0  0  0  0
 19  8  1  0  0  0  0
 20 16  1  0  0  0  0
 20  6  1  0  0  0  0
 23 28  1  0  0  0  0
 24 30  1  0  0  0  0
 25 28  1  0  0  0  0
 25 15  1  1  0  0  0
 26 30  1  0  0  0  0
 26 28  1  0  0  0  0
 26 21  1  1  0  0  0
 27 24  1  0  0  0  0
 27 25  1  0  0  0  0
 28 29  1  0  0  0  0
 30 22  1  6  0  0  0
 32 31  1  0  0  0  0
M  END
>  <MODEL>
7

>  <REMARK>
 VINA RESULT:      -7.7      2.528      6.168
  Name = 
  2 active torsions:
  status: ('A' for Active; 'I' for Inactive)
    1  A    between atoms: O_13  and  C_29
    2  A    between atoms: C_16  and  C_27
                            x       y       z     vdW  Elec       q    Type
                         _______ _______ _______ _____ _____    ______ ____

>  <TORSDO>
F 2

$$$$
=
 OpenBabel10272402043D

 32 38  0  0  1  0  0  0  0  0999 V2000
  189.1380  177.1500  140.0980 C   0  0  2  0  0  0  0  0  0  0  0  0
  188.3660  177.2670  142.4980 C   0  0  0  0  0  0  0  0  0  0  0  0
  190.1180  176.6630  139.0520 C   0  0  0  0  0  2  0  0  0  0  0  0
  189.2560  176.5450  141.5010 C   0  0  2  0  0  3  0  0  0  0  0  0
  188.6330  177.1330  143.8670 C   0  0  0  0  0  0  0  0  0  0  0  0
  184.2940  179.7700  143.7210 C   0  0  0  0  0  2  0  0  0  0  0  0
  187.2160  177.9510  142.0890 C   0  0  0  0  0  0  0  0  0  0  0  0
  185.6690  178.7180  145.4860 C   0  0  0  0  0  2  0  0  0  0  0  0
  186.5510  178.1500  144.4180 C   0  0  0  0  0  0  0  0  0  0  0  0
  190.7480  176.5760  141.8760 C   0  0  2  0  0  3  0  0  0  0  0  0
  187.7400  177.5910  144.7870 N   0  0  0  0  0  0  0  0  0  0  0  0
  191.0510  176.8800  143.3510 C   0  0  0  0  0  2  0  0  0  0  0  0
  191.3800  177.6380  140.9910 C   0  0  0  0  0  2  0  0  0  0  0  0
  186.9600  178.1630  140.6530 C   0  0  0  0  0  3  0  0  0  0  0  0
  187.8200  177.8170  139.6740 C   0  0  0  0  0  0  0  0  0  0  0  0
  186.2800  178.3790  143.0480 C   0  0  0  0  0  0  0  0  0  0  0  0
  189.9080  176.4580  144.2880 C   0  0  1  0  0  3  0  0  0  0  0  0
  190.4170  177.9300  139.8400 C   0  0  2  0  0  3  0  0  0  0  0  0
  184.2480  178.9440  144.9950 C   0  0  0  0  0  2  0  0  0  0  0  0
  184.9320  178.9250  142.6260 C   0  0  0  0  0  2  0  0  0  0  0  0
  190.0480  176.9920  135.8430 C   0  0  0  0  0  1  0  0  0  0  0  0
  188.6920  174.5190  136.4230 O   0  0  0  0  0  1  0  0  0  0  0  0
  187.1670  178.8860  135.9720 C   0  0  0  0  0  1  0  0  0  0  0  0
  186.9040  175.5200  137.6330 C   0  0  0  0  0  2  0  0  0  0  0  0
  187.2290  177.9680  138.2660 C   0  0  2  0  0  3  0  0  0  0  0  0
  188.6070  176.9250  136.3410 C   0  0  2  0  0  3  0  0  0  0  0  0
  186.2210  176.8510  137.9680 C   0  0  0  0  0  2  0  0  0  0  0  0
  188.0860  178.2430  136.9990 C   0  0  0  0  0  0  0  0  0  0  0  0
  189.1590  179.2880  137.2770 C   0  0  0  0  0  1  0  0  0  0  0  0
  188.3610  175.6490  137.1770 C   0  0  2  0  0  3  0  0  0  0  0  0
  190.2200  176.6360  145.6580 O   0  0  0  0  0  0  0  0  0  0  0  0
  191.6130  176.6620  145.8420 C   0  0  0  0  0  1  0  0  0  0  0  0
  1  3  1  6  0  0  0
  1  4  1  0  0  0  0
  2  5  1  0  0  0  0
  4 10  1  0  0  0  0
  4  2  1  1  0  0  0
  5 17  1  0  0  0  0
  5 11  2  0  0  0  0
  6 19  1  0  0  0  0
  7  2  2  0  0  0  0
  7 16  1  0  0  0  0
  9 11  1  0  0  0  0
  9  8  1  0  0  0  0
 10 13  1  6  0  0  0
 10 12  1  0  0  0  0
 12 17  1  0  0  0  0
 14  7  1  0  0  0  0
 15  1  1  0  0  0  0
 15 14  2  0  0  0  0
 16  9  2  0  0  0  0
 17 31  1  1  0  0  0
 18  3  1  6  0  0  0
 18  1  1  0  0  0  0
 18 13  1  0  0  0  0
 19  8  1  0  0  0  0
 20 16  1  0  0  0  0
 20  6  1  0  0  0  0
 23 28  1  0  0  0  0
 24 27  1  0  0  0  0
 25 15  1  1  0  0  0
 26 21  1  1  0  0  0
 26 28  1  0  0  0  0
 26 30  1  0  0  0  0
 27 25  1  0  0  0  0
 28 29  1  0  0  0  0
 28 25  1  0  0  0  0
 30 22  1  6  0  0  0
 30 24  1  0  0  0  0
 31 32  1  0  0  0  0
M  END
>  <MODEL>
8

>  <REMARK>
 VINA RESULT:      -7.4      2.769      6.946
  Name = 
  2 active torsions:
  status: ('A' for Active; 'I' for Inactive)
    1  A    between atoms: O_13  and  C_29
    2  A    between atoms: C_16  and  C_27
                            x       y       z     vdW  Elec       q    Type
                         _______ _______ _______ _____ _____    ______ ____

>  <TORSDO>
F 2

$$$$
=
 OpenBabel10272402043D

 32 38  0  0  1  0  0  0  0  0999 V2000
  186.7830  178.0360  138.1060 C   0  0  2  0  0  0  0  0  0  0  0  0
  187.7980  177.6480  140.3840 C   0  0  0  0  0  0  0  0  0  0  0  0
  186.8560  177.9390  136.5970 C   0  0  0  0  0  2  0  0  0  0  0  0
  187.8590  177.2960  138.9080 C   0  0  2  0  0  3  0  0  0  0  0  0
  188.9180  177.4000  141.1870 C   0  0  0  0  0  0  0  0  0  0  0  0
  185.3670  178.9300  144.4820 C   0  0  0  0  0  2  0  0  0  0  0  0
  186.6110  178.0880  140.9810 C   0  0  0  0  0  0  0  0  0  0  0  0
  187.6570  178.0090  144.6450 C   0  0  0  0  0  2  0  0  0  0  0  0
  187.6510  177.8130  143.1610 C   0  0  0  0  0  0  0  0  0  0  0  0
  189.2100  177.6300  138.2530 C   0  0  2  0  0  3  0  0  0  0  0  0
  188.8280  177.5070  142.5420 N   0  0  0  0  0  0  0  0  0  0  0  0
  190.3890  177.7980  139.2230 C   0  0  0  0  0  2  0  0  0  0  0  0
  188.9940  178.9190  137.4780 C   0  0  0  0  0  2  0  0  0  0  0  0
  185.4460  178.4230  140.1420 C   0  0  0  0  0  3  0  0  0  0  0  0
  185.4640  178.4230  138.7940 C   0  0  0  0  0  0  0  0  0  0  0  0
  186.5180  178.1520  142.3830 C   0  0  0  0  0  0  0  0  0  0  0  0
  190.2040  176.9970  140.5220 C   0  0  1  0  0  3  0  0  0  0  0  0
  187.4880  179.1250  137.3120 C   0  0  2  0  0  3  0  0  0  0  0  0
  186.2560  177.9550  145.2350 C   0  0  0  0  0  2  0  0  0  0  0  0
  185.1880  178.4140  143.0600 C   0  0  0  0  0  2  0  0  0  0  0  0
  181.8940  175.7880  139.5930 C   0  0  0  0  0  1  0  0  0  0  0  0
  181.6240  177.9440  141.4830 O   0  0  0  0  0  1  0  0  0  0  0  0
  182.1090  177.8850  136.8610 C   0  0  0  0  0  1  0  0  0  0  0  0
  182.7940  179.5460  140.1670 C   0  0  0  0  0  2  0  0  0  0  0  0
  184.0750  178.6150  138.1700 C   0  0  2  0  0  3  0  0  0  0  0  0
  182.1550  177.2510  139.2390 C   0  0  2  0  0  3  0  0  0  0  0  0
  183.3630  179.8320  138.7730 C   0  0  0  0  0  2  0  0  0  0  0  0
  183.0520  177.4610  137.9770 C   0  0  0  0  0  0  0  0  0  0  0  0
  183.7350  176.2010  137.4580 C   0  0  0  0  0  1  0  0  0  0  0  0
  182.5910  178.0600  140.4800 C   0  0  2  0  0  3  0  0  0  0  0  0
  191.3310  177.0600  141.3780 O   0  0  0  0  0  0  0  0  0  0  0  0
  192.4140  177.6630  140.7160 C   0  0  0  0  0  1  0  0  0  0  0  0
  1  3  1  6  0  0  0
  1 15  1  0  0  0  0
  1  4  1  0  0  0  0
  2  7  2  0  0  0  0
  2  5  1  0  0  0  0
  4  2  1  1  0  0  0
  5 11  2  0  0  0  0
  6 19  1  0  0  0  0
  7 16  1  0  0  0  0
  8 19  1  0  0  0  0
  9  8  1  0  0  0  0
 10 13  1  1  0  0  0
 10  4  1  0  0  0  0
 10 12  1  0  0  0  0
 11  9  1  0  0  0  0
 12 17  1  0  0  0  0
 14  7  1  0  0  0  0
 15 14  2  0  0  0  0
 16 20  1  0  0  0  0
 16  9  2  0  0  0  0
 17  5  1  0  0  0  0
 17 31  1  1  0  0  0
 18  3  1  6  0  0  0
 18 13  1  0  0  0  0
 18  1  1  0  0  0  0
 20  6  1  0  0  0  0
 23 28  1  0  0  0  0
 24 30  1  0  0  0  0
 25 27  1  0  0  0  0
 25 15  1  1  0  0  0
 26 21  1  1  0  0  0
 26 30  1  0  0  0  0
 27 24  1  0  0  0  0
 28 25  1  0  0  0  0
 28 26  1  0  0  0  0
 29 28  1  0  0  0  0
 30 22  1  1  0  0  0
 32 31  1  0  0  0  0
M  END
>  <MODEL>
9

>  <REMARK>
 VINA RESULT:      -7.4      2.359      8.163
  Name = 
  2 active torsions:
  status: ('A' for Active; 'I' for Inactive)
    1  A    between atoms: O_13  and  C_29
    2  A    between atoms: C_16  and  C_27
                            x       y       z     vdW  Elec       q    Type
                         _______ _______ _______ _____ _____    ______ ____

>  <TORSDO>
F 2

$$$$
