=
 OpenBabel10272415333D

 34 40  0  0  1  0  0  0  0  0999 V2000
  182.8610  175.0560  136.2490 C   0  0  2  0  0  3  0  0  0  0  0  0
  188.1840  174.3610  137.0970 C   0  0  0  0  0  2  0  0  0  0  0  0
  189.2130  178.7550  138.3330 C   0  0  2  0  0  3  0  0  0  0  0  0
  185.7650  175.3110  136.2910 C   0  0  1  0  0  0  0  0  0  0  0  0
  181.6390  174.8940  135.5990 O   0  0  0  0  0  1  0  0  0  0  0  0
  183.5400  176.3270  135.7410 C   0  0  0  0  0  2  0  0  0  0  0  0
  183.7430  173.8380  135.9830 C   0  0  0  0  0  2  0  0  0  0  0  0
  185.0800  173.9820  136.7040 C   0  0  1  0  0  3  0  0  0  0  0  0
  189.2300  176.5390  137.0510 C   0  0  2  0  0  3  0  0  0  0  0  0
  185.8570  172.8430  136.4900 O   0  0  0  0  0  1  0  0  0  0  0  0
  186.8190  175.3880  135.1680 C   0  0  0  0  0  0  0  0  0  0  0  0
  184.8700  176.5470  136.4560 C   0  0  0  0  0  2  0  0  0  0  0  0
  187.1240  174.1080  134.3960 C   0  0  0  0  0  1  0  0  0  0  0  0
  186.8680  176.6760  134.3530 C   0  0  0  0  0  1  0  0  0  0  0  0
  189.4650  175.0840  137.4610 C   0  0  0  0  0  2  0  0  0  0  0  0
  187.9140  178.3140  139.0310 C   0  0  2  0  0  3  0  0  0  0  0  0
  188.9170  179.6890  137.3390 O   0  0  0  0  0  1  0  0  0  0  0  0
  187.9710  176.8910  139.5690 C   0  0  0  0  0  2  0  0  0  0  0  0
  190.0710  177.6290  137.7470 C   0  0  2  0  0  3  0  0  0  0  0  0
  187.2550  175.4820  136.6530 C   0  0  2  0  0  0  0  0  0  0  0  0
  187.1600  177.1960  138.3110 C   0  0  2  0  0  3  0  0  0  0  0  0
  187.7800  176.7980  137.0170 N   0  0  1  0  0  0  0  0  0  0  0  0
  191.0590  177.0910  138.7790 C   0  0  0  0  0  2  0  0  0  0  0  0
  192.2900  177.5980  140.7180 C   0  0  0  0  0  2  0  0  0  0  0  0
  191.0720  177.9490  139.9570 N   0  0  0  0  0  0  0  0  0  0  0  0
  190.8120  175.7560  141.0800 O   0  0  0  0  0  1  0  0  0  0  0  0
  190.9970  177.1410  141.1920 C   0  0  1  0  0  0  0  0  0  0  0  0
  190.5600  177.8060  142.3540 O   0  0  0  0  0  0  0  0  0  0  0  0
  188.6250  176.5530  143.3370 C   0  0  0  0  0  2  0  0  0  0  0  0
  188.3790  177.2520  145.7350 C   0  0  0  0  0  2  0  0  0  0  0  0
  190.1190  176.8840  143.3310 C   0  0  2  0  0  3  0  0  0  0  0  0
  190.9940  176.8840  144.9450 S   0  0  0  0  0  0  0  0  0  0  0  0
  189.7540  177.8880  145.8250 C   0  0  0  0  0  2  0  0  0  0  0  0
  187.8360  177.4040  144.3240 C   0  0  0  0  0  2  0  0  0  0  0  0
  1  5  1  6  0  0  0
  2 15  1  0  0  0  0
  3 17  1  6  0  0  0
  3 16  1  0  0  0  0
  4 12  1  1  0  0  0
  4 20  1  0  0  0  0
  4  8  1  0  0  0  0
  6  1  1  0  0  0  0
  6 12  1  0  0  0  0
  7  1  1  0  0  0  0
  7  8  1  0  0  0  0
  8 10  1  6  0  0  0
  9 15  1  1  0  0  0
  9 19  1  0  0  0  0
 11  4  1  0  0  0  0
 11 20  1  0  0  0  0
 13 11  1  0  0  0  0
 14 11  1  0  0  0  0
 16 18  1  1  0  0  0
 19  3  1  0  0  0  0
 19 23  1  1  0  0  0
 20 22  1  0  0  0  0
 20  2  1  1  0  0  0
 21 16  1  0  0  0  0
 21 18  1  1  0  0  0
 22  9  1  0  0  0  0
 22 21  1  0  0  0  0
 23 25  1  0  0  0  0
 24 27  1  0  0  0  0
 25 24  1  0  0  0  0
 25 27  1  0  0  0  0
 26 27  1  0  0  0  0
 27 28  1  0  0  0  0
 28 31  1  0  0  0  0
 29 34  1  0  0  0  0
 30 33  1  0  0  0  0
 31 29  1  0  0  0  0
 31 32  1  0  0  0  0
 32 33  1  0  0  0  0
 34 30  1  0  0  0  0
M  END
>  <MODEL>
1

>  <REMARK>
 VINA RESULT:      -5.6      0.000      0.000
  Name = 
  4 active torsions:
  status: ('A' for Active; 'I' for Inactive)
    1  A    between atoms: C_3  and  N_18
    2  A    between atoms: C_3  and  C_31
    3  A    between atoms: C_14  and  O_16
    4  A    between atoms: O_16  and  C_28
                            x       y       z     vdW  Elec       q    Type
                         _______ _______ _______ _____ _____    ______ ____

>  <TORSDO>
F 4

$$$$
=
 OpenBabel10272415333D

 34 40  0  0  1  0  0  0  0  0999 V2000
  187.4900  178.0570  145.1550 C   0  0  2  0  0  3  0  0  0  0  0  0
  191.8390  177.8110  141.9040 C   0  0  0  0  0  2  0  0  0  0  0  0
  189.7060  176.0870  138.1130 C   0  0  2  0  0  3  0  0  0  0  0  0
  189.5560  177.2360  143.2680 C   0  0  1  0  0  0  0  0  0  0  0  0
  186.7760  177.9320  146.3450 O   0  0  0  0  0  1  0  0  0  0  0  0
  187.3330  176.7790  144.3330 C   0  0  0  0  0  2  0  0  0  0  0  0
  188.9630  178.3090  145.4700 C   0  0  0  0  0  2  0  0  0  0  0  0
  189.7630  178.4720  144.1810 C   0  0  1  0  0  3  0  0  0  0  0  0
  191.3200  176.3030  140.0880 C   0  0  2  0  0  3  0  0  0  0  0  0
  191.0970  178.7470  144.4850 O   0  0  0  0  0  1  0  0  0  0  0  0
  190.5340  176.0440  143.2510 C   0  0  0  0  0  0  0  0  0  0  0  0
  188.0820  176.8970  143.0090 C   0  0  0  0  0  2  0  0  0  0  0  0
  191.6990  176.0710  144.2350 C   0  0  0  0  0  1  0  0  0  0  0  0
  189.9420  174.6670  142.9690 C   0  0  0  0  0  1  0  0  0  0  0  0
  192.3110  177.3820  140.5300 C   0  0  0  0  0  2  0  0  0  0  0  0
  188.8440  177.2050  138.7260 C   0  0  2  0  0  3  0  0  0  0  0  0
  189.0990  174.8510  138.3380 O   0  0  0  0  0  1  0  0  0  0  0  0
  189.6540  178.4130  139.1800 C   0  0  0  0  0  2  0  0  0  0  0  0
  191.1660  176.0410  138.5760 C   0  0  2  0  0  3  0  0  0  0  0  0
  190.5260  177.0620  142.0820 C   0  0  2  0  0  0  0  0  0  0  0  0
  189.0860  177.4430  140.2160 C   0  0  2  0  0  3  0  0  0  0  0  0
  190.0550  176.4880  140.8210 N   0  0  1  0  0  0  0  0  0  0  0  0
  192.0550  176.9160  137.6970 C   0  0  0  0  0  2  0  0  0  0  0  0
  193.9460  176.8900  136.2980 C   0  0  0  0  0  2  0  0  0  0  0  0
  193.3540  176.2830  137.5100 N   0  0  0  0  0  0  0  0  0  0  0  0
  192.2250  175.4580  135.4650 O   0  0  0  0  0  1  0  0  0  0  0  0
  193.3960  175.5480  136.2270 C   0  0  1  0  0  0  0  0  0  0  0  0
  194.3800  174.5480  136.1080 O   0  0  0  0  0  0  0  0  0  0  0  0
  194.9800  173.3600  138.2320 C   0  0  0  0  0  2  0  0  0  0  0  0
  195.7200  171.0350  137.6440 C   0  0  0  0  0  2  0  0  0  0  0  0
  194.1110  173.4650  136.9760 C   0  0  2  0  0  3  0  0  0  0  0  0
  193.5280  171.8990  136.2150 S   0  0  0  0  0  0  0  0  0  0  0  0
  195.1500  171.0700  136.2390 C   0  0  0  0  0  2  0  0  0  0  0  0
  196.1710  172.4290  138.0490 C   0  0  0  0  0  2  0  0  0  0  0  0
  1  7  1  0  0  0  0
  1  5  1  1  0  0  0
  3 17  1  1  0  0  0
  3 19  1  0  0  0  0
  3 16  1  0  0  0  0
  4 12  1  6  0  0  0
  4  8  1  0  0  0  0
  6  1  1  0  0  0  0
  8 10  1  1  0  0  0
  8  7  1  0  0  0  0
  9 15  1  6  0  0  0
  9 22  1  0  0  0  0
 11  4  1  0  0  0  0
 11 13  1  0  0  0  0
 12  6  1  0  0  0  0
 14 11  1  0  0  0  0
 15  2  1  0  0  0  0
 16 18  1  6  0  0  0
 16 21  1  0  0  0  0
 19 23  1  6  0  0  0
 19  9  1  0  0  0  0
 20  2  1  6  0  0  0
 20 11  1  0  0  0  0
 20  4  1  0  0  0  0
 21 18  1  6  0  0  0
 21 22  1  0  0  0  0
 22 20  1  0  0  0  0
 24 25  1  0  0  0  0
 25 23  1  0  0  0  0
 26 27  1  0  0  0  0
 27 24  1  0  0  0  0
 27 25  1  0  0  0  0
 28 27  1  0  0  0  0
 28 31  1  0  0  0  0
 30 34  1  0  0  0  0
 31 29  1  0  0  0  0
 32 33  1  0  0  0  0
 32 31  1  0  0  0  0
 33 30  1  0  0  0  0
 34 29  1  0  0  0  0
M  END
>  <MODEL>
2

>  <REMARK>
 VINA RESULT:      -5.4      4.023      8.042
  Name = 
  4 active torsions:
  status: ('A' for Active; 'I' for Inactive)
    1  A    between atoms: C_3  and  N_18
    2  A    between atoms: C_3  and  C_31
    3  A    between atoms: C_14  and  O_16
    4  A    between atoms: O_16  and  C_28
                            x       y       z     vdW  Elec       q    Type
                         _______ _______ _______ _____ _____    ______ ____

>  <TORSDO>
F 4

$$$$
=
 OpenBabel10272415333D

 34 40  0  0  1  0  0  0  0  0999 V2000
  195.4110  171.0350  137.8860 C   0  0  2  0  0  3  0  0  0  0  0  0
  193.5210  176.1040  137.3660 C   0  0  0  0  0  2  0  0  0  0  0  0
  189.2560  175.0340  135.7690 C   0  0  2  0  0  3  0  0  0  0  0  0
  194.1750  173.4980  136.9350 C   0  0  1  0  0  0  0  0  0  0  0  0
  196.3490  170.0070  137.8080 O   0  0  0  0  0  1  0  0  0  0  0  0
  194.5590  171.0410  136.6180 C   0  0  0  0  0  2  0  0  0  0  0  0
  196.1350  172.3700  138.0480 C   0  0  0  0  0  2  0  0  0  0  0  0
  195.1280  173.5110  138.1590 C   0  0  1  0  0  3  0  0  0  0  0  0
  191.6100  176.0320  135.8890 C   0  0  2  0  0  3  0  0  0  0  0  0
  195.8010  174.7180  138.3520 O   0  0  0  0  0  1  0  0  0  0  0  0
  194.4170  174.3680  135.6860 C   0  0  0  0  0  0  0  0  0  0  0  0
  193.5030  172.1400  136.6870 C   0  0  0  0  0  2  0  0  0  0  0  0
  195.6910  175.2050  135.6430 C   0  0  0  0  0  1  0  0  0  0  0  0
  193.9580  173.7990  134.3470 C   0  0  0  0  0  1  0  0  0  0  0  0
  192.3310  176.9200  136.9060 C   0  0  0  0  0  2  0  0  0  0  0  0
  189.6170  174.1020  136.9390 C   0  0  2  0  0  3  0  0  0  0  0  0
  189.2810  174.3160  134.5730 O   0  0  0  0  0  1  0  0  0  0  0  0
  190.3000  174.8200  138.0950 C   0  0  0  0  0  2  0  0  0  0  0  0
  190.1130  176.2980  135.6340 C   0  0  2  0  0  3  0  0  0  0  0  0
  193.3090  174.7530  136.6990 C   0  0  2  0  0  0  0  0  0  0  0  0
  191.1180  173.9260  137.1650 C   0  0  2  0  0  3  0  0  0  0  0  0
  191.9570  174.6240  136.1530 N   0  0  1  0  0  0  0  0  0  0  0  0
  189.5340  177.4500  136.4510 C   0  0  0  0  0  2  0  0  0  0  0  0
  187.4260  177.9720  137.3530 C   0  0  0  0  0  2  0  0  0  0  0  0
  188.5010  176.9570  137.3520 N   0  0  0  0  0  0  0  0  0  0  0  0
  189.1880  178.9720  138.6190 O   0  0  0  0  0  1  0  0  0  0  0  0
  188.3200  177.8800  138.4930 C   0  0  1  0  0  0  0  0  0  0  0  0
  187.7050  177.3460  139.6420 O   0  0  0  0  0  0  0  0  0  0  0  0
  189.1950  177.6580  141.6340 C   0  0  0  0  0  2  0  0  0  0  0  0
  187.7790  177.4960  143.7010 C   0  0  0  0  0  2  0  0  0  0  0  0
  188.0080  178.1220  140.7850 C   0  0  2  0  0  3  0  0  0  0  0  0
  186.6050  178.9230  141.6560 S   0  0  0  0  0  0  0  0  0  0  0  0
  186.4620  177.6670  142.9680 C   0  0  0  0  0  2  0  0  0  0  0  0
  188.7750  176.7780  142.8040 C   0  0  0  0  0  2  0  0  0  0  0  0
  1  5  1  6  0  0  0
  1  7  1  0  0  0  0
  3 17  1  6  0  0  0
  3 16  1  0  0  0  0
  4 12  1  6  0  0  0
  4  8  1  0  0  0  0
  6 12  1  0  0  0  0
  6  1  1  0  0  0  0
  7  8  1  0  0  0  0
  8 10  1  6  0  0  0
  9 22  1  0  0  0  0
  9 15  1  1  0  0  0
 11 20  1  0  0  0  0
 11  4  1  0  0  0  0
 13 11  1  0  0  0  0
 14 11  1  0  0  0  0
 15  2  1  0  0  0  0
 16 21  1  0  0  0  0
 16 18  1  1  0  0  0
 19  3  1  0  0  0  0
 19  9  1  0  0  0  0
 19 23  1  1  0  0  0
 20  4  1  0  0  0  0
 20  2  1  1  0  0  0
 21 18  1  1  0  0  0
 22 20  1  0  0  0  0
 22 21  1  0  0  0  0
 23 25  1  0  0  0  0
 24 27  1  0  0  0  0
 25 24  1  0  0  0  0
 25 27  1  0  0  0  0
 27 26  1  0  0  0  0
 27 28  1  0  0  0  0
 28 31  1  0  0  0  0
 29 34  1  0  0  0  0
 31 29  1  0  0  0  0
 31 32  1  0  0  0  0
 32 33  1  0  0  0  0
 33 30  1  0  0  0  0
 34 30  1  0  0  0  0
M  END
>  <MODEL>
3

>  <REMARK>
 VINA RESULT:      -4.9      4.128      7.127
  Name = 
  4 active torsions:
  status: ('A' for Active; 'I' for Inactive)
    1  A    between atoms: C_3  and  N_18
    2  A    between atoms: C_3  and  C_31
    3  A    between atoms: C_14  and  O_16
    4  A    between atoms: O_16  and  C_28
                            x       y       z     vdW  Elec       q    Type
                         _______ _______ _______ _____ _____    ______ ____

>  <TORSDO>
F 4

$$$$
=
 OpenBabel10272415333D

 34 40  0  0  1  0  0  0  0  0999 V2000
  195.9870  176.2790  134.4290 C   0  0  2  0  0  3  0  0  0  0  0  0
  191.6490  173.4030  135.9920 C   0  0  0  0  0  2  0  0  0  0  0  0
  188.6380  176.9600  136.4020 C   0  0  2  0  0  3  0  0  0  0  0  0
  193.6080  175.2790  135.7860 C   0  0  1  0  0  0  0  0  0  0  0  0
  197.3320  176.6420  134.3880 O   0  0  0  0  0  1  0  0  0  0  0  0
  195.2620  177.1350  135.4660 C   0  0  0  0  0  2  0  0  0  0  0  0
  195.8720  174.7990  134.7860 C   0  0  0  0  0  2  0  0  0  0  0  0
  194.4070  174.3710  134.8160 C   0  0  1  0  0  3  0  0  0  0  0  0
  190.0750  174.9310  137.0070 C   0  0  2  0  0  3  0  0  0  0  0  0
  194.3190  173.0070  135.0980 O   0  0  0  0  0  1  0  0  0  0  0  0
  193.3350  174.8870  137.2520 C   0  0  0  0  0  0  0  0  0  0  0  0
  193.7790  176.7800  135.5130 C   0  0  0  0  0  2  0  0  0  0  0  0
  193.9520  173.5900  137.7650 C   0  0  0  0  0  1  0  0  0  0  0  0
  193.2520  176.0240  138.2680 C   0  0  0  0  0  1  0  0  0  0  0  0
  190.2040  173.5180  136.4330 C   0  0  0  0  0  2  0  0  0  0  0  0
  189.4510  177.1200  135.1050 C   0  0  2  0  0  3  0  0  0  0  0  0
  189.0430  177.9190  137.3310 O   0  0  0  0  0  1  0  0  0  0  0  0
  189.6410  175.8140  134.3460 C   0  0  0  0  0  2  0  0  0  0  0  0
  188.6720  175.5690  137.0430 C   0  0  2  0  0  3  0  0  0  0  0  0
  192.1990  174.8060  136.2000 C   0  0  2  0  0  0  0  0  0  0  0  0
  190.8080  176.4190  135.1220 C   0  0  2  0  0  3  0  0  0  0  0  0
  191.1310  175.7800  136.4280 N   0  0  1  0  0  0  0  0  0  0  0  0
  187.5650  174.6750  136.4910 C   0  0  0  0  0  2  0  0  0  0  0  0
  185.3370  173.9450  136.6860 C   0  0  0  0  0  2  0  0  0  0  0  0
  186.3910  174.7390  137.3530 N   0  0  0  0  0  0  0  0  0  0  0  0
  185.4890  175.9420  135.3850 O   0  0  0  0  0  1  0  0  0  0  0  0
  185.2650  175.3940  136.6550 C   0  0  1  0  0  0  0  0  0  0  0  0
  184.2420  175.9200  137.4660 O   0  0  0  0  0  0  0  0  0  0  0  0
  185.1670  178.1790  138.0360 C   0  0  0  0  0  2  0  0  0  0  0  0
  183.3830  179.4730  139.2370 C   0  0  0  0  0  2  0  0  0  0  0  0
  184.1330  177.3200  137.3020 C   0  0  2  0  0  3  0  0  0  0  0  0
  182.4480  178.0170  137.0920 S   0  0  0  0  0  0  0  0  0  0  0  0
  182.2530  178.5490  138.8240 C   0  0  0  0  0  2  0  0  0  0  0  0
  184.6680  178.6760  139.3870 C   0  0  0  0  0  2  0  0  0  0  0  0
  1  5  1  1  0  0  0
  1  7  1  0  0  0  0
  1  6  1  0  0  0  0
  2 15  1  0  0  0  0
  3 19  1  0  0  0  0
  3 17  1  1  0  0  0
  4 12  1  6  0  0  0
  4 20  1  0  0  0  0
  4 11  1  0  0  0  0
  6 12  1  0  0  0  0
  7  8  1  0  0  0  0
  8 10  1  1  0  0  0
  8  4  1  0  0  0  0
  9 15  1  6  0  0  0
  9 19  1  0  0  0  0
 11 13  1  0  0  0  0
 11 14  1  0  0  0  0
 16 18  1  6  0  0  0
 16 21  1  0  0  0  0
 16  3  1  0  0  0  0
 19 23  1  6  0  0  0
 20  2  1  6  0  0  0
 20 22  1  0  0  0  0
 20 11  1  0  0  0  0
 21 18  1  6  0  0  0
 21 22  1  0  0  0  0
 22  9  1  0  0  0  0
 23 25  1  0  0  0  0
 24 25  1  0  0  0  0
 26 27  1  0  0  0  0
 27 24  1  0  0  0  0
 27 25  1  0  0  0  0
 27 28  1  0  0  0  0
 29 34  1  0  0  0  0
 30 34  1  0  0  0  0
 31 28  1  0  0  0  0
 31 29  1  0  0  0  0
 32 31  1  0  0  0  0
 32 33  1  0  0  0  0
 33 30  1  0  0  0  0
M  END
>  <MODEL>
4

>  <REMARK>
 VINA RESULT:      -4.8      4.359      7.904
  Name = 
  4 active torsions:
  status: ('A' for Active; 'I' for Inactive)
    1  A    between atoms: C_3  and  N_18
    2  A    between atoms: C_3  and  C_31
    3  A    between atoms: C_14  and  O_16
    4  A    between atoms: O_16  and  C_28
                            x       y       z     vdW  Elec       q    Type
                         _______ _______ _______ _____ _____    ______ ____

>  <TORSDO>
F 4

$$$$
=
 OpenBabel10272415333D

 34 40  0  0  1  0  0  0  0  0999 V2000
  198.8500  174.0830  135.4130 C   0  0  2  0  0  3  0  0  0  0  0  0
  193.7910  172.1080  135.5930 C   0  0  0  0  0  2  0  0  0  0  0  0
  191.6160  176.0400  136.8970 C   0  0  2  0  0  3  0  0  0  0  0  0
  196.1240  173.3820  136.1710 C   0  0  1  0  0  0  0  0  0  0  0  0
  200.2310  174.0780  135.6020 O   0  0  0  0  0  1  0  0  0  0  0  0
  198.1770  174.7510  136.6100 C   0  0  0  0  0  2  0  0  0  0  0  0
  198.3550  172.6470  135.2560 C   0  0  0  0  0  2  0  0  0  0  0  0
  196.8470  172.6270  135.0260 C   0  0  1  0  0  3  0  0  0  0  0  0
  192.4530  173.6210  136.9210 C   0  0  2  0  0  3  0  0  0  0  0  0
  196.4150  171.3130  134.8390 O   0  0  0  0  0  1  0  0  0  0  0  0
  195.5400  172.6590  137.4020 C   0  0  0  0  0  0  0  0  0  0  0  0
  196.6640  174.7970  136.4190 C   0  0  0  0  0  2  0  0  0  0  0  0
  195.7640  171.1540  137.5100 C   0  0  0  0  0  1  0  0  0  0  0  0
  195.5500  173.4230  138.7220 C   0  0  0  0  0  1  0  0  0  0  0  0
  192.3560  172.4590  135.9290 C   0  0  0  0  0  2  0  0  0  0  0  0
  192.6410  176.3590  135.7950 C   0  0  2  0  0  3  0  0  0  0  0  0
  192.0700  176.5400  138.1180 O   0  0  0  0  0  1  0  0  0  0  0  0
  192.6560  175.3350  134.6680 C   0  0  0  0  0  2  0  0  0  0  0  0
  191.2390  174.5630  137.0500 C   0  0  2  0  0  3  0  0  0  0  0  0
  194.5980  173.1920  136.2920 C   0  0  2  0  0  0  0  0  0  0  0  0
  193.7890  175.3560  135.6920 C   0  0  2  0  0  3  0  0  0  0  0  0
  193.7490  174.2980  136.7380 N   0  0  1  0  0  0  0  0  0  0  0  0
  190.0640  174.1940  136.1470 C   0  0  0  0  0  2  0  0  0  0  0  0
  187.7420  173.8700  135.9620 C   0  0  0  0  0  2  0  0  0  0  0  0
  188.8290  174.1580  136.9210 N   0  0  0  0  0  0  0  0  0  0  0  0
  188.3440  176.1370  135.5120 O   0  0  0  0  0  1  0  0  0  0  0  0
  187.9020  175.2190  136.4730 C   0  0  1  0  0  0  0  0  0  0  0  0
  186.8930  175.5960  137.3790 O   0  0  0  0  0  0  0  0  0  0  0  0
  186.3460  178.0410  137.4560 C   0  0  0  0  0  2  0  0  0  0  0  0
  183.9310  178.2820  138.0950 C   0  0  0  0  0  2  0  0  0  0  0  0
  186.1100  176.6520  136.8570 C   0  0  2  0  0  3  0  0  0  0  0  0
  184.4090  176.2460  136.3010 S   0  0  0  0  0  0  0  0  0  0  0  0
  183.5780  176.8340  137.8120 C   0  0  0  0  0  2  0  0  0  0  0  0
  185.3700  178.3730  138.5770 C   0  0  0  0  0  2  0  0  0  0  0  0
  1  5  1  1  0  0  0
  1  6  1  0  0  0  0
  2 15  1  0  0  0  0
  3 19  1  0  0  0  0
  3 17  1  1  0  0  0
  4 20  1  0  0  0  0
  4 12  1  1  0  0  0
  4 11  1  0  0  0  0
  7  1  1  0  0  0  0
  8 10  1  1  0  0  0
  8  7  1  0  0  0  0
  8  4  1  0  0  0  0
  9 15  1  6  0  0  0
  9 19  1  0  0  0  0
 11 13  1  0  0  0  0
 11 14  1  0  0  0  0
 12  6  1  0  0  0  0
 16 18  1  6  0  0  0
 16  3  1  0  0  0  0
 19 23  1  6  0  0  0
 20  2  1  6  0  0  0
 20 22  1  0  0  0  0
 20 11  1  0  0  0  0
 21 18  1  6  0  0  0
 21 16  1  0  0  0  0
 21 22  1  0  0  0  0
 22  9  1  0  0  0  0
 23 25  1  0  0  0  0
 24 27  1  0  0  0  0
 24 25  1  0  0  0  0
 26 27  1  0  0  0  0
 27 25  1  0  0  0  0
 27 28  1  0  0  0  0
 29 34  1  0  0  0  0
 30 34  1  0  0  0  0
 31 28  1  0  0  0  0
 31 29  1  0  0  0  0
 32 31  1  0  0  0  0
 32 33  1  0  0  0  0
 33 30  1  0  0  0  0
M  END
>  <MODEL>
5

>  <REMARK>
 VINA RESULT:      -4.7      5.660      9.168
  Name = 
  4 active torsions:
  status: ('A' for Active; 'I' for Inactive)
    1  A    between atoms: C_3  and  N_18
    2  A    between atoms: C_3  and  C_31
    3  A    between atoms: C_14  and  O_16
    4  A    between atoms: O_16  and  C_28
                            x       y       z     vdW  Elec       q    Type
                         _______ _______ _______ _____ _____    ______ ____

>  <TORSDO>
F 4

$$$$
=
 OpenBabel10272415333D

 34 40  0  0  1  0  0  0  0  0999 V2000
  190.6940  176.9560  140.0620 C   0  0  2  0  0  3  0  0  0  0  0  0
  186.3480  176.7450  136.8050 C   0  0  0  0  0  2  0  0  0  0  0  0
  187.0930  172.4840  135.0210 C   0  0  2  0  0  3  0  0  0  0  0  0
  188.8710  176.6010  137.8140 C   0  0  1  0  0  0  0  0  0  0  0  0
  191.7950  177.5380  140.6860 O   0  0  0  0  0  1  0  0  0  0  0  0
  191.1500  176.2400  138.7910 C   0  0  0  0  0  2  0  0  0  0  0  0
  189.6700  178.0380  139.7250 C   0  0  0  0  0  2  0  0  0  0  0  0
  188.4440  177.4220  139.0590 C   0  0  1  0  0  3  0  0  0  0  0  0
  186.7380  175.0150  135.1630 C   0  0  2  0  0  3  0  0  0  0  0  0
  187.4990  178.4150  138.7990 O   0  0  0  0  0  1  0  0  0  0  0  0
  188.8510  177.1880  136.3880 C   0  0  0  0  0  0  0  0  0  0  0  0
  189.9690  175.5680  138.1000 C   0  0  0  0  0  2  0  0  0  0  0  0
  188.4700  178.6560  136.2320 C   0  0  0  0  0  1  0  0  0  0  0  0
  189.9090  176.6760  135.4160 C   0  0  0  0  0  1  0  0  0  0  0  0
  185.6420  175.8960  135.7670 C   0  0  0  0  0  2  0  0  0  0  0  0
  187.3400  172.4570  136.5390 C   0  0  2  0  0  3  0  0  0  0  0  0
  188.3090  172.3760  134.3460 O   0  0  0  0  0  1  0  0  0  0  0  0
  186.3050  173.2410  137.3340 C   0  0  0  0  0  2  0  0  0  0  0  0
  186.3120  173.6930  134.4940 C   0  0  2  0  0  3  0  0  0  0  0  0
  187.7600  176.1790  136.8300 C   0  0  2  0  0  0  0  0  0  0  0  0
  187.7080  173.8130  137.1420 C   0  0  2  0  0  3  0  0  0  0  0  0
  187.8430  174.8960  136.1300 N   0  0  1  0  0  0  0  0  0  0  0  0
  184.8080  173.4360  134.5190 C   0  0  0  0  0  2  0  0  0  0  0  0
  183.3890  172.0140  135.7430 C   0  0  0  0  0  2  0  0  0  0  0  0
  184.3780  173.1050  135.8720 N   0  0  0  0  0  0  0  0  0  0  0  0
  182.2290  173.9590  134.9820 O   0  0  0  0  0  1  0  0  0  0  0  0
  182.9310  173.3600  136.0360 C   0  0  1  0  0  0  0  0  0  0  0  0
  182.4660  173.5150  137.3560 O   0  0  0  0  0  0  0  0  0  0  0  0
  182.6570  175.9340  137.9850 C   0  0  0  0  0  2  0  0  0  0  0  0
  181.1780  176.3440  139.9710 C   0  0  0  0  0  2  0  0  0  0  0  0
  181.8020  174.7540  137.5170 C   0  0  2  0  0  3  0  0  0  0  0  0
  180.0500  174.7070  138.0620 S   0  0  0  0  0  0  0  0  0  0  0  0
  180.3960  175.0530  139.8170 C   0  0  0  0  0  2  0  0  0  0  0  0
  182.6060  176.1380  139.4940 C   0  0  0  0  0  2  0  0  0  0  0  0
  1  5  1  6  0  0  0
  3 17  1  6  0  0  0
  3 16  1  0  0  0  0
  4 12  1  1  0  0  0
  4  8  1  0  0  0  0
  6  1  1  0  0  0  0
  7  1  1  0  0  0  0
  8 10  1  6  0  0  0
  8  7  1  0  0  0  0
  9 15  1  1  0  0  0
  9 22  1  0  0  0  0
 11 20  1  0  0  0  0
 11  4  1  0  0  0  0
 12  6  1  0  0  0  0
 13 11  1  0  0  0  0
 14 11  1  0  0  0  0
 15  2  1  0  0  0  0
 16 21  1  0  0  0  0
 16 18  1  1  0  0  0
 19 23  1  1  0  0  0
 19  3  1  0  0  0  0
 19  9  1  0  0  0  0
 20  2  1  1  0  0  0
 20  4  1  0  0  0  0
 21 18  1  1  0  0  0
 22 20  1  0  0  0  0
 22 21  1  0  0  0  0
 23 25  1  0  0  0  0
 24 25  1  0  0  0  0
 24 27  1  0  0  0  0
 25 27  1  0  0  0  0
 26 27  1  0  0  0  0
 27 28  1  0  0  0  0
 28 31  1  0  0  0  0
 29 34  1  0  0  0  0
 31 29  1  0  0  0  0
 31 32  1  0  0  0  0
 32 33  1  0  0  0  0
 33 30  1  0  0  0  0
 34 30  1  0  0  0  0
M  END
>  <MODEL>
6

>  <REMARK>
 VINA RESULT:      -4.5      3.414      7.701
  Name = 
  4 active torsions:
  status: ('A' for Active; 'I' for Inactive)
    1  A    between atoms: C_3  and  N_18
    2  A    between atoms: C_3  and  C_31
    3  A    between atoms: C_14  and  O_16
    4  A    between atoms: O_16  and  C_28
                            x       y       z     vdW  Elec       q    Type
                         _______ _______ _______ _____ _____    ______ ____

>  <TORSDO>
F 4

$$$$
=
 OpenBabel10272415333D

 34 40  0  0  1  0  0  0  0  0999 V2000
  182.2670  176.0340  137.1540 C   0  0  2  0  0  3  0  0  0  0  0  0
  187.4390  174.4170  136.7460 C   0  0  0  0  0  2  0  0  0  0  0  0
  189.4690  178.5240  137.6960 C   0  0  2  0  0  3  0  0  0  0  0  0
  185.1020  175.7930  136.5210 C   0  0  1  0  0  0  0  0  0  0  0  0
  180.9190  176.1060  136.8060 O   0  0  0  0  0  1  0  0  0  0  0  0
  183.0210  177.1900  136.4990 C   0  0  0  0  0  2  0  0  0  0  0  0
  182.8400  174.6960  136.6950 C   0  0  0  0  0  2  0  0  0  0  0  0
  184.3100  174.5840  137.0840 C   0  0  1  0  0  3  0  0  0  0  0  0
  188.8080  176.3870  136.4520 C   0  0  2  0  0  3  0  0  0  0  0  0
  184.8080  173.3390  136.6990 O   0  0  0  0  0  1  0  0  0  0  0  0
  185.8680  175.7320  135.1830 C   0  0  0  0  0  0  0  0  0  0  0  0
  184.4970  177.1550  136.8850 C   0  0  0  0  0  2  0  0  0  0  0  0
  185.7610  174.4490  134.3650 C   0  0  0  0  0  1  0  0  0  0  0  0
  185.9520  177.0230  134.3750 C   0  0  0  0  0  1  0  0  0  0  0  0
  188.8750  174.8980  136.7990 C   0  0  0  0  0  2  0  0  0  0  0  0
  188.3090  178.2840  138.6770 C   0  0  2  0  0  3  0  0  0  0  0  0
  189.1210  179.5310  136.7960 O   0  0  0  0  0  1  0  0  0  0  0  0
  188.2400  176.8520  139.1920 C   0  0  0  0  0  2  0  0  0  0  0  0
  189.9620  177.2910  136.9300 C   0  0  2  0  0  3  0  0  0  0  0  0
  186.6420  175.6950  136.5260 C   0  0  2  0  0  0  0  0  0  0  0  0
  187.2280  177.3370  138.1560 C   0  0  2  0  0  3  0  0  0  0  0  0
  187.4560  176.8890  136.7550 N   0  0  1  0  0  0  0  0  0  0  0  0
  191.0520  176.5560  137.7060 C   0  0  0  0  0  2  0  0  0  0  0  0
  192.4340  174.6530  137.7180 C   0  0  0  0  0  2  0  0  0  0  0  0
  191.7360  175.6100  136.8330 N   0  0  0  0  0  0  0  0  0  0  0  0
  193.7150  176.6620  137.8890 O   0  0  0  0  0  1  0  0  0  0  0  0
  193.1990  175.6790  137.0340 C   0  0  1  0  0  0  0  0  0  0  0  0
  194.0020  175.1750  135.9930 O   0  0  0  0  0  0  0  0  0  0  0  0
  196.2350  175.8400  135.0690 C   0  0  0  0  0  2  0  0  0  0  0  0
  197.8120  173.9110  135.3730 C   0  0  0  0  0  2  0  0  0  0  0  0
  195.3730  175.4000  136.2550 C   0  0  2  0  0  3  0  0  0  0  0  0
  196.1680  174.3570  137.5400 S   0  0  0  0  0  0  0  0  0  0  0  0
  196.9340  173.1840  136.3750 C   0  0  0  0  0  2  0  0  0  0  0  0
  196.9410  174.6740  134.3890 C   0  0  0  0  0  2  0  0  0  0  0  0
  1  5  1  6  0  0  0
  2 15  1  0  0  0  0
  3 17  1  6  0  0  0
  3 16  1  0  0  0  0
  4 20  1  0  0  0  0
  4 12  1  1  0  0  0
  4  8  1  0  0  0  0
  6 12  1  0  0  0  0
  6  1  1  0  0  0  0
  7  8  1  0  0  0  0
  7  1  1  0  0  0  0
  8 10  1  6  0  0  0
  9 22  1  0  0  0  0
  9 15  1  1  0  0  0
  9 19  1  0  0  0  0
 11  4  1  0  0  0  0
 11 20  1  0  0  0  0
 13 11  1  0  0  0  0
 14 11  1  0  0  0  0
 16 18  1  1  0  0  0
 19  3  1  0  0  0  0
 19 23  1  1  0  0  0
 20  2  1  1  0  0  0
 20 22  1  0  0  0  0
 21 16  1  0  0  0  0
 21 18  1  1  0  0  0
 22 21  1  0  0  0  0
 25 27  1  0  0  0  0
 25 23  1  0  0  0  0
 25 24  1  0  0  0  0
 27 24  1  0  0  0  0
 27 26  1  0  0  0  0
 28 31  1  0  0  0  0
 28 27  1  0  0  0  0
 29 31  1  0  0  0  0
 30 33  1  0  0  0  0
 31 32  1  0  0  0  0
 33 32  1  0  0  0  0
 34 29  1  0  0  0  0
 34 30  1  0  0  0  0
M  END
>  <MODEL>
7

>  <REMARK>
 VINA RESULT:      -4.3      3.647      5.461
  Name = 
  4 active torsions:
  status: ('A' for Active; 'I' for Inactive)
    1  A    between atoms: C_3  and  N_18
    2  A    between atoms: C_3  and  C_31
    3  A    between atoms: C_14  and  O_16
    4  A    between atoms: O_16  and  C_28
                            x       y       z     vdW  Elec       q    Type
                         _______ _______ _______ _____ _____    ______ ____

>  <TORSDO>
F 4

$$$$
=
 OpenBabel10272415333D

 34 40  0  0  1  0  0  0  0  0999 V2000
  197.4020  174.6640  138.4590 C   0  0  2  0  0  3  0  0  0  0  0  0
  193.6790  175.6730  134.6300 C   0  0  0  0  0  2  0  0  0  0  0  0
  189.8670  174.8630  137.2180 C   0  0  2  0  0  3  0  0  0  0  0  0
  195.1120  174.5600  136.6590 C   0  0  1  0  0  0  0  0  0  0  0  0
  198.5920  174.1630  138.9830 O   0  0  0  0  0  1  0  0  0  0  0  0
  196.2840  173.6470  138.6770 C   0  0  0  0  0  2  0  0  0  0  0  0
  197.5830  174.9460  136.9690 C   0  0  0  0  0  2  0  0  0  0  0  0
  196.2990  175.5170  136.3750 C   0  0  1  0  0  3  0  0  0  0  0  0
  191.5980  174.6730  135.3420 C   0  0  2  0  0  3  0  0  0  0  0  0
  196.4920  175.8110  135.0250 O   0  0  0  0  0  1  0  0  0  0  0  0
  194.6360  173.5050  135.6400 C   0  0  0  0  0  0  0  0  0  0  0  0
  194.9600  174.1810  138.1380 C   0  0  0  0  0  2  0  0  0  0  0  0
  195.4300  173.3630  134.3460 C   0  0  0  0  0  1  0  0  0  0  0  0
  194.0600  172.2090  136.2050 C   0  0  0  0  0  1  0  0  0  0  0  0
  192.1910  175.6720  134.3470 C   0  0  0  0  0  2  0  0  0  0  0  0
  190.8730  175.6970  138.0300 C   0  0  2  0  0  3  0  0  0  0  0  0
  189.8140  173.5660  137.7280 O   0  0  0  0  0  1  0  0  0  0  0  0
  191.5380  176.8010  137.2180 C   0  0  0  0  0  2  0  0  0  0  0  0
  190.1060  174.8170  135.7050 C   0  0  2  0  0  3  0  0  0  0  0  0
  193.8080  174.7950  135.8670 C   0  0  2  0  0  0  0  0  0  0  0  0
  192.3260  175.5440  137.5820 C   0  0  2  0  0  3  0  0  0  0  0  0
  192.5090  174.5450  136.4930 N   0  0  1  0  0  0  0  0  0  0  0  0
  189.3980  175.9690  134.9960 C   0  0  0  0  0  2  0  0  0  0  0  0
  187.3690  177.0780  134.5660 C   0  0  0  0  0  2  0  0  0  0  0  0
  187.9690  175.9290  135.2780 N   0  0  0  0  0  0  0  0  0  0  0  0
  188.5260  178.0610  136.4100 O   0  0  0  0  0  1  0  0  0  0  0  0
  187.5470  177.1450  136.0050 C   0  0  1  0  0  0  0  0  0  0  0  0
  186.3370  177.0620  136.7210 O   0  0  0  0  0  0  0  0  0  0  0  0
  184.1740  176.8010  135.4820 C   0  0  0  0  0  2  0  0  0  0  0  0
  182.6690  175.3220  136.8420 C   0  0  0  0  0  2  0  0  0  0  0  0
  185.4330  176.1770  136.0890 C   0  0  2  0  0  3  0  0  0  0  0  0
  185.2930  174.4810  136.7780 S   0  0  0  0  0  0  0  0  0  0  0  0
  183.7770  174.7990  137.7370 C   0  0  0  0  0  2  0  0  0  0  0  0
  182.9780  176.7500  136.4250 C   0  0  0  0  0  2  0  0  0  0  0  0
  1  6  1  0  0  0  0
  1  5  1  6  0  0  0
  3 17  1  1  0  0  0
  3 16  1  0  0  0  0
  4 12  1  1  0  0  0
  7  1  1  0  0  0  0
  8 10  1  6  0  0  0
  8  4  1  0  0  0  0
  8  7  1  0  0  0  0
  9 15  1  1  0  0  0
  9 19  1  0  0  0  0
  9 22  1  0  0  0  0
 11 20  1  0  0  0  0
 11 14  1  0  0  0  0
 11  4  1  0  0  0  0
 12  6  1  0  0  0  0
 13 11  1  0  0  0  0
 15  2  1  0  0  0  0
 16 18  1  6  0  0  0
 19 23  1  6  0  0  0
 19  3  1  0  0  0  0
 20  2  1  6  0  0  0
 20 22  1  0  0  0  0
 20  4  1  0  0  0  0
 21 18  1  6  0  0  0
 21 16  1  0  0  0  0
 22 21  1  0  0  0  0
 23 25  1  0  0  0  0
 24 25  1  0  0  0  0
 24 27  1  0  0  0  0
 25 27  1  0  0  0  0
 27 26  1  0  0  0  0
 27 28  1  0  0  0  0
 29 31  1  0  0  0  0
 29 34  1  0  0  0  0
 30 33  1  0  0  0  0
 31 28  1  0  0  0  0
 31 32  1  0  0  0  0
 32 33  1  0  0  0  0
 34 30  1  0  0  0  0
M  END
>  <MODEL>
8

>  <REMARK>
 VINA RESULT:      -4.3      4.637      8.797
  Name = 
  4 active torsions:
  status: ('A' for Active; 'I' for Inactive)
    1  A    between atoms: C_3  and  N_18
    2  A    between atoms: C_3  and  C_31
    3  A    between atoms: C_14  and  O_16
    4  A    between atoms: O_16  and  C_28
                            x       y       z     vdW  Elec       q    Type
                         _______ _______ _______ _____ _____    ______ ____

>  <TORSDO>
F 4

$$$$
=
 OpenBabel10272415333D

 34 40  0  0  1  0  0  0  0  0999 V2000
  190.0950  176.6100  138.3510 C   0  0  2  0  0  3  0  0  0  0  0  0
  185.2310  177.0750  135.9720 C   0  0  0  0  0  2  0  0  0  0  0  0
  184.0610  172.5450  136.0200 C   0  0  2  0  0  3  0  0  0  0  0  0
  187.7400  176.2820  136.6640 C   0  0  1  0  0  0  0  0  0  0  0  0
  191.4480  176.8750  138.5560 O   0  0  0  0  0  1  0  0  0  0  0  0
  189.9490  175.3900  137.4430 C   0  0  0  0  0  2  0  0  0  0  0  0
  189.4290  177.8290  137.7160 C   0  0  0  0  0  2  0  0  0  0  0  0
  187.9410  177.5710  137.5020 C   0  0  1  0  0  3  0  0  0  0  0  0
  184.5990  174.8920  135.1500 C   0  0  2  0  0  3  0  0  0  0  0  0
  187.3370  178.7080  136.9650 O   0  0  0  0  0  1  0  0  0  0  0  0
  187.5440  176.3090  135.1350 C   0  0  0  0  0  0  0  0  0  0  0  0
  188.4760  175.0570  137.2240 C   0  0  0  0  0  2  0  0  0  0  0  0
  187.6340  177.6610  134.4350 C   0  0  0  0  0  1  0  0  0  0  0  0
  188.0880  175.1220  134.3460 C   0  0  0  0  0  1  0  0  0  0  0  0
  184.0450  176.2850  135.4580 C   0  0  0  0  0  2  0  0  0  0  0  0
  184.6700  172.9340  137.3780 C   0  0  2  0  0  3  0  0  0  0  0  0
  184.9570  171.7380  135.3180 O   0  0  0  0  0  1  0  0  0  0  0  0
  184.1890  174.2850  137.8910 C   0  0  0  0  0  2  0  0  0  0  0  0
  183.6080  173.7100  135.1330 C   0  0  2  0  0  3  0  0  0  0  0  0
  186.3380  176.0350  136.0690 C   0  0  2  0  0  0  0  0  0  0  0  0
  185.6020  174.1450  137.3270 C   0  0  2  0  0  3  0  0  0  0  0  0
  185.8150  174.6730  135.9520 N   0  0  1  0  0  0  0  0  0  0  0  0
  182.1630  174.1020  135.4290 C   0  0  0  0  0  2  0  0  0  0  0  0
  180.4960  173.7570  137.0520 C   0  0  0  0  0  2  0  0  0  0  0  0
  181.9240  174.0920  136.8670 N   0  0  0  0  0  0  0  0  0  0  0  0
  180.4770  176.0060  136.2490 O   0  0  0  0  0  1  0  0  0  0  0  0
  180.9360  175.1270  137.2390 C   0  0  1  0  0  0  0  0  0  0  0  0
  180.9310  175.5360  138.5860 O   0  0  0  0  0  0  0  0  0  0  0  0
  182.7070  177.2790  138.8840 C   0  0  0  0  0  2  0  0  0  0  0  0
  182.2330  178.5220  141.0120 C   0  0  0  0  0  2  0  0  0  0  0  0
  181.2320  176.9130  138.6990 C   0  0  2  0  0  3  0  0  0  0  0  0
  179.9840  177.9860  139.5120 S   0  0  0  0  0  0  0  0  0  0  0  0
  180.8060  178.0220  141.1380 C   0  0  0  0  0  2  0  0  0  0  0  0
  183.0910  177.4590  140.3470 C   0  0  0  0  0  2  0  0  0  0  0  0
  1  5  1  6  0  0  0
  3 17  1  6  0  0  0
  3 16  1  0  0  0  0
  4 12  1  1  0  0  0
  4  8  1  0  0  0  0
  6  1  1  0  0  0  0
  7  1  1  0  0  0  0
  8 10  1  6  0  0  0
  8  7  1  0  0  0  0
  9 15  1  1  0  0  0
  9 22  1  0  0  0  0
 11 20  1  0  0  0  0
 11  4  1  0  0  0  0
 12  6  1  0  0  0  0
 13 11  1  0  0  0  0
 14 11  1  0  0  0  0
 15  2  1  0  0  0  0
 16 18  1  1  0  0  0
 19  9  1  0  0  0  0
 19 23  1  1  0  0  0
 19  3  1  0  0  0  0
 20  2  1  1  0  0  0
 20  4  1  0  0  0  0
 21 16  1  0  0  0  0
 21 18  1  1  0  0  0
 22 20  1  0  0  0  0
 22 21  1  0  0  0  0
 23 25  1  0  0  0  0
 24 27  1  0  0  0  0
 25 24  1  0  0  0  0
 25 27  1  0  0  0  0
 26 27  1  0  0  0  0
 27 28  1  0  0  0  0
 28 31  1  0  0  0  0
 29 34  1  0  0  0  0
 30 33  1  0  0  0  0
 31 29  1  0  0  0  0
 31 32  1  0  0  0  0
 32 33  1  0  0  0  0
 34 30  1  0  0  0  0
M  END
>  <MODEL>
9

>  <REMARK>
 VINA RESULT:      -4.3      3.840      7.663
  Name = 
  4 active torsions:
  status: ('A' for Active; 'I' for Inactive)
    1  A    between atoms: C_3  and  N_18
    2  A    between atoms: C_3  and  C_31
    3  A    between atoms: C_14  and  O_16
    4  A    between atoms: O_16  and  C_28
                            x       y       z     vdW  Elec       q    Type
                         _______ _______ _______ _____ _____    ______ ____

>  <TORSDO>
F 4

$$$$
