=
 OpenBabel10272415243D

 34 39  0  0  1  0  0  0  0  0999 V2000
  188.7490  177.7680  143.4010 C   0  0  0  0  0  0  0  0  0  0  0  0
  191.0040  177.6360  142.1320 C   0  0  0  0  0  0  0  0  0  0  0  0
  191.6500  177.9670  144.4840 C   0  0  0  0  0  3  0  0  0  0  0  0
  186.7870  177.6740  145.4300 C   0  0  0  0  0  3  0  0  0  0  0  0
  187.3930  178.0520  143.1450 C   0  0  0  0  0  3  0  0  0  0  0  0
  188.1170  177.4070  145.7370 C   0  0  0  0  0  0  0  0  0  0  0  0
  189.7390  176.8430  147.4300 C   0  0  0  0  0  3  0  0  0  0  0  0
  188.4200  177.0360  147.0470 C   0  0  0  0  0  3  0  0  0  0  0  0
  186.4150  178.0440  144.1400 C   0  0  0  0  0  0  0  0  0  0  0  0
  190.4870  177.4290  145.1890 C   0  0  0  0  0  0  0  0  0  0  0  0
  189.1420  177.5320  144.7490 C   0  0  0  0  0  0  0  0  0  0  0  0
  190.7590  177.0710  146.5140 C   0  0  0  0  0  3  0  0  0  0  0  0
  191.6680  177.4020  140.9200 C   0  0  0  0  0  3  0  0  0  0  0  0
  190.9770  177.0010  139.7730 C   0  0  0  0  0  0  0  0  0  0  0  0
  189.5980  176.8420  139.8330 C   0  0  0  0  0  3  0  0  0  0  0  0
  191.8320  178.0610  143.2090 N   0  0  0  0  0  0  0  0  0  0  0  0
  188.9240  177.0910  141.0260 C   0  0  0  0  0  3  0  0  0  0  0  0
  189.5970  177.5010  142.1990 C   0  0  0  0  0  0  0  0  0  0  0  0
  182.7620  178.9730  144.5300 C   0  0  0  0  0  3  0  0  0  0  0  0
  184.5540  178.3430  142.4890 C   0  0  0  0  0  3  0  0  0  0  0  0
  180.8980  179.3180  142.9280 C   0  0  0  0  0  1  0  0  0  0  0  0
  182.3200  178.9600  143.2050 C   0  0  0  0  0  0  0  0  0  0  0  0
  183.2160  178.6220  142.1680 C   0  0  0  0  0  0  0  0  0  0  0  0
  185.0020  178.3560  143.8180 C   0  0  0  0  0  0  0  0  0  0  0  0
  184.0890  178.6710  144.8350 C   0  0  0  0  0  3  0  0  0  0  0  0
  182.8950  177.2410  140.1350 C   0  0  2  0  0  3  0  0  0  0  0  0
  182.7860  178.6410  140.7250 C   0  0  2  0  0  3  0  0  0  0  0  0
  183.9350  178.2870  139.7950 C   0  0  0  0  0  2  0  0  0  0  0  0
  181.9270  177.0940  139.0080 C   0  0  0  0  0  0  0  0  0  0  0  0
  182.2960  177.3150  137.8250 O   0  0  0  0  0  0  0  0  0  0  0  0
  180.6280  176.6650  139.2560 O   0  0  0  0  0  1  0  0  0  0  0  0
  191.6590  176.7530  138.5410 N   0  0  0  0  0  2  0  0  0  0  0  0
  193.0660  176.5380  138.4620 C   0  0  0  0  0  3  0  0  0  0  0  0
  193.5410  175.4960  137.7980 C   0  0  0  0  0  2  0  0  0  0  0  0
  1 11  1  0  0  0  0
  2 18  1  0  0  0  0
  2 16  1  0  0  0  0
  3 10  1  0  0  0  0
  4  6  1  0  0  0  0
  5  1  2  0  0  0  0
  5  9  1  0  0  0  0
  6  8  1  0  0  0  0
  8  7  2  0  0  0  0
  9  4  2  0  0  0  0
 10 12  2  0  0  0  0
 11 10  1  0  0  0  0
 11  6  2  0  0  0  0
 12  7  1  0  0  0  0
 13  2  2  0  0  0  0
 14 15  2  0  0  0  0
 14 13  1  0  0  0  0
 15 17  1  0  0  0  0
 16  3  2  0  0  0  0
 17 18  2  0  0  0  0
 18  1  1  0  0  0  0
 19 25  1  0  0  0  0
 20 24  1  0  0  0  0
 21 22  1  0  0  0  0
 22 19  2  0  0  0  0
 23 20  2  0  0  0  0
 23 22  1  0  0  0  0
 24  9  1  0  0  0  0
 24 25  2  0  0  0  0
 26 29  1  6  0  0  0
 26 27  1  0  0  0  0
 27 23  1  1  0  0  0
 28 26  1  0  0  0  0
 28 27  1  0  0  0  0
 29 31  1  0  0  0  0
 30 29  2  0  0  0  0
 32 14  1  0  0  0  0
 33 32  1  0  0  0  0
 34 33  2  0  0  0  0
M  END
>  <MODEL>
1

>  <REMARK>
 VINA RESULT:     -11.2      0.000      0.000
  Name = 
  5 active torsions:
  status: ('A' for Active; 'I' for Inactive)
    1  A    between atoms: N_3  and  C_13
    2  A    between atoms: N_3  and  C_25
    3  A    between atoms: C_7  and  C_11
    4  A    between atoms: C_18  and  C_30
    5  A    between atoms: C_26  and  C_28
                            x       y       z     vdW  Elec       q    Type
                         _______ _______ _______ _____ _____    ______ ____

>  <TORSDO>
F 5

$$$$
=
 OpenBabel10272415243D

 34 39  0  0  1  0  0  0  0  0999 V2000
  183.8720  178.2620  141.5450 C   0  0  0  0  0  0  0  0  0  0  0  0
  183.7840  177.8130  138.9940 C   0  0  0  0  0  0  0  0  0  0  0  0
  181.4260  177.7810  139.6980 C   0  0  0  0  0  3  0  0  0  0  0  0
  183.1750  179.0100  144.1770 C   0  0  0  0  0  3  0  0  0  0  0  0
  184.7810  178.1610  142.6170 C   0  0  0  0  0  3  0  0  0  0  0  0
  182.2360  179.1060  143.1550 C   0  0  0  0  0  0  0  0  0  0  0  0
  179.9820  179.6770  142.5120 C   0  0  0  0  0  3  0  0  0  0  0  0
  180.9850  179.6380  143.4700 C   0  0  0  0  0  3  0  0  0  0  0  0
  184.4450  178.4950  143.9300 C   0  0  0  0  0  0  0  0  0  0  0  0
  181.4640  178.6100  140.9020 C   0  0  0  0  0  0  0  0  0  0  0  0
  182.5340  178.6540  141.8330 C   0  0  0  0  0  0  0  0  0  0  0  0
  180.2160  179.1360  141.2530 C   0  0  0  0  0  3  0  0  0  0  0  0
  184.4830  177.7300  137.7830 C   0  0  0  0  0  3  0  0  0  0  0  0
  185.8430  178.0400  137.7000 C   0  0  0  0  0  0  0  0  0  0  0  0
  186.5210  178.4270  138.8490 C   0  0  0  0  0  3  0  0  0  0  0  0
  182.4100  177.4460  138.9320 N   0  0  0  0  0  0  0  0  0  0  0  0
  185.8430  178.4940  140.0630 C   0  0  0  0  0  3  0  0  0  0  0  0
  184.4690  178.1830  140.1760 C   0  0  0  0  0  0  0  0  0  0  0  0
  186.1240  178.8040  147.3120 C   0  0  0  0  0  3  0  0  0  0  0  0
  186.6380  177.6710  144.8180 C   0  0  0  0  0  3  0  0  0  0  0  0
  188.2690  177.9760  148.2460 C   0  0  0  0  0  1  0  0  0  0  0  0
  187.3190  178.1110  147.1030 C   0  0  0  0  0  0  0  0  0  0  0  0
  187.5950  177.5520  145.8380 C   0  0  0  0  0  0  0  0  0  0  0  0
  185.4370  178.3650  145.0230 C   0  0  0  0  0  0  0  0  0  0  0  0
  185.1930  178.9340  146.2820 C   0  0  0  0  0  3  0  0  0  0  0  0
  189.9860  177.7010  145.2000 C   0  0  2  0  0  3  0  0  0  0  0  0
  188.8520  176.7610  145.5890 C   0  0  2  0  0  3  0  0  0  0  0  0
  189.3000  176.8640  144.1400 C   0  0  0  0  0  2  0  0  0  0  0  0
  191.2960  177.0880  145.5690 C   0  0  0  0  0  0  0  0  0  0  0  0
  191.7680  177.2530  146.7240 O   0  0  0  0  0  1  0  0  0  0  0  0
  191.9770  176.2930  144.6550 O   0  0  0  0  0  0  0  0  0  0  0  0
  186.5510  177.9640  136.4600 N   0  0  0  0  0  2  0  0  0  0  0  0
  187.8980  178.4080  136.3060 C   0  0  0  0  0  3  0  0  0  0  0  0
  188.8870  177.5290  136.2950 C   0  0  0  0  0  2  0  0  0  0  0  0
  1 11  2  0  0  0  0
  1  5  1  0  0  0  0
  2 18  1  0  0  0  0
  3 10  1  0  0  0  0
  5  9  2  0  0  0  0
  6  8  1  0  0  0  0
  6  4  2  0  0  0  0
  7  8  2  0  0  0  0
  9  4  1  0  0  0  0
  9 24  1  0  0  0  0
 10 12  2  0  0  0  0
 10 11  1  0  0  0  0
 11  6  1  0  0  0  0
 12  7  1  0  0  0  0
 13  2  2  0  0  0  0
 14 13  1  0  0  0  0
 14 15  2  0  0  0  0
 15 17  1  0  0  0  0
 16  2  1  0  0  0  0
 16  3  2  0  0  0  0
 17 18  2  0  0  0  0
 18  1  1  0  0  0  0
 20 24  2  0  0  0  0
 20 23  1  0  0  0  0
 22 19  1  0  0  0  0
 22 21  1  0  0  0  0
 23 22  2  0  0  0  0
 24 25  1  0  0  0  0
 25 19  2  0  0  0  0
 26 29  1  1  0  0  0
 26 27  1  0  0  0  0
 27 23  1  6  0  0  0
 28 26  1  0  0  0  0
 28 27  1  0  0  0  0
 29 30  1  0  0  0  0
 31 29  2  0  0  0  0
 32 14  1  0  0  0  0
 33 32  1  0  0  0  0
 34 33  2  0  0  0  0
M  END
>  <MODEL>
2

>  <REMARK>
 VINA RESULT:     -10.6      4.019      7.634
  Name = 
  5 active torsions:
  status: ('A' for Active; 'I' for Inactive)
    1  A    between atoms: N_3  and  C_13
    2  A    between atoms: N_3  and  C_25
    3  A    between atoms: C_7  and  C_11
    4  A    between atoms: C_18  and  C_30
    5  A    between atoms: C_26  and  C_28
                            x       y       z     vdW  Elec       q    Type
                         _______ _______ _______ _____ _____    ______ ____

>  <TORSDO>
F 5

$$$$
=
 OpenBabel10272415243D

 34 39  0  0  1  0  0  0  0  0999 V2000
  186.5950  178.2560  143.6030 C   0  0  0  0  0  0  0  0  0  0  0  0
  187.4550  178.1910  146.0460 C   0  0  0  0  0  0  0  0  0  0  0  0
  185.2660  179.3040  146.2030 C   0  0  0  0  0  3  0  0  0  0  0  0
  184.9120  178.3840  141.3390 C   0  0  0  0  0  3  0  0  0  0  0  0
  187.1010  178.1930  142.2890 C   0  0  0  0  0  3  0  0  0  0  0  0
  184.3670  178.4740  142.6150 C   0  0  0  0  0  0  0  0  0  0  0  0
  182.3880  178.7410  143.9680 C   0  0  0  0  0  3  0  0  0  0  0  0
  182.9800  178.5620  142.7250 C   0  0  0  0  0  3  0  0  0  0  0  0
  186.2890  178.2880  141.1580 C   0  0  0  0  0  0  0  0  0  0  0  0
  184.5830  178.7830  145.0180 C   0  0  0  0  0  0  0  0  0  0  0  0
  185.2030  178.4990  143.7750 C   0  0  0  0  0  0  0  0  0  0  0  0
  183.1890  178.8820  145.0940 C   0  0  0  0  0  3  0  0  0  0  0  0
  188.4340  177.7460  146.9440 C   0  0  0  0  0  3  0  0  0  0  0  0
  189.4750  176.9080  146.5360 C   0  0  0  0  0  0  0  0  0  0  0  0
  189.5470  176.5150  145.2050 C   0  0  0  0  0  3  0  0  0  0  0  0
  186.4700  179.0580  146.5980 N   0  0  0  0  0  0  0  0  0  0  0  0
  188.5920  176.9660  144.2980 C   0  0  0  0  0  3  0  0  0  0  0  0
  187.5310  177.8180  144.6830 C   0  0  0  0  0  0  0  0  0  0  0  0
  186.6150  178.3150  137.3830 C   0  0  0  0  0  3  0  0  0  0  0  0
  188.2480  178.0080  139.6210 C   0  0  0  0  0  3  0  0  0  0  0  0
  188.5310  178.0820  135.8240 C   0  0  0  0  0  1  0  0  0  0  0  0
  187.9850  178.1030  137.2120 C   0  0  0  0  0  0  0  0  0  0  0  0
  188.8150  177.9270  138.3390 C   0  0  0  0  0  0  0  0  0  0  0  0
  186.8740  178.2210  139.7970 C   0  0  0  0  0  0  0  0  0  0  0  0
  186.0630  178.3700  138.6630 C   0  0  0  0  0  3  0  0  0  0  0  0
  190.6440  176.2580  138.2300 C   0  0  2  0  0  3  0  0  0  0  0  0
  190.3020  177.7420  138.1950 C   0  0  2  0  0  3  0  0  0  0  0  0
  190.9130  177.1240  139.4420 C   0  0  0  0  0  2  0  0  0  0  0  0
  191.9120  176.0160  137.4810 C   0  0  0  0  0  0  0  0  0  0  0  0
  193.0140  176.0070  138.0890 O   0  0  0  0  0  1  0  0  0  0  0  0
  191.8770  175.7510  136.1160 O   0  0  0  0  0  0  0  0  0  0  0  0
  190.4670  176.4470  147.4570 N   0  0  0  0  0  0  0  0  0  0  0  0
  191.7970  176.1160  147.0640 C   0  0  0  0  0  3  0  0  0  0  0  0
  192.6730  175.7090  147.9690 C   0  0  0  0  0  1  0  0  0  0  0  0
  1 11  1  0  0  0  0
  1 18  1  0  0  0  0
  2 16  1  0  0  0  0
  2 13  1  0  0  0  0
  3 16  2  0  0  0  0
  4  6  1  0  0  0  0
  5  1  2  0  0  0  0
  6  8  1  0  0  0  0
  6 11  2  0  0  0  0
  7 12  1  0  0  0  0
  8  7  2  0  0  0  0
  9  4  2  0  0  0  0
  9  5  1  0  0  0  0
 10 12  2  0  0  0  0
 10  3  1  0  0  0  0
 11 10  1  0  0  0  0
 14 13  2  0  0  0  0
 14 32  1  0  0  0  0
 15 14  1  0  0  0  0
 17 18  1  0  0  0  0
 17 15  2  0  0  0  0
 18  2  2  0  0  0  0
 19 25  1  0  0  0  0
 20 24  1  0  0  0  0
 21 22  1  0  0  0  0
 22 19  2  0  0  0  0
 22 23  1  0  0  0  0
 23 20  2  0  0  0  0
 24  9  1  0  0  0  0
 25 24  2  0  0  0  0
 26 29  1  6  0  0  0
 26 28  1  0  0  0  0
 27 26  1  0  0  0  0
 27 23  1  1  0  0  0
 27 28  1  0  0  0  0
 29 30  1  0  0  0  0
 31 29  2  0  0  0  0
 33 32  2  0  0  0  0
 33 34  1  0  0  0  0
M  END
>  <MODEL>
3

>  <REMARK>
 VINA RESULT:      -9.8      3.508      7.133
  Name = 
  5 active torsions:
  status: ('A' for Active; 'I' for Inactive)
    1  A    between atoms: N_3  and  C_13
    2  A    between atoms: N_3  and  C_25
    3  A    between atoms: C_7  and  C_11
    4  A    between atoms: C_18  and  C_30
    5  A    between atoms: C_26  and  C_28
                            x       y       z     vdW  Elec       q    Type
                         _______ _______ _______ _____ _____    ______ ____

>  <TORSDO>
F 5

$$$$
=
 OpenBabel10272415243D

 34 39  0  0  1  0  0  0  0  0999 V2000
  188.4220  177.8360  144.9410 C   0  0  0  0  0  0  0  0  0  0  0  0
  189.7200  177.5970  147.1710 C   0  0  0  0  0  0  0  0  0  0  0  0
  187.6000  178.6700  147.8140 C   0  0  0  0  0  3  0  0  0  0  0  0
  186.3490  178.1140  143.0430 C   0  0  0  0  0  3  0  0  0  0  0  0
  188.6760  177.8780  143.5550 C   0  0  0  0  0  3  0  0  0  0  0  0
  186.0510  178.1020  144.4010 C   0  0  0  0  0  0  0  0  0  0  0  0
  184.3560  178.2430  146.1120 C   0  0  0  0  0  3  0  0  0  0  0  0
  184.7070  178.1640  144.7720 C   0  0  0  0  0  3  0  0  0  0  0  0
  187.6690  178.0480  142.6040 C   0  0  0  0  0  0  0  0  0  0  0  0
  186.7080  178.2320  146.7390 C   0  0  0  0  0  0  0  0  0  0  0  0
  187.0860  178.0490  145.3850 C   0  0  0  0  0  0  0  0  0  0  0  0
  185.3530  178.3090  147.0790 C   0  0  0  0  0  3  0  0  0  0  0  0
  190.8470  177.0980  147.8360 C   0  0  0  0  0  3  0  0  0  0  0  0
  191.7920  176.3050  147.1790 C   0  0  0  0  0  0  0  0  0  0  0  0
  191.6160  176.0150  145.8330 C   0  0  0  0  0  3  0  0  0  0  0  0
  188.8550  178.4090  147.9590 N   0  0  0  0  0  0  0  0  0  0  0  0
  190.5100  176.5210  145.1550 C   0  0  0  0  0  3  0  0  0  0  0  0
  189.5410  177.3290  145.7930 C   0  0  0  0  0  0  0  0  0  0  0  0
  187.3000  178.4130  138.8500 C   0  0  0  0  0  3  0  0  0  0  0  0
  189.2990  177.8550  140.7110 C   0  0  0  0  0  3  0  0  0  0  0  0
  188.8860  178.2710  136.9480 C   0  0  0  0  0  1  0  0  0  0  0  0
  188.6050  178.1800  138.4100 C   0  0  0  0  0  0  0  0  0  0  0  0
  189.6180  177.8770  139.3440 C   0  0  0  0  0  0  0  0  0  0  0  0
  187.9910  178.0900  141.1580 C   0  0  0  0  0  0  0  0  0  0  0  0
  186.9940  178.3660  140.2110 C   0  0  0  0  0  3  0  0  0  0  0  0
  191.3190  176.1740  138.7530 C   0  0  2  0  0  3  0  0  0  0  0  0
  191.0440  177.6630  138.9100 C   0  0  2  0  0  3  0  0  0  0  0  0
  191.8440  176.9150  139.9640 C   0  0  0  0  0  2  0  0  0  0  0  0
  192.4170  175.9660  137.7620 C   0  0  0  0  0  0  0  0  0  0  0  0
  192.1440  175.7460  136.5540 O   0  0  0  0  0  0  0  0  0  0  0  0
  193.7440  176.0640  138.1620 O   0  0  0  0  0  1  0  0  0  0  0  0
  192.9370  175.7880  147.8640 N   0  0  0  0  0  2  0  0  0  0  0  0
  193.1070  175.8880  149.2760 C   0  0  0  0  0  3  0  0  0  0  0  0
  193.7780  176.9050  149.7920 C   0  0  0  0  0  2  0  0  0  0  0  0
  1 11  1  0  0  0  0
  1 18  1  0  0  0  0
  2 13  1  0  0  0  0
  2 16  1  0  0  0  0
  3 16  2  0  0  0  0
  4  6  1  0  0  0  0
  5  1  2  0  0  0  0
  6  8  1  0  0  0  0
  6 11  2  0  0  0  0
  7 12  1  0  0  0  0
  8  7  2  0  0  0  0
  9  4  2  0  0  0  0
  9  5  1  0  0  0  0
 10 12  2  0  0  0  0
 10  3  1  0  0  0  0
 11 10  1  0  0  0  0
 14 13  2  0  0  0  0
 14 32  1  0  0  0  0
 15 14  1  0  0  0  0
 17 18  1  0  0  0  0
 17 15  2  0  0  0  0
 18  2  2  0  0  0  0
 19 25  1  0  0  0  0
 20 24  1  0  0  0  0
 21 22  1  0  0  0  0
 22 19  2  0  0  0  0
 22 23  1  0  0  0  0
 23 20  2  0  0  0  0
 24  9  1  0  0  0  0
 25 24  2  0  0  0  0
 26 29  1  6  0  0  0
 26 27  1  0  0  0  0
 26 28  1  0  0  0  0
 27 23  1  1  0  0  0
 27 28  1  0  0  0  0
 29 31  1  0  0  0  0
 30 29  2  0  0  0  0
 32 33  1  0  0  0  0
 33 34  2  0  0  0  0
M  END
>  <MODEL>
4

>  <REMARK>
 VINA RESULT:      -9.7      3.860      7.032
  Name = 
  5 active torsions:
  status: ('A' for Active; 'I' for Inactive)
    1  A    between atoms: N_3  and  C_13
    2  A    between atoms: N_3  and  C_25
    3  A    between atoms: C_7  and  C_11
    4  A    between atoms: C_18  and  C_30
    5  A    between atoms: C_26  and  C_28
                            x       y       z     vdW  Elec       q    Type
                         _______ _______ _______ _____ _____    ______ ____

>  <TORSDO>
F 5

$$$$
=
 OpenBabel10272415243D

 34 39  0  0  1  0  0  0  0  0999 V2000
  188.1450  177.5290  142.8610 C   0  0  0  0  0  0  0  0  0  0  0  0
  190.3280  176.6930  143.9800 C   0  0  0  0  0  0  0  0  0  0  0  0
  190.7110  176.3530  141.5720 C   0  0  0  0  0  3  0  0  0  0  0  0
  186.2900  178.5300  140.9820 C   0  0  0  0  0  3  0  0  0  0  0  0
  186.7930  177.7520  143.1890 C   0  0  0  0  0  3  0  0  0  0  0  0
  187.6090  178.3050  140.6030 C   0  0  0  0  0  0  0  0  0  0  0  0
  189.2600  178.3670  138.8460 C   0  0  0  0  0  3  0  0  0  0  0  0
  187.9810  178.6490  139.3040 C   0  0  0  0  0  3  0  0  0  0  0  0
  185.8540  178.2150  142.2660 C   0  0  0  0  0  0  0  0  0  0  0  0
  189.8130  177.3480  140.9860 C   0  0  0  0  0  0  0  0  0  0  0  0
  188.5470  177.7180  141.5080 C   0  0  0  0  0  0  0  0  0  0  0  0
  190.1510  177.6930  139.6720 C   0  0  0  0  0  3  0  0  0  0  0  0
  191.0750  176.5530  145.1560 C   0  0  0  0  0  3  0  0  0  0  0  0
  190.6320  177.0800  146.3720 C   0  0  0  0  0  0  0  0  0  0  0  0
  189.4150  177.7490  146.4170 C   0  0  0  0  0  3  0  0  0  0  0  0
  190.8910  176.0850  142.8220 N   0  0  0  0  0  0  0  0  0  0  0  0
  188.6530  177.8780  145.2590 C   0  0  0  0  0  3  0  0  0  0  0  0
  189.0750  177.3510  144.0180 C   0  0  0  0  0  0  0  0  0  0  0  0
  182.7770  178.9000  144.3680 C   0  0  0  0  0  3  0  0  0  0  0  0
  183.4160  178.3660  141.7080 C   0  0  0  0  0  3  0  0  0  0  0  0
  180.3570  179.0980  143.8560 C   0  0  0  0  0  1  0  0  0  0  0  0
  181.7590  178.8400  143.4140 C   0  0  0  0  0  0  0  0  0  0  0  0
  182.0720  178.5500  142.0690 C   0  0  0  0  0  0  0  0  0  0  0  0
  184.4420  178.4270  142.6620 C   0  0  0  0  0  0  0  0  0  0  0  0
  184.1060  178.6930  143.9980 C   0  0  0  0  0  3  0  0  0  0  0  0
  181.5820  179.0090  139.6830 C   0  0  2  0  0  3  0  0  0  0  0  0
  181.0060  178.5210  141.0060 C   0  0  2  0  0  3  0  0  0  0  0  0
  180.6840  179.9160  140.4980 C   0  0  0  0  0  2  0  0  0  0  0  0
  180.8150  178.4120  138.5500 C   0  0  0  0  0  0  0  0  0  0  0  0
  180.1460  179.1500  137.7810 O   0  0  0  0  0  0  0  0  0  0  0  0
  180.8760  177.0440  138.3100 O   0  0  0  0  0  1  0  0  0  0  0  0
  191.4030  176.9450  147.5690 N   0  0  0  0  0  0  0  0  0  0  0  0
  192.2920  175.8540  147.8000 C   0  0  0  0  0  3  0  0  0  0  0  0
  193.1030  175.8710  148.8460 C   0  0  0  0  0  1  0  0  0  0  0  0
  1  5  1  0  0  0  0
  1 18  1  0  0  0  0
  2 18  2  0  0  0  0
  2 13  1  0  0  0  0
  3 16  2  0  0  0  0
  4  9  1  0  0  0  0
  6  4  2  0  0  0  0
  6 11  1  0  0  0  0
  7  8  2  0  0  0  0
  7 12  1  0  0  0  0
  8  6  1  0  0  0  0
  9 24  1  0  0  0  0
  9  5  2  0  0  0  0
 10 11  1  0  0  0  0
 10  3  1  0  0  0  0
 11  1  2  0  0  0  0
 12 10  2  0  0  0  0
 13 14  2  0  0  0  0
 14 15  1  0  0  0  0
 14 32  1  0  0  0  0
 16  2  1  0  0  0  0
 17 15  2  0  0  0  0
 18 17  1  0  0  0  0
 20 23  2  0  0  0  0
 20 24  1  0  0  0  0
 22 21  1  0  0  0  0
 22 19  2  0  0  0  0
 23 22  1  0  0  0  0
 24 25  2  0  0  0  0
 25 19  1  0  0  0  0
 26 29  1  6  0  0  0
 26 28  1  0  0  0  0
 26 27  1  0  0  0  0
 27 23  1  1  0  0  0
 28 27  1  0  0  0  0
 30 29  2  0  0  0  0
 31 29  1  0  0  0  0
 32 33  2  0  0  0  0
 33 34  1  0  0  0  0
M  END
>  <MODEL>
5

>  <REMARK>
 VINA RESULT:      -9.6      1.747      4.707
  Name = 
  5 active torsions:
  status: ('A' for Active; 'I' for Inactive)
    1  A    between atoms: N_3  and  C_13
    2  A    between atoms: N_3  and  C_25
    3  A    between atoms: C_7  and  C_11
    4  A    between atoms: C_18  and  C_30
    5  A    between atoms: C_26  and  C_28
                            x       y       z     vdW  Elec       q    Type
                         _______ _______ _______ _____ _____    ______ ____

>  <TORSDO>
F 5

$$$$
=
 OpenBabel10272415243D

 34 39  0  0  1  0  0  0  0  0999 V2000
  185.6070  178.3910  142.7890 C   0  0  0  0  0  0  0  0  0  0  0  0
  186.0220  178.4570  145.3460 C   0  0  0  0  0  0  0  0  0  0  0  0
  183.7950  179.4680  145.0660 C   0  0  0  0  0  3  0  0  0  0  0  0
  184.3490  178.3540  140.2610 C   0  0  0  0  0  3  0  0  0  0  0  0
  186.3410  178.3040  141.5880 C   0  0  0  0  0  3  0  0  0  0  0  0
  183.5830  178.4640  141.4170 C   0  0  0  0  0  0  0  0  0  0  0  0
  181.3860  178.6840  142.3870 C   0  0  0  0  0  3  0  0  0  0  0  0
  182.1950  178.4890  141.2770 C   0  0  0  0  0  3  0  0  0  0  0  0
  185.7390  178.3180  140.3290 C   0  0  0  0  0  0  0  0  0  0  0  0
  183.3560  178.8720  143.8040 C   0  0  0  0  0  0  0  0  0  0  0  0
  184.1970  178.5720  142.7020 C   0  0  0  0  0  0  0  0  0  0  0  0
  181.9670  178.9060  143.6300 C   0  0  0  0  0  3  0  0  0  0  0  0
  186.8440  178.0940  146.4210 C   0  0  0  0  0  3  0  0  0  0  0  0
  187.9740  177.2920  146.2390 C   0  0  0  0  0  0  0  0  0  0  0  0
  188.2970  176.8550  144.9610 C   0  0  0  0  0  3  0  0  0  0  0  0
  184.9190  179.2950  145.6760 N   0  0  0  0  0  0  0  0  0  0  0  0
  187.5000  177.2260  143.8810 C   0  0  0  0  0  3  0  0  0  0  0  0
  186.3540  178.0380  144.0350 C   0  0  0  0  0  0  0  0  0  0  0  0
  186.7310  178.2490  136.6730 C   0  0  0  0  0  3  0  0  0  0  0  0
  187.9460  178.0500  139.1740 C   0  0  0  0  0  3  0  0  0  0  0  0
  188.8990  178.0260  135.4870 C   0  0  0  0  0  1  0  0  0  0  0  0
  188.1140  178.0710  136.7550 C   0  0  0  0  0  0  0  0  0  0  0  0
  188.7330  177.9500  138.0160 C   0  0  0  0  0  0  0  0  0  0  0  0
  186.5580  178.2300  139.0970 C   0  0  0  0  0  0  0  0  0  0  0  0
  185.9580  178.3240  137.8320 C   0  0  0  0  0  3  0  0  0  0  0  0
  190.5850  176.3350  138.3480 C   0  0  2  0  0  3  0  0  0  0  0  0
  190.2270  177.8010  138.1440 C   0  0  2  0  0  3  0  0  0  0  0  0
  190.6230  177.2920  139.5200 C   0  0  0  0  0  2  0  0  0  0  0  0
  191.9690  176.0810  137.8480 C   0  0  0  0  0  0  0  0  0  0  0  0
  192.1460  175.5170  136.7370 O   0  0  0  0  0  0  0  0  0  0  0  0
  193.0670  176.5110  138.5850 O   0  0  0  0  0  1  0  0  0  0  0  0
  188.8050  176.9140  147.3400 N   0  0  0  0  0  2  0  0  0  0  0  0
  190.1690  177.3140  147.4560 C   0  0  0  0  0  3  0  0  0  0  0  0
  191.1360  176.4700  147.1340 C   0  0  0  0  0  2  0  0  0  0  0  0
  1 18  1  0  0  0  0
  2 16  1  0  0  0  0
  2 13  1  0  0  0  0
  3 16  2  0  0  0  0
  4  9  2  0  0  0  0
  4  6  1  0  0  0  0
  5  1  2  0  0  0  0
  6 11  2  0  0  0  0
  7 12  1  0  0  0  0
  8  6  1  0  0  0  0
  8  7  2  0  0  0  0
  9  5  1  0  0  0  0
 10  3  1  0  0  0  0
 11  1  1  0  0  0  0
 11 10  1  0  0  0  0
 12 10  2  0  0  0  0
 14 13  2  0  0  0  0
 14 32  1  0  0  0  0
 15 14  1  0  0  0  0
 17 18  1  0  0  0  0
 17 15  2  0  0  0  0
 18  2  2  0  0  0  0
 19 22  2  0  0  0  0
 19 25  1  0  0  0  0
 21 22  1  0  0  0  0
 22 23  1  0  0  0  0
 23 20  2  0  0  0  0
 24 20  1  0  0  0  0
 24  9  1  0  0  0  0
 25 24  2  0  0  0  0
 26 29  1  6  0  0  0
 26 28  1  0  0  0  0
 27 23  1  1  0  0  0
 27 26  1  0  0  0  0
 27 28  1  0  0  0  0
 29 31  1  0  0  0  0
 30 29  2  0  0  0  0
 32 33  1  0  0  0  0
 34 33  2  0  0  0  0
M  END
>  <MODEL>
6

>  <REMARK>
 VINA RESULT:      -9.6      3.529      7.643
  Name = 
  5 active torsions:
  status: ('A' for Active; 'I' for Inactive)
    1  A    between atoms: N_3  and  C_13
    2  A    between atoms: N_3  and  C_25
    3  A    between atoms: C_7  and  C_11
    4  A    between atoms: C_18  and  C_30
    5  A    between atoms: C_26  and  C_28
                            x       y       z     vdW  Elec       q    Type
                         _______ _______ _______ _____ _____    ______ ____

>  <TORSDO>
F 5

$$$$
=
 OpenBabel10272415243D

 34 39  0  0  1  0  0  0  0  0999 V2000
  188.0270  177.5880  142.8370 C   0  0  0  0  0  0  0  0  0  0  0  0
  186.0710  177.9430  144.5000 C   0  0  0  0  0  0  0  0  0  0  0  0
  187.9240  177.1330  145.9040 C   0  0  0  0  0  3  0  0  0  0  0  0
  190.6100  177.2970  141.7340 C   0  0  0  0  0  3  0  0  0  0  0  0
  188.2330  177.3800  141.4580 C   0  0  0  0  0  3  0  0  0  0  0  0
  190.4560  177.4770  143.1050 C   0  0  0  0  0  0  0  0  0  0  0  0
  191.5160  177.6640  145.2640 C   0  0  0  0  0  3  0  0  0  0  0  0
  191.6100  177.5710  143.8820 C   0  0  0  0  0  3  0  0  0  0  0  0
  189.5000  177.2010  140.9000 C   0  0  0  0  0  0  0  0  0  0  0  0
  189.0900  177.5330  145.1170 C   0  0  0  0  0  0  0  0  0  0  0  0
  189.1580  177.5400  143.7000 C   0  0  0  0  0  0  0  0  0  0  0  0
  190.2670  177.6110  145.8700 C   0  0  0  0  0  3  0  0  0  0  0  0
  184.7670  178.4080  144.7100 C   0  0  0  0  0  3  0  0  0  0  0  0
  184.0440  179.0420  143.6960 C   0  0  0  0  0  0  0  0  0  0  0  0
  184.6290  179.2050  142.4470 C   0  0  0  0  0  3  0  0  0  0  0  0
  186.6760  177.2970  145.6150 N   0  0  0  0  0  0  0  0  0  0  0  0
  185.9180  178.7300  142.2190 C   0  0  0  0  0  3  0  0  0  0  0  0
  186.6700  178.0810  143.2250 C   0  0  0  0  0  0  0  0  0  0  0  0
  188.7150  176.8730  137.2070 C   0  0  0  0  0  3  0  0  0  0  0  0
  190.9190  176.6740  138.9030 C   0  0  0  0  0  3  0  0  0  0  0  0
  190.0880  176.3930  135.1970 C   0  0  0  0  0  1  0  0  0  0  0  0
  189.9700  176.5690  136.6740 C   0  0  0  0  0  0  0  0  0  0  0  0
  191.0860  176.4470  137.5280 C   0  0  0  0  0  0  0  0  0  0  0  0
  189.6620  176.9800  139.4430 C   0  0  0  0  0  0  0  0  0  0  0  0
  188.5610  177.0740  138.5790 C   0  0  0  0  0  3  0  0  0  0  0  0
  192.8570  174.7270  137.2990 C   0  0  2  0  0  3  0  0  0  0  0  0
  192.4610  176.1640  136.9840 C   0  0  2  0  0  3  0  0  0  0  0  0
  193.4540  175.8680  138.0960 C   0  0  0  0  0  2  0  0  0  0  0  0
  193.8380  174.2410  136.2850 C   0  0  0  0  0  0  0  0  0  0  0  0
  193.4360  173.6450  135.2510 O   0  0  0  0  0  0  0  0  0  0  0  0
  195.1960  174.4860  136.4540 O   0  0  0  0  0  1  0  0  0  0  0  0
  182.7160  179.5250  143.9170 N   0  0  0  0  0  2  0  0  0  0  0  0
  181.5990  179.1110  143.1320 C   0  0  0  0  0  3  0  0  0  0  0  0
  180.5230  178.6170  143.7220 C   0  0  0  0  0  2  0  0  0  0  0  0
  1 18  1  0  0  0  0
  1 11  1  0  0  0  0
  2 13  1  0  0  0  0
  2 16  1  0  0  0  0
  4  6  1  0  0  0  0
  5  1  2  0  0  0  0
  6 11  2  0  0  0  0
  6  8  1  0  0  0  0
  7 12  1  0  0  0  0
  8  7  2  0  0  0  0
  9  5  1  0  0  0  0
  9  4  2  0  0  0  0
 10 12  2  0  0  0  0
 10  3  1  0  0  0  0
 11 10  1  0  0  0  0
 14 32  1  0  0  0  0
 14 13  2  0  0  0  0
 15 14  1  0  0  0  0
 16  3  2  0  0  0  0
 17 15  2  0  0  0  0
 17 18  1  0  0  0  0
 18  2  2  0  0  0  0
 19 25  1  0  0  0  0
 20 24  1  0  0  0  0
 21 22  1  0  0  0  0
 22 19  2  0  0  0  0
 22 23  1  0  0  0  0
 23 20  2  0  0  0  0
 24  9  1  0  0  0  0
 25 24  2  0  0  0  0
 26 29  1  6  0  0  0
 26 28  1  0  0  0  0
 27 26  1  0  0  0  0
 27 23  1  1  0  0  0
 27 28  1  0  0  0  0
 29 31  1  0  0  0  0
 30 29  2  0  0  0  0
 33 34  2  0  0  0  0
 33 32  1  0  0  0  0
M  END
>  <MODEL>
7

>  <REMARK>
 VINA RESULT:      -9.4      3.887      8.253
  Name = 
  5 active torsions:
  status: ('A' for Active; 'I' for Inactive)
    1  A    between atoms: N_3  and  C_13
    2  A    between atoms: N_3  and  C_25
    3  A    between atoms: C_7  and  C_11
    4  A    between atoms: C_18  and  C_30
    5  A    between atoms: C_26  and  C_28
                            x       y       z     vdW  Elec       q    Type
                         _______ _______ _______ _____ _____    ______ ____

>  <TORSDO>
F 5

$$$$
=
 OpenBabel10272415243D

 34 39  0  0  1  0  0  0  0  0999 V2000
  188.4930  177.8230  144.9400 C   0  0  0  0  0  0  0  0  0  0  0  0
  189.7840  177.5940  147.1750 C   0  0  0  0  0  0  0  0  0  0  0  0
  187.6620  178.6700  147.8060 C   0  0  0  0  0  3  0  0  0  0  0  0
  186.4260  178.0930  143.0350 C   0  0  0  0  0  3  0  0  0  0  0  0
  188.7510  177.8580  143.5550 C   0  0  0  0  0  3  0  0  0  0  0  0
  186.1230  178.0860  144.3920 C   0  0  0  0  0  0  0  0  0  0  0  0
  184.4240  178.2350  146.0980 C   0  0  0  0  0  3  0  0  0  0  0  0
  184.7790  178.1510  144.7590 C   0  0  0  0  0  3  0  0  0  0  0  0
  187.7460  178.0240  142.6000 C   0  0  0  0  0  0  0  0  0  0  0  0
  186.7730  178.2270  146.7320 C   0  0  0  0  0  0  0  0  0  0  0  0
  187.1550  178.0380  145.3790 C   0  0  0  0  0  0  0  0  0  0  0  0
  185.4170  178.3060  147.0670 C   0  0  0  0  0  3  0  0  0  0  0  0
  190.9090  177.0980  147.8450 C   0  0  0  0  0  3  0  0  0  0  0  0
  191.8560  176.3020  147.1950 C   0  0  0  0  0  0  0  0  0  0  0  0
  191.6830  176.0050  145.8490 C   0  0  0  0  0  3  0  0  0  0  0  0
  188.9170  178.4100  147.9570 N   0  0  0  0  0  0  0  0  0  0  0  0
  190.5800  176.5090  145.1660 C   0  0  0  0  0  3  0  0  0  0  0  0
  189.6090  177.3200  145.7970 C   0  0  0  0  0  0  0  0  0  0  0  0
  189.7050  177.9580  139.3570 C   0  0  0  0  0  3  0  0  0  0  0  0
  187.0600  178.2230  140.1980 C   0  0  0  0  0  3  0  0  0  0  0  0
  189.0680  178.1110  136.9630 C   0  0  0  0  0  1  0  0  0  0  0  0
  188.6930  178.1190  138.4080 C   0  0  0  0  0  0  0  0  0  0  0  0
  187.3550  178.2740  138.8270 C   0  0  0  0  0  0  0  0  0  0  0  0
  188.0730  178.0600  141.1540 C   0  0  0  0  0  0  0  0  0  0  0  0
  189.4000  177.9320  140.7180 C   0  0  0  0  0  3  0  0  0  0  0  0
  185.0440  177.5640  138.2760 C   0  0  2  0  0  3  0  0  0  0  0  0
  186.2330  178.4060  137.8310 C   0  0  2  0  0  3  0  0  0  0  0  0
  185.9320  177.0820  137.1480 C   0  0  0  0  0  2  0  0  0  0  0  0
  183.7830  178.1420  137.7250 C   0  0  0  0  0  0  0  0  0  0  0  0
  183.2720  177.6630  136.6800 O   0  0  0  0  0  0  0  0  0  0  0  0
  183.1430  179.1810  138.3900 O   0  0  0  0  0  1  0  0  0  0  0  0
  192.9990  175.7880  147.8860 N   0  0  0  0  0  2  0  0  0  0  0  0
  193.1630  175.8910  149.2980 C   0  0  0  0  0  3  0  0  0  0  0  0
  193.8510  176.8980  149.8130 C   0  0  0  0  0  2  0  0  0  0  0  0
  1 11  1  0  0  0  0
  1 18  1  0  0  0  0
  2 13  1  0  0  0  0
  2 16  1  0  0  0  0
  3 16  2  0  0  0  0
  4  6  1  0  0  0  0
  5  1  2  0  0  0  0
  6  8  1  0  0  0  0
  6 11  2  0  0  0  0
  7 12  1  0  0  0  0
  8  7  2  0  0  0  0
  9  4  2  0  0  0  0
  9  5  1  0  0  0  0
 10 12  2  0  0  0  0
 10  3  1  0  0  0  0
 11 10  1  0  0  0  0
 14 13  2  0  0  0  0
 14 32  1  0  0  0  0
 15 14  1  0  0  0  0
 17 18  1  0  0  0  0
 17 15  2  0  0  0  0
 18  2  2  0  0  0  0
 19 25  1  0  0  0  0
 20 24  1  0  0  0  0
 21 22  1  0  0  0  0
 22 23  1  0  0  0  0
 22 19  2  0  0  0  0
 23 20  2  0  0  0  0
 24  9  1  0  0  0  0
 25 24  2  0  0  0  0
 26 29  1  6  0  0  0
 27 26  1  0  0  0  0
 27 23  1  1  0  0  0
 28 27  1  0  0  0  0
 28 26  1  0  0  0  0
 29 31  1  0  0  0  0
 30 29  2  0  0  0  0
 32 33  1  0  0  0  0
 33 34  2  0  0  0  0
M  END
>  <MODEL>
8

>  <REMARK>
 VINA RESULT:      -9.2      2.856      5.823
  Name = 
  5 active torsions:
  status: ('A' for Active; 'I' for Inactive)
    1  A    between atoms: N_3  and  C_13
    2  A    between atoms: N_3  and  C_25
    3  A    between atoms: C_7  and  C_11
    4  A    between atoms: C_18  and  C_30
    5  A    between atoms: C_26  and  C_28
                            x       y       z     vdW  Elec       q    Type
                         _______ _______ _______ _____ _____    ______ ____

>  <TORSDO>
F 5

$$$$
=
 OpenBabel10272415243D

 34 39  0  0  1  0  0  0  0  0999 V2000
  186.8900  178.2230  143.7790 C   0  0  0  0  0  0  0  0  0  0  0  0
  187.6890  178.1160  146.2420 C   0  0  0  0  0  0  0  0  0  0  0  0
  185.4880  179.2100  146.3650 C   0  0  0  0  0  3  0  0  0  0  0  0
  185.2630  178.3830  141.4770 C   0  0  0  0  0  3  0  0  0  0  0  0
  187.4290  178.1890  142.4780 C   0  0  0  0  0  3  0  0  0  0  0  0
  184.6860  178.4440  142.7410 C   0  0  0  0  0  0  0  0  0  0  0  0
  182.6710  178.6690  144.0480 C   0  0  0  0  0  3  0  0  0  0  0  0
  183.2950  178.5190  142.8170 C   0  0  0  0  0  3  0  0  0  0  0  0
  186.6450  178.3010  141.3280 C   0  0  0  0  0  0  0  0  0  0  0  0
  184.8390  178.7080  145.1540 C   0  0  0  0  0  0  0  0  0  0  0  0
  185.4910  178.4520  143.9210 C   0  0  0  0  0  0  0  0  0  0  0  0
  183.4430  178.7950  145.1970 C   0  0  0  0  0  3  0  0  0  0  0  0
  188.6490  177.6610  147.1550 C   0  0  0  0  0  3  0  0  0  0  0  0
  189.7060  176.8390  146.7570 C   0  0  0  0  0  0  0  0  0  0  0  0
  189.8150  176.4730  145.4210 C   0  0  0  0  0  3  0  0  0  0  0  0
  186.6830  178.9650  146.7850 N   0  0  0  0  0  0  0  0  0  0  0  0
  188.8780  176.9350  144.4990 C   0  0  0  0  0  3  0  0  0  0  0  0
  187.8020  177.7700  144.8740 C   0  0  0  0  0  0  0  0  0  0  0  0
  189.2270  178.4110  138.5580 C   0  0  0  0  0  3  0  0  0  0  0  0
  186.4780  178.0440  138.8410 C   0  0  0  0  0  3  0  0  0  0  0  0
  189.1160  178.1240  136.0950 C   0  0  0  0  0  1  0  0  0  0  0  0
  188.4410  178.1890  137.4250 C   0  0  0  0  0  0  0  0  0  0  0  0
  187.0470  178.0220  137.5580 C   0  0  0  0  0  0  0  0  0  0  0  0
  187.2640  178.2650  139.9820 C   0  0  0  0  0  0  0  0  0  0  0  0
  188.6450  178.4520  139.8250 C   0  0  0  0  0  3  0  0  0  0  0  0
  185.1060  176.7170  136.7350 C   0  0  2  0  0  3  0  0  0  0  0  0
  186.1740  177.7380  136.3640 C   0  0  2  0  0  3  0  0  0  0  0  0
  186.3020  176.2930  135.9090 C   0  0  0  0  0  2  0  0  0  0  0  0
  183.9130  176.8950  135.8570 C   0  0  0  0  0  0  0  0  0  0  0  0
  182.9790  177.6630  136.2070 O   0  0  0  0  0  1  0  0  0  0  0  0
  183.8500  176.2520  134.6260 O   0  0  0  0  0  0  0  0  0  0  0  0
  190.6790  176.3670  147.6940 N   0  0  0  0  0  0  0  0  0  0  0  0
  191.9780  175.9250  147.3070 C   0  0  0  0  0  3  0  0  0  0  0  0
  192.9290  175.7880  148.2180 C   0  0  0  0  0  1  0  0  0  0  0  0
  1 11  1  0  0  0  0
  1 18  1  0  0  0  0
  2 16  1  0  0  0  0
  2 13  1  0  0  0  0
  3 16  2  0  0  0  0
  4  6  1  0  0  0  0
  5  1  2  0  0  0  0
  6  8  1  0  0  0  0
  6 11  2  0  0  0  0
  7 12  1  0  0  0  0
  8  7  2  0  0  0  0
  9  4  2  0  0  0  0
  9  5  1  0  0  0  0
 10 12  2  0  0  0  0
 10  3  1  0  0  0  0
 11 10  1  0  0  0  0
 14 13  2  0  0  0  0
 14 32  1  0  0  0  0
 15 14  1  0  0  0  0
 17 18  1  0  0  0  0
 17 15  2  0  0  0  0
 18  2  2  0  0  0  0
 19 25  1  0  0  0  0
 20 24  1  0  0  0  0
 21 22  1  0  0  0  0
 22 23  1  0  0  0  0
 22 19  2  0  0  0  0
 23 20  2  0  0  0  0
 24  9  1  0  0  0  0
 25 24  2  0  0  0  0
 26 29  1  6  0  0  0
 27 26  1  0  0  0  0
 27 23  1  1  0  0  0
 28 27  1  0  0  0  0
 28 26  1  0  0  0  0
 29 30  1  0  0  0  0
 31 29  2  0  0  0  0
 33 32  2  0  0  0  0
 33 34  1  0  0  0  0
M  END
>  <MODEL>
9

>  <REMARK>
 VINA RESULT:      -9.1      2.817      6.216
  Name = 
  5 active torsions:
  status: ('A' for Active; 'I' for Inactive)
    1  A    between atoms: N_3  and  C_13
    2  A    between atoms: N_3  and  C_25
    3  A    between atoms: C_7  and  C_11
    4  A    between atoms: C_18  and  C_30
    5  A    between atoms: C_26  and  C_28
                            x       y       z     vdW  Elec       q    Type
                         _______ _______ _______ _____ _____    ______ ____

>  <TORSDO>
F 5

$$$$
