=
 OpenBabel10272413313D

 32 36  0  0  1  0  0  0  0  0999 V2000
  180.9640  178.9470  140.8280 C   0  0  1  0  0  3  0  0  0  0  0  0
  185.8090  178.0480  142.4960 C   0  0  2  0  0  3  0  0  0  0  0  0
  185.5670  178.5970  147.3170 C   0  0  0  0  0  3  0  0  0  0  0  0
  186.8770  178.1190  147.4250 C   0  0  0  0  0  3  0  0  0  0  0  0
  183.8050  178.5330  141.1590 C   0  0  0  0  0  0  0  0  0  0  0  0
  183.6860  178.8130  143.5610 N   0  0  0  0  0  0  0  0  0  0  0  0
  181.6250  179.3010  142.1560 C   0  0  0  0  0  2  0  0  0  0  0  0
  184.9550  178.6960  146.0650 C   0  0  0  0  0  3  0  0  0  0  0  0
  185.0570  178.4100  143.7070 C   0  0  0  0  0  0  0  0  0  0  0  0
  185.6550  178.3300  144.9040 C   0  0  0  0  0  0  0  0  0  0  0  0
  187.7210  177.5280  143.9010 C   0  0  0  0  0  0  0  0  0  0  0  0
  181.8950  179.2430  139.6540 C   0  0  0  0  0  2  0  0  0  0  0  0
  183.0690  178.8450  142.2600 C   0  0  0  0  0  0  0  0  0  0  0  0
  183.2060  178.4870  139.7770 C   0  0  0  0  0  2  0  0  0  0  0  0
  187.5880  177.7530  146.2850 C   0  0  0  0  0  3  0  0  0  0  0  0
  187.0050  177.8610  145.0090 C   0  0  0  0  0  0  0  0  0  0  0  0
  185.2190  178.1090  141.3000 C   0  0  0  0  0  3  0  0  0  0  0  0
  187.1360  177.6340  142.6260 O   0  0  0  0  0  0  0  0  0  0  0  0
  180.4470  177.5120  140.8010 C   0  0  0  0  0  2  0  0  0  0  0  0
  179.9820  177.1410  139.4670 N   0  0  0  0  0  2  0  0  0  0  0  0
  180.3870  175.9450  138.8320 N   0  0  0  0  0  0  0  0  0  0  0  0
  180.1600  174.8490  139.3920 O   0  0  0  0  0  0  0  0  0  0  0  0
  181.1940  175.9790  137.7140 O   0  0  0  0  0  0  0  0  0  0  0  0
  189.1510  177.0780  143.9840 C   0  0  0  0  0  2  0  0  0  0  0  0
  191.3330  177.9840  144.6560 C   0  0  1  0  0  3  0  0  0  0  0  0
  191.4020  177.9640  143.1930 C   0  0  2  0  0  3  0  0  0  0  0  0
  190.0870  178.2470  143.8960 N   0  0  0  0  0  0  0  0  0  0  0  0
  191.0080  177.3130  141.8290 C   0  0  0  0  0  3  0  0  0  0  0  0
  190.9130  175.9150  141.9090 O   0  0  0  0  0  1  0  0  0  0  0  0
  191.8820  177.6820  140.8070 O   0  0  0  0  0  1  0  0  0  0  0  0
  191.6210  176.5500  145.1730 C   0  0  0  0  0  2  0  0  0  0  0  0
  191.5560  176.5270  146.7050 C   0  0  0  0  0  1  0  0  0  0  0  0
  1 19  1  1  0  0  0
  1  7  1  0  0  0  0
  2 17  1  1  0  0  0
  2 18  1  0  0  0  0
  2  9  1  0  0  0  0
  3  4  1  0  0  0  0
  5 17  2  0  0  0  0
  5 13  1  0  0  0  0
  6  9  1  0  0  0  0
  7 13  1  0  0  0  0
  8  3  2  0  0  0  0
  9 10  2  0  0  0  0
 10 16  1  0  0  0  0
 10  8  1  0  0  0  0
 11 24  1  0  0  0  0
 11 16  2  0  0  0  0
 12 14  1  0  0  0  0
 12  1  1  0  0  0  0
 13  6  2  0  0  0  0
 14  5  1  0  0  0  0
 15  4  2  0  0  0  0
 16 15  1  0  0  0  0
 18 11  1  0  0  0  0
 20 19  1  0  0  0  0
 21 22  2  0  0  0  0
 21 20  1  0  0  0  0
 23 21  2  0  0  0  0
 25 31  1  1  0  0  0
 26 28  1  1  0  0  0
 26 27  1  0  0  0  0
 26 25  1  0  0  0  0
 27 24  1  0  0  0  0
 27 25  1  0  0  0  0
 28 29  1  0  0  0  0
 30 28  1  0  0  0  0
 31 32  1  0  0  0  0
M  END
>  <MODEL>
1

>  <REMARK>
 VINA RESULT:      -8.4      0.000      0.000
  Name = 
  7 active torsions:
  status: ('A' for Active; 'I' for Inactive)
    1  A    between atoms: N_1  and  N_10
    2  A    between atoms: C_2  and  C_24
    3  A    between atoms: C_6  and  C_7
    4  A    between atoms: N_10  and  C_24
    5  A    between atoms: C_11  and  C_22
    6  A    between atoms: C_16  and  C_27
    7  A    between atoms: C_27  and  N_32
                            x       y       z     vdW  Elec       q    Type
                         _______ _______ _______ _____ _____    ______ ____

>  <TORSDO>
F 7

$$$$
=
 OpenBabel10272413313D

 32 36  0  0  1  0  0  0  0  0999 V2000
  187.9490  177.9540  135.8330 C   0  0  1  0  0  3  0  0  0  0  0  0
  188.4530  177.6290  141.0010 C   0  0  0  0  0  0  0  0  0  0  0  0
  184.1460  179.0480  142.7450 C   0  0  0  0  0  3  0  0  0  0  0  0
  184.5530  178.6660  144.0270 C   0  0  0  0  0  3  0  0  0  0  0  0
  188.8350  177.7540  138.5770 C   0  0  0  0  0  0  0  0  0  0  0  0
  186.6910  178.4680  139.4460 N   0  0  0  0  0  2  0  0  0  0  0  0
  187.1100  178.5810  136.9410 C   0  0  0  0  0  2  0  0  0  0  0  0
  185.0050  178.8810  141.6550 C   0  0  0  0  0  3  0  0  0  0  0  0
  187.1020  178.1690  140.7900 C   0  0  0  0  0  0  0  0  0  0  0  0
  186.2890  178.3440  141.8410 C   0  0  0  0  0  0  0  0  0  0  0  0
  187.9650  177.4770  143.3760 C   0  0  0  0  0  0  0  0  0  0  0  0
  189.4410  178.0750  136.1380 C   0  0  0  0  0  2  0  0  0  0  0  0
  187.5820  178.2270  138.3400 C   0  0  0  0  0  0  0  0  0  0  0  0
  189.7950  177.4230  137.4630 C   0  0  0  0  0  2  0  0  0  0  0  0
  185.8230  178.1320  144.2310 C   0  0  0  0  0  3  0  0  0  0  0  0
  186.7170  177.9720  143.1570 C   0  0  0  0  0  0  0  0  0  0  0  0
  189.2670  177.4370  139.9600 C   0  0  0  0  0  3  0  0  0  0  0  0
  188.8570  177.3150  142.3000 O   0  0  0  0  0  0  0  0  0  0  0  0
  187.5400  176.5150  135.5390 C   0  0  0  0  0  2  0  0  0  0  0  0
  186.1690  176.2550  135.9680 N   0  0  0  0  0  2  0  0  0  0  0  0
  185.8550  175.2830  136.9470 N   0  0  0  0  0  0  0  0  0  0  0  0
  186.7530  174.5110  137.3500 O   0  0  0  0  0  0  0  0  0  0  0  0
  184.5460  175.0500  137.3130 O   0  0  0  0  0  0  0  0  0  0  0  0
  188.4510  177.1230  144.7520 C   0  0  0  0  0  2  0  0  0  0  0  0
  189.5700  178.0710  146.7220 C   0  0  1  0  0  3  0  0  0  0  0  0
  190.6750  177.5490  145.9140 C   0  0  2  0  0  3  0  0  0  0  0  0
  189.4430  178.1340  145.2460 N   0  0  0  0  0  0  0  0  0  0  0  0
  191.2320  176.4970  144.9020 C   0  0  0  0  0  3  0  0  0  0  0  0
  192.0540  175.5420  145.5200 O   0  0  0  0  0  1  0  0  0  0  0  0
  191.9030  177.1030  143.8410 O   0  0  0  0  0  1  0  0  0  0  0  0
  188.9330  176.8840  147.4920 C   0  0  0  0  0  2  0  0  0  0  0  0
  187.9840  177.4180  148.5730 C   0  0  0  0  0  1  0  0  0  0  0  0
  1 19  1  1  0  0  0
  1 12  1  0  0  0  0
  1  7  1  0  0  0  0
  2 18  1  0  0  0  0
  3  4  1  0  0  0  0
  4 15  2  0  0  0  0
  5 17  1  0  0  0  0
  6  9  1  0  0  0  0
  7 13  1  0  0  0  0
  8 10  1  0  0  0  0
  8  3  2  0  0  0  0
  9  2  1  0  0  0  0
  9 10  2  0  0  0  0
 10 16  1  0  0  0  0
 11 24  1  0  0  0  0
 12 14  1  0  0  0  0
 13  5  2  0  0  0  0
 13  6  1  0  0  0  0
 14  5  1  0  0  0  0
 16 11  2  0  0  0  0
 16 15  1  0  0  0  0
 17  2  2  0  0  0  0
 18 11  1  0  0  0  0
 19 20  1  0  0  0  0
 20 21  1  0  0  0  0
 21 23  2  0  0  0  0
 21 22  2  0  0  0  0
 24 27  1  0  0  0  0
 25 31  1  6  0  0  0
 26 28  1  6  0  0  0
 26 25  1  0  0  0  0
 27 26  1  0  0  0  0
 27 25  1  0  0  0  0
 28 29  1  0  0  0  0
 30 28  1  0  0  0  0
 31 32  1  0  0  0  0
M  END
>  <MODEL>
2

>  <REMARK>
 VINA RESULT:      -8.4      3.525      4.936
  Name = 
  7 active torsions:
  status: ('A' for Active; 'I' for Inactive)
    1  A    between atoms: N_1  and  N_10
    2  A    between atoms: C_2  and  C_24
    3  A    between atoms: C_6  and  C_7
    4  A    between atoms: N_10  and  C_24
    5  A    between atoms: C_11  and  C_22
    6  A    between atoms: C_16  and  C_27
    7  A    between atoms: C_27  and  N_32
                            x       y       z     vdW  Elec       q    Type
                         _______ _______ _______ _____ _____    ______ ____

>  <TORSDO>
F 7

$$$$
=
 OpenBabel10272413313D

 32 36  0  0  1  0  0  0  0  0999 V2000
  185.3750  178.3540  137.4380 C   0  0  1  0  0  3  0  0  0  0  0  0
  187.7180  177.7730  142.0470 C   0  0  0  0  0  0  0  0  0  0  0  0
  184.2640  178.7780  145.3130 C   0  0  0  0  0  3  0  0  0  0  0  0
  185.1220  178.3540  146.3320 C   0  0  0  0  0  3  0  0  0  0  0  0
  187.1970  178.0630  139.6630 C   0  0  0  0  0  0  0  0  0  0  0  0
  185.4770  178.5700  141.2900 N   0  0  0  0  0  2  0  0  0  0  0  0
  184.9620  178.8550  138.8170 C   0  0  0  0  0  2  0  0  0  0  0  0
  184.6810  178.7360  143.9790 C   0  0  0  0  0  3  0  0  0  0  0  0
  186.3570  178.2260  142.3720 C   0  0  0  0  0  0  0  0  0  0  0  0
  185.9700  178.2810  143.6540 C   0  0  0  0  0  0  0  0  0  0  0  0
  188.1230  177.4510  144.4200 C   0  0  0  0  0  0  0  0  0  0  0  0
  186.8690  178.5640  137.2010 C   0  0  0  0  0  2  0  0  0  0  0  0
  185.9220  178.4570  139.9240 C   0  0  0  0  0  0  0  0  0  0  0  0
  187.7060  177.8640  138.2580 C   0  0  0  0  0  2  0  0  0  0  0  0
  186.4040  177.9020  146.0290 C   0  0  0  0  0  3  0  0  0  0  0  0
  186.8590  177.8670  144.6990 C   0  0  0  0  0  0  0  0  0  0  0  0
  188.1110  177.6990  140.7730 C   0  0  0  0  0  3  0  0  0  0  0  0
  188.5750  177.4150  143.0880 O   0  0  0  0  0  0  0  0  0  0  0  0
  184.9550  176.9080  137.1960 C   0  0  0  0  0  2  0  0  0  0  0  0
  183.5040  176.7600  137.2570 N   0  0  0  0  0  2  0  0  0  0  0  0
  182.8740  175.8680  138.1560 N   0  0  0  0  0  0  0  0  0  0  0  0
  182.9980  176.0520  139.3870 O   0  0  0  0  0  0  0  0  0  0  0  0
  182.2950  174.7010  137.7000 O   0  0  0  0  0  0  0  0  0  0  0  0
  189.0880  177.0550  145.5010 C   0  0  0  0  0  2  0  0  0  0  0  0
  191.2170  177.5930  146.6000 C   0  0  1  0  0  3  0  0  0  0  0  0
  191.6130  177.2260  145.2380 C   0  0  2  0  0  3  0  0  0  0  0  0
  190.2980  177.9410  145.4900 N   0  0  0  0  0  0  0  0  0  0  0  0
  191.3820  176.3820  143.9430 C   0  0  0  0  0  3  0  0  0  0  0  0
  191.9530  175.1030  144.0270 O   0  0  0  0  0  1  0  0  0  0  0  0
  191.8400  177.0450  142.8050 O   0  0  0  0  0  1  0  0  0  0  0  0
  190.9810  176.2870  147.4030 C   0  0  0  0  0  2  0  0  0  0  0  0
  192.3290  175.6600  147.7810 C   0  0  0  0  0  1  0  0  0  0  0  0
  1 19  1  1  0  0  0
  1  7  1  0  0  0  0
  2  9  1  0  0  0  0
  2 18  1  0  0  0  0
  3  4  1  0  0  0  0
  5 13  2  0  0  0  0
  5 17  1  0  0  0  0
  6  9  1  0  0  0  0
  7 13  1  0  0  0  0
  8  3  2  0  0  0  0
  9 10  2  0  0  0  0
 10  8  1  0  0  0  0
 10 16  1  0  0  0  0
 11 16  2  0  0  0  0
 11 24  1  0  0  0  0
 12  1  1  0  0  0  0
 12 14  1  0  0  0  0
 13  6  1  0  0  0  0
 14  5  1  0  0  0  0
 15  4  2  0  0  0  0
 16 15  1  0  0  0  0
 17  2  2  0  0  0  0
 18 11  1  0  0  0  0
 19 20  1  0  0  0  0
 20 21  1  0  0  0  0
 21 22  2  0  0  0  0
 23 21  2  0  0  0  0
 25 31  1  1  0  0  0
 26 28  1  1  0  0  0
 26 27  1  0  0  0  0
 26 25  1  0  0  0  0
 27 24  1  0  0  0  0
 27 25  1  0  0  0  0
 28 29  1  0  0  0  0
 30 28  1  0  0  0  0
 31 32  1  0  0  0  0
M  END
>  <MODEL>
3

>  <REMARK>
 VINA RESULT:      -8.4      2.217      3.004
  Name = 
  7 active torsions:
  status: ('A' for Active; 'I' for Inactive)
    1  A    between atoms: N_1  and  N_10
    2  A    between atoms: C_2  and  C_24
    3  A    between atoms: C_6  and  C_7
    4  A    between atoms: N_10  and  C_24
    5  A    between atoms: C_11  and  C_22
    6  A    between atoms: C_16  and  C_27
    7  A    between atoms: C_27  and  N_32
                            x       y       z     vdW  Elec       q    Type
                         _______ _______ _______ _____ _____    ______ ____

>  <TORSDO>
F 7

$$$$
=
 OpenBabel10272413313D

 32 36  0  0  1  0  0  0  0  0999 V2000
  180.3110  178.7220  140.8560 C   0  0  1  0  0  3  0  0  0  0  0  0
  185.3280  178.4850  142.2150 C   0  0  2  0  0  3  0  0  0  0  0  0
  185.2780  178.3820  147.0730 C   0  0  0  0  0  3  0  0  0  0  0  0
  186.6530  178.1310  147.0690 C   0  0  0  0  0  3  0  0  0  0  0  0
  183.1960  178.7730  141.0270 C   0  0  0  0  0  0  0  0  0  0  0  0
  183.1710  178.7290  143.4480 N   0  0  0  0  0  0  0  0  0  0  0  0
  180.9790  179.0190  142.1940 C   0  0  0  0  0  2  0  0  0  0  0  0
  184.5850  178.5260  145.8670 C   0  0  0  0  0  3  0  0  0  0  0  0
  184.5970  178.5560  143.4900 C   0  0  0  0  0  0  0  0  0  0  0  0
  185.2690  178.4350  144.6430 C   0  0  0  0  0  0  0  0  0  0  0  0
  187.3780  178.1370  143.4700 C   0  0  0  0  0  0  0  0  0  0  0  0
  181.1090  179.3190  139.6990 C   0  0  0  0  0  2  0  0  0  0  0  0
  182.4830  178.8140  142.1850 C   0  0  0  0  0  0  0  0  0  0  0  0
  182.5340  178.7940  139.6730 C   0  0  0  0  0  2  0  0  0  0  0  0
  187.3480  178.0390  145.8660 C   0  0  0  0  0  3  0  0  0  0  0  0
  186.6820  178.2000  144.6380 C   0  0  0  0  0  0  0  0  0  0  0  0
  184.6670  178.5890  141.0600 C   0  0  0  0  0  3  0  0  0  0  0  0
  186.7100  178.2960  142.2420 O   0  0  0  0  0  0  0  0  0  0  0  0
  180.0440  177.2330  140.6580 C   0  0  0  0  0  2  0  0  0  0  0  0
  180.0090  176.8850  139.2410 N   0  0  0  0  0  2  0  0  0  0  0  0
  180.6670  175.7420  138.7290 N   0  0  0  0  0  0  0  0  0  0  0  0
  181.7770  175.4130  139.2030 O   0  0  0  0  0  0  0  0  0  0  0  0
  180.2000  175.1100  137.5950 O   0  0  0  0  0  0  0  0  0  0  0  0
  188.8660  177.9370  143.4410 C   0  0  0  0  0  2  0  0  0  0  0  0
  190.0370  176.1600  142.2140 C   0  0  1  0  0  3  0  0  0  0  0  0
  190.6900  176.1630  143.5250 C   0  0  2  0  0  3  0  0  0  0  0  0
  189.2090  176.4770  143.4040 N   0  0  0  0  0  0  0  0  0  0  0  0
  191.1720  176.9370  144.7950 C   0  0  0  0  0  3  0  0  0  0  0  0
  191.9770  178.0410  144.4770 O   0  0  0  0  0  1  0  0  0  0  0  0
  191.8300  176.0980  145.6930 O   0  0  0  0  0  1  0  0  0  0  0  0
  190.6360  177.3170  141.3730 C   0  0  0  0  0  2  0  0  0  0  0  0
  190.8360  176.8550  139.9240 C   0  0  0  0  0  1  0  0  0  0  0  0
  1 19  1  6  0  0  0
  1  7  1  0  0  0  0
  2 17  1  6  0  0  0
  2 18  1  0  0  0  0
  2  9  1  0  0  0  0
  4  3  1  0  0  0  0
  5 17  2  0  0  0  0
  5 13  1  0  0  0  0
  6  9  1  0  0  0  0
  8  3  2  0  0  0  0
  9 10  2  0  0  0  0
 10  8  1  0  0  0  0
 11 16  2  0  0  0  0
 12  1  1  0  0  0  0
 13  7  1  0  0  0  0
 13  6  2  0  0  0  0
 14 12  1  0  0  0  0
 14  5  1  0  0  0  0
 15  4  2  0  0  0  0
 16 10  1  0  0  0  0
 16 15  1  0  0  0  0
 18 11  1  0  0  0  0
 20 19  1  0  0  0  0
 21 22  2  0  0  0  0
 21 20  1  0  0  0  0
 23 21  2  0  0  0  0
 24 11  1  0  0  0  0
 25 31  1  6  0  0  0
 25 27  1  0  0  0  0
 25 26  1  0  0  0  0
 26 28  1  6  0  0  0
 27 24  1  0  0  0  0
 27 26  1  0  0  0  0
 28 30  1  0  0  0  0
 29 28  1  0  0  0  0
 32 31  1  0  0  0  0
M  END
>  <MODEL>
4

>  <REMARK>
 VINA RESULT:      -8.3      1.322      2.114
  Name = 
  7 active torsions:
  status: ('A' for Active; 'I' for Inactive)
    1  A    between atoms: N_1  and  N_10
    2  A    between atoms: C_2  and  C_24
    3  A    between atoms: C_6  and  C_7
    4  A    between atoms: N_10  and  C_24
    5  A    between atoms: C_11  and  C_22
    6  A    between atoms: C_16  and  C_27
    7  A    between atoms: C_27  and  N_32
                            x       y       z     vdW  Elec       q    Type
                         _______ _______ _______ _____ _____    ______ ____

>  <TORSDO>
F 7

$$$$
=
 OpenBabel10272413313D

 32 36  0  0  1  0  0  0  0  0999 V2000
  187.5980  177.8830  135.9840 C   0  0  1  0  0  3  0  0  0  0  0  0
  187.8590  178.2120  141.1700 C   0  0  0  0  0  0  0  0  0  0  0  0
  183.2510  178.7920  142.5940 C   0  0  0  0  0  3  0  0  0  0  0  0
  183.6570  178.6450  143.9240 C   0  0  0  0  0  3  0  0  0  0  0  0
  188.3450  178.1710  138.7620 C   0  0  0  0  0  0  0  0  0  0  0  0
  186.0490  178.4670  139.4700 N   0  0  0  0  0  2  0  0  0  0  0  0
  186.5780  178.4150  136.9850 C   0  0  0  0  0  2  0  0  0  0  0  0
  184.1880  178.7130  141.5600 C   0  0  0  0  0  3  0  0  0  0  0  0
  186.4360  178.4080  140.8530 C   0  0  0  0  0  0  0  0  0  0  0  0
  185.5450  178.5010  141.8500 C   0  0  0  0  0  0  0  0  0  0  0  0
  187.2790  178.1970  143.5280 C   0  0  0  0  0  0  0  0  0  0  0  0
  189.0060  178.3680  136.3240 C   0  0  0  0  0  2  0  0  0  0  0  0
  187.0350  178.3220  138.4300 C   0  0  0  0  0  0  0  0  0  0  0  0
  189.4170  177.9520  137.7250 C   0  0  0  0  0  2  0  0  0  0  0  0
  184.9990  178.4360  144.2310 C   0  0  0  0  0  3  0  0  0  0  0  0
  185.9670  178.3730  143.2130 C   0  0  0  0  0  0  0  0  0  0  0  0
  188.7540  178.1030  140.1850 C   0  0  0  0  0  3  0  0  0  0  0  0
  188.2460  178.1320  142.5090 O   0  0  0  0  0  0  0  0  0  0  0  0
  187.5350  176.3660  135.8410 C   0  0  0  0  0  2  0  0  0  0  0  0
  188.8610  175.7660  135.9640 N   0  0  0  0  0  2  0  0  0  0  0  0
  189.0920  174.5960  136.7230 N   0  0  0  0  0  0  0  0  0  0  0  0
  190.1290  174.5140  137.4170 O   0  0  0  0  0  0  0  0  0  0  0  0
  188.2970  173.4800  136.5570 O   0  0  0  0  0  0  0  0  0  0  0  0
  187.7500  178.1050  144.9520 C   0  0  0  0  0  2  0  0  0  0  0  0
  190.0310  177.1950  144.9600 C   0  0  1  0  0  3  0  0  0  0  0  0
  189.5590  176.9610  146.3270 C   0  0  2  0  0  3  0  0  0  0  0  0
  188.5940  176.8830  145.1580 N   0  0  0  0  0  0  0  0  0  0  0  0
  188.6890  177.3940  147.5510 C   0  0  0  0  0  3  0  0  0  0  0  0
  189.3570  178.2980  148.3910 O   0  0  0  0  0  1  0  0  0  0  0  0
  188.2380  176.2940  148.2810 O   0  0  0  0  0  1  0  0  0  0  0  0
  190.4810  178.6750  144.8510 C   0  0  0  0  0  2  0  0  0  0  0  0
  191.5870  178.8040  143.7960 C   0  0  0  0  0  1  0  0  0  0  0  0
  1 19  1  1  0  0  0
  1 12  1  0  0  0  0
  1  7  1  0  0  0  0
  2 18  1  0  0  0  0
  3  4  1  0  0  0  0
  4 15  2  0  0  0  0
  5 17  1  0  0  0  0
  6  9  1  0  0  0  0
  7 13  1  0  0  0  0
  8 10  1  0  0  0  0
  8  3  2  0  0  0  0
  9  2  1  0  0  0  0
  9 10  2  0  0  0  0
 10 16  1  0  0  0  0
 11 24  1  0  0  0  0
 12 14  1  0  0  0  0
 13  5  2  0  0  0  0
 13  6  1  0  0  0  0
 14  5  1  0  0  0  0
 16 11  2  0  0  0  0
 16 15  1  0  0  0  0
 17  2  2  0  0  0  0
 18 11  1  0  0  0  0
 19 20  1  0  0  0  0
 20 21  1  0  0  0  0
 21 22  2  0  0  0  0
 23 21  2  0  0  0  0
 24 27  1  0  0  0  0
 25 31  1  1  0  0  0
 25 27  1  0  0  0  0
 25 26  1  0  0  0  0
 26 28  1  1  0  0  0
 27 26  1  0  0  0  0
 28 30  1  0  0  0  0
 28 29  1  0  0  0  0
 32 31  1  0  0  0  0
M  END
>  <MODEL>
5

>  <REMARK>
 VINA RESULT:      -7.6      3.996      5.735
  Name = 
  7 active torsions:
  status: ('A' for Active; 'I' for Inactive)
    1  A    between atoms: N_1  and  N_10
    2  A    between atoms: C_2  and  C_24
    3  A    between atoms: C_6  and  C_7
    4  A    between atoms: N_10  and  C_24
    5  A    between atoms: C_11  and  C_22
    6  A    between atoms: C_16  and  C_27
    7  A    between atoms: C_27  and  N_32
                            x       y       z     vdW  Elec       q    Type
                         _______ _______ _______ _____ _____    ______ ____

>  <TORSDO>
F 7

$$$$
=
 OpenBabel10272413313D

 32 36  0  0  1  0  0  0  0  0999 V2000
  191.8730  177.3800  143.5450 C   0  0  1  0  0  3  0  0  0  0  0  0
  187.7170  178.4450  140.6020 C   0  0  0  0  0  0  0  0  0  0  0  0
  188.6140  176.2340  136.3690 C   0  0  0  0  0  3  0  0  0  0  0  0
  187.3150  176.5370  135.9510 C   0  0  0  0  0  3  0  0  0  0  0  0
  189.4590  178.4110  142.3340 C   0  0  0  0  0  0  0  0  0  0  0  0
  189.9100  177.3160  140.2230 N   0  0  0  0  0  2  0  0  0  0  0  0
  191.6930  177.2900  142.0340 C   0  0  0  0  0  2  0  0  0  0  0  0
  189.0520  176.6210  137.6390 C   0  0  0  0  0  3  0  0  0  0  0  0
  188.6140  177.6810  139.7210 C   0  0  0  0  0  0  0  0  0  0  0  0
  188.1950  177.3290  138.4980 C   0  0  0  0  0  0  0  0  0  0  0  0
  186.0270  178.3710  138.8580 C   0  0  0  0  0  0  0  0  0  0  0  0
  191.2620  178.6670  144.0960 C   0  0  0  0  0  2  0  0  0  0  0  0
  190.3050  177.6800  141.5590 C   0  0  0  0  0  0  0  0  0  0  0  0
  189.7850  178.7720  143.7610 C   0  0  0  0  0  2  0  0  0  0  0  0
  186.4520  177.2390  136.7870 C   0  0  0  0  0  3  0  0  0  0  0  0
  186.8710  177.6600  138.0620 C   0  0  0  0  0  0  0  0  0  0  0  0
  188.1180  178.7880  141.8280 C   0  0  0  0  0  3  0  0  0  0  0  0
  186.4470  178.7880  140.1350 O   0  0  0  0  0  0  0  0  0  0  0  0
  191.3480  176.1430  144.2670 C   0  0  0  0  0  2  0  0  0  0  0  0
  191.9180  176.0290  145.6070 N   0  0  0  0  0  2  0  0  0  0  0  0
  191.2870  176.5830  146.7450 N   0  0  0  0  0  0  0  0  0  0  0  0
  191.9790  176.8690  147.7470 O   0  0  0  0  0  0  0  0  0  0  0  0
  189.9110  176.6280  146.8350 O   0  0  0  0  0  0  0  0  0  0  0  0
  184.6510  178.7670  138.4060 C   0  0  0  0  0  2  0  0  0  0  0  0
  182.7730  180.3080  138.7710 C   0  0  1  0  0  3  0  0  0  0  0  0
  182.8380  179.5390  140.0160 C   0  0  2  0  0  3  0  0  0  0  0  0
  184.1070  179.8770  139.2560 N   0  0  0  0  0  0  0  0  0  0  0  0
  183.1510  178.2050  140.7680 C   0  0  0  0  0  3  0  0  0  0  0  0
  182.1850  177.2150  140.5310 O   0  0  0  0  0  1  0  0  0  0  0  0
  183.3120  178.4090  142.1380 O   0  0  0  0  0  1  0  0  0  0  0  0
  182.0350  179.4500  137.7110 C   0  0  0  0  0  2  0  0  0  0  0  0
  181.0080  180.3140  136.9680 C   0  0  0  0  0  1  0  0  0  0  0  0
  1 12  1  0  0  0  0
  1 19  1  1  0  0  0
  2 17  2  0  0  0  0
  3  8  2  0  0  0  0
  4  3  1  0  0  0  0
  4 15  2  0  0  0  0
  5 14  1  0  0  0  0
  6 13  1  0  0  0  0
  7  1  1  0  0  0  0
  8 10  1  0  0  0  0
  9  6  1  0  0  0  0
  9  2  1  0  0  0  0
 10  9  2  0  0  0  0
 11 18  1  0  0  0  0
 13  7  1  0  0  0  0
 13  5  2  0  0  0  0
 14 12  1  0  0  0  0
 15 16  1  0  0  0  0
 16 10  1  0  0  0  0
 16 11  2  0  0  0  0
 17  5  1  0  0  0  0
 18  2  1  0  0  0  0
 19 20  1  0  0  0  0
 20 21  1  0  0  0  0
 21 23  2  0  0  0  0
 21 22  2  0  0  0  0
 24 11  1  0  0  0  0
 24 27  1  0  0  0  0
 25 31  1  6  0  0  0
 25 27  1  0  0  0  0
 25 26  1  0  0  0  0
 26 28  1  6  0  0  0
 27 26  1  0  0  0  0
 28 30  1  0  0  0  0
 29 28  1  0  0  0  0
 32 31  1  0  0  0  0
M  END
>  <MODEL>
6

>  <REMARK>
 VINA RESULT:      -7.5      3.361      9.604
  Name = 
  7 active torsions:
  status: ('A' for Active; 'I' for Inactive)
    1  A    between atoms: N_1  and  N_10
    2  A    between atoms: C_2  and  C_24
    3  A    between atoms: C_6  and  C_7
    4  A    between atoms: N_10  and  C_24
    5  A    between atoms: C_11  and  C_22
    6  A    between atoms: C_16  and  C_27
    7  A    between atoms: C_27  and  N_32
                            x       y       z     vdW  Elec       q    Type
                         _______ _______ _______ _____ _____    ______ ____

>  <TORSDO>
F 7

$$$$
=
 OpenBabel10272413313D

 32 36  0  0  1  0  0  0  0  0999 V2000
  192.2850  175.8060  136.6530 C   0  0  1  0  0  3  0  0  0  0  0  0
  189.3530  177.6970  140.5130 C   0  0  0  0  0  0  0  0  0  0  0  0
  185.0300  178.5470  138.4650 C   0  0  0  0  0  3  0  0  0  0  0  0
  184.5000  178.8220  139.7290 C   0  0  0  0  0  3  0  0  0  0  0  0
  191.2010  176.9430  139.0800 C   0  0  0  0  0  0  0  0  0  0  0  0
  189.0500  177.3730  138.0570 N   0  0  0  0  0  2  0  0  0  0  0  0
  190.9760  176.5860  136.5980 C   0  0  0  0  0  2  0  0  0  0  0  0
  186.3740  178.1860  138.3290 C   0  0  0  0  0  3  0  0  0  0  0  0
  188.4870  177.7470  139.3250 C   0  0  0  0  0  0  0  0  0  0  0  0
  187.2040  178.1120  139.4590 C   0  0  0  0  0  0  0  0  0  0  0  0
  187.4540  178.3810  141.8630 C   0  0  0  0  0  0  0  0  0  0  0  0
  193.2430  176.4120  137.6770 C   0  0  0  0  0  2  0  0  0  0  0  0
  190.4230  176.9480  137.9640 C   0  0  0  0  0  0  0  0  0  0  0  0
  192.6270  176.4520  139.0640 C   0  0  0  0  0  2  0  0  0  0  0  0
  185.3080  178.7550  140.8610 C   0  0  0  0  0  3  0  0  0  0  0  0
  186.6680  178.4150  140.7530 C   0  0  0  0  0  0  0  0  0  0  0  0
  190.6290  177.3210  140.3940 C   0  0  0  0  0  3  0  0  0  0  0  0
  188.8140  178.0380  141.7540 O   0  0  0  0  0  0  0  0  0  0  0  0
  192.0640  174.3160  136.8900 C   0  0  0  0  0  2  0  0  0  0  0  0
  191.1890  173.7420  135.8710 N   0  0  0  0  0  2  0  0  0  0  0  0
  189.9380  173.1640  136.1900 N   0  0  0  0  0  0  0  0  0  0  0  0
  189.3530  172.4640  135.3340 O   0  0  0  0  0  0  0  0  0  0  0  0
  189.2720  173.5190  137.3450 O   0  0  0  0  0  0  0  0  0  0  0  0
  186.9250  178.7380  143.2230 C   0  0  0  0  0  2  0  0  0  0  0  0
  187.3500  176.9160  144.8140 C   0  0  1  0  0  3  0  0  0  0  0  0
  186.2350  177.6490  145.4170 C   0  0  2  0  0  3  0  0  0  0  0  0
  186.3510  177.5330  143.9080 N   0  0  0  0  0  0  0  0  0  0  0  0
  185.4770  178.9920  145.6700 C   0  0  0  0  0  3  0  0  0  0  0  0
  185.9970  179.7040  146.7620 O   0  0  0  0  0  1  0  0  0  0  0  0
  184.1070  178.7920  145.8280 O   0  0  0  0  0  1  0  0  0  0  0  0
  188.6610  177.6800  145.1360 C   0  0  0  0  0  2  0  0  0  0  0  0
  188.9810  177.5530  146.6310 C   0  0  0  0  0  1  0  0  0  0  0  0
  1 19  1  1  0  0  0
  1 12  1  0  0  0  0
  2 18  1  0  0  0  0
  3  4  1  0  0  0  0
  4 15  2  0  0  0  0
  5 17  1  0  0  0  0
  6  9  1  0  0  0  0
  7  1  1  0  0  0  0
  7 13  1  0  0  0  0
  8  3  2  0  0  0  0
  8 10  1  0  0  0  0
  9 10  2  0  0  0  0
  9  2  1  0  0  0  0
 10 16  1  0  0  0  0
 11 24  1  0  0  0  0
 12 14  1  0  0  0  0
 13  6  1  0  0  0  0
 13  5  2  0  0  0  0
 14  5  1  0  0  0  0
 16 15  1  0  0  0  0
 16 11  2  0  0  0  0
 17  2  2  0  0  0  0
 18 11  1  0  0  0  0
 20 21  1  0  0  0  0
 20 19  1  0  0  0  0
 21 23  2  0  0  0  0
 22 21  2  0  0  0  0
 24 27  1  0  0  0  0
 25 31  1  6  0  0  0
 25 26  1  0  0  0  0
 26 28  1  6  0  0  0
 27 25  1  0  0  0  0
 27 26  1  0  0  0  0
 28 30  1  0  0  0  0
 28 29  1  0  0  0  0
 31 32  1  0  0  0  0
M  END
>  <MODEL>
7

>  <REMARK>
 VINA RESULT:      -7.3      4.180      7.856
  Name = 
  7 active torsions:
  status: ('A' for Active; 'I' for Inactive)
    1  A    between atoms: N_1  and  N_10
    2  A    between atoms: C_2  and  C_24
    3  A    between atoms: C_6  and  C_7
    4  A    between atoms: N_10  and  C_24
    5  A    between atoms: C_11  and  C_22
    6  A    between atoms: C_16  and  C_27
    7  A    between atoms: C_27  and  N_32
                            x       y       z     vdW  Elec       q    Type
                         _______ _______ _______ _____ _____    ______ ____

>  <TORSDO>
F 7

$$$$
=
 OpenBabel10272413313D

 32 36  0  0  1  0  0  0  0  0999 V2000
  191.8760  177.3670  143.5930 C   0  0  1  0  0  3  0  0  0  0  0  0
  187.7300  178.4260  140.6350 C   0  0  0  0  0  0  0  0  0  0  0  0
  188.6660  176.2550  136.3900 C   0  0  0  0  0  3  0  0  0  0  0  0
  187.3670  176.5520  135.9660 C   0  0  0  0  0  3  0  0  0  0  0  0
  189.4630  178.3910  142.3760 C   0  0  0  0  0  0  0  0  0  0  0  0
  189.9330  177.3150  140.2590 N   0  0  0  0  0  2  0  0  0  0  0  0
  191.7060  177.2870  142.0800 C   0  0  0  0  0  2  0  0  0  0  0  0
  189.0940  176.6350  137.6660 C   0  0  0  0  0  3  0  0  0  0  0  0
  188.6380  177.6760  139.7530 C   0  0  0  0  0  0  0  0  0  0  0  0
  188.2280  177.3300  138.5250 C   0  0  0  0  0  0  0  0  0  0  0  0
  186.0510  178.3540  138.8810 C   0  0  0  0  0  0  0  0  0  0  0  0
  191.2540  178.6450  144.1500 C   0  0  0  0  0  2  0  0  0  0  0  0
  190.3180  177.6710  141.6010 C   0  0  0  0  0  0  0  0  0  0  0  0
  189.7780  178.7430  143.8080 C   0  0  0  0  0  2  0  0  0  0  0  0
  186.4950  177.2420  136.8040 C   0  0  0  0  0  3  0  0  0  0  0  0
  186.9040  177.6550  138.0840 C   0  0  0  0  0  0  0  0  0  0  0  0
  188.1210  178.7630  141.8660 C   0  0  0  0  0  3  0  0  0  0  0  0
  186.4610  178.7650  140.1630 O   0  0  0  0  0  0  0  0  0  0  0  0
  191.3550  176.1210  144.3030 C   0  0  0  0  0  2  0  0  0  0  0  0
  191.9360  175.9880  145.6360 N   0  0  0  0  0  2  0  0  0  0  0  0
  191.2730  176.4470  146.7970 N   0  0  0  0  0  0  0  0  0  0  0  0
  190.0320  176.6050  146.7690 O   0  0  0  0  0  0  0  0  0  0  0  0
  191.9900  176.9050  147.8830 O   0  0  0  0  0  0  0  0  0  0  0  0
  184.6750  178.7450  138.4240 C   0  0  0  0  0  2  0  0  0  0  0  0
  182.5400  179.0750  139.5920 C   0  0  1  0  0  3  0  0  0  0  0  0
  182.2530  177.9960  138.6440 C   0  0  2  0  0  3  0  0  0  0  0  0
  183.6240  178.1100  139.2850 N   0  0  0  0  0  0  0  0  0  0  0  0
  182.5000  177.3060  137.2640 C   0  0  0  0  0  3  0  0  0  0  0  0
  182.0010  178.0610  136.1900 O   0  0  0  0  0  1  0  0  0  0  0  0
  181.9810  176.0130  137.2310 O   0  0  0  0  0  1  0  0  0  0  0  0
  182.4780  180.4220  138.8250 C   0  0  0  0  0  2  0  0  0  0  0  0
  181.0320  180.7140  138.4060 C   0  0  0  0  0  1  0  0  0  0  0  0
  1 12  1  0  0  0  0
  1 19  1  1  0  0  0
  2 17  2  0  0  0  0
  3  8  2  0  0  0  0
  4  3  1  0  0  0  0
  4 15  2  0  0  0  0
  5 14  1  0  0  0  0
  6 13  1  0  0  0  0
  7  1  1  0  0  0  0
  8 10  1  0  0  0  0
  9  6  1  0  0  0  0
  9  2  1  0  0  0  0
 10  9  2  0  0  0  0
 11 18  1  0  0  0  0
 13  7  1  0  0  0  0
 13  5  2  0  0  0  0
 14 12  1  0  0  0  0
 15 16  1  0  0  0  0
 16 10  1  0  0  0  0
 16 11  2  0  0  0  0
 17  5  1  0  0  0  0
 18  2  1  0  0  0  0
 19 20  1  0  0  0  0
 20 21  1  0  0  0  0
 21 23  2  0  0  0  0
 22 21  2  0  0  0  0
 24 11  1  0  0  0  0
 24 27  1  0  0  0  0
 25 31  1  6  0  0  0
 26 28  1  6  0  0  0
 26 27  1  0  0  0  0
 26 25  1  0  0  0  0
 27 25  1  0  0  0  0
 29 28  1  0  0  0  0
 30 28  1  0  0  0  0
 32 31  1  0  0  0  0
M  END
>  <MODEL>
8

>  <REMARK>
 VINA RESULT:      -7.2      3.254      9.732
  Name = 
  7 active torsions:
  status: ('A' for Active; 'I' for Inactive)
    1  A    between atoms: N_1  and  N_10
    2  A    between atoms: C_2  and  C_24
    3  A    between atoms: C_6  and  C_7
    4  A    between atoms: N_10  and  C_24
    5  A    between atoms: C_11  and  C_22
    6  A    between atoms: C_16  and  C_27
    7  A    between atoms: C_27  and  N_32
                            x       y       z     vdW  Elec       q    Type
                         _______ _______ _______ _____ _____    ______ ____

>  <TORSDO>
F 7

$$$$
=
 OpenBabel10272413313D

 32 36  0  0  1  0  0  0  0  0999 V2000
  189.1400  176.5950  136.6850 C   0  0  1  0  0  3  0  0  0  0  0  0
  189.6660  177.4280  141.7930 C   0  0  0  0  0  0  0  0  0  0  0  0
  185.1860  178.5210  143.3250 C   0  0  0  0  0  3  0  0  0  0  0  0
  185.6410  178.4780  144.6460 C   0  0  0  0  0  3  0  0  0  0  0  0
  190.0350  177.1030  139.3860 C   0  0  0  0  0  0  0  0  0  0  0  0
  187.8040  177.6540  140.1470 N   0  0  0  0  0  2  0  0  0  0  0  0
  188.2110  177.3060  137.6630 C   0  0  0  0  0  2  0  0  0  0  0  0
  186.0650  178.2610  142.2690 C   0  0  0  0  0  3  0  0  0  0  0  0
  188.2490  177.7050  141.5120 C   0  0  0  0  0  0  0  0  0  0  0  0
  187.4150  177.9710  142.5270 C   0  0  0  0  0  0  0  0  0  0  0  0
  189.1960  177.7010  144.1610 C   0  0  0  0  0  0  0  0  0  0  0  0
  190.5950  176.9960  136.9180 C   0  0  0  0  0  2  0  0  0  0  0  0
  188.7250  177.3240  139.0910 C   0  0  0  0  0  0  0  0  0  0  0  0
  191.0380  176.6930  138.3380 C   0  0  0  0  0  2  0  0  0  0  0  0
  186.9760  178.1930  144.9210 C   0  0  0  0  0  3  0  0  0  0  0  0
  187.8880  177.9490  143.8800 C   0  0  0  0  0  0  0  0  0  0  0  0
  190.5030  177.1470  140.7920 C   0  0  0  0  0  3  0  0  0  0  0  0
  190.1070  177.4530  143.1180 O   0  0  0  0  0  0  0  0  0  0  0  0
  188.9540  175.0810  136.7050 C   0  0  0  0  0  2  0  0  0  0  0  0
  187.8460  174.6710  135.8470 N   0  0  0  0  0  2  0  0  0  0  0  0
  186.5470  174.4340  136.3540 N   0  0  0  0  0  0  0  0  0  0  0  0
  185.6130  175.1940  136.0190 O   0  0  0  0  0  0  0  0  0  0  0  0
  186.3410  173.5060  137.3540 O   0  0  0  0  0  0  0  0  0  0  0  0
  189.7240  177.7160  145.5670 C   0  0  0  0  0  2  0  0  0  0  0  0
  190.3170  175.8760  147.0810 C   0  0  1  0  0  3  0  0  0  0  0  0
  189.3480  176.6590  147.8510 C   0  0  2  0  0  3  0  0  0  0  0  0
  189.2140  176.5390  146.3440 N   0  0  0  0  0  0  0  0  0  0  0  0
  188.7040  178.0350  148.2130 C   0  0  0  0  0  3  0  0  0  0  0  0
  189.5620  178.8470  148.9710 O   0  0  0  0  0  1  0  0  0  0  0  0
  187.4820  177.8790  148.8660 O   0  0  0  0  0  1  0  0  0  0  0  0
  191.6970  176.5780  147.1820 C   0  0  0  0  0  2  0  0  0  0  0  0
  192.7270  175.6140  147.7830 C   0  0  0  0  0  1  0  0  0  0  0  0
  1 19  1  1  0  0  0
  1 12  1  0  0  0  0
  1  7  1  0  0  0  0
  2 18  1  0  0  0  0
  3  4  1  0  0  0  0
  4 15  2  0  0  0  0
  5 17  1  0  0  0  0
  6  9  1  0  0  0  0
  7 13  1  0  0  0  0
  8 10  1  0  0  0  0
  8  3  2  0  0  0  0
  9  2  1  0  0  0  0
  9 10  2  0  0  0  0
 10 16  1  0  0  0  0
 11 24  1  0  0  0  0
 12 14  1  0  0  0  0
 13  5  2  0  0  0  0
 13  6  1  0  0  0  0
 14  5  1  0  0  0  0
 16 11  2  0  0  0  0
 16 15  1  0  0  0  0
 17  2  2  0  0  0  0
 18 11  1  0  0  0  0
 20 21  1  0  0  0  0
 20 19  1  0  0  0  0
 21 23  2  0  0  0  0
 22 21  2  0  0  0  0
 24 27  1  0  0  0  0
 25 31  1  6  0  0  0
 25 26  1  0  0  0  0
 26 28  1  6  0  0  0
 27 25  1  0  0  0  0
 27 26  1  0  0  0  0
 28 30  1  0  0  0  0
 28 29  1  0  0  0  0
 31 32  1  0  0  0  0
M  END
>  <MODEL>
9

>  <REMARK>
 VINA RESULT:      -7.2      3.815      5.873
  Name = 
  7 active torsions:
  status: ('A' for Active; 'I' for Inactive)
    1  A    between atoms: N_1  and  N_10
    2  A    between atoms: C_2  and  C_24
    3  A    between atoms: C_6  and  C_7
    4  A    between atoms: N_10  and  C_24
    5  A    between atoms: C_11  and  C_22
    6  A    between atoms: C_16  and  C_27
    7  A    between atoms: C_27  and  N_32
                            x       y       z     vdW  Elec       q    Type
                         _______ _______ _______ _____ _____    ______ ____

>  <TORSDO>
F 7

$$$$
