=
 OpenBabel10272414373D

 43 48  0  0  1  0  0  0  0  0999 V2000
  191.1760  177.1720  145.8760 C   0  0  0  0  0  0  0  0  0  0  0  0
  187.4170  178.1440  142.6710 N   0  0  2  0  0  0  0  0  0  0  0  0
  188.5550  177.5580  139.9510 C   0  0  1  0  0  3  0  0  0  0  0  0
  189.0780  177.2060  144.7610 C   0  0  0  0  0  0  0  0  0  0  0  0
  191.8100  177.7140  144.7560 C   0  0  0  0  0  3  0  0  0  0  0  0
  191.9340  176.8720  147.0430 N   0  0  0  0  0  1  0  0  0  0  0  0
  189.6780  177.7650  143.6170 C   0  0  0  0  0  0  0  0  0  0  0  0
  189.8360  176.9390  145.8590 N   0  0  0  0  0  0  0  0  0  0  0  0
  191.0540  178.0090  143.6210 C   0  0  0  0  0  3  0  0  0  0  0  0
  189.1580  177.0630  141.2700 C   0  0  0  0  0  2  0  0  0  0  0  0
  188.8660  178.0620  142.3850 C   0  0  1  0  0  3  0  0  0  0  0  0
  186.9880  176.9630  143.4240 C   0  0  0  0  0  2  0  0  0  0  0  0
  186.5750  178.2130  141.4580 C   0  0  2  0  0  3  0  0  0  0  0  0
  187.3430  178.4790  140.1510 C   0  0  0  0  0  2  0  0  0  0  0  0
  187.5960  176.9920  144.8230 C   0  0  0  0  0  2  0  0  0  0  0  0
  189.6040  178.2700  139.0920 C   0  0  2  0  0  3  0  0  0  0  0  0
  189.0080  179.3000  138.3640 O   0  0  0  0  0  1  0  0  0  0  0  0
  191.8240  175.4660  137.7650 N   0  0  0  0  0  2  0  0  0  0  0  0
  190.2420  177.3310  138.1780 N   0  0  0  0  0  2  0  0  0  0  0  0
  191.4240  176.6050  138.5280 C   0  0  0  0  0  0  0  0  0  0  0  0
  192.1190  176.9640  139.5150 O   0  0  0  0  0  0  0  0  0  0  0  0
  190.9870  174.8960  136.7200 C   0  0  1  0  0  3  0  0  0  0  0  0
  189.8250  172.7280  135.2390 O   0  0  0  0  0  0  0  0  0  0  0  0
  191.7810  174.1230  135.6520 C   0  0  2  0  0  3  0  0  0  0  0  0
  189.8950  174.0200  137.3220 C   0  0  0  0  0  2  0  0  0  0  0  0
  189.0430  173.4130  136.2020 C   0  0  1  0  0  3  0  0  0  0  0  0
  190.7430  173.6200  134.6380 C   0  0  0  0  0  2  0  0  0  0  0  0
  188.0930  174.4260  135.5740 C   0  0  0  0  0  1  0  0  0  0  0  0
  192.6230  172.9590  136.2210 C   0  0  0  0  0  3  0  0  0  0  0  0
  194.9460  171.1480  136.2480 C   0  0  0  0  0  2  0  0  0  0  0  0
  194.8090  172.2850  137.2560 C   0  0  0  0  0  2  0  0  0  0  0  0
  193.5680  170.6690  135.8020 C   0  0  0  0  0  2  0  0  0  0  0  0
  194.0150  173.4360  136.6440 C   0  0  0  0  0  2  0  0  0  0  0  0
  192.7830  171.8290  135.1960 C   0  0  0  0  0  2  0  0  0  0  0  0
  185.4700  179.2570  141.6390 C   0  0  0  0  0  2  0  0  0  0  0  0
  181.6340  178.8430  141.8680 C   0  0  0  0  0  2  0  0  0  0  0  0
  181.4720  177.7620  140.8250 C   0  0  0  0  0  0  0  0  0  0  0  0
  183.8450  177.9900  140.2910 C   0  0  0  0  0  3  0  0  0  0  0  0
  183.0450  178.8450  142.4630 C   0  0  0  0  0  2  0  0  0  0  0  0
  184.1010  178.6970  141.3990 C   0  0  0  0  0  0  0  0  0  0  0  0
  182.5070  177.4220  140.0530 C   0  0  0  0  0  3  0  0  0  0  0  0
  180.1620  177.1570  140.5520 C   0  0  0  0  0  3  0  0  0  0  0  0
  179.9820  176.2530  139.5960 C   0  0  0  0  0  2  0  0  0  0  0  0
  1  6  1  0  0  0  0
  2 12  1  6  0  0  0
  3 16  1  1  0  0  0
  3 14  1  0  0  0  0
  3 10  1  0  0  0  0
  4 15  1  0  0  0  0
  4  8  2  0  0  0  0
  5  1  2  0  0  0  0
  7  9  2  0  0  0  0
  7  4  1  0  0  0  0
  8  1  1  0  0  0  0
  9  5  1  0  0  0  0
 11 10  1  6  0  0  0
 11  2  1  0  0  0  0
 11  7  1  0  0  0  0
 12 15  1  0  0  0  0
 13 35  1  1  0  0  0
 13  2  1  0  0  0  0
 14 13  1  0  0  0  0
 16 17  1  6  0  0  0
 18 20  1  0  0  0  0
 19 20  1  0  0  0  0
 19 16  1  0  0  0  0
 20 21  2  0  0  0  0
 22 25  1  0  0  0  0
 22 18  1  1  0  0  0
 23 26  1  0  0  0  0
 24 29  1  1  0  0  0
 24 22  1  0  0  0  0
 26 28  1  6  0  0  0
 26 25  1  0  0  0  0
 27 23  1  0  0  0  0
 27 24  1  0  0  0  0
 29 33  1  0  0  0  0
 30 31  1  0  0  0  0
 32 30  1  0  0  0  0
 33 31  1  0  0  0  0
 34 32  1  0  0  0  0
 34 29  1  0  0  0  0
 36 39  1  0  0  0  0
 37 36  1  0  0  0  0
 38 40  2  0  0  0  0
 40 35  1  0  0  0  0
 40 39  1  0  0  0  0
 41 38  1  0  0  0  0
 41 37  2  0  0  0  0
 42 37  1  0  0  0  0
 43 42  2  0  0  0  0
M  END
>  <MODEL>
1

>  <REMARK>
 VINA RESULT:      -8.9      0.000      0.000
  Name = 
  7 active torsions:
  status: ('A' for Active; 'I' for Inactive)
    1  A    between atoms: C_1  and  C_34
    2  A    between atoms: C_1  and  C_35
    3  A    between atoms: C_2  and  N_6
    4  A    between atoms: C_2  and  C_13
    5  A    between atoms: N_3  and  C_4
    6  A    between atoms: C_11  and  C_14
    7  A    between atoms: C_19  and  C_25
                            x       y       z     vdW  Elec       q    Type
                         _______ _______ _______ _____ _____    ______ ____

>  <TORSDO>
F 7

$$$$
=
 OpenBabel10272414373D

 43 48  0  0  1  0  0  0  0  0999 V2000
  188.9830  177.4940  144.7760 C   0  0  0  0  0  0  0  0  0  0  0  0
  190.5120  176.5680  140.0690 N   0  0  2  0  0  0  0  0  0  0  0  0
  188.7100  178.2340  138.3340 C   0  0  1  0  0  3  0  0  0  0  0  0
  190.2930  177.2380  142.8100 C   0  0  0  0  0  0  0  0  0  0  0  0
  187.8070  177.5080  144.0230 C   0  0  0  0  0  3  0  0  0  0  0  0
  188.9200  177.6180  146.1920 N   0  0  0  0  0  1  0  0  0  0  0  0
  189.1300  177.2340  142.0170 C   0  0  0  0  0  0  0  0  0  0  0  0
  190.1890  177.3530  144.1620 N   0  0  0  0  0  0  0  0  0  0  0  0
  187.8850  177.3790  142.6360 C   0  0  0  0  0  3  0  0  0  0  0  0
  188.9080  178.4490  139.8380 C   0  0  0  0  0  2  0  0  0  0  0  0
  189.2150  177.1180  140.5190 C   0  0  1  0  0  3  0  0  0  0  0  0
  191.6120  177.3040  140.6960 C   0  0  0  0  0  2  0  0  0  0  0  0
  190.7160  176.6470  138.6070 C   0  0  2  0  0  3  0  0  0  0  0  0
  189.4580  177.0060  137.7960 C   0  0  0  0  0  2  0  0  0  0  0  0
  191.6410  177.0170  142.1930 C   0  0  0  0  0  2  0  0  0  0  0  0
  187.2240  178.1250  137.9790 C   0  0  2  0  0  3  0  0  0  0  0  0
  186.4420  178.4530  139.0860 O   0  0  0  0  0  1  0  0  0  0  0  0
  185.6090  175.2420  136.0720 N   0  0  0  0  0  2  0  0  0  0  0  0
  186.8990  176.7750  137.5350 N   0  0  0  0  0  2  0  0  0  0  0  0
  185.7260  176.4820  136.7700 C   0  0  0  0  0  0  0  0  0  0  0  0
  184.7870  177.3190  136.7060 O   0  0  0  0  0  0  0  0  0  0  0  0
  186.7160  174.3020  135.9660 C   0  0  1  0  0  3  0  0  0  0  0  0
  187.9700  171.8840  135.0580 O   0  0  0  0  0  0  0  0  0  0  0  0
  186.4290  172.9400  136.6240 C   0  0  2  0  0  3  0  0  0  0  0  0
  187.1320  174.1230  134.5110 C   0  0  0  0  0  2  0  0  0  0  0  0
  188.2810  173.1120  134.4220 C   0  0  1  0  0  3  0  0  0  0  0  0
  187.7020  172.1030  136.4290 C   0  0  0  0  0  2  0  0  0  0  0  0
  189.6110  173.6950  134.8880 C   0  0  0  0  0  1  0  0  0  0  0  0
  185.1880  172.2200  136.0530 C   0  0  0  0  0  3  0  0  0  0  0  0
  183.1760  170.0690  135.9980 C   0  0  0  0  0  2  0  0  0  0  0  0
  182.8320  171.4700  136.4940 C   0  0  0  0  0  2  0  0  0  0  0  0
  184.3010  170.1340  134.9690 C   0  0  0  0  0  2  0  0  0  0  0  0
  184.0700  172.1310  137.0950 C   0  0  0  0  0  2  0  0  0  0  0  0
  185.5300  170.8020  135.5800 C   0  0  0  0  0  2  0  0  0  0  0  0
  191.3210  175.3410  138.0860 C   0  0  0  0  0  2  0  0  0  0  0  0
  195.0370  175.0190  137.0700 C   0  0  0  0  0  2  0  0  0  0  0  0
  194.9790  175.8160  135.7880 C   0  0  0  0  0  0  0  0  0  0  0  0
  192.5540  175.9640  136.0470 C   0  0  0  0  0  3  0  0  0  0  0  0
  193.9130  175.4170  138.0320 C   0  0  0  0  0  2  0  0  0  0  0  0
  192.5930  175.5580  137.3220 C   0  0  0  0  0  0  0  0  0  0  0  0
  193.7980  176.1950  135.2930 C   0  0  0  0  0  3  0  0  0  0  0  0
  196.1890  176.0820  135.0000 C   0  0  0  0  0  3  0  0  0  0  0  0
  197.3730  175.5750  135.3240 C   0  0  0  0  0  2  0  0  0  0  0  0
  1  6  1  0  0  0  0
  2 11  1  0  0  0  0
  2 12  1  1  0  0  0
  3 16  1  1  0  0  0
  3 10  1  0  0  0  0
  4  8  2  0  0  0  0
  5  1  2  0  0  0  0
  7  9  2  0  0  0  0
  7  4  1  0  0  0  0
  8  1  1  0  0  0  0
  9  5  1  0  0  0  0
 11 10  1  6  0  0  0
 11  7  1  0  0  0  0
 12 15  1  0  0  0  0
 13 35  1  6  0  0  0
 13  2  1  0  0  0  0
 14  3  1  0  0  0  0
 14 13  1  0  0  0  0
 15  4  1  0  0  0  0
 16 17  1  1  0  0  0
 18 20  1  0  0  0  0
 19 16  1  0  0  0  0
 20 19  1  0  0  0  0
 21 20  2  0  0  0  0
 22 18  1  6  0  0  0
 22 24  1  0  0  0  0
 23 27  1  0  0  0  0
 24 29  1  6  0  0  0
 25 22  1  0  0  0  0
 26 25  1  0  0  0  0
 26 28  1  1  0  0  0
 26 23  1  0  0  0  0
 27 24  1  0  0  0  0
 29 33  1  0  0  0  0
 30 31  1  0  0  0  0
 31 33  1  0  0  0  0
 32 34  1  0  0  0  0
 32 30  1  0  0  0  0
 34 29  1  0  0  0  0
 36 39  1  0  0  0  0
 37 36  1  0  0  0  0
 38 40  2  0  0  0  0
 40 39  1  0  0  0  0
 40 35  1  0  0  0  0
 41 37  2  0  0  0  0
 41 38  1  0  0  0  0
 42 43  2  0  0  0  0
 42 37  1  0  0  0  0
M  END
>  <MODEL>
2

>  <REMARK>
 VINA RESULT:      -8.7      3.246      7.801
  Name = 
  7 active torsions:
  status: ('A' for Active; 'I' for Inactive)
    1  A    between atoms: C_1  and  C_34
    2  A    between atoms: C_1  and  C_35
    3  A    between atoms: C_2  and  N_6
    4  A    between atoms: C_2  and  C_13
    5  A    between atoms: N_3  and  C_4
    6  A    between atoms: C_11  and  C_14
    7  A    between atoms: C_19  and  C_25
                            x       y       z     vdW  Elec       q    Type
                         _______ _______ _______ _____ _____    ______ ____

>  <TORSDO>
F 7

$$$$
=
 OpenBabel10272414373D

 43 48  0  0  1  0  0  0  0  0999 V2000
  182.4050  175.7060  134.8600 C   0  0  0  0  0  0  0  0  0  0  0  0
  187.3970  175.4460  135.4630 N   0  0  2  0  0  0  0  0  0  0  0  0
  187.9380  176.9140  138.0290 C   0  0  1  0  0  3  0  0  0  0  0  0
  184.6410  174.9320  135.0740 C   0  0  0  0  0  0  0  0  0  0  0  0
  182.7470  176.9340  135.4300 C   0  0  0  0  0  3  0  0  0  0  0  0
  181.0640  175.4640  134.4490 N   0  0  0  0  0  1  0  0  0  0  0  0
  185.0280  176.1610  135.6400 C   0  0  0  0  0  0  0  0  0  0  0  0
  183.3500  174.7430  134.6880 N   0  0  0  0  0  0  0  0  0  0  0  0
  184.0670  177.1580  135.8230 C   0  0  0  0  0  3  0  0  0  0  0  0
  186.5650  176.3840  137.6060 C   0  0  0  0  0  2  0  0  0  0  0  0
  186.4470  176.3950  136.0840 C   0  0  1  0  0  3  0  0  0  0  0  0
  186.9140  174.0740  135.6310 C   0  0  0  0  0  2  0  0  0  0  0  0
  188.7550  175.5020  136.0410 C   0  0  2  0  0  3  0  0  0  0  0  0
  189.0200  176.7070  136.9600 C   0  0  0  0  0  2  0  0  0  0  0  0
  185.6540  173.8620  134.7980 C   0  0  0  0  0  2  0  0  0  0  0  0
  187.8690  178.3960  138.4090 C   0  0  2  0  0  3  0  0  0  0  0  0
  188.6560  179.1500  137.5380 O   0  0  0  0  0  1  0  0  0  0  0  0
  187.9840  178.3390  142.2220 N   0  0  0  0  0  2  0  0  0  0  0  0
  188.3260  178.5980  139.7780 N   0  0  0  0  0  2  0  0  0  0  0  0
  187.4510  178.4710  140.9030 C   0  0  0  0  0  0  0  0  0  0  0  0
  186.2030  178.4730  140.7380 O   0  0  0  0  0  0  0  0  0  0  0  0
  189.4070  178.1630  142.4710 C   0  0  1  0  0  3  0  0  0  0  0  0
  191.6720  176.9300  143.7330 O   0  0  0  0  0  0  0  0  0  0  0  0
  189.8230  178.5090  143.9120 C   0  0  2  0  0  3  0  0  0  0  0  0
  189.8470  176.7500  142.1050 C   0  0  0  0  0  2  0  0  0  0  0  0
  191.3420  176.5820  142.4000 C   0  0  1  0  0  3  0  0  0  0  0  0
  191.3420  178.2830  143.9770 C   0  0  0  0  0  2  0  0  0  0  0  0
  192.2230  177.2850  141.3740 C   0  0  0  0  0  1  0  0  0  0  0  0
  189.0850  177.6860  144.9910 C   0  0  0  0  0  3  0  0  0  0  0  0
  187.7320  177.3440  147.5850 C   0  0  0  0  0  2  0  0  0  0  0  0
  186.9490  177.3820  146.2760 C   0  0  0  0  0  2  0  0  0  0  0  0
  189.1390  176.8060  147.3430 C   0  0  0  0  0  2  0  0  0  0  0  0
  187.6830  178.2430  145.2510 C   0  0  0  0  0  2  0  0  0  0  0  0
  189.8600  177.6720  146.3150 C   0  0  0  0  0  2  0  0  0  0  0  0
  189.8070  175.4500  134.9280 C   0  0  0  0  0  2  0  0  0  0  0  0
  193.5190  175.8740  135.9170 C   0  0  0  0  0  2  0  0  0  0  0  0
  193.7240  174.5260  136.5650 C   0  0  0  0  0  0  0  0  0  0  0  0
  191.3370  174.0860  136.2920 C   0  0  0  0  0  3  0  0  0  0  0  0
  192.3700  175.8440  134.9040 C   0  0  0  0  0  2  0  0  0  0  0  0
  191.1730  175.1040  135.4390 C   0  0  0  0  0  0  0  0  0  0  0  0
  192.6770  173.7280  136.7880 C   0  0  0  0  0  3  0  0  0  0  0  0
  195.0410  174.1160  137.0710 C   0  0  0  0  0  3  0  0  0  0  0  0
  195.1810  173.3140  138.1200 C   0  0  0  0  0  2  0  0  0  0  0  0
  1  5  1  0  0  0  0
  2 12  1  1  0  0  0
  2 13  1  0  0  0  0
  2 11  1  0  0  0  0
  3 16  1  6  0  0  0
  4  7  2  0  0  0  0
  5  9  2  0  0  0  0
  6  1  1  0  0  0  0
  7  9  1  0  0  0  0
  7 11  1  0  0  0  0
  8  1  2  0  0  0  0
  8  4  1  0  0  0  0
 10  3  1  0  0  0  0
 11 10  1  1  0  0  0
 13 35  1  6  0  0  0
 13 14  1  0  0  0  0
 14  3  1  0  0  0  0
 15  4  1  0  0  0  0
 15 12  1  0  0  0  0
 16 17  1  6  0  0  0
 16 19  1  0  0  0  0
 19 20  1  0  0  0  0
 20 18  1  0  0  0  0
 21 20  2  0  0  0  0
 22 18  1  1  0  0  0
 22 24  1  0  0  0  0
 23 27  1  0  0  0  0
 24 27  1  0  0  0  0
 24 29  1  1  0  0  0
 25 26  1  0  0  0  0
 25 22  1  0  0  0  0
 26 28  1  6  0  0  0
 26 23  1  0  0  0  0
 29 33  1  0  0  0  0
 29 34  1  0  0  0  0
 31 30  1  0  0  0  0
 32 30  1  0  0  0  0
 33 31  1  0  0  0  0
 34 32  1  0  0  0  0
 35 40  1  0  0  0  0
 36 37  1  0  0  0  0
 37 41  2  0  0  0  0
 37 42  1  0  0  0  0
 38 41  1  0  0  0  0
 39 40  1  0  0  0  0
 39 36  1  0  0  0  0
 40 38  2  0  0  0  0
 42 43  2  0  0  0  0
M  END
>  <MODEL>
3

>  <REMARK>
 VINA RESULT:      -8.4      3.163     10.230
  Name = 
  7 active torsions:
  status: ('A' for Active; 'I' for Inactive)
    1  A    between atoms: C_1  and  C_34
    2  A    between atoms: C_1  and  C_35
    3  A    between atoms: C_2  and  N_6
    4  A    between atoms: C_2  and  C_13
    5  A    between atoms: N_3  and  C_4
    6  A    between atoms: C_11  and  C_14
    7  A    between atoms: C_19  and  C_25
                            x       y       z     vdW  Elec       q    Type
                         _______ _______ _______ _____ _____    ______ ____

>  <TORSDO>
F 7

$$$$
=
 OpenBabel10272414373D

 43 48  0  0  1  0  0  0  0  0999 V2000
  184.2230  179.2150  139.0450 C   0  0  0  0  0  0  0  0  0  0  0  0
  188.5020  177.5120  141.0800 N   0  0  2  0  0  0  0  0  0  0  0  0
  190.5230  177.6670  138.8610 C   0  0  1  0  0  3  0  0  0  0  0  0
  186.1060  178.8830  140.4560 C   0  0  0  0  0  0  0  0  0  0  0  0
  184.8440  178.5170  138.0070 C   0  0  0  0  0  3  0  0  0  0  0  0
  182.9190  179.7520  138.8570 N   0  0  0  0  0  1  0  0  0  0  0  0
  186.7600  178.1610  139.4390 C   0  0  0  0  0  0  0  0  0  0  0  0
  184.8560  179.3750  140.2380 N   0  0  0  0  0  0  0  0  0  0  0  0
  186.1200  177.9910  138.2080 C   0  0  0  0  0  3  0  0  0  0  0  0
  189.1860  178.4150  138.8710 C   0  0  0  0  0  2  0  0  0  0  0  0
  188.1450  177.6140  139.6480 C   0  0  1  0  0  3  0  0  0  0  0  0
  188.2310  178.7840  141.7540 C   0  0  0  0  0  2  0  0  0  0  0  0
  189.9240  177.1900  141.3170 C   0  0  2  0  0  3  0  0  0  0  0  0
  190.7030  176.7370  140.0690 C   0  0  0  0  0  2  0  0  0  0  0  0
  186.7270  179.0310  141.8120 C   0  0  0  0  0  2  0  0  0  0  0  0
  190.7040  176.8680  137.5670 C   0  0  2  0  0  3  0  0  0  0  0  0
  189.6600  175.9540  137.4200 O   0  0  0  0  0  1  0  0  0  0  0  0
  193.2950  174.0960  137.1700 N   0  0  0  0  0  2  0  0  0  0  0  0
  191.9770  176.1590  137.5750 N   0  0  0  0  0  2  0  0  0  0  0  0
  192.0590  174.7330  137.4990 C   0  0  0  0  0  0  0  0  0  0  0  0
  191.0400  174.0270  137.7210 O   0  0  0  0  0  0  0  0  0  0  0  0
  194.4660  174.8470  136.7410 C   0  0  1  0  0  3  0  0  0  0  0  0
  196.9460  175.1770  135.3310 O   0  0  0  0  0  0  0  0  0  0  0  0
  195.7900  174.2760  137.2800 C   0  0  2  0  0  3  0  0  0  0  0  0
  194.5050  174.9630  135.2220 C   0  0  0  0  0  2  0  0  0  0  0  0
  195.7580  175.7350  134.7950 C   0  0  1  0  0  3  0  0  0  0  0  0
  196.8950  175.2000  136.7450 C   0  0  0  0  0  2  0  0  0  0  0  0
  195.6420  177.2320  135.0560 C   0  0  0  0  0  1  0  0  0  0  0  0
  196.0440  172.8050  136.8820 C   0  0  0  0  0  3  0  0  0  0  0  0
  197.0630  170.0810  137.3520 C   0  0  0  0  0  2  0  0  0  0  0  0
  195.5710  170.3960  137.4110 C   0  0  0  0  0  2  0  0  0  0  0  0
  197.7680  171.0420  136.4000 C   0  0  0  0  0  2  0  0  0  0  0  0
  195.3570  171.8410  137.8540 C   0  0  0  0  0  2  0  0  0  0  0  0
  197.5430  172.4830  136.8500 C   0  0  0  0  0  2  0  0  0  0  0  0
  190.0530  176.1410  142.4250 C   0  0  0  0  0  2  0  0  0  0  0  0
  189.7010  178.0380  145.7740 C   0  0  0  0  0  2  0  0  0  0  0  0
  188.2910  177.6170  146.1130 C   0  0  0  0  0  0  0  0  0  0  0  0
  188.1420  176.5320  143.9290 C   0  0  0  0  0  3  0  0  0  0  0  0
  190.3810  177.0340  144.8380 C   0  0  0  0  0  2  0  0  0  0  0  0
  189.4640  176.5980  143.7250 C   0  0  0  0  0  0  0  0  0  0  0  0
  187.5560  176.9650  145.2090 C   0  0  0  0  0  3  0  0  0  0  0  0
  187.6600  178.0140  147.3780 C   0  0  0  0  0  3  0  0  0  0  0  0
  188.3530  178.1730  148.4990 C   0  0  0  0  0  2  0  0  0  0  0  0
  1  8  1  0  0  0  0
  2 13  1  0  0  0  0
  2 12  1  1  0  0  0
  3 16  1  6  0  0  0
  3 10  1  0  0  0  0
  3 14  1  0  0  0  0
  4 15  1  0  0  0  0
  5  9  1  0  0  0  0
  5  1  2  0  0  0  0
  6  1  1  0  0  0  0
  7 11  1  0  0  0  0
  7  4  1  0  0  0  0
  8  4  2  0  0  0  0
  9  7  2  0  0  0  0
 11 10  1  6  0  0  0
 11  2  1  0  0  0  0
 12 15  1  0  0  0  0
 13 35  1  1  0  0  0
 14 13  1  0  0  0  0
 16 17  1  1  0  0  0
 16 19  1  0  0  0  0
 18 20  1  0  0  0  0
 20 19  1  0  0  0  0
 20 21  2  0  0  0  0
 22 18  1  6  0  0  0
 22 24  1  0  0  0  0
 23 27  1  0  0  0  0
 24 29  1  6  0  0  0
 25 22  1  0  0  0  0
 26 28  1  1  0  0  0
 26 25  1  0  0  0  0
 26 23  1  0  0  0  0
 27 24  1  0  0  0  0
 29 33  1  0  0  0  0
 30 31  1  0  0  0  0
 31 33  1  0  0  0  0
 32 34  1  0  0  0  0
 32 30  1  0  0  0  0
 34 29  1  0  0  0  0
 35 40  1  0  0  0  0
 36 37  1  0  0  0  0
 37 42  1  0  0  0  0
 38 41  1  0  0  0  0
 39 36  1  0  0  0  0
 40 38  2  0  0  0  0
 40 39  1  0  0  0  0
 41 37  2  0  0  0  0
 42 43  2  0  0  0  0
M  END
>  <MODEL>
4

>  <REMARK>
 VINA RESULT:      -8.4      2.738      6.140
  Name = 
  7 active torsions:
  status: ('A' for Active; 'I' for Inactive)
    1  A    between atoms: C_1  and  C_34
    2  A    between atoms: C_1  and  C_35
    3  A    between atoms: C_2  and  N_6
    4  A    between atoms: C_2  and  C_13
    5  A    between atoms: N_3  and  C_4
    6  A    between atoms: C_11  and  C_14
    7  A    between atoms: C_19  and  C_25
                            x       y       z     vdW  Elec       q    Type
                         _______ _______ _______ _____ _____    ______ ____

>  <TORSDO>
F 7

$$$$
=
 OpenBabel10272414373D

 43 48  0  0  1  0  0  0  0  0999 V2000
  193.4960  175.4340  137.4860 C   0  0  0  0  0  0  0  0  0  0  0  0
  188.6200  174.2170  137.1720 N   0  0  2  0  0  0  0  0  0  0  0  0
  187.2130  176.8150  136.6240 C   0  0  1  0  0  3  0  0  0  0  0  0
  191.4280  174.4280  136.8870 C   0  0  0  0  0  0  0  0  0  0  0  0
  192.8320  176.5220  138.0560 C   0  0  0  0  0  3  0  0  0  0  0  0
  194.9180  175.3850  137.4990 N   0  0  0  0  0  1  0  0  0  0  0  0
  190.7220  175.5010  137.4630 C   0  0  0  0  0  0  0  0  0  0  0  0
  192.7880  174.4160  136.9260 N   0  0  0  0  0  0  0  0  0  0  0  0
  191.4370  176.5530  138.0400 C   0  0  0  0  0  3  0  0  0  0  0  0
  188.7150  176.5830  136.4270 C   0  0  0  0  0  2  0  0  0  0  0  0
  189.2180  175.5460  137.4260 C   0  0  1  0  0  3  0  0  0  0  0  0
  189.2500  173.6010  136.0020 C   0  0  0  0  0  2  0  0  0  0  0  0
  187.1670  174.2590  136.9100 C   0  0  2  0  0  3  0  0  0  0  0  0
  186.4900  175.6040  137.2300 C   0  0  0  0  0  2  0  0  0  0  0  0
  190.6990  173.2480  136.3180 C   0  0  0  0  0  2  0  0  0  0  0  0
  186.9510  178.0530  137.4870 C   0  0  2  0  0  3  0  0  0  0  0  0
  187.6840  179.1370  137.0040 O   0  0  0  0  0  1  0  0  0  0  0  0
  188.5830  178.4130  140.9160 N   0  0  0  0  0  2  0  0  0  0  0  0
  187.3140  177.7980  138.8750 N   0  0  0  0  0  2  0  0  0  0  0  0
  188.4490  178.4110  139.4940 C   0  0  0  0  0  0  0  0  0  0  0  0
  189.3390  178.9550  138.7890 O   0  0  0  0  0  0  0  0  0  0  0  0
  187.5200  177.9520  141.7990 C   0  0  1  0  0  3  0  0  0  0  0  0
  186.1960  177.7080  144.3340 O   0  0  0  0  0  0  0  0  0  0  0  0
  188.0040  176.9650  142.8760 C   0  0  2  0  0  3  0  0  0  0  0  0
  186.7970  179.1340  142.4320 C   0  0  0  0  0  2  0  0  0  0  0  0
  185.7000  178.6240  143.3740 C   0  0  1  0  0  3  0  0  0  0  0  0
  186.7550  176.5820  143.6850 C   0  0  0  0  0  2  0  0  0  0  0  0
  184.4860  178.0900  142.6240 C   0  0  0  0  0  1  0  0  0  0  0  0
  189.1150  177.5310  143.7880 C   0  0  0  0  0  3  0  0  0  0  0  0
  191.4260  177.2850  145.5980 C   0  0  0  0  0  2  0  0  0  0  0  0
  191.5880  177.7590  144.1570 C   0  0  0  0  0  2  0  0  0  0  0  0
  190.0400  177.6490  146.1210 C   0  0  0  0  0  2  0  0  0  0  0  0
  190.5040  177.1420  143.2770 C   0  0  0  0  0  2  0  0  0  0  0  0
  188.9660  177.0300  145.2310 C   0  0  0  0  0  2  0  0  0  0  0  0
  186.4600  173.1260  137.6590 C   0  0  0  0  0  2  0  0  0  0  0  0
  184.9600  170.8020  134.9590 C   0  0  0  0  0  2  0  0  0  0  0  0
  183.5030  170.9630  135.3220 C   0  0  0  0  0  0  0  0  0  0  0  0
  184.1830  172.2720  137.2690 C   0  0  0  0  0  3  0  0  0  0  0  0
  185.7920  172.0040  135.4180 C   0  0  0  0  0  2  0  0  0  0  0  0
  185.4330  172.4290  136.8170 C   0  0  0  0  0  0  0  0  0  0  0  0
  183.1630  171.6030  136.4440 C   0  0  0  0  0  3  0  0  0  0  0  0
  182.4450  170.3240  134.5290 C   0  0  0  0  0  3  0  0  0  0  0  0
  181.5640  169.4860  135.0630 C   0  0  0  0  0  2  0  0  0  0  0  0
  1  6  1  0  0  0  0
  1  5  1  0  0  0  0
  2 12  1  6  0  0  0
  2 11  1  0  0  0  0
  3 14  1  0  0  0  0
  3 16  1  1  0  0  0
  4  8  1  0  0  0  0
  4  7  2  0  0  0  0
  7  9  1  0  0  0  0
  8  1  2  0  0  0  0
  9  5  2  0  0  0  0
 10  3  1  0  0  0  0
 11 10  1  6  0  0  0
 11  7  1  0  0  0  0
 12 15  1  0  0  0  0
 13  2  1  0  0  0  0
 13 14  1  0  0  0  0
 13 35  1  1  0  0  0
 15  4  1  0  0  0  0
 16 17  1  6  0  0  0
 16 19  1  0  0  0  0
 19 20  1  0  0  0  0
 20 18  1  0  0  0  0
 21 20  2  0  0  0  0
 22 18  1  1  0  0  0
 22 25  1  0  0  0  0
 22 24  1  0  0  0  0
 24 27  1  0  0  0  0
 24 29  1  1  0  0  0
 25 26  1  0  0  0  0
 26 28  1  6  0  0  0
 26 23  1  0  0  0  0
 27 23  1  0  0  0  0
 29 34  1  0  0  0  0
 30 32  1  0  0  0  0
 31 30  1  0  0  0  0
 33 29  1  0  0  0  0
 33 31  1  0  0  0  0
 34 32  1  0  0  0  0
 36 37  1  0  0  0  0
 36 39  1  0  0  0  0
 37 41  2  0  0  0  0
 39 40  1  0  0  0  0
 40 38  2  0  0  0  0
 40 35  1  0  0  0  0
 41 38  1  0  0  0  0
 42 43  2  0  0  0  0
 42 37  1  0  0  0  0
M  END
>  <MODEL>
5

>  <REMARK>
 VINA RESULT:      -8.3      3.086      8.118
  Name = 
  7 active torsions:
  status: ('A' for Active; 'I' for Inactive)
    1  A    between atoms: C_1  and  C_34
    2  A    between atoms: C_1  and  C_35
    3  A    between atoms: C_2  and  N_6
    4  A    between atoms: C_2  and  C_13
    5  A    between atoms: N_3  and  C_4
    6  A    between atoms: C_11  and  C_14
    7  A    between atoms: C_19  and  C_25
                            x       y       z     vdW  Elec       q    Type
                         _______ _______ _______ _____ _____    ______ ____

>  <TORSDO>
F 7

$$$$
=
 OpenBabel10272414373D

 43 48  0  0  1  0  0  0  0  0999 V2000
  181.2550  178.6740  139.8030 C   0  0  0  0  0  0  0  0  0  0  0  0
  185.0280  178.1460  143.0950 N   0  0  2  0  0  0  0  0  0  0  0  0
  187.5280  178.4980  141.4630 C   0  0  1  0  0  3  0  0  0  0  0  0
  182.6980  178.9010  141.6780 C   0  0  0  0  0  0  0  0  0  0  0  0
  182.2550  178.0200  139.0790 C   0  0  0  0  0  3  0  0  0  0  0  0
  179.9820  178.8970  139.2090 N   0  0  0  0  0  1  0  0  0  0  0  0
  183.7270  178.2340  140.9860 C   0  0  0  0  0  0  0  0  0  0  0  0
  181.4920  179.0890  141.0760 N   0  0  0  0  0  0  0  0  0  0  0  0
  183.4970  177.8030  139.6760 C   0  0  0  0  0  3  0  0  0  0  0  0
  186.1300  178.9390  141.0160 C   0  0  0  0  0  2  0  0  0  0  0  0
  185.0740  178.0200  141.6220 C   0  0  1  0  0  3  0  0  0  0  0  0
  184.3590  179.3940  143.4690 C   0  0  0  0  0  2  0  0  0  0  0  0
  186.3620  178.1620  143.7310 C   0  0  2  0  0  3  0  0  0  0  0  0
  187.5250  177.7580  142.8080 C   0  0  0  0  0  2  0  0  0  0  0  0
  182.8800  179.3180  143.1060 C   0  0  0  0  0  2  0  0  0  0  0  0
  188.2010  177.6250  140.4000 C   0  0  2  0  0  3  0  0  0  0  0  0
  189.5790  177.8460  140.4020 O   0  0  0  0  0  1  0  0  0  0  0  0
  187.9660  178.7760  136.7700 N   0  0  0  0  0  2  0  0  0  0  0  0
  187.6620  177.9180  139.0770 N   0  0  0  0  0  2  0  0  0  0  0  0
  188.3320  178.7770  138.1510 C   0  0  0  0  0  0  0  0  0  0  0  0
  189.2520  179.5400  138.5460 O   0  0  0  0  0  0  0  0  0  0  0  0
  187.0310  177.8080  136.2140 C   0  0  1  0  0  3  0  0  0  0  0  0
  185.8010  175.2200  136.0290 O   0  0  0  0  0  0  0  0  0  0  0  0
  187.7210  176.6280  135.5050 C   0  0  2  0  0  3  0  0  0  0  0  0
  186.0720  177.3080  137.2870 C   0  0  0  0  0  2  0  0  0  0  0  0
  185.1150  176.2740  136.6840 C   0  0  1  0  0  3  0  0  0  0  0  0
  186.5880  175.7370  134.9740 C   0  0  0  0  0  2  0  0  0  0  0  0
  184.0420  176.9090  135.8070 C   0  0  0  0  0  1  0  0  0  0  0  0
  188.6870  175.8330  136.4110 C   0  0  0  0  0  3  0  0  0  0  0  0
  191.0550  174.1550  136.9150 C   0  0  0  0  0  2  0  0  0  0  0  0
  191.0330  175.6360  137.2830 C   0  0  0  0  0  2  0  0  0  0  0  0
  189.6440  173.5770  136.9660 C   0  0  0  0  0  2  0  0  0  0  0  0
  190.1080  176.3980  136.3370 C   0  0  0  0  0  2  0  0  0  0  0  0
  188.7280  174.3500  136.0210 C   0  0  0  0  0  2  0  0  0  0  0  0
  186.3600  177.2850  144.9870 C   0  0  0  0  0  2  0  0  0  0  0  0
  189.0050  176.9140  147.7810 C   0  0  0  0  0  2  0  0  0  0  0  0
  190.2400  176.9390  146.9130 C   0  0  0  0  0  0  0  0  0  0  0  0
  188.7950  176.9240  144.9430 C   0  0  0  0  0  3  0  0  0  0  0  0
  187.8240  177.6160  147.1030 C   0  0  0  0  0  2  0  0  0  0  0  0
  187.7020  177.2270  145.6530 C   0  0  0  0  0  0  0  0  0  0  0  0
  190.1200  176.8790  145.5840 C   0  0  0  0  0  3  0  0  0  0  0  0
  191.5850  176.9030  147.5000 C   0  0  0  0  0  3  0  0  0  0  0  0
  192.3600  175.8270  147.4380 C   0  0  0  0  0  2  0  0  0  0  0  0
  1  8  1  0  0  0  0
  2 12  1  6  0  0  0
  2 13  1  0  0  0  0
  3 16  1  6  0  0  0
  3 14  1  0  0  0  0
  4 15  1  0  0  0  0
  5  9  1  0  0  0  0
  5  1  2  0  0  0  0
  6  1  1  0  0  0  0
  7 11  1  0  0  0  0
  7  4  1  0  0  0  0
  8  4  2  0  0  0  0
  9  7  2  0  0  0  0
 10  3  1  0  0  0  0
 11 10  1  6  0  0  0
 11  2  1  0  0  0  0
 13 35  1  1  0  0  0
 14 13  1  0  0  0  0
 15 12  1  0  0  0  0
 16 17  1  6  0  0  0
 18 20  1  0  0  0  0
 19 16  1  0  0  0  0
 20 21  2  0  0  0  0
 20 19  1  0  0  0  0
 22 18  1  1  0  0  0
 22 25  1  0  0  0  0
 23 26  1  0  0  0  0
 24 22  1  0  0  0  0
 24 29  1  1  0  0  0
 26 28  1  6  0  0  0
 26 25  1  0  0  0  0
 27 24  1  0  0  0  0
 27 23  1  0  0  0  0
 30 32  1  0  0  0  0
 30 31  1  0  0  0  0
 33 29  1  0  0  0  0
 33 31  1  0  0  0  0
 34 29  1  0  0  0  0
 34 32  1  0  0  0  0
 35 40  1  0  0  0  0
 37 42  1  0  0  0  0
 37 36  1  0  0  0  0
 38 41  1  0  0  0  0
 38 40  2  0  0  0  0
 39 36  1  0  0  0  0
 40 39  1  0  0  0  0
 41 37  2  0  0  0  0
 43 42  2  0  0  0  0
M  END
>  <MODEL>
6

>  <REMARK>
 VINA RESULT:      -8.2      2.695      6.901
  Name = 
  7 active torsions:
  status: ('A' for Active; 'I' for Inactive)
    1  A    between atoms: C_1  and  C_34
    2  A    between atoms: C_1  and  C_35
    3  A    between atoms: C_2  and  N_6
    4  A    between atoms: C_2  and  C_13
    5  A    between atoms: N_3  and  C_4
    6  A    between atoms: C_11  and  C_14
    7  A    between atoms: C_19  and  C_25
                            x       y       z     vdW  Elec       q    Type
                         _______ _______ _______ _____ _____    ______ ____

>  <TORSDO>
F 7

$$$$
=
 OpenBabel10272414373D

 43 48  0  0  1  0  0  0  0  0999 V2000
  185.4820  176.8540  135.7280 C   0  0  0  0  0  0  0  0  0  0  0  0
  190.4530  176.0570  135.6570 N   0  0  2  0  0  0  0  0  0  0  0  0
  191.2800  176.1000  138.5470 C   0  0  1  0  0  3  0  0  0  0  0  0
  187.6430  175.9450  135.3390 C   0  0  0  0  0  0  0  0  0  0  0  0
  185.9720  177.6440  136.7700 C   0  0  0  0  0  3  0  0  0  0  0  0
  184.1030  176.9120  135.3820 N   0  0  0  0  0  1  0  0  0  0  0  0
  188.1780  176.7350  136.3740 C   0  0  0  0  0  0  0  0  0  0  0  0
  186.3200  176.0350  135.0360 N   0  0  0  0  0  0  0  0  0  0  0  0
  187.3280  177.5800  137.0930 C   0  0  0  0  0  3  0  0  0  0  0  0
  189.8390  175.9130  138.0590 C   0  0  0  0  0  2  0  0  0  0  0  0
  189.6360  176.6500  136.7380 C   0  0  1  0  0  3  0  0  0  0  0  0
  189.8520  174.7980  135.2090 C   0  0  0  0  0  2  0  0  0  0  0  0
  191.8420  175.7540  136.0600 C   0  0  2  0  0  3  0  0  0  0  0  0
  192.2730  176.3630  137.4070 C   0  0  0  0  0  2  0  0  0  0  0  0
  188.5320  175.0780  134.5000 C   0  0  0  0  0  2  0  0  0  0  0  0
  191.3740  177.2260  139.5800 C   0  0  2  0  0  3  0  0  0  0  0  0
  192.6660  177.2880  140.1030 O   0  0  0  0  0  1  0  0  0  0  0  0
  189.7850  177.2370  143.0480 N   0  0  0  0  0  2  0  0  0  0  0  0
  190.4190  177.0150  140.6600 N   0  0  0  0  0  2  0  0  0  0  0  0
  190.7880  177.1140  142.0390 C   0  0  0  0  0  0  0  0  0  0  0  0
  192.0020  177.0950  142.3720 O   0  0  0  0  0  0  0  0  0  0  0  0
  188.3780  177.4320  142.7270 C   0  0  1  0  0  3  0  0  0  0  0  0
  185.8030  178.6570  143.0560 O   0  0  0  0  0  0  0  0  0  0  0  0
  187.4290  177.0340  143.8720 C   0  0  2  0  0  3  0  0  0  0  0  0
  188.1210  178.8680  142.2850 C   0  0  0  0  0  2  0  0  0  0  0  0
  186.6310  179.0540  141.9770 C   0  0  1  0  0  3  0  0  0  0  0  0
  186.0080  177.2880  143.3460 C   0  0  0  0  0  2  0  0  0  0  0  0
  186.2220  178.4140  140.6560 C   0  0  0  0  0  1  0  0  0  0  0  0
  187.6860  177.7960  145.1910 C   0  0  0  0  0  3  0  0  0  0  0  0
  187.8550  178.0150  148.1230 C   0  0  0  0  0  2  0  0  0  0  0  0
  189.1080  177.9610  147.2540 C   0  0  0  0  0  2  0  0  0  0  0  0
  186.6980  178.6310  147.3440 C   0  0  0  0  0  2  0  0  0  0  0  0
  188.8310  177.1600  145.9840 C   0  0  0  0  0  2  0  0  0  0  0  0
  186.4340  177.8250  146.0760 C   0  0  0  0  0  2  0  0  0  0  0  0
  192.8170  176.1760  134.9580 C   0  0  0  0  0  2  0  0  0  0  0  0
  195.8200  173.7690  135.3140 C   0  0  0  0  0  2  0  0  0  0  0  0
  196.9010  174.8030  135.5220 C   0  0  0  0  0  0  0  0  0  0  0  0
  195.2490  176.5470  135.0840 C   0  0  0  0  0  3  0  0  0  0  0  0
  194.4430  174.3040  135.7190 C   0  0  0  0  0  2  0  0  0  0  0  0
  194.2170  175.7040  135.2130 C   0  0  0  0  0  0  0  0  0  0  0  0
  196.6260  176.0980  135.3470 C   0  0  0  0  0  3  0  0  0  0  0  0
  198.2900  174.4090  135.7950 C   0  0  0  0  0  3  0  0  0  0  0  0
  199.3260  175.0360  135.2510 C   0  0  0  0  0  2  0  0  0  0  0  0
  1  5  1  0  0  0  0
  2 12  1  1  0  0  0
  2 13  1  0  0  0  0
  2 11  1  0  0  0  0
  3 16  1  1  0  0  0
  4  7  2  0  0  0  0
  5  9  2  0  0  0  0
  6  1  1  0  0  0  0
  7 11  1  0  0  0  0
  7  9  1  0  0  0  0
  8  4  1  0  0  0  0
  8  1  2  0  0  0  0
 10  3  1  0  0  0  0
 11 10  1  1  0  0  0
 13 35  1  6  0  0  0
 13 14  1  0  0  0  0
 14  3  1  0  0  0  0
 15 12  1  0  0  0  0
 15  4  1  0  0  0  0
 16 17  1  1  0  0  0
 16 19  1  0  0  0  0
 19 20  1  0  0  0  0
 20 21  2  0  0  0  0
 20 18  1  0  0  0  0
 22 18  1  1  0  0  0
 22 24  1  0  0  0  0
 23 27  1  0  0  0  0
 24 29  1  1  0  0  0
 25 22  1  0  0  0  0
 26 28  1  6  0  0  0
 26 25  1  0  0  0  0
 26 23  1  0  0  0  0
 27 24  1  0  0  0  0
 29 33  1  0  0  0  0
 29 34  1  0  0  0  0
 31 30  1  0  0  0  0
 32 30  1  0  0  0  0
 33 31  1  0  0  0  0
 34 32  1  0  0  0  0
 35 40  1  0  0  0  0
 36 37  1  0  0  0  0
 36 39  1  0  0  0  0
 37 42  1  0  0  0  0
 38 40  2  0  0  0  0
 38 41  1  0  0  0  0
 40 39  1  0  0  0  0
 41 37  2  0  0  0  0
 43 42  2  0  0  0  0
M  END
>  <MODEL>
7

>  <REMARK>
 VINA RESULT:      -7.9      3.023     10.819
  Name = 
  7 active torsions:
  status: ('A' for Active; 'I' for Inactive)
    1  A    between atoms: C_1  and  C_34
    2  A    between atoms: C_1  and  C_35
    3  A    between atoms: C_2  and  N_6
    4  A    between atoms: C_2  and  C_13
    5  A    between atoms: N_3  and  C_4
    6  A    between atoms: C_11  and  C_14
    7  A    between atoms: C_19  and  C_25
                            x       y       z     vdW  Elec       q    Type
                         _______ _______ _______ _____ _____    ______ ____

>  <TORSDO>
F 7

$$$$
=
 OpenBabel10272414373D

 43 48  0  0  1  0  0  0  0  0999 V2000
  194.4920  176.1450  135.8240 C   0  0  0  0  0  0  0  0  0  0  0  0
  190.3350  177.1500  138.4820 N   0  0  2  0  0  0  0  0  0  0  0  0
  188.2230  175.3610  137.3110 C   0  0  1  0  0  3  0  0  0  0  0  0
  192.9360  176.4800  137.5890 C   0  0  0  0  0  0  0  0  0  0  0  0
  193.4560  176.0490  134.8930 C   0  0  0  0  0  3  0  0  0  0  0  0
  195.8440  176.0230  135.3960 N   0  0  0  0  0  1  0  0  0  0  0  0
  191.8640  176.4020  136.6780 C   0  0  0  0  0  0  0  0  0  0  0  0
  194.2140  176.3640  137.1380 N   0  0  0  0  0  0  0  0  0  0  0  0
  192.1360  176.1770  135.3260 C   0  0  0  0  0  3  0  0  0  0  0  0
  189.7310  175.1660  137.1180 C   0  0  0  0  0  2  0  0  0  0  0  0
  190.4400  176.5170  137.1490 C   0  0  1  0  0  3  0  0  0  0  0  0
  191.2460  176.4920  139.4210 C   0  0  0  0  0  2  0  0  0  0  0  0
  188.9810  177.0790  139.0690 C   0  0  2  0  0  3  0  0  0  0  0  0
  187.8750  176.6330  138.0960 C   0  0  0  0  0  2  0  0  0  0  0  0
  192.6920  176.7870  139.0350 C   0  0  0  0  0  2  0  0  0  0  0  0
  187.4870  175.3690  135.9680 C   0  0  2  0  0  3  0  0  0  0  0  0
  188.1060  176.2570  135.0890 O   0  0  0  0  0  1  0  0  0  0  0  0
  184.0730  176.9600  135.3640 N   0  0  0  0  0  2  0  0  0  0  0  0
  186.0920  175.7520  136.1490 N   0  0  0  0  0  2  0  0  0  0  0  0
  185.4940  176.8270  135.4200 C   0  0  0  0  0  0  0  0  0  0  0  0
  186.2170  177.6650  134.8190 O   0  0  0  0  0  0  0  0  0  0  0  0
  183.1750  175.9420  135.8910 C   0  0  1  0  0  3  0  0  0  0  0  0
  180.9460  175.0240  137.4500 O   0  0  0  0  0  0  0  0  0  0  0  0
  183.2630  175.7800  137.4190 C   0  0  2  0  0  3  0  0  0  0  0  0
  181.7400  176.2130  135.4570 C   0  0  0  0  0  2  0  0  0  0  0  0
  180.8120  175.1430  136.0440 C   0  0  1  0  0  3  0  0  0  0  0  0
  182.2730  174.6630  137.7810 C   0  0  0  0  0  2  0  0  0  0  0  0
  180.9360  173.8030  135.3270 C   0  0  0  0  0  1  0  0  0  0  0  0
  182.9630  177.0760  138.2030 C   0  0  0  0  0  3  0  0  0  0  0  0
  183.1530  178.8480  140.5490 C   0  0  0  0  0  2  0  0  0  0  0  0
  183.9290  179.1360  139.2670 C   0  0  0  0  0  2  0  0  0  0  0  0
  181.8720  178.0830  140.2310 C   0  0  0  0  0  2  0  0  0  0  0  0
  184.2510  177.8300  138.5450 C   0  0  0  0  0  2  0  0  0  0  0  0
  182.2070  176.7820  139.5060 C   0  0  0  0  0  2  0  0  0  0  0  0
  188.6090  178.4210  139.7070 C   0  0  0  0  0  2  0  0  0  0  0  0
  186.1440  178.0260  142.6580 C   0  0  0  0  0  2  0  0  0  0  0  0
  187.1570  177.8200  143.7590 C   0  0  0  0  0  0  0  0  0  0  0  0
  188.9160  177.7760  142.0640 C   0  0  0  0  0  3  0  0  0  0  0  0
  186.7460  178.7890  141.4730 C   0  0  0  0  0  2  0  0  0  0  0  0
  188.1150  178.2740  141.1150 C   0  0  0  0  0  0  0  0  0  0  0  0
  188.4450  177.6410  143.4530 C   0  0  0  0  0  3  0  0  0  0  0  0
  186.7430  177.6870  145.1610 C   0  0  0  0  0  3  0  0  0  0  0  0
  187.6160  177.6610  146.1610 C   0  0  0  0  0  2  0  0  0  0  0  0
  1  8  1  0  0  0  0
  2 13  1  0  0  0  0
  2 12  1  1  0  0  0
  3 16  1  6  0  0  0
  3 14  1  0  0  0  0
  4 15  1  0  0  0  0
  5  9  1  0  0  0  0
  5  1  2  0  0  0  0
  6  1  1  0  0  0  0
  7 11  1  0  0  0  0
  7  4  1  0  0  0  0
  8  4  2  0  0  0  0
  9  7  2  0  0  0  0
 10  3  1  0  0  0  0
 11 10  1  1  0  0  0
 11  2  1  0  0  0  0
 13 35  1  6  0  0  0
 14 13  1  0  0  0  0
 15 12  1  0  0  0  0
 16 17  1  6  0  0  0
 16 19  1  0  0  0  0
 18 20  1  0  0  0  0
 20 19  1  0  0  0  0
 21 20  2  0  0  0  0
 22 18  1  1  0  0  0
 22 24  1  0  0  0  0
 23 27  1  0  0  0  0
 24 27  1  0  0  0  0
 24 29  1  1  0  0  0
 25 22  1  0  0  0  0
 25 26  1  0  0  0  0
 26 28  1  6  0  0  0
 26 23  1  0  0  0  0
 29 33  1  0  0  0  0
 29 34  1  0  0  0  0
 31 30  1  0  0  0  0
 32 30  1  0  0  0  0
 33 31  1  0  0  0  0
 34 32  1  0  0  0  0
 35 40  1  0  0  0  0
 36 37  1  0  0  0  0
 37 42  1  0  0  0  0
 38 41  1  0  0  0  0
 39 36  1  0  0  0  0
 40 39  1  0  0  0  0
 40 38  2  0  0  0  0
 41 37  2  0  0  0  0
 42 43  2  0  0  0  0
M  END
>  <MODEL>
8

>  <REMARK>
 VINA RESULT:      -7.8      3.185      8.282
  Name = 
  7 active torsions:
  status: ('A' for Active; 'I' for Inactive)
    1  A    between atoms: C_1  and  C_34
    2  A    between atoms: C_1  and  C_35
    3  A    between atoms: C_2  and  N_6
    4  A    between atoms: C_2  and  C_13
    5  A    between atoms: N_3  and  C_4
    6  A    between atoms: C_11  and  C_14
    7  A    between atoms: C_19  and  C_25
                            x       y       z     vdW  Elec       q    Type
                         _______ _______ _______ _____ _____    ______ ____

>  <TORSDO>
F 7

$$$$
=
 OpenBabel10272414373D

 43 48  0  0  1  0  0  0  0  0999 V2000
  183.6400  178.9410  139.5360 C   0  0  0  0  0  0  0  0  0  0  0  0
  188.4690  177.6380  140.1230 N   0  0  2  0  0  0  0  0  0  0  0  0
  189.6870  177.9550  137.3930 C   0  0  1  0  0  3  0  0  0  0  0  0
  185.8880  178.7870  140.2930 C   0  0  0  0  0  0  0  0  0  0  0  0
  183.9700  178.2920  138.3440 C   0  0  0  0  0  3  0  0  0  0  0  0
  182.3000  179.3590  139.7690 N   0  0  0  0  0  1  0  0  0  0  0  0
  186.2560  178.1190  139.1100 C   0  0  0  0  0  0  0  0  0  0  0  0
  184.5940  179.1660  140.4800 N   0  0  0  0  0  0  0  0  0  0  0  0
  185.2860  177.8830  138.1320 C   0  0  0  0  0  3  0  0  0  0  0  0
  188.3580  178.5810  137.8280 C   0  0  0  0  0  2  0  0  0  0  0  0
  187.6810  177.6970  138.8720 C   0  0  1  0  0  3  0  0  0  0  0  0
  188.3100  178.8870  140.8720 C   0  0  0  0  0  2  0  0  0  0  0  0
  189.9170  177.4460  139.9040 C   0  0  2  0  0  3  0  0  0  0  0  0
  190.3100  177.0530  138.4680 C   0  0  0  0  0  2  0  0  0  0  0  0
  186.8820  179.0000  141.3950 C   0  0  0  0  0  2  0  0  0  0  0  0
  189.5290  177.1650  136.0900 C   0  0  2  0  0  3  0  0  0  0  0  0
  189.5430  178.0340  134.9990 O   0  0  0  0  0  1  0  0  0  0  0  0
  186.2430  175.6120  134.9310 N   0  0  0  0  0  2  0  0  0  0  0  0
  188.2830  176.4090  136.0960 N   0  0  0  0  0  2  0  0  0  0  0  0
  187.2770  176.5840  135.0940 C   0  0  0  0  0  0  0  0  0  0  0  0
  187.2980  177.5960  134.3460 O   0  0  0  0  0  0  0  0  0  0  0  0
  186.2500  174.3420  135.6430 C   0  0  1  0  0  3  0  0  0  0  0  0
  185.0630  171.8980  136.5710 O   0  0  0  0  0  0  0  0  0  0  0  0
  185.2900  174.3100  136.8460 C   0  0  2  0  0  3  0  0  0  0  0  0
  185.9620  173.1890  134.6890 C   0  0  0  0  0  2  0  0  0  0  0  0
  185.9500  171.8670  135.4660 C   0  0  1  0  0  3  0  0  0  0  0  0
  185.4490  172.9170  137.4730 C   0  0  0  0  0  2  0  0  0  0  0  0
  187.3490  171.4000  135.8480 C   0  0  0  0  0  1  0  0  0  0  0  0
  183.8180  174.5980  136.4780 C   0  0  0  0  0  3  0  0  0  0  0  0
  181.3540  176.2130  136.5140 C   0  0  0  0  0  2  0  0  0  0  0  0
  182.2360  176.1300  135.2720 C   0  0  0  0  0  2  0  0  0  0  0  0
  181.4810  174.9340  137.3380 C   0  0  0  0  0  2  0  0  0  0  0  0
  183.6890  175.8950  135.6750 C   0  0  0  0  0  2  0  0  0  0  0  0
  182.9380  174.7080  137.7310 C   0  0  0  0  0  2  0  0  0  0  0  0
  190.4710  176.4200  140.8980 C   0  0  0  0  0  2  0  0  0  0  0  0
  190.3920  178.5770  144.1040 C   0  0  0  0  0  2  0  0  0  0  0  0
  189.6110  177.6280  144.9820 C   0  0  0  0  0  0  0  0  0  0  0  0
  189.2870  176.1780  143.0430 C   0  0  0  0  0  3  0  0  0  0  0  0
  191.1130  177.8360  142.9740 C   0  0  0  0  0  2  0  0  0  0  0  0
  190.2250  176.8070  142.3250 C   0  0  0  0  0  0  0  0  0  0  0  0
  189.0480  176.5410  144.4510 C   0  0  0  0  0  3  0  0  0  0  0  0
  189.3510  177.9370  146.3940 C   0  0  0  0  0  3  0  0  0  0  0  0
  188.2060  177.6250  146.9900 C   0  0  0  0  0  2  0  0  0  0  0  0
  1  6  1  0  0  0  0
  1  8  1  0  0  0  0
  2 12  1  6  0  0  0
  3 16  1  6  0  0  0
  3 10  1  0  0  0  0
  3 14  1  0  0  0  0
  4  8  2  0  0  0  0
  4 15  1  0  0  0  0
  5  1  2  0  0  0  0
  7  4  1  0  0  0  0
  9  5  1  0  0  0  0
  9  7  2  0  0  0  0
 11 10  1  6  0  0  0
 11  7  1  0  0  0  0
 11  2  1  0  0  0  0
 12 15  1  0  0  0  0
 13  2  1  0  0  0  0
 13 35  1  1  0  0  0
 14 13  1  0  0  0  0
 16 17  1  6  0  0  0
 16 19  1  0  0  0  0
 18 20  1  0  0  0  0
 20 19  1  0  0  0  0
 21 20  2  0  0  0  0
 22 18  1  6  0  0  0
 22 24  1  0  0  0  0
 23 27  1  0  0  0  0
 24 29  1  6  0  0  0
 24 27  1  0  0  0  0
 25 26  1  0  0  0  0
 25 22  1  0  0  0  0
 26 28  1  1  0  0  0
 26 23  1  0  0  0  0
 29 34  1  0  0  0  0
 30 32  1  0  0  0  0
 31 33  1  0  0  0  0
 31 30  1  0  0  0  0
 32 34  1  0  0  0  0
 33 29  1  0  0  0  0
 35 40  1  0  0  0  0
 36 37  1  0  0  0  0
 37 42  1  0  0  0  0
 38 41  1  0  0  0  0
 39 36  1  0  0  0  0
 40 39  1  0  0  0  0
 40 38  2  0  0  0  0
 41 37  2  0  0  0  0
 42 43  2  0  0  0  0
M  END
>  <MODEL>
9

>  <REMARK>
 VINA RESULT:      -7.8      3.654      7.601
  Name = 
  7 active torsions:
  status: ('A' for Active; 'I' for Inactive)
    1  A    between atoms: C_1  and  C_34
    2  A    between atoms: C_1  and  C_35
    3  A    between atoms: C_2  and  N_6
    4  A    between atoms: C_2  and  C_13
    5  A    between atoms: N_3  and  C_4
    6  A    between atoms: C_11  and  C_14
    7  A    between atoms: C_19  and  C_25
                            x       y       z     vdW  Elec       q    Type
                         _______ _______ _______ _____ _____    ______ ____

>  <TORSDO>
F 7

$$$$
