=
 OpenBabel10272415033D

 37 37  0  0  1  0  0  0  0  0999 V2000
  190.3890  177.4470  141.8240 C   0  0  2  0  0  3  0  0  0  0  0  0
  191.0810  176.8220  139.4660 N   0  0  0  0  0  2  0  0  0  0  0  0
  193.2250  176.8320  138.5210 O   0  0  0  0  0  0  0  0  0  0  0  0
  191.4510  177.2150  140.7930 C   0  0  0  0  0  0  0  0  0  0  0  0
  191.9880  176.6290  138.3770 C   0  0  0  0  0  0  0  0  0  0  0  0
  192.6590  177.3970  141.1030 O   0  0  0  0  0  0  0  0  0  0  0  0
  191.4460  176.2000  137.0520 C   0  0  2  0  0  3  0  0  0  0  0  0
  189.9800  176.5720  136.9360 C   0  0  0  0  0  1  0  0  0  0  0  0
  190.6980  174.0090  137.6430 O   0  0  0  0  0  1  0  0  0  0  0  0
  191.6140  174.7030  136.8510 C   0  0  0  0  0  2  0  0  0  0  0  0
  190.6200  176.6690  142.9710 O   0  0  0  0  0  0  0  0  0  0  0  0
  190.3710  177.4870  144.0890 C   0  0  0  0  0  0  0  0  0  0  0  0
  190.8130  178.9360  143.9980 C   0  0  0  0  0  2  0  0  0  0  0  0
  191.6580  177.9240  144.7540 C   0  0  0  0  0  2  0  0  0  0  0  0
  189.2820  177.1030  145.0940 C   0  0  1  0  0  3  0  0  0  0  0  0
  189.8520  177.0510  146.5070 C   0  0  0  0  0  2  0  0  0  0  0  0
  188.7470  177.1050  147.5520 C   0  0  0  0  0  2  0  0  0  0  0  0
  188.9390  178.2990  148.4680 C   0  0  0  0  0  1  0  0  0  0  0  0
  188.1050  178.0720  145.0340 C   0  0  0  0  0  2  0  0  0  0  0  0
  187.0420  176.3760  143.7880 O   0  0  0  0  0  0  0  0  0  0  0  0
  186.9190  177.4300  144.3910 C   0  0  0  0  0  0  0  0  0  0  0  0
  185.5890  178.1090  144.4390 C   0  0  0  0  0  2  0  0  0  0  0  0
  185.4430  178.9200  145.6870 C   0  0  0  0  0  3  0  0  0  0  0  0
  184.9640  178.3750  146.8030 C   0  0  0  0  0  2  0  0  0  0  0  0
  188.9850  177.1930  141.2650 C   0  0  0  0  0  2  0  0  0  0  0  0
  188.2580  178.4740  140.8720 C   0  0  0  0  0  2  0  0  0  0  0  0
  186.1470  178.6940  139.5130 C   0  0  0  0  0  0  0  0  0  0  0  0
  187.5030  178.2690  139.6480 N   0  0  0  0  0  2  0  0  0  0  0  0
  185.5540  179.2570  140.4720 O   0  0  0  0  0  0  0  0  0  0  0  0
  185.4140  178.4660  138.2330 C   0  0  0  0  0  2  0  0  0  0  0  0
  186.4700  176.8950  136.5270 N   0  0  0  0  0  2  0  0  0  0  0  0
  186.3660  178.1970  137.1100 C   0  0  0  0  0  0  0  0  0  0  0  0
  187.0840  179.1300  136.6670 O   0  0  0  0  0  0  0  0  0  0  0  0
  185.6610  175.7610  136.9570 C   0  0  2  0  0  3  0  0  0  0  0  0
  186.5150  174.5090  137.0150 C   0  0  0  0  0  1  0  0  0  0  0  0
  183.7070  174.3260  136.3830 C   0  0  0  0  0  1  0  0  0  0  0  0
  184.5260  175.5360  135.9750 C   0  0  0  0  0  2  0  0  0  0  0  0
  1 25  1  6  0  0  0
  1 11  1  0  0  0  0
  2  4  1  0  0  0  0
  4  6  2  0  0  0  0
  4  1  1  0  0  0  0
  5  3  2  0  0  0  0
  5  2  1  0  0  0  0
  7  8  1  1  0  0  0
  7  5  1  0  0  0  0
 10  7  1  0  0  0  0
 10  9  1  0  0  0  0
 11 12  1  0  0  0  0
 12 14  1  0  0  0  0
 12 15  1  0  0  0  0
 13 12  1  0  0  0  0
 13 14  1  0  0  0  0
 15 19  1  1  0  0  0
 15 16  1  0  0  0  0
 16 17  1  0  0  0  0
 17 18  1  0  0  0  0
 20 21  2  0  0  0  0
 21 22  1  0  0  0  0
 21 19  1  0  0  0  0
 22 23  1  0  0  0  0
 23 24  2  0  0  0  0
 26 25  1  0  0  0  0
 27 28  1  0  0  0  0
 27 29  2  0  0  0  0
 28 26  1  0  0  0  0
 30 27  1  0  0  0  0
 31 34  1  0  0  0  0
 31 32  1  0  0  0  0
 32 30  1  0  0  0  0
 33 32  2  0  0  0  0
 34 35  1  6  0  0  0
 37 36  1  0  0  0  0
 37 34  1  0  0  0  0
M  END
>  <MODEL>
1

>  <REMARK>
 VINA RESULT:      -6.9      0.000      0.000
  Name = 
  19 active torsions:
  status: ('A' for Active; 'I' for Inactive)
    1  A    between atoms: N_1  and  C_5
    2  A    between atoms: C_2  and  C_19
    3  A    between atoms: C_2  and  C_35
    4  A    between atoms: C_3  and  C_32
    5  A    between atoms: C_4  and  O_10
    6  A    between atoms: C_4  and  C_13
    7  A    between atoms: C_5  and  C_23
    8  A    between atoms: C_7  and  C_14
    9  A    between atoms: C_7  and  C_27
   10  A    between atoms: C_9  and  C_13
   11  A    between atoms: C_9  and  C_16
   12  A    between atoms: O_10  and  C_14
   13  A    between atoms: C_11  and  C_36
   14  A    between atoms: C_13  and  C_20
   15  A    between atoms: C_14  and  C_31
   16  A    between atoms: C_20  and  C_25
   17  A    between atoms: C_25  and  C_32
   18  A    between atoms: C_26  and  C_36
   19  A    between atoms: C_27  and  N_33
                            x       y       z     vdW  Elec       q    Type
                         _______ _______ _______ _____ _____    ______ ____

>  <TORSDO>
F 19

$$$$
=
 OpenBabel10272415033D

 37 37  0  0  1  0  0  0  0  0999 V2000
  188.4140  177.7400  142.1950 C   0  0  2  0  0  3  0  0  0  0  0  0
  186.0030  178.2480  141.5960 N   0  0  0  0  0  2  0  0  0  0  0  0
  184.1040  178.1500  142.9670 O   0  0  0  0  0  0  0  0  0  0  0  0
  186.9770  177.9040  142.5890 C   0  0  0  0  0  0  0  0  0  0  0  0
  184.5960  178.3740  141.8270 C   0  0  0  0  0  0  0  0  0  0  0  0
  186.6410  177.7080  143.7870 O   0  0  0  0  0  0  0  0  0  0  0  0
  183.7090  178.7590  140.6870 C   0  0  2  0  0  3  0  0  0  0  0  0
  182.7580  177.6260  140.3530 C   0  0  0  0  0  1  0  0  0  0  0  0
  184.2220  180.4250  139.0530 O   0  0  0  0  0  1  0  0  0  0  0  0
  184.5250  179.1240  139.4580 C   0  0  0  0  0  2  0  0  0  0  0  0
  189.2700  178.2380  143.1920 O   0  0  0  0  0  0  0  0  0  0  0  0
  189.9380  177.1380  143.7600 C   0  0  0  0  0  0  0  0  0  0  0  0
  190.9670  176.4330  142.8970 C   0  0  0  0  0  2  0  0  0  0  0  0
  189.5750  175.8470  143.0600 C   0  0  0  0  0  2  0  0  0  0  0  0
  190.0170  176.9900  145.2820 C   0  0  1  0  0  3  0  0  0  0  0  0
  191.4610  177.1040  145.7560 C   0  0  0  0  0  2  0  0  0  0  0  0
  191.9770  175.7730  146.2820 C   0  0  0  0  0  2  0  0  0  0  0  0
  192.2910  175.8720  147.7630 C   0  0  0  0  0  1  0  0  0  0  0  0
  189.1450  178.0250  145.9870 C   0  0  0  0  0  2  0  0  0  0  0  0
  188.7870  176.3110  147.5660 O   0  0  0  0  0  0  0  0  0  0  0  0
  188.5010  177.4390  147.2010 C   0  0  0  0  0  0  0  0  0  0  0  0
  187.4610  178.2190  147.9390 C   0  0  0  0  0  2  0  0  0  0  0  0
  186.4660  178.8180  146.9960 C   0  0  0  0  0  3  0  0  0  0  0  0
  185.2280  178.3350  146.9130 C   0  0  0  0  0  2  0  0  0  0  0  0
  188.7130  178.3900  140.8410 C   0  0  0  0  0  2  0  0  0  0  0  0
  188.7290  177.3920  139.6890 C   0  0  0  0  0  2  0  0  0  0  0  0
  190.6900  176.8810  138.1900 C   0  0  0  0  0  0  0  0  0  0  0  0
  190.0750  176.8880  139.4790 N   0  0  0  0  0  2  0  0  0  0  0  0
  190.0660  177.3080  137.1820 O   0  0  0  0  0  0  0  0  0  0  0  0
  192.0770  176.3570  138.0240 C   0  0  0  0  0  2  0  0  0  0  0  0
  193.2900  174.1340  137.7380 N   0  0  0  0  0  2  0  0  0  0  0  0
  192.0700  174.8780  137.7950 C   0  0  0  0  0  0  0  0  0  0  0  0
  190.9730  174.2770  137.6520 O   0  0  0  0  0  0  0  0  0  0  0  0
  194.6030  174.7390  137.9180 C   0  0  2  0  0  3  0  0  0  0  0  0
  195.2880  174.8980  136.5740 C   0  0  0  0  0  1  0  0  0  0  0  0
  196.3500  172.9640  137.9600 C   0  0  0  0  0  1  0  0  0  0  0  0
  195.4610  173.8560  138.8060 C   0  0  0  0  0  2  0  0  0  0  0  0
  1 25  1  6  0  0  0
  1  4  1  0  0  0  0
  1 11  1  0  0  0  0
  2  5  1  0  0  0  0
  2  4  1  0  0  0  0
  4  6  2  0  0  0  0
  5  3  2  0  0  0  0
  7  8  1  6  0  0  0
  7  5  1  0  0  0  0
  9 10  1  0  0  0  0
 10  7  1  0  0  0  0
 11 12  1  0  0  0  0
 12 15  1  0  0  0  0
 13 14  1  0  0  0  0
 13 12  1  0  0  0  0
 14 12  1  0  0  0  0
 15 16  1  1  0  0  0
 15 19  1  0  0  0  0
 16 17  1  0  0  0  0
 17 18  1  0  0  0  0
 19 21  1  0  0  0  0
 21 20  2  0  0  0  0
 21 22  1  0  0  0  0
 23 22  1  0  0  0  0
 24 23  2  0  0  0  0
 26 25  1  0  0  0  0
 27 28  1  0  0  0  0
 28 26  1  0  0  0  0
 29 27  2  0  0  0  0
 30 27  1  0  0  0  0
 31 32  1  0  0  0  0
 31 34  1  0  0  0  0
 32 30  1  0  0  0  0
 33 32  2  0  0  0  0
 34 35  1  6  0  0  0
 34 37  1  0  0  0  0
 36 37  1  0  0  0  0
M  END
>  <MODEL>
2

>  <REMARK>
 VINA RESULT:      -6.7      2.476      6.167
  Name = 
  19 active torsions:
  status: ('A' for Active; 'I' for Inactive)
    1  A    between atoms: N_1  and  C_5
    2  A    between atoms: C_2  and  C_19
    3  A    between atoms: C_2  and  C_35
    4  A    between atoms: C_3  and  C_32
    5  A    between atoms: C_4  and  O_10
    6  A    between atoms: C_4  and  C_13
    7  A    between atoms: C_5  and  C_23
    8  A    between atoms: C_7  and  C_14
    9  A    between atoms: C_7  and  C_27
   10  A    between atoms: C_9  and  C_13
   11  A    between atoms: C_9  and  C_16
   12  A    between atoms: O_10  and  C_14
   13  A    between atoms: C_11  and  C_36
   14  A    between atoms: C_13  and  C_20
   15  A    between atoms: C_14  and  C_31
   16  A    between atoms: C_20  and  C_25
   17  A    between atoms: C_25  and  C_32
   18  A    between atoms: C_26  and  C_36
   19  A    between atoms: C_27  and  N_33
                            x       y       z     vdW  Elec       q    Type
                         _______ _______ _______ _____ _____    ______ ____

>  <TORSDO>
F 19

$$$$
=
 OpenBabel10272415033D

 37 37  0  0  1  0  0  0  0  0999 V2000
  184.6650  178.3960  143.5280 C   0  0  2  0  0  3  0  0  0  0  0  0
  182.4540  178.7550  142.3390 N   0  0  0  0  0  2  0  0  0  0  0  0
  180.6230  180.0510  143.0180 O   0  0  0  0  0  0  0  0  0  0  0  0
  183.3270  179.0640  143.4320 C   0  0  0  0  0  0  0  0  0  0  0  0
  181.1320  179.2740  142.1630 C   0  0  0  0  0  0  0  0  0  0  0  0
  182.9770  179.8720  144.3340 O   0  0  0  0  0  0  0  0  0  0  0  0
  180.3510  178.8680  140.9560 C   0  0  2  0  0  3  0  0  0  0  0  0
  180.7940  177.4980  140.4770 C   0  0  0  0  0  1  0  0  0  0  0  0
  181.7260  179.6810  139.1790 O   0  0  0  0  0  1  0  0  0  0  0  0
  180.5100  179.8800  139.8350 C   0  0  0  0  0  2  0  0  0  0  0  0
  185.5900  179.2120  144.2000 O   0  0  0  0  0  0  0  0  0  0  0  0
  186.0680  178.4830  145.3050 C   0  0  0  0  0  0  0  0  0  0  0  0
  185.0360  177.7830  146.1690 C   0  0  0  0  0  2  0  0  0  0  0  0
  185.6330  179.1080  146.6120 C   0  0  0  0  0  2  0  0  0  0  0  0
  187.5180  177.9920  145.3330 C   0  0  1  0  0  3  0  0  0  0  0  0
  187.7960  177.2190  146.6170 C   0  0  0  0  0  2  0  0  0  0  0  0
  188.9560  177.8300  147.3890 C   0  0  0  0  0  2  0  0  0  0  0  0
  188.5400  178.1410  148.8150 C   0  0  0  0  0  1  0  0  0  0  0  0
  187.8340  177.1260  144.1160 C   0  0  0  0  0  2  0  0  0  0  0  0
  189.6210  178.4890  143.4000 O   0  0  0  0  0  0  0  0  0  0  0  0
  189.2340  177.3580  143.6480 C   0  0  0  0  0  0  0  0  0  0  0  0
  190.1470  176.1960  143.4320 C   0  0  0  0  0  2  0  0  0  0  0  0
  191.4780  176.4290  144.0740 C   0  0  0  0  0  3  0  0  0  0  0  0
  191.5990  176.4680  145.3990 C   0  0  0  0  0  2  0  0  0  0  0  0
  185.1970  177.9830  142.1520 C   0  0  0  0  0  2  0  0  0  0  0  0
  186.0000  179.0830  141.4670 C   0  0  0  0  0  2  0  0  0  0  0  0
  187.4160  178.2470  139.5580 C   0  0  0  0  0  0  0  0  0  0  0  0
  186.1860  178.7690  140.0620 N   0  0  0  0  0  2  0  0  0  0  0  0
  188.3930  178.0530  140.3300 O   0  0  0  0  0  0  0  0  0  0  0  0
  187.5580  177.9350  138.1060 C   0  0  0  0  0  2  0  0  0  0  0  0
  189.9320  177.5270  137.2730 N   0  0  0  0  0  2  0  0  0  0  0  0
  188.8670  178.4320  137.5740 C   0  0  0  0  0  0  0  0  0  0  0  0
  189.0320  179.6650  137.3860 O   0  0  0  0  0  0  0  0  0  0  0  0
  189.8230  176.0830  137.4340 C   0  0  2  0  0  3  0  0  0  0  0  0
  191.1280  175.5210  137.9660 C   0  0  0  0  0  1  0  0  0  0  0  0
  190.3190  176.1020  134.9940 C   0  0  0  0  0  1  0  0  0  0  0  0
  189.5180  175.4360  136.0960 C   0  0  0  0  0  2  0  0  0  0  0  0
  1 25  1  6  0  0  0
  1 11  1  0  0  0  0
  2  4  1  0  0  0  0
  4  1  1  0  0  0  0
  4  6  2  0  0  0  0
  5  2  1  0  0  0  0
  5  3  2  0  0  0  0
  7  8  1  6  0  0  0
  7  5  1  0  0  0  0
  9 10  1  0  0  0  0
 10  7  1  0  0  0  0
 11 12  1  0  0  0  0
 12 15  1  0  0  0  0
 12 13  1  0  0  0  0
 12 14  1  0  0  0  0
 13 14  1  0  0  0  0
 15 19  1  6  0  0  0
 15 16  1  0  0  0  0
 16 17  1  0  0  0  0
 17 18  1  0  0  0  0
 20 21  2  0  0  0  0
 21 19  1  0  0  0  0
 22 21  1  0  0  0  0
 22 23  1  0  0  0  0
 23 24  2  0  0  0  0
 26 25  1  0  0  0  0
 27 28  1  0  0  0  0
 27 29  2  0  0  0  0
 28 26  1  0  0  0  0
 30 27  1  0  0  0  0
 31 34  1  0  0  0  0
 31 32  1  0  0  0  0
 32 30  1  0  0  0  0
 33 32  2  0  0  0  0
 34 35  1  6  0  0  0
 36 37  1  0  0  0  0
 37 34  1  0  0  0  0
M  END
>  <MODEL>
3

>  <REMARK>
 VINA RESULT:      -6.6      2.881      6.612
  Name = 
  19 active torsions:
  status: ('A' for Active; 'I' for Inactive)
    1  A    between atoms: N_1  and  C_5
    2  A    between atoms: C_2  and  C_19
    3  A    between atoms: C_2  and  C_35
    4  A    between atoms: C_3  and  C_32
    5  A    between atoms: C_4  and  O_10
    6  A    between atoms: C_4  and  C_13
    7  A    between atoms: C_5  and  C_23
    8  A    between atoms: C_7  and  C_14
    9  A    between atoms: C_7  and  C_27
   10  A    between atoms: C_9  and  C_13
   11  A    between atoms: C_9  and  C_16
   12  A    between atoms: O_10  and  C_14
   13  A    between atoms: C_11  and  C_36
   14  A    between atoms: C_13  and  C_20
   15  A    between atoms: C_14  and  C_31
   16  A    between atoms: C_20  and  C_25
   17  A    between atoms: C_25  and  C_32
   18  A    between atoms: C_26  and  C_36
   19  A    between atoms: C_27  and  N_33
                            x       y       z     vdW  Elec       q    Type
                         _______ _______ _______ _____ _____    ______ ____

>  <TORSDO>
F 19

$$$$
=
 OpenBabel10272415033D

 37 37  0  0  1  0  0  0  0  0999 V2000
  189.1690  177.7240  141.8860 C   0  0  2  0  0  3  0  0  0  0  0  0
  186.6650  178.1060  142.0200 N   0  0  0  0  0  2  0  0  0  0  0  0
  185.2930  179.3240  140.5620 O   0  0  0  0  0  0  0  0  0  0  0  0
  187.8980  178.2690  141.3080 C   0  0  0  0  0  0  0  0  0  0  0  0
  185.3980  178.6290  141.6110 C   0  0  0  0  0  0  0  0  0  0  0  0
  187.9370  178.8910  140.2130 O   0  0  0  0  0  0  0  0  0  0  0  0
  184.1970  178.3570  142.4560 C   0  0  2  0  0  3  0  0  0  0  0  0
  182.9320  178.7690  141.7270 C   0  0  0  0  0  1  0  0  0  0  0  0
  183.0480  179.6500  144.1050 O   0  0  0  0  0  1  0  0  0  0  0  0
  184.2850  179.0890  143.7850 C   0  0  0  0  0  2  0  0  0  0  0  0
  190.0370  178.7620  142.2650 O   0  0  0  0  0  0  0  0  0  0  0  0
  190.5000  178.4690  143.5610 C   0  0  0  0  0  0  0  0  0  0  0  0
  191.3840  179.5050  144.2290 C   0  0  0  0  0  2  0  0  0  0  0  0
  192.0000  178.2750  143.5840 C   0  0  0  0  0  2  0  0  0  0  0  0
  189.7540  177.4550  144.4330 C   0  0  1  0  0  3  0  0  0  0  0  0
  190.7340  176.4850  145.0810 C   0  0  0  0  0  2  0  0  0  0  0  0
  190.8390  176.7240  146.5800 C   0  0  0  0  0  2  0  0  0  0  0  0
  192.0140  175.9590  147.1600 C   0  0  0  0  0  1  0  0  0  0  0  0
  188.9140  178.1500  145.4990 C   0  0  0  0  0  2  0  0  0  0  0  0
  187.1650  176.7740  144.7190 O   0  0  0  0  0  0  0  0  0  0  0  0
  187.5530  177.5390  145.5870 C   0  0  0  0  0  0  0  0  0  0  0  0
  186.6440  177.9090  146.7130 C   0  0  0  0  0  2  0  0  0  0  0  0
  187.4110  178.4970  147.8550 C   0  0  0  0  0  3  0  0  0  0  0  0
  188.0060  177.7150  148.7520 C   0  0  0  0  0  2  0  0  0  0  0  0
  189.8630  176.7540  140.9250 C   0  0  0  0  0  2  0  0  0  0  0  0
  190.9460  177.4190  140.0830 C   0  0  0  0  0  2  0  0  0  0  0  0
  190.8800  176.6950  137.6710 C   0  0  0  0  0  0  0  0  0  0  0  0
  191.3590  176.5360  139.0060 N   0  0  0  0  0  2  0  0  0  0  0  0
  190.0640  177.6120  137.3880 O   0  0  0  0  0  0  0  0  0  0  0  0
  191.3370  175.7650  136.5960 C   0  0  0  0  0  2  0  0  0  0  0  0
  192.7860  173.8120  137.3580 N   0  0  0  0  0  2  0  0  0  0  0  0
  191.4910  174.3720  137.1200 C   0  0  0  0  0  0  0  0  0  0  0  0
  190.4670  173.6810  137.3590 O   0  0  0  0  0  0  0  0  0  0  0  0
  194.0260  174.5450  137.1360 C   0  0  2  0  0  3  0  0  0  0  0  0
  194.8280  173.8820  136.0330 C   0  0  0  0  0  1  0  0  0  0  0  0
  195.8750  173.4330  138.3810 C   0  0  0  0  0  1  0  0  0  0  0  0
  194.8540  174.5550  138.4080 C   0  0  0  0  0  2  0  0  0  0  0  0
  1 25  1  6  0  0  0
  1 11  1  0  0  0  0
  3  5  2  0  0  0  0
  4  1  1  0  0  0  0
  4  2  1  0  0  0  0
  5  2  1  0  0  0  0
  5  7  1  0  0  0  0
  6  4  2  0  0  0  0
  7  8  1  6  0  0  0
  7 10  1  0  0  0  0
 10  9  1  0  0  0  0
 11 12  1  0  0  0  0
 12 14  1  0  0  0  0
 12 13  1  0  0  0  0
 12 15  1  0  0  0  0
 14 13  1  0  0  0  0
 15 16  1  1  0  0  0
 15 19  1  0  0  0  0
 16 17  1  0  0  0  0
 17 18  1  0  0  0  0
 19 21  1  0  0  0  0
 20 21  2  0  0  0  0
 21 22  1  0  0  0  0
 22 23  1  0  0  0  0
 23 24  2  0  0  0  0
 26 25  1  0  0  0  0
 27 28  1  0  0  0  0
 28 26  1  0  0  0  0
 29 27  2  0  0  0  0
 30 32  1  0  0  0  0
 30 27  1  0  0  0  0
 32 31  1  0  0  0  0
 32 33  2  0  0  0  0
 34 35  1  6  0  0  0
 34 31  1  0  0  0  0
 34 37  1  0  0  0  0
 36 37  1  0  0  0  0
M  END
>  <MODEL>
4

>  <REMARK>
 VINA RESULT:      -6.5      2.775      6.064
  Name = 
  19 active torsions:
  status: ('A' for Active; 'I' for Inactive)
    1  A    between atoms: N_1  and  C_5
    2  A    between atoms: C_2  and  C_19
    3  A    between atoms: C_2  and  C_35
    4  A    between atoms: C_3  and  C_32
    5  A    between atoms: C_4  and  O_10
    6  A    between atoms: C_4  and  C_13
    7  A    between atoms: C_5  and  C_23
    8  A    between atoms: C_7  and  C_14
    9  A    between atoms: C_7  and  C_27
   10  A    between atoms: C_9  and  C_13
   11  A    between atoms: C_9  and  C_16
   12  A    between atoms: O_10  and  C_14
   13  A    between atoms: C_11  and  C_36
   14  A    between atoms: C_13  and  C_20
   15  A    between atoms: C_14  and  C_31
   16  A    between atoms: C_20  and  C_25
   17  A    between atoms: C_25  and  C_32
   18  A    between atoms: C_26  and  C_36
   19  A    between atoms: C_27  and  N_33
                            x       y       z     vdW  Elec       q    Type
                         _______ _______ _______ _____ _____    ______ ____

>  <TORSDO>
F 19

$$$$
=
 OpenBabel10272415033D

 37 37  0  0  1  0  0  0  0  0999 V2000
  188.8220  178.1030  139.2460 C   0  0  2  0  0  3  0  0  0  0  0  0
  186.4580  178.6020  140.0170 N   0  0  0  0  0  2  0  0  0  0  0  0
  185.7100  179.1690  142.1640 O   0  0  0  0  0  0  0  0  0  0  0  0
  187.8590  178.5320  140.3110 C   0  0  0  0  0  0  0  0  0  0  0  0
  185.4310  178.9350  140.9560 C   0  0  0  0  0  0  0  0  0  0  0  0
  188.2940  178.7970  141.4640 O   0  0  0  0  0  0  0  0  0  0  0  0
  184.0130  178.9830  140.4880 C   0  0  2  0  0  3  0  0  0  0  0  0
  183.3430  177.6380  140.6920 C   0  0  0  0  0  1  0  0  0  0  0  0
  184.0210  180.7680  138.8990 O   0  0  0  0  0  1  0  0  0  0  0  0
  183.9330  179.3800  139.0240 C   0  0  0  0  0  2  0  0  0  0  0  0
  188.3530  176.9660  138.5690 O   0  0  0  0  0  0  0  0  0  0  0  0
  188.5200  177.1990  137.1910 C   0  0  0  0  0  0  0  0  0  0  0  0
  188.6540  178.6440  136.7470 C   0  0  0  0  0  2  0  0  0  0  0  0
  187.3270  177.9190  136.6020 C   0  0  0  0  0  2  0  0  0  0  0  0
  189.0540  176.0890  136.2830 C   0  0  1  0  0  3  0  0  0  0  0  0
  190.5480  176.2720  136.0380 C   0  0  0  0  0  2  0  0  0  0  0  0
  191.3740  175.4880  137.0460 C   0  0  0  0  0  2  0  0  0  0  0  0
  192.6190  176.2630  137.4310 C   0  0  0  0  0  1  0  0  0  0  0  0
  188.7800  174.7090  136.8720 C   0  0  0  0  0  2  0  0  0  0  0  0
  187.4530  173.6110  135.2610 O   0  0  0  0  0  0  0  0  0  0  0  0
  187.4940  174.1550  136.3530 C   0  0  0  0  0  0  0  0  0  0  0  0
  186.2400  174.3150  137.1510 C   0  0  0  0  0  2  0  0  0  0  0  0
  185.7490  172.9940  137.6540 C   0  0  0  0  0  3  0  0  0  0  0  0
  184.7020  172.3960  137.0910 C   0  0  0  0  0  2  0  0  0  0  0  0
  190.2270  177.8630  139.8100 C   0  0  0  0  0  2  0  0  0  0  0  0
  190.3820  176.4960  140.4660 C   0  0  0  0  0  2  0  0  0  0  0  0
  190.0630  176.1940  142.9470 C   0  0  0  0  0  0  0  0  0  0  0  0
  190.8390  176.6450  141.8360 N   0  0  0  0  0  2  0  0  0  0  0  0
  188.9370  175.6570  142.7660 O   0  0  0  0  0  0  0  0  0  0  0  0
  190.5760  176.3640  144.3380 C   0  0  0  0  0  2  0  0  0  0  0  0
  189.4380  178.2960  145.5480 N   0  0  0  0  0  2  0  0  0  0  0  0
  190.5220  177.8000  144.7590 C   0  0  0  0  0  0  0  0  0  0  0  0
  191.4460  178.5820  144.4180 O   0  0  0  0  0  0  0  0  0  0  0  0
  188.3380  177.4590  146.0110 C   0  0  2  0  0  3  0  0  0  0  0  0
  187.1740  177.5520  145.0430 C   0  0  0  0  0  1  0  0  0  0  0  0
  189.0500  177.9840  148.3400 C   0  0  0  0  0  1  0  0  0  0  0  0
  187.8770  177.9240  147.3800 C   0  0  0  0  0  2  0  0  0  0  0  0
  1 25  1  1  0  0  0
  1  4  1  0  0  0  0
  2  4  1  0  0  0  0
  2  5  1  0  0  0  0
  4  6  2  0  0  0  0
  5  3  2  0  0  0  0
  7  8  1  6  0  0  0
  7  5  1  0  0  0  0
  9 10  1  0  0  0  0
 10  7  1  0  0  0  0
 11  1  1  0  0  0  0
 12 11  1  0  0  0  0
 13 12  1  0  0  0  0
 14 13  1  0  0  0  0
 14 12  1  0  0  0  0
 15 16  1  1  0  0  0
 15 19  1  0  0  0  0
 15 12  1  0  0  0  0
 16 17  1  0  0  0  0
 17 18  1  0  0  0  0
 20 21  2  0  0  0  0
 21 19  1  0  0  0  0
 21 22  1  0  0  0  0
 22 23  1  0  0  0  0
 24 23  2  0  0  0  0
 25 26  1  0  0  0  0
 26 28  1  0  0  0  0
 27 30  1  0  0  0  0
 28 27  1  0  0  0  0
 29 27  2  0  0  0  0
 30 32  1  0  0  0  0
 31 34  1  0  0  0  0
 32 31  1  0  0  0  0
 33 32  2  0  0  0  0
 34 35  1  6  0  0  0
 34 37  1  0  0  0  0
 37 36  1  0  0  0  0
M  END
>  <MODEL>
5

>  <REMARK>
 VINA RESULT:      -6.4      2.137      8.414
  Name = 
  19 active torsions:
  status: ('A' for Active; 'I' for Inactive)
    1  A    between atoms: N_1  and  C_5
    2  A    between atoms: C_2  and  C_19
    3  A    between atoms: C_2  and  C_35
    4  A    between atoms: C_3  and  C_32
    5  A    between atoms: C_4  and  O_10
    6  A    between atoms: C_4  and  C_13
    7  A    between atoms: C_5  and  C_23
    8  A    between atoms: C_7  and  C_14
    9  A    between atoms: C_7  and  C_27
   10  A    between atoms: C_9  and  C_13
   11  A    between atoms: C_9  and  C_16
   12  A    between atoms: O_10  and  C_14
   13  A    between atoms: C_11  and  C_36
   14  A    between atoms: C_13  and  C_20
   15  A    between atoms: C_14  and  C_31
   16  A    between atoms: C_20  and  C_25
   17  A    between atoms: C_25  and  C_32
   18  A    between atoms: C_26  and  C_36
   19  A    between atoms: C_27  and  N_33
                            x       y       z     vdW  Elec       q    Type
                         _______ _______ _______ _____ _____    ______ ____

>  <TORSDO>
F 19

$$$$
=
 OpenBabel10272415033D

 37 37  0  0  1  0  0  0  0  0999 V2000
  185.4890  178.9070  141.6760 C   0  0  2  0  0  3  0  0  0  0  0  0
  186.8070  178.3070  139.5950 N   0  0  0  0  0  2  0  0  0  0  0  0
  189.1230  178.4090  139.2510 O   0  0  0  0  0  0  0  0  0  0  0  0
  186.7950  178.7190  140.9670 C   0  0  0  0  0  0  0  0  0  0  0  0
  187.9780  178.1510  138.7870 C   0  0  0  0  0  0  0  0  0  0  0  0
  187.8690  178.9560  141.5820 O   0  0  0  0  0  0  0  0  0  0  0  0
  187.8240  177.6950  137.3730 C   0  0  2  0  0  3  0  0  0  0  0  0
  186.3780  177.3370  137.0870 C   0  0  0  0  0  1  0  0  0  0  0  0
  188.9740  176.4140  135.7150 O   0  0  0  0  0  1  0  0  0  0  0  0
  188.7160  176.4990  137.0840 C   0  0  0  0  0  2  0  0  0  0  0  0
  185.2350  177.8420  142.5570 O   0  0  0  0  0  0  0  0  0  0  0  0
  185.1950  178.3740  143.8590 C   0  0  0  0  0  0  0  0  0  0  0  0
  183.8420  178.8220  144.3810 C   0  0  0  0  0  2  0  0  0  0  0  0
  184.8330  179.8430  143.8470 C   0  0  0  0  0  2  0  0  0  0  0  0
  186.3050  178.0420  144.8590 C   0  0  1  0  0  3  0  0  0  0  0  0
  185.7480  177.9820  146.2760 C   0  0  0  0  0  2  0  0  0  0  0  0
  186.5290  178.8870  147.2170 C   0  0  0  0  0  2  0  0  0  0  0  0
  187.5480  178.0830  148.0030 C   0  0  0  0  0  1  0  0  0  0  0  0
  186.9950  176.7280  144.5060 C   0  0  0  0  0  2  0  0  0  0  0  0
  188.9530  176.2470  143.2830 O   0  0  0  0  0  0  0  0  0  0  0  0
  188.4180  176.9620  144.1150 C   0  0  0  0  0  0  0  0  0  0  0  0
  189.2040  178.0430  144.7830 C   0  0  0  0  0  2  0  0  0  0  0  0
  190.6230  178.0490  144.3100 C   0  0  0  0  0  3  0  0  0  0  0  0
  191.2260  179.1870  143.9750 C   0  0  0  0  0  2  0  0  0  0  0  0
  184.3270  179.0940  140.6950 C   0  0  0  0  0  2  0  0  0  0  0  0
  183.2900  177.9810  140.7770 C   0  0  0  0  0  2  0  0  0  0  0  0
  182.5190  177.4890  138.4290 C   0  0  0  0  0  0  0  0  0  0  0  0
  183.3200  177.1750  139.5690 N   0  0  0  0  0  2  0  0  0  0  0  0
  181.7430  178.4820  138.4450 O   0  0  0  0  0  0  0  0  0  0  0  0
  182.5870  176.6340  137.2070 C   0  0  0  0  0  2  0  0  0  0  0  0
  182.8370  174.1010  137.3250 N   0  0  0  0  0  2  0  0  0  0  0  0
  182.0290  175.2710  137.4730 C   0  0  0  0  0  0  0  0  0  0  0  0
  180.8300  175.1510  137.8370 O   0  0  0  0  0  0  0  0  0  0  0  0
  184.2410  174.1440  136.9340 C   0  0  2  0  0  3  0  0  0  0  0  0
  184.3750  173.8510  135.4520 C   0  0  0  0  0  1  0  0  0  0  0  0
  186.4920  173.1540  137.3290 C   0  0  0  0  0  1  0  0  0  0  0  0
  185.0260  173.1050  137.7130 C   0  0  0  0  0  2  0  0  0  0  0  0
  1 25  1  6  0  0  0
  1 11  1  0  0  0  0
  2  4  1  0  0  0  0
  4  6  2  0  0  0  0
  4  1  1  0  0  0  0
  5  3  2  0  0  0  0
  5  2  1  0  0  0  0
  7  8  1  1  0  0  0
  7  5  1  0  0  0  0
  9 10  1  0  0  0  0
 10  7  1  0  0  0  0
 11 12  1  0  0  0  0
 12 13  1  0  0  0  0
 12 15  1  0  0  0  0
 14 12  1  0  0  0  0
 14 13  1  0  0  0  0
 15 19  1  6  0  0  0
 15 16  1  0  0  0  0
 16 17  1  0  0  0  0
 17 18  1  0  0  0  0
 20 21  2  0  0  0  0
 21 19  1  0  0  0  0
 21 22  1  0  0  0  0
 23 22  1  0  0  0  0
 24 23  2  0  0  0  0
 25 26  1  0  0  0  0
 27 29  2  0  0  0  0
 27 28  1  0  0  0  0
 28 26  1  0  0  0  0
 30 32  1  0  0  0  0
 30 27  1  0  0  0  0
 31 32  1  0  0  0  0
 32 33  2  0  0  0  0
 34 35  1  6  0  0  0
 34 31  1  0  0  0  0
 34 37  1  0  0  0  0
 36 37  1  0  0  0  0
M  END
>  <MODEL>
6

>  <REMARK>
 VINA RESULT:      -6.3      2.468      4.465
  Name = 
  19 active torsions:
  status: ('A' for Active; 'I' for Inactive)
    1  A    between atoms: N_1  and  C_5
    2  A    between atoms: C_2  and  C_19
    3  A    between atoms: C_2  and  C_35
    4  A    between atoms: C_3  and  C_32
    5  A    between atoms: C_4  and  O_10
    6  A    between atoms: C_4  and  C_13
    7  A    between atoms: C_5  and  C_23
    8  A    between atoms: C_7  and  C_14
    9  A    between atoms: C_7  and  C_27
   10  A    between atoms: C_9  and  C_13
   11  A    between atoms: C_9  and  C_16
   12  A    between atoms: O_10  and  C_14
   13  A    between atoms: C_11  and  C_36
   14  A    between atoms: C_13  and  C_20
   15  A    between atoms: C_14  and  C_31
   16  A    between atoms: C_20  and  C_25
   17  A    between atoms: C_25  and  C_32
   18  A    between atoms: C_26  and  C_36
   19  A    between atoms: C_27  and  N_33
                            x       y       z     vdW  Elec       q    Type
                         _______ _______ _______ _____ _____    ______ ____

>  <TORSDO>
F 19

$$$$
=
 OpenBabel10272415033D

 37 37  0  0  1  0  0  0  0  0999 V2000
  186.6660  178.0360  139.0180 C   0  0  2  0  0  3  0  0  0  0  0  0
  187.6070  176.4280  137.2980 N   0  0  0  0  0  2  0  0  0  0  0  0
  188.7500  176.9170  135.3110 O   0  0  0  0  0  0  0  0  0  0  0  0
  187.4440  177.7730  137.7650 C   0  0  0  0  0  0  0  0  0  0  0  0
  188.2710  176.0470  136.0890 C   0  0  0  0  0  0  0  0  0  0  0  0
  187.9230  178.7450  137.1220 O   0  0  0  0  0  0  0  0  0  0  0  0
  188.3740  174.5950  135.7480 C   0  0  2  0  0  3  0  0  0  0  0  0
  187.3850  173.7890  136.5690 C   0  0  0  0  0  1  0  0  0  0  0  0
  190.0070  173.9090  137.3520 O   0  0  0  0  0  1  0  0  0  0  0  0
  189.7820  174.0760  135.9840 C   0  0  0  0  0  2  0  0  0  0  0  0
  185.6880  179.0230  138.8070 O   0  0  0  0  0  0  0  0  0  0  0  0
  184.4500  178.4750  139.1920 C   0  0  0  0  0  0  0  0  0  0  0  0
  184.0760  177.1290  138.6010 C   0  0  0  0  0  2  0  0  0  0  0  0
  183.4870  178.4070  138.0280 C   0  0  0  0  0  2  0  0  0  0  0  0
  183.7820  178.9280  140.4930 C   0  0  1  0  0  3  0  0  0  0  0  0
  182.2970  179.1890  140.2690 C   0  0  0  0  0  2  0  0  0  0  0  0
  181.4430  178.4100  141.2570 C   0  0  0  0  0  2  0  0  0  0  0  0
  180.1180  179.1130  141.4840 C   0  0  0  0  0  1  0  0  0  0  0  0
  183.9760  177.9010  141.6040 C   0  0  0  0  0  2  0  0  0  0  0  0
  185.9680  178.0340  142.8590 O   0  0  0  0  0  0  0  0  0  0  0  0
  184.8340  178.4530  142.6950 C   0  0  0  0  0  0  0  0  0  0  0  0
  184.2820  179.4860  143.6240 C   0  0  0  0  0  2  0  0  0  0  0  0
  183.7420  178.8580  144.8690 C   0  0  0  0  0  3  0  0  0  0  0  0
  184.4800  178.7890  145.9750 C   0  0  0  0  0  2  0  0  0  0  0  0
  187.5790  178.4140  140.1890 C   0  0  0  0  0  2  0  0  0  0  0  0
  188.8730  177.6080  140.2210 C   0  0  0  0  0  2  0  0  0  0  0  0
  190.6660  177.2450  141.9540 C   0  0  0  0  0  0  0  0  0  0  0  0
  189.2910  177.3820  141.5940 N   0  0  0  0  0  2  0  0  0  0  0  0
  191.5670  177.3050  141.0760 O   0  0  0  0  0  0  0  0  0  0  0  0
  191.0470  177.0190  143.3790 C   0  0  0  0  0  2  0  0  0  0  0  0
  190.1000  178.3390  145.3430 N   0  0  0  0  0  2  0  0  0  0  0  0
  190.9240  178.2800  144.1760 C   0  0  0  0  0  0  0  0  0  0  0  0
  191.5590  179.3050  143.8160 O   0  0  0  0  0  0  0  0  0  0  0  0
  189.3500  177.1960  145.8490 C   0  0  2  0  0  3  0  0  0  0  0  0
  187.8910  177.3190  145.4540 C   0  0  0  0  0  1  0  0  0  0  0  0
  188.1620  177.6500  147.9910 C   0  0  0  0  0  1  0  0  0  0  0  0
  189.4470  177.1450  147.3630 C   0  0  0  0  0  2  0  0  0  0  0  0
  1 25  1  1  0  0  0
  2  4  1  0  0  0  0
  3  5  2  0  0  0  0
  4  1  1  0  0  0  0
  5  2  1  0  0  0  0
  6  4  2  0  0  0  0
  7 10  1  0  0  0  0
  7  5  1  0  0  0  0
  7  8  1  1  0  0  0
 10  9  1  0  0  0  0
 11  1  1  0  0  0  0
 11 12  1  0  0  0  0
 12 15  1  0  0  0  0
 13 12  1  0  0  0  0
 14 13  1  0  0  0  0
 14 12  1  0  0  0  0
 15 16  1  6  0  0  0
 15 19  1  0  0  0  0
 16 17  1  0  0  0  0
 17 18  1  0  0  0  0
 19 21  1  0  0  0  0
 21 20  2  0  0  0  0
 21 22  1  0  0  0  0
 22 23  1  0  0  0  0
 23 24  2  0  0  0  0
 25 26  1  0  0  0  0
 26 28  1  0  0  0  0
 27 30  1  0  0  0  0
 28 27  1  0  0  0  0
 29 27  2  0  0  0  0
 30 32  1  0  0  0  0
 31 34  1  0  0  0  0
 32 31  1  0  0  0  0
 33 32  2  0  0  0  0
 34 35  1  1  0  0  0
 34 37  1  0  0  0  0
 37 36  1  0  0  0  0
M  END
>  <MODEL>
7

>  <REMARK>
 VINA RESULT:      -6.0      2.423      6.953
  Name = 
  19 active torsions:
  status: ('A' for Active; 'I' for Inactive)
    1  A    between atoms: N_1  and  C_5
    2  A    between atoms: C_2  and  C_19
    3  A    between atoms: C_2  and  C_35
    4  A    between atoms: C_3  and  C_32
    5  A    between atoms: C_4  and  O_10
    6  A    between atoms: C_4  and  C_13
    7  A    between atoms: C_5  and  C_23
    8  A    between atoms: C_7  and  C_14
    9  A    between atoms: C_7  and  C_27
   10  A    between atoms: C_9  and  C_13
   11  A    between atoms: C_9  and  C_16
   12  A    between atoms: O_10  and  C_14
   13  A    between atoms: C_11  and  C_36
   14  A    between atoms: C_13  and  C_20
   15  A    between atoms: C_14  and  C_31
   16  A    between atoms: C_20  and  C_25
   17  A    between atoms: C_25  and  C_32
   18  A    between atoms: C_26  and  C_36
   19  A    between atoms: C_27  and  N_33
                            x       y       z     vdW  Elec       q    Type
                         _______ _______ _______ _____ _____    ______ ____

>  <TORSDO>
F 19

$$$$
=
 OpenBabel10272415033D

 37 37  0  0  1  0  0  0  0  0999 V2000
  187.7710  177.9210  138.3730 C   0  0  2  0  0  3  0  0  0  0  0  0
  189.7650  176.7090  137.3820 N   0  0  0  0  0  2  0  0  0  0  0  0
  190.5100  176.6930  135.1600 O   0  0  0  0  0  0  0  0  0  0  0  0
  188.6710  177.6190  137.2140 C   0  0  0  0  0  0  0  0  0  0  0  0
  190.6590  176.2890  136.3460 C   0  0  0  0  0  0  0  0  0  0  0  0
  188.4350  178.1500  136.0960 O   0  0  0  0  0  0  0  0  0  0  0  0
  191.7660  175.3450  136.6870 C   0  0  2  0  0  3  0  0  0  0  0  0
  191.2030  174.0240  137.1760 C   0  0  0  0  0  1  0  0  0  0  0  0
  193.6200  176.7810  137.1460 O   0  0  0  0  0  1  0  0  0  0  0  0
  192.6830  175.9360  137.7440 C   0  0  0  0  0  2  0  0  0  0  0  0
  186.7730  178.8420  138.0100 O   0  0  0  0  0  0  0  0  0  0  0  0
  185.5300  178.2090  138.1960 C   0  0  0  0  0  0  0  0  0  0  0  0
  185.4310  176.7500  137.7920 C   0  0  0  0  0  2  0  0  0  0  0  0
  184.8950  177.8360  136.8740 C   0  0  0  0  0  2  0  0  0  0  0  0
  184.5250  178.7730  139.2030 C   0  0  1  0  0  3  0  0  0  0  0  0
  183.1040  178.6540  138.6640 C   0  0  0  0  0  2  0  0  0  0  0  0
  182.1780  179.6710  139.3150 C   0  0  0  0  0  2  0  0  0  0  0  0
  181.9170  180.8320  138.3730 C   0  0  0  0  0  1  0  0  0  0  0  0
  184.6380  178.0700  140.5530 C   0  0  0  0  0  2  0  0  0  0  0  0
  186.0240  179.7910  141.3770 O   0  0  0  0  0  0  0  0  0  0  0  0
  185.1080  179.0180  141.6080 C   0  0  0  0  0  0  0  0  0  0  0  0
  184.4910  178.9810  142.9680 C   0  0  0  0  0  2  0  0  0  0  0  0
  183.0130  178.7620  142.8840 C   0  0  0  0  0  3  0  0  0  0  0  0
  182.2550  178.7940  143.9770 C   0  0  0  0  0  2  0  0  0  0  0  0
  188.5550  178.4170  139.5920 C   0  0  0  0  0  2  0  0  0  0  0  0
  188.6460  177.3800  140.7060 C   0  0  0  0  0  2  0  0  0  0  0  0
  190.3300  176.8910  142.5160 C   0  0  0  0  0  0  0  0  0  0  0  0
  189.5860  177.8170  141.7240 N   0  0  0  0  0  2  0  0  0  0  0  0
  190.1800  175.6500  142.3590 O   0  0  0  0  0  0  0  0  0  0  0  0
  191.2880  177.3870  143.5470 C   0  0  0  0  0  2  0  0  0  0  0  0
  189.6480  178.4180  145.2040 N   0  0  0  0  0  2  0  0  0  0  0  0
  190.7270  178.5680  144.2770 C   0  0  0  0  0  0  0  0  0  0  0  0
  191.2150  179.7100  144.0770 O   0  0  0  0  0  0  0  0  0  0  0  0
  189.0390  177.1320  145.5190 C   0  0  2  0  0  3  0  0  0  0  0  0
  187.5770  177.1390  145.1140 C   0  0  0  0  0  1  0  0  0  0  0  0
  189.0560  178.1690  147.7830 C   0  0  0  0  0  1  0  0  0  0  0  0
  189.1350  176.8670  147.0100 C   0  0  0  0  0  2  0  0  0  0  0  0
  1 25  1  1  0  0  0
  3  5  2  0  0  0  0
  4  2  1  0  0  0  0
  4  1  1  0  0  0  0
  5  7  1  0  0  0  0
  5  2  1  0  0  0  0
  6  4  2  0  0  0  0
  7  8  1  1  0  0  0
  7 10  1  0  0  0  0
  9 10  1  0  0  0  0
 11 12  1  0  0  0  0
 11  1  1  0  0  0  0
 12 15  1  0  0  0  0
 13 12  1  0  0  0  0
 14 13  1  0  0  0  0
 14 12  1  0  0  0  0
 15 16  1  6  0  0  0
 15 19  1  0  0  0  0
 16 17  1  0  0  0  0
 18 17  1  0  0  0  0
 19 21  1  0  0  0  0
 20 21  2  0  0  0  0
 21 22  1  0  0  0  0
 23 22  1  0  0  0  0
 23 24  2  0  0  0  0
 25 26  1  0  0  0  0
 26 28  1  0  0  0  0
 27 30  1  0  0  0  0
 28 27  1  0  0  0  0
 29 27  2  0  0  0  0
 30 32  1  0  0  0  0
 31 34  1  0  0  0  0
 32 31  1  0  0  0  0
 33 32  2  0  0  0  0
 34 35  1  1  0  0  0
 34 37  1  0  0  0  0
 37 36  1  0  0  0  0
M  END
>  <MODEL>
8

>  <REMARK>
 VINA RESULT:      -6.0      2.193      7.020
  Name = 
  19 active torsions:
  status: ('A' for Active; 'I' for Inactive)
    1  A    between atoms: N_1  and  C_5
    2  A    between atoms: C_2  and  C_19
    3  A    between atoms: C_2  and  C_35
    4  A    between atoms: C_3  and  C_32
    5  A    between atoms: C_4  and  O_10
    6  A    between atoms: C_4  and  C_13
    7  A    between atoms: C_5  and  C_23
    8  A    between atoms: C_7  and  C_14
    9  A    between atoms: C_7  and  C_27
   10  A    between atoms: C_9  and  C_13
   11  A    between atoms: C_9  and  C_16
   12  A    between atoms: O_10  and  C_14
   13  A    between atoms: C_11  and  C_36
   14  A    between atoms: C_13  and  C_20
   15  A    between atoms: C_14  and  C_31
   16  A    between atoms: C_20  and  C_25
   17  A    between atoms: C_25  and  C_32
   18  A    between atoms: C_26  and  C_36
   19  A    between atoms: C_27  and  N_33
                            x       y       z     vdW  Elec       q    Type
                         _______ _______ _______ _____ _____    ______ ____

>  <TORSDO>
F 19

$$$$
=
 OpenBabel10272415033D

 37 37  0  0  1  0  0  0  0  0999 V2000
  188.2310  177.8780  138.4380 C   0  0  2  0  0  3  0  0  0  0  0  0
  186.6500  178.5080  140.3180 N   0  0  0  0  0  2  0  0  0  0  0  0
  184.5460  179.5310  140.1760 O   0  0  0  0  0  0  0  0  0  0  0  0
  186.9140  178.4110  138.9130 C   0  0  0  0  0  0  0  0  0  0  0  0
  185.4620  179.0530  140.9010 C   0  0  0  0  0  0  0  0  0  0  0  0
  186.0640  178.7950  138.0650 O   0  0  0  0  0  0  0  0  0  0  0  0
  185.3290  179.0670  142.3890 C   0  0  2  0  0  3  0  0  0  0  0  0
  186.2670  178.0510  143.0130 C   0  0  0  0  0  1  0  0  0  0  0  0
  183.8620  178.4370  144.1670 O   0  0  0  0  0  1  0  0  0  0  0  0
  183.8990  178.7750  142.8130 C   0  0  0  0  0  2  0  0  0  0  0  0
  188.1340  176.5170  138.1010 O   0  0  0  0  0  0  0  0  0  0  0  0
  188.6680  176.3660  136.8090 C   0  0  0  0  0  0  0  0  0  0  0  0
  188.9060  177.6320  136.0070 C   0  0  0  0  0  2  0  0  0  0  0  0
  187.6750  176.7810  135.7460 C   0  0  0  0  0  2  0  0  0  0  0  0
  189.4400  175.0960  136.4410 C   0  0  1  0  0  3  0  0  0  0  0  0
  188.5050  174.0610  135.8270 C   0  0  0  0  0  2  0  0  0  0  0  0
  188.1990  172.9410  136.8100 C   0  0  0  0  0  2  0  0  0  0  0  0
  186.7650  173.0360  137.2950 C   0  0  0  0  0  1  0  0  0  0  0  0
  190.5900  175.4030  135.4850 C   0  0  0  0  0  2  0  0  0  0  0  0
  192.2320  173.8830  134.7400 O   0  0  0  0  0  0  0  0  0  0  0  0
  191.7220  174.4500  135.6930 C   0  0  0  0  0  0  0  0  0  0  0  0
  192.1960  174.1510  137.0780 C   0  0  0  0  0  2  0  0  0  0  0  0
  192.8100  175.3600  137.7100 C   0  0  0  0  0  3  0  0  0  0  0  0
  193.5300  176.2160  136.9890 C   0  0  0  0  0  2  0  0  0  0  0  0
  189.3440  178.1090  139.4660 C   0  0  0  0  0  2  0  0  0  0  0  0
  190.0760  176.8290  139.8520 C   0  0  0  0  0  2  0  0  0  0  0  0
  190.4390  176.7290  142.3430 C   0  0  0  0  0  0  0  0  0  0  0  0
  190.8960  177.0530  141.0300 N   0  0  0  0  0  2  0  0  0  0  0  0
  189.2910  176.2430  142.5200 O   0  0  0  0  0  0  0  0  0  0  0  0
  191.3200  176.9730  143.5230 C   0  0  0  0  0  2  0  0  0  0  0  0
  190.1490  178.3260  145.3380 N   0  0  0  0  0  2  0  0  0  0  0  0
  190.9880  178.2760  144.1810 C   0  0  0  0  0  0  0  0  0  0  0  0
  191.4560  179.3460  143.7130 O   0  0  0  0  0  0  0  0  0  0  0  0
  189.5830  177.1380  145.9660 C   0  0  2  0  0  3  0  0  0  0  0  0
  188.0930  177.3240  146.1770 C   0  0  0  0  0  1  0  0  0  0  0  0
  191.5660  176.1810  147.1300 C   0  0  0  0  0  1  0  0  0  0  0  0
  190.2440  176.9010  147.3110 C   0  0  0  0  0  2  0  0  0  0  0  0
  1  4  1  0  0  0  0
  1 25  1  1  0  0  0
  2  5  1  0  0  0  0
  3  5  2  0  0  0  0
  4  2  1  0  0  0  0
  5  7  1  0  0  0  0
  6  4  2  0  0  0  0
  7 10  1  0  0  0  0
  7  8  1  1  0  0  0
 10  9  1  0  0  0  0
 11  1  1  0  0  0  0
 12 11  1  0  0  0  0
 13 12  1  0  0  0  0
 14 13  1  0  0  0  0
 14 12  1  0  0  0  0
 15 19  1  6  0  0  0
 15 12  1  0  0  0  0
 16 15  1  0  0  0  0
 16 17  1  0  0  0  0
 17 18  1  0  0  0  0
 19 21  1  0  0  0  0
 20 21  2  0  0  0  0
 21 22  1  0  0  0  0
 22 23  1  0  0  0  0
 24 23  2  0  0  0  0
 25 26  1  0  0  0  0
 26 28  1  0  0  0  0
 27 29  2  0  0  0  0
 27 30  1  0  0  0  0
 28 27  1  0  0  0  0
 30 32  1  0  0  0  0
 31 34  1  0  0  0  0
 32 31  1  0  0  0  0
 33 32  2  0  0  0  0
 34 35  1  1  0  0  0
 34 37  1  0  0  0  0
 36 37  1  0  0  0  0
M  END
>  <MODEL>
9

>  <REMARK>
 VINA RESULT:      -6.0      2.186      9.035
  Name = 
  19 active torsions:
  status: ('A' for Active; 'I' for Inactive)
    1  A    between atoms: N_1  and  C_5
    2  A    between atoms: C_2  and  C_19
    3  A    between atoms: C_2  and  C_35
    4  A    between atoms: C_3  and  C_32
    5  A    between atoms: C_4  and  O_10
    6  A    between atoms: C_4  and  C_13
    7  A    between atoms: C_5  and  C_23
    8  A    between atoms: C_7  and  C_14
    9  A    between atoms: C_7  and  C_27
   10  A    between atoms: C_9  and  C_13
   11  A    between atoms: C_9  and  C_16
   12  A    between atoms: O_10  and  C_14
   13  A    between atoms: C_11  and  C_36
   14  A    between atoms: C_13  and  C_20
   15  A    between atoms: C_14  and  C_31
   16  A    between atoms: C_20  and  C_25
   17  A    between atoms: C_25  and  C_32
   18  A    between atoms: C_26  and  C_36
   19  A    between atoms: C_27  and  N_33
                            x       y       z     vdW  Elec       q    Type
                         _______ _______ _______ _____ _____    ______ ____

>  <TORSDO>
F 19

$$$$
