=
 OpenBabel10272413413D

 32 34  0  0  1  0  0  0  0  0999 V2000
  187.4600  176.7460  137.9580 O   0  0  0  0  0  0  0  0  0  0  0  0
  187.8430  175.9410  135.7580 C   0  0  0  0  0  0  0  0  0  0  0  0
  187.6500  174.4860  135.6530 C   0  0  0  0  0  0  0  0  0  0  0  0
  187.7060  177.8580  140.0480 C   0  0  1  0  0  3  0  0  0  0  0  0
  189.9960  176.8530  140.3260 C   0  0  0  0  0  2  0  0  0  0  0  0
  187.2980  171.7130  135.5080 C   0  0  0  0  0  3  0  0  0  0  0  0
  191.1570  177.3240  139.4720 C   0  0  0  0  0  2  0  0  0  0  0  0
  191.6780  176.1900  138.5840 C   0  0  1  0  0  3  0  0  0  0  0  0
  189.5390  175.6200  137.6140 C   0  0  2  0  0  3  0  0  0  0  0  0
  186.5220  172.5620  134.7060 C   0  0  0  0  0  3  0  0  0  0  0  0
  189.0940  178.0280  140.6860 C   0  0  2  0  0  3  0  0  0  0  0  0
  186.6990  173.9480  134.7780 C   0  0  0  0  0  3  0  0  0  0  0  0
  186.8300  178.8260  140.5380 O   0  0  0  0  0  1  0  0  0  0  0  0
  190.8940  176.1300  137.3260 N   0  0  0  0  0  0  0  0  0  0  0  0
  189.3680  174.1770  137.3830 N   0  0  0  0  0  2  0  0  0  0  0  0
  187.7770  177.9800  138.5320 C   0  0  0  0  0  2  0  0  0  0  0  0
  187.4270  176.7110  134.8500 O   0  0  0  0  0  0  0  0  0  0  0  0
  188.2430  172.2500  136.3860 C   0  0  0  0  0  3  0  0  0  0  0  0
  188.4510  176.5170  137.0040 C   0  0  2  0  0  3  0  0  0  0  0  0
  188.4190  173.6340  136.4600 C   0  0  0  0  0  0  0  0  0  0  0  0
  193.7220  177.0950  139.4450 O   0  0  0  0  0  1  0  0  0  0  0  0
  193.1650  176.4530  138.3380 C   0  0  0  0  0  2  0  0  0  0  0  0
  191.3520  176.1340  134.8470 C   0  0  0  0  0  1  0  0  0  0  0  0
  191.5480  175.4370  136.1940 C   0  0  0  0  0  2  0  0  0  0  0  0
  188.9700  178.0910  142.0790 O   0  0  0  0  0  0  0  0  0  0  0  0
  189.0210  176.7620  142.5110 C   0  0  0  0  0  2  0  0  0  0  0  0
  187.8660  176.4910  143.4520 C   0  0  0  0  0  2  0  0  0  0  0  0
  187.7400  177.6180  144.4620 C   0  0  0  0  0  2  0  0  0  0  0  0
  186.2920  177.8060  144.8870 C   0  0  0  0  0  2  0  0  0  0  0  0
  186.1970  178.1790  146.3230 C   0  0  0  0  0  0  0  0  0  0  0  0
  185.0580  178.8090  146.8000 O   0  0  0  0  0  0  0  0  0  0  0  0
  187.1560  177.9370  147.1000 O   0  0  0  0  0  1  0  0  0  0  0  0
  1 16  1  0  0  0  0
  3  2  1  0  0  0  0
  3 20  1  0  0  0  0
  4 13  1  1  0  0  0
  4 11  1  0  0  0  0
  5 11  1  0  0  0  0
  6 18  1  0  0  0  0
  7  5  1  0  0  0  0
  8 22  1  6  0  0  0
  8  7  1  0  0  0  0
  9 15  1  6  0  0  0
 10 12  1  0  0  0  0
 10  6  2  0  0  0  0
 11 25  1  1  0  0  0
 12  3  2  0  0  0  0
 14  9  1  0  0  0  0
 14  8  1  0  0  0  0
 16  4  1  0  0  0  0
 17  2  2  0  0  0  0
 18 20  2  0  0  0  0
 19  2  1  6  0  0  0
 19  9  1  0  0  0  0
 19  1  1  0  0  0  0
 20 15  1  0  0  0  0
 22 21  1  0  0  0  0
 23 24  1  0  0  0  0
 24 14  1  0  0  0  0
 25 26  1  0  0  0  0
 26 27  1  0  0  0  0
 27 28  1  0  0  0  0
 28 29  1  0  0  0  0
 29 30  1  0  0  0  0
 30 31  2  0  0  0  0
 30 32  1  0  0  0  0
M  END
>  <MODEL>
1

>  <REMARK>
 VINA RESULT:      -6.8      0.000      0.000
  Name = 
  8 active torsions:
  status: ('A' for Active; 'I' for Inactive)
    1  A    between atoms: C_1  and  C_10
    2  A    between atoms: C_2  and  C_19
    3  A    between atoms: C_2  and  C_24
    4  A    between atoms: C_10  and  C_24
    5  A    between atoms: O_12  and  C_19
    6  A    between atoms: O_12  and  C_21
    7  A    between atoms: C_13  and  C_15
    8  A    between atoms: C_25  and  N_26
                            x       y       z     vdW  Elec       q    Type
                         _______ _______ _______ _____ _____    ______ ____

>  <TORSDO>
F 8

$$$$
=
 OpenBabel10272413413D

 32 34  0  0  1  0  0  0  0  0999 V2000
  187.5560  176.6930  137.9080 O   0  0  0  0  0  0  0  0  0  0  0  0
  187.8430  175.8760  135.6980 C   0  0  0  0  0  0  0  0  0  0  0  0
  187.6080  174.4270  135.6020 C   0  0  0  0  0  0  0  0  0  0  0  0
  187.9030  177.7990  139.9870 C   0  0  1  0  0  3  0  0  0  0  0  0
  190.1730  176.7340  140.1890 C   0  0  0  0  0  2  0  0  0  0  0  0
  187.1790  171.6640  135.4740 C   0  0  0  0  0  3  0  0  0  0  0  0
  191.3170  177.1740  139.2960 C   0  0  0  0  0  2  0  0  0  0  0  0
  191.7770  176.0250  138.3930 C   0  0  1  0  0  3  0  0  0  0  0  0
  189.5920  175.5120  137.4970 C   0  0  2  0  0  3  0  0  0  0  0  0
  186.3990  172.5330  134.6970 C   0  0  0  0  0  3  0  0  0  0  0  0
  189.3160  177.9330  140.5770 C   0  0  2  0  0  3  0  0  0  0  0  0
  186.6140  173.9130  134.7610 C   0  0  0  0  0  3  0  0  0  0  0  0
  187.0700  178.7910  140.5050 O   0  0  0  0  0  1  0  0  0  0  0  0
  190.9500  175.9860  137.1620 N   0  0  0  0  0  0  0  0  0  0  0  0
  189.3750  174.0740  137.2730 N   0  0  0  0  0  2  0  0  0  0  0  0
  187.9250  177.9190  138.4690 C   0  0  0  0  0  2  0  0  0  0  0  0
  187.4170  176.6560  134.8040 O   0  0  0  0  0  0  0  0  0  0  0  0
  188.1670  172.1770  136.3180 C   0  0  0  0  0  3  0  0  0  0  0  0
  188.5090  176.4370  136.9220 C   0  0  2  0  0  3  0  0  0  0  0  0
  188.3820  173.5560  136.3840 C   0  0  0  0  0  0  0  0  0  0  0  0
  193.8850  176.8250  139.2040 O   0  0  0  0  0  1  0  0  0  0  0  0
  193.2610  176.2490  138.0960 C   0  0  0  0  0  2  0  0  0  0  0  0
  191.4140  176.0270  134.6840 C   0  0  0  0  0  1  0  0  0  0  0  0
  191.5470  175.2750  136.0090 C   0  0  0  0  0  2  0  0  0  0  0  0
  189.2400  178.0010  141.9740 O   0  0  0  0  0  0  0  0  0  0  0  0
  189.1430  176.6710  142.3990 C   0  0  0  0  0  2  0  0  0  0  0  0
  188.4420  176.6190  143.7410 C   0  0  0  0  0  2  0  0  0  0  0  0
  188.9270  177.7540  144.6270 C   0  0  0  0  0  2  0  0  0  0  0  0
  189.7020  177.2170  145.8200 C   0  0  0  0  0  2  0  0  0  0  0  0
  191.1680  177.2890  145.5840 C   0  0  0  0  0  0  0  0  0  0  0  0
  192.0360  176.5940  146.4120 O   0  0  0  0  0  1  0  0  0  0  0  0
  191.6200  177.9920  144.6440 O   0  0  0  0  0  0  0  0  0  0  0  0
  1 16  1  0  0  0  0
  3  2  1  0  0  0  0
  3 20  1  0  0  0  0
  4 13  1  1  0  0  0
  4 11  1  0  0  0  0
  5 11  1  0  0  0  0
  6 18  1  0  0  0  0
  7  5  1  0  0  0  0
  8 22  1  6  0  0  0
  8  7  1  0  0  0  0
  9 15  1  6  0  0  0
 10 12  1  0  0  0  0
 10  6  2  0  0  0  0
 11 25  1  1  0  0  0
 12  3  2  0  0  0  0
 14  9  1  0  0  0  0
 14  8  1  0  0  0  0
 16  4  1  0  0  0  0
 17  2  2  0  0  0  0
 18 20  2  0  0  0  0
 19  2  1  6  0  0  0
 19  9  1  0  0  0  0
 19  1  1  0  0  0  0
 20 15  1  0  0  0  0
 22 21  1  0  0  0  0
 23 24  1  0  0  0  0
 24 14  1  0  0  0  0
 25 26  1  0  0  0  0
 26 27  1  0  0  0  0
 27 28  1  0  0  0  0
 28 29  1  0  0  0  0
 30 29  1  0  0  0  0
 30 31  1  0  0  0  0
 32 30  2  0  0  0  0
M  END
>  <MODEL>
2

>  <REMARK>
 VINA RESULT:      -6.7      1.658      1.950
  Name = 
  8 active torsions:
  status: ('A' for Active; 'I' for Inactive)
    1  A    between atoms: C_1  and  C_10
    2  A    between atoms: C_2  and  C_19
    3  A    between atoms: C_2  and  C_24
    4  A    between atoms: C_10  and  C_24
    5  A    between atoms: O_12  and  C_19
    6  A    between atoms: O_12  and  C_21
    7  A    between atoms: C_13  and  C_15
    8  A    between atoms: C_25  and  N_26
                            x       y       z     vdW  Elec       q    Type
                         _______ _______ _______ _____ _____    ______ ____

>  <TORSDO>
F 8

$$$$
=
 OpenBabel10272413413D

 32 34  0  0  1  0  0  0  0  0999 V2000
  187.3070  178.4910  139.8040 O   0  0  0  0  0  0  0  0  0  0  0  0
  188.9580  178.6190  138.1030 C   0  0  0  0  0  0  0  0  0  0  0  0
  188.8980  177.4760  137.1780 C   0  0  0  0  0  0  0  0  0  0  0  0
  186.2190  178.4850  141.9200 C   0  0  1  0  0  3  0  0  0  0  0  0
  187.8970  176.8260  142.7920 C   0  0  0  0  0  2  0  0  0  0  0  0
  188.7640  175.2690  135.4620 C   0  0  0  0  0  3  0  0  0  0  0  0
  189.3290  177.2440  143.0690 C   0  0  0  0  0  2  0  0  0  0  0  0
  190.3030  176.4940  142.1560 C   0  0  1  0  0  3  0  0  0  0  0  0
  189.1960  177.0540  140.0820 C   0  0  2  0  0  3  0  0  0  0  0  0
  188.6120  176.5650  134.9510 C   0  0  0  0  0  3  0  0  0  0  0  0
  186.9370  177.9470  143.1690 C   0  0  2  0  0  3  0  0  0  0  0  0
  188.6790  177.6680  135.8090 C   0  0  0  0  0  3  0  0  0  0  0  0
  185.2040  179.3660  142.2920 O   0  0  0  0  0  1  0  0  0  0  0  0
  190.4390  177.2090  140.8630 N   0  0  0  0  0  0  0  0  0  0  0  0
  189.2300  175.9680  139.0900 N   0  0  0  0  0  2  0  0  0  0  0  0
  187.1880  179.2100  140.9970 C   0  0  0  0  0  2  0  0  0  0  0  0
  189.1580  179.7860  137.6680 O   0  0  0  0  0  0  0  0  0  0  0  0
  188.9760  175.0750  136.8290 C   0  0  0  0  0  3  0  0  0  0  0  0
  188.6790  178.4040  139.5620 C   0  0  2  0  0  3  0  0  0  0  0  0
  189.0430  176.1760  137.6870 C   0  0  0  0  0  0  0  0  0  0  0  0
  191.3920  176.1360  144.2600 O   0  0  0  0  0  1  0  0  0  0  0  0
  191.6310  176.3810  142.9070 C   0  0  0  0  0  2  0  0  0  0  0  0
  192.8480  177.8030  140.4150 C   0  0  0  0  0  1  0  0  0  0  0  0
  191.6590  176.9010  140.0840 C   0  0  0  0  0  2  0  0  0  0  0  0
  185.9950  177.4490  144.0780 O   0  0  0  0  0  0  0  0  0  0  0  0
  186.0000  178.3560  145.1430 C   0  0  0  0  0  2  0  0  0  0  0  0
  186.0700  177.5970  146.4520 C   0  0  0  0  0  2  0  0  0  0  0  0
  187.2350  178.1020  147.2870 C   0  0  0  0  0  2  0  0  0  0  0  0
  188.5590  177.8180  146.5960 C   0  0  0  0  0  2  0  0  0  0  0  0
  189.6060  177.4340  147.5790 C   0  0  0  0  0  0  0  0  0  0  0  0
  189.7770  178.1830  148.7340 O   0  0  0  0  0  1  0  0  0  0  0  0
  190.3450  176.4420  147.3560 O   0  0  0  0  0  0  0  0  0  0  0  0
  1 16  1  0  0  0  0
  3 20  1  0  0  0  0
  3  2  1  0  0  0  0
  4 13  1  1  0  0  0
  4 11  1  0  0  0  0
  5  7  1  0  0  0  0
  5 11  1  0  0  0  0
  6 18  1  0  0  0  0
  8 22  1  1  0  0  0
  8  7  1  0  0  0  0
  9 15  1  6  0  0  0
  9 14  1  0  0  0  0
 10  6  2  0  0  0  0
 10 12  1  0  0  0  0
 11 25  1  1  0  0  0
 12  3  2  0  0  0  0
 14  8  1  0  0  0  0
 16  4  1  0  0  0  0
 17  2  2  0  0  0  0
 18 20  2  0  0  0  0
 19  2  1  6  0  0  0
 19  1  1  0  0  0  0
 19  9  1  0  0  0  0
 20 15  1  0  0  0  0
 22 21  1  0  0  0  0
 24 23  1  0  0  0  0
 24 14  1  0  0  0  0
 25 26  1  0  0  0  0
 26 27  1  0  0  0  0
 27 28  1  0  0  0  0
 29 28  1  0  0  0  0
 29 30  1  0  0  0  0
 30 31  1  0  0  0  0
 32 30  2  0  0  0  0
M  END
>  <MODEL>
3

>  <REMARK>
 VINA RESULT:      -6.6      2.380      3.776
  Name = 
  8 active torsions:
  status: ('A' for Active; 'I' for Inactive)
    1  A    between atoms: C_1  and  C_10
    2  A    between atoms: C_2  and  C_19
    3  A    between atoms: C_2  and  C_24
    4  A    between atoms: C_10  and  C_24
    5  A    between atoms: O_12  and  C_19
    6  A    between atoms: O_12  and  C_21
    7  A    between atoms: C_13  and  C_15
    8  A    between atoms: C_25  and  N_26
                            x       y       z     vdW  Elec       q    Type
                         _______ _______ _______ _____ _____    ______ ____

>  <TORSDO>
F 8

$$$$
=
 OpenBabel10272413413D

 32 34  0  0  1  0  0  0  0  0999 V2000
  185.9510  177.2070  137.8210 O   0  0  0  0  0  0  0  0  0  0  0  0
  186.0870  176.3430  135.6150 C   0  0  0  0  0  0  0  0  0  0  0  0
  185.8050  174.9000  135.5610 C   0  0  0  0  0  0  0  0  0  0  0  0
  186.4480  178.3380  139.8560 C   0  0  1  0  0  3  0  0  0  0  0  0
  188.6940  177.2080  139.9500 C   0  0  0  0  0  2  0  0  0  0  0  0
  185.2870  172.1500  135.5100 C   0  0  0  0  0  3  0  0  0  0  0  0
  189.7980  177.5970  138.9840 C   0  0  0  0  0  2  0  0  0  0  0  0
  190.1720  176.4190  138.0790 C   0  0  1  0  0  3  0  0  0  0  0  0
  187.9240  175.9560  137.3180 C   0  0  2  0  0  3  0  0  0  0  0  0
  184.4910  173.0280  134.7620 C   0  0  0  0  0  3  0  0  0  0  0  0
  187.8960  178.4390  140.3620 C   0  0  2  0  0  3  0  0  0  0  0  0
  184.7500  174.4020  134.7870 C   0  0  0  0  0  3  0  0  0  0  0  0
  185.6760  179.3640  140.4010 O   0  0  0  0  0  1  0  0  0  0  0  0
  189.2750  176.3830  136.8980 N   0  0  0  0  0  0  0  0  0  0  0  0
  187.6530  174.5220  137.1350 N   0  0  0  0  0  2  0  0  0  0  0  0
  186.3880  178.4300  138.3370 C   0  0  0  0  0  2  0  0  0  0  0  0
  185.6340  177.1190  134.7310 O   0  0  0  0  0  0  0  0  0  0  0  0
  186.3370  172.6460  136.2870 C   0  0  0  0  0  3  0  0  0  0  0  0
  186.8380  176.9040  136.7880 C   0  0  2  0  0  3  0  0  0  0  0  0
  186.5960  174.0190  136.3140 C   0  0  0  0  0  0  0  0  0  0  0  0
  192.3630  175.4520  138.0550 O   0  0  0  0  0  1  0  0  0  0  0  0
  191.6420  176.5910  137.6950 C   0  0  0  0  0  2  0  0  0  0  0  0
  189.6680  176.3980  134.4080 C   0  0  0  0  0  1  0  0  0  0  0  0
  189.7830  175.6340  135.7280 C   0  0  0  0  0  2  0  0  0  0  0  0
  187.9020  178.5330  141.7600 O   0  0  0  0  0  0  0  0  0  0  0  0
  188.2500  177.2560  142.2100 C   0  0  0  0  0  2  0  0  0  0  0  0
  187.8750  177.1150  143.6710 C   0  0  0  0  0  2  0  0  0  0  0  0
  189.1260  176.9460  144.5170 C   0  0  0  0  0  2  0  0  0  0  0  0
  190.3740  177.2690  143.7100 C   0  0  0  0  0  2  0  0  0  0  0  0
  191.4130  177.9080  144.5600 C   0  0  0  0  0  0  0  0  0  0  0  0
  191.7740  177.3250  145.7640 O   0  0  0  0  0  1  0  0  0  0  0  0
  191.9510  178.9840  144.1930 O   0  0  0  0  0  0  0  0  0  0  0  0
  1 16  1  0  0  0  0
  3  2  1  0  0  0  0
  3 20  1  0  0  0  0
  4 11  1  0  0  0  0
  4 13  1  1  0  0  0
  5 11  1  0  0  0  0
  6 18  1  0  0  0  0
  7  5  1  0  0  0  0
  8 22  1  6  0  0  0
  8  7  1  0  0  0  0
  9 15  1  6  0  0  0
 10 12  1  0  0  0  0
 10  6  2  0  0  0  0
 11 25  1  1  0  0  0
 12  3  2  0  0  0  0
 14  9  1  0  0  0  0
 14  8  1  0  0  0  0
 16  4  1  0  0  0  0
 17  2  2  0  0  0  0
 18 20  2  0  0  0  0
 19  2  1  6  0  0  0
 19  9  1  0  0  0  0
 19  1  1  0  0  0  0
 20 15  1  0  0  0  0
 22 21  1  0  0  0  0
 23 24  1  0  0  0  0
 24 14  1  0  0  0  0
 25 26  1  0  0  0  0
 26 27  1  0  0  0  0
 27 28  1  0  0  0  0
 29 28  1  0  0  0  0
 29 30  1  0  0  0  0
 30 31  1  0  0  0  0
 32 30  2  0  0  0  0
M  END
>  <MODEL>
4

>  <REMARK>
 VINA RESULT:      -5.9      2.054      2.554
  Name = 
  8 active torsions:
  status: ('A' for Active; 'I' for Inactive)
    1  A    between atoms: C_1  and  C_10
    2  A    between atoms: C_2  and  C_19
    3  A    between atoms: C_2  and  C_24
    4  A    between atoms: C_10  and  C_24
    5  A    between atoms: O_12  and  C_19
    6  A    between atoms: O_12  and  C_21
    7  A    between atoms: C_13  and  C_15
    8  A    between atoms: C_25  and  N_26
                            x       y       z     vdW  Elec       q    Type
                         _______ _______ _______ _____ _____    ______ ____

>  <TORSDO>
F 8

$$$$
=
 OpenBabel10272413413D

 32 34  0  0  1  0  0  0  0  0999 V2000
  187.5780  177.7950  139.5580 O   0  0  0  0  0  0  0  0  0  0  0  0
  187.2310  178.1180  137.2320 C   0  0  0  0  0  0  0  0  0  0  0  0
  186.6120  176.9470  136.5910 C   0  0  0  0  0  0  0  0  0  0  0  0
  188.5770  177.6930  141.7160 C   0  0  1  0  0  3  0  0  0  0  0  0
  190.4860  176.3480  140.7820 C   0  0  0  0  0  2  0  0  0  0  0  0
  185.4580  174.6870  135.4090 C   0  0  0  0  0  3  0  0  0  0  0  0
  191.5220  176.9940  139.8820 C   0  0  0  0  0  2  0  0  0  0  0  0
  191.4920  176.3730  138.4820 C   0  0  1  0  0  3  0  0  0  0  0  0
  189.1220  176.6790  138.1150 C   0  0  2  0  0  3  0  0  0  0  0  0
  184.8050  175.9250  135.3420 C   0  0  0  0  0  3  0  0  0  0  0  0
  190.0590  177.3190  141.8770 C   0  0  2  0  0  3  0  0  0  0  0  0
  185.3810  177.0550  135.9320 C   0  0  0  0  0  3  0  0  0  0  0  0
  188.1420  178.4190  142.8250 O   0  0  0  0  0  1  0  0  0  0  0  0
  190.4720  177.0540  137.6470 N   0  0  0  0  0  0  0  0  0  0  0  0
  188.5000  175.5780  137.3650 N   0  0  0  0  0  2  0  0  0  0  0  0
  188.3510  178.5270  140.4620 C   0  0  0  0  0  2  0  0  0  0  0  0
  186.8680  179.2850  136.9250 O   0  0  0  0  0  0  0  0  0  0  0  0
  186.6830  174.5780  136.0720 C   0  0  0  0  0  3  0  0  0  0  0  0
  188.2330  177.9130  138.3320 C   0  0  2  0  0  3  0  0  0  0  0  0
  187.2600  175.7050  136.6630 C   0  0  0  0  0  0  0  0  0  0  0  0
  193.7910  176.9050  138.8970 O   0  0  0  0  0  1  0  0  0  0  0  0
  192.9020  176.4940  137.9020 C   0  0  0  0  0  2  0  0  0  0  0  0
  190.9390  175.4820  135.7320 C   0  0  0  0  0  1  0  0  0  0  0  0
  190.6400  176.9120  136.1840 C   0  0  0  0  0  2  0  0  0  0  0  0
  190.2610  176.7120  143.1230 O   0  0  0  0  0  0  0  0  0  0  0  0
  191.5780  177.0260  143.4720 C   0  0  0  0  0  2  0  0  0  0  0  0
  191.6050  177.6040  144.8720 C   0  0  0  0  0  2  0  0  0  0  0  0
  191.2080  176.5430  145.8840 C   0  0  0  0  0  2  0  0  0  0  0  0
  190.5510  177.1730  147.1020 C   0  0  0  0  0  2  0  0  0  0  0  0
  189.0690  177.1110  147.0040 C   0  0  0  0  0  0  0  0  0  0  0  0
  188.4210  177.7080  145.9330 O   0  0  0  0  0  0  0  0  0  0  0  0
  188.4040  176.5330  147.9010 O   0  0  0  0  0  1  0  0  0  0  0  0
  1 16  1  0  0  0  0
  3 20  1  0  0  0  0
  3  2  1  0  0  0  0
  4 11  1  0  0  0  0
  4 13  1  1  0  0  0
  5 11  1  0  0  0  0
  6 18  1  0  0  0  0
  7  5  1  0  0  0  0
  8 22  1  6  0  0  0
  8  7  1  0  0  0  0
  9 15  1  6  0  0  0
  9 19  1  0  0  0  0
 10  6  2  0  0  0  0
 10 12  1  0  0  0  0
 11 25  1  1  0  0  0
 12  3  2  0  0  0  0
 14  9  1  0  0  0  0
 14  8  1  0  0  0  0
 16  4  1  0  0  0  0
 17  2  2  0  0  0  0
 18 20  2  0  0  0  0
 19  2  1  6  0  0  0
 19  1  1  0  0  0  0
 20 15  1  0  0  0  0
 22 21  1  0  0  0  0
 23 24  1  0  0  0  0
 24 14  1  0  0  0  0
 25 26  1  0  0  0  0
 26 27  1  0  0  0  0
 27 28  1  0  0  0  0
 28 29  1  0  0  0  0
 30 29  1  0  0  0  0
 30 32  1  0  0  0  0
 31 30  2  0  0  0  0
M  END
>  <MODEL>
5

>  <REMARK>
 VINA RESULT:      -5.7      1.961      2.574
  Name = 
  8 active torsions:
  status: ('A' for Active; 'I' for Inactive)
    1  A    between atoms: C_1  and  C_10
    2  A    between atoms: C_2  and  C_19
    3  A    between atoms: C_2  and  C_24
    4  A    between atoms: C_10  and  C_24
    5  A    between atoms: O_12  and  C_19
    6  A    between atoms: O_12  and  C_21
    7  A    between atoms: C_13  and  C_15
    8  A    between atoms: C_25  and  N_26
                            x       y       z     vdW  Elec       q    Type
                         _______ _______ _______ _____ _____    ______ ____

>  <TORSDO>
F 8

$$$$
=
 OpenBabel10272413413D

 32 34  0  0  1  0  0  0  0  0999 V2000
  184.4710  177.8060  139.2120 O   0  0  0  0  0  0  0  0  0  0  0  0
  183.4800  177.2860  137.1190 C   0  0  0  0  0  0  0  0  0  0  0  0
  183.1730  175.8530  136.9860 C   0  0  0  0  0  0  0  0  0  0  0  0
  185.9350  178.6520  140.8880 C   0  0  1  0  0  3  0  0  0  0  0  0
  187.9070  177.6510  139.6880 C   0  0  0  0  0  2  0  0  0  0  0  0
  182.6340  173.1150  136.7660 C   0  0  0  0  0  3  0  0  0  0  0  0
  188.3980  178.2400  138.3800 C   0  0  0  0  0  2  0  0  0  0  0  0
  188.2490  177.2320  137.2360 C   0  0  1  0  0  3  0  0  0  0  0  0
  185.9090  176.7590  137.6160 C   0  0  2  0  0  3  0  0  0  0  0  0
  181.5930  174.0470  136.6540 C   0  0  0  0  0  3  0  0  0  0  0  0
  187.4460  178.7600  140.6270 C   0  0  2  0  0  3  0  0  0  0  0  0
  181.8620  175.4150  136.7630 C   0  0  0  0  0  3  0  0  0  0  0  0
  185.5570  179.5390  141.8950 O   0  0  0  0  0  1  0  0  0  0  0  0
  186.8850  177.3190  136.6590 N   0  0  0  0  0  0  0  0  0  0  0  0
  185.5490  175.3540  137.3680 N   0  0  0  0  0  2  0  0  0  0  0  0
  185.1340  178.9630  139.6310 C   0  0  0  0  0  2  0  0  0  0  0  0
  182.6670  178.1570  136.7060 O   0  0  0  0  0  0  0  0  0  0  0  0
  183.9420  173.5510  136.9940 C   0  0  0  0  0  3  0  0  0  0  0  0
  184.7240  177.7110  137.8430 C   0  0  2  0  0  3  0  0  0  0  0  0
  184.2120  174.9180  137.1040 C   0  0  0  0  0  0  0  0  0  0  0  0
  190.3950  176.6400  136.3530 O   0  0  0  0  0  1  0  0  0  0  0  0
  189.3410  177.5440  136.2120 C   0  0  0  0  0  2  0  0  0  0  0  0
  185.9620  177.7070  134.3460 C   0  0  0  0  0  1  0  0  0  0  0  0
  186.7310  176.7820  135.2890 C   0  0  0  0  0  2  0  0  0  0  0  0
  188.1440  178.6470  141.8360 O   0  0  0  0  0  0  0  0  0  0  0  0
  188.7420  177.3830  141.7950 C   0  0  0  0  0  2  0  0  0  0  0  0
  189.1620  176.9770  143.1930 C   0  0  0  0  0  2  0  0  0  0  0  0
  188.0320  177.2380  144.1740 C   0  0  0  0  0  2  0  0  0  0  0  0
  188.5700  177.7750  145.4910 C   0  0  0  0  0  2  0  0  0  0  0  0
  187.5550  177.6660  146.5710 C   0  0  0  0  0  0  0  0  0  0  0  0
  186.2080  177.7890  146.2680 O   0  0  0  0  0  0  0  0  0  0  0  0
  187.9200  177.4790  147.7600 O   0  0  0  0  0  1  0  0  0  0  0  0
  1 16  1  0  0  0  0
  3 20  1  0  0  0  0
  3  2  1  0  0  0  0
  4 13  1  1  0  0  0
  5 11  1  0  0  0  0
  6 18  1  0  0  0  0
  7  5  1  0  0  0  0
  8 22  1  6  0  0  0
  8  7  1  0  0  0  0
  9 15  1  6  0  0  0
  9 19  1  0  0  0  0
 10 12  1  0  0  0  0
 10  6  2  0  0  0  0
 11  4  1  0  0  0  0
 11 25  1  1  0  0  0
 12  3  2  0  0  0  0
 14  8  1  0  0  0  0
 14  9  1  0  0  0  0
 16  4  1  0  0  0  0
 17  2  2  0  0  0  0
 18 20  2  0  0  0  0
 19  2  1  6  0  0  0
 19  1  1  0  0  0  0
 20 15  1  0  0  0  0
 22 21  1  0  0  0  0
 23 24  1  0  0  0  0
 24 14  1  0  0  0  0
 26 25  1  0  0  0  0
 26 27  1  0  0  0  0
 27 28  1  0  0  0  0
 28 29  1  0  0  0  0
 29 30  1  0  0  0  0
 30 32  1  0  0  0  0
 31 30  2  0  0  0  0
M  END
>  <MODEL>
6

>  <REMARK>
 VINA RESULT:      -5.6      2.968      3.714
  Name = 
  8 active torsions:
  status: ('A' for Active; 'I' for Inactive)
    1  A    between atoms: C_1  and  C_10
    2  A    between atoms: C_2  and  C_19
    3  A    between atoms: C_2  and  C_24
    4  A    between atoms: C_10  and  C_24
    5  A    between atoms: O_12  and  C_19
    6  A    between atoms: O_12  and  C_21
    7  A    between atoms: C_13  and  C_15
    8  A    between atoms: C_25  and  N_26
                            x       y       z     vdW  Elec       q    Type
                         _______ _______ _______ _____ _____    ______ ____

>  <TORSDO>
F 8

$$$$
=
 OpenBabel10272413413D

 32 34  0  0  1  0  0  0  0  0999 V2000
  184.3860  178.4000  137.7390 O   0  0  0  0  0  0  0  0  0  0  0  0
  182.0250  178.2860  137.5260 C   0  0  0  0  0  0  0  0  0  0  0  0
  181.4290  179.5930  137.2060 C   0  0  0  0  0  0  0  0  0  0  0  0
  186.6090  178.1730  138.5590 C   0  0  1  0  0  3  0  0  0  0  0  0
  185.9070  179.1510  140.7680 C   0  0  0  0  0  2  0  0  0  0  0  0
  180.3360  182.1030  136.6270 C   0  0  0  0  0  3  0  0  0  0  0  0
  185.0360  178.3590  141.7240 C   0  0  0  0  0  2  0  0  0  0  0  0
  183.6850  179.0510  141.9330 C   0  0  1  0  0  3  0  0  0  0  0  0
  183.1370  179.2560  139.5870 C   0  0  2  0  0  3  0  0  0  0  0  0
  180.1360  181.0310  135.7470 C   0  0  0  0  0  3  0  0  0  0  0  0
  186.8970  178.2270  140.0680 C   0  0  2  0  0  3  0  0  0  0  0  0
  180.6810  179.7760  136.0370 C   0  0  0  0  0  3  0  0  0  0  0  0
  187.6310  177.4900  137.8990 O   0  0  0  0  0  1  0  0  0  0  0  0
  182.7360  178.6400  140.8690 N   0  0  0  0  0  0  0  0  0  0  0  0
  182.4260  180.5010  139.2600 N   0  0  0  0  0  2  0  0  0  0  0  0
  185.2870  177.4750  138.2750 C   0  0  0  0  0  2  0  0  0  0  0  0
  181.6110  177.2360  136.9630 O   0  0  0  0  0  0  0  0  0  0  0  0
  181.0870  181.9230  137.7910 C   0  0  0  0  0  3  0  0  0  0  0  0
  183.2020  178.2190  138.4550 C   0  0  2  0  0  3  0  0  0  0  0  0
  181.6330  180.6700  138.0810 C   0  0  0  0  0  0  0  0  0  0  0  0
  184.2870  178.4430  144.1700 O   0  0  0  0  0  1  0  0  0  0  0  0
  183.1960  178.6760  143.3330 C   0  0  0  0  0  2  0  0  0  0  0  0
  180.4250  177.6350  140.7940 C   0  0  0  0  0  1  0  0  0  0  0  0
  181.3010  178.8270  141.1810 C   0  0  0  0  0  2  0  0  0  0  0  0
  188.1950  178.7090  140.2850 O   0  0  0  0  0  0  0  0  0  0  0  0
  188.8150  177.7400  141.0800 C   0  0  0  0  0  2  0  0  0  0  0  0
  188.9860  178.2740  142.4870 C   0  0  0  0  0  2  0  0  0  0  0  0
  188.8010  177.1550  143.4970 C   0  0  0  0  0  2  0  0  0  0  0  0
  190.1400  176.5450  143.8810 C   0  0  0  0  0  2  0  0  0  0  0  0
  190.5980  177.0450  145.2040 C   0  0  0  0  0  0  0  0  0  0  0  0
  191.8440  177.6400  145.3230 O   0  0  0  0  0  0  0  0  0  0  0  0
  189.8620  176.9130  146.2150 O   0  0  0  0  0  1  0  0  0  0  0  0
  1 16  1  0  0  0  0
  1 19  1  0  0  0  0
  3  2  1  0  0  0  0
  3 20  1  0  0  0  0
  4 13  1  6  0  0  0
  4 11  1  0  0  0  0
  5  7  1  0  0  0  0
  6 18  1  0  0  0  0
  7  8  1  0  0  0  0
  8 22  1  1  0  0  0
  9 15  1  6  0  0  0
  9 14  1  0  0  0  0
 10 12  1  0  0  0  0
 10  6  2  0  0  0  0
 11 25  1  6  0  0  0
 11  5  1  0  0  0  0
 12  3  2  0  0  0  0
 14 24  1  0  0  0  0
 14  8  1  0  0  0  0
 16  4  1  0  0  0  0
 17  2  2  0  0  0  0
 18 20  2  0  0  0  0
 19  2  1  6  0  0  0
 19  9  1  0  0  0  0
 20 15  1  0  0  0  0
 22 21  1  0  0  0  0
 23 24  1  0  0  0  0
 25 26  1  0  0  0  0
 26 27  1  0  0  0  0
 27 28  1  0  0  0  0
 28 29  1  0  0  0  0
 29 30  1  0  0  0  0
 30 31  2  0  0  0  0
 30 32  1  0  0  0  0
M  END
>  <MODEL>
7

>  <REMARK>
 VINA RESULT:      -5.6      5.169      7.591
  Name = 
  8 active torsions:
  status: ('A' for Active; 'I' for Inactive)
    1  A    between atoms: C_1  and  C_10
    2  A    between atoms: C_2  and  C_19
    3  A    between atoms: C_2  and  C_24
    4  A    between atoms: C_10  and  C_24
    5  A    between atoms: O_12  and  C_19
    6  A    between atoms: O_12  and  C_21
    7  A    between atoms: C_13  and  C_15
    8  A    between atoms: C_25  and  N_26
                            x       y       z     vdW  Elec       q    Type
                         _______ _______ _______ _____ _____    ______ ____

>  <TORSDO>
F 8

$$$$
=
 OpenBabel10272413413D

 32 34  0  0  1  0  0  0  0  0999 V2000
  182.8940  176.5590  139.1110 O   0  0  0  0  0  0  0  0  0  0  0  0
  182.2490  175.5150  137.0790 C   0  0  0  0  0  0  0  0  0  0  0  0
  182.6580  174.1030  137.0210 C   0  0  0  0  0  0  0  0  0  0  0  0
  183.7950  178.0890  140.6960 C   0  0  1  0  0  3  0  0  0  0  0  0
  185.9960  178.0740  139.4760 C   0  0  0  0  0  2  0  0  0  0  0  0
  183.4800  171.4290  136.9440 C   0  0  0  0  0  3  0  0  0  0  0  0
  186.1380  178.7520  138.1270 C   0  0  0  0  0  2  0  0  0  0  0  0
  186.4740  177.7310  137.0360 C   0  0  1  0  0  3  0  0  0  0  0  0
  184.6420  176.2280  137.5160 C   0  0  2  0  0  3  0  0  0  0  0  0
  182.1210  171.7490  136.8260 C   0  0  0  0  0  3  0  0  0  0  0  0
  185.0720  178.8840  140.3790 C   0  0  2  0  0  3  0  0  0  0  0  0
  181.7100  173.0850  136.8630 C   0  0  0  0  0  3  0  0  0  0  0  0
  183.0500  178.7470  141.6740 O   0  0  0  0  0  1  0  0  0  0  0  0
  185.2270  177.1290  136.5020 N   0  0  0  0  0  0  0  0  0  0  0  0
  184.9890  174.8100  137.3440 N   0  0  0  0  0  2  0  0  0  0  0  0
  182.9320  177.9130  139.4540 C   0  0  0  0  0  2  0  0  0  0  0  0
  181.1170  175.8740  136.6550 O   0  0  0  0  0  0  0  0  0  0  0  0
  184.4270  172.4430  137.1070 C   0  0  0  0  0  3  0  0  0  0  0  0
  183.1500  176.5180  137.7400 C   0  0  2  0  0  3  0  0  0  0  0  0
  184.0180  173.7790  137.1460 C   0  0  0  0  0  0  0  0  0  0  0  0
  188.6450  178.2710  136.1780 O   0  0  0  0  0  1  0  0  0  0  0  0
  187.2790  178.4630  135.9610 C   0  0  0  0  0  2  0  0  0  0  0  0
  186.5530  175.5980  135.0020 C   0  0  0  0  0  1  0  0  0  0  0  0
  185.3350  176.5070  135.1640 C   0  0  0  0  0  2  0  0  0  0  0  0
  185.7500  179.1830  141.5670 O   0  0  0  0  0  0  0  0  0  0  0  0
  186.9100  178.4010  141.5320 C   0  0  0  0  0  2  0  0  0  0  0  0
  187.1650  177.8140  142.9050 C   0  0  0  0  0  2  0  0  0  0  0  0
  185.8930  177.8520  143.7340 C   0  0  0  0  0  2  0  0  0  0  0  0
  186.2110  178.0690  145.2060 C   0  0  0  0  0  2  0  0  0  0  0  0
  185.1120  178.7970  145.8910 C   0  0  0  0  0  0  0  0  0  0  0  0
  183.9560  179.1170  145.1960 O   0  0  0  0  0  0  0  0  0  0  0  0
  185.2380  179.1370  147.0960 O   0  0  0  0  0  1  0  0  0  0  0  0
  1 16  1  0  0  0  0
  3  2  1  0  0  0  0
  3 20  1  0  0  0  0
  4 13  1  1  0  0  0
  5 11  1  0  0  0  0
  6 18  1  0  0  0  0
  7  5  1  0  0  0  0
  8 22  1  6  0  0  0
  8  7  1  0  0  0  0
  9 15  1  6  0  0  0
  9 19  1  0  0  0  0
 10 12  1  0  0  0  0
 10  6  2  0  0  0  0
 11  4  1  0  0  0  0
 11 25  1  1  0  0  0
 12  3  2  0  0  0  0
 14  8  1  0  0  0  0
 14  9  1  0  0  0  0
 16  4  1  0  0  0  0
 17  2  2  0  0  0  0
 18 20  2  0  0  0  0
 19  2  1  6  0  0  0
 19  1  1  0  0  0  0
 20 15  1  0  0  0  0
 22 21  1  0  0  0  0
 23 24  1  0  0  0  0
 24 14  1  0  0  0  0
 26 25  1  0  0  0  0
 26 27  1  0  0  0  0
 27 28  1  0  0  0  0
 28 29  1  0  0  0  0
 29 30  1  0  0  0  0
 30 32  1  0  0  0  0
 31 30  2  0  0  0  0
M  END
>  <MODEL>
8

>  <REMARK>
 VINA RESULT:      -5.2      3.531      4.590
  Name = 
  8 active torsions:
  status: ('A' for Active; 'I' for Inactive)
    1  A    between atoms: C_1  and  C_10
    2  A    between atoms: C_2  and  C_19
    3  A    between atoms: C_2  and  C_24
    4  A    between atoms: C_10  and  C_24
    5  A    between atoms: O_12  and  C_19
    6  A    between atoms: O_12  and  C_21
    7  A    between atoms: C_13  and  C_15
    8  A    between atoms: C_25  and  N_26
                            x       y       z     vdW  Elec       q    Type
                         _______ _______ _______ _____ _____    ______ ____

>  <TORSDO>
F 8

$$$$
=
 OpenBabel10272413413D

 32 34  0  0  1  0  0  0  0  0999 V2000
  192.4770  176.2430  138.4210 O   0  0  0  0  0  0  0  0  0  0  0  0
  193.7500  174.6380  137.2210 C   0  0  0  0  0  0  0  0  0  0  0  0
  194.6970  175.2630  136.2850 C   0  0  0  0  0  0  0  0  0  0  0  0
  190.6680  177.4400  139.4010 C   0  0  1  0  0  3  0  0  0  0  0  0
  189.4850  177.4920  137.1810 C   0  0  0  0  0  2  0  0  0  0  0  0
  196.4640  176.4940  134.4970 C   0  0  0  0  0  3  0  0  0  0  0  0
  188.8740  176.2310  136.5990 C   0  0  0  0  0  2  0  0  0  0  0  0
  189.5610  175.8480  135.2850 C   0  0  1  0  0  3  0  0  0  0  0  0
  191.8170  175.8820  136.1540 C   0  0  2  0  0  3  0  0  0  0  0  0
  196.9570  175.6470  135.4990 C   0  0  0  0  0  3  0  0  0  0  0  0
  189.3050  177.5150  138.6950 C   0  0  2  0  0  3  0  0  0  0  0  0
  196.0730  175.0310  136.3920 C   0  0  0  0  0  3  0  0  0  0  0  0
  190.5130  177.6610  140.7690 O   0  0  0  0  0  1  0  0  0  0  0  0
  190.7660  175.0290  135.5620 N   0  0  0  0  0  0  0  0  0  0  0  0
  192.8060  176.3870  135.1900 N   0  0  0  0  0  2  0  0  0  0  0  0
  191.3230  176.0810  139.1920 C   0  0  0  0  0  2  0  0  0  0  0  0
  194.0910  173.6370  137.9070 O   0  0  0  0  0  0  0  0  0  0  0  0
  195.0910  176.7310  134.3930 C   0  0  0  0  0  3  0  0  0  0  0  0
  192.4000  175.2620  137.4320 C   0  0  2  0  0  3  0  0  0  0  0  0
  194.2080  176.1170  135.2850 C   0  0  0  0  0  0  0  0  0  0  0  0
  187.2490  175.5890  134.7120 O   0  0  0  0  0  1  0  0  0  0  0  0
  188.5290  175.1060  134.4340 C   0  0  0  0  0  2  0  0  0  0  0  0
  191.5550  172.7520  134.8200 C   0  0  0  0  0  1  0  0  0  0  0  0
  191.2540  174.2010  134.4360 C   0  0  0  0  0  2  0  0  0  0  0  0
  188.6520  178.7020  139.0530 O   0  0  0  0  0  0  0  0  0  0  0  0
  187.3510  178.3140  139.3910 C   0  0  0  0  0  2  0  0  0  0  0  0
  187.1180  178.5590  140.8680 C   0  0  0  0  0  2  0  0  0  0  0  0
  185.6310  178.6970  141.1460 C   0  0  0  0  0  2  0  0  0  0  0  0
  185.3910  179.4470  142.4470 C   0  0  0  0  0  2  0  0  0  0  0  0
  184.9540  178.5240  143.5260 C   0  0  0  0  0  0  0  0  0  0  0  0
  183.6150  178.4570  143.8790 O   0  0  0  0  0  0  0  0  0  0  0  0
  185.8020  177.8160  144.1290 O   0  0  0  0  0  1  0  0  0  0  0  0
  1 16  1  0  0  0  0
  2 17  2  0  0  0  0
  3 12  1  0  0  0  0
  3  2  1  0  0  0  0
  4 13  1  1  0  0  0
  5 11  1  0  0  0  0
  6 10  1  0  0  0  0
  7  5  1  0  0  0  0
  8 22  1  6  0  0  0
  8 14  1  0  0  0  0
  8  7  1  0  0  0  0
  9 15  1  6  0  0  0
  9 19  1  0  0  0  0
 10 12  2  0  0  0  0
 11 25  1  6  0  0  0
 11  4  1  0  0  0  0
 14  9  1  0  0  0  0
 15 20  1  0  0  0  0
 16  4  1  0  0  0  0
 18  6  2  0  0  0  0
 18 20  1  0  0  0  0
 19  2  1  6  0  0  0
 19  1  1  0  0  0  0
 20  3  2  0  0  0  0
 22 21  1  0  0  0  0
 24 23  1  0  0  0  0
 24 14  1  0  0  0  0
 25 26  1  0  0  0  0
 26 27  1  0  0  0  0
 27 28  1  0  0  0  0
 28 29  1  0  0  0  0
 29 30  1  0  0  0  0
 30 31  2  0  0  0  0
 30 32  1  0  0  0  0
M  END
>  <MODEL>
9

>  <REMARK>
 VINA RESULT:      -5.1      2.556      5.476
  Name = 
  8 active torsions:
  status: ('A' for Active; 'I' for Inactive)
    1  A    between atoms: C_1  and  C_10
    2  A    between atoms: C_2  and  C_19
    3  A    between atoms: C_2  and  C_24
    4  A    between atoms: C_10  and  C_24
    5  A    between atoms: O_12  and  C_19
    6  A    between atoms: O_12  and  C_21
    7  A    between atoms: C_13  and  C_15
    8  A    between atoms: C_25  and  N_26
                            x       y       z     vdW  Elec       q    Type
                         _______ _______ _______ _____ _____    ______ ____

>  <TORSDO>
F 8

$$$$
