=
 OpenBabel10272400483D

 25 28  0  0  0  0  0  0  0  0999 V2000
  186.1100  178.2150  144.9670 C   0  0  0  0  0  0  0  0  0  0  0  0
  185.8900  177.8090  143.5460 C   0  0  0  0  0  0  0  0  0  0  0  0
  183.8630  179.0490  145.2530 C   0  0  0  0  0  3  0  0  0  0  0  0
  187.0700  177.9370  145.8280 C   0  0  0  0  0  0  0  0  0  0  0  0
  188.7300  177.5280  148.0090 C   0  0  0  0  0  3  0  0  0  0  0  0
  183.6810  178.9170  143.8260 N   0  0  0  0  0  0  0  0  0  0  0  0
  186.6480  178.3100  147.1010 C   0  0  0  0  0  0  0  0  0  0  0  0
  187.4690  178.1170  148.2110 C   0  0  0  0  0  3  0  0  0  0  0  0
  184.4270  178.4560  141.5660 C   0  0  0  0  0  0  0  0  0  0  0  0
  183.0820  178.5930  140.9390 C   0  0  0  0  0  1  0  0  0  0  0  0
  187.0170  178.1680  142.6820 N   0  0  0  0  0  2  0  0  0  0  0  0
  189.1430  177.1360  146.7190 C   0  0  0  0  0  3  0  0  0  0  0  0
  185.0450  178.7370  145.7740 C   0  0  0  0  0  0  0  0  0  0  0  0
  185.4410  178.7920  147.1420 N   0  0  0  0  0  0  0  0  0  0  0  0
  185.5200  178.4480  140.7980 C   0  0  0  0  0  3  0  0  0  0  0  0
  188.3060  177.3340  145.6090 C   0  0  0  0  0  3  0  0  0  0  0  0
  186.8700  178.3890  141.4040 C   0  0  0  0  0  0  0  0  0  0  0  0
  184.5890  178.4090  143.0270 C   0  0  0  0  0  0  0  0  0  0  0  0
  188.0350  178.6630  140.5610 C   0  0  0  0  0  3  0  0  0  0  0  0
  188.0250  178.3920  139.2960 N   0  0  0  0  0  0  0  0  0  0  0  0
  189.1880  178.6620  138.4640 C   0  0  0  0  0  2  0  0  0  0  0  0
  189.7180  177.3770  137.8400 C   0  0  0  0  0  2  0  0  0  0  0  0
  190.6150  176.6510  138.7840 C   0  0  0  0  0  0  0  0  0  0  0  0
  191.2440  177.3390  139.8130 O   0  0  0  0  0  1  0  0  0  0  0  0
  190.8190  175.4180  138.6380 O   0  0  0  0  0  0  0  0  0  0  0  0
  1 13  1  0  0  0  0
  1  4  1  0  0  0  0
  2  1  2  0  0  0  0
  3 13  1  0  0  0  0
  4  7  1  0  0  0  0
  5  8  1  0  0  0  0
  6  3  2  0  0  0  0
  7 14  1  0  0  0  0
  7  8  2  0  0  0  0
  9 18  2  0  0  0  0
 10  9  1  0  0  0  0
 11  2  1  0  0  0  0
 12  5  2  0  0  0  0
 13 14  2  0  0  0  0
 15 17  2  0  0  0  0
 15  9  1  0  0  0  0
 16  4  2  0  0  0  0
 16 12  1  0  0  0  0
 17 11  1  0  0  0  0
 18  2  1  0  0  0  0
 18  6  1  0  0  0  0
 19 17  1  0  0  0  0
 20 19  2  0  0  0  0
 21 20  1  0  0  0  0
 22 21  1  0  0  0  0
 22 23  1  0  0  0  0
 23 24  1  0  0  0  0
 25 23  2  0  0  0  0
M  END
>  <MODEL>
1

>  <REMARK>
 VINA RESULT:      -9.3      0.000      0.000
  Name = 
  4 active torsions:
  status: ('A' for Active; 'I' for Inactive)
    1  A    between atoms: C_2  and  C_25
    2  A    between atoms: C_6  and  C_23
    3  A    between atoms: N_15  and  C_21
    4  A    between atoms: C_21  and  C_25
                            x       y       z     vdW  Elec       q    Type
                         _______ _______ _______ _____ _____    ______ ____

>  <TORSDO>
F 4

$$$$
=
 OpenBabel10272400483D

 25 28  0  0  0  0  0  0  0  0999 V2000
  187.2820  177.9330  145.7980 C   0  0  0  0  0  0  0  0  0  0  0  0
  186.3950  177.6660  144.6270 C   0  0  0  0  0  0  0  0  0  0  0  0
  185.5010  178.8290  147.1570 C   0  0  0  0  0  3  0  0  0  0  0  0
  188.5080  177.5400  146.0880 C   0  0  0  0  0  0  0  0  0  0  0  0
  190.9560  176.8680  147.2020 C   0  0  0  0  0  3  0  0  0  0  0  0
  184.6660  178.8330  145.9790 N   0  0  0  0  0  0  0  0  0  0  0  0
  188.7590  177.8130  147.4300 C   0  0  0  0  0  0  0  0  0  0  0  0
  189.9840  177.4880  148.0090 C   0  0  0  0  0  3  0  0  0  0  0  0
  184.2340  178.5470  143.6110 C   0  0  0  0  0  0  0  0  0  0  0  0
  182.7670  178.7950  143.7000 C   0  0  0  0  0  1  0  0  0  0  0  0
  187.0140  178.0550  143.3570 N   0  0  0  0  0  2  0  0  0  0  0  0
  190.6870  176.5770  145.8480 C   0  0  0  0  0  3  0  0  0  0  0  0
  186.7610  178.4230  147.0420 C   0  0  0  0  0  0  0  0  0  0  0  0
  187.7520  178.3380  148.0620 N   0  0  0  0  0  0  0  0  0  0  0  0
  184.8380  178.5640  142.4200 C   0  0  0  0  0  3  0  0  0  0  0  0
  189.4480  176.9090  145.2760 C   0  0  0  0  0  3  0  0  0  0  0  0
  186.3060  178.3950  142.3150 C   0  0  0  0  0  0  0  0  0  0  0  0
  185.0540  178.3620  144.8180 C   0  0  0  0  0  0  0  0  0  0  0  0
  186.9610  178.6960  141.0410 C   0  0  0  0  0  3  0  0  0  0  0  0
  188.0660  178.1150  140.7010 N   0  0  0  0  0  0  0  0  0  0  0  0
  188.7150  178.4230  139.4360 C   0  0  0  0  0  2  0  0  0  0  0  0
  189.0760  177.1460  138.6880 C   0  0  0  0  0  2  0  0  0  0  0  0
  190.4080  176.6290  139.1150 C   0  0  0  0  0  0  0  0  0  0  0  0
  191.2480  177.4260  139.8800 O   0  0  0  0  0  1  0  0  0  0  0  0
  190.7800  175.4790  138.7670 O   0  0  0  0  0  0  0  0  0  0  0  0
  1  4  1  0  0  0  0
  1 13  1  0  0  0  0
  2 18  1  0  0  0  0
  2  1  2  0  0  0  0
  4  7  1  0  0  0  0
  5  8  1  0  0  0  0
  6  3  2  0  0  0  0
  7  8  2  0  0  0  0
  7 14  1  0  0  0  0
  9 10  1  0  0  0  0
  9 18  2  0  0  0  0
 11  2  1  0  0  0  0
 12  5  2  0  0  0  0
 13  3  1  0  0  0  0
 13 14  2  0  0  0  0
 15  9  1  0  0  0  0
 16 12  1  0  0  0  0
 16  4  2  0  0  0  0
 17 15  2  0  0  0  0
 17 11  1  0  0  0  0
 18  6  1  0  0  0  0
 19 17  1  0  0  0  0
 20 19  2  0  0  0  0
 21 20  1  0  0  0  0
 22 23  1  0  0  0  0
 22 21  1  0  0  0  0
 23 24  1  0  0  0  0
 25 23  2  0  0  0  0
M  END
>  <MODEL>
2

>  <REMARK>
 VINA RESULT:      -9.3      1.160      1.763
  Name = 
  4 active torsions:
  status: ('A' for Active; 'I' for Inactive)
    1  A    between atoms: C_2  and  C_25
    2  A    between atoms: C_6  and  C_23
    3  A    between atoms: N_15  and  C_21
    4  A    between atoms: C_21  and  C_25
                            x       y       z     vdW  Elec       q    Type
                         _______ _______ _______ _____ _____    ______ ____

>  <TORSDO>
F 4

$$$$
=
 OpenBabel10272400483D

 25 28  0  0  0  0  0  0  0  0999 V2000
  188.1940  177.5140  145.6360 C   0  0  0  0  0  0  0  0  0  0  0  0
  187.1830  177.3650  144.5470 C   0  0  0  0  0  0  0  0  0  0  0  0
  186.5900  178.3330  147.2420 C   0  0  0  0  0  3  0  0  0  0  0  0
  189.4300  177.0710  145.7630 C   0  0  0  0  0  0  0  0  0  0  0  0
  191.9580  176.2560  146.5570 C   0  0  0  0  0  3  0  0  0  0  0  0
  185.6380  178.4530  146.1630 N   0  0  0  0  0  0  0  0  0  0  0  0
  189.8250  177.2260  147.0890 C   0  0  0  0  0  0  0  0  0  0  0  0
  191.0930  176.8270  147.5090 C   0  0  0  0  0  3  0  0  0  0  0  0
  184.9570  178.3750  143.8370 C   0  0  0  0  0  0  0  0  0  0  0  0
  183.5150  178.6470  144.0990 C   0  0  0  0  0  1  0  0  0  0  0  0
  187.6800  177.8440  143.2550 N   0  0  0  0  0  2  0  0  0  0  0  0
  191.5430  176.0840  145.2200 C   0  0  0  0  0  3  0  0  0  0  0  0
  187.8180  177.9100  146.9630 C   0  0  0  0  0  0  0  0  0  0  0  0
  188.9050  177.7190  147.8640 N   0  0  0  0  0  0  0  0  0  0  0  0
  185.4360  178.4770  142.5950 C   0  0  0  0  0  3  0  0  0  0  0  0
  190.2620  176.4890  144.8100 C   0  0  0  0  0  3  0  0  0  0  0  0
  186.8800  178.2850  142.3230 C   0  0  0  0  0  0  0  0  0  0  0  0
  185.8910  178.0730  144.9330 C   0  0  0  0  0  0  0  0  0  0  0  0
  187.4100  178.6770  141.0160 C   0  0  0  0  0  3  0  0  0  0  0  0
  188.3820  178.0250  140.4640 N   0  0  0  0  0  0  0  0  0  0  0  0
  188.9070  178.4220  139.1660 C   0  0  0  0  0  2  0  0  0  0  0  0
  188.3520  177.5330  138.0610 C   0  0  0  0  0  2  0  0  0  0  0  0
  187.2790  178.2300  137.2950 C   0  0  0  0  0  0  0  0  0  0  0  0
  186.1010  177.5630  136.9880 O   0  0  0  0  0  1  0  0  0  0  0  0
  187.4470  179.4160  136.9110 O   0  0  0  0  0  0  0  0  0  0  0  0
  1  4  1  0  0  0  0
  1 13  1  0  0  0  0
  2 18  1  0  0  0  0
  2  1  2  0  0  0  0
  4  7  1  0  0  0  0
  5  8  1  0  0  0  0
  6  3  2  0  0  0  0
  7  8  2  0  0  0  0
  7 14  1  0  0  0  0
  9 10  1  0  0  0  0
  9 18  2  0  0  0  0
 11  2  1  0  0  0  0
 12  5  2  0  0  0  0
 13  3  1  0  0  0  0
 13 14  2  0  0  0  0
 15  9  1  0  0  0  0
 16 12  1  0  0  0  0
 16  4  2  0  0  0  0
 17 15  2  0  0  0  0
 17 11  1  0  0  0  0
 18  6  1  0  0  0  0
 19 17  1  0  0  0  0
 20 19  2  0  0  0  0
 21 20  1  0  0  0  0
 22 21  1  0  0  0  0
 23 22  1  0  0  0  0
 24 23  1  0  0  0  0
 25 23  2  0  0  0  0
M  END
>  <MODEL>
3

>  <REMARK>
 VINA RESULT:      -9.2      2.184      3.005
  Name = 
  4 active torsions:
  status: ('A' for Active; 'I' for Inactive)
    1  A    between atoms: C_2  and  C_25
    2  A    between atoms: C_6  and  C_23
    3  A    between atoms: N_15  and  C_21
    4  A    between atoms: C_21  and  C_25
                            x       y       z     vdW  Elec       q    Type
                         _______ _______ _______ _____ _____    ______ ____

>  <TORSDO>
F 4

$$$$
=
 OpenBabel10272400483D

 25 28  0  0  1  0  0  0  0  0999 V2000
  187.1480  177.9650  145.3940 C   0  0  0  0  0  0  0  0  0  0  0  0
  188.5670  178.0340  144.9350 C   0  0  2  0  0  3  0  0  0  0  0  0
  187.7280  177.2640  147.6290 C   0  0  0  0  0  3  0  0  0  0  0  0
  186.0250  178.4170  144.8690 C   0  0  0  0  0  0  0  0  0  0  0  0
  183.4640  179.2900  144.2660 C   0  0  0  0  0  3  0  0  0  0  0  0
  189.0820  177.0640  147.1660 N   0  0  0  0  0  0  0  0  0  0  0  0
  185.0250  178.3590  145.8370 C   0  0  0  0  0  0  0  0  0  0  0  0
  183.7300  178.7890  145.5530 C   0  0  0  0  0  3  0  0  0  0  0  0
  190.8170  176.9720  145.4760 C   0  0  0  0  0  0  0  0  0  0  0  0
  191.9340  176.7200  146.4280 C   0  0  0  0  0  1  0  0  0  0  0  0
  188.7500  177.4620  143.5980 N   0  0  0  0  0  0  0  0  0  0  0  0
  184.4870  179.3640  143.2970 C   0  0  0  0  0  3  0  0  0  0  0  0
  186.8100  177.6660  146.7560 C   0  0  0  0  0  0  0  0  0  0  0  0
  185.4290  177.9230  146.9930 N   0  0  0  0  0  0  0  0  0  0  0  0
  191.0040  176.7810  144.1670 C   0  0  0  0  0  3  0  0  0  0  0  0
  185.7880  178.9290  143.5950 C   0  0  0  0  0  3  0  0  0  0  0  0
  189.8870  176.9530  143.2100 C   0  0  0  0  0  0  0  0  0  0  0  0
  189.4780  177.3550  145.9490 C   0  0  0  0  0  0  0  0  0  0  0  0
  190.0520  176.4680  141.8380 C   0  0  0  0  0  3  0  0  0  0  0  0
  190.2740  177.2850  140.8600 N   0  0  0  0  0  0  0  0  0  0  0  0
  190.4320  176.7970  139.4990 C   0  0  0  0  0  2  0  0  0  0  0  0
  189.1140  176.8780  138.7380 C   0  0  0  0  0  2  0  0  0  0  0  0
  188.4970  178.2280  138.8700 C   0  0  0  0  0  0  0  0  0  0  0  0
  188.9860  179.2910  138.1220 O   0  0  0  0  0  0  0  0  0  0  0  0
  187.5460  178.4110  139.6720 O   0  0  0  0  0  1  0  0  0  0  0  0
  1 13  1  0  0  0  0
  2 11  1  6  0  0  0
  2  1  1  0  0  0  0
  2 18  1  0  0  0  0
  4  1  2  0  0  0  0
  4  7  1  0  0  0  0
  5  8  2  0  0  0  0
  6  3  1  0  0  0  0
  7 14  2  0  0  0  0
  8  7  1  0  0  0  0
  9 18  1  0  0  0  0
  9 10  1  0  0  0  0
 12 16  2  0  0  0  0
 12  5  1  0  0  0  0
 13 14  1  0  0  0  0
 13  3  2  0  0  0  0
 15  9  2  0  0  0  0
 16  4  1  0  0  0  0
 17 11  2  0  0  0  0
 17 15  1  0  0  0  0
 18  6  2  0  0  0  0
 19 17  1  0  0  0  0
 20 19  2  0  0  0  0
 21 20  1  0  0  0  0
 22 23  1  0  0  0  0
 22 21  1  0  0  0  0
 23 25  1  0  0  0  0
 24 23  2  0  0  0  0
M  END
>  <MODEL>
4

>  <REMARK>
 VINA RESULT:      -8.8      2.070      4.653
  Name = 
  4 active torsions:
  status: ('A' for Active; 'I' for Inactive)
    1  A    between atoms: C_2  and  C_25
    2  A    between atoms: C_6  and  C_23
    3  A    between atoms: N_15  and  C_21
    4  A    between atoms: C_21  and  C_25
                            x       y       z     vdW  Elec       q    Type
                         _______ _______ _______ _____ _____    ______ ____

>  <TORSDO>
F 4

$$$$
=
 OpenBabel10272400483D

 25 28  0  0  0  0  0  0  0  0999 V2000
  189.2160  177.5250  143.8490 C   0  0  0  0  0  0  0  0  0  0  0  0
  189.6190  178.0180  142.4980 C   0  0  0  0  0  0  0  0  0  0  0  0
  191.4040  176.6500  144.3680 C   0  0  0  0  0  3  0  0  0  0  0  0
  188.1530  177.7570  144.5950 C   0  0  0  0  0  0  0  0  0  0  0  0
  186.2240  178.0420  146.5660 C   0  0  0  0  0  3  0  0  0  0  0  0
  191.7700  176.8720  142.9890 N   0  0  0  0  0  0  0  0  0  0  0  0
  188.4050  177.2990  145.8860 C   0  0  0  0  0  0  0  0  0  0  0  0
  187.4480  177.4280  146.8900 C   0  0  0  0  0  3  0  0  0  0  0  0
  191.3240  177.4850  140.6860 C   0  0  0  0  0  0  0  0  0  0  0  0
  192.7380  177.3740  140.2300 C   0  0  0  0  0  1  0  0  0  0  0  0
  188.6120  177.7280  141.4750 N   0  0  0  0  0  2  0  0  0  0  0  0
  185.9830  178.5210  145.2620 C   0  0  0  0  0  3  0  0  0  0  0  0
  190.1650  176.9400  144.7520 C   0  0  0  0  0  0  0  0  0  0  0  0
  189.5950  176.8020  146.0500 N   0  0  0  0  0  0  0  0  0  0  0  0
  190.3400  177.5540  139.7850 C   0  0  0  0  0  3  0  0  0  0  0  0
  186.9570  178.3860  144.2580 C   0  0  0  0  0  3  0  0  0  0  0  0
  188.9230  177.5880  140.2150 C   0  0  0  0  0  0  0  0  0  0  0  0
  190.9740  177.4390  142.1140 C   0  0  0  0  0  0  0  0  0  0  0  0
  187.8770  177.3820  139.2120 C   0  0  0  0  0  3  0  0  0  0  0  0
  187.2120  178.3770  138.7210 N   0  0  0  0  0  0  0  0  0  0  0  0
  186.1700  178.1640  137.7280 C   0  0  0  0  0  2  0  0  0  0  0  0
  184.8210  177.9390  138.3990 C   0  0  0  0  0  2  0  0  0  0  0  0
  184.5510  178.9800  139.4310 C   0  0  0  0  0  0  0  0  0  0  0  0
  184.4220  180.3110  139.0580 O   0  0  0  0  0  0  0  0  0  0  0  0
  184.4580  178.6570  140.6440 O   0  0  0  0  0  1  0  0  0  0  0  0
  1  4  1  0  0  0  0
  1 13  1  0  0  0  0
  2  1  2  0  0  0  0
  3 13  1  0  0  0  0
  4  7  1  0  0  0  0
  5  8  1  0  0  0  0
  6  3  2  0  0  0  0
  7 14  1  0  0  0  0
  7  8  2  0  0  0  0
  9 18  2  0  0  0  0
 10  9  1  0  0  0  0
 11  2  1  0  0  0  0
 12  5  2  0  0  0  0
 13 14  2  0  0  0  0
 15 17  2  0  0  0  0
 15  9  1  0  0  0  0
 16  4  2  0  0  0  0
 16 12  1  0  0  0  0
 17 11  1  0  0  0  0
 18  2  1  0  0  0  0
 18  6  1  0  0  0  0
 19 17  1  0  0  0  0
 20 19  2  0  0  0  0
 21 22  1  0  0  0  0
 21 20  1  0  0  0  0
 22 23  1  0  0  0  0
 23 25  1  0  0  0  0
 24 23  2  0  0  0  0
M  END
>  <MODEL>
5

>  <REMARK>
 VINA RESULT:      -8.4      3.067      5.162
  Name = 
  4 active torsions:
  status: ('A' for Active; 'I' for Inactive)
    1  A    between atoms: C_2  and  C_25
    2  A    between atoms: C_6  and  C_23
    3  A    between atoms: N_15  and  C_21
    4  A    between atoms: C_21  and  C_25
                            x       y       z     vdW  Elec       q    Type
                         _______ _______ _______ _____ _____    ______ ____

>  <TORSDO>
F 4

$$$$
=
 OpenBabel10272400483D

 25 28  0  0  1  0  0  0  0  0999 V2000
  189.6070  177.3870  143.7450 C   0  0  0  0  0  0  0  0  0  0  0  0
  188.4890  177.1290  144.7010 C   0  0  2  0  0  3  0  0  0  0  0  0
  191.3110  177.2990  145.4510 C   0  0  0  0  0  3  0  0  0  0  0  0
  189.6680  177.3620  142.4270 C   0  0  0  0  0  0  0  0  0  0  0  0
  190.3340  177.2890  139.7380 C   0  0  0  0  0  3  0  0  0  0  0  0
  190.2580  177.3070  146.4390 N   0  0  0  0  0  0  0  0  0  0  0  0
  191.0060  177.3760  142.0430 C   0  0  0  0  0  0  0  0  0  0  0  0
  191.3630  177.3450  140.6950 C   0  0  0  0  0  3  0  0  0  0  0  0
  187.9510  177.4650  147.1660 C   0  0  0  0  0  0  0  0  0  0  0  0
  188.2320  177.1880  148.6030 C   0  0  0  0  0  1  0  0  0  0  0  0
  187.3300  177.9890  144.4500 N   0  0  0  0  0  0  0  0  0  0  0  0
  188.9820  177.2560  140.1360 C   0  0  0  0  0  3  0  0  0  0  0  0
  190.9780  177.3690  144.1660 C   0  0  0  0  0  0  0  0  0  0  0  0
  191.8450  177.3750  143.0360 N   0  0  0  0  0  0  0  0  0  0  0  0
  186.7650  177.9610  146.8060 C   0  0  0  0  0  3  0  0  0  0  0  0
  188.6350  177.2870  141.4960 C   0  0  0  0  0  3  0  0  0  0  0  0
  186.4890  178.3140  145.3940 C   0  0  0  0  0  0  0  0  0  0  0  0
  188.9830  177.2800  146.1340 C   0  0  0  0  0  0  0  0  0  0  0  0
  185.2980  179.1070  145.0840 C   0  0  0  0  0  3  0  0  0  0  0  0
  184.5590  178.8330  144.0580 N   0  0  0  0  0  0  0  0  0  0  0  0
  183.3790  179.6280  143.7530 C   0  0  0  0  0  2  0  0  0  0  0  0
  182.1140  178.7890  143.8760 C   0  0  0  0  0  2  0  0  0  0  0  0
  181.1210  179.1530  142.8240 C   0  0  0  0  0  0  0  0  0  0  0  0
  180.3470  180.2960  142.9670 O   0  0  0  0  0  1  0  0  0  0  0  0
  180.9710  178.4150  141.8160 O   0  0  0  0  0  0  0  0  0  0  0  0
  1 13  1  0  0  0  0
  2  1  1  6  0  0  0
  2 18  1  0  0  0  0
  3  6  1  0  0  0  0
  4  1  2  0  0  0  0
  5 12  1  0  0  0  0
  5  8  2  0  0  0  0
  7  4  1  0  0  0  0
  7 14  2  0  0  0  0
  8  7  1  0  0  0  0
  9 10  1  0  0  0  0
 11  2  1  0  0  0  0
 11 17  2  0  0  0  0
 12 16  2  0  0  0  0
 13  3  2  0  0  0  0
 14 13  1  0  0  0  0
 15  9  2  0  0  0  0
 16  4  1  0  0  0  0
 17 15  1  0  0  0  0
 18  6  2  0  0  0  0
 18  9  1  0  0  0  0
 19 17  1  0  0  0  0
 20 19  2  0  0  0  0
 21 22  1  0  0  0  0
 21 20  1  0  0  0  0
 23 24  1  0  0  0  0
 23 22  1  0  0  0  0
 25 23  2  0  0  0  0
M  END
>  <MODEL>
6

>  <REMARK>
 VINA RESULT:      -8.4      3.867      7.236
  Name = 
  4 active torsions:
  status: ('A' for Active; 'I' for Inactive)
    1  A    between atoms: C_2  and  C_25
    2  A    between atoms: C_6  and  C_23
    3  A    between atoms: N_15  and  C_21
    4  A    between atoms: C_21  and  C_25
                            x       y       z     vdW  Elec       q    Type
                         _______ _______ _______ _____ _____    ______ ____

>  <TORSDO>
F 4

$$$$
=
 OpenBabel10272400483D

 25 28  0  0  0  0  0  0  0  0999 V2000
  187.7410  177.6400  145.0230 C   0  0  0  0  0  0  0  0  0  0  0  0
  186.4700  177.5010  144.2510 C   0  0  0  0  0  0  0  0  0  0  0  0
  186.6430  178.4830  147.0000 C   0  0  0  0  0  3  0  0  0  0  0  0
  188.9600  177.1840  144.8110 C   0  0  0  0  0  0  0  0  0  0  0  0
  191.5990  176.3410  144.8910 C   0  0  0  0  0  3  0  0  0  0  0  0
  185.4350  178.6120  146.2200 N   0  0  0  0  0  0  0  0  0  0  0  0
  189.7030  177.3380  145.9780 C   0  0  0  0  0  0  0  0  0  0  0  0
  191.0330  176.9250  146.0390 C   0  0  0  0  0  3  0  0  0  0  0  0
  184.1460  178.5350  144.1680 C   0  0  0  0  0  0  0  0  0  0  0  0
  182.8330  178.8240  144.8110 C   0  0  0  0  0  1  0  0  0  0  0  0
  186.6010  177.9700  142.8690 N   0  0  0  0  0  2  0  0  0  0  0  0
  190.8350  176.1700  143.7190 C   0  0  0  0  0  3  0  0  0  0  0  0
  187.7450  178.0450  146.3990 C   0  0  0  0  0  0  0  0  0  0  0  0
  189.0340  177.8430  146.9710 N   0  0  0  0  0  0  0  0  0  0  0  0
  184.2700  178.6280  142.8420 C   0  0  0  0  0  3  0  0  0  0  0  0
  189.4950  176.5890  143.6700 C   0  0  0  0  0  3  0  0  0  0  0  0
  185.5830  178.4190  142.1880 C   0  0  0  0  0  0  0  0  0  0  0  0
  185.3390  178.2250  144.9700 C   0  0  0  0  0  0  0  0  0  0  0  0
  185.7400  178.8000  140.7840 C   0  0  0  0  0  3  0  0  0  0  0  0
  184.9000  178.4060  139.8830 N   0  0  0  0  0  0  0  0  0  0  0  0
  185.0650  178.7840  138.4880 C   0  0  0  0  0  2  0  0  0  0  0  0
  186.2450  178.0500  137.8630 C   0  0  0  0  0  2  0  0  0  0  0  0
  185.8050  177.1870  136.7310 C   0  0  0  0  0  0  0  0  0  0  0  0
  186.3130  177.4010  135.4570 O   0  0  0  0  0  0  0  0  0  0  0  0
  184.9590  176.2760  136.9230 O   0  0  0  0  0  1  0  0  0  0  0  0
  1 13  1  0  0  0  0
  2 18  1  0  0  0  0
  2  1  2  0  0  0  0
  4  1  1  0  0  0  0
  4  7  1  0  0  0  0
  5  8  1  0  0  0  0
  6  3  2  0  0  0  0
  7  8  2  0  0  0  0
  7 14  1  0  0  0  0
  9 10  1  0  0  0  0
  9 18  2  0  0  0  0
 11  2  1  0  0  0  0
 12  5  2  0  0  0  0
 13 14  2  0  0  0  0
 13  3  1  0  0  0  0
 15  9  1  0  0  0  0
 16 12  1  0  0  0  0
 16  4  2  0  0  0  0
 17 15  2  0  0  0  0
 17 11  1  0  0  0  0
 18  6  1  0  0  0  0
 19 17  1  0  0  0  0
 20 19  2  0  0  0  0
 21 20  1  0  0  0  0
 22 21  1  0  0  0  0
 23 25  1  0  0  0  0
 23 22  1  0  0  0  0
 24 23  2  0  0  0  0
M  END
>  <MODEL>
7

>  <REMARK>
 VINA RESULT:      -8.3      2.608      3.509
  Name = 
  4 active torsions:
  status: ('A' for Active; 'I' for Inactive)
    1  A    between atoms: C_2  and  C_25
    2  A    between atoms: C_6  and  C_23
    3  A    between atoms: N_15  and  C_21
    4  A    between atoms: C_21  and  C_25
                            x       y       z     vdW  Elec       q    Type
                         _______ _______ _______ _____ _____    ______ ____

>  <TORSDO>
F 4

$$$$
=
 OpenBabel10272400483D

 25 28  0  0  1  0  0  0  0  0999 V2000
  184.0370  178.6890  142.5130 C   0  0  0  0  0  0  0  0  0  0  0  0
  185.2040  178.8770  143.4260 C   0  0  2  0  0  3  0  0  0  0  0  0
  182.4070  178.8740  144.2820 C   0  0  0  0  0  3  0  0  0  0  0  0
  183.9280  178.7210  141.1980 C   0  0  0  0  0  0  0  0  0  0  0  0
  183.1660  178.8400  138.5360 C   0  0  0  0  0  3  0  0  0  0  0  0
  183.4940  178.8010  145.2300 N   0  0  0  0  0  0  0  0  0  0  0  0
  182.5780  178.7870  140.8650 C   0  0  0  0  0  0  0  0  0  0  0  0
  182.1720  178.8430  139.5320 C   0  0  0  0  0  3  0  0  0  0  0  0
  185.8140  178.5030  145.8690 C   0  0  0  0  0  0  0  0  0  0  0  0
  185.6050  178.7930  147.3150 C   0  0  0  0  0  1  0  0  0  0  0  0
  186.2990  177.9510  143.1310 N   0  0  0  0  0  0  0  0  0  0  0  0
  184.5320  178.7920  138.8820 C   0  0  0  0  0  3  0  0  0  0  0  0
  182.6860  178.7870  142.9860 C   0  0  0  0  0  0  0  0  0  0  0  0
  181.7790  178.8350  141.8890 N   0  0  0  0  0  0  0  0  0  0  0  0
  186.9540  177.9390  145.4630 C   0  0  0  0  0  3  0  0  0  0  0  0
  184.9280  178.7370  140.2290 C   0  0  0  0  0  3  0  0  0  0  0  0
  187.1540  177.5730  144.0420 C   0  0  0  0  0  0  0  0  0  0  0  0
  184.7570  178.7530  144.8770 C   0  0  0  0  0  0  0  0  0  0  0  0
  188.2830  176.7120  143.6870 C   0  0  0  0  0  3  0  0  0  0  0  0
  189.1620  177.0850  142.8140 N   0  0  0  0  0  0  0  0  0  0  0  0
  190.2800  176.2210  142.4620 C   0  0  0  0  0  2  0  0  0  0  0  0
  191.6080  176.9270  142.7060 C   0  0  0  0  0  2  0  0  0  0  0  0
  191.6120  177.6280  144.0210 C   0  0  0  0  0  0  0  0  0  0  0  0
  191.5870  176.8940  145.1990 O   0  0  0  0  0  1  0  0  0  0  0  0
  191.6190  178.8850  144.0670 O   0  0  0  0  0  0  0  0  0  0  0  0
  1 13  1  0  0  0  0
  2  1  1  6  0  0  0
  2 18  1  0  0  0  0
  3  6  1  0  0  0  0
  4  1  2  0  0  0  0
  5 12  1  0  0  0  0
  5  8  2  0  0  0  0
  7  4  1  0  0  0  0
  7 14  2  0  0  0  0
  8  7  1  0  0  0  0
  9 10  1  0  0  0  0
 11  2  1  0  0  0  0
 11 17  2  0  0  0  0
 12 16  2  0  0  0  0
 13  3  2  0  0  0  0
 14 13  1  0  0  0  0
 15  9  2  0  0  0  0
 16  4  1  0  0  0  0
 17 15  1  0  0  0  0
 18  6  2  0  0  0  0
 18  9  1  0  0  0  0
 19 17  1  0  0  0  0
 20 19  2  0  0  0  0
 21 22  1  0  0  0  0
 21 20  1  0  0  0  0
 22 23  1  0  0  0  0
 23 25  2  0  0  0  0
 23 24  1  0  0  0  0
M  END
>  <MODEL>
8

>  <REMARK>
 VINA RESULT:      -8.2      2.780      5.648
  Name = 
  4 active torsions:
  status: ('A' for Active; 'I' for Inactive)
    1  A    between atoms: C_2  and  C_25
    2  A    between atoms: C_6  and  C_23
    3  A    between atoms: N_15  and  C_21
    4  A    between atoms: C_21  and  C_25
                            x       y       z     vdW  Elec       q    Type
                         _______ _______ _______ _____ _____    ______ ____

>  <TORSDO>
F 4

$$$$
=
 OpenBabel10272400483D

 25 28  0  0  1  0  0  0  0  0999 V2000
  189.6770  177.4270  142.8760 C   0  0  0  0  0  0  0  0  0  0  0  0
  188.4380  177.1130  143.6480 C   0  0  2  0  0  3  0  0  0  0  0  0
  191.0070  177.8280  144.8500 C   0  0  0  0  0  3  0  0  0  0  0  0
  190.0010  177.2480  141.6100 C   0  0  0  0  0  0  0  0  0  0  0  0
  191.1890  176.9490  139.1230 C   0  0  0  0  0  3  0  0  0  0  0  0
  189.7870  177.7890  145.6230 N   0  0  0  0  0  0  0  0  0  0  0  0
  191.3740  177.4290  141.4700 C   0  0  0  0  0  0  0  0  0  0  0  0
  191.9910  177.2880  140.2280 C   0  0  0  0  0  3  0  0  0  0  0  0
  187.3820  177.6630  145.8980 C   0  0  0  0  0  0  0  0  0  0  0  0
  187.4080  177.6160  147.3870 C   0  0  0  0  0  1  0  0  0  0  0  0
  187.2460  177.7370  143.0670 N   0  0  0  0  0  0  0  0  0  0  0  0
  189.8020  176.7480  139.2760 C   0  0  0  0  0  3  0  0  0  0  0  0
  190.9280  177.6830  143.5310 C   0  0  0  0  0  0  0  0  0  0  0  0
  191.9920  177.6880  142.5840 N   0  0  0  0  0  0  0  0  0  0  0  0
  186.2350  177.9130  145.2620 C   0  0  0  0  0  3  0  0  0  0  0  0
  189.1910  176.8920  140.5330 C   0  0  0  0  0  3  0  0  0  0  0  0
  186.1990  178.0380  143.7860 C   0  0  0  0  0  0  0  0  0  0  0  0
  188.6130  177.5190  145.1050 C   0  0  0  0  0  0  0  0  0  0  0  0
  184.9970  178.5840  143.1530 C   0  0  0  0  0  3  0  0  0  0  0  0
  184.5380  178.0900  142.0490 N   0  0  0  0  0  0  0  0  0  0  0  0
  183.3460  178.6410  141.4220 C   0  0  0  0  0  2  0  0  0  0  0  0
  183.3230  178.3250  139.9320 C   0  0  0  0  0  2  0  0  0  0  0  0
  184.4240  179.0290  139.2140 C   0  0  0  0  0  0  0  0  0  0  0  0
  185.4010  178.2970  138.5540 O   0  0  0  0  0  0  0  0  0  0  0  0
  184.4800  180.2860  139.2210 O   0  0  0  0  0  1  0  0  0  0  0  0
  1 13  1  0  0  0  0
  2  1  1  6  0  0  0
  2 18  1  0  0  0  0
  3  6  1  0  0  0  0
  4  1  2  0  0  0  0
  5 12  1  0  0  0  0
  5  8  2  0  0  0  0
  7  4  1  0  0  0  0
  7 14  2  0  0  0  0
  8  7  1  0  0  0  0
  9 10  1  0  0  0  0
 11  2  1  0  0  0  0
 11 17  2  0  0  0  0
 12 16  2  0  0  0  0
 13  3  2  0  0  0  0
 14 13  1  0  0  0  0
 15  9  2  0  0  0  0
 16  4  1  0  0  0  0
 17 15  1  0  0  0  0
 18  6  2  0  0  0  0
 18  9  1  0  0  0  0
 19 17  1  0  0  0  0
 20 19  2  0  0  0  0
 21 20  1  0  0  0  0
 22 21  1  0  0  0  0
 23 25  1  0  0  0  0
 23 22  1  0  0  0  0
 24 23  2  0  0  0  0
M  END
>  <MODEL>
9

>  <REMARK>
 VINA RESULT:      -8.2      2.850      6.220
  Name = 
  4 active torsions:
  status: ('A' for Active; 'I' for Inactive)
    1  A    between atoms: C_2  and  C_25
    2  A    between atoms: C_6  and  C_23
    3  A    between atoms: N_15  and  C_21
    4  A    between atoms: C_21  and  C_25
                            x       y       z     vdW  Elec       q    Type
                         _______ _______ _______ _____ _____    ______ ____

>  <TORSDO>
F 4

$$$$
