=
 OpenBabel10272415283D

 34 39  0  0  1  0  0  0  0  0999 V2000
  189.6000  174.5860  137.1360 C   0  0  1  0  0  3  0  0  0  0  0  0
  192.6490  174.4230  134.8390 C   0  0  0  0  0  2  0  0  0  0  0  0
  190.0790  176.8960  138.2330 C   0  0  2  0  0  3  0  0  0  0  0  0
  190.2780  174.2100  134.3460 C   0  0  0  0  0  2  0  0  0  0  0  0
  187.7530  178.7920  138.1010 C   0  0  0  0  0  2  0  0  0  0  0  0
  189.8350  178.0930  142.4320 C   0  0  0  0  0  0  0  0  0  0  0  0
  187.9710  176.3950  137.2530 C   0  0  2  0  0  3  0  0  0  0  0  0
  189.0900  175.7450  138.0270 C   0  0  1  0  0  3  0  0  0  0  0  0
  191.0170  177.3760  141.9280 C   0  0  0  0  0  0  0  0  0  0  0  0
  190.9930  176.7710  140.5560 C   0  0  0  0  0  2  0  0  0  0  0  0
  189.8290  178.5830  143.5920 O   0  0  0  0  0  0  0  0  0  0  0  0
  190.0290  177.5190  139.6340 C   0  0  2  0  0  3  0  0  0  0  0  0
  187.9460  175.7010  135.9100 C   0  0  2  0  0  3  0  0  0  0  0  0
  186.6240  175.5570  135.4860 O   0  0  0  0  0  1  0  0  0  0  0  0
  188.9150  173.7760  134.8480 C   0  0  2  0  0  3  0  0  0  0  0  0
  188.5430  174.3930  136.1230 N   0  0  1  0  0  0  0  0  0  0  0  0
  192.0340  177.2300  142.6560 O   0  0  0  0  0  0  0  0  0  0  0  0
  193.7930  173.7980  135.6250 C   0  0  0  0  0  2  0  0  0  0  0  0
  194.2470  174.6510  136.8170 C   0  0  2  0  0  3  0  0  0  0  0  0
  188.6260  177.5940  140.2850 C   0  0  2  0  0  3  0  0  0  0  0  0
  193.1290  175.3470  137.6000 C   0  0  0  0  0  2  0  0  0  0  0  0
  187.4500  178.1710  139.4730 C   0  0  0  0  0  2  0  0  0  0  0  0
  188.7000  178.2620  141.5800 N   0  0  0  0  0  2  0  0  0  0  0  0
  188.4210  177.8410  137.0960 C   0  0  2  0  0  3  0  0  0  0  0  0
  189.8090  177.8860  137.2780 O   0  0  0  0  0  0  0  0  0  0  0  0
  191.2990  174.0230  135.4380 C   0  0  2  0  0  3  0  0  0  0  0  0
  191.8690  174.5000  137.6820 C   0  0  0  0  0  2  0  0  0  0  0  0
  190.9550  174.8610  136.5960 N   0  0  2  0  0  0  0  0  0  0  0  0
  195.2890  175.6380  136.4050 C   0  0  0  0  0  0  0  0  0  0  0  0
  196.5060  175.3590  136.5610 O   0  0  0  0  0  0  0  0  0  0  0  0
  194.9190  176.8890  135.8330 N   0  0  0  0  0  1  0  0  0  0  0  0
  187.9120  171.7780  136.0880 C   0  0  0  0  0  1  0  0  0  0  0  0
  188.6660  172.2600  134.8580 C   0  0  0  0  0  3  0  0  0  0  0  0
  189.9630  171.4880  134.7030 C   0  0  0  0  0  1  0  0  0  0  0  0
  1  8  1  0  0  0  0
  2 26  1  0  0  0  0
  2 18  1  0  0  0  0
  3 12  1  0  0  0  0
  4 15  1  0  0  0  0
  4 26  1  0  0  0  0
  5 22  1  0  0  0  0
  6 11  2  0  0  0  0
  7  8  1  0  0  0  0
  8  3  1  0  0  0  0
  9  6  1  0  0  0  0
  9 17  2  0  0  0  0
 10  9  1  0  0  0  0
 12 20  1  0  0  0  0
 12 10  1  0  0  0  0
 13 16  1  0  0  0  0
 13  7  1  0  0  0  0
 14 13  1  0  0  0  0
 15 33  1  0  0  0  0
 15 16  1  0  0  0  0
 16  1  1  0  0  0  0
 18 19  1  0  0  0  0
 19 21  1  0  0  0  0
 20 23  1  0  0  0  0
 21 27  1  0  0  0  0
 22 20  1  0  0  0  0
 23  6  1  0  0  0  0
 24  7  1  0  0  0  0
 24 25  1  0  0  0  0
 24  5  1  0  0  0  0
 25  3  1  0  0  0  0
 26 28  1  0  0  0  0
 28  1  1  0  0  0  0
 28 27  1  0  0  0  0
 29 30  2  0  0  0  0
 29 19  1  0  0  0  0
 31 29  1  0  0  0  0
 33 32  1  0  0  0  0
 34 33  1  0  0  0  0
M  END
>  <MODEL>
1

>  <REMARK>
 VINA RESULT:      -6.6      0.000      0.000
  Name = 
  2 active torsions:
  status: ('A' for Active; 'I' for Inactive)
    1  A    between atoms: C_3  and  C_25
    2  A    between atoms: C_12  and  C_19
                            x       y       z     vdW  Elec       q    Type
                         _______ _______ _______ _____ _____    ______ ____

>  <TORSDO>
F 2

$$$$
=
 OpenBabel10272415283D

 34 39  0  0  1  0  0  0  0  0999 V2000
  182.9970  178.8530  138.8340 C   0  0  1  0  0  3  0  0  0  0  0  0
  183.2320  178.2590  142.6000 C   0  0  0  0  0  2  0  0  0  0  0  0
  184.8250  177.1650  138.0730 C   0  0  2  0  0  3  0  0  0  0  0  0
  181.3260  178.1590  141.0950 C   0  0  0  0  0  2  0  0  0  0  0  0
  183.8900  175.2610  135.9470 C   0  0  0  0  0  2  0  0  0  0  0  0
  188.0320  177.6640  135.1410 C   0  0  0  0  0  0  0  0  0  0  0  0
  182.6470  177.1550  137.1200 C   0  0  2  0  0  3  0  0  0  0  0  0
  183.6850  178.1030  137.6670 C   0  0  1  0  0  3  0  0  0  0  0  0
  188.1830  178.1850  136.5090 C   0  0  0  0  0  0  0  0  0  0  0  0
  187.0020  178.2140  137.4300 C   0  0  0  0  0  2  0  0  0  0  0  0
  189.0090  177.6560  134.3460 O   0  0  0  0  0  0  0  0  0  0  0  0
  185.9880  177.1270  137.0730 C   0  0  2  0  0  3  0  0  0  0  0  0
  181.4540  177.2780  138.0430 C   0  0  2  0  0  3  0  0  0  0  0  0
  180.2790  177.1880  137.2960 O   0  0  0  0  0  1  0  0  0  0  0  0
  180.6850  178.6900  139.8280 C   0  0  2  0  0  3  0  0  0  0  0  0
  181.5540  178.5940  138.6530 N   0  0  1  0  0  0  0  0  0  0  0  0
  189.2900  178.6440  136.8990 O   0  0  0  0  0  0  0  0  0  0  0  0
  184.3020  179.1890  143.1540 C   0  0  0  0  0  2  0  0  0  0  0  0
  185.7080  178.8800  142.6220 C   0  0  2  0  0  3  0  0  0  0  0  0
  185.5920  177.2430  135.5800 C   0  0  2  0  0  3  0  0  0  0  0  0
  185.7870  178.4880  141.1430 C   0  0  0  0  0  2  0  0  0  0  0  0
  184.4680  176.3460  135.0270 C   0  0  0  0  0  2  0  0  0  0  0  0
  186.7730  177.1280  134.7300 N   0  0  0  0  0  2  0  0  0  0  0  0
  183.2880  175.7820  137.2610 C   0  0  2  0  0  3  0  0  0  0  0  0
  184.3020  175.8730  138.2230 O   0  0  0  0  0  0  0  0  0  0  0  0
  182.6780  178.7970  141.2800 C   0  0  2  0  0  3  0  0  0  0  0  0
  184.7790  179.2440  140.2920 C   0  0  0  0  0  2  0  0  0  0  0  0
  183.5540  178.4530  140.1500 N   0  0  2  0  0  0  0  0  0  0  0  0
  186.3920  177.8600  143.4700 C   0  0  0  0  0  0  0  0  0  0  0  0
  186.0010  177.6680  144.6510 O   0  0  0  0  0  0  0  0  0  0  0  0
  187.4780  177.0960  142.9530 N   0  0  0  0  0  1  0  0  0  0  0  0
  180.7230  181.1360  139.0880 C   0  0  0  0  0  1  0  0  0  0  0  0
  180.0420  180.0810  139.9450 C   0  0  0  0  0  3  0  0  0  0  0  0
  179.9820  180.5390  141.3900 C   0  0  0  0  0  1  0  0  0  0  0  0
  1 28  1  0  0  0  0
  2 18  1  0  0  0  0
  3 25  1  0  0  0  0
  4 26  1  0  0  0  0
  5 24  1  0  0  0  0
  6  9  1  0  0  0  0
  7 24  1  0  0  0  0
  7  8  1  0  0  0  0
  7 13  1  0  0  0  0
  8  3  1  0  0  0  0
  8  1  1  0  0  0  0
  9 17  2  0  0  0  0
  9 10  1  0  0  0  0
 11  6  2  0  0  0  0
 12 10  1  0  0  0  0
 12  3  1  0  0  0  0
 13 16  1  0  0  0  0
 14 13  1  0  0  0  0
 15 33  1  0  0  0  0
 15  4  1  0  0  0  0
 16  1  1  0  0  0  0
 16 15  1  0  0  0  0
 19 18  1  0  0  0  0
 19 29  1  0  0  0  0
 20 12  1  0  0  0  0
 21 19  1  0  0  0  0
 22 20  1  0  0  0  0
 22  5  1  0  0  0  0
 23  6  1  0  0  0  0
 23 20  1  0  0  0  0
 24 25  1  0  0  0  0
 26  2  1  0  0  0  0
 27 21  1  0  0  0  0
 28 27  1  0  0  0  0
 28 26  1  0  0  0  0
 29 30  2  0  0  0  0
 31 29  1  0  0  0  0
 32 33  1  0  0  0  0
 33 34  1  0  0  0  0
M  END
>  <MODEL>
2

>  <REMARK>
 VINA RESULT:      -6.5      4.801      9.171
  Name = 
  2 active torsions:
  status: ('A' for Active; 'I' for Inactive)
    1  A    between atoms: C_3  and  C_25
    2  A    between atoms: C_12  and  C_19
                            x       y       z     vdW  Elec       q    Type
                         _______ _______ _______ _____ _____    ______ ____

>  <TORSDO>
F 2

$$$$
=
 OpenBabel10272415283D

 34 39  0  0  1  0  0  0  0  0999 V2000
  189.7630  175.9090  138.9360 C   0  0  1  0  0  3  0  0  0  0  0  0
  187.1250  178.4040  137.7490 C   0  0  0  0  0  2  0  0  0  0  0  0
  190.7630  175.2890  136.6160 C   0  0  2  0  0  3  0  0  0  0  0  0
  188.9040  178.6370  139.3890 C   0  0  0  0  0  2  0  0  0  0  0  0
  193.7530  175.5460  136.4910 C   0  0  0  0  0  2  0  0  0  0  0  0
  191.7970  171.3640  134.9850 C   0  0  0  0  0  0  0  0  0  0  0  0
  192.1460  175.9700  138.4260 C   0  0  2  0  0  3  0  0  0  0  0  0
  190.8830  175.1960  138.1400 C   0  0  1  0  0  3  0  0  0  0  0  0
  190.4040  171.8370  134.9660 C   0  0  0  0  0  0  0  0  0  0  0  0
  190.0250  173.0710  135.7280 C   0  0  0  0  0  2  0  0  0  0  0  0
  192.1270  170.3150  134.3720 O   0  0  0  0  0  0  0  0  0  0  0  0
  191.2140  174.0220  135.8760 C   0  0  2  0  0  3  0  0  0  0  0  0
  191.7160  177.1610  139.2540 C   0  0  2  0  0  3  0  0  0  0  0  0
  192.6890  177.4310  140.2170 O   0  0  0  0  0  1  0  0  0  0  0  0
  189.7700  177.9450  140.4240 C   0  0  2  0  0  3  0  0  0  0  0  0
  190.4740  176.7720  139.9010 N   0  0  1  0  0  0  0  0  0  0  0  0
  189.5180  171.1890  134.3480 O   0  0  0  0  0  0  0  0  0  0  0  0
  185.8570  177.6250  137.4260 C   0  0  0  0  0  2  0  0  0  0  0  0
  186.0280  176.6500  136.2530 C   0  0  2  0  0  3  0  0  0  0  0  0
  192.4160  173.2720  136.5020 C   0  0  2  0  0  3  0  0  0  0  0  0
  187.3660  175.9070  136.1970 C   0  0  0  0  0  2  0  0  0  0  0  0
  193.6790  174.0650  136.8870 C   0  0  0  0  0  2  0  0  0  0  0  0
  192.7880  172.1280  135.6760 N   0  0  0  0  0  2  0  0  0  0  0  0
  192.6230  176.4220  137.0540 C   0  0  2  0  0  3  0  0  0  0  0  0
  191.5310  176.3760  136.1780 O   0  0  0  0  0  0  0  0  0  0  0  0
  188.0020  177.6250  138.7300 C   0  0  2  0  0  3  0  0  0  0  0  0
  187.8930  175.5620  137.5810 C   0  0  0  0  0  2  0  0  0  0  0  0
  188.8090  176.6090  138.0390 N   0  0  2  0  0  0  0  0  0  0  0  0
  185.7480  177.3230  134.9500 C   0  0  0  0  0  0  0  0  0  0  0  0
  184.6440  177.1330  134.3760 O   0  0  0  0  0  0  0  0  0  0  0  0
  186.7160  178.1820  134.3540 N   0  0  0  0  0  1  0  0  0  0  0  0
  187.7840  178.4060  141.9660 C   0  0  0  0  0  1  0  0  0  0  0  0
  189.0840  177.6430  141.7650 C   0  0  0  0  0  3  0  0  0  0  0  0
  190.0230  177.8920  142.9310 C   0  0  0  0  0  1  0  0  0  0  0  0
  1 16  1  0  0  0  0
  2 26  1  0  0  0  0
  3  8  1  0  0  0  0
  4 15  1  0  0  0  0
  5 22  1  0  0  0  0
  5 24  1  0  0  0  0
  6 23  1  0  0  0  0
  7 13  1  0  0  0  0
  8  7  1  0  0  0  0
  8  1  1  0  0  0  0
  9  6  1  0  0  0  0
  9 10  1  0  0  0  0
 10 12  1  0  0  0  0
 11  6  2  0  0  0  0
 12 20  1  0  0  0  0
 12  3  1  0  0  0  0
 13 16  1  0  0  0  0
 13 14  1  0  0  0  0
 15 33  1  0  0  0  0
 16 15  1  0  0  0  0
 17  9  2  0  0  0  0
 18  2  1  0  0  0  0
 19 18  1  0  0  0  0
 20 22  1  0  0  0  0
 21 19  1  0  0  0  0
 21 27  1  0  0  0  0
 23 20  1  0  0  0  0
 24  7  1  0  0  0  0
 25  3  1  0  0  0  0
 25 24  1  0  0  0  0
 26  4  1  0  0  0  0
 27 28  1  0  0  0  0
 28 26  1  0  0  0  0
 28  1  1  0  0  0  0
 29 19  1  0  0  0  0
 30 29  2  0  0  0  0
 31 29  1  0  0  0  0
 33 32  1  0  0  0  0
 33 34  1  0  0  0  0
M  END
>  <MODEL>
3

>  <REMARK>
 VINA RESULT:      -6.3      2.429      7.518
  Name = 
  2 active torsions:
  status: ('A' for Active; 'I' for Inactive)
    1  A    between atoms: C_3  and  C_25
    2  A    between atoms: C_12  and  C_19
                            x       y       z     vdW  Elec       q    Type
                         _______ _______ _______ _____ _____    ______ ____

>  <TORSDO>
F 2

$$$$
=
 OpenBabel10272415283D

 34 39  0  0  1  0  0  0  0  0999 V2000
  183.0990  176.7250  137.6360 C   0  0  1  0  0  3  0  0  0  0  0  0
  186.0570  177.3390  135.2970 C   0  0  0  0  0  2  0  0  0  0  0  0
  183.4870  178.7180  139.2620 C   0  0  2  0  0  3  0  0  0  0  0  0
  183.6850  177.0980  134.8240 C   0  0  0  0  0  2  0  0  0  0  0  0
  181.0520  180.4290  139.6660 C   0  0  0  0  0  2  0  0  0  0  0  0
  183.3430  178.8170  143.6330 C   0  0  0  0  0  0  0  0  0  0  0  0
  181.3740  178.3370  138.2400 C   0  0  2  0  0  3  0  0  0  0  0  0
  182.5590  177.5910  138.8000 C   0  0  1  0  0  3  0  0  0  0  0  0
  184.5430  178.3280  142.9360 C   0  0  0  0  0  0  0  0  0  0  0  0
  184.4990  178.0820  141.4580 C   0  0  0  0  0  2  0  0  0  0  0  0
  183.3550  179.0040  144.8780 O   0  0  0  0  0  0  0  0  0  0  0  0
  183.4580  178.9690  140.7760 C   0  0  2  0  0  3  0  0  0  0  0  0
  181.3350  177.9980  136.7680 C   0  0  2  0  0  3  0  0  0  0  0  0
  180.0080  177.8770  136.3540 O   0  0  0  0  0  1  0  0  0  0  0  0
  182.3700  176.4640  135.2350 C   0  0  2  0  0  3  0  0  0  0  0  0
  182.0150  176.7200  136.6330 N   0  0  1  0  0  0  0  0  0  0  0  0
  185.5960  178.0740  143.5790 O   0  0  0  0  0  0  0  0  0  0  0  0
  187.2660  176.6150  135.8730 C   0  0  0  0  0  2  0  0  0  0  0  0
  187.7180  177.1750  137.2290 C   0  0  2  0  0  3  0  0  0  0  0  0
  182.0790  178.7880  141.4590 C   0  0  2  0  0  3  0  0  0  0  0  0
  186.5940  177.5800  138.1880 C   0  0  0  0  0  2  0  0  0  0  0  0
  180.8410  179.4700  140.8460 C   0  0  0  0  0  2  0  0  0  0  0  0
  182.1670  179.1180  142.8780 N   0  0  0  0  0  2  0  0  0  0  0  0
  181.7320  179.8030  138.4380 C   0  0  2  0  0  3  0  0  0  0  0  0
  183.1220  179.8930  138.5920 O   0  0  0  0  0  0  0  0  0  0  0  0
  184.7580  176.7140  135.8090 C   0  0  2  0  0  3  0  0  0  0  0  0
  185.3890  176.6570  138.0870 C   0  0  0  0  0  2  0  0  0  0  0  0
  184.4130  177.2140  137.1480 N   0  0  2  0  0  0  0  0  0  0  0  0
  188.6840  178.2990  137.0520 C   0  0  0  0  0  0  0  0  0  0  0  0
  189.3180  178.4100  135.9700 O   0  0  0  0  0  0  0  0  0  0  0  0
  188.8890  179.2510  138.0920 N   0  0  0  0  0  1  0  0  0  0  0  0
  180.8260  174.6320  134.3460 C   0  0  0  0  0  1  0  0  0  0  0  0
  182.2100  174.9800  134.8720 C   0  0  0  0  0  3  0  0  0  0  0  0
  182.5640  174.0850  136.0450 C   0  0  0  0  0  1  0  0  0  0  0  0
  1  8  1  0  0  0  0
  2 26  1  0  0  0  0
  2 18  1  0  0  0  0
  3 12  1  0  0  0  0
  4 15  1  0  0  0  0
  4 26  1  0  0  0  0
  5 22  1  0  0  0  0
  6 11  2  0  0  0  0
  7 24  1  0  0  0  0
  7  8  1  0  0  0  0
  8  3  1  0  0  0  0
  9 17  2  0  0  0  0
  9  6  1  0  0  0  0
 10  9  1  0  0  0  0
 12 10  1  0  0  0  0
 12 20  1  0  0  0  0
 13  7  1  0  0  0  0
 14 13  1  0  0  0  0
 15 16  1  0  0  0  0
 16 13  1  0  0  0  0
 16  1  1  0  0  0  0
 18 19  1  0  0  0  0
 19 21  1  0  0  0  0
 20 23  1  0  0  0  0
 22 20  1  0  0  0  0
 23  6  1  0  0  0  0
 24 25  1  0  0  0  0
 24  5  1  0  0  0  0
 25  3  1  0  0  0  0
 26 28  1  0  0  0  0
 27 21  1  0  0  0  0
 28  1  1  0  0  0  0
 28 27  1  0  0  0  0
 29 19  1  0  0  0  0
 29 31  1  0  0  0  0
 30 29  2  0  0  0  0
 32 33  1  0  0  0  0
 33 15  1  0  0  0  0
 33 34  1  0  0  0  0
M  END
>  <MODEL>
4

>  <REMARK>
 VINA RESULT:      -6.1      5.108      7.016
  Name = 
  2 active torsions:
  status: ('A' for Active; 'I' for Inactive)
    1  A    between atoms: C_3  and  C_25
    2  A    between atoms: C_12  and  C_19
                            x       y       z     vdW  Elec       q    Type
                         _______ _______ _______ _____ _____    ______ ____

>  <TORSDO>
F 2

$$$$
=
 OpenBabel10272415283D

 34 39  0  0  1  0  0  0  0  0999 V2000
  191.6580  176.1260  136.3840 C   0  0  1  0  0  3  0  0  0  0  0  0
  192.0690  172.4160  135.5730 C   0  0  0  0  0  2  0  0  0  0  0  0
  189.5570  175.9470  137.9080 C   0  0  2  0  0  3  0  0  0  0  0  0
  193.6410  174.0190  136.5050 C   0  0  0  0  0  2  0  0  0  0  0  0
  189.8790  177.3150  140.5620 C   0  0  0  0  0  2  0  0  0  0  0  0
  185.9280  178.3870  137.9510 C   0  0  0  0  0  0  0  0  0  0  0  0
  191.5070  177.1130  138.6070 C   0  0  2  0  0  3  0  0  0  0  0  0
  190.6920  176.8240  137.3720 C   0  0  1  0  0  3  0  0  0  0  0  0
  186.0880  177.3050  136.9670 C   0  0  0  0  0  0  0  0  0  0  0  0
  187.4180  176.6320  136.8100 C   0  0  0  0  0  2  0  0  0  0  0  0
  184.8250  178.9820  138.0770 O   0  0  0  0  0  0  0  0  0  0  0  0
  188.2300  176.6920  138.1040 C   0  0  2  0  0  3  0  0  0  0  0  0
  192.8560  176.4750  138.3650 C   0  0  2  0  0  3  0  0  0  0  0  0
  193.8570  177.2860  138.9020 O   0  0  0  0  0  1  0  0  0  0  0  0
  194.0860  175.4670  136.5630 C   0  0  2  0  0  3  0  0  0  0  0  0
  193.0070  176.3920  136.9220 N   0  0  1  0  0  0  0  0  0  0  0  0
  185.1270  176.9690  136.2250 O   0  0  0  0  0  0  0  0  0  0  0  0
  191.2220  172.1090  134.3460 C   0  0  0  0  0  2  0  0  0  0  0  0
  189.7180  172.2910  134.5870 C   0  0  2  0  0  3  0  0  0  0  0  0
  188.3510  178.1600  138.5840 C   0  0  2  0  0  3  0  0  0  0  0  0
  189.3250  173.4910  135.4540 C   0  0  0  0  0  2  0  0  0  0  0  0
  189.2540  178.4850  139.7890 C   0  0  0  0  0  2  0  0  0  0  0  0
  187.0270  178.7370  138.7950 N   0  0  0  0  0  2  0  0  0  0  0  0
  190.7660  176.3850  139.7190 C   0  0  2  0  0  3  0  0  0  0  0  0
  189.9630  175.3990  139.1320 O   0  0  0  0  0  0  0  0  0  0  0  0
  192.4190  173.9030  135.6300 C   0  0  2  0  0  3  0  0  0  0  0  0
  190.2280  174.6920  135.2200 C   0  0  0  0  0  2  0  0  0  0  0  0
  191.3170  174.6930  136.2000 N   0  0  2  0  0  0  0  0  0  0  0  0
  189.1030  171.0390  135.1200 C   0  0  0  0  0  0  0  0  0  0  0  0
  188.1370  171.1130  135.9230 O   0  0  0  0  0  0  0  0  0  0  0  0
  189.5950  169.7620  134.7210 N   0  0  0  0  0  1  0  0  0  0  0  0
  196.1460  175.1700  135.0810 C   0  0  0  0  0  1  0  0  0  0  0  0
  194.8780  175.9660  135.3450 C   0  0  0  0  0  3  0  0  0  0  0  0
  195.2030  177.4430  135.4670 C   0  0  0  0  0  1  0  0  0  0  0  0
  1 16  1  0  0  0  0
  1  8  1  0  0  0  0
  2 26  1  0  0  0  0
  3 12  1  0  0  0  0
  3 25  1  0  0  0  0
  4 15  1  0  0  0  0
  6 11  2  0  0  0  0
  6 23  1  0  0  0  0
  7 24  1  0  0  0  0
  8  3  1  0  0  0  0
  8  7  1  0  0  0  0
  9  6  1  0  0  0  0
 10  9  1  0  0  0  0
 10 12  1  0  0  0  0
 12 20  1  0  0  0  0
 13  7  1  0  0  0  0
 13 14  1  0  0  0  0
 15 16  1  0  0  0  0
 16 13  1  0  0  0  0
 17  9  2  0  0  0  0
 18 19  1  0  0  0  0
 18  2  1  0  0  0  0
 19 29  1  0  0  0  0
 19 21  1  0  0  0  0
 20 23  1  0  0  0  0
 20 22  1  0  0  0  0
 22  5  1  0  0  0  0
 24  5  1  0  0  0  0
 25 24  1  0  0  0  0
 26 28  1  0  0  0  0
 26  4  1  0  0  0  0
 27 21  1  0  0  0  0
 27 28  1  0  0  0  0
 28  1  1  0  0  0  0
 29 30  2  0  0  0  0
 31 29  1  0  0  0  0
 32 33  1  0  0  0  0
 33 34  1  0  0  0  0
 33 15  1  0  0  0  0
M  END
>  <MODEL>
5

>  <REMARK>
 VINA RESULT:      -6.0      2.158      5.480
  Name = 
  2 active torsions:
  status: ('A' for Active; 'I' for Inactive)
    1  A    between atoms: C_3  and  C_25
    2  A    between atoms: C_12  and  C_19
                            x       y       z     vdW  Elec       q    Type
                         _______ _______ _______ _____ _____    ______ ____

>  <TORSDO>
F 2

$$$$
=
 OpenBabel10272415283D

 34 39  0  0  1  0  0  0  0  0999 V2000
  190.5480  176.5620  136.7570 C   0  0  1  0  0  3  0  0  0  0  0  0
  188.7190  177.0990  140.0690 C   0  0  0  0  0  2  0  0  0  0  0  0
  192.0260  174.5430  137.4680 C   0  0  2  0  0  3  0  0  0  0  0  0
  187.8610  176.7540  137.8210 C   0  0  0  0  0  2  0  0  0  0  0  0
  191.8350  172.2000  135.5980 C   0  0  0  0  0  2  0  0  0  0  0  0
  196.2740  173.8040  136.7360 C   0  0  0  0  0  0  0  0  0  0  0  0
  190.6880  174.4770  135.5030 C   0  0  2  0  0  3  0  0  0  0  0  0
  191.5140  175.4310  136.3300 C   0  0  1  0  0  3  0  0  0  0  0  0
  195.8480  174.6910  137.8310 C   0  0  0  0  0  0  0  0  0  0  0  0
  194.4150  175.1180  137.9290 C   0  0  0  0  0  2  0  0  0  0  0  0
  197.4800  173.4570  136.6240 O   0  0  0  0  0  0  0  0  0  0  0  0
  193.4810  174.0860  137.2960 C   0  0  2  0  0  3  0  0  0  0  0  0
  189.2690  174.9940  135.5780 C   0  0  2  0  0  3  0  0  0  0  0  0
  188.6410  174.8090  134.3460 O   0  0  0  0  0  1  0  0  0  0  0  0
  188.0910  176.9470  136.3350 C   0  0  2  0  0  3  0  0  0  0  0  0
  189.3750  176.4140  135.8720 N   0  0  1  0  0  0  0  0  0  0  0  0
  196.6870  175.1280  138.6620 O   0  0  0  0  0  0  0  0  0  0  0  0
  189.5640  178.0340  140.9220 C   0  0  0  0  0  2  0  0  0  0  0  0
  190.9200  177.4350  141.3180 C   0  0  2  0  0  3  0  0  0  0  0  0
  193.9240  173.7920  135.8410 C   0  0  2  0  0  3  0  0  0  0  0  0
  191.6250  176.6140  140.2340 C   0  0  0  0  0  2  0  0  0  0  0  0
  193.0420  172.8940  134.9530 C   0  0  0  0  0  2  0  0  0  0  0  0
  195.3000  173.3050  135.8170 N   0  0  0  0  0  2  0  0  0  0  0  0
  190.8090  173.1490  136.2370 C   0  0  2  0  0  3  0  0  0  0  0  0
  191.1960  173.4170  137.5570 O   0  0  0  0  0  0  0  0  0  0  0  0
  189.0510  177.2730  138.5860 C   0  0  2  0  0  3  0  0  0  0  0  0
  191.4000  177.1820  138.8420 C   0  0  0  0  0  2  0  0  0  0  0  0
  190.2560  176.5180  138.2120 N   0  0  2  0  0  0  0  0  0  0  0  0
  190.8130  176.6480  142.5820 C   0  0  0  0  0  0  0  0  0  0  0  0
  190.4110  175.4560  142.5410 O   0  0  0  0  0  0  0  0  0  0  0  0
  191.1660  177.2330  143.8330 N   0  0  0  0  0  1  0  0  0  0  0  0
  187.0450  179.2390  136.7620 C   0  0  0  0  0  1  0  0  0  0  0  0
  187.8440  178.3680  135.8060 C   0  0  0  0  0  3  0  0  0  0  0  0
  187.1790  178.3410  134.4430 C   0  0  0  0  0  1  0  0  0  0  0  0
  1 28  1  0  0  0  0
  2 18  1  0  0  0  0
  3 25  1  0  0  0  0
  4 26  1  0  0  0  0
  5 24  1  0  0  0  0
  6  9  1  0  0  0  0
  7 13  1  0  0  0  0
  7 24  1  0  0  0  0
  7  8  1  0  0  0  0
  8  1  1  0  0  0  0
  8  3  1  0  0  0  0
  9 10  1  0  0  0  0
  9 17  2  0  0  0  0
 11  6  2  0  0  0  0
 12  3  1  0  0  0  0
 12 10  1  0  0  0  0
 13 16  1  0  0  0  0
 14 13  1  0  0  0  0
 15  4  1  0  0  0  0
 16 15  1  0  0  0  0
 16  1  1  0  0  0  0
 18 19  1  0  0  0  0
 19 29  1  0  0  0  0
 20 12  1  0  0  0  0
 21 19  1  0  0  0  0
 22  5  1  0  0  0  0
 22 20  1  0  0  0  0
 23 20  1  0  0  0  0
 23  6  1  0  0  0  0
 24 25  1  0  0  0  0
 26  2  1  0  0  0  0
 27 21  1  0  0  0  0
 28 26  1  0  0  0  0
 28 27  1  0  0  0  0
 29 31  1  0  0  0  0
 30 29  2  0  0  0  0
 33 15  1  0  0  0  0
 33 32  1  0  0  0  0
 34 33  1  0  0  0  0
M  END
>  <MODEL>
6

>  <REMARK>
 VINA RESULT:      -5.8      2.025      6.367
  Name = 
  2 active torsions:
  status: ('A' for Active; 'I' for Inactive)
    1  A    between atoms: C_3  and  C_25
    2  A    between atoms: C_12  and  C_19
                            x       y       z     vdW  Elec       q    Type
                         _______ _______ _______ _____ _____    ______ ____

>  <TORSDO>
F 2

$$$$
=
 OpenBabel10272415283D

 34 39  0  0  1  0  0  0  0  0999 V2000
  184.5190  178.2930  137.7260 C   0  0  1  0  0  3  0  0  0  0  0  0
  184.2130  178.2860  141.5340 C   0  0  0  0  0  2  0  0  0  0  0  0
  186.1780  176.3040  137.4800 C   0  0  2  0  0  3  0  0  0  0  0  0
  182.5070  178.1690  139.8060 C   0  0  0  0  0  2  0  0  0  0  0  0
  185.2560  174.2060  135.5380 C   0  0  0  0  0  2  0  0  0  0  0  0
  189.7540  175.9510  134.9870 C   0  0  0  0  0  0  0  0  0  0  0  0
  184.1500  176.3960  136.2420 C   0  0  2  0  0  3  0  0  0  0  0  0
  185.2340  177.2910  136.7870 C   0  0  1  0  0  3  0  0  0  0  0  0
  189.8080  176.6630  136.2740 C   0  0  0  0  0  0  0  0  0  0  0  0
  188.5390  176.9770  137.0060 C   0  0  0  0  0  2  0  0  0  0  0  0
  190.8090  175.7020  134.3460 O   0  0  0  0  0  0  0  0  0  0  0  0
  187.4370  175.9710  136.6690 C   0  0  2  0  0  3  0  0  0  0  0  0
  182.8830  176.8030  136.9600 C   0  0  2  0  0  3  0  0  0  0  0  0
  181.8050  176.7320  136.0770 O   0  0  0  0  0  1  0  0  0  0  0  0
  182.1030  178.5620  138.3990 C   0  0  2  0  0  3  0  0  0  0  0  0
  183.0870  178.1780  137.3840 N   0  0  1  0  0  0  0  0  0  0  0  0
  190.9110  177.0470  136.7450 O   0  0  0  0  0  0  0  0  0  0  0  0
  185.3250  179.1630  142.0940 C   0  0  0  0  0  2  0  0  0  0  0  0
  186.7290  178.6110  141.8140 C   0  0  2  0  0  3  0  0  0  0  0  0
  187.2440  175.8930  135.1340 C   0  0  2  0  0  3  0  0  0  0  0  0
  186.9330  177.9810  140.4330 C   0  0  0  0  0  2  0  0  0  0  0  0
  186.0840  175.0560  134.5630 C   0  0  0  0  0  2  0  0  0  0  0  0
  188.4930  175.5060  134.4830 N   0  0  0  0  0  2  0  0  0  0  0  0
  184.5760  174.9970  136.6660 C   0  0  2  0  0  3  0  0  0  0  0  0
  185.4690  175.1230  137.7380 O   0  0  0  0  0  0  0  0  0  0  0  0
  183.9020  178.6670  140.0860 C   0  0  2  0  0  3  0  0  0  0  0  0
  186.1480  178.7030  139.3490 C   0  0  0  0  0  2  0  0  0  0  0  0
  184.8530  178.0470  139.1520 N   0  0  2  0  0  0  0  0  0  0  0  0
  187.1600  177.6670  142.8880 C   0  0  0  0  0  0  0  0  0  0  0  0
  186.6080  177.7160  144.0180 O   0  0  0  0  0  0  0  0  0  0  0  0
  188.1850  176.7070  142.6420 N   0  0  0  0  0  1  0  0  0  0  0  0
  180.7330  180.5040  139.3380 C   0  0  0  0  0  1  0  0  0  0  0  0
  181.6460  180.0180  138.2240 C   0  0  0  0  0  3  0  0  0  0  0  0
  180.9840  180.2290  136.8750 C   0  0  0  0  0  1  0  0  0  0  0  0
  1 28  1  0  0  0  0
  2 18  1  0  0  0  0
  3 25  1  0  0  0  0
  4 26  1  0  0  0  0
  5 24  1  0  0  0  0
  6  9  1  0  0  0  0
  7 24  1  0  0  0  0
  7  8  1  0  0  0  0
  7 13  1  0  0  0  0
  8  3  1  0  0  0  0
  8  1  1  0  0  0  0
  9 17  2  0  0  0  0
  9 10  1  0  0  0  0
 11  6  2  0  0  0  0
 12 10  1  0  0  0  0
 12  3  1  0  0  0  0
 13 16  1  0  0  0  0
 14 13  1  0  0  0  0
 15  4  1  0  0  0  0
 16  1  1  0  0  0  0
 16 15  1  0  0  0  0
 19 18  1  0  0  0  0
 19 29  1  0  0  0  0
 20 12  1  0  0  0  0
 21 19  1  0  0  0  0
 22 20  1  0  0  0  0
 22  5  1  0  0  0  0
 23  6  1  0  0  0  0
 23 20  1  0  0  0  0
 24 25  1  0  0  0  0
 26  2  1  0  0  0  0
 27 21  1  0  0  0  0
 28 27  1  0  0  0  0
 28 26  1  0  0  0  0
 29 30  2  0  0  0  0
 31 29  1  0  0  0  0
 33 15  1  0  0  0  0
 33 32  1  0  0  0  0
 34 33  1  0  0  0  0
M  END
>  <MODEL>
7

>  <REMARK>
 VINA RESULT:      -5.6      3.780      8.152
  Name = 
  2 active torsions:
  status: ('A' for Active; 'I' for Inactive)
    1  A    between atoms: C_3  and  C_25
    2  A    between atoms: C_12  and  C_19
                            x       y       z     vdW  Elec       q    Type
                         _______ _______ _______ _____ _____    ______ ____

>  <TORSDO>
F 2

$$$$
=
 OpenBabel10272415283D

 34 39  0  0  1  0  0  0  0  0999 V2000
  183.9000  175.2430  137.3540 C   0  0  1  0  0  3  0  0  0  0  0  0
  182.2390  172.1960  135.7560 C   0  0  0  0  0  2  0  0  0  0  0  0
  186.0130  175.3550  135.8400 C   0  0  2  0  0  3  0  0  0  0  0  0
  181.3860  174.4350  136.1640 C   0  0  0  0  0  2  0  0  0  0  0  0
  186.4800  178.0640  134.6310 C   0  0  0  0  0  2  0  0  0  0  0  0
  190.2010  175.9680  136.9420 C   0  0  0  0  0  0  0  0  0  0  0  0
  184.6370  177.2600  136.2010 C   0  0  2  0  0  3  0  0  0  0  0  0
  185.1550  176.0340  136.9110 C   0  0  1  0  0  3  0  0  0  0  0  0
  189.5830  174.6380  137.0660 C   0  0  0  0  0  0  0  0  0  0  0  0
  188.1010  174.4880  136.9090 C   0  0  0  0  0  2  0  0  0  0  0  0
  191.4420  176.1170  137.0980 O   0  0  0  0  0  0  0  0  0  0  0  0
  187.5210  175.5820  136.0120 C   0  0  2  0  0  3  0  0  0  0  0  0
  183.1360  177.0900  136.1330 C   0  0  2  0  0  3  0  0  0  0  0  0
  182.5200  178.3290  136.3090 O   0  0  0  0  0  1  0  0  0  0  0  0
  181.4320  175.6650  137.0500 C   0  0  2  0  0  3  0  0  0  0  0  0
  182.7830  176.2010  137.2290 N   0  0  1  0  0  0  0  0  0  0  0  0
  190.2870  173.6320  137.3460 O   0  0  0  0  0  0  0  0  0  0  0  0
  182.7830  170.9520  136.4450 C   0  0  0  0  0  2  0  0  0  0  0  0
  184.2850  170.7410  136.2190 C   0  0  2  0  0  3  0  0  0  0  0  0
  187.9320  176.9770  136.5470 C   0  0  2  0  0  3  0  0  0  0  0  0
  185.1440  172.0100  136.2360 C   0  0  0  0  0  2  0  0  0  0  0  0
  187.3390  178.2390  135.8920 C   0  0  0  0  0  2  0  0  0  0  0  0
  189.3860  177.0920  136.6040 N   0  0  0  0  0  2  0  0  0  0  0  0
  185.2460  177.1670  134.8090 C   0  0  2  0  0  3  0  0  0  0  0  0
  185.6140  175.8340  134.5850 O   0  0  0  0  0  0  0  0  0  0  0  0
  182.3870  173.4220  136.6580 C   0  0  2  0  0  3  0  0  0  0  0  0
  184.6430  173.0310  137.2450 C   0  0  0  0  0  2  0  0  0  0  0  0
  183.7440  173.9820  136.5860 N   0  0  2  0  0  0  0  0  0  0  0  0
  184.5370  169.9580  134.9730 C   0  0  0  0  0  0  0  0  0  0  0  0
  185.6330  170.0840  134.3690 O   0  0  0  0  0  0  0  0  0  0  0  0
  183.5490  169.0640  134.4660 N   0  0  0  0  0  1  0  0  0  0  0  0
  181.5800  175.7770  139.5990 C   0  0  0  0  0  1  0  0  0  0  0  0
  180.6890  175.5440  138.3900 C   0  0  0  0  0  3  0  0  0  0  0  0
  179.9850  174.2050  138.5080 C   0  0  0  0  0  1  0  0  0  0  0  0
  2 18  1  0  0  0  0
  2 26  1  0  0  0  0
  3 12  1  0  0  0  0
  3  8  1  0  0  0  0
  4 26  1  0  0  0  0
  4 15  1  0  0  0  0
  5 24  1  0  0  0  0
  5 22  1  0  0  0  0
  6  9  1  0  0  0  0
  6 11  2  0  0  0  0
  7  8  1  0  0  0  0
  8  1  1  0  0  0  0
  9 17  2  0  0  0  0
 10  9  1  0  0  0  0
 12 20  1  0  0  0  0
 12 10  1  0  0  0  0
 13  7  1  0  0  0  0
 13 14  1  0  0  0  0
 13 16  1  0  0  0  0
 15 16  1  0  0  0  0
 15 33  1  0  0  0  0
 16  1  1  0  0  0  0
 19 21  1  0  0  0  0
 19 18  1  0  0  0  0
 20 23  1  0  0  0  0
 21 27  1  0  0  0  0
 22 20  1  0  0  0  0
 23  6  1  0  0  0  0
 24  7  1  0  0  0  0
 25 24  1  0  0  0  0
 25  3  1  0  0  0  0
 28 26  1  0  0  0  0
 28 27  1  0  0  0  0
 28  1  1  0  0  0  0
 29 19  1  0  0  0  0
 30 29  2  0  0  0  0
 31 29  1  0  0  0  0
 33 34  1  0  0  0  0
 33 32  1  0  0  0  0
M  END
>  <MODEL>
8

>  <REMARK>
 VINA RESULT:      -5.5      4.542      7.751
  Name = 
  2 active torsions:
  status: ('A' for Active; 'I' for Inactive)
    1  A    between atoms: C_3  and  C_25
    2  A    between atoms: C_12  and  C_19
                            x       y       z     vdW  Elec       q    Type
                         _______ _______ _______ _____ _____    ______ ____

>  <TORSDO>
F 2

$$$$
=
 OpenBabel10272415283D

 34 39  0  0  1  0  0  0  0  0999 V2000
  184.7100  177.2790  136.4500 C   0  0  1  0  0  3  0  0  0  0  0  0
  183.3740  178.0580  139.9430 C   0  0  0  0  0  2  0  0  0  0  0  0
  186.5970  175.6230  137.1310 C   0  0  2  0  0  3  0  0  0  0  0  0
  182.2350  177.2520  137.9530 C   0  0  0  0  0  2  0  0  0  0  0  0
  186.5000  173.0160  135.6430 C   0  0  0  0  0  2  0  0  0  0  0  0
  190.7360  175.3870  135.7360 C   0  0  0  0  0  0  0  0  0  0  0  0
  184.9910  175.0660  135.4690 C   0  0  2  0  0  3  0  0  0  0  0  0
  185.7690  176.2430  136.0020 C   0  0  1  0  0  3  0  0  0  0  0  0
  190.3500  176.3640  136.7670 C   0  0  0  0  0  0  0  0  0  0  0  0
  188.9000  176.5940  137.0700 C   0  0  0  0  0  2  0  0  0  0  0  0
  191.9480  175.2010  135.4510 O   0  0  0  0  0  0  0  0  0  0  0  0
  188.0610  175.3550  136.7570 C   0  0  2  0  0  3  0  0  0  0  0  0
  183.5360  175.3830  135.7350 C   0  0  2  0  0  3  0  0  0  0  0  0
  182.7590  174.9220  134.6720 O   0  0  0  0  0  1  0  0  0  0  0  0
  182.1880  177.2430  136.4380 C   0  0  2  0  0  3  0  0  0  0  0  0
  183.4510  176.8310  135.8210 N   0  0  1  0  0  0  0  0  0  0  0  0
  191.2280  177.0380  137.3690 O   0  0  0  0  0  0  0  0  0  0  0  0
  184.1770  179.2250  140.5010 C   0  0  0  0  0  2  0  0  0  0  0  0
  185.6600  178.8920  140.7160 C   0  0  2  0  0  3  0  0  0  0  0  0
  188.3080  174.9050  135.2950 C   0  0  2  0  0  3  0  0  0  0  0  0
  186.3080  178.0200  139.6350 C   0  0  0  0  0  2  0  0  0  0  0  0
  187.4560  173.7650  134.7050 C   0  0  0  0  0  2  0  0  0  0  0  0
  189.7230  174.6200  135.0820 N   0  0  0  0  0  2  0  0  0  0  0  0
  185.4470  173.8980  136.3320 C   0  0  2  0  0  3  0  0  0  0  0  0
  185.9910  174.4190  137.5130 O   0  0  0  0  0  0  0  0  0  0  0  0
  183.4290  178.0460  138.4150 C   0  0  2  0  0  3  0  0  0  0  0  0
  185.7710  178.3280  138.2470 C   0  0  0  0  0  2  0  0  0  0  0  0
  184.6670  177.4200  137.9270 N   0  0  2  0  0  0  0  0  0  0  0  0
  185.8890  178.3030  142.0690 C   0  0  0  0  0  0  0  0  0  0  0  0
  187.0090  177.8010  142.3480 O   0  0  0  0  0  0  0  0  0  0  0  0
  184.8530  178.3090  143.0480 N   0  0  0  0  0  1  0  0  0  0  0  0
  180.4720  179.1330  136.5570 C   0  0  0  0  0  1  0  0  0  0  0  0
  181.6270  178.5160  135.7860 C   0  0  0  0  0  3  0  0  0  0  0  0
  181.2200  178.2640  134.3460 C   0  0  0  0  0  1  0  0  0  0  0  0
  1 28  1  0  0  0  0
  2 18  1  0  0  0  0
  3 25  1  0  0  0  0
  4 26  1  0  0  0  0
  5 24  1  0  0  0  0
  6  9  1  0  0  0  0
  7 13  1  0  0  0  0
  7  8  1  0  0  0  0
  7 24  1  0  0  0  0
  8  1  1  0  0  0  0
  8  3  1  0  0  0  0
  9 10  1  0  0  0  0
  9 17  2  0  0  0  0
 11  6  2  0  0  0  0
 12 10  1  0  0  0  0
 12  3  1  0  0  0  0
 13 16  1  0  0  0  0
 14 13  1  0  0  0  0
 15  4  1  0  0  0  0
 16 15  1  0  0  0  0
 16  1  1  0  0  0  0
 18 19  1  0  0  0  0
 19 29  1  0  0  0  0
 20 12  1  0  0  0  0
 21 19  1  0  0  0  0
 22 20  1  0  0  0  0
 22  5  1  0  0  0  0
 23 20  1  0  0  0  0
 23  6  1  0  0  0  0
 24 25  1  0  0  0  0
 26  2  1  0  0  0  0
 27 21  1  0  0  0  0
 28 27  1  0  0  0  0
 28 26  1  0  0  0  0
 29 30  2  0  0  0  0
 29 31  1  0  0  0  0
 33 15  1  0  0  0  0
 33 32  1  0  0  0  0
 34 33  1  0  0  0  0
M  END
>  <MODEL>
9

>  <REMARK>
 VINA RESULT:      -5.5      3.778      7.851
  Name = 
  2 active torsions:
  status: ('A' for Active; 'I' for Inactive)
    1  A    between atoms: C_3  and  C_25
    2  A    between atoms: C_12  and  C_19
                            x       y       z     vdW  Elec       q    Type
                         _______ _______ _______ _____ _____    ______ ____

>  <TORSDO>
F 2

$$$$
