=
 OpenBabel10272400523D

 25 27  0  0  1  0  0  0  0  0999 V2000
  187.2630  178.1240  146.8580 C   0  0  0  0  0  0  0  0  0  0  0  0
  188.3910  177.7480  146.1550 C   0  0  0  0  0  0  0  0  0  0  0  0
  187.3830  177.6890  148.1330 N   0  0  0  0  0  2  0  0  0  0  0  0
  188.5430  177.0550  148.2640 N   0  0  0  0  0  0  0  0  0  0  0  0
  190.4460  176.5410  146.6940 C   0  0  0  0  0  0  0  0  0  0  0  0
  191.1660  175.9340  147.5280 O   0  0  0  0  0  0  0  0  0  0  0  0
  188.8080  177.9610  144.7300 C   0  0  0  0  0  2  0  0  0  0  0  0
  190.8790  176.7150  145.3370 N   0  0  0  0  0  0  0  0  0  0  0  0
  190.1650  177.3340  144.4300 C   0  0  0  0  0  0  0  0  0  0  0  0
  189.1520  177.0910  147.0670 C   0  0  0  0  0  0  0  0  0  0  0  0
  186.0990  178.8740  146.3570 C   0  0  0  0  0  0  0  0  0  0  0  0
  185.8360  180.0060  146.8460 O   0  0  0  0  0  0  0  0  0  0  0  0
  185.2270  178.3110  145.2800 C   0  0  2  0  0  3  0  0  0  0  0  0
  183.4980  178.3680  143.0300 C   0  0  0  0  0  3  0  0  0  0  0  0
  185.8000  178.6090  143.8890 C   0  0  0  0  0  2  0  0  0  0  0  0
  184.8120  178.2370  142.8170 C   0  0  0  0  0  3  0  0  0  0  0  0
  182.9950  178.7970  144.3490 C   0  0  0  0  0  3  0  0  0  0  0  0
  183.8110  178.8120  145.4090 C   0  0  0  0  0  3  0  0  0  0  0  0
  190.7170  177.4820  143.0590 C   0  0  0  0  0  2  0  0  0  0  0  0
  189.7340  178.1260  142.2030 N   0  0  0  0  0  2  0  0  0  0  0  0
  189.5170  177.7110  140.8530 C   0  0  0  0  0  0  0  0  0  0  0  0
  190.1890  176.7610  140.3650 O   0  0  0  0  0  0  0  0  0  0  0  0
  188.5090  178.3970  140.0330 C   0  0  0  0  0  0  0  0  0  0  0  0
  188.8460  178.8750  138.7350 N   0  0  0  0  0  2  0  0  0  0  0  0
  187.3110  178.5720  140.4850 N   0  0  0  0  0  1  0  0  0  0  0  0
  1  3  1  0  0  0  0
  2  1  2  0  0  0  0
  2 10  1  0  0  0  0
  3  4  1  0  0  0  0
  5 10  1  0  0  0  0
  5  6  2  0  0  0  0
  7  2  1  0  0  0  0
  8  5  1  0  0  0  0
  9  7  1  0  0  0  0
  9  8  2  0  0  0  0
 10  4  2  0  0  0  0
 11 12  2  0  0  0  0
 11  1  1  0  0  0  0
 13 18  1  0  0  0  0
 13 11  1  1  0  0  0
 14 17  1  0  0  0  0
 15 13  1  0  0  0  0
 16 14  2  0  0  0  0
 16 15  1  0  0  0  0
 17 18  2  0  0  0  0
 19  9  1  0  0  0  0
 20 19  1  0  0  0  0
 21 20  1  0  0  0  0
 22 21  2  0  0  0  0
 23 25  1  0  0  0  0
 23 21  1  0  0  0  0
 24 23  2  0  0  0  0
M  END
>  <MODEL>
1

>  <REMARK>
 VINA RESULT:      -8.8      0.000      0.000
  Name = 
  5 active torsions:
  status: ('A' for Active; 'I' for Inactive)
    1  A    between atoms: C_1  and  C_18
    2  A    between atoms: C_2  and  C_21
    3  A    between atoms: C_5  and  C_18
    4  A    between atoms: C_6  and  N_15
    5  A    between atoms: C_6  and  C_23
                            x       y       z     vdW  Elec       q    Type
                         _______ _______ _______ _____ _____    ______ ____

>  <TORSDO>
F 5

$$$$
=
 OpenBabel10272400523D

 25 27  0  0  1  0  0  0  0  0999 V2000
  189.7290  177.0550  143.4160 C   0  0  0  0  0  0  0  0  0  0  0  0
  189.7890  177.2780  142.0550 C   0  0  0  0  0  0  0  0  0  0  0  0
  190.9870  176.8820  143.8820 N   0  0  0  0  0  2  0  0  0  0  0  0
  191.8400  176.9860  142.8680 N   0  0  0  0  0  0  0  0  0  0  0  0
  191.5810  177.4230  140.4000 C   0  0  0  0  0  0  0  0  0  0  0  0
  192.8050  177.3840  140.1140 O   0  0  0  0  0  0  0  0  0  0  0  0
  188.7260  177.5400  141.0280 C   0  0  0  0  0  2  0  0  0  0  0  0
  190.5960  177.6680  139.3860 N   0  0  0  0  0  0  0  0  0  0  0  0
  189.3100  177.7140  139.6310 C   0  0  0  0  0  0  0  0  0  0  0  0
  191.1140  177.2260  141.7630 C   0  0  0  0  0  0  0  0  0  0  0  0
  188.5300  177.0090  144.2700 C   0  0  0  0  0  0  0  0  0  0  0  0
  187.5400  176.3170  143.9090 O   0  0  0  0  0  0  0  0  0  0  0  0
  188.4710  177.7720  145.5550 C   0  0  2  0  0  3  0  0  0  0  0  0
  187.8040  178.2580  148.2710 C   0  0  0  0  0  3  0  0  0  0  0  0
  189.2390  177.0470  146.6680 C   0  0  0  0  0  2  0  0  0  0  0  0
  188.9900  177.7030  147.9990 C   0  0  0  0  0  3  0  0  0  0  0  0
  186.7520  178.3120  147.2380 C   0  0  0  0  0  3  0  0  0  0  0  0
  187.0460  178.0470  145.9600 C   0  0  0  0  0  3  0  0  0  0  0  0
  188.3750  177.9990  138.5120 C   0  0  0  0  0  2  0  0  0  0  0  0
  187.0980  178.4440  139.0450 N   0  0  0  0  0  2  0  0  0  0  0  0
  185.8700  178.2380  138.3420 C   0  0  0  0  0  0  0  0  0  0  0  0
  185.8700  177.6560  137.2230 O   0  0  0  0  0  0  0  0  0  0  0  0
  184.6080  178.7070  138.9280 C   0  0  0  0  0  0  0  0  0  0  0  0
  183.5440  177.7900  139.1640 N   0  0  0  0  0  2  0  0  0  0  0  0
  184.4520  179.9530  139.2320 N   0  0  0  0  0  1  0  0  0  0  0  0
  1  3  1  0  0  0  0
  1 11  1  0  0  0  0
  2  1  2  0  0  0  0
  4  3  1  0  0  0  0
  5 10  1  0  0  0  0
  6  5  2  0  0  0  0
  7  2  1  0  0  0  0
  8  9  2  0  0  0  0
  8  5  1  0  0  0  0
  9  7  1  0  0  0  0
 10  2  1  0  0  0  0
 10  4  2  0  0  0  0
 12 11  2  0  0  0  0
 13 11  1  6  0  0  0
 13 18  1  0  0  0  0
 13 15  1  0  0  0  0
 15 16  1  0  0  0  0
 16 14  2  0  0  0  0
 17 14  1  0  0  0  0
 18 17  2  0  0  0  0
 19 20  1  0  0  0  0
 19  9  1  0  0  0  0
 21 23  1  0  0  0  0
 21 20  1  0  0  0  0
 22 21  2  0  0  0  0
 23 24  2  0  0  0  0
 23 25  1  0  0  0  0
M  END
>  <MODEL>
2

>  <REMARK>
 VINA RESULT:      -8.7      2.918      5.154
  Name = 
  5 active torsions:
  status: ('A' for Active; 'I' for Inactive)
    1  A    between atoms: C_1  and  C_18
    2  A    between atoms: C_2  and  C_21
    3  A    between atoms: C_5  and  C_18
    4  A    between atoms: C_6  and  N_15
    5  A    between atoms: C_6  and  C_23
                            x       y       z     vdW  Elec       q    Type
                         _______ _______ _______ _____ _____    ______ ____

>  <TORSDO>
F 5

$$$$
=
 OpenBabel10272400523D

 25 27  0  0  1  0  0  0  0  0999 V2000
  189.9690  176.7510  144.6080 C   0  0  0  0  0  0  0  0  0  0  0  0
  188.8820  177.2480  145.2990 C   0  0  0  0  0  0  0  0  0  0  0  0
  191.0160  176.6580  145.4590 N   0  0  0  0  0  2  0  0  0  0  0  0
  190.6330  177.0770  146.6610 N   0  0  0  0  0  0  0  0  0  0  0  0
  188.4650  177.9510  147.6020 C   0  0  0  0  0  0  0  0  0  0  0  0
  188.8740  178.1230  148.7790 O   0  0  0  0  0  0  0  0  0  0  0  0
  187.4730  177.5480  144.8800 C   0  0  0  0  0  2  0  0  0  0  0  0
  187.1110  178.2590  147.2410 N   0  0  0  0  0  0  0  0  0  0  0  0
  186.6390  178.1020  146.0290 C   0  0  0  0  0  0  0  0  0  0  0  0
  189.3410  177.4330  146.5630 C   0  0  0  0  0  0  0  0  0  0  0  0
  190.0350  176.3650  143.1880 C   0  0  0  0  0  0  0  0  0  0  0  0
  190.2690  175.1640  142.8840 O   0  0  0  0  0  0  0  0  0  0  0  0
  189.8280  177.3770  142.1070 C   0  0  2  0  0  3  0  0  0  0  0  0
  189.1200  178.3310  139.5290 C   0  0  0  0  0  3  0  0  0  0  0  0
  188.3490  177.4760  141.7130 C   0  0  0  0  0  2  0  0  0  0  0  0
  188.1820  178.3260  140.4830 C   0  0  0  0  0  3  0  0  0  0  0  0
  190.3710  177.5680  139.7090 C   0  0  0  0  0  3  0  0  0  0  0  0
  190.6960  177.0810  140.9110 C   0  0  0  0  0  3  0  0  0  0  0  0
  185.2130  178.4280  145.7670 C   0  0  0  0  0  2  0  0  0  0  0  0
  184.9850  178.5000  144.3330 N   0  0  0  0  0  2  0  0  0  0  0  0
  183.6760  178.6570  143.7800 C   0  0  0  0  0  0  0  0  0  0  0  0
  182.6720  178.7350  144.5410 O   0  0  0  0  0  0  0  0  0  0  0  0
  183.5030  178.7260  142.3240 C   0  0  0  0  0  0  0  0  0  0  0  0
  182.1970  178.7310  141.7570 N   0  0  0  0  0  1  0  0  0  0  0  0
  184.5340  178.7810  141.5460 N   0  0  0  0  0  2  0  0  0  0  0  0
  1  2  2  0  0  0  0
  1  3  1  0  0  0  0
  2 10  1  0  0  0  0
  3  4  1  0  0  0  0
  5  6  2  0  0  0  0
  7  2  1  0  0  0  0
  7  9  1  0  0  0  0
  8  5  1  0  0  0  0
  9  8  2  0  0  0  0
 10  4  2  0  0  0  0
 10  5  1  0  0  0  0
 11  1  1  0  0  0  0
 12 11  2  0  0  0  0
 13 11  1  1  0  0  0
 14 17  1  0  0  0  0
 14 16  2  0  0  0  0
 15 13  1  0  0  0  0
 16 15  1  0  0  0  0
 17 18  2  0  0  0  0
 18 13  1  0  0  0  0
 19  9  1  0  0  0  0
 20 19  1  0  0  0  0
 21 20  1  0  0  0  0
 21 22  2  0  0  0  0
 23 21  1  0  0  0  0
 24 23  1  0  0  0  0
 25 23  2  0  0  0  0
M  END
>  <MODEL>
3

>  <REMARK>
 VINA RESULT:      -8.6      2.150      5.382
  Name = 
  5 active torsions:
  status: ('A' for Active; 'I' for Inactive)
    1  A    between atoms: C_1  and  C_18
    2  A    between atoms: C_2  and  C_21
    3  A    between atoms: C_5  and  C_18
    4  A    between atoms: C_6  and  N_15
    5  A    between atoms: C_6  and  C_23
                            x       y       z     vdW  Elec       q    Type
                         _______ _______ _______ _____ _____    ______ ____

>  <TORSDO>
F 5

$$$$
=
 OpenBabel10272400523D

 25 27  0  0  1  0  0  0  0  0999 V2000
  190.9450  177.7760  142.3190 C   0  0  0  0  0  0  0  0  0  0  0  0
  189.7680  177.9270  141.6120 C   0  0  0  0  0  0  0  0  0  0  0  0
  191.8940  177.2980  141.4830 N   0  0  0  0  0  0  0  0  0  0  0  0
  191.3650  177.1420  140.2740 N   0  0  0  0  0  0  0  0  0  0  0  0
  189.0760  177.5440  139.3000 C   0  0  0  0  0  0  0  0  0  0  0  0
  189.3480  177.1780  138.1280 O   0  0  0  0  0  0  0  0  0  0  0  0
  188.4090  178.4190  142.0100 C   0  0  0  0  0  3  0  0  0  0  0  0
  187.7590  178.0000  139.6410 N   0  0  0  0  0  0  0  0  0  0  0  0
  187.4240  178.3860  140.8470 C   0  0  0  0  0  0  0  0  0  0  0  0
  190.0790  177.5230  140.3530 C   0  0  0  0  0  0  0  0  0  0  0  0
  191.1840  178.0730  143.7420 C   0  0  0  0  0  0  0  0  0  0  0  0
  191.9490  179.0250  144.0540 O   0  0  0  0  0  0  0  0  0  0  0  0
  190.5340  177.2610  144.8170 C   0  0  2  0  0  3  0  0  0  0  0  0
  189.6470  176.6420  147.4410 C   0  0  0  0  0  3  0  0  0  0  0  0
  189.3100  177.9820  145.3950 C   0  0  0  0  0  2  0  0  0  0  0  0
  188.7990  177.2660  146.6160 C   0  0  0  0  0  3  0  0  0  0  0  0
  191.0860  176.5720  147.1190 C   0  0  0  0  0  3  0  0  0  0  0  0
  191.5200  176.8990  145.8970 C   0  0  0  0  0  3  0  0  0  0  0  0
  186.0380  178.8650  141.0880 C   0  0  0  0  0  2  0  0  0  0  0  0
  185.8410  179.0920  142.5110 N   0  0  0  0  0  2  0  0  0  0  0  0
  184.6500  178.6810  143.1860 C   0  0  0  0  0  0  0  0  0  0  0  0
  183.7270  178.1040  142.5490 O   0  0  0  0  0  0  0  0  0  0  0  0
  184.5050  178.9340  144.6260 C   0  0  0  0  0  0  0  0  0  0  0  0
  185.6490  178.9220  145.4730 N   0  0  0  0  0  1  0  0  0  0  0  0
  183.3400  179.1690  145.1330 N   0  0  0  0  0  2  0  0  0  0  0  0
  1 11  1  0  0  0  0
  2  7  2  0  0  0  0
  2  1  1  0  0  0  0
  3  1  2  0  0  0  0
  4 10  2  0  0  0  0
  4  3  1  0  0  0  0
  5  8  1  0  0  0  0
  5 10  1  0  0  0  0
  6  5  2  0  0  0  0
  8  9  2  0  0  0  0
  9 19  1  0  0  0  0
  9  7  1  0  0  0  0
 10  2  1  0  0  0  0
 11 12  2  0  0  0  0
 13 11  1  6  0  0  0
 13 15  1  0  0  0  0
 13 18  1  0  0  0  0
 15 16  1  0  0  0  0
 16 14  2  0  0  0  0
 17 14  1  0  0  0  0
 18 17  2  0  0  0  0
 19 20  1  0  0  0  0
 20 21  1  0  0  0  0
 21 23  1  0  0  0  0
 22 21  2  0  0  0  0
 23 25  2  0  0  0  0
 23 24  1  0  0  0  0
M  END
>  <MODEL>
4

>  <REMARK>
 VINA RESULT:      -8.5      2.321      6.552
  Name = 
  5 active torsions:
  status: ('A' for Active; 'I' for Inactive)
    1  A    between atoms: C_1  and  C_18
    2  A    between atoms: C_2  and  C_21
    3  A    between atoms: C_5  and  C_18
    4  A    between atoms: C_6  and  N_15
    5  A    between atoms: C_6  and  C_23
                            x       y       z     vdW  Elec       q    Type
                         _______ _______ _______ _____ _____    ______ ____

>  <TORSDO>
F 5

$$$$
=
 OpenBabel10272400523D

 25 27  0  0  1  0  0  0  0  0999 V2000
  186.8970  177.9570  145.5680 C   0  0  0  0  0  0  0  0  0  0  0  0
  186.0990  178.2350  144.4760 C   0  0  0  0  0  0  0  0  0  0  0  0
  186.1600  178.1060  146.6920 N   0  0  0  0  0  2  0  0  0  0  0  0
  184.9260  178.4660  146.3540 N   0  0  0  0  0  0  0  0  0  0  0  0
  183.7670  178.8940  144.1580 C   0  0  0  0  0  0  0  0  0  0  0  0
  182.6400  179.1770  144.6390 O   0  0  0  0  0  0  0  0  0  0  0  0
  186.3690  178.2240  143.0010 C   0  0  0  0  0  2  0  0  0  0  0  0
  183.9850  178.9040  142.7400 N   0  0  0  0  0  0  0  0  0  0  0  0
  185.1410  178.6220  142.1900 C   0  0  0  0  0  0  0  0  0  0  0  0
  184.8900  178.5440  145.0130 C   0  0  0  0  0  0  0  0  0  0  0  0
  188.3150  177.5570  145.5680 C   0  0  0  0  0  0  0  0  0  0  0  0
  188.8080  177.0310  146.6020 O   0  0  0  0  0  0  0  0  0  0  0  0
  189.1730  177.7670  144.3610 C   0  0  2  0  0  3  0  0  0  0  0  0
  191.5100  177.5890  142.7610 C   0  0  0  0  0  3  0  0  0  0  0  0
  189.5430  176.4320  143.7040 C   0  0  0  0  0  2  0  0  0  0  0  0
  190.5790  176.6380  142.6310 C   0  0  0  0  0  3  0  0  0  0  0  0
  191.4820  178.5080  143.9150 C   0  0  0  0  0  3  0  0  0  0  0  0
  190.4010  178.5720  144.7000 C   0  0  0  0  0  3  0  0  0  0  0  0
  185.2540  178.6370  140.7080 C   0  0  0  0  0  2  0  0  0  0  0  0
  186.6560  178.6870  140.3270 N   0  0  0  0  0  2  0  0  0  0  0  0
  187.0990  178.3110  139.0210 C   0  0  0  0  0  0  0  0  0  0  0  0
  186.2680  177.9170  138.1580 O   0  0  0  0  0  0  0  0  0  0  0  0
  188.5280  178.3830  138.6880 C   0  0  0  0  0  0  0  0  0  0  0  0
  188.9840  179.2800  137.6810 N   0  0  0  0  0  2  0  0  0  0  0  0
  189.3810  177.6330  139.3050 N   0  0  0  0  0  1  0  0  0  0  0  0
  1 11  1  0  0  0  0
  1  3  1  0  0  0  0
  2 10  1  0  0  0  0
  2  1  2  0  0  0  0
  4  3  1  0  0  0  0
  5  6  2  0  0  0  0
  5 10  1  0  0  0  0
  7  2  1  0  0  0  0
  8  5  1  0  0  0  0
  9  8  2  0  0  0  0
  9  7  1  0  0  0  0
 10  4  2  0  0  0  0
 11 12  2  0  0  0  0
 13 18  1  0  0  0  0
 13 11  1  1  0  0  0
 14 17  1  0  0  0  0
 15 13  1  0  0  0  0
 16 14  2  0  0  0  0
 16 15  1  0  0  0  0
 17 18  2  0  0  0  0
 19  9  1  0  0  0  0
 20 19  1  0  0  0  0
 21 20  1  0  0  0  0
 22 21  2  0  0  0  0
 23 21  1  0  0  0  0
 23 25  1  0  0  0  0
 24 23  2  0  0  0  0
M  END
>  <MODEL>
5

>  <REMARK>
 VINA RESULT:      -8.5      2.222      5.191
  Name = 
  5 active torsions:
  status: ('A' for Active; 'I' for Inactive)
    1  A    between atoms: C_1  and  C_18
    2  A    between atoms: C_2  and  C_21
    3  A    between atoms: C_5  and  C_18
    4  A    between atoms: C_6  and  N_15
    5  A    between atoms: C_6  and  C_23
                            x       y       z     vdW  Elec       q    Type
                         _______ _______ _______ _____ _____    ______ ____

>  <TORSDO>
F 5

$$$$
=
 OpenBabel10272400523D

 25 27  0  0  1  0  0  0  0  0999 V2000
  185.2090  178.7670  144.6540 C   0  0  0  0  0  0  0  0  0  0  0  0
  186.4290  178.1760  144.9170 C   0  0  0  0  0  0  0  0  0  0  0  0
  184.6020  179.0480  145.8300 N   0  0  0  0  0  2  0  0  0  0  0  0
  185.3910  178.6590  146.8250 N   0  0  0  0  0  0  0  0  0  0  0  0
  187.6610  177.5700  146.9380 C   0  0  0  0  0  0  0  0  0  0  0  0
  187.7410  177.5260  148.1930 O   0  0  0  0  0  0  0  0  0  0  0  0
  187.5190  177.6710  144.0190 C   0  0  0  0  0  2  0  0  0  0  0  0
  188.7230  177.0670  146.1150 N   0  0  0  0  0  0  0  0  0  0  0  0
  188.6850  177.0850  144.8060 C   0  0  0  0  0  0  0  0  0  0  0  0
  186.4970  178.1320  146.2720 C   0  0  0  0  0  0  0  0  0  0  0  0
  184.6200  179.0690  143.3380 C   0  0  0  0  0  0  0  0  0  0  0  0
  185.2330  179.8350  142.5470 O   0  0  0  0  0  0  0  0  0  0  0  0
  183.3060  178.4800  142.9310 C   0  0  2  0  0  3  0  0  0  0  0  0
  180.6910  178.4520  141.8300 C   0  0  0  0  0  3  0  0  0  0  0  0
  183.1220  178.5310  141.4090 C   0  0  0  0  0  2  0  0  0  0  0  0
  181.7180  178.1430  141.0310 C   0  0  0  0  0  3  0  0  0  0  0  0
  180.9280  179.1000  143.1340 C   0  0  0  0  0  3  0  0  0  0  0  0
  182.1630  179.1540  143.6450 C   0  0  0  0  0  3  0  0  0  0  0  0
  189.8500  176.5610  144.0470 C   0  0  0  0  0  2  0  0  0  0  0  0
  189.5520  176.5760  142.6240 N   0  0  0  0  0  2  0  0  0  0  0  0
  190.5030  177.0240  141.6550 C   0  0  0  0  0  0  0  0  0  0  0  0
  191.6410  177.4270  142.0220 O   0  0  0  0  0  0  0  0  0  0  0  0
  190.1490  177.0150  140.2300 C   0  0  0  0  0  0  0  0  0  0  0  0
  190.7410  176.0630  139.3520 N   0  0  0  0  0  2  0  0  0  0  0  0
  189.3010  177.8700  139.7620 N   0  0  0  0  0  1  0  0  0  0  0  0
  1  2  2  0  0  0  0
  1  3  1  0  0  0  0
  2 10  1  0  0  0  0
  3  4  1  0  0  0  0
  5  6  2  0  0  0  0
  7  9  1  0  0  0  0
  7  2  1  0  0  0  0
  8  5  1  0  0  0  0
  9  8  2  0  0  0  0
 10  4  2  0  0  0  0
 10  5  1  0  0  0  0
 11  1  1  0  0  0  0
 12 11  2  0  0  0  0
 13 11  1  6  0  0  0
 13 18  1  0  0  0  0
 14 17  1  0  0  0  0
 15 13  1  0  0  0  0
 16 15  1  0  0  0  0
 16 14  2  0  0  0  0
 17 18  2  0  0  0  0
 19  9  1  0  0  0  0
 20 19  1  0  0  0  0
 21 22  2  0  0  0  0
 21 20  1  0  0  0  0
 23 21  1  0  0  0  0
 24 23  2  0  0  0  0
 25 23  1  0  0  0  0
M  END
>  <MODEL>
6

>  <REMARK>
 VINA RESULT:      -8.4      2.162      2.882
  Name = 
  5 active torsions:
  status: ('A' for Active; 'I' for Inactive)
    1  A    between atoms: C_1  and  C_18
    2  A    between atoms: C_2  and  C_21
    3  A    between atoms: C_5  and  C_18
    4  A    between atoms: C_6  and  N_15
    5  A    between atoms: C_6  and  C_23
                            x       y       z     vdW  Elec       q    Type
                         _______ _______ _______ _____ _____    ______ ____

>  <TORSDO>
F 5

$$$$
=
 OpenBabel10272400523D

 25 27  0  0  1  0  0  0  0  0999 V2000
  184.8660  178.7530  144.7000 C   0  0  0  0  0  0  0  0  0  0  0  0
  185.5650  178.6690  143.5120 C   0  0  0  0  0  0  0  0  0  0  0  0
  183.6160  179.1990  144.4360 N   0  0  0  0  0  2  0  0  0  0  0  0
  183.4980  179.4000  143.1280 N   0  0  0  0  0  0  0  0  0  0  0  0
  185.0550  179.1220  141.1660 C   0  0  0  0  0  0  0  0  0  0  0  0
  184.2440  179.4950  140.2800 O   0  0  0  0  0  0  0  0  0  0  0  0
  186.9660  178.2350  143.1950 C   0  0  0  0  0  2  0  0  0  0  0  0
  186.3900  178.7240  140.8210 N   0  0  0  0  0  0  0  0  0  0  0  0
  187.2730  178.3340  141.7060 C   0  0  0  0  0  0  0  0  0  0  0  0
  184.6780  179.0790  142.5700 C   0  0  0  0  0  0  0  0  0  0  0  0
  185.3450  178.4220  146.0530 C   0  0  0  0  0  0  0  0  0  0  0  0
  184.5100  178.1340  146.9520 O   0  0  0  0  0  0  0  0  0  0  0  0
  186.8070  178.4220  146.3720 C   0  0  2  0  0  3  0  0  0  0  0  0
  189.1930  177.5950  147.6660 C   0  0  0  0  0  3  0  0  0  0  0  0
  187.4620  177.0920  145.9800 C   0  0  0  0  0  2  0  0  0  0  0  0
  188.8710  177.0190  146.5030 C   0  0  0  0  0  3  0  0  0  0  0  0
  188.1920  178.3830  148.4110 C   0  0  0  0  0  3  0  0  0  0  0  0
  187.0460  178.7450  147.8240 C   0  0  0  0  0  3  0  0  0  0  0  0
  188.6210  177.9170  141.2400 C   0  0  0  0  0  2  0  0  0  0  0  0
  189.5740  178.0370  142.3310 N   0  0  0  0  0  2  0  0  0  0  0  0
  190.3900  176.9400  142.7480 C   0  0  0  0  0  0  0  0  0  0  0  0
  190.2980  175.8240  142.1680 O   0  0  0  0  0  0  0  0  0  0  0  0
  191.3380  177.1180  143.8560 C   0  0  0  0  0  0  0  0  0  0  0  0
  191.8080  175.9880  144.5840 N   0  0  0  0  0  1  0  0  0  0  0  0
  191.7510  178.3000  144.1790 N   0  0  0  0  0  2  0  0  0  0  0  0
  1 11  1  0  0  0  0
  2  1  2  0  0  0  0
  3  1  1  0  0  0  0
  4  3  1  0  0  0  0
  5 10  1  0  0  0  0
  6  5  2  0  0  0  0
  7  2  1  0  0  0  0
  8  5  1  0  0  0  0
  8  9  2  0  0  0  0
  9  7  1  0  0  0  0
 10  4  2  0  0  0  0
 10  2  1  0  0  0  0
 11 12  2  0  0  0  0
 13 11  1  1  0  0  0
 13 18  1  0  0  0  0
 14 17  1  0  0  0  0
 15 13  1  0  0  0  0
 15 16  1  0  0  0  0
 16 14  2  0  0  0  0
 18 17  2  0  0  0  0
 19  9  1  0  0  0  0
 19 20  1  0  0  0  0
 20 21  1  0  0  0  0
 21 23  1  0  0  0  0
 22 21  2  0  0  0  0
 23 25  2  0  0  0  0
 23 24  1  0  0  0  0
M  END
>  <MODEL>
7

>  <REMARK>
 VINA RESULT:      -8.4      2.316      5.277
  Name = 
  5 active torsions:
  status: ('A' for Active; 'I' for Inactive)
    1  A    between atoms: C_1  and  C_18
    2  A    between atoms: C_2  and  C_21
    3  A    between atoms: C_5  and  C_18
    4  A    between atoms: C_6  and  N_15
    5  A    between atoms: C_6  and  C_23
                            x       y       z     vdW  Elec       q    Type
                         _______ _______ _______ _____ _____    ______ ____

>  <TORSDO>
F 5

$$$$
=
 OpenBabel10272400523D

 25 27  0  0  1  0  0  0  0  0999 V2000
  187.1560  177.9240  145.7730 C   0  0  0  0  0  0  0  0  0  0  0  0
  186.2590  178.1710  144.7520 C   0  0  0  0  0  0  0  0  0  0  0  0
  186.5420  178.1600  146.9550 N   0  0  0  0  0  2  0  0  0  0  0  0
  185.2920  178.5460  146.7210 N   0  0  0  0  0  0  0  0  0  0  0  0
  183.9280  178.8960  144.6320 C   0  0  0  0  0  0  0  0  0  0  0  0
  182.8650  179.2460  145.2060 O   0  0  0  0  0  0  0  0  0  0  0  0
  186.3760  178.0700  143.2600 C   0  0  0  0  0  2  0  0  0  0  0  0
  184.0010  178.8210  143.2000 N   0  0  0  0  0  0  0  0  0  0  0  0
  185.0850  178.4680  142.5550 C   0  0  0  0  0  0  0  0  0  0  0  0
  185.1210  178.5520  145.3880 C   0  0  0  0  0  0  0  0  0  0  0  0
  188.5530  177.4740  145.6550 C   0  0  0  0  0  0  0  0  0  0  0  0
  189.1050  176.9060  146.6350 O   0  0  0  0  0  0  0  0  0  0  0  0
  189.3220  177.6810  144.3890 C   0  0  2  0  0  3  0  0  0  0  0  0
  191.5310  177.4790  142.6170 C   0  0  0  0  0  3  0  0  0  0  0  0
  189.6200  176.3460  143.6940 C   0  0  0  0  0  2  0  0  0  0  0  0
  190.5770  176.5450  142.5500 C   0  0  0  0  0  3  0  0  0  0  0  0
  191.6050  178.3880  143.7790 C   0  0  0  0  0  3  0  0  0  0  0  0
  190.5860  178.4620  144.6420 C   0  0  0  0  0  3  0  0  0  0  0  0
  185.0470  178.3980  141.0710 C   0  0  0  0  0  2  0  0  0  0  0  0
  183.6920  178.6440  140.6060 N   0  0  0  0  0  2  0  0  0  0  0  0
  183.4010  179.6110  139.5940 C   0  0  0  0  0  0  0  0  0  0  0  0
  184.3320  180.2870  139.0770 O   0  0  0  0  0  0  0  0  0  0  0  0
  182.0130  179.8160  139.1600 C   0  0  0  0  0  0  0  0  0  0  0  0
  180.9420  179.2140  139.8800 N   0  0  0  0  0  1  0  0  0  0  0  0
  181.7540  180.5420  138.1230 N   0  0  0  0  0  2  0  0  0  0  0  0
  1  3  1  0  0  0  0
  2 10  1  0  0  0  0
  2  1  2  0  0  0  0
  4  3  1  0  0  0  0
  5  6  2  0  0  0  0
  5 10  1  0  0  0  0
  7  2  1  0  0  0  0
  8  5  1  0  0  0  0
  9  8  2  0  0  0  0
  9  7  1  0  0  0  0
 10  4  2  0  0  0  0
 11  1  1  0  0  0  0
 11 12  2  0  0  0  0
 13 18  1  0  0  0  0
 13 11  1  1  0  0  0
 14 17  1  0  0  0  0
 15 13  1  0  0  0  0
 16 14  2  0  0  0  0
 16 15  1  0  0  0  0
 17 18  2  0  0  0  0
 19  9  1  0  0  0  0
 20 19  1  0  0  0  0
 21 20  1  0  0  0  0
 22 21  2  0  0  0  0
 23 21  1  0  0  0  0
 23 24  1  0  0  0  0
 25 23  2  0  0  0  0
M  END
>  <MODEL>
8

>  <REMARK>
 VINA RESULT:      -8.2      3.082      5.950
  Name = 
  5 active torsions:
  status: ('A' for Active; 'I' for Inactive)
    1  A    between atoms: C_1  and  C_18
    2  A    between atoms: C_2  and  C_21
    3  A    between atoms: C_5  and  C_18
    4  A    between atoms: C_6  and  N_15
    5  A    between atoms: C_6  and  C_23
                            x       y       z     vdW  Elec       q    Type
                         _______ _______ _______ _____ _____    ______ ____

>  <TORSDO>
F 5

$$$$
=
 OpenBabel10272400523D

 25 27  0  0  1  0  0  0  0  0999 V2000
  188.2460  178.1370  140.8420 C   0  0  0  0  0  0  0  0  0  0  0  0
  187.1300  178.3500  141.6270 C   0  0  0  0  0  0  0  0  0  0  0  0
  187.9300  178.4130  139.5570 N   0  0  0  0  0  0  0  0  0  0  0  0
  186.6580  178.7930  139.4980 N   0  0  0  0  0  0  0  0  0  0  0  0
  184.8360  179.0840  141.2150 C   0  0  0  0  0  0  0  0  0  0  0  0
  183.9410  179.4650  140.4170 O   0  0  0  0  0  0  0  0  0  0  0  0
  186.8950  178.2170  143.1030 C   0  0  0  0  0  3  0  0  0  0  0  0
  184.5670  178.9620  142.6190 N   0  0  0  0  0  0  0  0  0  0  0  0
  185.4620  178.5650  143.4890 C   0  0  0  0  0  0  0  0  0  0  0  0
  186.1750  178.7540  140.7520 C   0  0  0  0  0  0  0  0  0  0  0  0
  189.5810  177.6910  141.2770 C   0  0  0  0  0  0  0  0  0  0  0  0
  190.4870  177.5210  140.4170 O   0  0  0  0  0  0  0  0  0  0  0  0
  189.8740  177.4370  142.7220 C   0  0  2  0  0  3  0  0  0  0  0  0
  191.4790  176.9160  145.0040 C   0  0  0  0  0  3  0  0  0  0  0  0
  190.7310  178.5600  143.3200 C   0  0  0  0  0  2  0  0  0  0  0  0
  191.2030  178.1890  144.7000 C   0  0  0  0  0  3  0  0  0  0  0  0
  191.2410  175.8450  144.0160 C   0  0  0  0  0  3  0  0  0  0  0  0
  190.5200  176.0900  142.9170 C   0  0  0  0  0  3  0  0  0  0  0  0
  185.0870  178.4970  144.9250 C   0  0  0  0  0  2  0  0  0  0  0  0
  186.1910  177.9440  145.6920 N   0  0  0  0  0  2  0  0  0  0  0  0
  186.5730  178.4760  146.9630 C   0  0  0  0  0  0  0  0  0  0  0  0
  185.9490  179.4560  147.4530 O   0  0  0  0  0  0  0  0  0  0  0  0
  187.6950  177.8760  147.6960 C   0  0  0  0  0  0  0  0  0  0  0  0
  188.6380  177.0550  147.0150 N   0  0  0  0  0  2  0  0  0  0  0  0
  187.8340  178.0880  148.9640 N   0  0  0  0  0  1  0  0  0  0  0  0
  1 11  1  0  0  0  0
  1  2  1  0  0  0  0
  2  7  2  0  0  0  0
  3  1  2  0  0  0  0
  4  3  1  0  0  0  0
  4 10  2  0  0  0  0
  5  8  1  0  0  0  0
  6  5  2  0  0  0  0
  7  9  1  0  0  0  0
  8  9  2  0  0  0  0
  9 19  1  0  0  0  0
 10  5  1  0  0  0  0
 10  2  1  0  0  0  0
 12 11  2  0  0  0  0
 13 11  1  6  0  0  0
 13 18  1  0  0  0  0
 13 15  1  0  0  0  0
 15 16  1  0  0  0  0
 16 14  2  0  0  0  0
 17 14  1  0  0  0  0
 18 17  2  0  0  0  0
 19 20  1  0  0  0  0
 20 21  1  0  0  0  0
 21 22  2  0  0  0  0
 21 23  1  0  0  0  0
 23 25  1  0  0  0  0
 24 23  2  0  0  0  0
M  END
>  <MODEL>
9

>  <REMARK>
 VINA RESULT:      -8.1      2.021      7.304
  Name = 
  5 active torsions:
  status: ('A' for Active; 'I' for Inactive)
    1  A    between atoms: C_1  and  C_18
    2  A    between atoms: C_2  and  C_21
    3  A    between atoms: C_5  and  C_18
    4  A    between atoms: C_6  and  N_15
    5  A    between atoms: C_6  and  C_23
                            x       y       z     vdW  Elec       q    Type
                         _______ _______ _______ _____ _____    ______ ____

>  <TORSDO>
F 5

$$$$
