=
 OpenBabel10272413093D

 32 37  0  0  1  0  0  0  0  0999 V2000
  189.5390  177.3300  142.7370 C   0  0  0  0  0  0  0  0  0  0  0  0
  187.7570  177.7850  144.3320 N   0  0  0  0  0  0  0  0  0  0  0  0
  190.9410  176.9360  142.4780 C   0  0  0  0  0  3  0  0  0  0  0  0
  189.1170  177.4530  144.0660 C   0  0  1  0  0  3  0  0  0  0  0  0
  187.2970  177.9060  145.6800 C   0  0  0  0  0  0  0  0  0  0  0  0
  183.2460  178.8380  142.9060 C   0  0  0  0  0  3  0  0  0  0  0  0
  186.8480  177.9860  143.2540 C   0  0  0  0  0  0  0  0  0  0  0  0
  183.8270  178.7290  145.2560 C   0  0  0  0  0  3  0  0  0  0  0  0
  185.1480  178.4100  144.9280 C   0  0  0  0  0  0  0  0  0  0  0  0
  189.9810  177.2490  145.1490 C   0  0  0  0  0  0  0  0  0  0  0  0
  186.0260  178.2110  145.9110 O   0  0  0  0  0  0  0  0  0  0  0  0
  189.5090  177.3770  146.4210 N   0  0  0  0  0  0  0  0  0  0  0  0
  191.4320  176.9070  144.9310 C   0  0  0  0  0  3  0  0  0  0  0  0
  187.3340  177.8530  141.9510 C   0  0  0  0  0  3  0  0  0  0  0  0
  188.6450  177.5410  141.7110 N   0  0  0  0  0  0  0  0  0  0  0  0
  185.5220  178.3040  143.5610 C   0  0  0  0  0  0  0  0  0  0  0  0
  188.2130  177.6930  146.7160 C   0  0  0  0  0  0  0  0  0  0  0  0
  191.8050  176.7380  143.4770 C   0  0  0  0  0  3  0  0  0  0  0  0
  182.8790  178.9420  144.2510 C   0  0  0  0  0  3  0  0  0  0  0  0
  184.5620  178.5210  142.5600 C   0  0  0  0  0  3  0  0  0  0  0  0
  188.7060  177.9100  137.9800 C   0  0  0  0  0  0  0  0  0  0  0  0
  187.9880  178.4890  136.9860 F   0  0  0  0  0  0  0  0  0  0  0  0
  189.0490  177.4320  140.3370 C   0  0  0  0  0  0  0  0  0  0  0  0
  189.8560  177.1830  137.6650 C   0  0  0  0  0  3  0  0  0  0  0  0
  190.1980  176.6970  140.0080 C   0  0  0  0  0  3  0  0  0  0  0  0
  188.2950  178.0310  139.3120 C   0  0  0  0  0  0  0  0  0  0  0  0
  187.1350  178.7370  139.6130 O   0  0  0  0  0  1  0  0  0  0  0  0
  190.6090  176.5700  138.6790 C   0  0  0  0  0  0  0  0  0  0  0  0
  193.0220  176.4420  138.1540 C   0  0  0  0  0  1  0  0  0  0  0  0
  191.7610  175.8330  138.3940 O   0  0  0  0  0  0  0  0  0  0  0  0
  187.7890  177.8090  148.1150 C   0  0  0  0  0  3  0  0  0  0  0  0
  188.6190  178.0810  149.0220 O   0  0  0  0  0  0  0  0  0  0  0  0
  2  5  1  0  0  0  0
  3  1  2  0  0  0  0
  3 18  1  0  0  0  0
  4  1  1  1  0  0  0
  4  2  1  0  0  0  0
  4 10  1  0  0  0  0
  5 11  1  0  0  0  0
  5 17  2  0  0  0  0
  6 19  1  0  0  0  0
  7 16  1  0  0  0  0
  7  2  1  0  0  0  0
  9  8  1  0  0  0  0
  9 11  1  0  0  0  0
 10 12  2  0  0  0  0
 12 17  1  0  0  0  0
 13 10  1  0  0  0  0
 14  7  2  0  0  0  0
 15 14  1  0  0  0  0
 15  1  1  0  0  0  0
 16  9  2  0  0  0  0
 17 31  1  0  0  0  0
 18 13  2  0  0  0  0
 19  8  2  0  0  0  0
 20  6  2  0  0  0  0
 20 16  1  0  0  0  0
 21 26  1  0  0  0  0
 22 21  1  0  0  0  0
 23 15  1  0  0  0  0
 24 21  2  0  0  0  0
 24 28  1  0  0  0  0
 25 23  1  0  0  0  0
 26 27  1  0  0  0  0
 26 23  2  0  0  0  0
 28 25  2  0  0  0  0
 29 30  1  0  0  0  0
 30 28  1  0  0  0  0
 31 32  2  0  0  0  0
M  END
>  <MODEL>
1

>  <REMARK>
 VINA RESULT:     -11.2      0.000      0.000
  Name = 
  3 active torsions:
  status: ('A' for Active; 'I' for Inactive)
    1  A    between atoms: C_13  and  CA_29
    2  A    between atoms: O_15  and  C_26
    3  A    between atoms: C_16  and  N_27
                            x       y       z     vdW  Elec       q    Type
                         _______ _______ _______ _____ _____    ______ ____

>  <TORSDO>
F 3

$$$$
=
 OpenBabel10272413093D

 32 37  0  0  1  0  0  0  0  0999 V2000
  187.1980  177.9990  143.9340 C   0  0  0  0  0  0  0  0  0  0  0  0
  186.9590  178.2610  141.5260 N   0  0  0  0  0  0  0  0  0  0  0  0
  186.5890  178.0290  145.2810 C   0  0  0  0  0  3  0  0  0  0  0  0
  186.3990  178.3320  142.8340 C   0  0  1  0  0  3  0  0  0  0  0  0
  186.1620  178.5860  140.3850 C   0  0  0  0  0  0  0  0  0  0  0  0
  190.6130  177.3600  138.4720 C   0  0  0  0  0  3  0  0  0  0  0  0
  188.3130  177.8560  141.3500 C   0  0  0  0  0  0  0  0  0  0  0  0
  188.4490  178.0860  137.6610 C   0  0  0  0  0  3  0  0  0  0  0  0
  187.9610  178.1390  138.9700 C   0  0  0  0  0  0  0  0  0  0  0  0
  185.0610  178.7220  142.9710 C   0  0  0  0  0  0  0  0  0  0  0  0
  186.6970  178.5100  139.1720 O   0  0  0  0  0  0  0  0  0  0  0  0
  184.3320  179.0280  141.8600 N   0  0  0  0  0  0  0  0  0  0  0  0
  184.4170  178.8260  144.3290 C   0  0  0  0  0  3  0  0  0  0  0  0
  189.0580  177.5420  142.4900 C   0  0  0  0  0  3  0  0  0  0  0  0
  188.5090  177.6210  143.7400 N   0  0  0  0  0  0  0  0  0  0  0  0
  188.8190  177.7950  140.0480 C   0  0  0  0  0  0  0  0  0  0  0  0
  184.8330  178.9720  140.5910 C   0  0  0  0  0  0  0  0  0  0  0  0
  185.3190  178.4010  145.4630 C   0  0  0  0  0  3  0  0  0  0  0  0
  189.7680  177.6980  137.4110 C   0  0  0  0  0  3  0  0  0  0  0  0
  190.1430  177.4080  139.7860 C   0  0  0  0  0  3  0  0  0  0  0  0
  191.2920  176.1340  145.7670 C   0  0  0  0  0  0  0  0  0  0  0  0
  192.3790  175.3410  145.6040 F   0  0  0  0  0  0  0  0  0  0  0  0
  189.3570  177.2820  144.8490 C   0  0  0  0  0  0  0  0  0  0  0  0
  190.9800  176.6250  147.0370 C   0  0  0  0  0  3  0  0  0  0  0  0
  189.0490  177.7620  146.1310 C   0  0  0  0  0  3  0  0  0  0  0  0
  190.4810  176.4540  144.6730 C   0  0  0  0  0  0  0  0  0  0  0  0
  190.7860  175.9410  143.4160 O   0  0  0  0  0  1  0  0  0  0  0  0
  189.8540  177.4410  147.2260 C   0  0  0  0  0  0  0  0  0  0  0  0
  188.1700  178.1170  148.9050 C   0  0  0  0  0  1  0  0  0  0  0  0
  189.5160  177.9420  148.4860 O   0  0  0  0  0  0  0  0  0  0  0  0
  183.9770  179.3170  139.4510 C   0  0  0  0  0  3  0  0  0  0  0  0
  184.0310  180.4600  138.9250 O   0  0  0  0  0  0  0  0  0  0  0  0
  1  3  2  0  0  0  0
  2  4  1  0  0  0  0
  3 18  1  0  0  0  0
  4 10  1  6  0  0  0
  4  1  1  0  0  0  0
  5 17  2  0  0  0  0
  5  2  1  0  0  0  0
  6 20  1  0  0  0  0
  7  2  1  0  0  0  0
  7 14  2  0  0  0  0
  8  9  2  0  0  0  0
  9 11  1  0  0  0  0
  9 16  1  0  0  0  0
 10 13  1  0  0  0  0
 11  5  1  0  0  0  0
 12 10  2  0  0  0  0
 13 18  2  0  0  0  0
 14 15  1  0  0  0  0
 15  1  1  0  0  0  0
 15 23  1  0  0  0  0
 16  7  1  0  0  0  0
 17 12  1  0  0  0  0
 19  8  1  0  0  0  0
 19  6  2  0  0  0  0
 20 16  2  0  0  0  0
 21 24  1  0  0  0  0
 22 21  1  0  0  0  0
 23 25  2  0  0  0  0
 24 28  2  0  0  0  0
 25 28  1  0  0  0  0
 26 23  1  0  0  0  0
 26 21  2  0  0  0  0
 27 26  1  0  0  0  0
 28 30  1  0  0  0  0
 30 29  1  0  0  0  0
 31 17  1  0  0  0  0
 32 31  2  0  0  0  0
M  END
>  <MODEL>
2

>  <REMARK>
 VINA RESULT:     -11.2      2.545      7.243
  Name = 
  3 active torsions:
  status: ('A' for Active; 'I' for Inactive)
    1  A    between atoms: C_13  and  CA_29
    2  A    between atoms: O_15  and  C_26
    3  A    between atoms: C_16  and  N_27
                            x       y       z     vdW  Elec       q    Type
                         _______ _______ _______ _____ _____    ______ ____

>  <TORSDO>
F 3

$$$$
=
 OpenBabel10272413093D

 32 37  0  0  0  0  0  0  0  0999 V2000
  189.3120  177.0490  138.2860 C   0  0  0  0  0  0  0  0  0  0  0  0
  188.6500  177.5810  140.5670 N   0  0  0  0  0  0  0  0  0  0  0  0
  189.0320  177.1110  136.8360 C   0  0  0  0  0  3  0  0  0  0  0  0
  188.3720  177.5920  139.1700 C   0  0  0  0  0  0  0  0  0  0  0  0
  187.7120  178.1390  141.4910 C   0  0  0  0  0  0  0  0  0  0  0  0
  191.4770  176.5470  144.3660 C   0  0  0  0  0  3  0  0  0  0  0  0
  189.8700  177.0260  141.0480 C   0  0  0  0  0  0  0  0  0  0  0  0
  189.3320  177.6360  144.6560 C   0  0  0  0  0  3  0  0  0  0  0  0
  189.1180  177.6110  143.2750 C   0  0  0  0  0  0  0  0  0  0  0  0
  187.1690  178.1570  138.7300 C   0  0  0  0  0  0  0  0  0  0  0  0
  187.9890  178.1260  142.7890 O   0  0  0  0  0  0  0  0  0  0  0  0
  186.2960  178.6760  139.6400 N   0  0  0  0  0  0  0  0  0  0  0  0
  186.8140  178.1860  137.2660 C   0  0  0  0  0  2  0  0  0  0  0  0
  190.7630  176.4950  140.1140 C   0  0  0  0  0  3  0  0  0  0  0  0
  190.4800  176.5050  138.7750 N   0  0  0  0  0  0  0  0  0  0  0  0
  190.1040  177.0420  142.4260 C   0  0  0  0  0  0  0  0  0  0  0  0
  186.5280  178.6850  140.9860 C   0  0  0  0  0  0  0  0  0  0  0  0
  187.8950  177.6350  136.3680 C   0  0  0  0  0  3  0  0  0  0  0  0
  190.5060  177.1070  145.2010 C   0  0  0  0  0  3  0  0  0  0  0  0
  191.2790  176.5130  142.9840 C   0  0  0  0  0  3  0  0  0  0  0  0
  192.2740  174.0870  136.5410 C   0  0  0  0  0  0  0  0  0  0  0  0
  192.1310  172.8310  136.0510 F   0  0  0  0  0  0  0  0  0  0  0  0
  191.4590  175.9330  137.8950 C   0  0  0  0  0  0  0  0  0  0  0  0
  193.3990  174.8380  136.1930 C   0  0  0  0  0  3  0  0  0  0  0  0
  192.5970  176.6740  137.5460 C   0  0  0  0  0  3  0  0  0  0  0  0
  191.3060  174.6260  137.3950 C   0  0  0  0  0  0  0  0  0  0  0  0
  190.2010  173.8610  137.7540 O   0  0  0  0  0  1  0  0  0  0  0  0
  193.5680  176.1370  136.6970 C   0  0  0  0  0  0  0  0  0  0  0  0
  195.2270  176.9600  135.0580 C   0  0  0  0  0  1  0  0  0  0  0  0
  194.6850  176.9100  136.3700 O   0  0  0  0  0  0  0  0  0  0  0  0
  185.5340  179.2660  141.8940 C   0  0  0  0  0  3  0  0  0  0  0  0
  184.7230  178.5330  142.5190 O   0  0  0  0  0  0  0  0  0  0  0  0
  1 15  1  0  0  0  0
  1  4  2  0  0  0  0
  2  7  1  0  0  0  0
  2  5  1  0  0  0  0
  3  1  1  0  0  0  0
  4  2  1  0  0  0  0
  5 11  1  0  0  0  0
  6 19  1  0  0  0  0
  7 16  1  0  0  0  0
  8 19  2  0  0  0  0
  9  8  1  0  0  0  0
 10  4  1  0  0  0  0
 10 12  2  0  0  0  0
 11  9  1  0  0  0  0
 12 17  1  0  0  0  0
 13 10  1  0  0  0  0
 14  7  2  0  0  0  0
 15 14  1  0  0  0  0
 16 20  1  0  0  0  0
 16  9  2  0  0  0  0
 17  5  2  0  0  0  0
 17 31  1  0  0  0  0
 18  3  2  0  0  0  0
 18 13  1  0  0  0  0
 20  6  2  0  0  0  0
 21 26  1  0  0  0  0
 22 21  1  0  0  0  0
 23 15  1  0  0  0  0
 24 21  2  0  0  0  0
 24 28  1  0  0  0  0
 25 23  1  0  0  0  0
 26 27  1  0  0  0  0
 26 23  2  0  0  0  0
 28 25  2  0  0  0  0
 29 30  1  0  0  0  0
 30 28  1  0  0  0  0
 31 32  2  0  0  0  0
M  END
>  <MODEL>
3

>  <REMARK>
 VINA RESULT:     -10.7      2.849      5.749
  Name = 
  3 active torsions:
  status: ('A' for Active; 'I' for Inactive)
    1  A    between atoms: C_13  and  CA_29
    2  A    between atoms: O_15  and  C_26
    3  A    between atoms: C_16  and  N_27
                            x       y       z     vdW  Elec       q    Type
                         _______ _______ _______ _____ _____    ______ ____

>  <TORSDO>
F 3

$$$$
=
 OpenBabel10272413093D

 32 37  0  0  0  0  0  0  0  0999 V2000
  187.7930  177.8860  141.6040 C   0  0  0  0  0  0  0  0  0  0  0  0
  187.9510  177.7100  144.0260 N   0  0  0  0  0  0  0  0  0  0  0  0
  187.0170  178.2780  140.4070 C   0  0  0  0  0  3  0  0  0  0  0  0
  187.1980  178.0380  142.8620 C   0  0  0  0  0  0  0  0  0  0  0  0
  187.3710  177.8650  145.3230 C   0  0  0  0  0  0  0  0  0  0  0  0
  191.9820  176.1630  146.2290 C   0  0  0  0  0  3  0  0  0  0  0  0
  189.2880  177.2370  143.9010 C   0  0  0  0  0  0  0  0  0  0  0  0
  190.0240  176.8110  147.5010 C   0  0  0  0  0  3  0  0  0  0  0  0
  189.3390  177.1110  146.3210 C   0  0  0  0  0  0  0  0  0  0  0  0
  185.8900  178.5130  143.0200 C   0  0  0  0  0  0  0  0  0  0  0  0
  188.0870  177.5600  146.3990 O   0  0  0  0  0  0  0  0  0  0  0  0
  185.3690  178.6450  144.2730 N   0  0  0  0  0  0  0  0  0  0  0  0
  185.0420  178.8650  141.8260 C   0  0  0  0  0  2  0  0  0  0  0  0
  189.8200  177.1030  142.6170 C   0  0  0  0  0  3  0  0  0  0  0  0
  189.0840  177.4150  141.5070 N   0  0  0  0  0  0  0  0  0  0  0  0
  189.9910  176.9320  145.0710 C   0  0  0  0  0  0  0  0  0  0  0  0
  186.0580  178.3420  145.4120 C   0  0  0  0  0  0  0  0  0  0  0  0
  185.7640  178.7300  140.5070 C   0  0  0  0  0  3  0  0  0  0  0  0
  191.3400  176.3400  147.4580 C   0  0  0  0  0  3  0  0  0  0  0  0
  191.3120  176.4580  145.0390 C   0  0  0  0  0  3  0  0  0  0  0  0
  191.7190  177.0380  138.8660 C   0  0  0  0  0  0  0  0  0  0  0  0
  193.0690  177.0000  138.7510 F   0  0  0  0  0  0  0  0  0  0  0  0
  189.7180  177.2400  140.2310 C   0  0  0  0  0  0  0  0  0  0  0  0
  190.9260  176.9150  137.7230 C   0  0  0  0  0  3  0  0  0  0  0  0
  188.9330  177.1240  139.0750 C   0  0  0  0  0  3  0  0  0  0  0  0
  191.1210  177.2070  140.1200 C   0  0  0  0  0  0  0  0  0  0  0  0
  191.9190  177.3520  141.2490 O   0  0  0  0  0  1  0  0  0  0  0  0
  189.5260  176.9600  137.8210 C   0  0  0  0  0  0  0  0  0  0  0  0
  187.3620  177.2960  136.6740 C   0  0  0  0  0  1  0  0  0  0  0  0
  188.7080  176.8440  136.6940 O   0  0  0  0  0  0  0  0  0  0  0  0
  185.4200  178.5150  146.7210 C   0  0  0  0  0  3  0  0  0  0  0  0
  185.6080  179.5600  147.3980 O   0  0  0  0  0  0  0  0  0  0  0  0
  1  4  2  0  0  0  0
  2  5  1  0  0  0  0
  3 18  2  0  0  0  0
  3  1  1  0  0  0  0
  4 10  1  0  0  0  0
  4  2  1  0  0  0  0
  5 17  2  0  0  0  0
  5 11  1  0  0  0  0
  6 19  1  0  0  0  0
  7  2  1  0  0  0  0
  7 16  1  0  0  0  0
  9 11  1  0  0  0  0
  9  8  1  0  0  0  0
 10 12  2  0  0  0  0
 12 17  1  0  0  0  0
 13 10  1  0  0  0  0
 14  7  2  0  0  0  0
 15  1  1  0  0  0  0
 15 14  1  0  0  0  0
 16  9  2  0  0  0  0
 17 31  1  0  0  0  0
 18 13  1  0  0  0  0
 19  8  2  0  0  0  0
 20 16  1  0  0  0  0
 20  6  2  0  0  0  0
 21 26  1  0  0  0  0
 22 21  1  0  0  0  0
 23 15  1  0  0  0  0
 24 28  1  0  0  0  0
 24 21  2  0  0  0  0
 25 23  1  0  0  0  0
 26 23  2  0  0  0  0
 26 27  1  0  0  0  0
 28 25  2  0  0  0  0
 29 30  1  0  0  0  0
 30 28  1  0  0  0  0
 31 32  2  0  0  0  0
M  END
>  <MODEL>
4

>  <REMARK>
 VINA RESULT:     -10.7      1.934      4.658
  Name = 
  3 active torsions:
  status: ('A' for Active; 'I' for Inactive)
    1  A    between atoms: C_13  and  CA_29
    2  A    between atoms: O_15  and  C_26
    3  A    between atoms: C_16  and  N_27
                            x       y       z     vdW  Elec       q    Type
                         _______ _______ _______ _____ _____    ______ ____

>  <TORSDO>
F 3

$$$$
=
 OpenBabel10272413093D

 32 37  0  0  0  0  0  0  0  0999 V2000
  189.4750  177.6330  142.6200 C   0  0  0  0  0  0  0  0  0  0  0  0
  187.6730  178.0810  141.0470 N   0  0  0  0  0  0  0  0  0  0  0  0
  190.9150  177.4080  142.8700 C   0  0  0  0  0  3  0  0  0  0  0  0
  189.0500  177.8160  141.2990 C   0  0  0  0  0  0  0  0  0  0  0  0
  187.2140  178.2820  139.7080 C   0  0  0  0  0  0  0  0  0  0  0  0
  183.1060  178.7890  142.5090 C   0  0  0  0  0  3  0  0  0  0  0  0
  186.7510  178.1600  142.1290 C   0  0  0  0  0  0  0  0  0  0  0  0
  183.7020  178.8790  140.1620 C   0  0  0  0  0  3  0  0  0  0  0  0
  185.0370  178.6110  140.4770 C   0  0  0  0  0  0  0  0  0  0  0  0
  189.9320  177.7580  140.2130 C   0  0  0  0  0  0  0  0  0  0  0  0
  185.9290  178.5340  139.4890 O   0  0  0  0  0  0  0  0  0  0  0  0
  189.4580  177.9510  138.9490 N   0  0  0  0  0  0  0  0  0  0  0  0
  191.3960  177.4690  140.4170 C   0  0  0  0  0  2  0  0  0  0  0  0
  187.2390  177.9630  143.4230 C   0  0  0  0  0  3  0  0  0  0  0  0
  188.5630  177.7010  143.6500 N   0  0  0  0  0  0  0  0  0  0  0  0
  185.4110  178.4290  141.8350 C   0  0  0  0  0  0  0  0  0  0  0  0
  188.1460  178.2080  138.6670 C   0  0  0  0  0  0  0  0  0  0  0  0
  191.7940  177.3380  141.8670 C   0  0  0  0  0  3  0  0  0  0  0  0
  182.7390  178.9680  141.1720 C   0  0  0  0  0  3  0  0  0  0  0  0
  184.4360  178.5200  142.8410 C   0  0  0  0  0  3  0  0  0  0  0  0
  188.4650  177.4870  147.3920 C   0  0  0  0  0  0  0  0  0  0  0  0
  187.5870  177.6410  148.4140 F   0  0  0  0  0  0  0  0  0  0  0  0
  188.9660  177.5100  145.0150 C   0  0  0  0  0  0  0  0  0  0  0  0
  189.7910  177.1470  147.6690 C   0  0  0  0  0  3  0  0  0  0  0  0
  190.2970  177.1760  145.3050 C   0  0  0  0  0  3  0  0  0  0  0  0
  188.0500  177.6760  146.0700 C   0  0  0  0  0  0  0  0  0  0  0  0
  186.7330  178.0390  145.8060 O   0  0  0  0  0  1  0  0  0  0  0  0
  190.7160  176.9910  146.6250 C   0  0  0  0  0  0  0  0  0  0  0  0
  192.4320  175.6950  147.8470 C   0  0  0  0  0  1  0  0  0  0  0  0
  192.0500  176.6550  146.8710 O   0  0  0  0  0  0  0  0  0  0  0  0
  187.7220  178.4040  137.2770 C   0  0  0  0  0  3  0  0  0  0  0  0
  187.5740  179.5610  136.8030 O   0  0  0  0  0  0  0  0  0  0  0  0
  1  3  1  0  0  0  0
  1 15  1  0  0  0  0
  2  4  1  0  0  0  0
  2  7  1  0  0  0  0
  4  1  2  0  0  0  0
  5  2  1  0  0  0  0
  6 20  1  0  0  0  0
  7 14  2  0  0  0  0
  8  9  2  0  0  0  0
  8 19  1  0  0  0  0
  9 16  1  0  0  0  0
 10 13  1  0  0  0  0
 10  4  1  0  0  0  0
 11  5  1  0  0  0  0
 11  9  1  0  0  0  0
 12 10  2  0  0  0  0
 13 18  1  0  0  0  0
 14 15  1  0  0  0  0
 15 23  1  0  0  0  0
 16  7  1  0  0  0  0
 16 20  2  0  0  0  0
 17 12  1  0  0  0  0
 17  5  2  0  0  0  0
 18  3  2  0  0  0  0
 19  6  2  0  0  0  0
 21 24  1  0  0  0  0
 21 22  1  0  0  0  0
 23 25  2  0  0  0  0
 23 26  1  0  0  0  0
 25 28  1  0  0  0  0
 26 21  2  0  0  0  0
 27 26  1  0  0  0  0
 28 30  1  0  0  0  0
 28 24  2  0  0  0  0
 30 29  1  0  0  0  0
 31 17  1  0  0  0  0
 32 31  2  0  0  0  0
M  END
>  <MODEL>
5

>  <REMARK>
 VINA RESULT:     -10.6      2.728      6.345
  Name = 
  3 active torsions:
  status: ('A' for Active; 'I' for Inactive)
    1  A    between atoms: C_13  and  CA_29
    2  A    between atoms: O_15  and  C_26
    3  A    between atoms: C_16  and  N_27
                            x       y       z     vdW  Elec       q    Type
                         _______ _______ _______ _____ _____    ______ ____

>  <TORSDO>
F 3

$$$$
=
 OpenBabel10272413093D

 32 37  0  0  1  0  0  0  0  0999 V2000
  185.2690  178.4150  143.7810 C   0  0  0  0  0  0  0  0  0  0  0  0
  187.6510  177.9280  143.6710 N   0  0  0  0  0  0  0  0  0  0  0  0
  184.0680  178.7000  144.5950 C   0  0  0  0  0  3  0  0  0  0  0  0
  186.4750  178.1570  144.4420 C   0  0  1  0  0  3  0  0  0  0  0  0
  188.8980  177.6720  144.3210 C   0  0  0  0  0  0  0  0  0  0  0  0
  189.9950  177.5260  139.4470 C   0  0  0  0  0  3  0  0  0  0  0  0
  187.5900  177.9650  142.2480 C   0  0  0  0  0  0  0  0  0  0  0  0
  191.1550  177.2600  141.5580 C   0  0  0  0  0  3  0  0  0  0  0  0
  189.9660  177.4880  142.2550 C   0  0  0  0  0  0  0  0  0  0  0  0
  186.5730  178.1270  145.8390 C   0  0  0  0  0  0  0  0  0  0  0  0
  189.9860  177.4660  143.5880 O   0  0  0  0  0  0  0  0  0  0  0  0
  187.7780  177.8760  146.4240 N   0  0  0  0  0  0  0  0  0  0  0  0
  185.3620  178.3500  146.7060 C   0  0  0  0  0  3  0  0  0  0  0  0
  186.3540  178.2220  141.6510 C   0  0  0  0  0  3  0  0  0  0  0  0
  185.2320  178.4330  142.4040 N   0  0  0  0  0  0  0  0  0  0  0  0
  188.7700  177.7400  141.5320 C   0  0  0  0  0  0  0  0  0  0  0  0
  188.9260  177.6520  145.7190 C   0  0  0  0  0  0  0  0  0  0  0  0
  184.1090  178.6760  145.9300 C   0  0  0  0  0  3  0  0  0  0  0  0
  191.1720  177.2790  140.1600 C   0  0  0  0  0  3  0  0  0  0  0  0
  188.7970  177.7550  140.1290 C   0  0  0  0  0  3  0  0  0  0  0  0
  182.8180  179.4680  139.7270 C   0  0  0  0  0  0  0  0  0  0  0  0
  182.8240  179.9840  138.4730 F   0  0  0  0  0  0  0  0  0  0  0  0
  184.0080  178.6860  141.6960 C   0  0  0  0  0  0  0  0  0  0  0  0
  181.6010  179.1860  140.3500 C   0  0  0  0  0  3  0  0  0  0  0  0
  182.7790  178.4150  142.3150 C   0  0  0  0  0  3  0  0  0  0  0  0
  184.0220  179.2260  140.3970 C   0  0  0  0  0  0  0  0  0  0  0  0
  185.2290  179.5330  139.7770 O   0  0  0  0  0  1  0  0  0  0  0  0
  181.5740  178.6590  141.6510 C   0  0  0  0  0  0  0  0  0  0  0  0
  180.2160  178.4790  143.7090 C   0  0  0  0  0  1  0  0  0  0  0  0
  180.3720  178.3720  142.3010 O   0  0  0  0  0  0  0  0  0  0  0  0
  190.1820  177.3910  146.4310 C   0  0  0  0  0  3  0  0  0  0  0  0
  190.2000  176.6810  147.4710 O   0  0  0  0  0  0  0  0  0  0  0  0
  1  3  2  0  0  0  0
  2  5  1  0  0  0  0
  2  4  1  0  0  0  0
  3 18  1  0  0  0  0
  4  1  1  1  0  0  0
  4 10  1  0  0  0  0
  5 17  2  0  0  0  0
  6 20  2  0  0  0  0
  6 19  1  0  0  0  0
  7  2  1  0  0  0  0
  8  9  1  0  0  0  0
  9 11  1  0  0  0  0
 10 12  2  0  0  0  0
 10 13  1  0  0  0  0
 11  5  1  0  0  0  0
 14  7  2  0  0  0  0
 14 15  1  0  0  0  0
 15  1  1  0  0  0  0
 16  7  1  0  0  0  0
 16  9  2  0  0  0  0
 17 12  1  0  0  0  0
 17 31  1  0  0  0  0
 18 13  2  0  0  0  0
 19  8  2  0  0  0  0
 20 16  1  0  0  0  0
 21 24  2  0  0  0  0
 21 26  1  0  0  0  0
 22 21  1  0  0  0  0
 23 25  1  0  0  0  0
 23 15  1  0  0  0  0
 24 28  1  0  0  0  0
 26 23  2  0  0  0  0
 27 26  1  0  0  0  0
 28 30  1  0  0  0  0
 28 25  2  0  0  0  0
 30 29  1  0  0  0  0
 31 32  2  0  0  0  0
M  END
>  <MODEL>
6

>  <REMARK>
 VINA RESULT:     -10.5      2.368      6.300
  Name = 
  3 active torsions:
  status: ('A' for Active; 'I' for Inactive)
    1  A    between atoms: C_13  and  CA_29
    2  A    between atoms: O_15  and  C_26
    3  A    between atoms: C_16  and  N_27
                            x       y       z     vdW  Elec       q    Type
                         _______ _______ _______ _____ _____    ______ ____

>  <TORSDO>
F 3

$$$$
=
 OpenBabel10272413093D

 32 37  0  0  0  0  0  0  0  0999 V2000
  185.8890  178.4200  139.6500 C   0  0  0  0  0  0  0  0  0  0  0  0
  186.9570  178.1800  141.8230 N   0  0  0  0  0  0  0  0  0  0  0  0
  185.9880  178.3800  138.1750 C   0  0  0  0  0  3  0  0  0  0  0  0
  187.0470  178.1920  140.4010 C   0  0  0  0  0  0  0  0  0  0  0  0
  188.1230  177.9390  142.6150 C   0  0  0  0  0  0  0  0  0  0  0  0
  184.4620  178.5440  145.9630 C   0  0  0  0  0  3  0  0  0  0  0  0
  185.7020  178.3960  142.4610 C   0  0  0  0  0  0  0  0  0  0  0  0
  186.8440  178.1000  145.9670 C   0  0  0  0  0  3  0  0  0  0  0  0
  186.8650  178.1290  144.5700 C   0  0  0  0  0  0  0  0  0  0  0  0
  188.2940  177.9620  139.8060 C   0  0  0  0  0  0  0  0  0  0  0  0
  188.0210  177.9260  143.9380 O   0  0  0  0  0  0  0  0  0  0  0  0
  189.3850  177.7400  140.5930 N   0  0  0  0  0  0  0  0  0  0  0  0
  188.4530  177.9750  138.3080 C   0  0  0  0  0  2  0  0  0  0  0  0
  184.5860  178.6240  141.6530 C   0  0  0  0  0  3  0  0  0  0  0  0
  184.6880  178.6400  140.2890 N   0  0  0  0  0  0  0  0  0  0  0  0
  185.6600  178.3700  143.8580 C   0  0  0  0  0  0  0  0  0  0  0  0
  189.3380  177.7200  141.9570 C   0  0  0  0  0  0  0  0  0  0  0  0
  187.1560  178.1720  137.5610 C   0  0  0  0  0  3  0  0  0  0  0  0
  185.6490  178.3060  146.6620 C   0  0  0  0  0  3  0  0  0  0  0  0
  184.4650  178.5770  144.5660 C   0  0  0  0  0  3  0  0  0  0  0  0
  181.4660  178.0880  138.4520 C   0  0  0  0  0  0  0  0  0  0  0  0
  180.6380  177.0740  138.0980 F   0  0  0  0  0  0  0  0  0  0  0  0
  183.4840  178.8850  139.5450 C   0  0  0  0  0  0  0  0  0  0  0  0
  181.1510  179.3960  138.0790 C   0  0  0  0  0  3  0  0  0  0  0  0
  183.1610  180.1940  139.1580 C   0  0  0  0  0  3  0  0  0  0  0  0
  182.6330  177.8270  139.1780 C   0  0  0  0  0  0  0  0  0  0  0  0
  182.9500  176.5170  139.5240 O   0  0  0  0  0  1  0  0  0  0  0  0
  181.9990  180.4580  138.4290 C   0  0  0  0  0  0  0  0  0  0  0  0
  180.5970  182.1250  137.2580 C   0  0  0  0  0  1  0  0  0  0  0  0
  181.7120  181.7770  138.0660 O   0  0  0  0  0  0  0  0  0  0  0  0
  190.5620  177.4720  142.7270 C   0  0  0  0  0  3  0  0  0  0  0  0
  190.8970  176.3010  143.0480 O   0  0  0  0  0  0  0  0  0  0  0  0
  1 15  1  0  0  0  0
  1  4  2  0  0  0  0
  2  7  1  0  0  0  0
  2  5  1  0  0  0  0
  3  1  1  0  0  0  0
  4  2  1  0  0  0  0
  5 11  1  0  0  0  0
  6 19  1  0  0  0  0
  7 16  1  0  0  0  0
  8 19  2  0  0  0  0
  9  8  1  0  0  0  0
 10  4  1  0  0  0  0
 10 12  2  0  0  0  0
 11  9  1  0  0  0  0
 12 17  1  0  0  0  0
 13 10  1  0  0  0  0
 14  7  2  0  0  0  0
 15 14  1  0  0  0  0
 16 20  1  0  0  0  0
 16  9  2  0  0  0  0
 17  5  2  0  0  0  0
 17 31  1  0  0  0  0
 18  3  2  0  0  0  0
 18 13  1  0  0  0  0
 20  6  2  0  0  0  0
 21 26  1  0  0  0  0
 22 21  1  0  0  0  0
 23 15  1  0  0  0  0
 24 28  1  0  0  0  0
 24 21  2  0  0  0  0
 25 23  1  0  0  0  0
 26 27  1  0  0  0  0
 26 23  2  0  0  0  0
 28 25  2  0  0  0  0
 29 30  1  0  0  0  0
 30 28  1  0  0  0  0
 31 32  2  0  0  0  0
M  END
>  <MODEL>
7

>  <REMARK>
 VINA RESULT:     -10.4      3.410      6.180
  Name = 
  3 active torsions:
  status: ('A' for Active; 'I' for Inactive)
    1  A    between atoms: C_13  and  CA_29
    2  A    between atoms: O_15  and  C_26
    3  A    between atoms: C_16  and  N_27
                            x       y       z     vdW  Elec       q    Type
                         _______ _______ _______ _____ _____    ______ ____

>  <TORSDO>
F 3

$$$$
=
 OpenBabel10272413093D

 32 37  0  0  0  0  0  0  0  0999 V2000
  187.7990  177.9050  140.9390 C   0  0  0  0  0  0  0  0  0  0  0  0
  187.0580  178.0440  143.2520 N   0  0  0  0  0  0  0  0  0  0  0  0
  187.5210  178.1160  139.5020 C   0  0  0  0  0  3  0  0  0  0  0  0
  186.7880  178.1970  141.8620 C   0  0  0  0  0  0  0  0  0  0  0  0
  186.0470  178.3450  144.2180 C   0  0  0  0  0  0  0  0  0  0  0  0
  189.9790  176.9210  146.9540 C   0  0  0  0  0  3  0  0  0  0  0  0
  188.3400  177.6020  143.6870 C   0  0  0  0  0  0  0  0  0  0  0  0
  187.7030  177.6630  147.3300 C   0  0  0  0  0  3  0  0  0  0  0  0
  187.5020  177.7880  145.9530 C   0  0  0  0  0  0  0  0  0  0  0  0
  185.5220  178.6460  141.4700 C   0  0  0  0  0  0  0  0  0  0  0  0
  186.3150  178.2030  145.5100 O   0  0  0  0  0  0  0  0  0  0  0  0
  184.5810  178.9200  142.4170 N   0  0  0  0  0  0  0  0  0  0  0  0
  185.1750  178.8160  140.0130 C   0  0  0  0  0  2  0  0  0  0  0  0
  189.3030  177.3220  142.7140 C   0  0  0  0  0  3  0  0  0  0  0  0
  189.0280  177.4660  141.3820 N   0  0  0  0  0  0  0  0  0  0  0  0
  188.5620  177.4720  145.0610 C   0  0  0  0  0  0  0  0  0  0  0  0
  184.8010  178.7870  143.7590 C   0  0  0  0  0  0  0  0  0  0  0  0
  186.3260  178.5360  139.0780 C   0  0  0  0  0  3  0  0  0  0  0  0
  188.9360  177.2320  147.8300 C   0  0  0  0  0  3  0  0  0  0  0  0
  189.7950  177.0400  145.5740 C   0  0  0  0  0  3  0  0  0  0  0  0
  192.4350  177.1210  139.8550 C   0  0  0  0  0  0  0  0  0  0  0  0
  193.7310  177.3880  140.1490 F   0  0  0  0  0  0  0  0  0  0  0  0
  190.0820  177.1500  140.4580 C   0  0  0  0  0  0  0  0  0  0  0  0
  192.1130  176.5380  138.6280 C   0  0  0  0  0  3  0  0  0  0  0  0
  189.7700  176.5720  139.2200 C   0  0  0  0  0  3  0  0  0  0  0  0
  191.4240  177.4350  140.7700 C   0  0  0  0  0  0  0  0  0  0  0  0
  191.7530  178.0380  141.9790 O   0  0  0  0  0  1  0  0  0  0  0  0
  190.7760  176.2610  138.3020 C   0  0  0  0  0  0  0  0  0  0  0  0
  189.4860  174.6200  136.9760 C   0  0  0  0  0  1  0  0  0  0  0  0
  190.4240  175.6820  137.0800 O   0  0  0  0  0  0  0  0  0  0  0  0
  183.7320  179.1060  144.7110 C   0  0  0  0  0  3  0  0  0  0  0  0
  182.5370  178.7880  144.4710 O   0  0  0  0  0  0  0  0  0  0  0  0
  1 15  1  0  0  0  0
  1  4  2  0  0  0  0
  2  7  1  0  0  0  0
  2  5  1  0  0  0  0
  3  1  1  0  0  0  0
  4  2  1  0  0  0  0
  5 11  1  0  0  0  0
  6 19  1  0  0  0  0
  7 16  1  0  0  0  0
  8 19  2  0  0  0  0
  9  8  1  0  0  0  0
 10  4  1  0  0  0  0
 10 12  2  0  0  0  0
 11  9  1  0  0  0  0
 12 17  1  0  0  0  0
 13 10  1  0  0  0  0
 14  7  2  0  0  0  0
 15 14  1  0  0  0  0
 16 20  1  0  0  0  0
 16  9  2  0  0  0  0
 17  5  2  0  0  0  0
 17 31  1  0  0  0  0
 18  3  2  0  0  0  0
 18 13  1  0  0  0  0
 20  6  2  0  0  0  0
 21 22  1  0  0  0  0
 21 26  1  0  0  0  0
 23 26  2  0  0  0  0
 23 15  1  0  0  0  0
 24 21  2  0  0  0  0
 25 23  1  0  0  0  0
 26 27  1  0  0  0  0
 28 24  1  0  0  0  0
 28 25  2  0  0  0  0
 29 30  1  0  0  0  0
 30 28  1  0  0  0  0
 32 31  2  0  0  0  0
M  END
>  <MODEL>
8

>  <REMARK>
 VINA RESULT:     -10.2      2.136      4.635
  Name = 
  3 active torsions:
  status: ('A' for Active; 'I' for Inactive)
    1  A    between atoms: C_13  and  CA_29
    2  A    between atoms: O_15  and  C_26
    3  A    between atoms: C_16  and  N_27
                            x       y       z     vdW  Elec       q    Type
                         _______ _______ _______ _____ _____    ______ ____

>  <TORSDO>
F 3

$$$$
=
 OpenBabel10272413093D

 32 37  0  0  0  0  0  0  0  0999 V2000
  185.6420  178.3860  139.5440 C   0  0  0  0  0  0  0  0  0  0  0  0
  186.7620  178.2250  141.6990 N   0  0  0  0  0  0  0  0  0  0  0  0
  185.7130  178.3250  138.0690 C   0  0  0  0  0  3  0  0  0  0  0  0
  186.8230  178.2160  140.2750 C   0  0  0  0  0  0  0  0  0  0  0  0
  187.9520  178.0440  142.4700 C   0  0  0  0  0  0  0  0  0  0  0  0
  184.3390  178.5600  145.8830 C   0  0  0  0  0  3  0  0  0  0  0  0
  185.5130  178.4020  142.3590 C   0  0  0  0  0  0  0  0  0  0  0  0
  186.7360  178.2110  145.8440 C   0  0  0  0  0  3  0  0  0  0  0  0
  186.7280  178.2170  144.4470 C   0  0  0  0  0  0  0  0  0  0  0  0
  188.0660  178.0270  139.6580 C   0  0  0  0  0  0  0  0  0  0  0  0
  187.8780  178.0490  143.7950 O   0  0  0  0  0  0  0  0  0  0  0  0
  189.1800  177.8610  140.4250 N   0  0  0  0  0  0  0  0  0  0  0  0
  188.1940  178.0200  138.1570 C   0  0  0  0  0  2  0  0  0  0  0  0
  184.3720  178.5710  141.5710 C   0  0  0  0  0  3  0  0  0  0  0  0
  184.4460  178.5680  140.2050 N   0  0  0  0  0  0  0  0  0  0  0  0
  185.4990  178.3980  143.7570 C   0  0  0  0  0  0  0  0  0  0  0  0
  189.1620  177.8630  141.7910 C   0  0  0  0  0  0  0  0  0  0  0  0
  186.8760  178.1530  137.4340 C   0  0  0  0  0  3  0  0  0  0  0  0
  185.5470  178.3810  146.5610 C   0  0  0  0  0  3  0  0  0  0  0  0
  184.3120  178.5690  144.4860 C   0  0  0  0  0  3  0  0  0  0  0  0
  181.7420  180.1250  138.1250 C   0  0  0  0  0  0  0  0  0  0  0  0
  181.4730  181.2870  137.4810 F   0  0  0  0  0  0  0  0  0  0  0  0
  183.2180  178.7530  139.4830 C   0  0  0  0  0  0  0  0  0  0  0  0
  180.8050  179.0890  138.0980 C   0  0  0  0  0  3  0  0  0  0  0  0
  182.2670  177.7240  139.4550 C   0  0  0  0  0  3  0  0  0  0  0  0
  182.9450  179.9640  138.8210 C   0  0  0  0  0  0  0  0  0  0  0  0
  183.8610  181.0110  138.8620 O   0  0  0  0  0  1  0  0  0  0  0  0
  181.0620  177.8820  138.7660 C   0  0  0  0  0  0  0  0  0  0  0  0
  180.1800  175.7720  139.7060 C   0  0  0  0  0  1  0  0  0  0  0  0
  180.1420  176.8300  138.7590 O   0  0  0  0  0  0  0  0  0  0  0  0
  190.4100  177.6760  142.5390 C   0  0  0  0  0  3  0  0  0  0  0  0
  191.5200  177.6400  141.9460 O   0  0  0  0  0  0  0  0  0  0  0  0
  1 15  1  0  0  0  0
  1  4  2  0  0  0  0
  2  7  1  0  0  0  0
  2  5  1  0  0  0  0
  3  1  1  0  0  0  0
  4  2  1  0  0  0  0
  5 11  1  0  0  0  0
  6 19  1  0  0  0  0
  7 16  1  0  0  0  0
  8 19  2  0  0  0  0
  9  8  1  0  0  0  0
 10  4  1  0  0  0  0
 10 12  2  0  0  0  0
 11  9  1  0  0  0  0
 12 17  1  0  0  0  0
 13 10  1  0  0  0  0
 14  7  2  0  0  0  0
 15 14  1  0  0  0  0
 16  9  2  0  0  0  0
 16 20  1  0  0  0  0
 17  5  2  0  0  0  0
 17 31  1  0  0  0  0
 18  3  2  0  0  0  0
 18 13  1  0  0  0  0
 20  6  2  0  0  0  0
 21 26  1  0  0  0  0
 22 21  1  0  0  0  0
 23 15  1  0  0  0  0
 24 21  2  0  0  0  0
 24 28  1  0  0  0  0
 25 23  1  0  0  0  0
 26 27  1  0  0  0  0
 26 23  2  0  0  0  0
 28 25  2  0  0  0  0
 30 28  1  0  0  0  0
 30 29  1  0  0  0  0
 32 31  2  0  0  0  0
M  END
>  <MODEL>
9

>  <REMARK>
 VINA RESULT:     -10.2      3.337      6.233
  Name = 
  3 active torsions:
  status: ('A' for Active; 'I' for Inactive)
    1  A    between atoms: C_13  and  CA_29
    2  A    between atoms: O_15  and  C_26
    3  A    between atoms: C_16  and  N_27
                            x       y       z     vdW  Elec       q    Type
                         _______ _______ _______ _____ _____    ______ ____

>  <TORSDO>
F 3

$$$$
