=
 OpenBabel10262423423D

 34 37  0  0  1  0  0  0  0  0999 V2000
  183.3640  178.0790  139.8190 C   0  0  1  0  0  3  0  0  0  0  0  0
  185.3570  178.9160  141.0650 C   0  0  0  0  0  0  0  0  0  0  0  0
  183.4710  178.6770  142.3580 C   0  0  0  0  0  2  0  0  0  0  0  0
  185.7050  179.4770  142.2700 O   0  0  0  0  0  0  0  0  0  0  0  0
  184.3520  177.8600  138.6820 C   0  0  0  0  0  0  0  0  0  0  0  0
  186.1130  178.8790  140.0180 N   0  0  0  0  0  0  0  0  0  0  0  0
  185.6530  178.2710  138.7930 C   0  0  0  0  0  0  0  0  0  0  0  0
  184.6040  179.3580  143.1690 C   0  0  2  0  0  3  0  0  0  0  0  0
  184.0640  178.3850  141.0630 N   0  0  0  0  0  0  0  0  0  0  0  0
  182.8060  180.2440  138.8660 N   0  0  0  0  0  0  0  0  0  0  0  0
  180.9390  178.9830  139.8380 C   0  0  0  0  0  0  0  0  0  0  0  0
  180.6700  181.3280  138.9200 C   0  0  0  0  0  3  0  0  0  0  0  0
  180.1670  180.2130  139.6610 N   0  0  0  0  0  0  0  0  0  0  0  0
  182.3930  179.1740  139.4840 C   0  0  0  0  0  0  0  0  0  0  0  0
  181.9400  181.3350  138.5310 C   0  0  0  0  0  3  0  0  0  0  0  0
  180.3970  177.9860  139.0480 F   0  0  0  0  0  0  0  0  0  0  0  0
  186.6630  178.1050  137.7170 C   0  0  0  0  0  0  0  0  0  0  0  0
  186.8470  179.0070  136.8560 O   0  0  0  0  0  0  0  0  0  0  0  0
  188.5690  176.6850  138.2060 N   0  0  0  0  0  0  0  0  0  0  0  0
  187.4230  176.8840  137.6740 N   0  0  0  0  0  0  0  0  0  0  0  0
  189.3430  177.6890  138.9270 C   0  0  0  0  0  2  0  0  0  0  0  0
  189.3460  177.3720  140.4100 C   0  0  0  0  0  2  0  0  0  0  0  0
  190.3960  176.4140  140.6960 N   0  0  0  0  0  1  0  0  0  0  0  0
  183.5870  175.7210  137.6830 C   0  0  0  0  0  1  0  0  0  0  0  0
  183.8050  177.2050  137.4490 C   0  0  0  0  0  2  0  0  0  0  0  0
  185.0040  178.4880  144.3470 C   0  0  0  0  0  2  0  0  0  0  0  0
  186.3420  177.8190  144.0800 C   0  0  0  0  0  2  0  0  0  0  0  0
  188.9840  176.8350  144.2230 O   0  0  0  0  0  0  0  0  0  0  0  0
  187.1090  177.7280  145.3130 N   0  0  0  0  0  0  0  0  0  0  0  0
  188.4690  177.2510  145.2940 C   0  0  0  0  0  0  0  0  0  0  0  0
  188.4590  177.2440  147.7890 C   0  0  0  0  0  2  0  0  0  0  0  0
  187.3240  178.2530  147.7140 C   0  0  0  0  0  2  0  0  0  0  0  0
  186.3850  177.8720  146.5750 C   0  0  0  0  0  2  0  0  0  0  0  0
  189.3140  177.3250  146.5290 C   0  0  0  0  0  2  0  0  0  0  0  0
  1 14  1  6  0  0  0
  1  9  1  0  0  0  0
  2  4  1  0  0  0  0
  3  8  1  0  0  0  0
  4  8  1  0  0  0  0
  5  7  2  0  0  0  0
  5  1  1  0  0  0  0
  6  2  2  0  0  0  0
  7  6  1  0  0  0  0
  8 26  1  1  0  0  0
  9  2  1  0  0  0  0
  9  3  1  0  0  0  0
 10 14  1  0  0  0  0
 12 13  2  0  0  0  0
 13 11  1  0  0  0  0
 14 11  2  0  0  0  0
 15 10  2  0  0  0  0
 15 12  1  0  0  0  0
 16 11  1  0  0  0  0
 17  7  1  0  0  0  0
 18 17  2  0  0  0  0
 19 21  1  0  0  0  0
 20 17  1  0  0  0  0
 20 19  2  0  0  0  0
 21 22  1  0  0  0  0
 22 23  1  0  0  0  0
 25 24  1  0  0  0  0
 25  5  1  0  0  0  0
 27 26  1  0  0  0  0
 27 29  1  0  0  0  0
 28 30  2  0  0  0  0
 29 33  1  0  0  0  0
 30 29  1  0  0  0  0
 30 34  1  0  0  0  0
 32 31  1  0  0  0  0
 33 32  1  0  0  0  0
 34 31  1  0  0  0  0
M  END
>  <MODEL>
1

>  <REMARK>
 VINA RESULT:      -7.8      0.000      0.000
  Name = 
  9 active torsions:
  status: ('A' for Active; 'I' for Inactive)
    1  A    between atoms: C_3  and  N_13
    2  A    between atoms: C_3  and  C_17
    3  A    between atoms: C_4  and  C_15
    4  A    between atoms: C_7  and  C_8
    5  A    between atoms: C_8  and  N_16
    6  A    between atoms: C_12  and  N_27
    7  A    between atoms: C_12  and  C_28
    8  A    between atoms: C_17  and  C_29
    9  A    between atoms: C_21  and  C_32
                            x       y       z     vdW  Elec       q    Type
                         _______ _______ _______ _____ _____    ______ ____

>  <TORSDO>
F 9

$$$$
=
 OpenBabel10262423423D

 34 37  0  0  1  0  0  0  0  0999 V2000
  190.3980  175.8690  138.3720 C   0  0  1  0  0  3  0  0  0  0  0  0
  192.1630  177.0160  139.7110 C   0  0  0  0  0  0  0  0  0  0  0  0
  190.1500  176.7980  140.8000 C   0  0  0  0  0  2  0  0  0  0  0  0
  192.3230  177.7540  140.8590 O   0  0  0  0  0  0  0  0  0  0  0  0
  191.5320  175.5830  137.3990 C   0  0  0  0  0  0  0  0  0  0  0  0
  193.0450  176.9030  138.7740 N   0  0  0  0  0  0  0  0  0  0  0  0
  192.7800  176.1080  137.6000 C   0  0  0  0  0  0  0  0  0  0  0  0
  191.1280  177.6660  141.6330 C   0  0  2  0  0  3  0  0  0  0  0  0
  190.9160  176.3880  139.6340 N   0  0  0  0  0  0  0  0  0  0  0  0
  189.7990  178.0160  137.4040 N   0  0  0  0  0  0  0  0  0  0  0  0
  187.9820  176.3760  137.5930 C   0  0  0  0  0  0  0  0  0  0  0  0
  187.6040  178.7400  136.7690 C   0  0  0  0  0  3  0  0  0  0  0  0
  187.1000  177.4820  137.2250 N   0  0  0  0  0  0  0  0  0  0  0  0
  189.4090  176.8300  137.7810 C   0  0  0  0  0  0  0  0  0  0  0  0
  188.9070  178.9900  136.8480 C   0  0  0  0  0  3  0  0  0  0  0  0
  187.9310  175.4040  136.6110 F   0  0  0  0  0  0  0  0  0  0  0  0
  193.9250  175.8840  136.6800 C   0  0  0  0  0  0  0  0  0  0  0  0
  194.5100  176.8530  136.1260 O   0  0  0  0  0  0  0  0  0  0  0  0
  195.1730  173.8520  137.1300 N   0  0  0  0  0  0  0  0  0  0  0  0
  194.3460  174.5310  136.4280 N   0  0  0  0  0  0  0  0  0  0  0  0
  195.8790  174.3480  138.3050 C   0  0  0  0  0  2  0  0  0  0  0  0
  197.3720  174.3740  138.0380 C   0  0  0  0  0  2  0  0  0  0  0  0
  197.6790  175.4530  137.1200 N   0  0  0  0  0  1  0  0  0  0  0  0
  190.5710  173.4180  136.6590 C   0  0  0  0  0  1  0  0  0  0  0  0
  191.1850  174.7330  136.2120 C   0  0  0  0  0  2  0  0  0  0  0  0
  191.4320  176.9900  142.9590 C   0  0  0  0  0  2  0  0  0  0  0  0
  190.3220  176.0200  143.3250 C   0  0  0  0  0  2  0  0  0  0  0  0
  187.6060  176.7330  143.0350 O   0  0  0  0  0  0  0  0  0  0  0  0
  189.5090  176.5730  144.3970 N   0  0  0  0  0  0  0  0  0  0  0  0
  188.1170  176.8720  144.1790 C   0  0  0  0  0  0  0  0  0  0  0  0
  188.0420  177.9680  146.4180 C   0  0  0  0  0  2  0  0  0  0  0  0
  189.2570  177.1310  146.7870 C   0  0  0  0  0  2  0  0  0  0  0  0
  190.1990  177.0570  145.5910 C   0  0  0  0  0  2  0  0  0  0  0  0
  187.2390  177.2710  145.3260 C   0  0  0  0  0  2  0  0  0  0  0  0
  1 14  1  6  0  0  0
  1  9  1  0  0  0  0
  2  4  1  0  0  0  0
  3  8  1  0  0  0  0
  4  8  1  0  0  0  0
  5  7  2  0  0  0  0
  5  1  1  0  0  0  0
  6  2  2  0  0  0  0
  7  6  1  0  0  0  0
  8 26  1  1  0  0  0
  9  2  1  0  0  0  0
  9  3  1  0  0  0  0
 10 14  1  0  0  0  0
 11 14  2  0  0  0  0
 12 15  1  0  0  0  0
 12 13  2  0  0  0  0
 13 11  1  0  0  0  0
 15 10  2  0  0  0  0
 16 11  1  0  0  0  0
 17  7  1  0  0  0  0
 18 17  2  0  0  0  0
 19 21  1  0  0  0  0
 20 17  1  0  0  0  0
 20 19  2  0  0  0  0
 22 21  1  0  0  0  0
 23 22  1  0  0  0  0
 25 24  1  0  0  0  0
 25  5  1  0  0  0  0
 26 27  1  0  0  0  0
 27 29  1  0  0  0  0
 28 30  2  0  0  0  0
 29 33  1  0  0  0  0
 30 29  1  0  0  0  0
 30 34  1  0  0  0  0
 31 32  1  0  0  0  0
 33 32  1  0  0  0  0
 34 31  1  0  0  0  0
M  END
>  <MODEL>
2

>  <REMARK>
 VINA RESULT:      -7.5      4.310      6.763
  Name = 
  9 active torsions:
  status: ('A' for Active; 'I' for Inactive)
    1  A    between atoms: C_3  and  N_13
    2  A    between atoms: C_3  and  C_17
    3  A    between atoms: C_4  and  C_15
    4  A    between atoms: C_7  and  C_8
    5  A    between atoms: C_8  and  N_16
    6  A    between atoms: C_12  and  N_27
    7  A    between atoms: C_12  and  C_28
    8  A    between atoms: C_17  and  C_29
    9  A    between atoms: C_21  and  C_32
                            x       y       z     vdW  Elec       q    Type
                         _______ _______ _______ _____ _____    ______ ____

>  <TORSDO>
F 9

$$$$
=
 OpenBabel10262423423D

 34 37  0  0  1  0  0  0  0  0999 V2000
  188.6990  176.8910  142.4080 C   0  0  1  0  0  3  0  0  0  0  0  0
  188.3590  178.1610  140.2880 C   0  0  0  0  0  0  0  0  0  0  0  0
  190.1990  176.7830  140.2740 C   0  0  0  0  0  2  0  0  0  0  0  0
  189.0050  178.4790  139.1180 O   0  0  0  0  0  0  0  0  0  0  0  0
  187.3290  177.4380  142.7810 C   0  0  0  0  0  0  0  0  0  0  0  0
  187.2880  178.7380  140.7240 N   0  0  0  0  0  0  0  0  0  0  0  0
  186.6870  178.3360  141.9720 C   0  0  0  0  0  0  0  0  0  0  0  0
  190.1620  177.6540  138.9920 C   0  0  2  0  0  3  0  0  0  0  0  0
  188.9890  177.1350  140.9980 N   0  0  0  0  0  0  0  0  0  0  0  0
  190.0540  178.7580  143.1720 N   0  0  0  0  0  0  0  0  0  0  0  0
  190.4680  176.6050  144.2750 C   0  0  0  0  0  0  0  0  0  0  0  0
  191.8430  178.6740  144.7650 C   0  0  0  0  0  3  0  0  0  0  0  0
  191.6290  177.2650  144.8720 N   0  0  0  0  0  0  0  0  0  0  0  0
  189.7710  177.4900  143.2710 C   0  0  0  0  0  0  0  0  0  0  0  0
  191.0760  179.3920  143.9510 C   0  0  0  0  0  3  0  0  0  0  0  0
  189.5810  176.2490  145.2740 F   0  0  0  0  0  0  0  0  0  0  0  0
  185.3580  178.9230  142.2850 C   0  0  0  0  0  0  0  0  0  0  0  0
  185.2500  180.1240  142.6520 O   0  0  0  0  0  0  0  0  0  0  0  0
  183.6400  177.7040  141.0800 N   0  0  0  0  0  0  0  0  0  0  0  0
  184.1950  178.0840  142.1690 N   0  0  0  0  0  0  0  0  0  0  0  0
  184.0680  178.0940  139.7420 C   0  0  0  0  0  2  0  0  0  0  0  0
  183.3320  179.3470  139.3080 C   0  0  0  0  0  2  0  0  0  0  0  0
  184.2910  180.4010  139.0380 N   0  0  0  0  0  1  0  0  0  0  0  0
  186.8750  178.0390  145.1460 C   0  0  0  0  0  1  0  0  0  0  0  0
  186.7590  176.9600  144.0840 C   0  0  0  0  0  2  0  0  0  0  0  0
  190.0250  176.7740  137.7610 C   0  0  0  0  0  2  0  0  0  0  0  0
  189.1560  177.4560  136.7190 C   0  0  0  0  0  2  0  0  0  0  0  0
  186.6990  178.8040  137.0690 O   0  0  0  0  0  0  0  0  0  0  0  0
  187.8550  176.8060  136.6510 N   0  0  0  0  0  0  0  0  0  0  0  0
  186.6460  177.5740  136.8000 C   0  0  0  0  0  0  0  0  0  0  0  0
  185.3470  175.4440  136.8500 C   0  0  0  0  0  2  0  0  0  0  0  0
  186.5200  174.7980  136.1290 C   0  0  0  0  0  2  0  0  0  0  0  0
  187.8250  175.3450  136.6970 C   0  0  0  0  0  2  0  0  0  0  0  0
  185.3110  176.9390  136.5540 C   0  0  0  0  0  2  0  0  0  0  0  0
  1  5  1  0  0  0  0
  1 14  1  1  0  0  0
  2  6  2  0  0  0  0
  2  9  1  0  0  0  0
  3  9  1  0  0  0  0
  4  2  1  0  0  0  0
  5 25  1  0  0  0  0
  6  7  1  0  0  0  0
  7 17  1  0  0  0  0
  7  5  2  0  0  0  0
  8 26  1  6  0  0  0
  8  4  1  0  0  0  0
  8  3  1  0  0  0  0
  9  1  1  0  0  0  0
 10 14  2  0  0  0  0
 10 15  1  0  0  0  0
 11 13  2  0  0  0  0
 11 16  1  0  0  0  0
 12 13  1  0  0  0  0
 14 11  1  0  0  0  0
 15 12  2  0  0  0  0
 17 18  2  0  0  0  0
 19 20  2  0  0  0  0
 20 17  1  0  0  0  0
 21 19  1  0  0  0  0
 22 21  1  0  0  0  0
 23 22  1  0  0  0  0
 25 24  1  0  0  0  0
 27 26  1  0  0  0  0
 29 33  1  0  0  0  0
 29 27  1  0  0  0  0
 29 30  1  0  0  0  0
 30 28  2  0  0  0  0
 32 33  1  0  0  0  0
 32 31  1  0  0  0  0
 34 30  1  0  0  0  0
 34 31  1  0  0  0  0
M  END
>  <MODEL>
3

>  <REMARK>
 VINA RESULT:      -7.2      2.863      8.223
  Name = 
  9 active torsions:
  status: ('A' for Active; 'I' for Inactive)
    1  A    between atoms: C_3  and  N_13
    2  A    between atoms: C_3  and  C_17
    3  A    between atoms: C_4  and  C_15
    4  A    between atoms: C_7  and  C_8
    5  A    between atoms: C_8  and  N_16
    6  A    between atoms: C_12  and  N_27
    7  A    between atoms: C_12  and  C_28
    8  A    between atoms: C_17  and  C_29
    9  A    between atoms: C_21  and  C_32
                            x       y       z     vdW  Elec       q    Type
                         _______ _______ _______ _____ _____    ______ ____

>  <TORSDO>
F 9

$$$$
=
 OpenBabel10262423423D

 34 37  0  0  1  0  0  0  0  0999 V2000
  189.9130  177.4610  137.9080 C   0  0  1  0  0  3  0  0  0  0  0  0
  188.9610  177.2610  140.2050 C   0  0  0  0  0  0  0  0  0  0  0  0
  191.2580  177.2270  140.1340 C   0  0  0  0  0  2  0  0  0  0  0  0
  189.3300  176.9500  141.4910 O   0  0  0  0  0  0  0  0  0  0  0  0
  188.4770  177.7540  137.4990 C   0  0  0  0  0  0  0  0  0  0  0  0
  187.7430  177.3380  139.7820 N   0  0  0  0  0  0  0  0  0  0  0  0
  187.4560  177.6660  138.4060 C   0  0  0  0  0  0  0  0  0  0  0  0
  190.7540  176.9280  141.5700 C   0  0  2  0  0  3  0  0  0  0  0  0
  190.0530  177.4800  139.3610 N   0  0  0  0  0  0  0  0  0  0  0  0
  189.7480  175.0460  137.6920 N   0  0  0  0  0  0  0  0  0  0  0  0
  191.5260  176.1240  136.3880 C   0  0  0  0  0  0  0  0  0  0  0  0
  191.2290  173.6110  136.4710 C   0  0  0  0  0  3  0  0  0  0  0  0
  191.9970  174.7650  136.1230 N   0  0  0  0  0  0  0  0  0  0  0  0
  190.3710  176.1410  137.3590 C   0  0  0  0  0  0  0  0  0  0  0  0
  190.1400  173.7510  137.2200 C   0  0  0  0  0  3  0  0  0  0  0  0
  191.1410  176.7140  135.1980 F   0  0  0  0  0  0  0  0  0  0  0  0
  186.0320  177.9200  138.0700 C   0  0  0  0  0  0  0  0  0  0  0  0
  185.3180  177.0200  137.5510 O   0  0  0  0  0  0  0  0  0  0  0  0
  184.8910  179.5880  139.4140 N   0  0  0  0  0  0  0  0  0  0  0  0
  185.4870  179.2240  138.3410 N   0  0  0  0  0  0  0  0  0  0  0  0
  184.6170  178.7220  140.5540 C   0  0  0  0  0  2  0  0  0  0  0  0
  185.4370  179.1670  141.7500 C   0  0  0  0  0  2  0  0  0  0  0  0
  184.5830  179.2410  142.9200 N   0  0  0  0  0  1  0  0  0  0  0  0
  187.8290  176.8840  135.2670 C   0  0  0  0  0  1  0  0  0  0  0  0
  188.2600  178.1070  136.0570 C   0  0  0  0  0  2  0  0  0  0  0  0
  191.2260  178.0080  142.5280 C   0  0  0  0  0  2  0  0  0  0  0  0
  190.1070  178.3950  143.4800 C   0  0  0  0  0  2  0  0  0  0  0  0
  188.0910  178.1490  145.4410 O   0  0  0  0  0  0  0  0  0  0  0  0
  190.3010  177.7470  144.7680 N   0  0  0  0  0  0  0  0  0  0  0  0
  189.2080  177.6260  145.6980 C   0  0  0  0  0  0  0  0  0  0  0  0
  190.8100  176.7760  147.4110 C   0  0  0  0  0  2  0  0  0  0  0  0
  191.7220  176.3860  146.2580 C   0  0  0  0  0  2  0  0  0  0  0  0
  191.6740  177.4720  145.1890 C   0  0  0  0  0  2  0  0  0  0  0  0
  189.3590  176.8060  146.9440 C   0  0  0  0  0  2  0  0  0  0  0  0
  1 14  1  1  0  0  0
  1  9  1  0  0  0  0
  2  4  1  0  0  0  0
  3  8  1  0  0  0  0
  4  8  1  0  0  0  0
  5  1  1  0  0  0  0
  5  7  2  0  0  0  0
  6  2  2  0  0  0  0
  7  6  1  0  0  0  0
  8 26  1  1  0  0  0
  9  3  1  0  0  0  0
  9  2  1  0  0  0  0
 11 14  2  0  0  0  0
 12 15  1  0  0  0  0
 13 11  1  0  0  0  0
 13 12  2  0  0  0  0
 14 10  1  0  0  0  0
 15 10  2  0  0  0  0
 16 11  1  0  0  0  0
 17 20  1  0  0  0  0
 17  7  1  0  0  0  0
 18 17  2  0  0  0  0
 19 21  1  0  0  0  0
 20 19  2  0  0  0  0
 21 22  1  0  0  0  0
 22 23  1  0  0  0  0
 24 25  1  0  0  0  0
 25  5  1  0  0  0  0
 26 27  1  0  0  0  0
 27 29  1  0  0  0  0
 28 30  2  0  0  0  0
 29 33  1  0  0  0  0
 29 30  1  0  0  0  0
 30 34  1  0  0  0  0
 32 31  1  0  0  0  0
 33 32  1  0  0  0  0
 34 31  1  0  0  0  0
M  END
>  <MODEL>
4

>  <REMARK>
 VINA RESULT:      -7.2      3.197      6.605
  Name = 
  9 active torsions:
  status: ('A' for Active; 'I' for Inactive)
    1  A    between atoms: C_3  and  N_13
    2  A    between atoms: C_3  and  C_17
    3  A    between atoms: C_4  and  C_15
    4  A    between atoms: C_7  and  C_8
    5  A    between atoms: C_8  and  N_16
    6  A    between atoms: C_12  and  N_27
    7  A    between atoms: C_12  and  C_28
    8  A    between atoms: C_17  and  C_29
    9  A    between atoms: C_21  and  C_32
                            x       y       z     vdW  Elec       q    Type
                         _______ _______ _______ _____ _____    ______ ____

>  <TORSDO>
F 9

$$$$
=
 OpenBabel10262423423D

 34 37  0  0  1  0  0  0  0  0999 V2000
  188.6690  177.0000  142.2700 C   0  0  1  0  0  3  0  0  0  0  0  0
  188.0850  178.3710  140.2690 C   0  0  0  0  0  0  0  0  0  0  0  0
  189.9840  177.1000  140.0160 C   0  0  0  0  0  2  0  0  0  0  0  0
  188.6120  178.7920  139.0720 O   0  0  0  0  0  0  0  0  0  0  0  0
  187.3100  177.4470  142.7880 C   0  0  0  0  0  0  0  0  0  0  0  0
  187.0290  178.8610  140.8280 N   0  0  0  0  0  0  0  0  0  0  0  0
  186.5570  178.3540  142.0930 C   0  0  0  0  0  0  0  0  0  0  0  0
  189.7940  178.0410  138.7990 C   0  0  2  0  0  3  0  0  0  0  0  0
  188.8250  177.3410  140.8590 N   0  0  0  0  0  0  0  0  0  0  0  0
  189.9500  178.8970  143.0860 N   0  0  0  0  0  0  0  0  0  0  0  0
  190.6520  176.6920  143.9050 C   0  0  0  0  0  0  0  0  0  0  0  0
  191.9050  178.8190  144.4690 C   0  0  0  0  0  3  0  0  0  0  0  0
  191.8160  177.3920  144.4470 N   0  0  0  0  0  0  0  0  0  0  0  0
  189.7800  177.6050  143.0780 C   0  0  0  0  0  0  0  0  0  0  0  0
  190.9990  179.5410  143.8190 C   0  0  0  0  0  3  0  0  0  0  0  0
  189.9120  176.1630  144.9460 F   0  0  0  0  0  0  0  0  0  0  0  0
  185.2330  178.8470  142.5510 C   0  0  0  0  0  0  0  0  0  0  0  0
  185.1330  179.9060  143.2260 O   0  0  0  0  0  0  0  0  0  0  0  0
  183.3640  178.1920  141.1470 N   0  0  0  0  0  0  0  0  0  0  0  0
  184.0630  178.0790  142.2130 N   0  0  0  0  0  0  0  0  0  0  0  0
  183.6070  179.1620  140.0860 C   0  0  0  0  0  2  0  0  0  0  0  0
  183.5340  178.4770  138.7340 C   0  0  0  0  0  2  0  0  0  0  0  0
  184.8520  177.9950  138.3660 N   0  0  0  0  0  1  0  0  0  0  0  0
  187.1290  177.8440  145.2310 C   0  0  0  0  0  1  0  0  0  0  0  0
  186.8790  176.8620  144.1010 C   0  0  0  0  0  2  0  0  0  0  0  0
  189.5970  177.2290  137.5310 C   0  0  0  0  0  2  0  0  0  0  0  0
  190.0130  175.7860  137.7590 C   0  0  0  0  0  2  0  0  0  0  0  0
  190.5010  173.1640  136.8320 O   0  0  0  0  0  0  0  0  0  0  0  0
  188.9730  174.8850  137.2830 N   0  0  0  0  0  0  0  0  0  0  0  0
  189.3010  173.5470  136.8650 C   0  0  0  0  0  0  0  0  0  0  0  0
  186.9620  173.2740  136.0400 C   0  0  0  0  0  2  0  0  0  0  0  0
  186.5730  174.3910  136.9960 C   0  0  0  0  0  2  0  0  0  0  0  0
  187.6600  175.4590  136.9920 C   0  0  0  0  0  2  0  0  0  0  0  0
  188.2140  172.5660  136.5450 C   0  0  0  0  0  2  0  0  0  0  0  0
  1  5  1  0  0  0  0
  1 14  1  1  0  0  0
  2  6  2  0  0  0  0
  2  9  1  0  0  0  0
  3  9  1  0  0  0  0
  4  2  1  0  0  0  0
  5 25  1  0  0  0  0
  6  7  1  0  0  0  0
  7 17  1  0  0  0  0
  7  5  2  0  0  0  0
  8 26  1  6  0  0  0
  8  4  1  0  0  0  0
  8  3  1  0  0  0  0
  9  1  1  0  0  0  0
 10 15  1  0  0  0  0
 11 13  2  0  0  0  0
 11 16  1  0  0  0  0
 13 12  1  0  0  0  0
 14 10  2  0  0  0  0
 14 11  1  0  0  0  0
 15 12  2  0  0  0  0
 17 18  2  0  0  0  0
 19 20  2  0  0  0  0
 20 17  1  0  0  0  0
 21 19  1  0  0  0  0
 22 21  1  0  0  0  0
 23 22  1  0  0  0  0
 25 24  1  0  0  0  0
 26 27  1  0  0  0  0
 28 30  2  0  0  0  0
 29 27  1  0  0  0  0
 30 29  1  0  0  0  0
 31 34  1  0  0  0  0
 31 32  1  0  0  0  0
 33 32  1  0  0  0  0
 33 29  1  0  0  0  0
 34 30  1  0  0  0  0
M  END
>  <MODEL>
5

>  <REMARK>
 VINA RESULT:      -7.0      3.399      8.229
  Name = 
  9 active torsions:
  status: ('A' for Active; 'I' for Inactive)
    1  A    between atoms: C_3  and  N_13
    2  A    between atoms: C_3  and  C_17
    3  A    between atoms: C_4  and  C_15
    4  A    between atoms: C_7  and  C_8
    5  A    between atoms: C_8  and  N_16
    6  A    between atoms: C_12  and  N_27
    7  A    between atoms: C_12  and  C_28
    8  A    between atoms: C_17  and  C_29
    9  A    between atoms: C_21  and  C_32
                            x       y       z     vdW  Elec       q    Type
                         _______ _______ _______ _____ _____    ______ ____

>  <TORSDO>
F 9

$$$$
=
 OpenBabel10262423423D

 34 37  0  0  1  0  0  0  0  0999 V2000
  190.2640  175.8590  138.2480 C   0  0  1  0  0  3  0  0  0  0  0  0
  192.0240  177.0050  139.5940 C   0  0  0  0  0  0  0  0  0  0  0  0
  190.0480  176.6700  140.7200 C   0  0  0  0  0  2  0  0  0  0  0  0
  192.1880  177.6970  140.7690 O   0  0  0  0  0  0  0  0  0  0  0  0
  191.3810  175.6550  137.2350 C   0  0  0  0  0  0  0  0  0  0  0  0
  192.8840  176.9650  138.6310 N   0  0  0  0  0  0  0  0  0  0  0  0
  192.6160  176.2130  137.4290 C   0  0  0  0  0  0  0  0  0  0  0  0
  191.0170  177.5330  141.5680 C   0  0  2  0  0  3  0  0  0  0  0  0
  190.7970  176.3390  139.5190 N   0  0  0  0  0  0  0  0  0  0  0  0
  189.5700  178.0220  137.3860 N   0  0  0  0  0  0  0  0  0  0  0  0
  187.8120  176.3180  137.5590 C   0  0  0  0  0  0  0  0  0  0  0  0
  187.3370  178.7000  136.8430 C   0  0  0  0  0  3  0  0  0  0  0  0
  186.8850  177.4100  137.2620 N   0  0  0  0  0  0  0  0  0  0  0  0
  189.2290  176.8110  137.7240 C   0  0  0  0  0  0  0  0  0  0  0  0
  188.6330  178.9890  136.8960 C   0  0  0  0  0  3  0  0  0  0  0  0
  187.7610  175.3860  136.5390 F   0  0  0  0  0  0  0  0  0  0  0  0
  193.7430  176.0700  136.4730 C   0  0  0  0  0  0  0  0  0  0  0  0
  193.5640  176.2110  135.2330 O   0  0  0  0  0  0  0  0  0  0  0  0
  195.3810  174.6850  137.6090 N   0  0  0  0  0  0  0  0  0  0  0  0
  195.0470  175.7570  136.9940 N   0  0  0  0  0  0  0  0  0  0  0  0
  194.4750  173.5890  137.9320 C   0  0  0  0  0  2  0  0  0  0  0  0
  194.9680  172.3060  137.2900 C   0  0  0  0  0  2  0  0  0  0  0  0
  195.9900  171.7090  138.1280 N   0  0  0  0  0  1  0  0  0  0  0  0
  191.0850  173.3630  136.3330 C   0  0  0  0  0  1  0  0  0  0  0  0
  191.0320  174.8470  136.0200 C   0  0  0  0  0  2  0  0  0  0  0  0
  191.3780  176.8100  142.8540 C   0  0  0  0  0  2  0  0  0  0  0  0
  191.5780  177.8080  143.9820 C   0  0  0  0  0  2  0  0  0  0  0  0
  192.0960  176.7110  146.5320 O   0  0  0  0  0  0  0  0  0  0  0  0
  190.5620  177.6140  145.0060 N   0  0  0  0  0  0  0  0  0  0  0  0
  190.9160  177.0860  146.2970 C   0  0  0  0  0  0  0  0  0  0  0  0
  188.4900  176.9340  146.8580 C   0  0  0  0  0  2  0  0  0  0  0  0
  188.2530  177.9910  145.7900 C   0  0  0  0  0  2  0  0  0  0  0  0
  189.1610  177.7150  144.5980 C   0  0  0  0  0  2  0  0  0  0  0  0
  189.9080  177.0530  147.4060 C   0  0  0  0  0  2  0  0  0  0  0  0
  1 14  1  6  0  0  0
  1  9  1  0  0  0  0
  2  4  1  0  0  0  0
  3  8  1  0  0  0  0
  4  8  1  0  0  0  0
  5  7  2  0  0  0  0
  5  1  1  0  0  0  0
  6  2  2  0  0  0  0
  7  6  1  0  0  0  0
  8 26  1  1  0  0  0
  9  2  1  0  0  0  0
  9  3  1  0  0  0  0
 10 14  1  0  0  0  0
 11 14  2  0  0  0  0
 12 15  1  0  0  0  0
 12 13  2  0  0  0  0
 13 11  1  0  0  0  0
 15 10  2  0  0  0  0
 16 11  1  0  0  0  0
 17 20  1  0  0  0  0
 17  7  1  0  0  0  0
 18 17  2  0  0  0  0
 19 21  1  0  0  0  0
 20 19  2  0  0  0  0
 22 21  1  0  0  0  0
 22 23  1  0  0  0  0
 25 24  1  0  0  0  0
 25  5  1  0  0  0  0
 26 27  1  0  0  0  0
 27 29  1  0  0  0  0
 29 30  1  0  0  0  0
 30 28  2  0  0  0  0
 30 34  1  0  0  0  0
 31 34  1  0  0  0  0
 32 31  1  0  0  0  0
 33 29  1  0  0  0  0
 33 32  1  0  0  0  0
M  END
>  <MODEL>
6

>  <REMARK>
 VINA RESULT:      -6.9      4.476      6.661
  Name = 
  9 active torsions:
  status: ('A' for Active; 'I' for Inactive)
    1  A    between atoms: C_3  and  N_13
    2  A    between atoms: C_3  and  C_17
    3  A    between atoms: C_4  and  C_15
    4  A    between atoms: C_7  and  C_8
    5  A    between atoms: C_8  and  N_16
    6  A    between atoms: C_12  and  N_27
    7  A    between atoms: C_12  and  C_28
    8  A    between atoms: C_17  and  C_29
    9  A    between atoms: C_21  and  C_32
                            x       y       z     vdW  Elec       q    Type
                         _______ _______ _______ _____ _____    ______ ____

>  <TORSDO>
F 9

$$$$
=
 OpenBabel10262423423D

 34 37  0  0  1  0  0  0  0  0999 V2000
  188.6920  176.9240  142.0680 C   0  0  1  0  0  3  0  0  0  0  0  0
  187.9750  178.3390  140.1420 C   0  0  0  0  0  0  0  0  0  0  0  0
  189.8850  177.1190  139.7530 C   0  0  0  0  0  2  0  0  0  0  0  0
  188.4290  178.8060  138.9330 O   0  0  0  0  0  0  0  0  0  0  0  0
  187.3530  177.3250  142.6690 C   0  0  0  0  0  0  0  0  0  0  0  0
  186.9390  178.7890  140.7690 N   0  0  0  0  0  0  0  0  0  0  0  0
  186.5460  178.2340  142.0420 C   0  0  0  0  0  0  0  0  0  0  0  0
  189.6110  178.0910  138.5760 C   0  0  2  0  0  3  0  0  0  0  0  0
  188.7660  177.3090  140.6620 N   0  0  0  0  0  0  0  0  0  0  0  0
  189.8550  178.8140  143.0580 N   0  0  0  0  0  0  0  0  0  0  0  0
  190.9070  176.6190  143.3720 C   0  0  0  0  0  0  0  0  0  0  0  0
  191.9810  178.7720  144.1620 C   0  0  0  0  0  3  0  0  0  0  0  0
  192.0500  177.3700  143.8900 N   0  0  0  0  0  0  0  0  0  0  0  0
  189.8310  177.5300  142.8350 C   0  0  0  0  0  0  0  0  0  0  0  0
  190.9170  179.4630  143.7670 C   0  0  0  0  0  3  0  0  0  0  0  0
  190.3850  175.8290  144.3790 F   0  0  0  0  0  0  0  0  0  0  0  0
  185.2370  178.6840  142.5830 C   0  0  0  0  0  0  0  0  0  0  0  0
  184.1710  178.0800  142.2850 O   0  0  0  0  0  0  0  0  0  0  0  0
  184.7230  179.8810  144.6300 N   0  0  0  0  0  0  0  0  0  0  0  0
  185.2130  179.8320  143.4490 N   0  0  0  0  0  0  0  0  0  0  0  0
  184.0530  178.7750  145.3050 C   0  0  0  0  0  2  0  0  0  0  0  0
  184.8080  178.4080  146.5680 C   0  0  0  0  0  2  0  0  0  0  0  0
  185.6070  179.5390  146.9990 N   0  0  0  0  0  1  0  0  0  0  0  0
  187.6690  177.4380  145.1280 C   0  0  0  0  0  1  0  0  0  0  0  0
  187.0040  176.6930  143.9840 C   0  0  0  0  0  2  0  0  0  0  0  0
  189.3650  177.3110  137.2960 C   0  0  0  0  0  2  0  0  0  0  0  0
  189.2620  175.8250  137.5950 C   0  0  0  0  0  2  0  0  0  0  0  0
  188.7150  173.1270  136.9680 O   0  0  0  0  0  0  0  0  0  0  0  0
  187.9470  175.3290  137.2160 N   0  0  0  0  0  0  0  0  0  0  0  0
  187.7430  173.9280  136.9510 C   0  0  0  0  0  0  0  0  0  0  0  0
  185.4410  174.4560  136.1460 C   0  0  0  0  0  2  0  0  0  0  0  0
  185.5250  175.7320  136.9710 C   0  0  0  0  0  2  0  0  0  0  0  0
  186.9290  176.3150  136.8550 C   0  0  0  0  0  2  0  0  0  0  0  0
  186.3600  173.3920  136.7350 C   0  0  0  0  0  2  0  0  0  0  0  0
  1  5  1  0  0  0  0
  1 14  1  1  0  0  0
  2  9  1  0  0  0  0
  2  6  2  0  0  0  0
  3  9  1  0  0  0  0
  4  2  1  0  0  0  0
  5 25  1  0  0  0  0
  6  7  1  0  0  0  0
  7 17  1  0  0  0  0
  7  5  2  0  0  0  0
  8 26  1  6  0  0  0
  8  4  1  0  0  0  0
  8  3  1  0  0  0  0
  9  1  1  0  0  0  0
 10 15  1  0  0  0  0
 11 13  2  0  0  0  0
 11 16  1  0  0  0  0
 13 12  1  0  0  0  0
 14 10  2  0  0  0  0
 14 11  1  0  0  0  0
 15 12  2  0  0  0  0
 17 20  1  0  0  0  0
 18 17  2  0  0  0  0
 19 21  1  0  0  0  0
 20 19  2  0  0  0  0
 21 22  1  0  0  0  0
 22 23  1  0  0  0  0
 25 24  1  0  0  0  0
 26 27  1  0  0  0  0
 29 27  1  0  0  0  0
 30 28  2  0  0  0  0
 30 29  1  0  0  0  0
 31 34  1  0  0  0  0
 31 32  1  0  0  0  0
 33 32  1  0  0  0  0
 33 29  1  0  0  0  0
 34 30  1  0  0  0  0
M  END
>  <MODEL>
7

>  <REMARK>
 VINA RESULT:      -6.9      3.673      8.396
  Name = 
  9 active torsions:
  status: ('A' for Active; 'I' for Inactive)
    1  A    between atoms: C_3  and  N_13
    2  A    between atoms: C_3  and  C_17
    3  A    between atoms: C_4  and  C_15
    4  A    between atoms: C_7  and  C_8
    5  A    between atoms: C_8  and  N_16
    6  A    between atoms: C_12  and  N_27
    7  A    between atoms: C_12  and  C_28
    8  A    between atoms: C_17  and  C_29
    9  A    between atoms: C_21  and  C_32
                            x       y       z     vdW  Elec       q    Type
                         _______ _______ _______ _____ _____    ______ ____

>  <TORSDO>
F 9

$$$$
=
 OpenBabel10262423423D

 34 37  0  0  1  0  0  0  0  0999 V2000
  189.6750  176.1270  138.8870 C   0  0  1  0  0  3  0  0  0  0  0  0
  191.2960  177.2850  140.3890 C   0  0  0  0  0  0  0  0  0  0  0  0
  189.1630  177.1460  141.2370 C   0  0  0  0  0  2  0  0  0  0  0  0
  191.3360  178.0600  141.5230 O   0  0  0  0  0  0  0  0  0  0  0  0
  190.9090  175.7840  138.0660 C   0  0  0  0  0  0  0  0  0  0  0  0
  192.2790  177.1210  139.5680 N   0  0  0  0  0  0  0  0  0  0  0  0
  192.1360  176.2900  138.3970 C   0  0  0  0  0  0  0  0  0  0  0  0
  190.0560  178.0230  142.1520 C   0  0  2  0  0  3  0  0  0  0  0  0
  190.0520  176.6800  140.1840 N   0  0  0  0  0  0  0  0  0  0  0  0
  187.5890  176.7200  137.7910 N   0  0  0  0  0  0  0  0  0  0  0  0
  189.2950  178.4820  137.8830 C   0  0  0  0  0  0  0  0  0  0  0  0
  187.0950  178.7770  136.6650 C   0  0  0  0  0  3  0  0  0  0  0  0
  188.4210  179.2160  136.9690 N   0  0  0  0  0  0  0  0  0  0  0  0
  188.7870  177.0860  138.1510 C   0  0  0  0  0  0  0  0  0  0  0  0
  186.6940  177.5760  137.0700 C   0  0  0  0  0  3  0  0  0  0  0  0
  189.3940  179.1750  139.0750 F   0  0  0  0  0  0  0  0  0  0  0  0
  193.3760  176.0110  137.6280 C   0  0  0  0  0  0  0  0  0  0  0  0
  193.9400  176.9160  136.9570 O   0  0  0  0  0  0  0  0  0  0  0  0
  194.8020  174.2380  138.4730 N   0  0  0  0  0  0  0  0  0  0  0  0
  193.9160  174.6770  137.6610 N   0  0  0  0  0  0  0  0  0  0  0  0
  195.4650  175.0330  139.4990 C   0  0  0  0  0  2  0  0  0  0  0  0
  196.9350  174.6640  139.5700 C   0  0  0  0  0  2  0  0  0  0  0  0
  197.5790  175.4440  140.6090 N   0  0  0  0  0  1  0  0  0  0  0  0
  190.6100  175.7250  135.6030 C   0  0  0  0  0  1  0  0  0  0  0  0
  190.6840  174.8990  136.8750 C   0  0  0  0  0  2  0  0  0  0  0  0
  190.1850  177.3890  143.5260 C   0  0  0  0  0  2  0  0  0  0  0  0
  189.0150  176.4560  143.7890 C   0  0  0  0  0  2  0  0  0  0  0  0
  189.3770  176.8160  146.5660 O   0  0  0  0  0  0  0  0  0  0  0  0
  188.0440  177.1050  144.6570 N   0  0  0  0  0  0  0  0  0  0  0  0
  188.3240  177.2870  146.0580 C   0  0  0  0  0  0  0  0  0  0  0  0
  185.9780  178.0730  146.3840 C   0  0  0  0  0  2  0  0  0  0  0  0
  185.9630  178.4080  144.9000 C   0  0  0  0  0  2  0  0  0  0  0  0
  186.6970  177.3170  144.1300 C   0  0  0  0  0  2  0  0  0  0  0  0
  187.4070  178.1090  146.9130 C   0  0  0  0  0  2  0  0  0  0  0  0
  1 14  1  6  0  0  0
  1  9  1  0  0  0  0
  2  4  1  0  0  0  0
  3  8  1  0  0  0  0
  4  8  1  0  0  0  0
  5  7  2  0  0  0  0
  5  1  1  0  0  0  0
  6  2  2  0  0  0  0
  7  6  1  0  0  0  0
  8 26  1  1  0  0  0
  9  2  1  0  0  0  0
  9  3  1  0  0  0  0
 10 14  1  0  0  0  0
 11 14  2  0  0  0  0
 11 16  1  0  0  0  0
 12 13  2  0  0  0  0
 12 15  1  0  0  0  0
 13 11  1  0  0  0  0
 15 10  2  0  0  0  0
 17 20  1  0  0  0  0
 17  7  1  0  0  0  0
 18 17  2  0  0  0  0
 19 21  1  0  0  0  0
 20 19  2  0  0  0  0
 21 22  1  0  0  0  0
 22 23  1  0  0  0  0
 24 25  1  0  0  0  0
 25  5  1  0  0  0  0
 26 27  1  0  0  0  0
 27 29  1  0  0  0  0
 29 30  1  0  0  0  0
 30 28  2  0  0  0  0
 30 34  1  0  0  0  0
 31 34  1  0  0  0  0
 32 31  1  0  0  0  0
 33 29  1  0  0  0  0
 33 32  1  0  0  0  0
M  END
>  <MODEL>
8

>  <REMARK>
 VINA RESULT:      -6.8      4.087      6.205
  Name = 
  9 active torsions:
  status: ('A' for Active; 'I' for Inactive)
    1  A    between atoms: C_3  and  N_13
    2  A    between atoms: C_3  and  C_17
    3  A    between atoms: C_4  and  C_15
    4  A    between atoms: C_7  and  C_8
    5  A    between atoms: C_8  and  N_16
    6  A    between atoms: C_12  and  N_27
    7  A    between atoms: C_12  and  C_28
    8  A    between atoms: C_17  and  C_29
    9  A    between atoms: C_21  and  C_32
                            x       y       z     vdW  Elec       q    Type
                         _______ _______ _______ _____ _____    ______ ____

>  <TORSDO>
F 9

$$$$
=
 OpenBabel10262423423D

 34 37  0  0  1  0  0  0  0  0999 V2000
  188.6900  177.0060  142.2810 C   0  0  1  0  0  3  0  0  0  0  0  0
  188.0730  178.4060  140.3100 C   0  0  0  0  0  0  0  0  0  0  0  0
  189.9680  177.1400  140.0080 C   0  0  0  0  0  2  0  0  0  0  0  0
  188.5800  178.8450  139.1110 O   0  0  0  0  0  0  0  0  0  0  0  0
  187.3400  177.4460  142.8280 C   0  0  0  0  0  0  0  0  0  0  0  0
  187.0260  178.8880  140.8940 N   0  0  0  0  0  0  0  0  0  0  0  0
  186.5760  178.3620  142.1590 C   0  0  0  0  0  0  0  0  0  0  0  0
  189.7580  178.0990  138.8080 C   0  0  2  0  0  3  0  0  0  0  0  0
  188.8220  177.3680  140.8730 N   0  0  0  0  0  0  0  0  0  0  0  0
  189.8420  178.8820  143.3110 N   0  0  0  0  0  0  0  0  0  0  0  0
  190.8700  176.6770  143.6370 C   0  0  0  0  0  0  0  0  0  0  0  0
  191.9410  178.8170  144.4660 C   0  0  0  0  0  3  0  0  0  0  0  0
  192.0060  177.4160  144.1880 N   0  0  0  0  0  0  0  0  0  0  0  0
  189.8140  177.6000  143.0790 C   0  0  0  0  0  0  0  0  0  0  0  0
  190.8920  179.5190  144.0490 C   0  0  0  0  0  3  0  0  0  0  0  0
  190.3180  175.8850  144.6270 F   0  0  0  0  0  0  0  0  0  0  0  0
  185.2590  178.8480  142.6460 C   0  0  0  0  0  0  0  0  0  0  0  0
  185.1430  179.9870  143.1740 O   0  0  0  0  0  0  0  0  0  0  0  0
  183.1530  178.1260  141.6810 N   0  0  0  0  0  0  0  0  0  0  0  0
  184.1170  177.9830  142.5090 N   0  0  0  0  0  0  0  0  0  0  0  0
  183.0140  179.2310  140.7390 C   0  0  0  0  0  2  0  0  0  0  0  0
  183.6870  178.8790  139.4260 C   0  0  0  0  0  2  0  0  0  0  0  0
  184.4560  180.0150  138.9580 N   0  0  0  0  0  1  0  0  0  0  0  0
  187.1820  177.8150  145.2770 C   0  0  0  0  0  1  0  0  0  0  0  0
  186.9310  176.8420  144.1390 C   0  0  0  0  0  2  0  0  0  0  0  0
  189.5390  177.3040  137.5310 C   0  0  0  0  0  2  0  0  0  0  0  0
  190.1660  175.9260  137.6530 C   0  0  0  0  0  2  0  0  0  0  0  0
  192.8760  176.6310  138.0170 O   0  0  0  0  0  0  0  0  0  0  0  0
  191.1940  175.7540  136.6380 N   0  0  0  0  0  0  0  0  0  0  0  0
  192.5640  176.1010  136.9170 C   0  0  0  0  0  0  0  0  0  0  0  0
  193.1100  175.7200  134.5130 C   0  0  0  0  0  2  0  0  0  0  0  0
  191.8690  174.8420  134.4460 C   0  0  0  0  0  2  0  0  0  0  0  0
  190.7560  175.4800  135.2700 C   0  0  0  0  0  2  0  0  0  0  0  0
  193.6470  175.7590  135.9390 C   0  0  0  0  0  2  0  0  0  0  0  0
  1  5  1  0  0  0  0
  1 14  1  1  0  0  0
  2  9  1  0  0  0  0
  2  6  2  0  0  0  0
  3  9  1  0  0  0  0
  4  2  1  0  0  0  0
  5 25  1  0  0  0  0
  6  7  1  0  0  0  0
  7 17  1  0  0  0  0
  7  5  2  0  0  0  0
  8 26  1  6  0  0  0
  8  4  1  0  0  0  0
  8  3  1  0  0  0  0
  9  1  1  0  0  0  0
 10 15  1  0  0  0  0
 11 13  2  0  0  0  0
 11 16  1  0  0  0  0
 13 12  1  0  0  0  0
 14 10  2  0  0  0  0
 14 11  1  0  0  0  0
 15 12  2  0  0  0  0
 17 18  2  0  0  0  0
 19 20  2  0  0  0  0
 20 17  1  0  0  0  0
 21 19  1  0  0  0  0
 22 21  1  0  0  0  0
 23 22  1  0  0  0  0
 25 24  1  0  0  0  0
 26 27  1  0  0  0  0
 29 30  1  0  0  0  0
 29 27  1  0  0  0  0
 30 28  2  0  0  0  0
 31 34  1  0  0  0  0
 32 31  1  0  0  0  0
 32 33  1  0  0  0  0
 33 29  1  0  0  0  0
 34 30  1  0  0  0  0
M  END
>  <MODEL>
9

>  <REMARK>
 VINA RESULT:      -6.7      3.626      8.636
  Name = 
  9 active torsions:
  status: ('A' for Active; 'I' for Inactive)
    1  A    between atoms: C_3  and  N_13
    2  A    between atoms: C_3  and  C_17
    3  A    between atoms: C_4  and  C_15
    4  A    between atoms: C_7  and  C_8
    5  A    between atoms: C_8  and  N_16
    6  A    between atoms: C_12  and  N_27
    7  A    between atoms: C_12  and  C_28
    8  A    between atoms: C_17  and  C_29
    9  A    between atoms: C_21  and  C_32
                            x       y       z     vdW  Elec       q    Type
                         _______ _______ _______ _____ _____    ______ ____

>  <TORSDO>
F 9

$$$$
