=
 OpenBabel10272401013D

 27 30  0  0  1  0  0  0  0  0999 V2000
  189.3710  177.2560  144.1180 C   0  0  1  0  0  3  0  0  0  0  0  0
  187.9310  177.6340  144.3490 C   0  0  0  0  0  0  0  0  0  0  0  0
  183.8620  178.7090  145.1070 C   0  0  0  0  0  3  0  0  0  0  0  0
  181.7330  179.2480  144.3450 F   0  0  0  0  0  0  0  0  0  0  0  0
  187.5220  177.9770  145.6440 C   0  0  0  0  0  3  0  0  0  0  0  0
  184.6490  177.9170  142.4490 C   0  0  0  0  0  2  0  0  0  0  0  0
  183.5210  178.9320  142.6660 C   0  0  0  0  0  2  0  0  0  0  0  0
  186.9940  177.6370  143.3050 C   0  0  0  0  0  3  0  0  0  0  0  0
  183.0230  178.9240  144.0890 C   0  0  0  0  0  0  0  0  0  0  0  0
  185.2630  178.3400  144.8520 C   0  0  0  0  0  0  0  0  0  0  0  0
  185.6680  177.9990  143.5490 C   0  0  0  0  0  0  0  0  0  0  0  0
  186.1910  178.3270  145.8970 C   0  0  0  0  0  3  0  0  0  0  0  0
  190.1300  178.0680  143.0370 C   0  0  2  0  0  0  0  0  0  0  0  0
  192.0440  176.6790  142.6170 O   0  0  0  0  0  0  0  0  0  0  0  0
  190.3650  175.9450  140.3590 O   0  0  0  0  0  1  0  0  0  0  0  0
  191.5620  177.8690  140.0030 O   0  0  0  0  0  1  0  0  0  0  0  0
  190.9220  179.1950  143.6870 C   0  0  0  0  0  1  0  0  0  0  0  0
  190.6170  177.2390  140.8130 C   0  0  0  0  0  0  0  0  0  0  0  0
  189.3380  178.0470  140.8750 C   0  0  0  0  0  2  0  0  0  0  0  0
  189.1930  178.6520  142.1510 O   0  0  0  0  0  0  0  0  0  0  0  0
  191.0390  177.2400  142.2070 C   0  0  0  0  0  0  0  0  0  0  0  0
  191.5350  176.5860  147.7470 C   0  0  0  0  0  3  0  0  0  0  0  0
  190.1370  177.0260  145.3900 C   0  0  0  0  0  0  0  0  0  0  0  0
  191.2820  176.2860  145.3910 N   0  0  0  0  0  0  0  0  0  0  0  0
  191.9830  176.0590  146.5340 C   0  0  0  0  0  3  0  0  0  0  0  0
  190.3640  177.3450  147.7680 C   0  0  0  0  0  3  0  0  0  0  0  0
  189.6580  177.5680  146.5840 C   0  0  0  0  0  3  0  0  0  0  0  0
  1  2  1  1  0  0  0
  1 23  1  0  0  0  0
  2  5  1  0  0  0  0
  5 12  2  0  0  0  0
  6  7  1  0  0  0  0
  6 11  1  0  0  0  0
  7  9  1  0  0  0  0
  8 11  1  0  0  0  0
  8  2  2  0  0  0  0
  9  4  1  0  0  0  0
  9  3  2  0  0  0  0
 10  3  1  0  0  0  0
 10 12  1  0  0  0  0
 11 10  2  0  0  0  0
 13 17  1  1  0  0  0
 13  1  1  0  0  0  0
 15 18  1  0  0  0  0
 16 18  1  0  0  0  0
 18 19  1  0  0  0  0
 18 21  1  0  0  0  0
 19 20  1  0  0  0  0
 20 13  1  0  0  0  0
 21 14  2  0  0  0  0
 21 13  1  0  0  0  0
 22 26  1  0  0  0  0
 23 24  2  0  0  0  0
 23 27  1  0  0  0  0
 24 25  1  0  0  0  0
 25 22  2  0  0  0  0
 27 26  2  0  0  0  0
M  END
>  <MODEL>
1

>  <REMARK>
 VINA RESULT:     -10.3      0.000      0.000
  Name = 
  3 active torsions:
  status: ('A' for Active; 'I' for Inactive)
    1  A    between atoms: C_1  and  C_15
    2  A    between atoms: C_2  and  C_15
    3  A    between atoms: C_9  and  C_15
                            x       y       z     vdW  Elec       q    Type
                         _______ _______ _______ _____ _____    ______ ____

>  <TORSDO>
F 3

$$$$
=
 OpenBabel10272401013D

 27 30  0  0  1  0  0  0  0  0999 V2000
  188.5340  177.4300  143.9980 C   0  0  1  0  0  3  0  0  0  0  0  0
  187.1400  177.7930  143.5590 C   0  0  0  0  0  0  0  0  0  0  0  0
  183.2110  178.8140  142.2130 C   0  0  0  0  0  3  0  0  0  0  0  0
  180.9890  179.3310  142.6550 F   0  0  0  0  0  0  0  0  0  0  0  0
  186.8230  177.7290  142.1960 C   0  0  0  0  0  3  0  0  0  0  0  0
  183.8570  179.0460  145.0130 C   0  0  0  0  0  2  0  0  0  0  0  0
  182.4340  178.6990  144.5590 C   0  0  0  0  0  2  0  0  0  0  0  0
  186.1620  178.2020  144.4780 C   0  0  0  0  0  3  0  0  0  0  0  0
  182.2230  178.9920  143.0950 C   0  0  0  0  0  0  0  0  0  0  0  0
  184.5650  178.4620  142.6710 C   0  0  0  0  0  0  0  0  0  0  0  0
  184.8760  178.5240  144.0410 C   0  0  0  0  0  0  0  0  0  0  0  0
  185.5400  178.0650  141.7510 C   0  0  0  0  0  3  0  0  0  0  0  0
  189.6970  178.0850  143.2080 C   0  0  2  0  0  0  0  0  0  0  0  0
  191.3700  176.3610  143.2580 O   0  0  0  0  0  0  0  0  0  0  0  0
  190.2810  175.9500  140.5930 O   0  0  0  0  0  1  0  0  0  0  0  0
  191.8550  177.6170  140.6740 O   0  0  0  0  0  1  0  0  0  0  0  0
  190.4660  179.0450  144.1060 C   0  0  0  0  0  1  0  0  0  0  0  0
  190.6250  177.1760  141.1630 C   0  0  0  0  0  0  0  0  0  0  0  0
  189.5470  178.2080  140.9140 C   0  0  0  0  0  2  0  0  0  0  0  0
  189.1640  178.8310  142.1310 O   0  0  0  0  0  0  0  0  0  0  0  0
  190.6370  177.1000  142.6180 C   0  0  0  0  0  0  0  0  0  0  0  0
  189.0060  177.4090  148.2500 C   0  0  0  0  0  3  0  0  0  0  0  0
  188.7070  177.4280  145.4910 C   0  0  0  0  0  0  0  0  0  0  0  0
  189.8040  176.8620  146.0670 N   0  0  0  0  0  0  0  0  0  0  0  0
  189.9720  176.8420  147.4160 C   0  0  0  0  0  3  0  0  0  0  0  0
  187.8740  177.9930  147.6810 C   0  0  0  0  0  3  0  0  0  0  0  0
  187.7190  178.0050  146.2930 C   0  0  0  0  0  3  0  0  0  0  0  0
  1  2  1  1  0  0  0
  1 23  1  0  0  0  0
  2  8  1  0  0  0  0
  3 10  1  0  0  0  0
  3  9  2  0  0  0  0
  4  9  1  0  0  0  0
  5  2  2  0  0  0  0
  7  6  1  0  0  0  0
  9  7  1  0  0  0  0
 10 11  1  0  0  0  0
 11  8  2  0  0  0  0
 11  6  1  0  0  0  0
 12  5  1  0  0  0  0
 12 10  2  0  0  0  0
 13  1  1  0  0  0  0
 13 17  1  1  0  0  0
 15 18  1  0  0  0  0
 16 18  1  0  0  0  0
 18 21  1  0  0  0  0
 19 18  1  0  0  0  0
 19 20  1  0  0  0  0
 20 13  1  0  0  0  0
 21 13  1  0  0  0  0
 21 14  2  0  0  0  0
 23 24  2  0  0  0  0
 23 27  1  0  0  0  0
 24 25  1  0  0  0  0
 25 22  2  0  0  0  0
 26 22  1  0  0  0  0
 27 26  2  0  0  0  0
M  END
>  <MODEL>
2

>  <REMARK>
 VINA RESULT:      -9.3      1.029      1.920
  Name = 
  3 active torsions:
  status: ('A' for Active; 'I' for Inactive)
    1  A    between atoms: C_1  and  C_15
    2  A    between atoms: C_2  and  C_15
    3  A    between atoms: C_9  and  C_15
                            x       y       z     vdW  Elec       q    Type
                         _______ _______ _______ _____ _____    ______ ____

>  <TORSDO>
F 3

$$$$
=
 OpenBabel10272401013D

 27 30  0  0  1  0  0  0  0  0999 V2000
  188.3450  178.4060  140.9260 C   0  0  1  0  0  3  0  0  0  0  0  0
  186.8960  178.5280  141.3220 C   0  0  0  0  0  0  0  0  0  0  0  0
  182.7580  178.8640  142.3460 C   0  0  0  0  0  3  0  0  0  0  0  0
  181.0750  179.0880  143.9340 F   0  0  0  0  0  0  0  0  0  0  0  0
  185.9090  178.3130  140.3510 C   0  0  0  0  0  3  0  0  0  0  0  0
  184.7630  179.4060  144.3460 C   0  0  0  0  0  2  0  0  0  0  0  0
  183.3990  178.8230  144.7360 C   0  0  0  0  0  2  0  0  0  0  0  0
  186.5170  178.8640  142.6310 C   0  0  0  0  0  3  0  0  0  0  0  0
  182.3880  178.9660  143.6270 C   0  0  0  0  0  0  0  0  0  0  0  0
  184.1800  178.7470  141.9880 C   0  0  0  0  0  0  0  0  0  0  0  0
  185.1660  178.9620  142.9690 C   0  0  0  0  0  0  0  0  0  0  0  0
  184.5550  178.4240  140.6810 C   0  0  0  0  0  3  0  0  0  0  0  0
  189.2170  177.4640  141.7960 C   0  0  2  0  0  0  0  0  0  0  0  0
  190.3550  179.0180  143.2320 O   0  0  0  0  0  0  0  0  0  0  0  0
  188.2490  178.1070  145.0180 O   0  0  0  0  0  1  0  0  0  0  0  0
  190.0530  176.6910  144.9580 O   0  0  0  0  0  1  0  0  0  0  0  0
  190.4670  177.0510  141.0280 C   0  0  0  0  0  1  0  0  0  0  0  0
  189.0480  177.3020  144.2070 C   0  0  0  0  0  0  0  0  0  0  0  0
  188.2130  176.2660  143.4850 C   0  0  0  0  0  2  0  0  0  0  0  0
  188.4830  176.2910  142.0920 O   0  0  0  0  0  0  0  0  0  0  0  0
  189.6110  178.0580  143.0970 C   0  0  0  0  0  0  0  0  0  0  0  0
  188.8960  178.0080  136.7030 C   0  0  0  0  0  3  0  0  0  0  0  0
  188.5470  178.2670  139.4440 C   0  0  0  0  0  0  0  0  0  0  0  0
  188.9340  179.3330  138.6890 N   0  0  0  0  0  0  0  0  0  0  0  0
  189.1130  179.2290  137.3450 C   0  0  0  0  0  3  0  0  0  0  0  0
  188.4970  176.9040  137.4570 C   0  0  0  0  0  3  0  0  0  0  0  0
  188.3200  177.0300  138.8360 C   0  0  0  0  0  3  0  0  0  0  0  0
  1 23  1  6  0  0  0
  1  2  1  0  0  0  0
  1 13  1  0  0  0  0
  2  8  1  0  0  0  0
  3  9  2  0  0  0  0
  5 12  1  0  0  0  0
  5  2  2  0  0  0  0
  6  7  1  0  0  0  0
  8 11  2  0  0  0  0
  9  4  1  0  0  0  0
  9  7  1  0  0  0  0
 10  3  1  0  0  0  0
 10 11  1  0  0  0  0
 11  6  1  0  0  0  0
 12 10  2  0  0  0  0
 13 17  1  6  0  0  0
 13 20  1  0  0  0  0
 13 21  1  0  0  0  0
 18 16  1  0  0  0  0
 18 15  1  0  0  0  0
 19 18  1  0  0  0  0
 20 19  1  0  0  0  0
 21 14  2  0  0  0  0
 21 18  1  0  0  0  0
 22 25  2  0  0  0  0
 22 26  1  0  0  0  0
 24 23  2  0  0  0  0
 25 24  1  0  0  0  0
 26 27  2  0  0  0  0
 27 23  1  0  0  0  0
M  END
>  <MODEL>
3

>  <REMARK>
 VINA RESULT:      -9.2      2.555      5.235
  Name = 
  3 active torsions:
  status: ('A' for Active; 'I' for Inactive)
    1  A    between atoms: C_1  and  C_15
    2  A    between atoms: C_2  and  C_15
    3  A    between atoms: C_9  and  C_15
                            x       y       z     vdW  Elec       q    Type
                         _______ _______ _______ _____ _____    ______ ____

>  <TORSDO>
F 3

$$$$
=
 OpenBabel10272401013D

 27 30  0  0  1  0  0  0  0  0999 V2000
  187.6930  177.1970  144.4990 C   0  0  1  0  0  3  0  0  0  0  0  0
  186.2960  177.6990  144.2400 C   0  0  0  0  0  0  0  0  0  0  0  0
  182.3200  179.1410  143.6070 C   0  0  0  0  0  3  0  0  0  0  0  0
  180.5680  179.6910  142.1830 F   0  0  0  0  0  0  0  0  0  0  0  0
  185.5740  178.2650  145.2990 C   0  0  0  0  0  3  0  0  0  0  0  0
  183.7420  177.8960  141.4290 C   0  0  0  0  0  2  0  0  0  0  0  0
  182.7150  179.0040  141.1670 C   0  0  0  0  0  2  0  0  0  0  0  0
  185.7020  177.6000  142.9730 C   0  0  0  0  0  3  0  0  0  0  0  0
  181.8340  179.2490  142.3660 C   0  0  0  0  0  0  0  0  0  0  0  0
  183.6880  178.6460  143.8300 C   0  0  0  0  0  0  0  0  0  0  0  0
  184.4090  178.0810  142.7620 C   0  0  0  0  0  0  0  0  0  0  0  0
  184.2730  178.7350  145.0960 C   0  0  0  0  0  3  0  0  0  0  0  0
  188.7380  177.4680  143.3850 C   0  0  2  0  0  0  0  0  0  0  0  0
  190.3030  178.9060  144.5060 O   0  0  0  0  0  0  0  0  0  0  0  0
  191.7070  176.3650  144.6910 O   0  0  0  0  0  1  0  0  0  0  0  0
  192.0240  177.4240  142.6800 O   0  0  0  0  0  1  0  0  0  0  0  0
  188.2250  178.5420  142.4350 C   0  0  0  0  0  1  0  0  0  0  0  0
  191.0830  176.8810  143.5550 C   0  0  0  0  0  0  0  0  0  0  0  0
  190.2560  175.8180  142.8640 C   0  0  0  0  0  2  0  0  0  0  0  0
  188.9350  176.2850  142.6350 O   0  0  0  0  0  0  0  0  0  0  0  0
  190.0680  177.8660  143.9090 C   0  0  0  0  0  0  0  0  0  0  0  0
  189.0390  177.9610  148.4860 C   0  0  0  0  0  3  0  0  0  0  0  0
  188.1730  177.4690  145.8960 C   0  0  0  0  0  0  0  0  0  0  0  0
  189.1620  176.7140  146.4540 N   0  0  0  0  0  0  0  0  0  0  0  0
  189.6030  176.9390  147.7210 C   0  0  0  0  0  3  0  0  0  0  0  0
  188.0240  178.7440  147.9360 C   0  0  0  0  0  3  0  0  0  0  0  0
  187.5860  178.4990  146.6330 C   0  0  0  0  0  3  0  0  0  0  0  0
  1  2  1  6  0  0  0
  1 23  1  0  0  0  0
  2  5  1  0  0  0  0
  3 10  1  0  0  0  0
  4  9  1  0  0  0  0
  6 11  1  0  0  0  0
  7  6  1  0  0  0  0
  7  9  1  0  0  0  0
  8  2  2  0  0  0  0
  9  3  2  0  0  0  0
 10 12  1  0  0  0  0
 11  8  1  0  0  0  0
 11 10  2  0  0  0  0
 12  5  2  0  0  0  0
 13 17  1  6  0  0  0
 13 21  1  0  0  0  0
 13  1  1  0  0  0  0
 16 18  1  0  0  0  0
 18 21  1  0  0  0  0
 18 15  1  0  0  0  0
 19 18  1  0  0  0  0
 20 19  1  0  0  0  0
 20 13  1  0  0  0  0
 21 14  2  0  0  0  0
 23 24  2  0  0  0  0
 23 27  1  0  0  0  0
 24 25  1  0  0  0  0
 25 22  2  0  0  0  0
 26 22  1  0  0  0  0
 27 26  2  0  0  0  0
M  END
>  <MODEL>
4

>  <REMARK>
 VINA RESULT:      -9.2      1.647      2.439
  Name = 
  3 active torsions:
  status: ('A' for Active; 'I' for Inactive)
    1  A    between atoms: C_1  and  C_15
    2  A    between atoms: C_2  and  C_15
    3  A    between atoms: C_9  and  C_15
                            x       y       z     vdW  Elec       q    Type
                         _______ _______ _______ _____ _____    ______ ____

>  <TORSDO>
F 3

$$$$
=
 OpenBabel10272401013D

 27 30  0  0  1  0  0  0  0  0999 V2000
  182.4830  178.4000  140.0500 C   0  0  1  0  0  3  0  0  0  0  0  0
  183.0130  178.4810  141.4580 C   0  0  0  0  0  0  0  0  0  0  0  0
  184.4270  178.7490  145.4850 C   0  0  0  0  0  3  0  0  0  0  0  0
  186.0840  178.4010  147.0780 F   0  0  0  0  0  0  0  0  0  0  0  0
  182.1370  178.8390  142.4910 C   0  0  0  0  0  3  0  0  0  0  0  0
  186.2780  178.1030  143.3710 C   0  0  0  0  0  2  0  0  0  0  0  0
  186.4800  177.5550  144.7880 C   0  0  0  0  0  2  0  0  0  0  0  0
  184.3600  178.2210  141.7530 C   0  0  0  0  0  3  0  0  0  0  0  0
  185.6430  178.2940  145.8020 C   0  0  0  0  0  0  0  0  0  0  0  0
  183.9350  178.6590  144.1010 C   0  0  0  0  0  0  0  0  0  0  0  0
  184.8200  178.2960  143.0690 C   0  0  0  0  0  0  0  0  0  0  0  0
  182.5960  178.9300  143.8090 C   0  0  0  0  0  3  0  0  0  0  0  0
  181.7470  177.0900  139.6670 C   0  0  2  0  0  0  0  0  0  0  0  0
  180.5530  177.7460  137.6880 O   0  0  0  0  0  0  0  0  0  0  0  0
  182.8270  176.3810  136.4950 O   0  0  0  0  0  1  0  0  0  0  0  0
  181.1570  174.9480  137.1450 O   0  0  0  0  0  1  0  0  0  0  0  0
  180.5000  176.9190  140.5260 C   0  0  0  0  0  1  0  0  0  0  0  0
  182.0610  175.9240  137.5670 C   0  0  0  0  0  0  0  0  0  0  0  0
  182.9450  175.3940  138.6740 C   0  0  0  0  0  2  0  0  0  0  0  0
  182.5990  175.9880  139.9160 O   0  0  0  0  0  0  0  0  0  0  0  0
  181.3720  177.0220  138.2330 C   0  0  0  0  0  0  0  0  0  0  0  0
  180.5500  181.9820  138.7340 C   0  0  0  0  0  3  0  0  0  0  0  0
  181.8050  179.6620  139.5960 C   0  0  0  0  0  0  0  0  0  0  0  0
  180.6140  180.0480  140.1330 N   0  0  0  0  0  0  0  0  0  0  0  0
  179.9820  181.1820  139.7270 C   0  0  0  0  0  3  0  0  0  0  0  0
  181.7680  181.6040  138.1690 C   0  0  0  0  0  3  0  0  0  0  0  0
  182.4030  180.4380  138.5990 C   0  0  0  0  0  3  0  0  0  0  0  0
  1 23  1  1  0  0  0
  1  2  1  0  0  0  0
  2  8  2  0  0  0  0
  2  5  1  0  0  0  0
  3  9  2  0  0  0  0
  5 12  2  0  0  0  0
  6  7  1  0  0  0  0
  7  9  1  0  0  0  0
  8 11  1  0  0  0  0
  9  4  1  0  0  0  0
 10  3  1  0  0  0  0
 11  6  1  0  0  0  0
 11 10  2  0  0  0  0
 12 10  1  0  0  0  0
 13 20  1  0  0  0  0
 13  1  1  0  0  0  0
 13 17  1  1  0  0  0
 14 21  2  0  0  0  0
 15 18  1  0  0  0  0
 16 18  1  0  0  0  0
 18 21  1  0  0  0  0
 18 19  1  0  0  0  0
 19 20  1  0  0  0  0
 21 13  1  0  0  0  0
 22 25  1  0  0  0  0
 23 24  1  0  0  0  0
 25 24  2  0  0  0  0
 26 27  1  0  0  0  0
 26 22  2  0  0  0  0
 27 23  2  0  0  0  0
M  END
>  <MODEL>
5

>  <REMARK>
 VINA RESULT:      -9.1      5.312      8.843
  Name = 
  3 active torsions:
  status: ('A' for Active; 'I' for Inactive)
    1  A    between atoms: C_1  and  C_15
    2  A    between atoms: C_2  and  C_15
    3  A    between atoms: C_9  and  C_15
                            x       y       z     vdW  Elec       q    Type
                         _______ _______ _______ _____ _____    ______ ____

>  <TORSDO>
F 3

$$$$
=
 OpenBabel10272401013D

 27 30  0  0  1  0  0  0  0  0999 V2000
  188.2900  177.1590  145.2330 C   0  0  1  0  0  3  0  0  0  0  0  0
  188.7750  177.0870  143.8090 C   0  0  0  0  0  0  0  0  0  0  0  0
  190.2260  176.8120  139.7950 C   0  0  0  0  0  3  0  0  0  0  0  0
  190.0730  177.3660  137.5430 F   0  0  0  0  0  0  0  0  0  0  0  0
  189.7770  176.1630  143.4820 C   0  0  0  0  0  3  0  0  0  0  0  0
  188.2330  178.7890  140.4520 C   0  0  0  0  0  2  0  0  0  0  0  0
  188.2830  178.1550  139.0570 C   0  0  0  0  0  2  0  0  0  0  0  0
  188.2580  177.9270  142.8110 C   0  0  0  0  0  3  0  0  0  0  0  0
  189.5920  177.4490  138.8060 C   0  0  0  0  0  0  0  0  0  0  0  0
  189.7310  176.9030  141.1780 C   0  0  0  0  0  0  0  0  0  0  0  0
  188.7230  177.8300  141.4980 C   0  0  0  0  0  0  0  0  0  0  0  0
  190.2560  176.0720  142.1720 C   0  0  0  0  0  3  0  0  0  0  0  0
  189.3070  177.6840  146.2800 C   0  0  2  0  0  0  0  0  0  0  0  0
  189.4010  175.8620  147.8440 O   0  0  0  0  0  0  0  0  0  0  0  0
  191.8140  175.3500  146.3030 O   0  0  0  0  0  1  0  0  0  0  0  0
  192.1160  176.9130  147.9560 O   0  0  0  0  0  1  0  0  0  0  0  0
  188.6210  178.6490  147.2390 C   0  0  0  0  0  1  0  0  0  0  0  0
  191.4020  176.5850  146.8030 C   0  0  0  0  0  0  0  0  0  0  0  0
  191.5480  177.6670  145.7550 C   0  0  0  0  0  2  0  0  0  0  0  0
  190.3360  178.3920  145.6150 O   0  0  0  0  0  0  0  0  0  0  0  0
  189.9670  176.6040  147.0540 C   0  0  0  0  0  0  0  0  0  0  0  0
  184.3310  178.7410  145.5880 C   0  0  0  0  0  3  0  0  0  0  0  0
  186.9030  177.7220  145.3610 C   0  0  0  0  0  0  0  0  0  0  0  0
  186.3370  177.9140  146.5860 N   0  0  0  0  0  0  0  0  0  0  0  0
  185.0790  178.4130  146.7210 C   0  0  0  0  0  3  0  0  0  0  0  0
  184.8910  178.5510  144.3250 C   0  0  0  0  0  3  0  0  0  0  0  0
  186.1840  178.0380  144.2060 C   0  0  0  0  0  3  0  0  0  0  0  0
  1  2  1  6  0  0  0
  1 23  1  0  0  0  0
  1 13  1  0  0  0  0
  3 10  1  0  0  0  0
  4  9  1  0  0  0  0
  5  2  1  0  0  0  0
  6 11  1  0  0  0  0
  7  6  1  0  0  0  0
  8  2  2  0  0  0  0
  9  7  1  0  0  0  0
  9  3  2  0  0  0  0
 10 11  2  0  0  0  0
 10 12  1  0  0  0  0
 11  8  1  0  0  0  0
 12  5  2  0  0  0  0
 13 21  1  0  0  0  0
 13 17  1  1  0  0  0
 15 18  1  0  0  0  0
 18 21  1  0  0  0  0
 18 16  1  0  0  0  0
 19 18  1  0  0  0  0
 20 19  1  0  0  0  0
 20 13  1  0  0  0  0
 21 14  2  0  0  0  0
 22 25  1  0  0  0  0
 23 24  1  0  0  0  0
 24 25  2  0  0  0  0
 26 22  2  0  0  0  0
 27 26  1  0  0  0  0
 27 23  2  0  0  0  0
M  END
>  <MODEL>
6

>  <REMARK>
 VINA RESULT:      -8.9      3.227      5.800
  Name = 
  3 active torsions:
  status: ('A' for Active; 'I' for Inactive)
    1  A    between atoms: C_1  and  C_15
    2  A    between atoms: C_2  and  C_15
    3  A    between atoms: C_9  and  C_15
                            x       y       z     vdW  Elec       q    Type
                         _______ _______ _______ _____ _____    ______ ____

>  <TORSDO>
F 3

$$$$
=
 OpenBabel10272401013D

 27 30  0  0  1  0  0  0  0  0999 V2000
  190.3230  176.1190  138.4780 C   0  0  1  0  0  3  0  0  0  0  0  0
  190.4020  176.6000  139.9030 C   0  0  0  0  0  0  0  0  0  0  0  0
  190.7240  177.9920  143.9340 C   0  0  0  0  0  3  0  0  0  0  0  0
  189.7750  178.4190  146.0120 F   0  0  0  0  0  0  0  0  0  0  0  0
  191.5610  177.2610  140.3310 C   0  0  0  0  0  3  0  0  0  0  0  0
  188.3650  176.5530  143.1140 C   0  0  0  0  0  2  0  0  0  0  0  0
  188.2900  177.6360  144.1960 C   0  0  0  0  0  2  0  0  0  0  0  0
  189.3520  176.3900  140.8100 C   0  0  0  0  0  3  0  0  0  0  0  0
  189.6530  177.9900  144.7330 C   0  0  0  0  0  0  0  0  0  0  0  0
  190.6190  177.5150  142.5460 C   0  0  0  0  0  0  0  0  0  0  0  0
  189.4510  176.8550  142.1220 C   0  0  0  0  0  0  0  0  0  0  0  0
  191.6710  177.7150  141.6490 C   0  0  0  0  0  3  0  0  0  0  0  0
  189.5230  177.0120  137.4940 C   0  0  2  0  0  0  0  0  0  0  0  0
  187.3220  176.0570  137.6290 O   0  0  0  0  0  0  0  0  0  0  0  0
  187.0020  178.3500  139.3890 O   0  0  0  0  0  1  0  0  0  0  0  0
  186.7450  178.8760  137.1710 O   0  0  0  0  0  1  0  0  0  0  0  0
  189.7740  176.5670  136.0590 C   0  0  0  0  0  1  0  0  0  0  0  0
  187.6090  178.3530  138.1330 C   0  0  0  0  0  0  0  0  0  0  0  0
  188.9090  179.1270  138.1650 C   0  0  0  0  0  2  0  0  0  0  0  0
  189.9640  178.3500  137.6170 O   0  0  0  0  0  0  0  0  0  0  0  0
  188.0630  177.0200  137.7600 C   0  0  0  0  0  0  0  0  0  0  0  0
  194.0660  174.6790  136.9900 C   0  0  0  0  0  3  0  0  0  0  0  0
  191.6340  175.6110  137.9480 C   0  0  0  0  0  0  0  0  0  0  0  0
  191.8350  174.2790  137.7400 N   0  0  0  0  0  0  0  0  0  0  0  0
  193.0180  173.8000  137.2710 C   0  0  0  0  0  3  0  0  0  0  0  0
  193.8820  176.0460  137.1970 C   0  0  0  0  0  3  0  0  0  0  0  0
  192.6600  176.5190  137.6790 C   0  0  0  0  0  3  0  0  0  0  0  0
  1 23  1  6  0  0  0
  1  2  1  0  0  0  0
  2  5  2  0  0  0  0
  2  8  1  0  0  0  0
  3  9  2  0  0  0  0
  5 12  1  0  0  0  0
  6  7  1  0  0  0  0
  7  9  1  0  0  0  0
  8 11  2  0  0  0  0
  9  4  1  0  0  0  0
 10  3  1  0  0  0  0
 11 10  1  0  0  0  0
 11  6  1  0  0  0  0
 12 10  2  0  0  0  0
 13 17  1  6  0  0  0
 13 20  1  0  0  0  0
 13 21  1  0  0  0  0
 13  1  1  0  0  0  0
 14 21  2  0  0  0  0
 16 18  1  0  0  0  0
 18 19  1  0  0  0  0
 18 15  1  0  0  0  0
 20 19  1  0  0  0  0
 21 18  1  0  0  0  0
 22 26  2  0  0  0  0
 22 25  1  0  0  0  0
 24 23  1  0  0  0  0
 25 24  2  0  0  0  0
 26 27  1  0  0  0  0
 27 23  2  0  0  0  0
M  END
>  <MODEL>
7

>  <REMARK>
 VINA RESULT:      -8.9      3.860      6.813
  Name = 
  3 active torsions:
  status: ('A' for Active; 'I' for Inactive)
    1  A    between atoms: C_1  and  C_15
    2  A    between atoms: C_2  and  C_15
    3  A    between atoms: C_9  and  C_15
                            x       y       z     vdW  Elec       q    Type
                         _______ _______ _______ _____ _____    ______ ____

>  <TORSDO>
F 3

$$$$
=
 OpenBabel10272401013D

 27 30  0  0  1  0  0  0  0  0999 V2000
  190.4320  176.9960  138.2920 C   0  0  1  0  0  3  0  0  0  0  0  0
  190.5950  177.0660  139.7880 C   0  0  0  0  0  0  0  0  0  0  0  0
  191.1570  177.2950  144.0210 C   0  0  0  0  0  3  0  0  0  0  0  0
  190.3240  177.1490  146.1860 F   0  0  0  0  0  0  0  0  0  0  0  0
  191.7930  177.5680  140.3150 C   0  0  0  0  0  3  0  0  0  0  0  0
  188.7190  176.1680  142.9720 C   0  0  0  0  0  2  0  0  0  0  0  0
  188.7290  176.9150  144.3120 C   0  0  0  0  0  2  0  0  0  0  0  0
  189.5860  176.6300  140.6600 C   0  0  0  0  0  3  0  0  0  0  0  0
  190.1270  177.0890  144.8480 C   0  0  0  0  0  0  0  0  0  0  0  0
  190.9690  177.2180  142.5640 C   0  0  0  0  0  0  0  0  0  0  0  0
  189.7640  176.7160  142.0420 C   0  0  0  0  0  0  0  0  0  0  0  0
  191.9810  177.6430  141.6990 C   0  0  0  0  0  3  0  0  0  0  0  0
  190.9250  175.6940  137.6070 C   0  0  2  0  0  0  0  0  0  0  0  0
  191.1570  176.3900  135.3190 O   0  0  0  0  0  0  0  0  0  0  0  0
  193.9280  176.5400  136.1910 O   0  0  0  0  0  1  0  0  0  0  0  0
  193.2890  174.4220  135.5850 O   0  0  0  0  0  1  0  0  0  0  0  0
  189.7490  174.7620  137.3460 C   0  0  0  0  0  1  0  0  0  0  0  0
  193.0400  175.4940  136.4420 C   0  0  0  0  0  0  0  0  0  0  0  0
  193.1190  175.0550  137.8880 C   0  0  0  0  0  2  0  0  0  0  0  0
  191.8240  175.0260  138.4710 O   0  0  0  0  0  0  0  0  0  0  0  0
  191.6550  175.9360  136.3390 C   0  0  0  0  0  0  0  0  0  0  0  0
  186.6400  178.4130  136.9100 C   0  0  0  0  0  3  0  0  0  0  0  0
  189.0980  177.4950  137.8150 C   0  0  0  0  0  0  0  0  0  0  0  0
  187.9540  176.8120  138.0990 N   0  0  0  0  0  0  0  0  0  0  0  0
  186.7390  177.2440  137.6670 C   0  0  0  0  0  3  0  0  0  0  0  0
  187.8000  179.1260  136.6050 C   0  0  0  0  0  3  0  0  0  0  0  0
  189.0380  178.6680  137.0590 C   0  0  0  0  0  3  0  0  0  0  0  0
  1 23  1  1  0  0  0
  1  2  1  0  0  0  0
  2  5  2  0  0  0  0
  2  8  1  0  0  0  0
  3  9  2  0  0  0  0
  5 12  1  0  0  0  0
  6  7  1  0  0  0  0
  7  9  1  0  0  0  0
  8 11  2  0  0  0  0
  9  4  1  0  0  0  0
 10  3  1  0  0  0  0
 11 10  1  0  0  0  0
 11  6  1  0  0  0  0
 12 10  2  0  0  0  0
 13 17  1  6  0  0  0
 13  1  1  0  0  0  0
 13 20  1  0  0  0  0
 14 21  2  0  0  0  0
 15 18  1  0  0  0  0
 16 18  1  0  0  0  0
 18 19  1  0  0  0  0
 19 20  1  0  0  0  0
 21 18  1  0  0  0  0
 21 13  1  0  0  0  0
 22 25  1  0  0  0  0
 23 24  1  0  0  0  0
 25 24  2  0  0  0  0
 26 22  2  0  0  0  0
 26 27  1  0  0  0  0
 27 23  2  0  0  0  0
M  END
>  <MODEL>
8

>  <REMARK>
 VINA RESULT:      -8.6      4.048      7.280
  Name = 
  3 active torsions:
  status: ('A' for Active; 'I' for Inactive)
    1  A    between atoms: C_1  and  C_15
    2  A    between atoms: C_2  and  C_15
    3  A    between atoms: C_9  and  C_15
                            x       y       z     vdW  Elec       q    Type
                         _______ _______ _______ _____ _____    ______ ____

>  <TORSDO>
F 3

$$$$
=
 OpenBabel10272401013D

 27 30  0  0  1  0  0  0  0  0999 V2000
  189.5230  176.6130  139.2140 C   0  0  1  0  0  3  0  0  0  0  0  0
  189.6880  176.9240  140.6790 C   0  0  0  0  0  0  0  0  0  0  0  0
  190.2570  177.8210  144.8210 C   0  0  0  0  0  3  0  0  0  0  0  0
  189.4020  178.1740  146.9540 F   0  0  0  0  0  0  0  0  0  0  0  0
  190.9400  177.3470  141.1440 C   0  0  0  0  0  3  0  0  0  0  0  0
  187.6920  176.8650  143.9160 C   0  0  0  0  0  2  0  0  0  0  0  0
  187.7980  177.8280  145.1040 C   0  0  0  0  0  2  0  0  0  0  0  0
  188.6240  176.7900  141.5840 C   0  0  0  0  0  3  0  0  0  0  0  0
  189.2050  177.9050  145.6420 C   0  0  0  0  0  0  0  0  0  0  0  0
  190.0670  177.5140  143.3950 C   0  0  0  0  0  0  0  0  0  0  0  0
  188.8060  177.0940  142.9350 C   0  0  0  0  0  0  0  0  0  0  0  0
  191.1310  177.6380  142.4980 C   0  0  0  0  0  3  0  0  0  0  0  0
  188.7530  177.6620  138.3710 C   0  0  2  0  0  0  0  0  0  0  0  0
  189.7410  177.3810  136.1990 O   0  0  0  0  0  0  0  0  0  0  0  0
  187.2890  175.8540  135.8570 O   0  0  0  0  0  1  0  0  0  0  0  0
  186.9980  178.1080  135.5390 O   0  0  0  0  0  1  0  0  0  0  0  0
  189.3350  179.0510  138.6040 C   0  0  0  0  0  1  0  0  0  0  0  0
  187.4000  177.1180  136.4370 C   0  0  0  0  0  0  0  0  0  0  0  0
  186.5960  177.1950  137.7170 C   0  0  0  0  0  2  0  0  0  0  0  0
  187.3990  177.6860  138.7800 O   0  0  0  0  0  0  0  0  0  0  0  0
  188.7530  177.3650  136.9170 C   0  0  0  0  0  0  0  0  0  0  0  0
  193.0950  175.0970  137.4150 C   0  0  0  0  0  3  0  0  0  0  0  0
  190.7740  176.0810  138.5750 C   0  0  0  0  0  0  0  0  0  0  0  0
  190.8030  174.8320  138.0300 N   0  0  0  0  0  0  0  0  0  0  0  0
  191.9290  174.3300  137.4550 C   0  0  0  0  0  3  0  0  0  0  0  0
  193.0880  176.3770  137.9690 C   0  0  0  0  0  3  0  0  0  0  0  0
  191.9220  176.8760  138.5530 C   0  0  0  0  0  3  0  0  0  0  0  0
  1 23  1  6  0  0  0
  1  2  1  0  0  0  0
  2  5  2  0  0  0  0
  2  8  1  0  0  0  0
  3  9  2  0  0  0  0
  5 12  1  0  0  0  0
  6  7  1  0  0  0  0
  7  9  1  0  0  0  0
  8 11  2  0  0  0  0
  9  4  1  0  0  0  0
 10  3  1  0  0  0  0
 11 10  1  0  0  0  0
 11  6  1  0  0  0  0
 12 10  2  0  0  0  0
 13 17  1  1  0  0  0
 13 20  1  0  0  0  0
 13  1  1  0  0  0  0
 14 21  2  0  0  0  0
 15 18  1  0  0  0  0
 16 18  1  0  0  0  0
 18 21  1  0  0  0  0
 18 19  1  0  0  0  0
 19 20  1  0  0  0  0
 21 13  1  0  0  0  0
 22 25  2  0  0  0  0
 22 26  1  0  0  0  0
 24 23  2  0  0  0  0
 25 24  1  0  0  0  0
 26 27  2  0  0  0  0
 27 23  1  0  0  0  0
M  END
>  <MODEL>
9

>  <REMARK>
 VINA RESULT:      -8.6      3.763      6.335
  Name = 
  3 active torsions:
  status: ('A' for Active; 'I' for Inactive)
    1  A    between atoms: C_1  and  C_15
    2  A    between atoms: C_2  and  C_15
    3  A    between atoms: C_9  and  C_15
                            x       y       z     vdW  Elec       q    Type
                         _______ _______ _______ _____ _____    ______ ____

>  <TORSDO>
F 3

$$$$
