=
 OpenBabel10272415083D

 34 39  0  0  1  0  0  0  0  0999 V2000
  185.6510  178.7220  142.2040 C   0  0  0  0  0  0  0  0  0  0  0  0
  186.0230  178.2580  138.5620 C   0  0  0  0  0  3  0  0  0  0  0  0
  184.0670  178.5230  139.9360 N   0  0  0  0  0  0  0  0  0  0  0  0
  185.0720  178.9440  144.2620 C   0  0  0  0  0  0  0  0  0  0  0  0
  186.1690  178.8030  143.4520 N   0  0  0  0  0  2  0  0  0  0  0  0
  182.4530  178.9980  143.8130 C   0  0  0  0  0  2  0  0  0  0  0  0
  181.5930  178.9120  142.7660 C   0  0  0  0  0  3  0  0  0  0  0  0
  183.8970  178.9390  143.5150 C   0  0  0  0  0  0  0  0  0  0  0  0
  183.4940  178.7020  141.1620 C   0  0  0  0  0  0  0  0  0  0  0  0
  184.3110  178.8030  142.2500 C   0  0  0  0  0  0  0  0  0  0  0  0
  182.0760  178.7620  141.4000 N   0  0  0  0  0  0  0  0  0  0  0  0
  187.4200  178.1640  138.4240 C   0  0  0  0  0  0  0  0  0  0  0  0
  188.2290  178.2570  139.5750 C   0  0  0  0  0  3  0  0  0  0  0  0
  185.4390  178.4430  139.8160 C   0  0  0  0  0  0  0  0  0  0  0  0
  187.6660  178.4420  140.8410 C   0  0  0  0  0  3  0  0  0  0  0  0
  186.2810  178.5380  140.9710 C   0  0  0  0  0  0  0  0  0  0  0  0
  187.2090  178.0160  135.9420 C   0  0  0  0  0  3  0  0  0  0  0  0
  189.4490  177.7320  136.9970 C   0  0  0  0  0  1  0  0  0  0  0  0
  187.7170  177.8510  134.7990 O   0  0  0  0  0  0  0  0  0  0  0  0
  188.0160  177.9730  137.1250 N   0  0  0  0  0  0  0  0  0  0  0  0
  185.1500  179.0000  145.7560 C   0  0  0  0  0  2  0  0  0  0  0  0
  187.8690  177.6360  148.1430 C   0  0  0  0  0  2  0  0  0  0  0  0
  187.3170  177.7920  145.3390 C   0  0  0  0  0  3  0  0  0  0  0  0
  191.1110  176.6430  146.5950 C   0  0  0  0  0  0  0  0  0  0  0  0
  190.1490  176.8850  147.4930 C   0  0  0  0  0  3  0  0  0  0  0  0
  189.0210  177.8170  147.1620 C   0  0  1  0  0  3  0  0  0  0  0  0
  189.6300  177.3160  144.6690 C   0  0  0  0  0  2  0  0  0  0  0  0
  188.5930  177.6290  145.7170 C   0  0  0  0  0  0  0  0  0  0  0  0
  191.0540  177.3180  145.2470 C   0  0  0  0  0  2  0  0  0  0  0  0
  186.2020  178.0490  146.3260 C   0  0  1  0  0  3  0  0  0  0  0  0
  186.6990  178.5060  147.7010 C   0  0  0  0  0  2  0  0  0  0  0  0
  192.2310  175.7510  146.9300 C   0  0  0  0  0  0  0  0  0  0  0  0
  192.8750  175.9160  147.9990 O   0  0  0  0  0  1  0  0  0  0  0  0
  192.5900  174.7180  146.0700 O   0  0  0  0  0  0  0  0  0  0  0  0
  1 10  2  0  0  0  0
  1  5  1  0  0  0  0
  2 14  1  0  0  0  0
  3  9  2  0  0  0  0
  4 21  1  0  0  0  0
  5  4  1  0  0  0  0
  7  6  1  0  0  0  0
  8  6  1  0  0  0  0
  8  4  2  0  0  0  0
  9 11  1  0  0  0  0
  9 10  1  0  0  0  0
 10  8  1  0  0  0  0
 11  7  2  0  0  0  0
 12  2  2  0  0  0  0
 12 13  1  0  0  0  0
 13 15  2  0  0  0  0
 14  3  1  0  0  0  0
 14 16  2  0  0  0  0
 15 16  1  0  0  0  0
 16  1  1  0  0  0  0
 17 20  1  0  0  0  0
 18 20  1  0  0  0  0
 19 17  2  0  0  0  0
 20 12  1  0  0  0  0
 23 28  2  0  0  0  0
 23 30  1  0  0  0  0
 24 32  1  0  0  0  0
 24 25  2  0  0  0  0
 26 25  1  1  0  0  0
 26 22  1  0  0  0  0
 27 29  1  0  0  0  0
 27 28  1  0  0  0  0
 28 26  1  0  0  0  0
 29 24  1  0  0  0  0
 30 21  1  6  0  0  0
 30 31  1  0  0  0  0
 31 22  1  0  0  0  0
 32 33  1  0  0  0  0
 34 32  2  0  0  0  0
M  END
>  <MODEL>
1

>  <REMARK>
 VINA RESULT:     -11.8      0.000      0.000
  Name = 
  4 active torsions:
  status: ('A' for Active; 'I' for Inactive)
    1  A    between atoms: C_7  and  C_11
    2  A    between atoms: C_8  and  C_18
    3  A    between atoms: C_18  and  C_30
    4  A    between atoms: C_23  and  N_25
                            x       y       z     vdW  Elec       q    Type
                         _______ _______ _______ _____ _____    ______ ____

>  <TORSDO>
F 4

$$$$
=
 OpenBabel10272415083D

 34 39  0  0  1  0  0  0  0  0999 V2000
  187.5800  177.9440  141.0910 C   0  0  0  0  0  0  0  0  0  0  0  0
  189.4210  177.4650  137.9280 C   0  0  0  0  0  3  0  0  0  0  0  0
  187.1950  178.2640  138.3630 N   0  0  0  0  0  0  0  0  0  0  0  0
  186.2150  178.2840  142.7150 C   0  0  0  0  0  0  0  0  0  0  0  0
  187.4830  177.8440  142.4370 N   0  0  0  0  0  2  0  0  0  0  0  0
  184.1880  179.1130  141.2090 C   0  0  0  0  0  2  0  0  0  0  0  0
  183.9010  179.3050  139.8960 C   0  0  0  0  0  3  0  0  0  0  0  0
  185.5440  178.6390  141.5480 C   0  0  0  0  0  0  0  0  0  0  0  0
  186.1980  178.5790  139.2410 C   0  0  0  0  0  0  0  0  0  0  0  0
  186.4330  178.4140  140.5750 C   0  0  0  0  0  0  0  0  0  0  0  0
  184.8920  179.0480  138.8590 N   0  0  0  0  0  0  0  0  0  0  0  0
  190.6560  176.9680  138.3850 C   0  0  0  0  0  0  0  0  0  0  0  0
  190.8530  176.7950  139.7700 C   0  0  0  0  0  3  0  0  0  0  0  0
  188.4040  177.7880  138.8270 C   0  0  0  0  0  0  0  0  0  0  0  0
  189.8490  177.1120  140.6880 C   0  0  0  0  0  3  0  0  0  0  0  0
  188.6290  177.6080  140.2310 C   0  0  0  0  0  0  0  0  0  0  0  0
  193.0750  176.6480  137.8590 C   0  0  0  0  0  3  0  0  0  0  0  0
  191.3770  176.2860  136.0720 C   0  0  0  0  0  1  0  0  0  0  0  0
  193.9990  176.3610  137.0510 O   0  0  0  0  0  0  0  0  0  0  0  0
  191.7020  176.6370  137.4500 N   0  0  0  0  0  0  0  0  0  0  0  0
  185.6230  178.2830  144.0900 C   0  0  0  0  0  2  0  0  0  0  0  0
  187.6400  177.7430  147.3450 C   0  0  0  0  0  2  0  0  0  0  0  0
  187.8700  177.2450  144.5360 C   0  0  0  0  0  3  0  0  0  0  0  0
  191.2210  176.7840  146.9560 C   0  0  0  0  0  0  0  0  0  0  0  0
  190.0410  177.1100  147.4950 C   0  0  0  0  0  3  0  0  0  0  0  0
  189.0080  177.8300  146.6790 C   0  0  1  0  0  3  0  0  0  0  0  0
  190.2970  176.8780  144.6120 C   0  0  0  0  0  2  0  0  0  0  0  0
  189.0000  177.2970  145.2570 C   0  0  0  0  0  0  0  0  0  0  0  0
  191.5070  177.1480  145.5200 C   0  0  0  0  0  2  0  0  0  0  0  0
  186.5180  177.5880  145.1160 C   0  0  1  0  0  3  0  0  0  0  0  0
  186.6010  178.3750  146.4280 C   0  0  0  0  0  2  0  0  0  0  0  0
  192.2430  176.1030  147.7650 C   0  0  0  0  0  0  0  0  0  0  0  0
  192.6140  174.9370  147.4670 O   0  0  0  0  0  0  0  0  0  0  0  0
  192.8080  176.7380  148.8650 O   0  0  0  0  0  1  0  0  0  0  0  0
  1  5  1  0  0  0  0
  2 12  2  0  0  0  0
  2 14  1  0  0  0  0
  3 14  1  0  0  0  0
  3  9  2  0  0  0  0
  4 21  1  0  0  0  0
  5  4  1  0  0  0  0
  6  8  1  0  0  0  0
  7  6  1  0  0  0  0
  8  4  2  0  0  0  0
  9 10  1  0  0  0  0
 10  1  2  0  0  0  0
 10  8  1  0  0  0  0
 11  9  1  0  0  0  0
 11  7  2  0  0  0  0
 12 13  1  0  0  0  0
 13 15  2  0  0  0  0
 14 16  2  0  0  0  0
 16 15  1  0  0  0  0
 16  1  1  0  0  0  0
 18 20  1  0  0  0  0
 19 17  2  0  0  0  0
 20 17  1  0  0  0  0
 20 12  1  0  0  0  0
 23 30  1  0  0  0  0
 23 28  2  0  0  0  0
 24 25  2  0  0  0  0
 24 32  1  0  0  0  0
 26 22  1  1  0  0  0
 26 25  1  0  0  0  0
 27 28  1  0  0  0  0
 27 29  1  0  0  0  0
 28 26  1  0  0  0  0
 29 24  1  0  0  0  0
 30 21  1  6  0  0  0
 30 31  1  0  0  0  0
 31 22  1  0  0  0  0
 32 34  1  0  0  0  0
 33 32  2  0  0  0  0
M  END
>  <MODEL>
2

>  <REMARK>
 VINA RESULT:     -11.1      1.935      2.868
  Name = 
  4 active torsions:
  status: ('A' for Active; 'I' for Inactive)
    1  A    between atoms: C_7  and  C_11
    2  A    between atoms: C_8  and  C_18
    3  A    between atoms: C_18  and  C_30
    4  A    between atoms: C_23  and  N_25
                            x       y       z     vdW  Elec       q    Type
                         _______ _______ _______ _____ _____    ______ ____

>  <TORSDO>
F 4

$$$$
=
 OpenBabel10272415083D

 34 39  0  0  1  0  0  0  0  0999 V2000
  189.0120  177.3930  143.6630 C   0  0  0  0  0  0  0  0  0  0  0  0
  191.6740  176.8300  141.1690 C   0  0  0  0  0  3  0  0  0  0  0  0
  191.7240  176.8220  143.5740 N   0  0  0  0  0  0  0  0  0  0  0  0
  187.7380  177.7220  145.3620 C   0  0  0  0  0  0  0  0  0  0  0  0
  187.7370  177.7080  143.9920 N   0  0  0  0  0  0  0  0  0  0  0  0
  189.6210  177.3490  147.2010 C   0  0  0  0  0  2  0  0  0  0  0  0
  190.9470  177.0690  147.2640 C   0  0  0  0  0  3  0  0  0  0  0  0
  189.0030  177.4270  145.8630 C   0  0  0  0  0  0  0  0  0  0  0  0
  191.0880  176.9560  144.7750 C   0  0  0  0  0  0  0  0  0  0  0  0
  189.7510  177.2290  144.7720 C   0  0  2  0  0  3  0  0  0  0  0  0
  191.7350  176.8610  146.0560 N   0  0  0  0  0  0  0  0  0  0  0  0
  190.9730  176.9850  139.9590 C   0  0  0  0  0  0  0  0  0  0  0  0
  189.5960  177.2830  139.9990 C   0  0  0  0  0  3  0  0  0  0  0  0
  191.0210  176.9660  142.3950 C   0  0  0  0  0  0  0  0  0  0  0  0
  188.9220  177.4230  141.2160 C   0  0  0  0  0  3  0  0  0  0  0  0
  189.6210  177.2650  142.4120 C   0  0  0  0  0  0  0  0  0  0  0  0
  193.0860  176.8110  138.6420 C   0  0  0  0  0  3  0  0  0  0  0  0
  190.8950  176.7300  137.4560 C   0  0  0  0  0  1  0  0  0  0  0  0
  193.6940  176.6870  137.5440 O   0  0  0  0  0  0  0  0  0  0  0  0
  191.6540  176.8430  138.6970 N   0  0  0  0  0  0  0  0  0  0  0  0
  186.5460  178.0990  146.1850 C   0  0  0  0  0  2  0  0  0  0  0  0
  183.0260  179.1820  145.0080 C   0  0  0  0  0  2  0  0  0  0  0  0
  185.5720  178.4900  143.8990 C   0  0  0  0  0  3  0  0  0  0  0  0
  182.2770  178.7830  141.3770 C   0  0  0  0  0  0  0  0  0  0  0  0
  182.1550  179.0600  142.6810 C   0  0  0  0  0  3  0  0  0  0  0  0
  183.0860  178.4380  143.6790 C   0  0  1  0  0  3  0  0  0  0  0  0
  184.6900  178.1000  141.6410 C   0  0  0  0  0  2  0  0  0  0  0  0
  184.4930  178.3710  143.1110 C   0  0  0  0  0  0  0  0  0  0  0  0
  183.3590  177.8370  140.9200 C   0  0  0  0  0  2  0  0  0  0  0  0
  185.4720  178.8200  145.3710 C   0  0  1  0  0  3  0  0  0  0  0  0
  184.0710  178.6010  145.9500 C   0  0  0  0  0  2  0  0  0  0  0  0
  181.3470  179.3720  140.4030 C   0  0  0  0  0  0  0  0  0  0  0  0
  181.5430  179.2220  139.1690 O   0  0  0  0  0  0  0  0  0  0  0  0
  180.2430  180.0990  140.8350 O   0  0  0  0  0  1  0  0  0  0  0  0
  1  5  2  0  0  0  0
  2 14  1  0  0  0  0
  3  9  2  0  0  0  0
  4  8  2  0  0  0  0
  4 21  1  0  0  0  0
  5  4  1  0  0  0  0
  6  7  1  0  0  0  0
  8  6  1  0  0  0  0
  9 11  1  0  0  0  0
 10  1  1  6  0  0  0
 10  9  1  0  0  0  0
 10  8  1  0  0  0  0
 11  7  2  0  0  0  0
 12 13  1  0  0  0  0
 12  2  2  0  0  0  0
 13 15  2  0  0  0  0
 14 16  2  0  0  0  0
 14  3  1  0  0  0  0
 15 16  1  0  0  0  0
 16  1  1  0  0  0  0
 17 20  1  0  0  0  0
 18 20  1  0  0  0  0
 19 17  2  0  0  0  0
 20 12  1  0  0  0  0
 22 31  1  0  0  0  0
 23 30  1  0  0  0  0
 24 25  2  0  0  0  0
 26 25  1  6  0  0  0
 26 22  1  0  0  0  0
 27 28  1  0  0  0  0
 28 26  1  0  0  0  0
 28 23  2  0  0  0  0
 29 24  1  0  0  0  0
 29 27  1  0  0  0  0
 30 31  1  0  0  0  0
 30 21  1  1  0  0  0
 32 34  1  0  0  0  0
 32 24  1  0  0  0  0
 33 32  2  0  0  0  0
M  END
>  <MODEL>
3

>  <REMARK>
 VINA RESULT:     -11.0      3.415      7.303
  Name = 
  4 active torsions:
  status: ('A' for Active; 'I' for Inactive)
    1  A    between atoms: C_7  and  C_11
    2  A    between atoms: C_8  and  C_18
    3  A    between atoms: C_18  and  C_30
    4  A    between atoms: C_23  and  N_25
                            x       y       z     vdW  Elec       q    Type
                         _______ _______ _______ _____ _____    ______ ____

>  <TORSDO>
F 4

$$$$
=
 OpenBabel10272415083D

 34 39  0  0  1  0  0  0  0  0999 V2000
  186.7860  178.1420  143.6090 C   0  0  0  0  0  0  0  0  0  0  0  0
  188.7000  177.4290  146.6840 C   0  0  0  0  0  3  0  0  0  0  0  0
  186.4070  178.0780  146.3560 N   0  0  0  0  0  0  0  0  0  0  0  0
  185.4070  178.6760  142.0500 C   0  0  0  0  0  0  0  0  0  0  0  0
  186.7050  178.2940  142.2670 N   0  0  0  0  0  0  0  0  0  0  0  0
  183.3450  179.1660  143.6540 C   0  0  0  0  0  3  0  0  0  0  0  0
  183.0580  179.1630  144.9810 C   0  0  0  0  0  3  0  0  0  0  0  0
  184.7070  178.7660  143.2500 C   0  0  0  0  0  0  0  0  0  0  0  0
  185.3750  178.4110  145.5260 C   0  0  0  0  0  0  0  0  0  0  0  0
  185.6040  178.4220  144.1810 C   0  0  2  0  0  3  0  0  0  0  0  0
  184.0590  178.7860  145.9710 N   0  0  0  0  0  2  0  0  0  0  0  0
  189.9710  177.1200  146.1660 C   0  0  0  0  0  0  0  0  0  0  0  0
  190.1710  177.1590  144.7720 C   0  0  0  0  0  3  0  0  0  0  0  0
  187.6460  177.7670  145.8340 C   0  0  0  0  0  0  0  0  0  0  0  0
  189.1300  177.4950  143.9020 C   0  0  0  0  0  3  0  0  0  0  0  0
  187.8710  177.7970  144.4190 C   0  0  0  0  0  0  0  0  0  0  0  0
  191.9830  175.7380  146.6940 C   0  0  0  0  0  3  0  0  0  0  0  0
  191.2220  177.4640  148.3240 C   0  0  0  0  0  1  0  0  0  0  0  0
  192.9340  175.4240  147.4590 O   0  0  0  0  0  0  0  0  0  0  0  0
  191.0550  176.7710  147.0510 N   0  0  0  0  0  0  0  0  0  0  0  0
  184.8660  179.0350  140.7010 C   0  0  0  0  0  2  0  0  0  0  0  0
  184.0090  176.8950  137.5970 C   0  0  0  0  0  2  0  0  0  0  0  0
  183.1520  177.2360  140.3050 C   0  0  0  0  0  3  0  0  0  0  0  0
  180.8070  174.9890  137.7080 C   0  0  0  0  0  0  0  0  0  0  0  0
  181.9720  175.5000  137.2930 C   0  0  0  0  0  3  0  0  0  0  0  0
  182.5330  176.7310  137.9410 C   0  0  1  0  0  3  0  0  0  0  0  0
  181.0050  176.0940  139.9650 C   0  0  0  0  0  2  0  0  0  0  0  0
  182.2840  176.6940  139.4380 C   0  0  0  0  0  0  0  0  0  0  0  0
  180.0610  175.6630  138.8320 C   0  0  0  0  0  2  0  0  0  0  0  0
  184.4840  177.8070  139.8750 C   0  0  1  0  0  3  0  0  0  0  0  0
  184.5710  178.0800  138.3710 C   0  0  0  0  0  2  0  0  0  0  0  0
  180.2440  173.7990  137.0530 C   0  0  0  0  0  0  0  0  0  0  0  0
  179.9920  172.7650  137.7260 O   0  0  0  0  0  1  0  0  0  0  0  0
  179.9850  173.8030  135.6870 O   0  0  0  0  0  0  0  0  0  0  0  0
  1 10  1  0  0  0  0
  1 16  1  0  0  0  0
  4  5  1  0  0  0  0
  4  8  2  0  0  0  0
  5  1  2  0  0  0  0
  6  7  2  0  0  0  0
  7 11  1  0  0  0  0
  8  6  1  0  0  0  0
  9 11  1  0  0  0  0
  9  3  2  0  0  0  0
 10  8  1  1  0  0  0
 10  9  1  0  0  0  0
 12  2  1  0  0  0  0
 12 20  1  0  0  0  0
 13 12  2  0  0  0  0
 14  3  1  0  0  0  0
 14  2  2  0  0  0  0
 15 16  2  0  0  0  0
 15 13  1  0  0  0  0
 16 14  1  0  0  0  0
 17 20  1  0  0  0  0
 17 19  2  0  0  0  0
 20 18  1  0  0  0  0
 21  4  1  0  0  0  0
 22 26  1  0  0  0  0
 22 31  1  0  0  0  0
 24 29  1  0  0  0  0
 25 24  2  0  0  0  0
 26 25  1  6  0  0  0
 26 28  1  0  0  0  0
 28 27  1  0  0  0  0
 28 23  2  0  0  0  0
 29 27  1  0  0  0  0
 30 23  1  0  0  0  0
 30 21  1  1  0  0  0
 31 30  1  0  0  0  0
 32 24  1  0  0  0  0
 32 33  1  0  0  0  0
 34 32  2  0  0  0  0
M  END
>  <MODEL>
4

>  <REMARK>
 VINA RESULT:     -10.1      3.589      9.231
  Name = 
  4 active torsions:
  status: ('A' for Active; 'I' for Inactive)
    1  A    between atoms: C_7  and  C_11
    2  A    between atoms: C_8  and  C_18
    3  A    between atoms: C_18  and  C_30
    4  A    between atoms: C_23  and  N_25
                            x       y       z     vdW  Elec       q    Type
                         _______ _______ _______ _____ _____    ______ ____

>  <TORSDO>
F 4

$$$$
=
 OpenBabel10272415083D

 34 39  0  0  1  0  0  0  0  0999 V2000
  186.9480  177.9640  144.6430 C   0  0  0  0  0  0  0  0  0  0  0  0
  183.3650  178.8250  144.8490 C   0  0  0  0  0  3  0  0  0  0  0  0
  185.0490  178.6220  146.5540 N   0  0  0  0  0  0  0  0  0  0  0  0
  189.0190  177.4480  144.8930 C   0  0  0  0  0  0  0  0  0  0  0  0
  188.0410  177.5830  143.9420 N   0  0  0  0  0  0  0  0  0  0  0  0
  189.0570  177.7130  147.5380 C   0  0  0  0  0  3  0  0  0  0  0  0
  188.2050  178.0250  148.5470 C   0  0  0  0  0  3  0  0  0  0  0  0
  188.5230  177.7350  146.1620 C   0  0  0  0  0  0  0  0  0  0  0  0
  186.3370  178.3630  146.9240 C   0  0  0  0  0  0  0  0  0  0  0  0
  187.2400  178.0520  145.9510 C   0  0  2  0  0  3  0  0  0  0  0  0
  186.8120  178.3640  148.2830 N   0  0  0  0  0  2  0  0  0  0  0  0
  182.9740  178.7580  143.4990 C   0  0  0  0  0  0  0  0  0  0  0  0
  183.9330  178.4160  142.5250 C   0  0  0  0  0  3  0  0  0  0  0  0
  184.6830  178.5620  145.2250 C   0  0  0  0  0  0  0  0  0  0  0  0
  185.2590  178.1480  142.8790 C   0  0  0  0  0  3  0  0  0  0  0  0
  185.6420  178.2200  144.2180 C   0  0  0  0  0  0  0  0  0  0  0  0
  181.3030  179.5010  141.8000 C   0  0  0  0  0  3  0  0  0  0  0  0
  180.5240  178.8340  144.0710 C   0  0  0  0  0  1  0  0  0  0  0  0
  180.1150  179.7450  141.4540 O   0  0  0  0  0  0  0  0  0  0  0  0
  181.6110  179.0320  143.1180 N   0  0  0  0  0  0  0  0  0  0  0  0
  190.4030  176.9640  144.5920 C   0  0  0  0  0  2  0  0  0  0  0  0
  191.9510  176.9090  141.0490 C   0  0  0  0  0  2  0  0  0  0  0  0
  189.3760  176.9500  142.2960 C   0  0  0  0  0  3  0  0  0  0  0  0
  189.6570  177.6570  138.2070 C   0  0  0  0  0  0  0  0  0  0  0  0
  190.7530  177.3630  138.9170 C   0  0  0  0  0  3  0  0  0  0  0  0
  190.8100  177.6690  140.3850 C   0  0  1  0  0  3  0  0  0  0  0  0
  188.1980  177.6620  140.2630 C   0  0  0  0  0  2  0  0  0  0  0  0
  189.4650  177.3870  141.0310 C   0  0  0  0  0  0  0  0  0  0  0  0
  188.4800  178.3020  138.8950 C   0  0  0  0  0  2  0  0  0  0  0  0
  190.5900  176.5910  143.1220 C   0  0  1  0  0  3  0  0  0  0  0  0
  191.8980  177.1480  142.5520 C   0  0  0  0  0  2  0  0  0  0  0  0
  189.6130  177.3810  136.7640 C   0  0  0  0  0  0  0  0  0  0  0  0
  188.7270  177.9130  136.0440 O   0  0  0  0  0  0  0  0  0  0  0  0
  190.5460  176.5320  136.1800 O   0  0  0  0  0  1  0  0  0  0  0  0
  2 14  1  0  0  0  0
  3  9  2  0  0  0  0
  4  8  2  0  0  0  0
  5  1  2  0  0  0  0
  5  4  1  0  0  0  0
  6  7  2  0  0  0  0
  8  6  1  0  0  0  0
  9 11  1  0  0  0  0
 10  1  1  1  0  0  0
 10  8  1  0  0  0  0
 10  9  1  0  0  0  0
 11  7  1  0  0  0  0
 12  2  2  0  0  0  0
 13 15  2  0  0  0  0
 13 12  1  0  0  0  0
 14  3  1  0  0  0  0
 15 16  1  0  0  0  0
 16  1  1  0  0  0  0
 16 14  2  0  0  0  0
 17 20  1  0  0  0  0
 19 17  2  0  0  0  0
 20 12  1  0  0  0  0
 20 18  1  0  0  0  0
 21  4  1  0  0  0  0
 22 31  1  0  0  0  0
 23 30  1  0  0  0  0
 24 29  1  0  0  0  0
 24 25  2  0  0  0  0
 26 25  1  6  0  0  0
 26 28  1  0  0  0  0
 26 22  1  0  0  0  0
 27 28  1  0  0  0  0
 28 23  2  0  0  0  0
 29 27  1  0  0  0  0
 30 21  1  1  0  0  0
 31 30  1  0  0  0  0
 32 24  1  0  0  0  0
 33 32  2  0  0  0  0
 34 32  1  0  0  0  0
M  END
>  <MODEL>
5

>  <REMARK>
 VINA RESULT:     -10.1      3.355      7.292
  Name = 
  4 active torsions:
  status: ('A' for Active; 'I' for Inactive)
    1  A    between atoms: C_7  and  C_11
    2  A    between atoms: C_8  and  C_18
    3  A    between atoms: C_18  and  C_30
    4  A    between atoms: C_23  and  N_25
                            x       y       z     vdW  Elec       q    Type
                         _______ _______ _______ _____ _____    ______ ____

>  <TORSDO>
F 4

$$$$
=
 OpenBabel10272415083D

 34 39  0  0  1  0  0  0  0  0999 V2000
  187.1130  177.9720  139.0640 C   0  0  0  0  0  0  0  0  0  0  0  0
  189.7320  176.5560  136.8830 C   0  0  0  0  0  3  0  0  0  0  0  0
  187.3710  176.8550  136.5390 N   0  0  0  0  0  0  0  0  0  0  0  0
  185.3520  178.6680  140.0790 C   0  0  0  0  0  0  0  0  0  0  0  0
  186.7010  178.4970  140.2420 N   0  0  0  0  0  2  0  0  0  0  0  0
  183.6570  178.1280  138.1040 C   0  0  0  0  0  2  0  0  0  0  0  0
  183.6780  177.5960  136.8550 C   0  0  0  0  0  3  0  0  0  0  0  0
  184.9430  178.2420  138.8180 C   0  0  0  0  0  0  0  0  0  0  0  0
  186.1500  177.2740  136.9850 C   0  0  0  0  0  0  0  0  0  0  0  0
  186.0710  177.8250  138.2300 C   0  0  0  0  0  0  0  0  0  0  0  0
  184.9230  177.1480  136.2440 N   0  0  0  0  0  0  0  0  0  0  0  0
  190.8770  176.6750  137.6930 C   0  0  0  0  0  0  0  0  0  0  0  0
  190.7500  177.2340  138.9800 C   0  0  0  0  0  3  0  0  0  0  0  0
  188.4860  176.9870  137.3400 C   0  0  0  0  0  0  0  0  0  0  0  0
  189.5120  177.6720  139.4580 C   0  0  0  0  0  3  0  0  0  0  0  0
  188.3810  177.5560  138.6510 C   0  0  0  0  0  0  0  0  0  0  0  0
  193.2910  176.1800  138.0930 C   0  0  0  0  0  3  0  0  0  0  0  0
  192.3280  175.8180  135.8230 C   0  0  0  0  0  1  0  0  0  0  0  0
  194.4190  175.7910  137.6860 O   0  0  0  0  0  0  0  0  0  0  0  0
  192.1610  176.2280  137.2130 N   0  0  0  0  0  0  0  0  0  0  0  0
  184.4450  179.1620  141.1630 C   0  0  0  0  0  2  0  0  0  0  0  0
  184.6550  178.7230  144.9990 C   0  0  0  0  0  2  0  0  0  0  0  0
  186.1720  178.1010  142.6530 C   0  0  0  0  0  3  0  0  0  0  0  0
  187.9550  177.6820  146.3870 C   0  0  0  0  0  0  0  0  0  0  0  0
  186.6720  178.0520  146.2900 C   0  0  0  0  0  3  0  0  0  0  0  0
  186.1780  178.7560  145.0610 C   0  0  1  0  0  3  0  0  0  0  0  0
  188.2570  177.6930  143.8840 C   0  0  0  0  0  2  0  0  0  0  0  0
  186.8260  178.1640  143.8220 C   0  0  0  0  0  0  0  0  0  0  0  0
  188.9000  177.9790  145.2500 C   0  0  0  0  0  2  0  0  0  0  0  0
  184.7200  178.4950  142.5100 C   0  0  1  0  0  3  0  0  0  0  0  0
  184.1990  179.3340  143.6810 C   0  0  0  0  0  2  0  0  0  0  0  0
  188.4450  177.0170  147.6030 C   0  0  0  0  0  0  0  0  0  0  0  0
  187.8820  177.2260  148.7100 O   0  0  0  0  0  1  0  0  0  0  0  0
  189.5330  176.1530  147.5440 O   0  0  0  0  0  0  0  0  0  0  0  0
  1  5  1  0  0  0  0
  2 14  2  0  0  0  0
  2 12  1  0  0  0  0
  3  9  2  0  0  0  0
  3 14  1  0  0  0  0
  4  5  1  0  0  0  0
  4 21  1  0  0  0  0
  6  8  1  0  0  0  0
  7  6  1  0  0  0  0
  8  4  2  0  0  0  0
  9 10  1  0  0  0  0
 10  8  1  0  0  0  0
 10  1  2  0  0  0  0
 11  7  2  0  0  0  0
 11  9  1  0  0  0  0
 12 13  2  0  0  0  0
 13 15  1  0  0  0  0
 14 16  1  0  0  0  0
 16  1  1  0  0  0  0
 16 15  2  0  0  0  0
 18 20  1  0  0  0  0
 19 17  2  0  0  0  0
 20 12  1  0  0  0  0
 20 17  1  0  0  0  0
 23 28  2  0  0  0  0
 24 32  1  0  0  0  0
 25 24  2  0  0  0  0
 26 22  1  6  0  0  0
 26 25  1  0  0  0  0
 27 29  1  0  0  0  0
 28 27  1  0  0  0  0
 28 26  1  0  0  0  0
 29 24  1  0  0  0  0
 30 21  1  6  0  0  0
 30 23  1  0  0  0  0
 30 31  1  0  0  0  0
 31 22  1  0  0  0  0
 32 33  1  0  0  0  0
 34 32  2  0  0  0  0
M  END
>  <MODEL>
6

>  <REMARK>
 VINA RESULT:     -10.0      2.523      4.422
  Name = 
  4 active torsions:
  status: ('A' for Active; 'I' for Inactive)
    1  A    between atoms: C_7  and  C_11
    2  A    between atoms: C_8  and  C_18
    3  A    between atoms: C_18  and  C_30
    4  A    between atoms: C_23  and  N_25
                            x       y       z     vdW  Elec       q    Type
                         _______ _______ _______ _____ _____    ______ ____

>  <TORSDO>
F 4

$$$$
=
 OpenBabel10272415083D

 34 39  0  0  1  0  0  0  0  0999 V2000
  187.8940  178.0190  140.2490 C   0  0  0  0  0  0  0  0  0  0  0  0
  188.7870  177.2900  143.7550 C   0  0  0  0  0  3  0  0  0  0  0  0
  190.0110  176.9810  141.7080 N   0  0  0  0  0  0  0  0  0  0  0  0
  187.6840  178.2580  138.1240 C   0  0  0  0  0  0  0  0  0  0  0  0
  187.0150  178.4340  139.3070 N   0  0  0  0  0  0  0  0  0  0  0  0
  190.0790  177.2910  137.4940 C   0  0  0  0  0  3  0  0  0  0  0  0
  191.1670  176.7700  138.1160 C   0  0  0  0  0  3  0  0  0  0  0  0
  188.9550  177.7320  138.3420 C   0  0  0  0  0  0  0  0  0  0  0  0
  190.0960  177.0830  140.3490 C   0  0  0  0  0  0  0  0  0  0  0  0
  189.0340  177.6070  139.6720 C   0  0  2  0  0  3  0  0  0  0  0  0
  191.2220  176.6450  139.5670 N   0  0  0  0  0  2  0  0  0  0  0  0
  187.6280  177.7010  144.4390 C   0  0  0  0  0  0  0  0  0  0  0  0
  186.5460  178.2210  143.7010 C   0  0  0  0  0  3  0  0  0  0  0  0
  188.8720  177.3970  142.3660 C   0  0  0  0  0  0  0  0  0  0  0  0
  186.6090  178.3380  142.3100 C   0  0  0  0  0  3  0  0  0  0  0  0
  187.7620  177.9330  141.6370 C   0  0  0  0  0  0  0  0  0  0  0  0
  188.6730  177.1270  146.6320 C   0  0  0  0  0  3  0  0  0  0  0  0
  186.3170  177.9390  146.5760 C   0  0  0  0  0  1  0  0  0  0  0  0
  188.6160  177.0230  147.8870 O   0  0  0  0  0  0  0  0  0  0  0  0
  187.5470  177.5870  145.8740 N   0  0  0  0  0  0  0  0  0  0  0  0
  187.0720  178.5180  136.7820 C   0  0  0  0  0  2  0  0  0  0  0  0
  183.7570  176.5280  136.7820 C   0  0  0  0  0  2  0  0  0  0  0  0
  186.5740  176.0580  136.6030 C   0  0  0  0  0  3  0  0  0  0  0  0
  184.0200  172.8350  137.2220 C   0  0  0  0  0  0  0  0  0  0  0  0
  183.5230  174.0670  137.0570 C   0  0  0  0  0  3  0  0  0  0  0  0
  184.3480  175.2700  137.4080 C   0  0  1  0  0  3  0  0  0  0  0  0
  186.3980  173.6690  137.1400 C   0  0  0  0  0  2  0  0  0  0  0  0
  185.7960  175.0450  137.0120 C   0  0  0  0  0  0  0  0  0  0  0  0
  185.4170  172.6660  137.7660 C   0  0  0  0  0  2  0  0  0  0  0  0
  186.0440  177.4570  136.3890 C   0  0  1  0  0  3  0  0  0  0  0  0
  184.6870  177.7020  137.0560 C   0  0  0  0  0  2  0  0  0  0  0  0
  183.2010  171.6560  136.9040 C   0  0  0  0  0  0  0  0  0  0  0  0
  183.7240  170.6490  136.3570 O   0  0  0  0  0  0  0  0  0  0  0  0
  181.8430  171.6410  137.2020 O   0  0  0  0  0  1  0  0  0  0  0  0
  1 16  1  0  0  0  0
  2 12  1  0  0  0  0
  3 14  1  0  0  0  0
  4  8  2  0  0  0  0
  4  5  1  0  0  0  0
  5  1  2  0  0  0  0
  6  7  2  0  0  0  0
  6  8  1  0  0  0  0
  7 11  1  0  0  0  0
  9  3  2  0  0  0  0
 10  8  1  6  0  0  0
 10  1  1  0  0  0  0
 10  9  1  0  0  0  0
 11  9  1  0  0  0  0
 12 20  1  0  0  0  0
 13 12  2  0  0  0  0
 14  2  2  0  0  0  0
 15 13  1  0  0  0  0
 16 15  2  0  0  0  0
 16 14  1  0  0  0  0
 17 19  2  0  0  0  0
 20 18  1  0  0  0  0
 20 17  1  0  0  0  0
 21  4  1  0  0  0  0
 22 31  1  0  0  0  0
 23 28  2  0  0  0  0
 24 29  1  0  0  0  0
 25 24  2  0  0  0  0
 25 26  1  0  0  0  0
 26 22  1  6  0  0  0
 27 29  1  0  0  0  0
 28 27  1  0  0  0  0
 28 26  1  0  0  0  0
 30 23  1  0  0  0  0
 30 21  1  1  0  0  0
 30 31  1  0  0  0  0
 32 34  1  0  0  0  0
 32 24  1  0  0  0  0
 33 32  2  0  0  0  0
M  END
>  <MODEL>
7

>  <REMARK>
 VINA RESULT:      -9.9      3.712      9.449
  Name = 
  4 active torsions:
  status: ('A' for Active; 'I' for Inactive)
    1  A    between atoms: C_7  and  C_11
    2  A    between atoms: C_8  and  C_18
    3  A    between atoms: C_18  and  C_30
    4  A    between atoms: C_23  and  N_25
                            x       y       z     vdW  Elec       q    Type
                         _______ _______ _______ _____ _____    ______ ____

>  <TORSDO>
F 4

$$$$
=
 OpenBabel10272415083D

 34 39  0  0  1  0  0  0  0  0999 V2000
  187.1210  177.9860  143.6750 C   0  0  0  0  0  0  0  0  0  0  0  0
  188.9070  177.4120  146.8530 C   0  0  0  0  0  3  0  0  0  0  0  0
  186.6380  178.0720  146.4050 N   0  0  0  0  0  0  0  0  0  0  0  0
  185.8090  178.4550  142.0380 C   0  0  0  0  0  0  0  0  0  0  0  0
  187.0920  178.0680  142.3240 N   0  0  0  0  0  0  0  0  0  0  0  0
  183.6950  179.0540  143.5350 C   0  0  0  0  0  3  0  0  0  0  0  0
  183.3590  179.1260  144.8480 C   0  0  0  0  0  3  0  0  0  0  0  0
  185.0660  178.6160  143.2040 C   0  0  0  0  0  0  0  0  0  0  0  0
  185.6430  178.3740  145.5200 C   0  0  0  0  0  0  0  0  0  0  0  0
  185.9220  178.3110  144.1860 C   0  0  2  0  0  3  0  0  0  0  0  0
  184.3170  178.7880  145.8940 N   0  0  0  0  0  2  0  0  0  0  0  0
  190.1920  177.0600  146.4020 C   0  0  0  0  0  0  0  0  0  0  0  0
  190.4450  177.0230  145.0160 C   0  0  0  0  0  3  0  0  0  0  0  0
  187.8910  177.7180  145.9470 C   0  0  0  0  0  0  0  0  0  0  0  0
  189.4420  177.3260  144.0900 C   0  0  0  0  0  3  0  0  0  0  0  0
  188.1690  177.6700  144.5430 C   0  0  0  0  0  0  0  0  0  0  0  0
  192.1770  175.6990  147.0660 C   0  0  0  0  0  3  0  0  0  0  0  0
  191.3510  177.4850  148.5960 C   0  0  0  0  0  1  0  0  0  0  0  0
  193.0950  175.4140  147.8820 O   0  0  0  0  0  0  0  0  0  0  0  0
  191.2370  176.7440  147.3440 N   0  0  0  0  0  0  0  0  0  0  0  0
  185.3240  178.7480  140.6530 C   0  0  0  0  0  2  0  0  0  0  0  0
  187.3020  177.6360  137.5220 C   0  0  0  0  0  2  0  0  0  0  0  0
  187.7780  178.3740  140.2460 C   0  0  0  0  0  3  0  0  0  0  0  0
  190.8510  176.6290  138.0540 C   0  0  0  0  0  0  0  0  0  0  0  0
  189.6730  176.8880  137.4740 C   0  0  0  0  0  3  0  0  0  0  0  0
  188.4210  176.9530  138.2980 C   0  0  1  0  0  3  0  0  0  0  0  0
  190.0310  177.4010  140.3090 C   0  0  0  0  0  2  0  0  0  0  0  0
  188.7050  177.6260  139.6290 C   0  0  0  0  0  0  0  0  0  0  0  0
  190.9100  176.4000  139.5440 C   0  0  0  0  0  2  0  0  0  0  0  0
  186.4440  178.7020  139.6140 C   0  0  1  0  0  3  0  0  0  0  0  0
  186.0910  177.7930  138.4330 C   0  0  0  0  0  2  0  0  0  0  0  0
  192.0740  176.5390  137.2420 C   0  0  0  0  0  0  0  0  0  0  0  0
  192.0110  176.1580  136.0430 O   0  0  0  0  0  0  0  0  0  0  0  0
  193.3090  176.8710  137.7880 O   0  0  0  0  0  1  0  0  0  0  0  0
  1 10  1  0  0  0  0
  1 16  1  0  0  0  0
  4  5  1  0  0  0  0
  4  8  2  0  0  0  0
  5  1  2  0  0  0  0
  6  7  2  0  0  0  0
  7 11  1  0  0  0  0
  8  6  1  0  0  0  0
  9 11  1  0  0  0  0
  9  3  2  0  0  0  0
 10  8  1  1  0  0  0
 10  9  1  0  0  0  0
 12  2  1  0  0  0  0
 12 20  1  0  0  0  0
 13 12  2  0  0  0  0
 14  3  1  0  0  0  0
 14  2  2  0  0  0  0
 15 16  2  0  0  0  0
 15 13  1  0  0  0  0
 16 14  1  0  0  0  0
 17 20  1  0  0  0  0
 17 19  2  0  0  0  0
 20 18  1  0  0  0  0
 21  4  1  0  0  0  0
 22 26  1  0  0  0  0
 22 31  1  0  0  0  0
 24 29  1  0  0  0  0
 25 24  2  0  0  0  0
 26 25  1  6  0  0  0
 26 28  1  0  0  0  0
 28 23  2  0  0  0  0
 28 27  1  0  0  0  0
 29 27  1  0  0  0  0
 30 23  1  0  0  0  0
 30 21  1  1  0  0  0
 31 30  1  0  0  0  0
 32 34  1  0  0  0  0
 32 24  1  0  0  0  0
 33 32  2  0  0  0  0
M  END
>  <MODEL>
8

>  <REMARK>
 VINA RESULT:      -9.9      2.310      7.589
  Name = 
  4 active torsions:
  status: ('A' for Active; 'I' for Inactive)
    1  A    between atoms: C_7  and  C_11
    2  A    between atoms: C_8  and  C_18
    3  A    between atoms: C_18  and  C_30
    4  A    between atoms: C_23  and  N_25
                            x       y       z     vdW  Elec       q    Type
                         _______ _______ _______ _____ _____    ______ ____

>  <TORSDO>
F 4

$$$$
=
 OpenBabel10272415083D

 34 39  0  0  1  0  0  0  0  0999 V2000
  185.5700  178.3130  142.2250 C   0  0  0  0  0  0  0  0  0  0  0  0
  187.3250  177.7090  145.4150 C   0  0  0  0  0  3  0  0  0  0  0  0
  185.0230  178.2210  144.9420 N   0  0  0  0  0  0  0  0  0  0  0  0
  184.2630  178.7680  140.5800 C   0  0  0  0  0  0  0  0  0  0  0  0
  185.5650  178.4630  140.8790 N   0  0  0  0  0  0  0  0  0  0  0  0
  182.0780  179.1300  142.0500 C   0  0  0  0  0  3  0  0  0  0  0  0
  181.7080  179.1080  143.3560 C   0  0  0  0  0  3  0  0  0  0  0  0
  183.4840  178.8130  141.7340 C   0  0  0  0  0  0  0  0  0  0  0  0
  184.0270  178.4940  144.0480 C   0  0  0  0  0  0  0  0  0  0  0  0
  184.3390  178.5210  142.7200 C   0  0  2  0  0  3  0  0  0  0  0  0
  182.6660  178.7890  144.4080 N   0  0  0  0  0  2  0  0  0  0  0  0
  188.6420  177.4770  144.9800 C   0  0  0  0  0  0  0  0  0  0  0  0
  188.9270  177.5310  143.6010 C   0  0  0  0  0  3  0  0  0  0  0  0
  186.3080  177.9860  144.4990 C   0  0  0  0  0  0  0  0  0  0  0  0
  187.9250  177.8060  142.6660 C   0  0  0  0  0  3  0  0  0  0  0  0
  186.6200  178.0320  143.1020 C   0  0  0  0  0  0  0  0  0  0  0  0
  191.0590  177.1620  145.5200 C   0  0  0  0  0  3  0  0  0  0  0  0
  189.3610  176.9290  147.3290 C   0  0  0  0  0  1  0  0  0  0  0  0
  191.9820  176.9140  146.3420 O   0  0  0  0  0  0  0  0  0  0  0  0
  189.6870  177.1920  145.9320 N   0  0  0  0  0  0  0  0  0  0  0  0
  183.7870  179.0960  139.1990 C   0  0  0  0  0  2  0  0  0  0  0  0
  182.4730  175.5260  138.5040 C   0  0  0  0  0  2  0  0  0  0  0  0
  184.5340  177.2980  137.6060 C   0  0  0  0  0  3  0  0  0  0  0  0
  184.6740  173.2950  136.4850 C   0  0  0  0  0  0  0  0  0  0  0  0
  183.6490  173.7560  137.2120 C   0  0  0  0  0  3  0  0  0  0  0  0
  183.8260  174.9550  138.0960 C   0  0  1  0  0  3  0  0  0  0  0  0
  185.8570  175.5200  136.5490 C   0  0  0  0  0  2  0  0  0  0  0  0
  184.7120  175.9820  137.4130 C   0  0  0  0  0  0  0  0  0  0  0  0
  186.0100  173.9910  136.5620 C   0  0  0  0  0  2  0  0  0  0  0  0
  183.3790  177.8540  138.4070 C   0  0  1  0  0  3  0  0  0  0  0  0
  182.6940  176.8090  139.2940 C   0  0  0  0  0  2  0  0  0  0  0  0
  184.5070  172.1030  135.6400 C   0  0  0  0  0  0  0  0  0  0  0  0
  184.8090  172.1440  134.4180 O   0  0  0  0  0  0  0  0  0  0  0  0
  184.0140  170.9210  136.1810 O   0  0  0  0  0  1  0  0  0  0  0  0
  1 10  1  0  0  0  0
  1 16  1  0  0  0  0
  4  5  1  0  0  0  0
  4  8  2  0  0  0  0
  5  1  2  0  0  0  0
  6  7  2  0  0  0  0
  7 11  1  0  0  0  0
  8  6  1  0  0  0  0
  9 11  1  0  0  0  0
  9  3  2  0  0  0  0
 10  8  1  1  0  0  0
 10  9  1  0  0  0  0
 12  2  1  0  0  0  0
 12 20  1  0  0  0  0
 13 12  2  0  0  0  0
 14  3  1  0  0  0  0
 14  2  2  0  0  0  0
 15 16  2  0  0  0  0
 15 13  1  0  0  0  0
 16 14  1  0  0  0  0
 17 20  1  0  0  0  0
 17 19  2  0  0  0  0
 20 18  1  0  0  0  0
 21  4  1  0  0  0  0
 22 31  1  0  0  0  0
 23 30  1  0  0  0  0
 24 29  1  0  0  0  0
 24 25  2  0  0  0  0
 26 25  1  6  0  0  0
 26 22  1  0  0  0  0
 27 29  1  0  0  0  0
 27 28  1  0  0  0  0
 28 23  2  0  0  0  0
 28 26  1  0  0  0  0
 30 21  1  1  0  0  0
 30 31  1  0  0  0  0
 32 34  1  0  0  0  0
 32 24  1  0  0  0  0
 33 32  2  0  0  0  0
M  END
>  <MODEL>
9

>  <REMARK>
 VINA RESULT:      -9.8      3.213      8.445
  Name = 
  4 active torsions:
  status: ('A' for Active; 'I' for Inactive)
    1  A    between atoms: C_7  and  C_11
    2  A    between atoms: C_8  and  C_18
    3  A    between atoms: C_18  and  C_30
    4  A    between atoms: C_23  and  N_25
                            x       y       z     vdW  Elec       q    Type
                         _______ _______ _______ _____ _____    ______ ____

>  <TORSDO>
F 4

$$$$
