=
 OpenBabel10272400113D

 34 37  0  0  1  0  0  0  0  0999 V2000
  197.4010  174.2700  138.1290 C   0  0  2  0  0  3  0  0  0  0  0  0
  189.9540  176.4030  134.3460 O   0  0  0  0  0  0  0  0  0  0  0  0
  195.6260  174.4290  136.2340 C   0  0  1  0  0  3  0  0  0  0  0  0
  193.2310  174.6310  137.1500 C   0  0  1  0  0  3  0  0  0  0  0  0
  193.9670  175.8940  135.0990 C   0  0  0  0  0  3  0  0  0  0  0  0
  189.3740  176.8270  136.5470 N   0  0  0  0  0  2  0  0  0  0  0  0
  196.8690  175.0410  136.9080 C   0  0  2  0  0  3  0  0  0  0  0  0
  192.7030  176.2580  134.8780 C   0  0  0  0  0  3  0  0  0  0  0  0
  192.0170  175.5540  137.2050 C   0  0  0  0  0  2  0  0  0  0  0  0
  195.3940  172.9460  136.5970 C   0  0  2  0  0  3  0  0  0  0  0  0
  196.2440  173.6810  138.9250 C   0  0  0  0  0  2  0  0  0  0  0  0
  192.8550  173.2720  136.5390 C   0  0  0  0  0  2  0  0  0  0  0  0
  194.0590  172.4740  135.9960 C   0  0  2  0  0  3  0  0  0  0  0  0
  191.6840  176.0900  135.8790 N   0  0  0  0  0  0  0  0  0  0  0  0
  194.3960  175.3300  136.4230 C   0  0  2  0  0  3  0  0  0  0  0  0
  195.4890  172.6320  138.1070 C   0  0  0  0  0  2  0  0  0  0  0  0
  190.3270  176.4390  135.5490 C   0  0  0  0  0  0  0  0  0  0  0  0
  192.3320  169.3220  135.0400 C   0  0  0  0  0  0  0  0  0  0  0  0
  193.3960  168.4110  134.9680 O   0  0  0  0  0  0  0  0  0  0  0  0
  193.8460  170.9580  136.1140 C   0  0  1  0  0  3  0  0  0  0  0  0
  194.6760  168.6900  135.5400 C   0  0  0  0  0  2  0  0  0  0  0  0
  192.5170  170.5460  135.5390 C   0  0  0  0  0  3  0  0  0  0  0  0
  194.9810  170.1810  135.4390 C   0  0  0  0  0  2  0  0  0  0  0  0
  190.9990  168.9400  134.5070 C   0  0  0  0  0  1  0  0  0  0  0  0
  198.2280  175.1610  138.9980 C   0  0  0  0  0  0  0  0  0  0  0  0
  199.6020  175.2140  138.8140 O   0  0  0  0  0  0  0  0  0  0  0  0
  197.6900  175.8660  139.8930 O   0  0  0  0  0  1  0  0  0  0  0  0
  197.8760  175.4000  135.9860 O   0  0  0  0  0  0  0  0  0  0  0  0
  198.4210  174.2290  135.4340 C   0  0  0  0  0  1  0  0  0  0  0  0
  189.7100  177.2300  137.9070 C   0  0  1  0  0  3  0  0  0  0  0  0
  189.7230  178.7520  138.0250 C   0  0  0  0  0  2  0  0  0  0  0  0
  188.6530  179.3130  137.3240 O   0  0  0  0  0  1  0  0  0  0  0  0
  188.7210  176.6110  138.8810 C   0  0  0  0  0  2  0  0  0  0  0  0
  189.0260  177.2260  140.5630 S   0  0  0  0  0  1  0  0  0  0  0  0
  1 11  1  0  0  0  0
  1 25  1  1  0  0  0
  2 17  2  0  0  0  0
  3 15  1  0  0  0  0
  3 10  1  0  0  0  0
  3  7  1  0  0  0  0
  4  9  1  0  0  0  0
  5 15  1  0  0  0  0
  6 30  1  0  0  0  0
  7  1  1  0  0  0  0
  8  5  2  0  0  0  0
  8 14  1  0  0  0  0
 10 16  1  0  0  0  0
 12  4  1  0  0  0  0
 13 20  1  0  0  0  0
 13 12  1  0  0  0  0
 13 10  1  0  0  0  0
 14  9  1  0  0  0  0
 15  4  1  0  0  0  0
 16 11  1  0  0  0  0
 17 14  1  0  0  0  0
 17  6  1  0  0  0  0
 18 22  2  0  0  0  0
 19 18  1  0  0  0  0
 19 21  1  0  0  0  0
 22 20  1  0  0  0  0
 23 21  1  0  0  0  0
 23 20  1  0  0  0  0
 24 18  1  0  0  0  0
 25 27  1  0  0  0  0
 26 25  2  0  0  0  0
 28  7  1  0  0  0  0
 29 28  1  0  0  0  0
 30 31  1  0  0  0  0
 30 33  1  0  0  0  0
 32 31  1  0  0  0  0
 33 34  1  0  0  0  0
M  END
>  <MODEL>
1

>  <REMARK>
 VINA RESULT:      -4.7      0.000      0.000
  Name = 
  6 active torsions:
  status: ('A' for Active; 'I' for Inactive)
    1  A    between atoms: C_1  and  C_6
    2  A    between atoms: O_2  and  C_15
    3  A    between atoms: C_11  and  CA_20
    4  A    between atoms: C_12  and  C_28
    5  A    between atoms: N_13  and  CA_20
    6  A    between atoms: CB_14  and  CA_20
                            x       y       z     vdW  Elec       q    Type
                         _______ _______ _______ _____ _____    ______ ____

>  <TORSDO>
F 6

$$$$
=
 OpenBabel10272400113D

 34 37  0  0  1  0  0  0  0  0999 V2000
  188.9030  177.3960  136.6030 C   0  0  2  0  0  3  0  0  0  0  0  0
  181.0560  178.0780  140.1080 O   0  0  0  0  0  0  0  0  0  0  0  0
  186.9080  176.8070  138.1650 C   0  0  1  0  0  3  0  0  0  0  0  0
  185.4260  178.8460  138.6730 C   0  0  1  0  0  3  0  0  0  0  0  0
  184.4380  176.5560  138.3270 C   0  0  0  0  0  3  0  0  0  0  0  0
  181.1470  180.1240  139.0290 N   0  0  0  0  0  2  0  0  0  0  0  0
  187.6260  176.5660  136.8230 C   0  0  2  0  0  3  0  0  0  0  0  0
  183.2510  177.0140  138.7250 C   0  0  0  0  0  3  0  0  0  0  0  0
  184.0190  179.4100  138.4950 C   0  0  0  0  0  2  0  0  0  0  0  0
  187.8000  177.4780  139.2310 C   0  0  2  0  0  3  0  0  0  0  0  0
  188.7400  178.7840  137.2080 C   0  0  0  0  0  2  0  0  0  0  0  0
  185.8030  178.7820  140.1620 C   0  0  0  0  0  2  0  0  0  0  0  0
  186.9560  177.8050  140.4740 C   0  0  2  0  0  3  0  0  0  0  0  0
  182.9910  178.4230  138.8520 N   0  0  0  0  0  0  0  0  0  0  0  0
  185.5490  177.4920  137.9490 C   0  0  2  0  0  3  0  0  0  0  0  0
  188.5860  178.7090  138.7290 C   0  0  0  0  0  2  0  0  0  0  0  0
  181.7110  178.8470  139.3540 C   0  0  0  0  0  0  0  0  0  0  0  0
  187.7410  177.8530  144.1090 C   0  0  0  0  0  0  0  0  0  0  0  0
  189.1420  177.7790  144.1110 O   0  0  0  0  0  0  0  0  0  0  0  0
  187.7970  178.2710  141.6700 C   0  0  1  0  0  3  0  0  0  0  0  0
  189.9190  178.0370  142.9390 C   0  0  0  0  0  2  0  0  0  0  0  0
  187.0710  178.0460  142.9710 C   0  0  0  0  0  3  0  0  0  0  0  0
  189.1630  177.5760  141.6970 C   0  0  0  0  0  2  0  0  0  0  0  0
  186.9930  177.6630  145.3780 C   0  0  0  0  0  1  0  0  0  0  0  0
  189.2230  177.4990  135.1480 C   0  0  0  0  0  0  0  0  0  0  0  0
  190.4250  176.9920  134.6730 O   0  0  0  0  0  1  0  0  0  0  0  0
  188.4130  178.0390  134.3470 O   0  0  0  0  0  0  0  0  0  0  0  0
  187.7850  175.1960  136.5190 O   0  0  0  0  0  0  0  0  0  0  0  0
  186.7420  174.8000  135.6670 C   0  0  0  0  0  1  0  0  0  0  0  0
  181.6010  180.9810  137.9400 C   0  0  1  0  0  3  0  0  0  0  0  0
  180.7090  180.8020  136.7140 C   0  0  0  0  0  2  0  0  0  0  0  0
  181.1030  179.6870  135.9720 O   0  0  0  0  0  1  0  0  0  0  0  0
  181.6160  182.4290  138.4030 C   0  0  0  0  0  2  0  0  0  0  0  0
  180.7350  183.4800  137.2110 S   0  0  0  0  0  1  0  0  0  0  0  0
  1 25  1  6  0  0  0
  1  7  1  0  0  0  0
  1 11  1  0  0  0  0
  3 10  1  0  0  0  0
  4 12  1  0  0  0  0
  5  8  2  0  0  0  0
  6 17  1  0  0  0  0
  7  3  1  0  0  0  0
  8 14  1  0  0  0  0
  9  4  1  0  0  0  0
  9 14  1  0  0  0  0
 10 13  1  0  0  0  0
 11 16  1  0  0  0  0
 12 13  1  0  0  0  0
 13 20  1  0  0  0  0
 14 17  1  0  0  0  0
 15  3  1  0  0  0  0
 15  5  1  0  0  0  0
 15  4  1  0  0  0  0
 16 10  1  0  0  0  0
 17  2  2  0  0  0  0
 18 19  1  0  0  0  0
 18 24  1  0  0  0  0
 20 23  1  0  0  0  0
 20 22  1  0  0  0  0
 21 19  1  0  0  0  0
 22 18  2  0  0  0  0
 23 21  1  0  0  0  0
 26 25  1  0  0  0  0
 27 25  2  0  0  0  0
 28  7  1  0  0  0  0
 29 28  1  0  0  0  0
 30 33  1  0  0  0  0
 30  6  1  0  0  0  0
 31 30  1  0  0  0  0
 32 31  1  0  0  0  0
 34 33  1  0  0  0  0
M  END
>  <MODEL>
2

>  <REMARK>
 VINA RESULT:      -4.5      7.295     10.388
  Name = 
  6 active torsions:
  status: ('A' for Active; 'I' for Inactive)
    1  A    between atoms: C_1  and  C_6
    2  A    between atoms: O_2  and  C_15
    3  A    between atoms: C_11  and  CA_20
    4  A    between atoms: C_12  and  C_28
    5  A    between atoms: N_13  and  CA_20
    6  A    between atoms: CB_14  and  CA_20
                            x       y       z     vdW  Elec       q    Type
                         _______ _______ _______ _____ _____    ______ ____

>  <TORSDO>
F 6

$$$$
=
 OpenBabel10272400113D

 34 37  0  0  1  0  0  0  0  0999 V2000
  181.3820  173.9480  136.8400 C   0  0  2  0  0  3  0  0  0  0  0  0
  187.7250  179.7720  136.4240 O   0  0  0  0  0  0  0  0  0  0  0  0
  182.6060  176.1210  136.1000 C   0  0  1  0  0  3  0  0  0  0  0  0
  184.3170  176.9230  137.8440 C   0  0  1  0  0  3  0  0  0  0  0  0
  184.7720  177.1050  135.3750 C   0  0  0  0  0  3  0  0  0  0  0  0
  188.4650  178.5630  138.2550 N   0  0  0  0  0  2  0  0  0  0  0  0
  182.2900  174.6410  135.8090 C   0  0  2  0  0  3  0  0  0  0  0  0
  185.8590  177.8340  135.6350 C   0  0  0  0  0  3  0  0  0  0  0  0
  185.8050  177.1730  138.0730 C   0  0  0  0  0  2  0  0  0  0  0  0
  181.6260  176.7770  137.0960 C   0  0  2  0  0  3  0  0  0  0  0  0
  181.6890  174.4600  138.2410 C   0  0  0  0  0  2  0  0  0  0  0  0
  183.5050  178.2050  138.0900 C   0  0  0  0  0  2  0  0  0  0  0  0
  182.1100  178.1980  137.4310 C   0  0  2  0  0  3  0  0  0  0  0  0
  186.4040  177.9260  136.9630 N   0  0  0  0  0  0  0  0  0  0  0  0
  184.0900  176.3100  136.4500 C   0  0  2  0  0  3  0  0  0  0  0  0
  181.3540  175.9470  138.3710 C   0  0  0  0  0  2  0  0  0  0  0  0
  187.5360  178.7860  137.1860 C   0  0  0  0  0  0  0  0  0  0  0  0
  180.8080  179.5730  140.6320 C   0  0  0  0  0  0  0  0  0  0  0  0
  180.4270  180.8710  140.2640 O   0  0  0  0  0  0  0  0  0  0  0  0
  181.0870  179.0100  138.2380 C   0  0  1  0  0  3  0  0  0  0  0  0
  180.2690  181.2590  138.8970 C   0  0  0  0  0  2  0  0  0  0  0  0
  181.1630  178.6790  139.7060 C   0  0  0  0  0  3  0  0  0  0  0  0
  181.2730  180.5150  138.0220 C   0  0  0  0  0  2  0  0  0  0  0  0
  180.8680  179.2030  142.0690 C   0  0  0  0  0  1  0  0  0  0  0  0
  181.5500  172.4650  136.7820 C   0  0  0  0  0  0  0  0  0  0  0  0
  180.4490  171.6420  136.9670 O   0  0  0  0  0  1  0  0  0  0  0  0
  182.6820  171.9540  136.5630 O   0  0  0  0  0  0  0  0  0  0  0  0
  181.9010  174.4120  134.4710 O   0  0  0  0  0  0  0  0  0  0  0  0
  180.5310  174.6960  134.3460 C   0  0  0  0  0  1  0  0  0  0  0  0
  188.5840  177.3210  139.0080 C   0  0  1  0  0  3  0  0  0  0  0  0
  189.5200  176.3500  138.2920 C   0  0  0  0  0  2  0  0  0  0  0  0
  190.4880  175.8560  139.1690 O   0  0  0  0  0  1  0  0  0  0  0  0
  189.0770  177.6230  140.4140 C   0  0  0  0  0  2  0  0  0  0  0  0
  187.7800  178.4610  141.3700 S   0  0  0  0  0  1  0  0  0  0  0  0
  1 25  1  1  0  0  0
  1 11  1  0  0  0  0
  2 17  2  0  0  0  0
  3 15  1  0  0  0  0
  3 10  1  0  0  0  0
  4  9  1  0  0  0  0
  4 12  1  0  0  0  0
  5  8  2  0  0  0  0
  5 15  1  0  0  0  0
  6 30  1  0  0  0  0
  7  3  1  0  0  0  0
  7  1  1  0  0  0  0
  8 14  1  0  0  0  0
 10 13  1  0  0  0  0
 10 16  1  0  0  0  0
 11 16  1  0  0  0  0
 13 12  1  0  0  0  0
 13 20  1  0  0  0  0
 14 17  1  0  0  0  0
 14  9  1  0  0  0  0
 15  4  1  0  0  0  0
 17  6  1  0  0  0  0
 18 24  1  0  0  0  0
 19 18  1  0  0  0  0
 20 22  1  0  0  0  0
 21 19  1  0  0  0  0
 22 18  2  0  0  0  0
 23 20  1  0  0  0  0
 23 21  1  0  0  0  0
 25 26  1  0  0  0  0
 27 25  2  0  0  0  0
 28  7  1  0  0  0  0
 29 28  1  0  0  0  0
 30 33  1  0  0  0  0
 31 30  1  0  0  0  0
 31 32  1  0  0  0  0
 33 34  1  0  0  0  0
M  END
>  <MODEL>
3

>  <REMARK>
 VINA RESULT:      -4.5      6.682     12.786
  Name = 
  6 active torsions:
  status: ('A' for Active; 'I' for Inactive)
    1  A    between atoms: C_1  and  C_6
    2  A    between atoms: O_2  and  C_15
    3  A    between atoms: C_11  and  CA_20
    4  A    between atoms: C_12  and  C_28
    5  A    between atoms: N_13  and  CA_20
    6  A    between atoms: CB_14  and  CA_20
                            x       y       z     vdW  Elec       q    Type
                         _______ _______ _______ _____ _____    ______ ____

>  <TORSDO>
F 6

$$$$
=
 OpenBabel10272400113D

 34 37  0  0  1  0  0  0  0  0999 V2000
  189.3510  173.5160  136.2730 C   0  0  2  0  0  3  0  0  0  0  0  0
  182.1010  178.1000  135.4050 O   0  0  0  0  0  0  0  0  0  0  0  0
  187.2830  174.5410  135.0720 C   0  0  1  0  0  3  0  0  0  0  0  0
  185.3380  174.9990  136.6900 C   0  0  1  0  0  3  0  0  0  0  0  0
  185.8720  176.5700  134.7960 C   0  0  0  0  0  3  0  0  0  0  0  0
  182.2170  178.0440  137.7170 N   0  0  0  0  0  2  0  0  0  0  0  0
  188.7730  174.6760  135.4420 C   0  0  2  0  0  3  0  0  0  0  0  0
  184.7460  177.2400  135.0420 C   0  0  0  0  0  3  0  0  0  0  0  0
  184.4800  176.1110  137.2870 C   0  0  0  0  0  2  0  0  0  0  0  0
  186.7450  173.0990  135.1950 C   0  0  2  0  0  3  0  0  0  0  0  0
  188.3070  172.9980  137.2520 C   0  0  0  0  0  2  0  0  0  0  0  0
  184.4620  173.9600  135.9720 C   0  0  0  0  0  2  0  0  0  0  0  0
  185.2270  173.0960  134.9470 C   0  0  2  0  0  3  0  0  0  0  0  0
  183.9960  177.0350  136.2530 N   0  0  0  0  0  0  0  0  0  0  0  0
  186.4370  175.6000  135.7930 C   0  0  2  0  0  3  0  0  0  0  0  0
  187.1140  172.3860  136.5150 C   0  0  0  0  0  2  0  0  0  0  0  0
  182.7520  177.7380  136.4220 C   0  0  0  0  0  0  0  0  0  0  0  0
  185.5840  169.3980  134.7810 C   0  0  0  0  0  0  0  0  0  0  0  0
  184.5260  168.9610  135.5910 O   0  0  0  0  0  0  0  0  0  0  0  0
  184.6370  171.6840  134.8300 C   0  0  1  0  0  3  0  0  0  0  0  0
  183.4500  169.8230  135.9670 C   0  0  0  0  0  2  0  0  0  0  0  0
  185.6900  170.6830  134.4340 C   0  0  0  0  0  3  0  0  0  0  0  0
  183.9570  171.2530  136.1330 C   0  0  0  0  0  2  0  0  0  0  0  0
  186.6260  168.4320  134.3480 C   0  0  0  0  0  1  0  0  0  0  0  0
  190.5790  173.9500  137.0050 C   0  0  0  0  0  0  0  0  0  0  0  0
  190.4730  174.8780  138.0320 O   0  0  0  0  0  1  0  0  0  0  0  0
  191.7080  173.4810  136.7010 O   0  0  0  0  0  0  0  0  0  0  0  0
  189.5840  175.0430  134.3460 O   0  0  0  0  0  0  0  0  0  0  0  0
  189.8460  176.4200  134.4200 C   0  0  0  0  0  1  0  0  0  0  0  0
  182.9730  177.9930  138.9620 C   0  0  1  0  0  3  0  0  0  0  0  0
  183.3720  179.4010  139.4010 C   0  0  0  0  0  2  0  0  0  0  0  0
  184.7370  179.6150  139.1970 O   0  0  0  0  0  1  0  0  0  0  0  0
  182.1480  177.2970  140.0320 C   0  0  0  0  0  2  0  0  0  0  0  0
  181.5330  178.5070  141.2400 S   0  0  0  0  0  1  0  0  0  0  0  0
  1 25  1  1  0  0  0
  1 11  1  0  0  0  0
  2 17  2  0  0  0  0
  3 10  1  0  0  0  0
  3  7  1  0  0  0  0
  3 15  1  0  0  0  0
  4  9  1  0  0  0  0
  5  8  2  0  0  0  0
  5 15  1  0  0  0  0
  6 30  1  0  0  0  0
  7  1  1  0  0  0  0
  8 14  1  0  0  0  0
 10 16  1  0  0  0  0
 12  4  1  0  0  0  0
 13 10  1  0  0  0  0
 13 12  1  0  0  0  0
 14 17  1  0  0  0  0
 14  9  1  0  0  0  0
 15  4  1  0  0  0  0
 16 11  1  0  0  0  0
 17  6  1  0  0  0  0
 18 19  1  0  0  0  0
 19 21  1  0  0  0  0
 20 13  1  0  0  0  0
 20 23  1  0  0  0  0
 21 23  1  0  0  0  0
 22 18  2  0  0  0  0
 22 20  1  0  0  0  0
 24 18  1  0  0  0  0
 25 26  1  0  0  0  0
 27 25  2  0  0  0  0
 28 29  1  0  0  0  0
 28  7  1  0  0  0  0
 30 31  1  0  0  0  0
 30 33  1  0  0  0  0
 32 31  1  0  0  0  0
 33 34  1  0  0  0  0
M  END
>  <MODEL>
4

>  <REMARK>
 VINA RESULT:      -4.4      5.443      8.081
  Name = 
  6 active torsions:
  status: ('A' for Active; 'I' for Inactive)
    1  A    between atoms: C_1  and  C_6
    2  A    between atoms: O_2  and  C_15
    3  A    between atoms: C_11  and  CA_20
    4  A    between atoms: C_12  and  C_28
    5  A    between atoms: N_13  and  CA_20
    6  A    between atoms: CB_14  and  CA_20
                            x       y       z     vdW  Elec       q    Type
                         _______ _______ _______ _____ _____    ______ ____

>  <TORSDO>
F 6

$$$$
=
 OpenBabel10272400113D

 34 37  0  0  1  0  0  0  0  0999 V2000
  193.5120  174.3260  135.5780 C   0  0  2  0  0  3  0  0  0  0  0  0
  187.4980  178.8760  139.7550 O   0  0  0  0  0  0  0  0  0  0  0  0
  191.3180  175.6860  135.8990 C   0  0  1  0  0  3  0  0  0  0  0  0
  190.4230  175.5460  138.3060 C   0  0  1  0  0  3  0  0  0  0  0  0
  190.2800  177.6770  136.9720 C   0  0  0  0  0  3  0  0  0  0  0  0
  188.6420  178.0290  141.5810 N   0  0  0  0  0  2  0  0  0  0  0  0
  192.8140  175.6970  135.5270 C   0  0  2  0  0  3  0  0  0  0  0  0
  189.5120  178.2120  137.9210 C   0  0  0  0  0  3  0  0  0  0  0  0
  190.1200  176.3790  139.5490 C   0  0  0  0  0  2  0  0  0  0  0  0
  190.6720  174.2870  135.8210 C   0  0  2  0  0  3  0  0  0  0  0  0
  192.9600  173.4960  136.7280 C   0  0  0  0  0  2  0  0  0  0  0  0
  189.1630  174.8110  137.8220 C   0  0  0  0  0  2  0  0  0  0  0  0
  189.2290  174.3580  136.3480 C   0  0  2  0  0  3  0  0  0  0  0  0
  189.3730  177.5980  139.2140 N   0  0  0  0  0  0  0  0  0  0  0  0
  191.0740  176.4270  137.2230 C   0  0  2  0  0  3  0  0  0  0  0  0
  191.4820  173.1660  136.5110 C   0  0  0  0  0  2  0  0  0  0  0  0
  188.4720  178.1910  140.1670 C   0  0  0  0  0  0  0  0  0  0  0  0
  186.0720  172.3920  136.4150 C   0  0  0  0  0  0  0  0  0  0  0  0
  186.1300  171.6960  135.1990 O   0  0  0  0  0  0  0  0  0  0  0  0
  188.4330  173.0680  136.1060 C   0  0  1  0  0  3  0  0  0  0  0  0
  187.3410  171.5770  134.4480 C   0  0  0  0  0  2  0  0  0  0  0  0
  187.1260  173.0820  136.8560 C   0  0  0  0  0  3  0  0  0  0  0  0
  188.1860  172.8370  134.6120 C   0  0  0  0  0  2  0  0  0  0  0  0
  184.8080  172.4060  137.1950 C   0  0  0  0  0  1  0  0  0  0  0  0
  194.9900  174.4910  135.7200 C   0  0  0  0  0  0  0  0  0  0  0  0
  195.5040  175.1320  136.8380 O   0  0  0  0  0  1  0  0  0  0  0  0
  195.7740  174.0520  134.8350 O   0  0  0  0  0  0  0  0  0  0  0  0
  193.0840  176.4240  134.3470 O   0  0  0  0  0  0  0  0  0  0  0  0
  194.2980  177.1110  134.5100 C   0  0  0  0  0  1  0  0  0  0  0  0
  189.8620  177.5590  142.2250 C   0  0  1  0  0  3  0  0  0  0  0  0
  190.5830  178.7170  142.9120 C   0  0  0  0  0  2  0  0  0  0  0  0
  191.4940  178.2430  143.8580 O   0  0  0  0  0  1  0  0  0  0  0  0
  189.5250  176.4560  143.2150 C   0  0  0  0  0  2  0  0  0  0  0  0
  187.7620  176.5180  143.6500 S   0  0  0  0  0  1  0  0  0  0  0  0
  1 25  1  1  0  0  0
  1 11  1  0  0  0  0
  2 17  2  0  0  0  0
  3 15  1  0  0  0  0
  4  9  1  0  0  0  0
  5 15  1  0  0  0  0
  5  8  2  0  0  0  0
  6 30  1  0  0  0  0
  7  1  1  0  0  0  0
  7  3  1  0  0  0  0
  8 14  1  0  0  0  0
 10  3  1  0  0  0  0
 10 13  1  0  0  0  0
 10 16  1  0  0  0  0
 12  4  1  0  0  0  0
 13 12  1  0  0  0  0
 14  9  1  0  0  0  0
 14 17  1  0  0  0  0
 15  4  1  0  0  0  0
 16 11  1  0  0  0  0
 17  6  1  0  0  0  0
 18 22  2  0  0  0  0
 18 24  1  0  0  0  0
 19 18  1  0  0  0  0
 20 13  1  0  0  0  0
 20 22  1  0  0  0  0
 21 23  1  0  0  0  0
 21 19  1  0  0  0  0
 23 20  1  0  0  0  0
 25 26  1  0  0  0  0
 27 25  2  0  0  0  0
 28 29  1  0  0  0  0
 28  7  1  0  0  0  0
 30 31  1  0  0  0  0
 30 33  1  0  0  0  0
 31 32  1  0  0  0  0
 33 34  1  0  0  0  0
M  END
>  <MODEL>
5

>  <REMARK>
 VINA RESULT:      -4.2      3.442      5.342
  Name = 
  6 active torsions:
  status: ('A' for Active; 'I' for Inactive)
    1  A    between atoms: C_1  and  C_6
    2  A    between atoms: O_2  and  C_15
    3  A    between atoms: C_11  and  CA_20
    4  A    between atoms: C_12  and  C_28
    5  A    between atoms: N_13  and  CA_20
    6  A    between atoms: CB_14  and  CA_20
                            x       y       z     vdW  Elec       q    Type
                         _______ _______ _______ _____ _____    ______ ____

>  <TORSDO>
F 6

$$$$
=
 OpenBabel10272400113D

 34 37  0  0  1  0  0  0  0  0999 V2000
  182.7870  179.0030  141.9100 C   0  0  2  0  0  3  0  0  0  0  0  0
  182.1970  174.9100  134.3460 O   0  0  0  0  0  0  0  0  0  0  0  0
  182.7490  178.7240  139.3240 C   0  0  1  0  0  3  0  0  0  0  0  0
  183.4840  176.3740  138.5820 C   0  0  1  0  0  3  0  0  0  0  0  0
  181.6340  177.6090  137.4010 C   0  0  0  0  0  3  0  0  0  0  0  0
  182.4690  173.0730  135.7300 N   0  0  0  0  0  2  0  0  0  0  0  0
  181.9580  179.0220  140.6130 C   0  0  2  0  0  3  0  0  0  0  0  0
  181.6260  176.6730  136.4500 C   0  0  0  0  0  3  0  0  0  0  0  0
  183.0040  175.1090  137.8760 C   0  0  0  0  0  2  0  0  0  0  0  0
  184.2750  178.9020  139.4800 C   0  0  2  0  0  3  0  0  0  0  0  0
  183.8580  177.9240  141.8360 C   0  0  0  0  0  2  0  0  0  0  0  0
  184.7210  176.9550  137.8790 C   0  0  0  0  0  2  0  0  0  0  0  0
  184.9790  178.4440  138.1920 C   0  0  2  0  0  3  0  0  0  0  0  0
  182.3110  175.4200  136.6200 N   0  0  0  0  0  0  0  0  0  0  0  0
  182.3240  177.3800  138.7140 C   0  0  2  0  0  3  0  0  0  0  0  0
  184.8750  178.2290  140.7350 C   0  0  0  0  0  2  0  0  0  0  0  0
  182.3210  174.4850  135.5260 C   0  0  0  0  0  0  0  0  0  0  0  0
  188.4870  177.8970  139.2980 C   0  0  0  0  0  0  0  0  0  0  0  0
  189.2010  178.0350  138.0990 O   0  0  0  0  0  0  0  0  0  0  0  0
  186.4740  178.7870  138.1660 C   0  0  1  0  0  3  0  0  0  0  0  0
  188.6250  178.6310  136.9350 C   0  0  0  0  0  2  0  0  0  0  0  0
  187.1900  178.2060  139.3580 C   0  0  0  0  0  3  0  0  0  0  0  0
  187.1340  178.3130  136.8670 C   0  0  0  0  0  2  0  0  0  0  0  0
  189.1680  177.3530  140.5020 C   0  0  0  0  0  1  0  0  0  0  0  0
  181.9070  178.7810  143.0970 C   0  0  0  0  0  0  0  0  0  0  0  0
  182.4530  178.8210  144.3720 O   0  0  0  0  0  1  0  0  0  0  0  0
  180.6750  178.5610  142.9510 O   0  0  0  0  0  0  0  0  0  0  0  0
  181.1180  180.1500  140.4970 O   0  0  0  0  0  0  0  0  0  0  0  0
  180.0320  179.8190  139.6700 C   0  0  0  0  0  1  0  0  0  0  0  0
  182.2980  172.3940  137.0080 C   0  0  1  0  0  3  0  0  0  0  0  0
  180.8430  171.9720  137.1980 C   0  0  0  0  0  2  0  0  0  0  0  0
  180.2790  172.6180  138.3000 O   0  0  0  0  0  1  0  0  0  0  0  0
  183.2320  171.1970  137.0780 C   0  0  0  0  0  2  0  0  0  0  0  0
  183.9570  170.8680  135.4450 S   0  0  0  0  0  1  0  0  0  0  0  0
  1 25  1  1  0  0  0
  2 17  2  0  0  0  0
  3 10  1  0  0  0  0
  3  7  1  0  0  0  0
  4 15  1  0  0  0  0
  5 15  1  0  0  0  0
  6 30  1  0  0  0  0
  7  1  1  0  0  0  0
  8 14  1  0  0  0  0
  8  5  2  0  0  0  0
  9  4  1  0  0  0  0
 10 16  1  0  0  0  0
 11  1  1  0  0  0  0
 12 13  1  0  0  0  0
 12  4  1  0  0  0  0
 13 10  1  0  0  0  0
 14  9  1  0  0  0  0
 15  3  1  0  0  0  0
 16 11  1  0  0  0  0
 17  6  1  0  0  0  0
 17 14  1  0  0  0  0
 18 22  2  0  0  0  0
 18 24  1  0  0  0  0
 19 18  1  0  0  0  0
 20 13  1  0  0  0  0
 20 22  1  0  0  0  0
 21 19  1  0  0  0  0
 23 21  1  0  0  0  0
 23 20  1  0  0  0  0
 25 26  1  0  0  0  0
 27 25  2  0  0  0  0
 28  7  1  0  0  0  0
 29 28  1  0  0  0  0
 30 33  1  0  0  0  0
 30 31  1  0  0  0  0
 31 32  1  0  0  0  0
 34 33  1  0  0  0  0
M  END
>  <MODEL>
6

>  <REMARK>
 VINA RESULT:      -4.2      7.978     12.433
  Name = 
  6 active torsions:
  status: ('A' for Active; 'I' for Inactive)
    1  A    between atoms: C_1  and  C_6
    2  A    between atoms: O_2  and  C_15
    3  A    between atoms: C_11  and  CA_20
    4  A    between atoms: C_12  and  C_28
    5  A    between atoms: N_13  and  CA_20
    6  A    between atoms: CB_14  and  CA_20
                            x       y       z     vdW  Elec       q    Type
                         _______ _______ _______ _____ _____    ______ ____

>  <TORSDO>
F 6

$$$$
=
 OpenBabel10272400113D

 34 37  0  0  1  0  0  0  0  0999 V2000
  182.4960  174.3880  136.0560 C   0  0  2  0  0  3  0  0  0  0  0  0
  188.9870  179.9140  137.3440 O   0  0  0  0  0  0  0  0  0  0  0  0
  183.6650  176.6870  136.3960 C   0  0  1  0  0  3  0  0  0  0  0  0
  185.8490  176.4870  137.7380 C   0  0  1  0  0  3  0  0  0  0  0  0
  185.6330  178.0910  135.8090 C   0  0  0  0  0  3  0  0  0  0  0  0
  190.0840  177.9420  137.8640 N   0  0  0  0  0  2  0  0  0  0  0  0
  183.1490  175.6220  135.4080 C   0  0  2  0  0  3  0  0  0  0  0  0
  186.8100  178.6280  136.1310 C   0  0  0  0  0  3  0  0  0  0  0  0
  187.3600  176.6870  137.6520 C   0  0  0  0  0  2  0  0  0  0  0  0
  183.0540  176.5670  137.8080 C   0  0  2  0  0  3  0  0  0  0  0  0
  183.2160  174.0280  137.3490 C   0  0  0  0  0  2  0  0  0  0  0  0
  185.2530  177.3210  138.8830 C   0  0  0  0  0  2  0  0  0  0  0  0
  183.7360  177.5750  138.7490 C   0  0  2  0  0  3  0  0  0  0  0  0
  187.7000  177.9880  137.0620 N   0  0  0  0  0  0  0  0  0  0  0  0
  185.1990  176.7680  136.3700 C   0  0  2  0  0  3  0  0  0  0  0  0
  183.0640  175.1370  138.3930 C   0  0  0  0  0  2  0  0  0  0  0  0
  188.9230  178.6570  137.4190 C   0  0  0  0  0  0  0  0  0  0  0  0
  183.6390  178.7180  142.2870 C   0  0  0  0  0  0  0  0  0  0  0  0
  182.3130  179.1510  142.4230 O   0  0  0  0  0  0  0  0  0  0  0  0
  183.0480  177.6850  140.1170 C   0  0  1  0  0  3  0  0  0  0  0  0
  181.2970  178.7970  141.4810 C   0  0  0  0  0  2  0  0  0  0  0  0
  184.0320  178.0570  141.1950 C   0  0  0  0  0  3  0  0  0  0  0  0
  181.8930  178.6920  140.0810 C   0  0  0  0  0  2  0  0  0  0  0  0
  184.6310  179.0430  143.3450 C   0  0  0  0  0  1  0  0  0  0  0  0
  182.5080  173.2280  135.1160 C   0  0  0  0  0  0  0  0  0  0  0  0
  183.6230  172.4040  135.0570 O   0  0  0  0  0  1  0  0  0  0  0  0
  181.5140  172.9890  134.3770 O   0  0  0  0  0  0  0  0  0  0  0  0
  182.3930  176.1700  134.3500 O   0  0  0  0  0  0  0  0  0  0  0  0
  182.0600  177.4950  134.6730 C   0  0  0  0  0  1  0  0  0  0  0  0
  190.2900  176.5080  137.7030 C   0  0  1  0  0  3  0  0  0  0  0  0
  191.0460  176.2210  136.4080 C   0  0  0  0  0  2  0  0  0  0  0  0
  190.2040  176.3520  135.3020 O   0  0  0  0  0  1  0  0  0  0  0  0
  191.0370  175.9620  138.9090 C   0  0  0  0  0  2  0  0  0  0  0  0
  191.3500  177.2880  140.1100 S   0  0  0  0  0  1  0  0  0  0  0  0
  1 25  1  6  0  0  0
  1 11  1  0  0  0  0
  2 17  2  0  0  0  0
  3 10  1  0  0  0  0
  4 12  1  0  0  0  0
  5  8  2  0  0  0  0
  5 15  1  0  0  0  0
  7  1  1  0  0  0  0
  7  3  1  0  0  0  0
  8 14  1  0  0  0  0
  9  4  1  0  0  0  0
 10 16  1  0  0  0  0
 10 13  1  0  0  0  0
 11 16  1  0  0  0  0
 13 12  1  0  0  0  0
 13 20  1  0  0  0  0
 14 17  1  0  0  0  0
 14  9  1  0  0  0  0
 15  3  1  0  0  0  0
 15  4  1  0  0  0  0
 17  6  1  0  0  0  0
 18 19  1  0  0  0  0
 18 24  1  0  0  0  0
 20 22  1  0  0  0  0
 21 19  1  0  0  0  0
 22 18  2  0  0  0  0
 23 20  1  0  0  0  0
 23 21  1  0  0  0  0
 26 25  1  0  0  0  0
 27 25  2  0  0  0  0
 28 29  1  0  0  0  0
 28  7  1  0  0  0  0
 30  6  1  0  0  0  0
 30 33  1  0  0  0  0
 31 30  1  0  0  0  0
 32 31  1  0  0  0  0
 33 34  1  0  0  0  0
M  END
>  <MODEL>
7

>  <REMARK>
 VINA RESULT:      -4.1      5.487     11.735
  Name = 
  6 active torsions:
  status: ('A' for Active; 'I' for Inactive)
    1  A    between atoms: C_1  and  C_6
    2  A    between atoms: O_2  and  C_15
    3  A    between atoms: C_11  and  CA_20
    4  A    between atoms: C_12  and  C_28
    5  A    between atoms: N_13  and  CA_20
    6  A    between atoms: CB_14  and  CA_20
                            x       y       z     vdW  Elec       q    Type
                         _______ _______ _______ _____ _____    ______ ____

>  <TORSDO>
F 6

$$$$
=
 OpenBabel10272400113D

 34 37  0  0  1  0  0  0  0  0999 V2000
  181.7540  178.1230  139.2580 C   0  0  2  0  0  3  0  0  0  0  0  0
  189.8510  178.1120  136.2990 O   0  0  0  0  0  0  0  0  0  0  0  0
  184.1130  179.0700  138.7050 C   0  0  1  0  0  3  0  0  0  0  0  0
  185.9130  177.2350  138.6380 C   0  0  1  0  0  3  0  0  0  0  0  0
  185.9390  179.1630  137.0180 C   0  0  0  0  0  3  0  0  0  0  0  0
  189.4630  175.8300  136.2940 N   0  0  0  0  0  2  0  0  0  0  0  0
  182.6520  178.8710  138.2560 C   0  0  2  0  0  3  0  0  0  0  0  0
  187.1450  178.7830  136.5940 C   0  0  0  0  0  3  0  0  0  0  0  0
  186.9110  176.5340  137.7190 C   0  0  0  0  0  2  0  0  0  0  0  0
  184.3210  178.8980  140.2250 C   0  0  2  0  0  3  0  0  0  0  0  0
  182.5480  177.0350  139.9670 C   0  0  0  0  0  2  0  0  0  0  0  0
  186.6300  177.8570  139.8470 C   0  0  0  0  0  2  0  0  0  0  0  0
  185.8230  178.9700  140.5480 C   0  0  2  0  0  3  0  0  0  0  0  0
  187.6920  177.4970  136.9330 N   0  0  0  0  0  0  0  0  0  0  0  0
  185.0740  178.2460  137.8340 C   0  0  2  0  0  3  0  0  0  0  0  0
  183.6630  177.6360  140.8250 C   0  0  0  0  0  2  0  0  0  0  0  0
  189.0280  177.1800  136.5020 C   0  0  0  0  0  0  0  0  0  0  0  0
  184.7380  178.8660  144.1040 C   0  0  0  0  0  0  0  0  0  0  0  0
  185.7510  178.1000  144.7000 O   0  0  0  0  0  0  0  0  0  0  0  0
  186.1150  179.0320  142.0540 C   0  0  1  0  0  3  0  0  0  0  0  0
  187.0000  177.8540  144.0520 C   0  0  0  0  0  2  0  0  0  0  0  0
  184.8580  179.2900  142.8440 C   0  0  0  0  0  3  0  0  0  0  0  0
  186.7970  177.7500  142.5430 C   0  0  0  0  0  2  0  0  0  0  0  0
  183.4970  179.1630  144.8630 C   0  0  0  0  0  1  0  0  0  0  0  0
  180.5680  177.5320  138.5660 C   0  0  0  0  0  0  0  0  0  0  0  0
  180.0620  176.3140  138.9940 O   0  0  0  0  0  1  0  0  0  0  0  0
  180.0230  178.1320  137.6010 O   0  0  0  0  0  0  0  0  0  0  0  0
  182.0660  180.0500  137.7460 O   0  0  0  0  0  0  0  0  0  0  0  0
  181.8220  180.9310  138.8120 C   0  0  0  0  0  1  0  0  0  0  0  0
  188.5760  174.6800  136.1670 C   0  0  1  0  0  3  0  0  0  0  0  0
  188.0970  174.5330  134.7250 C   0  0  0  0  0  2  0  0  0  0  0  0
  186.7330  174.8160  134.6240 O   0  0  0  0  0  1  0  0  0  0  0  0
  189.2960  173.4260  136.6370 C   0  0  0  0  0  2  0  0  0  0  0  0
  191.0950  173.6780  136.5900 S   0  0  0  0  0  1  0  0  0  0  0  0
  1 25  1  6  0  0  0
  1 11  1  0  0  0  0
  2 17  2  0  0  0  0
  3 10  1  0  0  0  0
  4 12  1  0  0  0  0
  5 15  1  0  0  0  0
  6 17  1  0  0  0  0
  7  3  1  0  0  0  0
  7  1  1  0  0  0  0
  8 14  1  0  0  0  0
  8  5  2  0  0  0  0
  9  4  1  0  0  0  0
 10 13  1  0  0  0  0
 10 16  1  0  0  0  0
 11 16  1  0  0  0  0
 12 13  1  0  0  0  0
 13 20  1  0  0  0  0
 14  9  1  0  0  0  0
 15  4  1  0  0  0  0
 15  3  1  0  0  0  0
 17 14  1  0  0  0  0
 18 19  1  0  0  0  0
 18 24  1  0  0  0  0
 20 23  1  0  0  0  0
 20 22  1  0  0  0  0
 21 19  1  0  0  0  0
 22 18  2  0  0  0  0
 23 21  1  0  0  0  0
 25 26  1  0  0  0  0
 27 25  2  0  0  0  0
 28  7  1  0  0  0  0
 28 29  1  0  0  0  0
 30  6  1  0  0  0  0
 30 33  1  0  0  0  0
 31 30  1  0  0  0  0
 32 31  1  0  0  0  0
 34 33  1  0  0  0  0
M  END
>  <MODEL>
8

>  <REMARK>
 VINA RESULT:      -3.3      6.010     12.074
  Name = 
  6 active torsions:
  status: ('A' for Active; 'I' for Inactive)
    1  A    between atoms: C_1  and  C_6
    2  A    between atoms: O_2  and  C_15
    3  A    between atoms: C_11  and  CA_20
    4  A    between atoms: C_12  and  C_28
    5  A    between atoms: N_13  and  CA_20
    6  A    between atoms: CB_14  and  CA_20
                            x       y       z     vdW  Elec       q    Type
                         _______ _______ _______ _____ _____    ______ ____

>  <TORSDO>
F 6

$$$$
=
 OpenBabel10272400113D

 34 37  0  0  1  0  0  0  0  0999 V2000
  189.6720  177.2650  141.2480 C   0  0  2  0  0  3  0  0  0  0  0  0
  184.7360  175.7340  134.3480 O   0  0  0  0  0  0  0  0  0  0  0  0
  188.5490  177.7210  138.9460 C   0  0  1  0  0  3  0  0  0  0  0  0
  187.9910  175.5530  137.6820 C   0  0  1  0  0  3  0  0  0  0  0  0
  186.4520  177.5450  137.6200 C   0  0  0  0  0  3  0  0  0  0  0  0
  184.7920  173.5950  135.2330 N   0  0  0  0  0  2  0  0  0  0  0  0
  188.4870  177.8760  140.4790 C   0  0  2  0  0  3  0  0  0  0  0  0
  185.7270  176.9470  136.6740 C   0  0  0  0  0  3  0  0  0  0  0  0
  186.8360  174.7230  137.1270 C   0  0  0  0  0  2  0  0  0  0  0  0
  189.9620  177.3970  138.4150 C   0  0  2  0  0  3  0  0  0  0  0  0
  190.1350  175.9830  140.5710 C   0  0  0  0  0  2  0  0  0  0  0  0
  188.9870  175.9150  136.5690 C   0  0  0  0  0  2  0  0  0  0  0  0
  189.8900  177.1200  136.9030 C   0  0  2  0  0  3  0  0  0  0  0  0
  185.8920  175.5520  136.3660 N   0  0  0  0  0  0  0  0  0  0  0  0
  187.4470  176.7770  138.4420 C   0  0  2  0  0  3  0  0  0  0  0  0
  190.6890  176.2650  139.1730 C   0  0  0  0  0  2  0  0  0  0  0  0
  185.1270  174.9880  135.2860 C   0  0  0  0  0  0  0  0  0  0  0  0
  193.3110  175.6780  136.6910 C   0  0  0  0  0  0  0  0  0  0  0  0
  193.4660  175.4840  135.3110 O   0  0  0  0  0  0  0  0  0  0  0  0
  191.2710  177.0060  136.2440 C   0  0  1  0  0  3  0  0  0  0  0  0
  192.6070  176.1080  134.3540 C   0  0  0  0  0  2  0  0  0  0  0  0
  192.2670  176.3580  137.1700 C   0  0  0  0  0  3  0  0  0  0  0  0
  191.1970  176.2370  134.9210 C   0  0  0  0  0  2  0  0  0  0  0  0
  194.2900  175.0770  137.6330 C   0  0  0  0  0  1  0  0  0  0  0  0
  189.2980  176.9970  142.6690 C   0  0  0  0  0  0  0  0  0  0  0  0
  188.4490  175.9400  142.9670 O   0  0  0  0  0  0  0  0  0  0  0  0
  189.7480  177.7180  143.6000 O   0  0  0  0  0  1  0  0  0  0  0  0
  188.1640  179.1870  140.8890 O   0  0  0  0  0  0  0  0  0  0  0  0
  186.8860  179.1750  141.4710 C   0  0  0  0  0  1  0  0  0  0  0  0
  184.8770  172.6750  136.3600 C   0  0  1  0  0  3  0  0  0  0  0  0
  183.5630  172.6600  137.1370 C   0  0  0  0  0  2  0  0  0  0  0  0
  182.8830  171.4570  136.9380 O   0  0  0  0  0  1  0  0  0  0  0  0
  185.2350  171.2850  135.8590 C   0  0  0  0  0  2  0  0  0  0  0  0
  186.9970  171.2080  135.4210 S   0  0  0  0  0  1  0  0  0  0  0  0
  1 25  1  1  0  0  0
  2 17  2  0  0  0  0
  3  7  1  0  0  0  0
  4 15  1  0  0  0  0
  5 15  1  0  0  0  0
  6 17  1  0  0  0  0
  6 30  1  0  0  0  0
  7 28  1  0  0  0  0
  7  1  1  0  0  0  0
  8  5  2  0  0  0  0
  9  4  1  0  0  0  0
 10  3  1  0  0  0  0
 10 16  1  0  0  0  0
 11  1  1  0  0  0  0
 12 13  1  0  0  0  0
 12  4  1  0  0  0  0
 13 10  1  0  0  0  0
 14  8  1  0  0  0  0
 14  9  1  0  0  0  0
 15  3  1  0  0  0  0
 16 11  1  0  0  0  0
 17 14  1  0  0  0  0
 18 22  2  0  0  0  0
 18 24  1  0  0  0  0
 19 18  1  0  0  0  0
 20 13  1  0  0  0  0
 20 22  1  0  0  0  0
 21 23  1  0  0  0  0
 21 19  1  0  0  0  0
 23 20  1  0  0  0  0
 25 26  2  0  0  0  0
 25 27  1  0  0  0  0
 28 29  1  0  0  0  0
 30 31  1  0  0  0  0
 32 31  1  0  0  0  0
 33 30  1  0  0  0  0
 34 33  1  0  0  0  0
M  END
>  <MODEL>
9

>  <REMARK>
 VINA RESULT:      -3.2      4.261      7.880
  Name = 
  6 active torsions:
  status: ('A' for Active; 'I' for Inactive)
    1  A    between atoms: C_1  and  C_6
    2  A    between atoms: O_2  and  C_15
    3  A    between atoms: C_11  and  CA_20
    4  A    between atoms: C_12  and  C_28
    5  A    between atoms: N_13  and  CA_20
    6  A    between atoms: CB_14  and  CA_20
                            x       y       z     vdW  Elec       q    Type
                         _______ _______ _______ _____ _____    ______ ____

>  <TORSDO>
F 6

$$$$
