=
 OpenBabel10272400483D

 25 27  0  0  1  0  0  0  0  0999 V2000
  189.0620  177.7680  141.5730 C   0  0  0  0  0  0  0  0  0  0  0  0
  187.6450  178.2040  141.6550 C   0  0  0  0  0  0  0  0  0  0  0  0
  188.7240  177.6410  139.1440 C   0  0  0  0  0  3  0  0  0  0  0  0
  187.5500  178.2010  139.1980 N   0  0  0  0  0  0  0  0  0  0  0  0
  185.5220  178.8380  140.4350 C   0  0  0  0  0  0  0  0  0  0  0  0
  184.8080  179.1810  139.2520 N   0  0  0  0  0  1  0  0  0  0  0  0
  186.9160  178.0360  142.7590 C   0  0  0  0  0  3  0  0  0  0  0  0
  189.5590  177.5070  140.3560 C   0  0  0  0  0  3  0  0  0  0  0  0
  184.8700  178.6760  141.5460 N   0  0  0  0  0  0  0  0  0  0  0  0
  185.5260  178.3710  142.7540 N   0  0  0  0  0  0  0  0  0  0  0  0
  187.0300  178.8240  140.4190 C   0  0  1  0  0  3  0  0  0  0  0  0
  189.9200  177.6230  142.7790 C   0  0  0  0  0  0  0  0  0  0  0  0
  191.5840  177.4200  145.0400 C   0  0  0  0  0  3  0  0  0  0  0  0
  190.1690  176.3680  143.3770 C   0  0  0  0  0  0  0  0  0  0  0  0
  190.9950  176.2750  144.5010 C   0  0  0  0  0  3  0  0  0  0  0  0
  191.3460  178.6650  144.4580 C   0  0  0  0  0  3  0  0  0  0  0  0
  189.5960  175.2350  142.8970 F   0  0  0  0  0  0  0  0  0  0  0  0
  190.5220  178.7650  143.3350 C   0  0  0  0  0  3  0  0  0  0  0  0
  184.7480  178.2070  143.9690 C   0  0  0  0  0  2  0  0  0  0  0  0
  185.2620  179.1510  145.0430 C   0  0  0  0  0  2  0  0  0  0  0  0
  185.5710  178.3840  146.3210 C   0  0  2  0  0  3  0  0  0  0  0  0
  185.9880  179.3430  147.4200 C   0  0  0  0  0  1  0  0  0  0  0  0
  186.6270  177.2980  146.1050 C   0  0  0  0  0  2  0  0  0  0  0  0
  188.0460  177.8240  146.2700 C   0  0  0  0  0  2  0  0  0  0  0  0
  188.7480  177.0490  147.3640 C   0  0  0  0  0  1  0  0  0  0  0  0
  1  2  1  0  0  0  0
  1 12  1  0  0  0  0
  2  7  2  0  0  0  0
  3  4  2  0  0  0  0
  3  8  1  0  0  0  0
  5  9  2  0  0  0  0
  6  5  1  0  0  0  0
  8  1  2  0  0  0  0
  9 10  1  0  0  0  0
 10  7  1  0  0  0  0
 10 19  1  0  0  0  0
 11  4  1  6  0  0  0
 11  5  1  0  0  0  0
 11  2  1  0  0  0  0
 12 18  2  0  0  0  0
 12 14  1  0  0  0  0
 14 15  2  0  0  0  0
 15 13  1  0  0  0  0
 16 13  2  0  0  0  0
 17 14  1  0  0  0  0
 18 16  1  0  0  0  0
 19 20  1  0  0  0  0
 20 21  1  0  0  0  0
 21 22  1  1  0  0  0
 23 24  1  0  0  0  0
 23 21  1  0  0  0  0
 24 25  1  0  0  0  0
M  END
>  <MODEL>
1

>  <REMARK>
 VINA RESULT:      -8.1      0.000      0.000
  Name = 
  6 active torsions:
  status: ('A' for Active; 'I' for Inactive)
    1  A    between atoms: C_1  and  C_5
    2  A    between atoms: C_2  and  C_7
    3  A    between atoms: C_2  and  C_21
    4  A    between atoms: C_6  and  C_15
    5  A    between atoms: C_6  and  N_23
    6  A    between atoms: C_15  and  C_21
                            x       y       z     vdW  Elec       q    Type
                         _______ _______ _______ _____ _____    ______ ____

>  <TORSDO>
F 6

$$$$
=
 OpenBabel10272400483D

 25 27  0  0  1  0  0  0  0  0999 V2000
  189.5320  177.4630  141.4430 C   0  0  0  0  0  0  0  0  0  0  0  0
  188.3730  178.0370  140.7140 C   0  0  0  0  0  0  0  0  0  0  0  0
  190.3470  176.7190  139.2500 C   0  0  0  0  0  3  0  0  0  0  0  0
  189.4360  177.3800  138.5980 N   0  0  0  0  0  0  0  0  0  0  0  0
  187.2570  178.5160  138.4960 C   0  0  0  0  0  0  0  0  0  0  0  0
  187.2690  178.5930  137.0750 N   0  0  0  0  0  1  0  0  0  0  0  0
  187.1960  178.2420  141.3090 C   0  0  0  0  0  3  0  0  0  0  0  0
  190.4710  176.8390  140.7170 C   0  0  0  0  0  3  0  0  0  0  0  0
  186.1440  178.7210  139.1340 N   0  0  0  0  0  0  0  0  0  0  0  0
  186.0780  178.6930  140.5400 N   0  0  0  0  0  0  0  0  0  0  0  0
  188.5540  178.3560  139.2470 C   0  0  1  0  0  3  0  0  0  0  0  0
  189.6750  177.5700  142.9200 C   0  0  0  0  0  0  0  0  0  0  0  0
  190.0220  177.8030  145.7030 C   0  0  0  0  0  3  0  0  0  0  0  0
  188.9800  176.7150  143.8040 C   0  0  0  0  0  0  0  0  0  0  0  0
  189.1550  176.8390  145.1850 C   0  0  0  0  0  3  0  0  0  0  0  0
  190.7150  178.6520  144.8390 C   0  0  0  0  0  3  0  0  0  0  0  0
  188.1110  175.7810  143.3400 F   0  0  0  0  0  0  0  0  0  0  0  0
  190.5430  178.5340  143.4580 C   0  0  0  0  0  3  0  0  0  0  0  0
  184.8090  178.9370  141.2010 C   0  0  0  0  0  2  0  0  0  0  0  0
  185.0510  179.4550  142.6090 C   0  0  0  0  0  2  0  0  0  0  0  0
  184.5950  178.4300  143.6380 C   0  0  2  0  0  3  0  0  0  0  0  0
  183.2800  178.8620  144.2610 C   0  0  0  0  0  1  0  0  0  0  0  0
  185.6560  178.1740  144.7110 C   0  0  0  0  0  2  0  0  0  0  0  0
  185.2730  178.7620  146.0620 C   0  0  0  0  0  2  0  0  0  0  0  0
  186.3480  178.4360  147.0770 C   0  0  0  0  0  1  0  0  0  0  0  0
  1 12  1  0  0  0  0
  2  7  2  0  0  0  0
  2  1  1  0  0  0  0
  3  8  1  0  0  0  0
  4 11  1  0  0  0  0
  4  3  2  0  0  0  0
  5  9  2  0  0  0  0
  6  5  1  0  0  0  0
  8  1  2  0  0  0  0
  9 10  1  0  0  0  0
 10 19  1  0  0  0  0
 10  7  1  0  0  0  0
 11  5  1  6  0  0  0
 11  2  1  0  0  0  0
 12 18  2  0  0  0  0
 12 14  1  0  0  0  0
 14 15  2  0  0  0  0
 15 13  1  0  0  0  0
 16 13  2  0  0  0  0
 17 14  1  0  0  0  0
 18 16  1  0  0  0  0
 19 20  1  0  0  0  0
 20 21  1  0  0  0  0
 21 22  1  1  0  0  0
 21 23  1  0  0  0  0
 23 24  1  0  0  0  0
 24 25  1  0  0  0  0
M  END
>  <MODEL>
2

>  <REMARK>
 VINA RESULT:      -8.0      1.343      2.195
  Name = 
  6 active torsions:
  status: ('A' for Active; 'I' for Inactive)
    1  A    between atoms: C_1  and  C_5
    2  A    between atoms: C_2  and  C_7
    3  A    between atoms: C_2  and  C_21
    4  A    between atoms: C_6  and  C_15
    5  A    between atoms: C_6  and  N_23
    6  A    between atoms: C_15  and  C_21
                            x       y       z     vdW  Elec       q    Type
                         _______ _______ _______ _____ _____    ______ ____

>  <TORSDO>
F 6

$$$$
=
 OpenBabel10272400483D

 25 27  0  0  1  0  0  0  0  0999 V2000
  187.0840  178.1520  142.5130 C   0  0  0  0  0  0  0  0  0  0  0  0
  188.5170  177.7660  142.4630 C   0  0  0  0  0  0  0  0  0  0  0  0
  187.2170  178.3790  140.0720 C   0  0  0  0  0  3  0  0  0  0  0  0
  188.4100  177.8620  140.0090 N   0  0  0  0  0  0  0  0  0  0  0  0
  190.5540  177.2570  141.0520 C   0  0  0  0  0  0  0  0  0  0  0  0
  191.1800  176.9840  139.8040 N   0  0  0  0  0  1  0  0  0  0  0  0
  189.3270  177.9210  143.5110 C   0  0  0  0  0  3  0  0  0  0  0  0
  186.4800  178.4370  141.3510 C   0  0  0  0  0  3  0  0  0  0  0  0
  191.2880  177.4040  142.1130 N   0  0  0  0  0  0  0  0  0  0  0  0
  190.7240  177.6390  143.3810 N   0  0  0  0  0  0  0  0  0  0  0  0
  189.0500  177.2150  141.1590 C   0  0  1  0  0  3  0  0  0  0  0  0
  186.3230  178.2200  143.7890 C   0  0  0  0  0  0  0  0  0  0  0  0
  184.9060  178.2700  146.2200 C   0  0  0  0  0  3  0  0  0  0  0  0
  185.2150  179.0800  143.9570 C   0  0  0  0  0  0  0  0  0  0  0  0
  184.5180  179.1010  145.1680 C   0  0  0  0  0  3  0  0  0  0  0  0
  185.9990  177.4160  146.0660 C   0  0  0  0  0  3  0  0  0  0  0  0
  184.8200  179.9180  142.9650 F   0  0  0  0  0  0  0  0  0  0  0  0
  186.7000  177.3900  144.8590 C   0  0  0  0  0  3  0  0  0  0  0  0
  191.5920  177.7890  144.5350 C   0  0  0  0  0  2  0  0  0  0  0  0
  191.5940  176.5060  145.3500 C   0  0  0  0  0  2  0  0  0  0  0  0
  191.3130  176.8080  146.8150 C   0  0  2  0  0  3  0  0  0  0  0  0
  192.0890  175.8540  147.7040 C   0  0  0  0  0  1  0  0  0  0  0  0
  189.8180  176.7720  147.1390 C   0  0  0  0  0  2  0  0  0  0  0  0
  189.3150  178.0870  147.7180 C   0  0  0  0  0  2  0  0  0  0  0  0
  188.2600  177.8060  148.7670 C   0  0  0  0  0  1  0  0  0  0  0  0
  1 12  1  0  0  0  0
  2  1  1  0  0  0  0
  2  7  2  0  0  0  0
  3  8  1  0  0  0  0
  4  3  2  0  0  0  0
  5 11  1  0  0  0  0
  5  9  2  0  0  0  0
  6  5  1  0  0  0  0
  8  1  2  0  0  0  0
  9 10  1  0  0  0  0
 10  7  1  0  0  0  0
 10 19  1  0  0  0  0
 11  4  1  6  0  0  0
 11  2  1  0  0  0  0
 12 14  2  0  0  0  0
 12 18  1  0  0  0  0
 14 15  1  0  0  0  0
 15 13  2  0  0  0  0
 16 13  1  0  0  0  0
 17 14  1  0  0  0  0
 18 16  2  0  0  0  0
 19 20  1  0  0  0  0
 20 21  1  0  0  0  0
 21 23  1  0  0  0  0
 21 22  1  1  0  0  0
 23 24  1  0  0  0  0
 24 25  1  0  0  0  0
M  END
>  <MODEL>
3

>  <REMARK>
 VINA RESULT:      -8.0      2.399      4.978
  Name = 
  6 active torsions:
  status: ('A' for Active; 'I' for Inactive)
    1  A    between atoms: C_1  and  C_5
    2  A    between atoms: C_2  and  C_7
    3  A    between atoms: C_2  and  C_21
    4  A    between atoms: C_6  and  C_15
    5  A    between atoms: C_6  and  N_23
    6  A    between atoms: C_15  and  C_21
                            x       y       z     vdW  Elec       q    Type
                         _______ _______ _______ _____ _____    ______ ____

>  <TORSDO>
F 6

$$$$
=
 OpenBabel10272400483D

 25 27  0  0  1  0  0  0  0  0999 V2000
  185.5820  178.4110  144.6970 C   0  0  0  0  0  0  0  0  0  0  0  0
  185.7330  178.3690  143.2200 C   0  0  0  0  0  0  0  0  0  0  0  0
  183.2810  179.1630  144.2870 C   0  0  0  0  0  3  0  0  0  0  0  0
  183.3530  178.9450  143.0060 N   0  0  0  0  0  0  0  0  0  0  0  0
  184.6560  178.6230  140.9450 C   0  0  0  0  0  0  0  0  0  0  0  0
  183.5170  178.7590  140.1040 N   0  0  0  0  0  1  0  0  0  0  0  0
  186.9230  178.4780  142.6280 C   0  0  0  0  0  3  0  0  0  0  0  0
  184.3930  178.7910  145.1860 C   0  0  0  0  0  3  0  0  0  0  0  0
  185.8440  178.7050  140.4260 N   0  0  0  0  0  0  0  0  0  0  0  0
  187.0070  178.5430  141.2020 N   0  0  0  0  0  0  0  0  0  0  0  0
  184.4760  178.2310  142.3900 C   0  0  1  0  0  3  0  0  0  0  0  0
  186.6890  178.0440  145.6200 C   0  0  0  0  0  0  0  0  0  0  0  0
  188.8000  177.2850  147.3190 C   0  0  0  0  0  3  0  0  0  0  0  0
  186.6820  178.4140  146.9830 C   0  0  0  0  0  0  0  0  0  0  0  0
  187.7350  178.0350  147.8200 C   0  0  0  0  0  3  0  0  0  0  0  0
  188.8180  176.9130  145.9740 C   0  0  0  0  0  3  0  0  0  0  0  0
  185.6760  179.1630  147.5030 F   0  0  0  0  0  0  0  0  0  0  0  0
  187.7680  177.2890  145.1320 C   0  0  0  0  0  3  0  0  0  0  0  0
  188.3100  178.6370  140.5680 C   0  0  0  0  0  2  0  0  0  0  0  0
  189.0570  177.3230  140.7230 C   0  0  0  0  0  2  0  0  0  0  0  0
  190.4200  177.5580  141.3560 C   0  0  2  0  0  3  0  0  0  0  0  0
  191.5210  177.2880  140.3460 C   0  0  0  0  0  1  0  0  0  0  0  0
  190.6210  176.7280  142.6260 C   0  0  0  0  0  2  0  0  0  0  0  0
  191.5950  177.3770  143.5990 C   0  0  0  0  0  2  0  0  0  0  0  0
  191.1920  178.8170  143.8310 C   0  0  0  0  0  1  0  0  0  0  0  0
  1  8  2  0  0  0  0
  1 12  1  0  0  0  0
  2  1  1  0  0  0  0
  3  8  1  0  0  0  0
  4  3  2  0  0  0  0
  6  5  1  0  0  0  0
  7  2  2  0  0  0  0
  9  5  2  0  0  0  0
  9 10  1  0  0  0  0
 10  7  1  0  0  0  0
 11  5  1  6  0  0  0
 11  4  1  0  0  0  0
 11  2  1  0  0  0  0
 12 14  1  0  0  0  0
 13 15  1  0  0  0  0
 14 17  1  0  0  0  0
 14 15  2  0  0  0  0
 16 13  2  0  0  0  0
 18 12  2  0  0  0  0
 18 16  1  0  0  0  0
 19 20  1  0  0  0  0
 19 10  1  0  0  0  0
 20 21  1  0  0  0  0
 21 22  1  6  0  0  0
 21 23  1  0  0  0  0
 23 24  1  0  0  0  0
 24 25  1  0  0  0  0
M  END
>  <MODEL>
4

>  <REMARK>
 VINA RESULT:      -7.7      1.948      4.978
  Name = 
  6 active torsions:
  status: ('A' for Active; 'I' for Inactive)
    1  A    between atoms: C_1  and  C_5
    2  A    between atoms: C_2  and  C_7
    3  A    between atoms: C_2  and  C_21
    4  A    between atoms: C_6  and  C_15
    5  A    between atoms: C_6  and  N_23
    6  A    between atoms: C_15  and  C_21
                            x       y       z     vdW  Elec       q    Type
                         _______ _______ _______ _____ _____    ______ ____

>  <TORSDO>
F 6

$$$$
=
 OpenBabel10272400483D

 25 27  0  0  1  0  0  0  0  0999 V2000
  187.1650  177.8140  145.9320 C   0  0  1  0  0  3  0  0  0  0  0  0
  188.5400  177.4670  145.4900 C   0  0  0  0  0  0  0  0  0  0  0  0
  187.9860  177.4990  148.2240 C   0  0  0  0  0  3  0  0  0  0  0  0
  189.2260  177.3820  147.8490 N   0  0  0  0  0  0  0  0  0  0  0  0
  190.9230  176.9130  146.1310 C   0  0  0  0  0  0  0  0  0  0  0  0
  191.9800  176.8270  147.0790 N   0  0  0  0  0  1  0  0  0  0  0  0
  188.7870  176.9670  144.2790 C   0  0  0  0  0  3  0  0  0  0  0  0
  186.9240  177.8270  147.2500 C   0  0  0  0  0  3  0  0  0  0  0  0
  191.1070  176.4550  144.9290 N   0  0  0  0  0  0  0  0  0  0  0  0
  190.1110  176.5450  143.9390 N   0  0  0  0  0  0  0  0  0  0  0  0
  189.6660  177.6690  146.4800 C   0  0  0  0  0  0  0  0  0  0  0  0
  186.0800  178.1450  144.9690 C   0  0  0  0  0  0  0  0  0  0  0  0
  184.0860  178.7890  143.0900 C   0  0  0  0  0  3  0  0  0  0  0  0
  184.8080  178.5860  145.3950 C   0  0  0  0  0  0  0  0  0  0  0  0
  183.8220  178.9020  144.4560 C   0  0  0  0  0  3  0  0  0  0  0  0
  185.3390  178.3550  142.6570 C   0  0  0  0  0  3  0  0  0  0  0  0
  184.5050  178.6870  146.7140 F   0  0  0  0  0  0  0  0  0  0  0  0
  186.3290  178.0370  143.5900 C   0  0  0  0  0  3  0  0  0  0  0  0
  190.3740  176.0240  142.6100 C   0  0  0  0  0  2  0  0  0  0  0  0
  189.7450  176.9310  141.5650 C   0  0  0  0  0  2  0  0  0  0  0  0
  190.5670  176.9150  140.2840 C   0  0  2  0  0  3  0  0  0  0  0  0
  191.9310  177.5320  140.5280 C   0  0  0  0  0  1  0  0  0  0  0  0
  189.8470  177.6080  139.1240 C   0  0  0  0  0  2  0  0  0  0  0  0
  188.6070  178.3650  139.5770 C   0  0  0  0  0  2  0  0  0  0  0  0
  187.4520  178.0400  138.6530 C   0  0  0  0  0  1  0  0  0  0  0  0
  1 12  1  1  0  0  0
  1  8  1  0  0  0  0
  2  1  1  0  0  0  0
  2 11  1  0  0  0  0
  4  3  1  0  0  0  0
  5 11  1  0  0  0  0
  5  6  1  0  0  0  0
  7  2  2  0  0  0  0
  8  3  2  0  0  0  0
  9  5  2  0  0  0  0
 10  7  1  0  0  0  0
 10  9  1  0  0  0  0
 11  4  2  0  0  0  0
 12 14  1  0  0  0  0
 13 15  1  0  0  0  0
 14 17  1  0  0  0  0
 15 14  2  0  0  0  0
 16 13  2  0  0  0  0
 16 18  1  0  0  0  0
 18 12  2  0  0  0  0
 19 10  1  0  0  0  0
 20 19  1  0  0  0  0
 21 22  1  1  0  0  0
 21 20  1  0  0  0  0
 23 24  1  0  0  0  0
 23 21  1  0  0  0  0
 25 24  1  0  0  0  0
M  END
>  <MODEL>
5

>  <REMARK>
 VINA RESULT:      -7.7      3.190      7.119
  Name = 
  6 active torsions:
  status: ('A' for Active; 'I' for Inactive)
    1  A    between atoms: C_1  and  C_5
    2  A    between atoms: C_2  and  C_7
    3  A    between atoms: C_2  and  C_21
    4  A    between atoms: C_6  and  C_15
    5  A    between atoms: C_6  and  N_23
    6  A    between atoms: C_15  and  C_21
                            x       y       z     vdW  Elec       q    Type
                         _______ _______ _______ _____ _____    ______ ____

>  <TORSDO>
F 6

$$$$
=
 OpenBabel10272400483D

 25 27  0  0  1  0  0  0  0  0999 V2000
  189.1160  177.1670  143.9940 C   0  0  0  0  0  0  0  0  0  0  0  0
  188.3330  177.8310  142.9210 C   0  0  0  0  0  0  0  0  0  0  0  0
  190.4860  176.2130  142.1940 C   0  0  0  0  0  3  0  0  0  0  0  0
  189.9230  176.9390  141.2720 N   0  0  0  0  0  0  0  0  0  0  0  0
  188.0550  178.3130  140.4540 C   0  0  0  0  0  0  0  0  0  0  0  0
  188.5300  178.3100  139.1130 N   0  0  0  0  0  1  0  0  0  0  0  0
  187.0650  178.2040  143.1000 C   0  0  0  0  0  3  0  0  0  0  0  0
  190.1480  176.3980  143.6200 C   0  0  0  0  0  3  0  0  0  0  0  0
  186.8320  178.6820  140.6950 N   0  0  0  0  0  0  0  0  0  0  0  0
  186.3180  178.7390  142.0040 N   0  0  0  0  0  0  0  0  0  0  0  0
  189.0130  178.0450  141.5870 C   0  0  1  0  0  3  0  0  0  0  0  0
  188.7920  177.3370  145.4360 C   0  0  0  0  0  0  0  0  0  0  0  0
  188.1120  177.7020  148.1420 C   0  0  0  0  0  3  0  0  0  0  0  0
  189.7910  177.3260  146.4350 C   0  0  0  0  0  0  0  0  0  0  0  0
  189.4450  177.5060  147.7770 C   0  0  0  0  0  3  0  0  0  0  0  0
  187.1170  177.7150  147.1640 C   0  0  0  0  0  3  0  0  0  0  0  0
  191.0950  177.1160  146.1230 F   0  0  0  0  0  0  0  0  0  0  0  0
  187.4560  177.5360  145.8210 C   0  0  0  0  0  3  0  0  0  0  0  0
  184.9470  179.1650  142.2160 C   0  0  0  0  0  2  0  0  0  0  0  0
  184.8320  179.8980  143.5420 C   0  0  0  0  0  2  0  0  0  0  0  0
  183.5850  179.4500  144.2910 C   0  0  2  0  0  3  0  0  0  0  0  0
  183.9710  178.7880  145.6010 C   0  0  0  0  0  1  0  0  0  0  0  0
  182.7010  178.5290  143.4470 C   0  0  0  0  0  2  0  0  0  0  0  0
  181.3600  179.1610  143.1020 C   0  0  0  0  0  2  0  0  0  0  0  0
  180.3130  178.6930  144.0900 C   0  0  0  0  0  1  0  0  0  0  0  0
  1 12  1  0  0  0  0
  2  7  2  0  0  0  0
  2  1  1  0  0  0  0
  3  8  1  0  0  0  0
  4 11  1  0  0  0  0
  4  3  2  0  0  0  0
  5  9  2  0  0  0  0
  6  5  1  0  0  0  0
  8  1  2  0  0  0  0
  9 10  1  0  0  0  0
 10 19  1  0  0  0  0
 10  7  1  0  0  0  0
 11  5  1  6  0  0  0
 11  2  1  0  0  0  0
 12 18  2  0  0  0  0
 12 14  1  0  0  0  0
 14 15  2  0  0  0  0
 15 13  1  0  0  0  0
 16 13  2  0  0  0  0
 17 14  1  0  0  0  0
 18 16  1  0  0  0  0
 19 20  1  0  0  0  0
 20 21  1  0  0  0  0
 21 22  1  1  0  0  0
 23 21  1  0  0  0  0
 24 23  1  0  0  0  0
 24 25  1  0  0  0  0
M  END
>  <MODEL>
6

>  <REMARK>
 VINA RESULT:      -7.6      1.977      3.917
  Name = 
  6 active torsions:
  status: ('A' for Active; 'I' for Inactive)
    1  A    between atoms: C_1  and  C_5
    2  A    between atoms: C_2  and  C_7
    3  A    between atoms: C_2  and  C_21
    4  A    between atoms: C_6  and  C_15
    5  A    between atoms: C_6  and  N_23
    6  A    between atoms: C_15  and  C_21
                            x       y       z     vdW  Elec       q    Type
                         _______ _______ _______ _____ _____    ______ ____

>  <TORSDO>
F 6

$$$$
=
 OpenBabel10272400483D

 25 27  0  0  1  0  0  0  0  0999 V2000
  187.1090  177.7630  145.8040 C   0  0  1  0  0  3  0  0  0  0  0  0
  188.4720  177.4630  145.2980 C   0  0  0  0  0  0  0  0  0  0  0  0
  188.0220  177.3700  148.0490 C   0  0  0  0  0  3  0  0  0  0  0  0
  189.2490  177.2940  147.6240 N   0  0  0  0  0  0  0  0  0  0  0  0
  190.8880  176.9310  145.8260 C   0  0  0  0  0  0  0  0  0  0  0  0
  191.9820  176.8280  146.7300 N   0  0  0  0  0  1  0  0  0  0  0  0
  188.6840  177.0180  144.0580 C   0  0  0  0  0  3  0  0  0  0  0  0
  186.9180  177.7160  147.1300 C   0  0  0  0  0  3  0  0  0  0  0  0
  191.0360  176.5280  144.6000 N   0  0  0  0  0  0  0  0  0  0  0  0
  190.0010  176.6380  143.6520 N   0  0  0  0  0  0  0  0  0  0  0  0
  189.6310  177.6470  146.2530 C   0  0  0  0  0  0  0  0  0  0  0  0
  185.9820  178.1110  144.8970 C   0  0  0  0  0  0  0  0  0  0  0  0
  183.9070  178.7890  143.1220 C   0  0  0  0  0  3  0  0  0  0  0  0
  184.7270  178.5330  145.3880 C   0  0  0  0  0  0  0  0  0  0  0  0
  183.7010  178.8660  144.5000 C   0  0  0  0  0  3  0  0  0  0  0  0
  185.1430  178.3740  142.6250 C   0  0  0  0  0  3  0  0  0  0  0  0
  184.4800  178.5990  146.7210 F   0  0  0  0  0  0  0  0  0  0  0  0
  186.1730  178.0390  143.5070 C   0  0  0  0  0  3  0  0  0  0  0  0
  190.2240  176.1790  142.2930 C   0  0  0  0  0  2  0  0  0  0  0  0
  190.9250  177.2610  141.4890 C   0  0  0  0  0  2  0  0  0  0  0  0
  190.2420  177.4480  140.1420 C   0  0  2  0  0  3  0  0  0  0  0  0
  188.7590  177.7000  140.3370 C   0  0  0  0  0  1  0  0  0  0  0  0
  190.4820  176.2660  139.2000 C   0  0  0  0  0  2  0  0  0  0  0  0
  191.2340  176.6670  137.9390 C   0  0  0  0  0  2  0  0  0  0  0  0
  192.7230  176.5360  138.1760 C   0  0  0  0  0  1  0  0  0  0  0  0
  1 12  1  1  0  0  0
  1  8  1  0  0  0  0
  2  1  1  0  0  0  0
  2 11  1  0  0  0  0
  4  3  1  0  0  0  0
  5 11  1  0  0  0  0
  5  6  1  0  0  0  0
  7  2  2  0  0  0  0
  8  3  2  0  0  0  0
  9  5  2  0  0  0  0
 10  7  1  0  0  0  0
 10  9  1  0  0  0  0
 11  4  2  0  0  0  0
 12 14  1  0  0  0  0
 13 15  1  0  0  0  0
 14 17  1  0  0  0  0
 15 14  2  0  0  0  0
 16 13  2  0  0  0  0
 16 18  1  0  0  0  0
 18 12  2  0  0  0  0
 19 10  1  0  0  0  0
 20 19  1  0  0  0  0
 21 22  1  1  0  0  0
 21 20  1  0  0  0  0
 23 21  1  0  0  0  0
 24 25  1  0  0  0  0
 24 23  1  0  0  0  0
M  END
>  <MODEL>
7

>  <REMARK>
 VINA RESULT:      -7.5      3.257      7.183
  Name = 
  6 active torsions:
  status: ('A' for Active; 'I' for Inactive)
    1  A    between atoms: C_1  and  C_5
    2  A    between atoms: C_2  and  C_7
    3  A    between atoms: C_2  and  C_21
    4  A    between atoms: C_6  and  C_15
    5  A    between atoms: C_6  and  N_23
    6  A    between atoms: C_15  and  C_21
                            x       y       z     vdW  Elec       q    Type
                         _______ _______ _______ _____ _____    ______ ____

>  <TORSDO>
F 6

$$$$
=
 OpenBabel10272400483D

 25 27  0  0  1  0  0  0  0  0999 V2000
  187.4730  178.0120  145.9700 C   0  0  0  0  0  0  0  0  0  0  0  0
  186.6910  178.0650  144.7080 C   0  0  0  0  0  0  0  0  0  0  0  0
  185.4640  178.8920  147.0730 C   0  0  0  0  0  3  0  0  0  0  0  0
  184.7250  178.7610  146.0100 N   0  0  0  0  0  0  0  0  0  0  0  0
  184.4770  178.5230  143.5740 C   0  0  0  0  0  0  0  0  0  0  0  0
  183.0760  178.7680  143.6090 N   0  0  0  0  0  1  0  0  0  0  0  0
  187.2800  178.1610  143.5160 C   0  0  0  0  0  3  0  0  0  0  0  0
  186.8600  178.4100  147.0940 C   0  0  0  0  0  3  0  0  0  0  0  0
  185.1060  178.5870  142.4400 N   0  0  0  0  0  0  0  0  0  0  0  0
  186.4840  178.3210  142.3380 N   0  0  0  0  0  0  0  0  0  0  0  0
  185.1820  178.0410  144.8170 C   0  0  1  0  0  3  0  0  0  0  0  0
  188.8810  177.5340  146.0130 C   0  0  0  0  0  0  0  0  0  0  0  0
  191.5450  176.6290  146.0120 C   0  0  0  0  0  3  0  0  0  0  0  0
  189.3850  176.7870  147.1010 C   0  0  0  0  0  0  0  0  0  0  0  0
  190.7110  176.3430  147.0940 C   0  0  0  0  0  3  0  0  0  0  0  0
  191.0570  177.3650  144.9320 C   0  0  0  0  0  3  0  0  0  0  0  0
  188.6130  176.5090  148.1810 F   0  0  0  0  0  0  0  0  0  0  0  0
  189.7340  177.8120  144.9330 C   0  0  0  0  0  3  0  0  0  0  0  0
  187.1350  178.4000  141.0430 C   0  0  0  0  0  2  0  0  0  0  0  0
  188.6430  178.4530  141.2240 C   0  0  0  0  0  2  0  0  0  0  0  0
  189.3100  177.3140  140.4670 C   0  0  2  0  0  3  0  0  0  0  0  0
  190.2890  176.5880  141.3700 C   0  0  0  0  0  1  0  0  0  0  0  0
  189.9920  177.7910  139.1830 C   0  0  0  0  0  2  0  0  0  0  0  0
  189.1580  177.5110  137.9410 C   0  0  0  0  0  2  0  0  0  0  0  0
  188.9930  178.7890  137.1460 C   0  0  0  0  0  1  0  0  0  0  0  0
  1 12  1  0  0  0  0
  1  8  2  0  0  0  0
  2 11  1  0  0  0  0
  2  1  1  0  0  0  0
  3  8  1  0  0  0  0
  4  3  2  0  0  0  0
  5  6  1  0  0  0  0
  7  2  2  0  0  0  0
  9  5  2  0  0  0  0
 10  9  1  0  0  0  0
 10  7  1  0  0  0  0
 11  5  1  6  0  0  0
 11  4  1  0  0  0  0
 12 14  1  0  0  0  0
 13 15  1  0  0  0  0
 14 17  1  0  0  0  0
 15 14  2  0  0  0  0
 16 18  1  0  0  0  0
 16 13  2  0  0  0  0
 18 12  2  0  0  0  0
 19 20  1  0  0  0  0
 19 10  1  0  0  0  0
 21 20  1  0  0  0  0
 21 22  1  1  0  0  0
 23 21  1  0  0  0  0
 24 23  1  0  0  0  0
 25 24  1  0  0  0  0
M  END
>  <MODEL>
8

>  <REMARK>
 VINA RESULT:      -7.3      1.803      5.428
  Name = 
  6 active torsions:
  status: ('A' for Active; 'I' for Inactive)
    1  A    between atoms: C_1  and  C_5
    2  A    between atoms: C_2  and  C_7
    3  A    between atoms: C_2  and  C_21
    4  A    between atoms: C_6  and  C_15
    5  A    between atoms: C_6  and  N_23
    6  A    between atoms: C_15  and  C_21
                            x       y       z     vdW  Elec       q    Type
                         _______ _______ _______ _____ _____    ______ ____

>  <TORSDO>
F 6

$$$$
=
 OpenBabel10272400483D

 25 27  0  0  1  0  0  0  0  0999 V2000
  183.6870  178.4760  142.4800 C   0  0  1  0  0  3  0  0  0  0  0  0
  184.8420  178.4130  143.4110 C   0  0  0  0  0  0  0  0  0  0  0  0
  182.3280  179.0330  144.4480 C   0  0  0  0  0  3  0  0  0  0  0  0
  183.3630  179.1640  145.2250 N   0  0  0  0  0  0  0  0  0  0  0  0
  185.7250  178.7300  145.7600 C   0  0  0  0  0  0  0  0  0  0  0  0
  185.5940  179.1990  147.0970 N   0  0  0  0  0  1  0  0  0  0  0  0
  185.9300  177.6910  143.1390 C   0  0  0  0  0  3  0  0  0  0  0  0
  182.4900  178.7800  143.0010 C   0  0  0  0  0  3  0  0  0  0  0  0
  186.7700  178.0330  145.4290 N   0  0  0  0  0  0  0  0  0  0  0  0
  186.9700  177.5730  144.1140 N   0  0  0  0  0  0  0  0  0  0  0  0
  184.7370  179.1780  144.7120 C   0  0  0  0  0  0  0  0  0  0  0  0
  183.8260  178.2210  141.0210 C   0  0  0  0  0  0  0  0  0  0  0  0
  184.0570  177.6640  138.2730 C   0  0  0  0  0  3  0  0  0  0  0  0
  184.7980  178.8790  140.2350 C   0  0  0  0  0  0  0  0  0  0  0  0
  184.9050  178.5980  138.8700 C   0  0  0  0  0  3  0  0  0  0  0  0
  183.0940  177.0080  139.0390 C   0  0  0  0  0  3  0  0  0  0  0  0
  185.6250  179.8100  140.7740 F   0  0  0  0  0  0  0  0  0  0  0  0
  182.9810  177.2840  140.4040 C   0  0  0  0  0  3  0  0  0  0  0  0
  188.1600  176.8040  143.7980 C   0  0  0  0  0  2  0  0  0  0  0  0
  189.2790  177.7360  143.3650 C   0  0  0  0  0  2  0  0  0  0  0  0
  190.1900  178.0550  144.5410 C   0  0  2  0  0  3  0  0  0  0  0  0
  191.5930  178.3600  144.0500 C   0  0  0  0  0  1  0  0  0  0  0  0
  190.2020  176.9370  145.5860 C   0  0  0  0  0  2  0  0  0  0  0  0
  191.6120  176.5430  146.0030 C   0  0  0  0  0  2  0  0  0  0  0  0
  191.6150  176.1530  147.4660 C   0  0  0  0  0  1  0  0  0  0  0  0
  1 12  1  6  0  0  0
  1  8  1  0  0  0  0
  1  2  1  0  0  0  0
  2 11  1  0  0  0  0
  3  4  1  0  0  0  0
  5  6  1  0  0  0  0
  7  2  2  0  0  0  0
  7 10  1  0  0  0  0
  8  3  2  0  0  0  0
  9  5  2  0  0  0  0
 10  9  1  0  0  0  0
 11  4  2  0  0  0  0
 11  5  1  0  0  0  0
 13 15  2  0  0  0  0
 13 16  1  0  0  0  0
 14 17  1  0  0  0  0
 14 12  2  0  0  0  0
 15 14  1  0  0  0  0
 16 18  2  0  0  0  0
 18 12  1  0  0  0  0
 19 10  1  0  0  0  0
 20 19  1  0  0  0  0
 20 21  1  0  0  0  0
 21 22  1  6  0  0  0
 21 23  1  0  0  0  0
 23 24  1  0  0  0  0
 24 25  1  0  0  0  0
M  END
>  <MODEL>
9

>  <REMARK>
 VINA RESULT:      -7.3      2.699      6.248
  Name = 
  6 active torsions:
  status: ('A' for Active; 'I' for Inactive)
    1  A    between atoms: C_1  and  C_5
    2  A    between atoms: C_2  and  C_7
    3  A    between atoms: C_2  and  C_21
    4  A    between atoms: C_6  and  C_15
    5  A    between atoms: C_6  and  N_23
    6  A    between atoms: C_15  and  C_21
                            x       y       z     vdW  Elec       q    Type
                         _______ _______ _______ _____ _____    ______ ____

>  <TORSDO>
F 6

$$$$
