=
 OpenBabel10272415233D

 34 39  0  0  1  0  0  0  0  0999 V2000
  184.8910  178.8670  141.6470 C   0  0  0  0  0  0  0  0  0  0  0  0
  185.3660  178.1810  137.9750 C   0  0  0  0  0  2  0  0  0  0  0  0
  183.3470  178.4790  139.3920 C   0  0  0  0  0  3  0  0  0  0  0  0
  184.2990  178.9820  143.7110 C   0  0  0  0  0  0  0  0  0  0  0  0
  185.3990  178.9030  142.8990 N   0  0  0  0  0  2  0  0  0  0  0  0
  181.6570  178.8500  143.3700 C   0  0  0  0  0  3  0  0  0  0  0  0
  180.7630  178.6850  142.1320 C   0  0  0  0  0  3  0  0  0  0  0  0
  183.1070  178.9720  142.9810 C   0  0  0  0  0  0  0  0  0  0  0  0
  182.6940  178.6830  140.6170 C   0  0  0  0  0  0  0  0  0  0  0  0
  183.4890  178.9070  141.6960 C   0  0  0  0  0  0  0  0  0  0  0  0
  181.2400  178.5980  140.8650 C   0  0  0  0  0  3  0  0  0  0  0  0
  186.6250  178.8820  137.7740 N   0  0  0  0  0  2  0  0  0  0  0  0
  187.7170  177.9910  138.1630 C   0  0  2  0  0  3  0  0  0  0  0  0
  187.6180  177.5650  139.6350 C   0  0  0  0  0  2  0  0  0  0  0  0
  184.7730  178.4920  139.3230 C   0  0  0  0  0  0  0  0  0  0  0  0
  187.0140  178.6680  140.4940 C   0  0  0  0  0  2  0  0  0  0  0  0
  185.5470  178.6430  140.4760 N   0  0  0  0  0  0  0  0  0  0  0  0
  189.0450  178.6860  137.9020 C   0  0  0  0  0  2  0  0  0  0  0  0
  190.1500  177.8580  138.3610 N   0  0  0  0  0  2  0  0  0  0  0  0
  190.4350  176.9030  137.3040 C   0  0  0  0  0  1  0  0  0  0  0  0
  184.3840  178.9460  145.2000 C   0  0  0  0  0  2  0  0  0  0  0  0
  187.0060  178.2030  147.7340 C   0  0  0  0  0  3  0  0  0  0  0  0
  186.5520  177.7320  144.9280 C   0  0  0  0  0  2  0  0  0  0  0  0
  190.3800  176.8620  146.7000 C   0  0  0  0  0  0  0  0  0  0  0  0
  189.3360  177.3640  147.4880 C   0  0  0  0  0  3  0  0  0  0  0  0
  188.1040  177.6780  146.9080 C   0  0  0  0  0  0  0  0  0  0  0  0
  188.9410  176.9720  144.7430 C   0  0  0  0  0  3  0  0  0  0  0  0
  187.9070  177.4860  145.5280 C   0  0  0  0  0  0  0  0  0  0  0  0
  190.1750  176.6690  145.3240 C   0  0  0  0  0  3  0  0  0  0  0  0
  185.8330  178.8730  145.6560 C   0  0  2  0  0  3  0  0  0  0  0  0
  185.9180  178.7220  147.1560 C   0  0  0  0  0  3  0  0  0  0  0  0
  191.6790  176.5390  147.3130 C   0  0  0  0  0  0  0  0  0  0  0  0
  192.1160  177.2170  148.2800 O   0  0  0  0  0  1  0  0  0  0  0  0
  192.4370  175.4800  146.8270 O   0  0  0  0  0  0  0  0  0  0  0  0
  1 10  2  0  0  0  0
  1  5  1  0  0  0  0
  2 15  1  0  0  0  0
  3  9  1  0  0  0  0
  4 21  1  0  0  0  0
  5  4  1  0  0  0  0
  7  6  2  0  0  0  0
  8  6  1  0  0  0  0
  8  4  2  0  0  0  0
  9 11  2  0  0  0  0
  9 10  1  0  0  0  0
 10  8  1  0  0  0  0
 11  7  1  0  0  0  0
 12  2  1  0  0  0  0
 12 13  1  0  0  0  0
 13 18  1  1  0  0  0
 13 14  1  0  0  0  0
 14 16  1  0  0  0  0
 15  3  2  0  0  0  0
 15 17  1  0  0  0  0
 17 16  1  0  0  0  0
 17  1  1  0  0  0  0
 18 19  1  0  0  0  0
 20 19  1  0  0  0  0
 23 28  1  0  0  0  0
 23 30  1  0  0  0  0
 24 32  1  0  0  0  0
 24 25  1  0  0  0  0
 26 25  2  0  0  0  0
 26 22  1  0  0  0  0
 27 29  1  0  0  0  0
 27 28  2  0  0  0  0
 28 26  1  0  0  0  0
 29 24  2  0  0  0  0
 30 21  1  6  0  0  0
 30 31  1  0  0  0  0
 31 22  2  0  0  0  0
 32 33  1  0  0  0  0
 34 32  2  0  0  0  0
M  END
>  <MODEL>
1

>  <REMARK>
 VINA RESULT:     -11.1      0.000      0.000
  Name = 
  5 active torsions:
  status: ('A' for Active; 'I' for Inactive)
    1  A    between atoms: C_3  and  N_13
    2  A    between atoms: C_3  and  C_25
    3  A    between atoms: C_7  and  C_11
    4  A    between atoms: C_8  and  C_18
    5  A    between atoms: C_18  and  C_30
                            x       y       z     vdW  Elec       q    Type
                         _______ _______ _______ _____ _____    ______ ____

>  <TORSDO>
F 5

$$$$
=
 OpenBabel10272415233D

 34 39  0  0  1  0  0  0  0  0999 V2000
  186.7400  177.9370  143.8800 C   0  0  0  0  0  0  0  0  0  0  0  0
  187.5000  177.7270  147.5620 C   0  0  0  0  0  2  0  0  0  0  0  0
  185.4260  178.2340  146.2910 C   0  0  0  0  0  3  0  0  0  0  0  0
  186.0690  178.3920  141.8890 C   0  0  0  0  0  0  0  0  0  0  0  0
  187.1780  178.0290  142.6050 N   0  0  0  0  0  0  0  0  0  0  0  0
  183.5650  179.1060  142.4710 C   0  0  0  0  0  2  0  0  0  0  0  0
  182.7880  179.2350  143.7890 C   0  0  0  0  0  3  0  0  0  0  0  0
  184.9460  178.5510  142.7060 C   0  0  0  0  0  0  0  0  0  0  0  0
  184.7020  178.4500  145.1090 C   0  0  0  0  0  0  0  0  0  0  0  0
  185.3740  178.2580  143.9440 C   0  0  0  0  0  0  0  0  0  0  0  0
  183.3130  178.9420  145.0040 C   0  0  0  0  0  3  0  0  0  0  0  0
  188.5380  176.7090  147.5220 N   0  0  0  0  0  2  0  0  0  0  0  0
  189.8120  177.3600  147.2160 C   0  0  2  0  0  3  0  0  0  0  0  0
  189.7780  178.0850  145.8630 C   0  0  0  0  0  2  0  0  0  0  0  0
  186.8010  177.8530  146.2350 C   0  0  0  0  0  0  0  0  0  0  0  0
  188.8790  177.3640  144.8670 C   0  0  0  0  0  2  0  0  0  0  0  0
  187.4700  177.7490  145.0130 N   0  0  0  0  0  0  0  0  0  0  0  0
  190.9200  176.3190  147.2300 C   0  0  0  0  0  2  0  0  0  0  0  0
  192.0890  176.8320  147.9280 N   0  0  0  0  0  2  0  0  0  0  0  0
  192.9070  175.6870  148.2890 C   0  0  0  0  0  1  0  0  0  0  0  0
  186.1110  178.7050  140.4310 C   0  0  0  0  0  2  0  0  0  0  0  0
  188.0470  177.6940  137.4180 C   0  0  0  0  0  3  0  0  0  0  0  0
  188.5620  178.2810  140.1910 C   0  0  0  0  0  2  0  0  0  0  0  0
  191.6470  176.5930  137.7050 C   0  0  0  0  0  0  0  0  0  0  0  0
  190.3840  176.8770  137.1670 C   0  0  0  0  0  3  0  0  0  0  0  0
  189.3720  177.3930  137.9810 C   0  0  0  0  0  0  0  0  0  0  0  0
  190.8830  177.3660  139.8800 C   0  0  0  0  0  3  0  0  0  0  0  0
  189.6210  177.6350  139.3450 C   0  0  0  0  0  0  0  0  0  0  0  0
  191.8890  176.8400  139.0650 C   0  0  0  0  0  3  0  0  0  0  0  0
  187.1630  177.8630  139.7270 C   0  0  2  0  0  3  0  0  0  0  0  0
  187.0170  177.9610  138.2280 C   0  0  0  0  0  3  0  0  0  0  0  0
  192.7080  176.0420  136.8460 C   0  0  0  0  0  0  0  0  0  0  0  0
  192.4460  175.1450  136.0020 O   0  0  0  0  0  0  0  0  0  0  0  0
  194.0130  176.5080  136.9610 O   0  0  0  0  0  1  0  0  0  0  0  0
  1 10  1  0  0  0  0
  1 17  1  0  0  0  0
  4  5  1  0  0  0  0
  4  8  2  0  0  0  0
  5  1  2  0  0  0  0
  6  8  1  0  0  0  0
  6  7  1  0  0  0  0
  7 11  2  0  0  0  0
  8 10  1  0  0  0  0
  9  3  1  0  0  0  0
 10  9  2  0  0  0  0
 11  9  1  0  0  0  0
 12  2  1  0  0  0  0
 13 18  1  6  0  0  0
 13 12  1  0  0  0  0
 14 13  1  0  0  0  0
 15  3  2  0  0  0  0
 15  2  1  0  0  0  0
 16 17  1  0  0  0  0
 16 14  1  0  0  0  0
 17 15  1  0  0  0  0
 18 19  1  0  0  0  0
 19 20  1  0  0  0  0
 21  4  1  0  0  0  0
 22 26  1  0  0  0  0
 22 31  2  0  0  0  0
 24 29  1  0  0  0  0
 25 24  2  0  0  0  0
 25 26  1  0  0  0  0
 26 28  2  0  0  0  0
 28 27  1  0  0  0  0
 28 23  1  0  0  0  0
 29 27  2  0  0  0  0
 30 23  1  0  0  0  0
 30 21  1  1  0  0  0
 31 30  1  0  0  0  0
 32 34  1  0  0  0  0
 32 24  1  0  0  0  0
 33 32  2  0  0  0  0
M  END
>  <MODEL>
2

>  <REMARK>
 VINA RESULT:     -10.4      3.391      7.524
  Name = 
  5 active torsions:
  status: ('A' for Active; 'I' for Inactive)
    1  A    between atoms: C_3  and  N_13
    2  A    between atoms: C_3  and  C_25
    3  A    between atoms: C_7  and  C_11
    4  A    between atoms: C_8  and  C_18
    5  A    between atoms: C_18  and  C_30
                            x       y       z     vdW  Elec       q    Type
                         _______ _______ _______ _____ _____    ______ ____

>  <TORSDO>
F 5

$$$$
=
 OpenBabel10272415233D

 34 39  0  0  1  0  0  0  0  0999 V2000
  188.9060  177.2700  143.4320 C   0  0  0  0  0  0  0  0  0  0  0  0
  191.6620  176.9620  140.8850 C   0  0  0  0  0  2  0  0  0  0  0  0
  191.6220  176.7790  143.3630 C   0  0  0  0  0  3  0  0  0  0  0  0
  187.6240  177.6520  145.1160 C   0  0  0  0  0  0  0  0  0  0  0  0
  187.6510  177.6620  143.7480 N   0  0  0  0  0  0  0  0  0  0  0  0
  189.4140  177.2920  147.0620 C   0  0  0  0  0  3  0  0  0  0  0  0
  190.9160  176.9700  147.0630 C   0  0  0  0  0  3  0  0  0  0  0  0
  188.8570  177.2810  145.6620 C   0  0  0  0  0  0  0  0  0  0  0  0
  190.9880  176.8320  144.6140 C   0  0  0  0  0  0  0  0  0  0  0  0
  189.6450  177.0390  144.6030 C   0  0  2  0  0  3  0  0  0  0  0  0
  191.6430  176.7670  145.9360 C   0  0  0  0  0  3  0  0  0  0  0  0
  190.8870  176.4260  139.7760 N   0  0  0  0  0  2  0  0  0  0  0  0
  190.2550  177.5420  139.0730 C   0  0  2  0  0  3  0  0  0  0  0  0
  189.3180  178.3430  139.9890 C   0  0  0  0  0  2  0  0  0  0  0  0
  190.8680  176.9570  142.1640 C   0  0  0  0  0  0  0  0  0  0  0  0
  188.6550  177.4490  141.0280 C   0  0  0  0  0  2  0  0  0  0  0  0
  189.5030  177.2510  142.2100 N   0  0  0  0  0  0  0  0  0  0  0  0
  189.4890  177.0050  137.8730 C   0  0  0  0  0  2  0  0  0  0  0  0
  188.3910  177.8970  137.5330 N   0  0  0  0  0  2  0  0  0  0  0  0
  187.1980  177.0770  137.4130 C   0  0  0  0  0  1  0  0  0  0  0  0
  186.4490  178.1150  145.9090 C   0  0  0  0  0  2  0  0  0  0  0  0
  183.0370  179.2410  144.9400 C   0  0  0  0  0  3  0  0  0  0  0  0
  185.4380  178.3310  143.6340 C   0  0  0  0  0  2  0  0  0  0  0  0
  181.7870  178.8210  141.4020 C   0  0  0  0  0  0  0  0  0  0  0  0
  181.8220  179.1190  142.7710 C   0  0  0  0  0  3  0  0  0  0  0  0
  182.9970  178.9280  143.5030 C   0  0  0  0  0  0  0  0  0  0  0  0
  184.1250  178.1580  141.4970 C   0  0  0  0  0  3  0  0  0  0  0  0
  184.1530  178.4410  142.8650 C   0  0  0  0  0  0  0  0  0  0  0  0
  182.9450  178.3400  140.7700 C   0  0  0  0  0  3  0  0  0  0  0  0
  185.1670  177.9850  145.1010 C   0  0  2  0  0  3  0  0  0  0  0  0
  184.0720  178.8430  145.6870 C   0  0  0  0  0  3  0  0  0  0  0  0
  180.5460  179.0170  140.6360 C   0  0  0  0  0  0  0  0  0  0  0  0
  179.9820  178.0410  140.0720 O   0  0  0  0  0  0  0  0  0  0  0  0
  179.9830  180.2840  140.5260 O   0  0  0  0  0  1  0  0  0  0  0  0
  1  5  2  0  0  0  0
  2 15  1  0  0  0  0
  3  9  1  0  0  0  0
  4  8  2  0  0  0  0
  4 21  1  0  0  0  0
  5  4  1  0  0  0  0
  6  7  2  0  0  0  0
  8  6  1  0  0  0  0
  9 11  2  0  0  0  0
 10  1  1  6  0  0  0
 10  9  1  0  0  0  0
 10  8  1  0  0  0  0
 11  7  1  0  0  0  0
 12  2  1  0  0  0  0
 13 18  1  6  0  0  0
 13 12  1  0  0  0  0
 13 14  1  0  0  0  0
 14 16  1  0  0  0  0
 15 17  1  0  0  0  0
 15  3  2  0  0  0  0
 16 17  1  0  0  0  0
 17  1  1  0  0  0  0
 19 18  1  0  0  0  0
 20 19  1  0  0  0  0
 22 31  2  0  0  0  0
 23 30  1  0  0  0  0
 24 25  1  0  0  0  0
 25 26  2  0  0  0  0
 26 22  1  0  0  0  0
 27 28  2  0  0  0  0
 28 26  1  0  0  0  0
 28 23  1  0  0  0  0
 29 24  2  0  0  0  0
 29 27  1  0  0  0  0
 30 31  1  0  0  0  0
 30 21  1  1  0  0  0
 32 24  1  0  0  0  0
 33 32  2  0  0  0  0
 34 32  1  0  0  0  0
M  END
>  <MODEL>
3

>  <REMARK>
 VINA RESULT:     -10.4      3.901      7.363
  Name = 
  5 active torsions:
  status: ('A' for Active; 'I' for Inactive)
    1  A    between atoms: C_3  and  N_13
    2  A    between atoms: C_3  and  C_25
    3  A    between atoms: C_7  and  C_11
    4  A    between atoms: C_8  and  C_18
    5  A    between atoms: C_18  and  C_30
                            x       y       z     vdW  Elec       q    Type
                         _______ _______ _______ _____ _____    ______ ____

>  <TORSDO>
F 5

$$$$
=
 OpenBabel10272415233D

 34 39  0  0  1  0  0  0  0  0999 V2000
  187.2690  177.8600  138.6630 C   0  0  0  0  0  0  0  0  0  0  0  0
  189.7450  175.9500  136.5650 C   0  0  0  0  0  2  0  0  0  0  0  0
  187.3280  176.4540  136.2870 C   0  0  0  0  0  3  0  0  0  0  0  0
  185.5870  178.6370  139.7540 C   0  0  0  0  0  0  0  0  0  0  0  0
  186.9360  178.4250  139.8450 N   0  0  0  0  0  2  0  0  0  0  0  0
  183.6650  178.0110  138.0130 C   0  0  0  0  0  3  0  0  0  0  0  0
  183.6670  177.2770  136.6640 C   0  0  0  0  0  3  0  0  0  0  0  0
  185.0660  178.1890  138.5370 C   0  0  0  0  0  0  0  0  0  0  0  0
  186.1040  176.9970  136.7070 C   0  0  0  0  0  0  0  0  0  0  0  0
  186.1250  177.7130  137.8620 C   0  0  0  0  0  0  0  0  0  0  0  0
  184.7870  176.8010  136.0670 C   0  0  0  0  0  3  0  0  0  0  0  0
  190.9470  176.7020  136.8920 N   0  0  0  0  0  2  0  0  0  0  0  0
  191.4890  176.1820  138.1470 C   0  0  2  0  0  3  0  0  0  0  0  0
  190.4910  176.3160  139.3060 C   0  0  0  0  0  2  0  0  0  0  0  0
  188.5080  176.6450  137.0670 C   0  0  0  0  0  0  0  0  0  0  0  0
  189.6240  177.5590  139.1530 C   0  0  0  0  0  2  0  0  0  0  0  0
  188.4600  177.3180  138.2910 N   0  0  0  0  0  0  0  0  0  0  0  0
  192.7810  176.9150  138.4740 C   0  0  0  0  0  2  0  0  0  0  0  0
  193.8400  176.5070  137.5640 N   0  0  0  0  0  2  0  0  0  0  0  0
  194.0400  175.0810  137.7530 C   0  0  0  0  0  1  0  0  0  0  0  0
  184.7690  179.1630  140.8860 C   0  0  0  0  0  2  0  0  0  0  0  0
  185.0820  179.1140  144.5930 C   0  0  0  0  0  3  0  0  0  0  0  0
  186.3770  177.9000  142.3240 C   0  0  0  0  0  2  0  0  0  0  0  0
  188.0620  177.5100  146.2680 C   0  0  0  0  0  0  0  0  0  0  0  0
  186.8670  178.2170  146.0780 C   0  0  0  0  0  3  0  0  0  0  0  0
  186.3380  178.3740  144.7950 C   0  0  0  0  0  0  0  0  0  0  0  0
  188.1840  177.0960  143.8750 C   0  0  0  0  0  3  0  0  0  0  0  0
  187.0010  177.8140  143.6870 C   0  0  0  0  0  0  0  0  0  0  0  0
  188.7170  176.9520  145.1590 C   0  0  0  0  0  3  0  0  0  0  0  0
  185.5850  179.2030  142.1680 C   0  0  2  0  0  3  0  0  0  0  0  0
  184.6990  179.4660  143.3620 C   0  0  0  0  0  3  0  0  0  0  0  0
  188.6210  177.3540  147.6210 C   0  0  0  0  0  0  0  0  0  0  0  0
  187.8600  177.2760  148.6220 O   0  0  0  0  0  1  0  0  0  0  0  0
  189.9980  177.2920  147.8060 O   0  0  0  0  0  0  0  0  0  0  0  0
  1  5  1  0  0  0  0
  2 12  1  0  0  0  0
  2 15  1  0  0  0  0
  3  9  1  0  0  0  0
  3 15  2  0  0  0  0
  4  5  1  0  0  0  0
  4 21  1  0  0  0  0
  6  8  1  0  0  0  0
  7  6  2  0  0  0  0
  8  4  2  0  0  0  0
  9 10  1  0  0  0  0
 10  8  1  0  0  0  0
 10  1  2  0  0  0  0
 11  7  1  0  0  0  0
 11  9  2  0  0  0  0
 12 13  1  0  0  0  0
 13 18  1  1  0  0  0
 13 14  1  0  0  0  0
 15 17  1  0  0  0  0
 16 14  1  0  0  0  0
 17  1  1  0  0  0  0
 17 16  1  0  0  0  0
 19 20  1  0  0  0  0
 19 18  1  0  0  0  0
 22 26  1  0  0  0  0
 23 28  1  0  0  0  0
 24 32  1  0  0  0  0
 25 24  1  0  0  0  0
 26 25  2  0  0  0  0
 27 29  1  0  0  0  0
 28 27  2  0  0  0  0
 28 26  1  0  0  0  0
 29 24  2  0  0  0  0
 30 21  1  6  0  0  0
 30 23  1  0  0  0  0
 30 31  1  0  0  0  0
 31 22  2  0  0  0  0
 32 34  2  0  0  0  0
 32 33  1  0  0  0  0
M  END
>  <MODEL>
4

>  <REMARK>
 VINA RESULT:      -9.7      1.931      4.121
  Name = 
  5 active torsions:
  status: ('A' for Active; 'I' for Inactive)
    1  A    between atoms: C_3  and  N_13
    2  A    between atoms: C_3  and  C_25
    3  A    between atoms: C_7  and  C_11
    4  A    between atoms: C_8  and  C_18
    5  A    between atoms: C_18  and  C_30
                            x       y       z     vdW  Elec       q    Type
                         _______ _______ _______ _____ _____    ______ ____

>  <TORSDO>
F 5

$$$$
=
 OpenBabel10272415233D

 34 39  0  0  1  0  0  0  0  0999 V2000
  184.4890  178.4850  140.1090 C   0  0  0  0  0  0  0  0  0  0  0  0
  185.3680  177.3800  136.6190 C   0  0  0  0  0  2  0  0  0  0  0  0
  183.2050  177.6580  137.8090 C   0  0  0  0  0  3  0  0  0  0  0  0
  183.6960  178.8080  142.0820 C   0  0  0  0  0  0  0  0  0  0  0  0
  184.8700  178.7330  141.3820 N   0  0  0  0  0  2  0  0  0  0  0  0
  181.1190  178.3720  141.5450 C   0  0  0  0  0  3  0  0  0  0  0  0
  180.3650  177.9610  140.2720 C   0  0  0  0  0  3  0  0  0  0  0  0
  182.5830  178.5850  141.2650 C   0  0  0  0  0  0  0  0  0  0  0  0
  182.4230  177.9540  138.9360 C   0  0  0  0  0  0  0  0  0  0  0  0
  183.0900  178.3930  140.0360 C   0  0  0  0  0  0  0  0  0  0  0  0
  180.9650  177.7580  139.0730 C   0  0  0  0  0  3  0  0  0  0  0  0
  186.5740  178.1700  136.4280 N   0  0  0  0  0  2  0  0  0  0  0  0
  187.6980  177.4490  137.0240 C   0  0  2  0  0  3  0  0  0  0  0  0
  187.4970  177.2090  138.5270 C   0  0  0  0  0  2  0  0  0  0  0  0
  184.6250  177.8020  137.8570 C   0  0  0  0  0  0  0  0  0  0  0  0
  186.7210  178.3490  139.1740 C   0  0  0  0  0  2  0  0  0  0  0  0
  185.2690  178.1780  139.0380 N   0  0  0  0  0  0  0  0  0  0  0  0
  188.9790  178.2310  136.7800 C   0  0  0  0  0  2  0  0  0  0  0  0
  190.1390  177.3660  136.9320 N   0  0  0  0  0  2  0  0  0  0  0  0
  190.2160  176.5420  135.7380 C   0  0  0  0  0  1  0  0  0  0  0  0
  183.6410  178.9740  143.5630 C   0  0  0  0  0  2  0  0  0  0  0  0
  186.0280  178.4360  146.3670 C   0  0  0  0  0  3  0  0  0  0  0  0
  185.8620  177.8270  143.5560 C   0  0  0  0  0  2  0  0  0  0  0  0
  189.5270  177.1720  145.7220 C   0  0  0  0  0  0  0  0  0  0  0  0
  188.3960  177.6700  146.3830 C   0  0  0  0  0  3  0  0  0  0  0  0
  187.2170  177.9150  145.6750 C   0  0  0  0  0  0  0  0  0  0  0  0
  188.2800  177.1450  143.6340 C   0  0  0  0  0  3  0  0  0  0  0  0
  187.1600  177.6560  144.2930 C   0  0  0  0  0  0  0  0  0  0  0  0
  189.4620  176.9120  144.3430 C   0  0  0  0  0  3  0  0  0  0  0  0
  185.0410  178.9720  144.1580 C   0  0  2  0  0  3  0  0  0  0  0  0
  184.9850  178.8900  145.6650 C   0  0  0  0  0  3  0  0  0  0  0  0
  190.7700  176.9220  146.4700 C   0  0  0  0  0  0  0  0  0  0  0  0
  191.8100  176.5380  145.8720 O   0  0  0  0  0  0  0  0  0  0  0  0
  190.8060  177.1080  147.8470 O   0  0  0  0  0  1  0  0  0  0  0  0
  1  5  1  0  0  0  0
  2 15  1  0  0  0  0
  3 15  2  0  0  0  0
  3  9  1  0  0  0  0
  4 21  1  0  0  0  0
  5  4  1  0  0  0  0
  7  6  2  0  0  0  0
  8  6  1  0  0  0  0
  8  4  2  0  0  0  0
  9 11  2  0  0  0  0
  9 10  1  0  0  0  0
 10  1  2  0  0  0  0
 10  8  1  0  0  0  0
 11  7  1  0  0  0  0
 12  2  1  0  0  0  0
 12 13  1  0  0  0  0
 13 18  1  1  0  0  0
 13 14  1  0  0  0  0
 14 16  1  0  0  0  0
 15 17  1  0  0  0  0
 17 16  1  0  0  0  0
 17  1  1  0  0  0  0
 18 19  1  0  0  0  0
 20 19  1  0  0  0  0
 23 30  1  0  0  0  0
 23 28  1  0  0  0  0
 24 25  1  0  0  0  0
 24 32  1  0  0  0  0
 26 22  1  0  0  0  0
 26 25  2  0  0  0  0
 27 28  2  0  0  0  0
 27 29  1  0  0  0  0
 28 26  1  0  0  0  0
 29 24  2  0  0  0  0
 30 21  1  6  0  0  0
 30 31  1  0  0  0  0
 31 22  2  0  0  0  0
 32 34  1  0  0  0  0
 33 32  2  0  0  0  0
M  END
>  <MODEL>
5

>  <REMARK>
 VINA RESULT:      -9.6      1.165      1.673
  Name = 
  5 active torsions:
  status: ('A' for Active; 'I' for Inactive)
    1  A    between atoms: C_3  and  N_13
    2  A    between atoms: C_3  and  C_25
    3  A    between atoms: C_7  and  C_11
    4  A    between atoms: C_8  and  C_18
    5  A    between atoms: C_18  and  C_30
                            x       y       z     vdW  Elec       q    Type
                         _______ _______ _______ _____ _____    ______ ____

>  <TORSDO>
F 5

$$$$
=
 OpenBabel10272415233D

 34 39  0  0  1  0  0  0  0  0999 V2000
  186.7670  177.9060  143.9070 C   0  0  0  0  0  0  0  0  0  0  0  0
  187.3950  177.8390  147.6190 C   0  0  0  0  0  2  0  0  0  0  0  0
  185.3830  178.3550  146.2540 C   0  0  0  0  0  3  0  0  0  0  0  0
  186.1800  178.2920  141.8750 C   0  0  0  0  0  0  0  0  0  0  0  0
  187.2510  177.9250  142.6460 N   0  0  0  0  0  0  0  0  0  0  0  0
  183.6840  179.1130  142.3360 C   0  0  0  0  0  2  0  0  0  0  0  0
  182.8670  179.3280  143.6180 C   0  0  0  0  0  3  0  0  0  0  0  0
  185.0360  178.5250  142.6440 C   0  0  0  0  0  0  0  0  0  0  0  0
  184.7070  178.5410  145.0390 C   0  0  0  0  0  0  0  0  0  0  0  0
  185.4120  178.2740  143.9080 C   0  0  0  0  0  0  0  0  0  0  0  0
  183.3400  179.0740  144.8640 C   0  0  0  0  0  3  0  0  0  0  0  0
  188.3980  176.7870  147.6610 N   0  0  0  0  0  2  0  0  0  0  0  0
  189.7020  177.3810  147.3710 C   0  0  2  0  0  3  0  0  0  0  0  0
  189.7390  178.0440  145.9870 C   0  0  0  0  0  2  0  0  0  0  0  0
  186.7460  177.9270  146.2640 C   0  0  0  0  0  0  0  0  0  0  0  0
  188.8500  177.3080  144.9930 C   0  0  0  0  0  2  0  0  0  0  0  0
  187.4510  177.7460  145.0720 N   0  0  0  0  0  0  0  0  0  0  0  0
  190.7730  176.3050  147.4710 C   0  0  0  0  0  2  0  0  0  0  0  0
  192.0420  176.8890  147.8780 N   0  0  0  0  0  2  0  0  0  0  0  0
  192.9270  175.7900  148.2230 C   0  0  0  0  0  1  0  0  0  0  0  0
  186.2810  178.5360  140.4070 C   0  0  0  0  0  2  0  0  0  0  0  0
  189.7690  177.2890  140.7680 C   0  0  0  0  0  3  0  0  0  0  0  0
  187.7900  177.5300  138.6880 C   0  0  0  0  0  2  0  0  0  0  0  0
  191.8380  176.4080  137.7360 C   0  0  0  0  0  0  0  0  0  0  0  0
  191.4660  176.6450  139.0660 C   0  0  0  0  0  3  0  0  0  0  0  0
  190.1620  177.0420  139.3720 C   0  0  0  0  0  0  0  0  0  0  0  0
  189.5790  176.9500  137.0190 C   0  0  0  0  0  3  0  0  0  0  0  0
  189.2140  177.2000  138.3440 C   0  0  0  0  0  0  0  0  0  0  0  0
  190.8870  176.5640  136.7150 C   0  0  0  0  0  3  0  0  0  0  0  0
  187.7220  178.4140  139.9370 C   0  0  2  0  0  3  0  0  0  0  0  0
  188.6060  177.8890  141.0440 C   0  0  0  0  0  3  0  0  0  0  0  0
  193.2150  175.9970  137.4160 C   0  0  0  0  0  0  0  0  0  0  0  0
  193.5970  174.8170  137.6330 O   0  0  0  0  0  1  0  0  0  0  0  0
  194.1090  176.9120  136.8710 O   0  0  0  0  0  0  0  0  0  0  0  0
  1 10  1  0  0  0  0
  1 17  1  0  0  0  0
  2 12  1  0  0  0  0
  3 15  2  0  0  0  0
  4  8  2  0  0  0  0
  4  5  1  0  0  0  0
  5  1  2  0  0  0  0
  6  8  1  0  0  0  0
  6  7  1  0  0  0  0
  7 11  2  0  0  0  0
  8 10  1  0  0  0  0
  9  3  1  0  0  0  0
 10  9  2  0  0  0  0
 11  9  1  0  0  0  0
 13 18  1  6  0  0  0
 13 12  1  0  0  0  0
 14 13  1  0  0  0  0
 15  2  1  0  0  0  0
 16 17  1  0  0  0  0
 16 14  1  0  0  0  0
 17 15  1  0  0  0  0
 18 19  1  0  0  0  0
 19 20  1  0  0  0  0
 21  4  1  0  0  0  0
 22 31  2  0  0  0  0
 23 30  1  0  0  0  0
 24 25  1  0  0  0  0
 25 26  2  0  0  0  0
 26 22  1  0  0  0  0
 27 28  2  0  0  0  0
 28 23  1  0  0  0  0
 28 26  1  0  0  0  0
 29 27  1  0  0  0  0
 29 24  2  0  0  0  0
 30 21  1  1  0  0  0
 30 31  1  0  0  0  0
 32 33  1  0  0  0  0
 32 24  1  0  0  0  0
 34 32  2  0  0  0  0
M  END
>  <MODEL>
6

>  <REMARK>
 VINA RESULT:      -9.4      3.284      7.365
  Name = 
  5 active torsions:
  status: ('A' for Active; 'I' for Inactive)
    1  A    between atoms: C_3  and  N_13
    2  A    between atoms: C_3  and  C_25
    3  A    between atoms: C_7  and  C_11
    4  A    between atoms: C_8  and  C_18
    5  A    between atoms: C_18  and  C_30
                            x       y       z     vdW  Elec       q    Type
                         _______ _______ _______ _____ _____    ______ ____

>  <TORSDO>
F 5

$$$$
=
 OpenBabel10272415233D

 34 39  0  0  1  0  0  0  0  0999 V2000
  185.3080  178.4980  140.3520 C   0  0  0  0  0  0  0  0  0  0  0  0
  185.7470  177.6630  136.7070 C   0  0  0  0  0  2  0  0  0  0  0  0
  183.7430  178.0880  138.1140 C   0  0  0  0  0  3  0  0  0  0  0  0
  184.7260  178.7080  142.4110 C   0  0  0  0  0  0  0  0  0  0  0  0
  185.8200  178.5590  141.6010 N   0  0  0  0  0  2  0  0  0  0  0  0
  182.0790  178.6650  142.0780 C   0  0  0  0  0  3  0  0  0  0  0  0
  181.1770  178.4900  140.8480 C   0  0  0  0  0  3  0  0  0  0  0  0
  183.5320  178.7170  141.6840 C   0  0  0  0  0  0  0  0  0  0  0  0
  183.1020  178.3610  139.3320 C   0  0  0  0  0  0  0  0  0  0  0  0
  183.9080  178.5930  140.4010 C   0  0  0  0  0  0  0  0  0  0  0  0
  181.6460  178.3400  139.5850 C   0  0  0  0  0  3  0  0  0  0  0  0
  187.0300  178.3090  136.4790 N   0  0  0  0  0  2  0  0  0  0  0  0
  188.0890  177.3910  136.8980 C   0  0  2  0  0  3  0  0  0  0  0  0
  187.9780  177.0220  138.3840 C   0  0  0  0  0  2  0  0  0  0  0  0
  185.1690  178.0440  138.0430 C   0  0  0  0  0  0  0  0  0  0  0  0
  187.4190  178.1770  139.2040 C   0  0  0  0  0  2  0  0  0  0  0  0
  185.9510  178.2070  139.1890 N   0  0  0  0  0  0  0  0  0  0  0  0
  189.4420  178.0250  136.6100 C   0  0  0  0  0  2  0  0  0  0  0  0
  190.5040  177.0420  136.7550 N   0  0  0  0  0  2  0  0  0  0  0  0
  190.4080  176.1380  135.6220 C   0  0  0  0  0  1  0  0  0  0  0  0
  184.8140  178.7230  143.9000 C   0  0  0  0  0  2  0  0  0  0  0  0
  188.4020  177.7540  143.7270 C   0  0  0  0  0  3  0  0  0  0  0  0
  186.4680  178.4350  145.7510 C   0  0  0  0  0  2  0  0  0  0  0  0
  190.3260  176.8680  146.8530 C   0  0  0  0  0  0  0  0  0  0  0  0
  190.0050  177.0670  145.5040 C   0  0  0  0  0  3  0  0  0  0  0  0
  188.7410  177.5430  145.1430 C   0  0  0  0  0  0  0  0  0  0  0  0
  188.1100  177.6470  147.4840 C   0  0  0  0  0  3  0  0  0  0  0  0
  187.7880  177.8300  146.1370 C   0  0  0  0  0  0  0  0  0  0  0  0
  189.3710  177.1600  147.8400 C   0  0  0  0  0  3  0  0  0  0  0  0
  186.0170  177.9260  144.3780 C   0  0  2  0  0  3  0  0  0  0  0  0
  187.1350  177.9800  143.3650 C   0  0  0  0  0  3  0  0  0  0  0  0
  191.6550  176.3590  147.2280 C   0  0  0  0  0  0  0  0  0  0  0  0
  192.1960  175.4340  146.5670 O   0  0  0  0  0  0  0  0  0  0  0  0
  192.3270  176.8970  148.3200 O   0  0  0  0  0  1  0  0  0  0  0  0
  1 10  2  0  0  0  0
  1  5  1  0  0  0  0
  2 15  1  0  0  0  0
  3  9  1  0  0  0  0
  4 21  1  0  0  0  0
  5  4  1  0  0  0  0
  7  6  2  0  0  0  0
  8  6  1  0  0  0  0
  8  4  2  0  0  0  0
  9 11  2  0  0  0  0
  9 10  1  0  0  0  0
 10  8  1  0  0  0  0
 11  7  1  0  0  0  0
 12  2  1  0  0  0  0
 12 13  1  0  0  0  0
 13 18  1  1  0  0  0
 13 14  1  0  0  0  0
 14 16  1  0  0  0  0
 15  3  2  0  0  0  0
 15 17  1  0  0  0  0
 17 16  1  0  0  0  0
 17  1  1  0  0  0  0
 18 19  1  0  0  0  0
 20 19  1  0  0  0  0
 22 26  1  0  0  0  0
 23 28  1  0  0  0  0
 24 32  1  0  0  0  0
 24 29  1  0  0  0  0
 25 24  2  0  0  0  0
 26 25  1  0  0  0  0
 26 28  2  0  0  0  0
 27 29  2  0  0  0  0
 28 27  1  0  0  0  0
 30 21  1  6  0  0  0
 30 23  1  0  0  0  0
 31 22  2  0  0  0  0
 31 30  1  0  0  0  0
 32 34  1  0  0  0  0
 33 32  2  0  0  0  0
M  END
>  <MODEL>
7

>  <REMARK>
 VINA RESULT:      -9.4      1.056      1.861
  Name = 
  5 active torsions:
  status: ('A' for Active; 'I' for Inactive)
    1  A    between atoms: C_3  and  N_13
    2  A    between atoms: C_3  and  C_25
    3  A    between atoms: C_7  and  C_11
    4  A    between atoms: C_8  and  C_18
    5  A    between atoms: C_18  and  C_30
                            x       y       z     vdW  Elec       q    Type
                         _______ _______ _______ _____ _____    ______ ____

>  <TORSDO>
F 5

$$$$
=
 OpenBabel10272415233D

 34 39  0  0  1  0  0  0  0  0999 V2000
  192.2580  175.4000  137.7260 C   0  0  0  0  0  0  0  0  0  0  0  0
  194.6180  172.7130  136.5500 C   0  0  0  0  0  2  0  0  0  0  0  0
  192.1740  173.0590  136.2650 C   0  0  0  0  0  3  0  0  0  0  0  0
  190.6440  176.6110  138.4690 C   0  0  0  0  0  0  0  0  0  0  0  0
  192.0020  176.4490  138.5390 N   0  0  0  0  0  2  0  0  0  0  0  0
  188.6130  175.2760  137.3690 C   0  0  0  0  0  3  0  0  0  0  0  0
  188.5320  174.0040  136.5130 C   0  0  0  0  0  3  0  0  0  0  0  0
  190.0450  175.6590  137.6390 C   0  0  0  0  0  0  0  0  0  0  0  0
  190.9720  173.7480  136.4850 C   0  0  0  0  0  0  0  0  0  0  0  0
  191.0610  174.9140  137.1760 C   0  0  0  0  0  0  0  0  0  0  0  0
  189.6160  173.2940  136.1130 C   0  0  0  0  0  3  0  0  0  0  0  0
  195.8210  173.5170  136.3980 N   0  0  0  0  0  2  0  0  0  0  0  0
  196.4710  173.6260  137.7030 C   0  0  2  0  0  3  0  0  0  0  0  0
  195.5610  174.2900  138.7470 C   0  0  0  0  0  2  0  0  0  0  0  0
  193.4050  173.5740  136.7740 C   0  0  0  0  0  0  0  0  0  0  0  0
  194.6510  175.3320  138.1100 C   0  0  0  0  0  2  0  0  0  0  0  0
  193.4320  174.7350  137.5500 N   0  0  0  0  0  0  0  0  0  0  0  0
  197.7640  174.4130  137.5530 C   0  0  0  0  0  2  0  0  0  0  0  0
  197.9910  175.2450  138.7240 N   0  0  0  0  0  2  0  0  0  0  0  0
  199.3260  174.9450  139.2100 C   0  0  0  0  0  1  0  0  0  0  0  0
  189.9010  177.6080  139.2940 C   0  0  0  0  0  2  0  0  0  0  0  0
  191.1840  177.7930  142.7820 C   0  0  0  0  0  3  0  0  0  0  0  0
  188.6330  177.7450  141.4430 C   0  0  0  0  0  2  0  0  0  0  0  0
  188.8590  177.3800  145.7290 C   0  0  0  0  0  0  0  0  0  0  0  0
  190.0270  177.5400  144.9720 C   0  0  0  0  0  3  0  0  0  0  0  0
  189.9580  177.6240  143.5790 C   0  0  0  0  0  0  0  0  0  0  0  0
  187.5430  177.4110  143.6830 C   0  0  0  0  0  3  0  0  0  0  0  0
  188.7110  177.5550  142.9310 C   0  0  0  0  0  0  0  0  0  0  0  0
  187.6170  177.3160  145.0760 C   0  0  0  0  0  3  0  0  0  0  0  0
  189.8870  177.1940  140.7570 C   0  0  2  0  0  3  0  0  0  0  0  0
  191.1500  177.6390  141.4550 C   0  0  0  0  0  3  0  0  0  0  0  0
  188.9360  177.2840  147.1950 C   0  0  0  0  0  0  0  0  0  0  0  0
  187.8870  177.2390  147.8900 O   0  0  0  0  0  1  0  0  0  0  0  0
  190.1730  177.2430  147.8290 O   0  0  0  0  0  0  0  0  0  0  0  0
  1  5  1  0  0  0  0
  2 15  1  0  0  0  0
  3  9  1  0  0  0  0
  3 15  2  0  0  0  0
  4  5  1  0  0  0  0
  4 21  1  0  0  0  0
  6  8  1  0  0  0  0
  7  6  2  0  0  0  0
  8  4  2  0  0  0  0
  9 10  1  0  0  0  0
 10  8  1  0  0  0  0
 10  1  2  0  0  0  0
 11  9  2  0  0  0  0
 11  7  1  0  0  0  0
 12  2  1  0  0  0  0
 12 13  1  0  0  0  0
 13 18  1  6  0  0  0
 13 14  1  0  0  0  0
 15 17  1  0  0  0  0
 16 14  1  0  0  0  0
 17  1  1  0  0  0  0
 17 16  1  0  0  0  0
 18 19  1  0  0  0  0
 19 20  1  0  0  0  0
 22 26  1  0  0  0  0
 23 28  1  0  0  0  0
 24 32  1  0  0  0  0
 25 24  2  0  0  0  0
 26 25  1  0  0  0  0
 27 29  2  0  0  0  0
 28 26  2  0  0  0  0
 28 27  1  0  0  0  0
 29 24  1  0  0  0  0
 30 21  1  6  0  0  0
 30 23  1  0  0  0  0
 30 31  1  0  0  0  0
 31 22  2  0  0  0  0
 32 34  2  0  0  0  0
 32 33  1  0  0  0  0
M  END
>  <MODEL>
8

>  <REMARK>
 VINA RESULT:      -9.3      4.220      8.027
  Name = 
  5 active torsions:
  status: ('A' for Active; 'I' for Inactive)
    1  A    between atoms: C_3  and  N_13
    2  A    between atoms: C_3  and  C_25
    3  A    between atoms: C_7  and  C_11
    4  A    between atoms: C_8  and  C_18
    5  A    between atoms: C_18  and  C_30
                            x       y       z     vdW  Elec       q    Type
                         _______ _______ _______ _____ _____    ______ ____

>  <TORSDO>
F 5

$$$$
=
 OpenBabel10272415233D

 34 39  0  0  1  0  0  0  0  0999 V2000
  187.6780  177.7760  142.7390 C   0  0  0  0  0  0  0  0  0  0  0  0
  186.9900  177.9400  146.4370 C   0  0  0  0  0  2  0  0  0  0  0  0
  185.5680  178.3170  144.4360 C   0  0  0  0  0  3  0  0  0  0  0  0
  187.8230  178.0290  140.6090 C   0  0  0  0  0  0  0  0  0  0  0  0
  188.5670  177.7390  141.7210 N   0  0  0  0  0  0  0  0  0  0  0  0
  185.3150  178.8010  140.1320 C   0  0  0  0  0  2  0  0  0  0  0  0
  184.1050  179.0630  141.0410 C   0  0  0  0  0  3  0  0  0  0  0  0
  186.4830  178.2710  140.9220 C   0  0  0  0  0  0  0  0  0  0  0  0
  185.3500  178.4140  143.0530 C   0  0  0  0  0  0  0  0  0  0  0  0
  186.4030  178.1040  142.2520 C   0  0  0  0  0  0  0  0  0  0  0  0
  184.1220  178.8950  142.3860 C   0  0  0  0  0  3  0  0  0  0  0  0
  187.9270  176.9210  146.8880 N   0  0  0  0  0  2  0  0  0  0  0  0
  189.2460  177.5360  147.0260 C   0  0  2  0  0  3  0  0  0  0  0  0
  189.7520  178.1210  145.6990 C   0  0  0  0  0  2  0  0  0  0  0  0
  186.8470  177.9310  144.9400 C   0  0  0  0  0  0  0  0  0  0  0  0
  189.2650  177.3040  144.5090 C   0  0  0  0  0  2  0  0  0  0  0  0
  187.9210  177.7040  144.0760 N   0  0  0  0  0  0  0  0  0  0  0  0
  190.2270  176.5000  147.5550 C   0  0  0  0  0  2  0  0  0  0  0  0
  191.5950  176.9130  147.2850 N   0  0  0  0  0  2  0  0  0  0  0  0
  192.3820  175.7030  147.1230 C   0  0  0  0  0  1  0  0  0  0  0  0
  188.4220  178.1930  139.2520 C   0  0  0  0  0  2  0  0  0  0  0  0
  189.4110  175.4520  136.9370 C   0  0  0  0  0  3  0  0  0  0  0  0
  190.7060  177.4110  138.6060 C   0  0  0  0  0  2  0  0  0  0  0  0
  192.9910  174.2650  136.7530 C   0  0  0  0  0  0  0  0  0  0  0  0
  191.6090  174.3550  136.5370 C   0  0  0  0  0  3  0  0  0  0  0  0
  190.8620  175.3550  137.1640 C   0  0  0  0  0  0  0  0  0  0  0  0
  192.8760  176.2020  138.2190 C   0  0  0  0  0  3  0  0  0  0  0  0
  191.4970  176.2800  138.0130 C   0  0  0  0  0  0  0  0  0  0  0  0
  193.6190  175.1940  137.5990 C   0  0  0  0  0  3  0  0  0  0  0  0
  189.2620  176.9810  138.8830 C   0  0  2  0  0  3  0  0  0  0  0  0
  188.6610  176.2470  137.7080 C   0  0  0  0  0  3  0  0  0  0  0  0
  193.7740  173.2060  136.0960 C   0  0  0  0  0  0  0  0  0  0  0  0
  194.4700  173.4630  135.0790 O   0  0  0  0  0  0  0  0  0  0  0  0
  193.7510  171.9080  136.5950 O   0  0  0  0  0  1  0  0  0  0  0  0
  1 17  1  0  0  0  0
  2 12  1  0  0  0  0
  3 15  2  0  0  0  0
  4  8  2  0  0  0  0
  4  5  1  0  0  0  0
  5  1  2  0  0  0  0
  6  8  1  0  0  0  0
  6  7  1  0  0  0  0
  7 11  2  0  0  0  0
  8 10  1  0  0  0  0
  9  3  1  0  0  0  0
 10  1  1  0  0  0  0
 10  9  2  0  0  0  0
 11  9  1  0  0  0  0
 12 13  1  0  0  0  0
 13 18  1  6  0  0  0
 14 13  1  0  0  0  0
 15  2  1  0  0  0  0
 16 14  1  0  0  0  0
 17 16  1  0  0  0  0
 17 15  1  0  0  0  0
 19 18  1  0  0  0  0
 20 19  1  0  0  0  0
 21  4  1  0  0  0  0
 22 26  1  0  0  0  0
 22 31  2  0  0  0  0
 23 30  1  0  0  0  0
 24 29  1  0  0  0  0
 25 24  2  0  0  0  0
 25 26  1  0  0  0  0
 26 28  2  0  0  0  0
 28 27  1  0  0  0  0
 28 23  1  0  0  0  0
 29 27  2  0  0  0  0
 30 21  1  6  0  0  0
 31 30  1  0  0  0  0
 32 34  1  0  0  0  0
 32 24  1  0  0  0  0
 33 32  2  0  0  0  0
M  END
>  <MODEL>
9

>  <REMARK>
 VINA RESULT:      -9.2      3.778      8.091
  Name = 
  5 active torsions:
  status: ('A' for Active; 'I' for Inactive)
    1  A    between atoms: C_3  and  N_13
    2  A    between atoms: C_3  and  C_25
    3  A    between atoms: C_7  and  C_11
    4  A    between atoms: C_8  and  C_18
    5  A    between atoms: C_18  and  C_30
                            x       y       z     vdW  Elec       q    Type
                         _______ _______ _______ _____ _____    ______ ____

>  <TORSDO>
F 5

$$$$
