=
 OpenBabel10272415063D

 37 38  0  0  1  0  0  0  0  0999 V2000
  183.0780  178.7410  142.5420 C   0  0  0  0  0  2  0  0  0  0  0  0
  185.5590  179.3600  140.8950 C   0  0  0  0  0  2  0  0  0  0  0  0
  182.8380  179.3650  139.6290 C   0  0  2  0  0  3  0  0  0  0  0  0
  184.4740  178.2510  142.9290 C   0  0  1  0  0  3  0  0  0  0  0  0
  182.4040  177.7910  141.5620 C   0  0  0  0  0  2  0  0  0  0  0  0
  185.4080  178.0760  141.7130 C   0  0  2  0  0  3  0  0  0  0  0  0
  185.3410  179.1110  139.4010 C   0  0  0  0  0  2  0  0  0  0  0  0
  181.7890  178.5640  140.3980 C   0  0  0  0  0  2  0  0  0  0  0  0
  182.1890  180.2540  138.5790 C   0  0  0  0  0  1  0  0  0  0  0  0
  183.9830  178.4760  139.1050 C   0  0  2  0  0  3  0  0  0  0  0  0
  184.9180  177.0950  137.0980 C   0  0  2  0  0  3  0  0  0  0  0  0
  183.4790  176.6690  137.3520 C   0  0  1  0  0  0  0  0  0  0  0  0
  183.2420  175.8710  138.4780 O   0  0  0  0  0  1  0  0  0  0  0  0
  185.8760  176.5540  138.1600 C   0  0  0  0  0  1  0  0  0  0  0  0
  183.8730  178.1150  137.6130 C   0  0  1  0  0  3  0  0  0  0  0  0
  183.6210  176.4960  134.6200 S   0  0  0  0  0  1  0  0  0  0  0  0
  182.6100  176.4460  136.1280 C   0  0  0  0  0  2  0  0  0  0  0  0
  185.0450  179.1480  143.9820 C   0  0  0  0  0  0  0  0  0  0  0  0
  184.5950  180.3190  144.1080 O   0  0  0  0  0  0  0  0  0  0  0  0
  186.0810  178.6900  144.8010 O   0  0  0  0  0  0  0  0  0  0  0  0
  184.5870  178.2940  146.6610 C   0  0  0  0  0  1  0  0  0  0  0  0
  185.9920  178.6770  146.2220 C   0  0  1  0  0  3  0  0  0  0  0  0
  187.0150  177.7100  146.8240 C   0  0  1  0  0  3  0  0  0  0  0  0
  188.0330  177.2090  145.8050 C   0  0  0  0  0  1  0  0  0  0  0  0
  189.1790  177.9850  148.1290 C   0  0  0  0  0  1  0  0  0  0  0  0
  187.6860  178.2730  148.0760 C   0  0  0  0  0  2  0  0  0  0  0  0
  186.7690  177.5250  142.1310 C   0  0  0  0  0  2  0  0  0  0  0  0
  187.9000  178.2630  141.4370 C   0  0  1  0  0  3  0  0  0  0  0  0
  189.0170  178.4710  142.3680 C   0  0  0  0  0  0  0  0  0  0  0  0
  189.9420  178.6430  143.1210 C   0  0  0  0  0  0  0  0  0  0  0  0
  191.0700  178.8550  144.0280 C   0  0  0  0  0  2  0  0  0  0  0  0
  191.6240  176.5820  145.3140 C   0  0  0  0  0  3  0  0  0  0  0  0
  191.3750  177.6080  144.7330 C   0  0  0  0  0  0  0  0  0  0  0  0
  188.3360  177.4990  140.3190 O   0  0  0  0  0  0  0  0  0  0  0  0
  188.9120  179.1280  138.7810 O   0  0  0  0  0  0  0  0  0  0  0  0
  189.1710  178.0240  139.3290 C   0  0  0  0  0  0  0  0  0  0  0  0
  190.3810  177.2660  138.9170 C   0  0  0  0  0  1  0  0  0  0  0  0
  1  4  1  0  0  0  0
  2  6  1  0  0  0  0
  3  9  1  6  0  0  0
  3  8  1  0  0  0  0
  4 18  1  1  0  0  0
  5  1  1  0  0  0  0
  6 27  1  1  0  0  0
  6  4  1  0  0  0  0
  7  2  1  0  0  0  0
  8  5  1  0  0  0  0
 10  7  1  6  0  0  0
 10  3  1  0  0  0  0
 11 12  1  0  0  0  0
 11 15  1  0  0  0  0
 11 14  1  1  0  0  0
 12 15  1  0  0  0  0
 12 13  1  1  0  0  0
 15 10  1  1  0  0  0
 16 17  1  0  0  0  0
 17 12  1  0  0  0  0
 18 19  2  0  0  0  0
 18 20  1  0  0  0  0
 20 22  1  0  0  0  0
 22 21  1  6  0  0  0
 22 23  1  0  0  0  0
 23 24  1  6  0  0  0
 23 26  1  0  0  0  0
 26 25  1  0  0  0  0
 28 27  1  1  0  0  0
 28 29  1  0  0  0  0
 29 30  3  0  0  0  0
 30 31  1  0  0  0  0
 31 33  1  0  0  0  0
 33 32  3  0  0  0  0
 34 28  1  0  0  0  0
 35 36  2  0  0  0  0
 36 34  1  0  0  0  0
 37 36  1  0  0  0  0
M  END
>  <MODEL>
1

>  <REMARK>
 VINA RESULT:      -6.2      0.000      0.000
  Name = 
  14 active torsions:
  status: ('A' for Active; 'I' for Inactive)
    1  A    between atoms: C_2  and  C_19
    2  A    between atoms: C_2  and  C_35
    3  A    between atoms: C_4  and  O_13
    4  A    between atoms: C_4  and  C_20
    5  A    between atoms: C_4  and  C_22
    6  A    between atoms: C_5  and  C_23
    7  A    between atoms: O_6  and  C_31
    8  A    between atoms: O_6  and  C_35
    9  A    between atoms: O_13  and  C_16
   10  A    between atoms: C_14  and  C_31
   11  A    between atoms: C_22  and  C_28
   12  A    between atoms: C_25  and  C_32
   13  A    between atoms: C_26  and  C_36
   14  A    between atoms: C_30  and  C_32
                            x       y       z     vdW  Elec       q    Type
                         _______ _______ _______ _____ _____    ______ ____

>  <TORSDO>
F 14

$$$$
=
 OpenBabel10272415063D

 37 38  0  0  1  0  0  0  0  0999 V2000
  182.7640  176.6620  139.1310 C   0  0  0  0  0  2  0  0  0  0  0  0
  184.4470  179.1470  138.6320 C   0  0  0  0  0  2  0  0  0  0  0  0
  184.3870  176.9090  136.6330 C   0  0  2  0  0  3  0  0  0  0  0  0
  183.2770  177.5560  140.2600 C   0  0  1  0  0  3  0  0  0  0  0  0
  183.7990  175.6210  138.7300 C   0  0  0  0  0  2  0  0  0  0  0  0
  184.5820  178.2960  139.8960 C   0  0  2  0  0  3  0  0  0  0  0  0
  185.5870  178.8870  137.6470 C   0  0  0  0  0  2  0  0  0  0  0  0
  183.9480  175.5650  137.2110 C   0  0  0  0  0  2  0  0  0  0  0  0
  184.3710  176.8840  135.1120 C   0  0  0  0  0  1  0  0  0  0  0  0
  185.7020  177.4130  137.2580 C   0  0  2  0  0  3  0  0  0  0  0  0
  188.2920  177.1150  137.1490 C   0  0  2  0  0  3  0  0  0  0  0  0
  187.6350  175.8480  136.6210 C   0  0  1  0  0  0  0  0  0  0  0  0
  187.0450  174.9980  137.5650 O   0  0  0  0  0  1  0  0  0  0  0  0
  188.1810  177.2330  138.6690 C   0  0  0  0  0  1  0  0  0  0  0  0
  186.9480  177.1840  136.3840 C   0  0  1  0  0  3  0  0  0  0  0  0
  189.9910  174.7680  135.7300 S   0  0  0  0  0  1  0  0  0  0  0  0
  188.2640  175.2170  135.3930 C   0  0  0  0  0  2  0  0  0  0  0  0
  182.1850  178.4810  140.7020 C   0  0  0  0  0  0  0  0  0  0  0  0
  181.6130  178.2780  141.8070 O   0  0  0  0  0  0  0  0  0  0  0  0
  181.7970  179.5430  139.8820 O   0  0  0  0  0  0  0  0  0  0  0  0
  179.9840  181.0850  140.3120 C   0  0  0  0  0  1  0  0  0  0  0  0
  180.4330  179.8280  139.5830 C   0  0  1  0  0  3  0  0  0  0  0  0
  180.2280  179.9910  138.0750 C   0  0  1  0  0  3  0  0  0  0  0  0
  181.3320  180.8020  137.4070 C   0  0  0  0  0  1  0  0  0  0  0  0
  181.1560  178.2370  136.4870 C   0  0  0  0  0  1  0  0  0  0  0  0
  179.9900  178.6560  137.3700 C   0  0  0  0  0  2  0  0  0  0  0  0
  185.0970  179.1260  141.0690 C   0  0  0  0  0  2  0  0  0  0  0  0
  185.0010  178.3560  142.3750 C   0  0  1  0  0  3  0  0  0  0  0  0
  186.2900  177.7230  142.6850 C   0  0  0  0  0  0  0  0  0  0  0  0
  187.3540  177.2110  142.9280 C   0  0  0  0  0  0  0  0  0  0  0  0
  188.6490  176.5960  143.2190 C   0  0  0  0  0  2  0  0  0  0  0  0
  189.4450  177.3020  145.6680 C   0  0  0  0  0  3  0  0  0  0  0  0
  189.0870  176.9830  144.5620 C   0  0  0  0  0  0  0  0  0  0  0  0
  184.6380  179.2520  143.4170 O   0  0  0  0  0  0  0  0  0  0  0  0
  182.9580  178.6500  144.8900 O   0  0  0  0  0  0  0  0  0  0  0  0
  184.1870  178.8120  144.6650 C   0  0  0  0  0  0  0  0  0  0  0  0
  185.1730  178.5340  145.7410 C   0  0  0  0  0  1  0  0  0  0  0  0
  1  4  1  0  0  0  0
  2  6  1  0  0  0  0
  3  9  1  6  0  0  0
  3  8  1  0  0  0  0
  3 10  1  0  0  0  0
  4 18  1  6  0  0  0
  5  1  1  0  0  0  0
  6  4  1  0  0  0  0
  6 27  1  1  0  0  0
  7  2  1  0  0  0  0
  8  5  1  0  0  0  0
 10  7  1  6  0  0  0
 11 14  1  1  0  0  0
 12 11  1  0  0  0  0
 12 13  1  1  0  0  0
 15 12  1  0  0  0  0
 15 11  1  0  0  0  0
 15 10  1  1  0  0  0
 17 16  1  0  0  0  0
 17 12  1  0  0  0  0
 18 19  2  0  0  0  0
 20 18  1  0  0  0  0
 22 20  1  0  0  0  0
 22 21  1  1  0  0  0
 23 24  1  6  0  0  0
 23 22  1  0  0  0  0
 25 26  1  0  0  0  0
 26 23  1  0  0  0  0
 28 27  1  6  0  0  0
 28 29  1  0  0  0  0
 28 34  1  0  0  0  0
 29 30  3  0  0  0  0
 30 31  1  0  0  0  0
 31 33  1  0  0  0  0
 33 32  3  0  0  0  0
 34 36  1  0  0  0  0
 36 35  2  0  0  0  0
 36 37  1  0  0  0  0
M  END
>  <MODEL>
2

>  <REMARK>
 VINA RESULT:      -5.4      2.366      6.181
  Name = 
  14 active torsions:
  status: ('A' for Active; 'I' for Inactive)
    1  A    between atoms: C_2  and  C_19
    2  A    between atoms: C_2  and  C_35
    3  A    between atoms: C_4  and  O_13
    4  A    between atoms: C_4  and  C_20
    5  A    between atoms: C_4  and  C_22
    6  A    between atoms: C_5  and  C_23
    7  A    between atoms: O_6  and  C_31
    8  A    between atoms: O_6  and  C_35
    9  A    between atoms: O_13  and  C_16
   10  A    between atoms: C_14  and  C_31
   11  A    between atoms: C_22  and  C_28
   12  A    between atoms: C_25  and  C_32
   13  A    between atoms: C_26  and  C_36
   14  A    between atoms: C_30  and  C_32
                            x       y       z     vdW  Elec       q    Type
                         _______ _______ _______ _____ _____    ______ ____

>  <TORSDO>
F 14

$$$$
=
 OpenBabel10272415063D

 37 38  0  0  1  0  0  0  0  0999 V2000
  190.7610  177.2810  140.3110 C   0  0  0  0  0  2  0  0  0  0  0  0
  188.6700  179.2650  141.2810 C   0  0  0  0  0  2  0  0  0  0  0  0
  190.9520  178.4550  143.0530 C   0  0  2  0  0  3  0  0  0  0  0  0
  189.3430  177.3350  139.7420 C   0  0  1  0  0  3  0  0  0  0  0  0
  190.8280  176.4160  141.5610 C   0  0  0  0  0  2  0  0  0  0  0  0
  188.3100  177.8750  140.7530 C   0  0  2  0  0  3  0  0  0  0  0  0
  188.5960  179.3310  142.8070 C   0  0  0  0  0  2  0  0  0  0  0  0
  191.6010  177.1270  142.6700 C   0  0  0  0  0  2  0  0  0  0  0  0
  191.8190  179.2260  144.0370 C   0  0  0  0  0  1  0  0  0  0  0  0
  189.4820  178.2840  143.4820 C   0  0  2  0  0  3  0  0  0  0  0  0
  188.1000  177.4090  145.5150 C   0  0  2  0  0  3  0  0  0  0  0  0
  189.5460  176.9660  145.6840 C   0  0  1  0  0  0  0  0  0  0  0  0
  189.9930  175.9250  144.8610 O   0  0  0  0  0  1  0  0  0  0  0  0
  187.3730  176.6070  144.4360 C   0  0  0  0  0  1  0  0  0  0  0  0
  189.2610  178.2970  145.0060 C   0  0  1  0  0  3  0  0  0  0  0  0
  191.7270  176.2040  147.1600 S   0  0  0  0  0  1  0  0  0  0  0  0
  190.1280  177.0640  147.0820 C   0  0  0  0  0  2  0  0  0  0  0  0
  189.3510  178.0940  138.4510 C   0  0  0  0  0  0  0  0  0  0  0  0
  189.0130  179.3080  138.4460 O   0  0  0  0  0  0  0  0  0  0  0  0
  189.7120  177.4490  137.2660 O   0  0  0  0  0  0  0  0  0  0  0  0
  188.8150  175.2230  136.9630 C   0  0  0  0  0  1  0  0  0  0  0  0
  188.7950  176.6720  136.5010 C   0  0  1  0  0  3  0  0  0  0  0  0
  187.3780  177.2400  136.6060 C   0  0  1  0  0  3  0  0  0  0  0  0
  186.9760  178.0700  135.3910 C   0  0  0  0  0  1  0  0  0  0  0  0
  184.9400  176.7320  137.1160 C   0  0  0  0  0  1  0  0  0  0  0  0
  186.3410  176.1670  136.9360 C   0  0  0  0  0  2  0  0  0  0  0  0
  186.8990  177.8540  140.1720 C   0  0  0  0  0  2  0  0  0  0  0  0
  185.9670  178.7650  140.9520 C   0  0  1  0  0  3  0  0  0  0  0  0
  184.8500  179.1960  140.1020 C   0  0  0  0  0  0  0  0  0  0  0  0
  183.9230  179.5480  139.4150 C   0  0  0  0  0  0  0  0  0  0  0  0
  182.7940  179.9760  138.5900 C   0  0  0  0  0  2  0  0  0  0  0  0
  181.4040  177.8410  137.7910 C   0  0  0  0  0  3  0  0  0  0  0  0
  182.0320  178.8040  138.1510 C   0  0  0  0  0  0  0  0  0  0  0  0
  185.4710  178.0630  142.0850 O   0  0  0  0  0  0  0  0  0  0  0  0
  183.3100  178.4500  142.8150 O   0  0  0  0  0  0  0  0  0  0  0  0
  184.5490  178.6220  142.9730 C   0  0  0  0  0  0  0  0  0  0  0  0
  185.0360  179.4320  144.1190 C   0  0  0  0  0  1  0  0  0  0  0  0
  1  5  1  0  0  0  0
  2  7  1  0  0  0  0
  3 10  1  0  0  0  0
  3  9  1  1  0  0  0
  4 18  1  6  0  0  0
  4  1  1  0  0  0  0
  4  6  1  0  0  0  0
  5  8  1  0  0  0  0
  6 27  1  6  0  0  0
  6  2  1  0  0  0  0
  8  3  1  0  0  0  0
 10  7  1  6  0  0  0
 11 14  1  6  0  0  0
 11 12  1  0  0  0  0
 12 13  1  6  0  0  0
 12 17  1  0  0  0  0
 15 10  1  6  0  0  0
 15 11  1  0  0  0  0
 15 12  1  0  0  0  0
 17 16  1  0  0  0  0
 19 18  2  0  0  0  0
 20 18  1  0  0  0  0
 22 23  1  0  0  0  0
 22 21  1  1  0  0  0
 22 20  1  0  0  0  0
 23 24  1  6  0  0  0
 23 26  1  0  0  0  0
 26 25  1  0  0  0  0
 27 28  1  0  0  0  0
 28 29  1  6  0  0  0
 28 34  1  0  0  0  0
 30 29  3  0  0  0  0
 31 30  1  0  0  0  0
 32 33  3  0  0  0  0
 33 31  1  0  0  0  0
 34 36  1  0  0  0  0
 35 36  2  0  0  0  0
 36 37  1  0  0  0  0
M  END
>  <MODEL>
3

>  <REMARK>
 VINA RESULT:      -5.3      3.069      8.835
  Name = 
  14 active torsions:
  status: ('A' for Active; 'I' for Inactive)
    1  A    between atoms: C_2  and  C_19
    2  A    between atoms: C_2  and  C_35
    3  A    between atoms: C_4  and  O_13
    4  A    between atoms: C_4  and  C_20
    5  A    between atoms: C_4  and  C_22
    6  A    between atoms: C_5  and  C_23
    7  A    between atoms: O_6  and  C_31
    8  A    between atoms: O_6  and  C_35
    9  A    between atoms: O_13  and  C_16
   10  A    between atoms: C_14  and  C_31
   11  A    between atoms: C_22  and  C_28
   12  A    between atoms: C_25  and  C_32
   13  A    between atoms: C_26  and  C_36
   14  A    between atoms: C_30  and  C_32
                            x       y       z     vdW  Elec       q    Type
                         _______ _______ _______ _____ _____    ______ ____

>  <TORSDO>
F 14

$$$$
=
 OpenBabel10272415063D

 37 38  0  0  1  0  0  0  0  0999 V2000
  186.3990  176.5210  137.3490 C   0  0  0  0  0  2  0  0  0  0  0  0
  188.5380  178.6550  137.7040 C   0  0  0  0  0  2  0  0  0  0  0  0
  188.9170  176.4160  135.7410 C   0  0  2  0  0  3  0  0  0  0  0  0
  186.5520  177.3370  138.6330 C   0  0  1  0  0  3  0  0  0  0  0  0
  187.3120  175.3040  137.3500 C   0  0  0  0  0  2  0  0  0  0  0  0
  187.9970  177.8240  138.8690 C   0  0  2  0  0  3  0  0  0  0  0  0
  189.9190  178.1730  137.2550 C   0  0  0  0  0  2  0  0  0  0  0  0
  188.0570  175.1860  136.0220 C   0  0  0  0  0  2  0  0  0  0  0  0
  189.5210  176.3570  134.3460 C   0  0  0  0  0  1  0  0  0  0  0  0
  189.9270  176.6930  136.8720 C   0  0  2  0  0  3  0  0  0  0  0  0
  192.2940  176.1020  137.7990 C   0  0  2  0  0  3  0  0  0  0  0  0
  191.7040  174.8610  137.1460 C   0  0  1  0  0  0  0  0  0  0  0  0
  190.6840  174.2000  137.8410 O   0  0  0  0  0  1  0  0  0  0  0  0
  191.6380  176.4130  139.1440 C   0  0  0  0  0  1  0  0  0  0  0  0
  191.3620  176.2260  136.5690 C   0  0  1  0  0  3  0  0  0  0  0  0
  193.2280  174.9720  134.8700 S   0  0  0  0  0  1  0  0  0  0  0  0
  192.6480  174.0210  136.3050 C   0  0  0  0  0  2  0  0  0  0  0  0
  185.5510  178.4510  138.6390 C   0  0  0  0  0  0  0  0  0  0  0  0
  185.6310  179.3590  137.7680 O   0  0  0  0  0  0  0  0  0  0  0  0
  184.5530  178.4860  139.6170 O   0  0  0  0  0  0  0  0  0  0  0  0
  182.8760  176.7470  139.7470 C   0  0  0  0  0  1  0  0  0  0  0  0
  183.1900  178.1780  139.3390 C   0  0  1  0  0  3  0  0  0  0  0  0
  182.2540  179.1500  140.0590 C   0  0  1  0  0  3  0  0  0  0  0  0
  181.3860  179.9630  139.1040 C   0  0  0  0  0  1  0  0  0  0  0  0
  181.8070  178.9080  142.5500 C   0  0  0  0  0  1  0  0  0  0  0  0
  181.4240  178.4660  141.1460 C   0  0  0  0  0  2  0  0  0  0  0  0
  188.1220  178.5780  140.1900 C   0  0  0  0  0  2  0  0  0  0  0  0
  188.1840  177.6210  141.3680 C   0  0  1  0  0  3  0  0  0  0  0  0
  189.3900  177.8760  142.1650 C   0  0  0  0  0  0  0  0  0  0  0  0
  190.3850  178.0710  142.8180 C   0  0  0  0  0  0  0  0  0  0  0  0
  191.5950  178.3010  143.6060 C   0  0  0  0  0  2  0  0  0  0  0  0
  191.4470  176.9330  145.8940 C   0  0  0  0  0  3  0  0  0  0  0  0
  191.5140  177.5510  144.8630 C   0  0  0  0  0  0  0  0  0  0  0  0
  187.0240  177.7980  142.1720 O   0  0  0  0  0  0  0  0  0  0  0  0
  187.4670  176.2280  143.8120 O   0  0  0  0  0  0  0  0  0  0  0  0
  186.9380  177.3240  143.4830 C   0  0  0  0  0  0  0  0  0  0  0  0
  186.2110  178.1220  144.5030 C   0  0  0  0  0  1  0  0  0  0  0  0
  1  5  1  0  0  0  0
  1  4  1  0  0  0  0
  2  6  1  0  0  0  0
  3  9  1  6  0  0  0
  3  8  1  0  0  0  0
  3 10  1  0  0  0  0
  4 18  1  6  0  0  0
  4  6  1  0  0  0  0
  6 27  1  1  0  0  0
  7  2  1  0  0  0  0
  8  5  1  0  0  0  0
 10  7  1  6  0  0  0
 11 14  1  1  0  0  0
 12 11  1  0  0  0  0
 12 13  1  1  0  0  0
 15 10  1  1  0  0  0
 15 12  1  0  0  0  0
 15 11  1  0  0  0  0
 16 17  1  0  0  0  0
 17 12  1  0  0  0  0
 18 20  1  0  0  0  0
 19 18  2  0  0  0  0
 22 20  1  0  0  0  0
 22 21  1  1  0  0  0
 22 23  1  0  0  0  0
 23 24  1  6  0  0  0
 23 26  1  0  0  0  0
 26 25  1  0  0  0  0
 28 27  1  6  0  0  0
 28 29  1  0  0  0  0
 28 34  1  0  0  0  0
 29 30  3  0  0  0  0
 30 31  1  0  0  0  0
 31 33  1  0  0  0  0
 33 32  3  0  0  0  0
 34 36  1  0  0  0  0
 36 35  2  0  0  0  0
 36 37  1  0  0  0  0
M  END
>  <MODEL>
4

>  <REMARK>
 VINA RESULT:      -5.2      2.794      6.557
  Name = 
  14 active torsions:
  status: ('A' for Active; 'I' for Inactive)
    1  A    between atoms: C_2  and  C_19
    2  A    between atoms: C_2  and  C_35
    3  A    between atoms: C_4  and  O_13
    4  A    between atoms: C_4  and  C_20
    5  A    between atoms: C_4  and  C_22
    6  A    between atoms: C_5  and  C_23
    7  A    between atoms: O_6  and  C_31
    8  A    between atoms: O_6  and  C_35
    9  A    between atoms: O_13  and  C_16
   10  A    between atoms: C_14  and  C_31
   11  A    between atoms: C_22  and  C_28
   12  A    between atoms: C_25  and  C_32
   13  A    between atoms: C_26  and  C_36
   14  A    between atoms: C_30  and  C_32
                            x       y       z     vdW  Elec       q    Type
                         _______ _______ _______ _____ _____    ______ ____

>  <TORSDO>
F 14

$$$$
=
 OpenBabel10272415063D

 37 38  0  0  1  0  0  0  0  0999 V2000
  185.0790  179.1470  143.5950 C   0  0  0  0  0  2  0  0  0  0  0  0
  187.0140  177.2520  142.2110 C   0  0  0  0  0  2  0  0  0  0  0  0
  186.6430  177.1600  145.1880 C   0  0  2  0  0  3  0  0  0  0  0  0
  185.7230  179.4600  142.2440 C   0  0  1  0  0  3  0  0  0  0  0  0
  185.9780  179.5610  144.7510 C   0  0  0  0  0  2  0  0  0  0  0  0
  187.0900  178.7720  142.0550 C   0  0  2  0  0  3  0  0  0  0  0  0
  188.0880  176.7220  143.1620 C   0  0  0  0  0  2  0  0  0  0  0  0
  186.0740  178.4430  145.7870 C   0  0  0  0  0  2  0  0  0  0  0  0
  186.5790  176.0120  146.1850 C   0  0  0  0  0  1  0  0  0  0  0  0
  188.0250  177.3790  144.5410 C   0  0  2  0  0  3  0  0  0  0  0  0
  190.4990  177.7650  145.2720 C   0  0  2  0  0  3  0  0  0  0  0  0
  189.6040  177.9090  146.4940 C   0  0  1  0  0  0  0  0  0  0  0  0
  188.8370  179.0770  146.5870 O   0  0  0  0  0  1  0  0  0  0  0  0
  190.3920  178.9670  144.3330 C   0  0  0  0  0  1  0  0  0  0  0  0
  189.2100  176.9200  145.4090 C   0  0  1  0  0  3  0  0  0  0  0  0
  191.6030  176.3050  147.4670 S   0  0  0  0  0  1  0  0  0  0  0  0
  190.1080  177.2890  147.7840 C   0  0  0  0  0  2  0  0  0  0  0  0
  184.7550  179.1490  141.1440 C   0  0  0  0  0  0  0  0  0  0  0  0
  184.9150  179.6800  140.0120 O   0  0  0  0  0  0  0  0  0  0  0  0
  183.6770  178.2940  141.3860 O   0  0  0  0  0  0  0  0  0  0  0  0
  182.3090  176.9080  139.9510 C   0  0  0  0  0  1  0  0  0  0  0  0
  182.5060  178.2810  140.5750 C   0  0  1  0  0  3  0  0  0  0  0  0
  181.2720  178.6710  141.3910 C   0  0  1  0  0  3  0  0  0  0  0  0
  180.0700  177.7730  141.1220 C   0  0  0  0  0  1  0  0  0  0  0  0
  180.3540  178.5370  143.7580 C   0  0  0  0  0  1  0  0  0  0  0  0
  181.5740  178.7940  142.8850 C   0  0  0  0  0  2  0  0  0  0  0  0
  187.7300  179.1590  140.7250 C   0  0  0  0  0  2  0  0  0  0  0  0
  188.2280  177.9350  139.9750 C   0  0  1  0  0  3  0  0  0  0  0  0
  187.5490  177.8250  138.6780 C   0  0  0  0  0  0  0  0  0  0  0  0
  186.9910  177.7490  137.6120 C   0  0  0  0  0  0  0  0  0  0  0  0
  186.3160  177.6650  136.3170 C   0  0  0  0  0  2  0  0  0  0  0  0
  183.8690  176.6480  136.6460 C   0  0  0  0  0  3  0  0  0  0  0  0
  184.9730  177.1080  136.4980 C   0  0  0  0  0  0  0  0  0  0  0  0
  189.6320  178.0500  139.7790 O   0  0  0  0  0  0  0  0  0  0  0  0
  190.6570  175.9890  139.5480 O   0  0  0  0  0  0  0  0  0  0  0  0
  190.5330  177.0650  140.1920 C   0  0  0  0  0  0  0  0  0  0  0  0
  191.3540  177.2900  141.4100 C   0  0  0  0  0  1  0  0  0  0  0  0
  1  5  1  0  0  0  0
  2  7  1  0  0  0  0
  3  8  1  0  0  0  0
  3  9  1  1  0  0  0
  4 18  1  6  0  0  0
  4  1  1  0  0  0  0
  5  8  1  0  0  0  0
  6 27  1  6  0  0  0
  6  2  1  0  0  0  0
  6  4  1  0  0  0  0
 10  7  1  6  0  0  0
 10  3  1  0  0  0  0
 11 14  1  6  0  0  0
 11 15  1  0  0  0  0
 11 12  1  0  0  0  0
 12 13  1  1  0  0  0
 12 17  1  0  0  0  0
 15 10  1  6  0  0  0
 15 12  1  0  0  0  0
 16 17  1  0  0  0  0
 18 20  1  0  0  0  0
 19 18  2  0  0  0  0
 22 21  1  1  0  0  0
 22 20  1  0  0  0  0
 22 23  1  0  0  0  0
 23 24  1  1  0  0  0
 23 26  1  0  0  0  0
 26 25  1  0  0  0  0
 28 29  1  6  0  0  0
 28 27  1  0  0  0  0
 30 29  3  0  0  0  0
 31 33  1  0  0  0  0
 31 30  1  0  0  0  0
 33 32  3  0  0  0  0
 34 28  1  0  0  0  0
 34 36  1  0  0  0  0
 35 36  2  0  0  0  0
 36 37  1  0  0  0  0
M  END
>  <MODEL>
5

>  <REMARK>
 VINA RESULT:      -4.9      3.055      7.511
  Name = 
  14 active torsions:
  status: ('A' for Active; 'I' for Inactive)
    1  A    between atoms: C_2  and  C_19
    2  A    between atoms: C_2  and  C_35
    3  A    between atoms: C_4  and  O_13
    4  A    between atoms: C_4  and  C_20
    5  A    between atoms: C_4  and  C_22
    6  A    between atoms: C_5  and  C_23
    7  A    between atoms: O_6  and  C_31
    8  A    between atoms: O_6  and  C_35
    9  A    between atoms: O_13  and  C_16
   10  A    between atoms: C_14  and  C_31
   11  A    between atoms: C_22  and  C_28
   12  A    between atoms: C_25  and  C_32
   13  A    between atoms: C_26  and  C_36
   14  A    between atoms: C_30  and  C_32
                            x       y       z     vdW  Elec       q    Type
                         _______ _______ _______ _____ _____    ______ ____

>  <TORSDO>
F 14

$$$$
=
 OpenBabel10272415063D

 37 38  0  0  1  0  0  0  0  0999 V2000
  190.4530  177.4360  139.9540 C   0  0  0  0  0  2  0  0  0  0  0  0
  188.3060  179.3200  141.0020 C   0  0  0  0  0  2  0  0  0  0  0  0
  190.6180  178.5140  142.7370 C   0  0  2  0  0  3  0  0  0  0  0  0
  189.0310  177.4690  139.3920 C   0  0  1  0  0  3  0  0  0  0  0  0
  190.5500  176.5280  141.1720 C   0  0  0  0  0  2  0  0  0  0  0  0
  187.9860  177.9400  140.4240 C   0  0  2  0  0  3  0  0  0  0  0  0
  188.2350  179.3270  142.5290 C   0  0  0  0  0  2  0  0  0  0  0  0
  191.3050  177.2220  142.3040 C   0  0  0  0  0  2  0  0  0  0  0  0
  191.4650  179.2750  143.7470 C   0  0  0  0  0  1  0  0  0  0  0  0
  189.1550  178.2840  143.1640 C   0  0  2  0  0  3  0  0  0  0  0  0
  187.8150  177.2850  145.1670 C   0  0  2  0  0  3  0  0  0  0  0  0
  189.2770  176.8920  145.3170 C   0  0  1  0  0  0  0  0  0  0  0  0
  189.7600  175.8980  144.4560 O   0  0  0  0  0  1  0  0  0  0  0  0
  187.1150  176.4950  144.0610 C   0  0  0  0  0  1  0  0  0  0  0  0
  188.9390  178.2340  144.6870 C   0  0  1  0  0  3  0  0  0  0  0  0
  188.6450  177.6640  147.8700 S   0  0  0  0  0  1  0  0  0  0  0  0
  189.8600  176.9620  146.7160 C   0  0  0  0  0  2  0  0  0  0  0  0
  189.0120  178.2740  138.1290 C   0  0  0  0  0  0  0  0  0  0  0  0
  189.0660  179.5320  138.1970 O   0  0  0  0  0  0  0  0  0  0  0  0
  188.9150  177.6300  136.8930 O   0  0  0  0  0  0  0  0  0  0  0  0
  187.1180  176.3590  135.8900 C   0  0  0  0  0  1  0  0  0  0  0  0
  188.3740  176.3200  136.7470 C   0  0  1  0  0  3  0  0  0  0  0  0
  189.4040  175.3710  136.1300 C   0  0  1  0  0  3  0  0  0  0  0  0
  190.6280  176.0950  135.5790 C   0  0  0  0  0  1  0  0  0  0  0  0
  191.1440  173.6220  136.7460 C   0  0  0  0  0  1  0  0  0  0  0  0
  189.7890  174.2320  137.0750 C   0  0  0  0  0  2  0  0  0  0  0  0
  186.5740  177.8970  139.8460 C   0  0  0  0  0  2  0  0  0  0  0  0
  185.6360  178.8130  140.6130 C   0  0  1  0  0  3  0  0  0  0  0  0
  184.4330  179.0890  139.8170 C   0  0  0  0  0  0  0  0  0  0  0  0
  183.4380  179.3180  139.1760 C   0  0  0  0  0  0  0  0  0  0  0  0
  182.2270  179.5980  138.4050 C   0  0  0  0  0  2  0  0  0  0  0  0
  181.7820  182.2300  138.3640 C   0  0  0  0  0  3  0  0  0  0  0  0
  181.9830  181.0430  138.3810 C   0  0  0  0  0  0  0  0  0  0  0  0
  185.2730  178.1860  141.8370 O   0  0  0  0  0  0  0  0  0  0  0  0
  183.1430  178.5290  142.6720 O   0  0  0  0  0  0  0  0  0  0  0  0
  184.3790  178.7640  142.7420 C   0  0  0  0  0  0  0  0  0  0  0  0
  184.8950  179.6680  143.8020 C   0  0  0  0  0  1  0  0  0  0  0  0
  1  5  1  0  0  0  0
  2  7  1  0  0  0  0
  3 10  1  0  0  0  0
  3  9  1  1  0  0  0
  4 18  1  6  0  0  0
  4  1  1  0  0  0  0
  4  6  1  0  0  0  0
  5  8  1  0  0  0  0
  6 27  1  6  0  0  0
  6  2  1  0  0  0  0
  8  3  1  0  0  0  0
 10  7  1  1  0  0  0
 11 14  1  6  0  0  0
 11 12  1  0  0  0  0
 12 13  1  6  0  0  0
 12 17  1  0  0  0  0
 15 10  1  6  0  0  0
 15 11  1  0  0  0  0
 15 12  1  0  0  0  0
 17 16  1  0  0  0  0
 18 19  2  0  0  0  0
 20 18  1  0  0  0  0
 22 21  1  6  0  0  0
 22 20  1  0  0  0  0
 23 24  1  1  0  0  0
 23 22  1  0  0  0  0
 23 26  1  0  0  0  0
 25 26  1  0  0  0  0
 27 28  1  0  0  0  0
 28 29  1  6  0  0  0
 28 34  1  0  0  0  0
 30 29  3  0  0  0  0
 31 30  1  0  0  0  0
 32 33  3  0  0  0  0
 33 31  1  0  0  0  0
 34 36  1  0  0  0  0
 35 36  2  0  0  0  0
 36 37  1  0  0  0  0
M  END
>  <MODEL>
6

>  <REMARK>
 VINA RESULT:      -4.8      3.127      8.807
  Name = 
  14 active torsions:
  status: ('A' for Active; 'I' for Inactive)
    1  A    between atoms: C_2  and  C_19
    2  A    between atoms: C_2  and  C_35
    3  A    between atoms: C_4  and  O_13
    4  A    between atoms: C_4  and  C_20
    5  A    between atoms: C_4  and  C_22
    6  A    between atoms: C_5  and  C_23
    7  A    between atoms: O_6  and  C_31
    8  A    between atoms: O_6  and  C_35
    9  A    between atoms: O_13  and  C_16
   10  A    between atoms: C_14  and  C_31
   11  A    between atoms: C_22  and  C_28
   12  A    between atoms: C_25  and  C_32
   13  A    between atoms: C_26  and  C_36
   14  A    between atoms: C_30  and  C_32
                            x       y       z     vdW  Elec       q    Type
                         _______ _______ _______ _____ _____    ______ ____

>  <TORSDO>
F 14

$$$$
=
 OpenBabel10272415063D

 37 38  0  0  1  0  0  0  0  0999 V2000
  184.9650  179.1350  145.5120 C   0  0  0  0  0  2  0  0  0  0  0  0
  186.1650  177.1420  143.5520 C   0  0  0  0  0  2  0  0  0  0  0  0
  186.9710  177.1250  146.4430 C   0  0  2  0  0  3  0  0  0  0  0  0
  185.0450  179.3970  144.0070 C   0  0  1  0  0  3  0  0  0  0  0  0
  186.2520  179.5400  146.2170 C   0  0  0  0  0  2  0  0  0  0  0  0
  186.2150  178.6550  143.3280 C   0  0  2  0  0  3  0  0  0  0  0  0
  187.5090  176.5940  144.0320 C   0  0  0  0  0  2  0  0  0  0  0  0
  186.7120  178.4410  147.1720 C   0  0  0  0  0  2  0  0  0  0  0  0
  187.2680  176.0010  147.4240 C   0  0  0  0  0  1  0  0  0  0  0  0
  188.0010  177.2800  145.3060 C   0  0  2  0  0  3  0  0  0  0  0  0
  190.5720  177.7070  145.1820 C   0  0  2  0  0  3  0  0  0  0  0  0
  190.1520  177.6970  146.6450 C   0  0  1  0  0  0  0  0  0  0  0  0
  189.4520  178.8160  147.1130 O   0  0  0  0  0  1  0  0  0  0  0  0
  190.1360  178.9840  144.4650 C   0  0  0  0  0  1  0  0  0  0  0  0
  189.4180  176.7950  145.6640 C   0  0  1  0  0  3  0  0  0  0  0  0
  191.9910  175.6670  146.7570 S   0  0  0  0  0  1  0  0  0  0  0  0
  191.0760  176.9820  147.6130 C   0  0  0  0  0  2  0  0  0  0  0  0
  183.7190  179.0990  143.3770 C   0  0  0  0  0  0  0  0  0  0  0  0
  182.7450  178.7770  144.1090 O   0  0  0  0  0  0  0  0  0  0  0  0
  183.5780  179.1630  141.9880 O   0  0  0  0  0  0  0  0  0  0  0  0
  181.3710  179.1600  140.9990 C   0  0  0  0  0  1  0  0  0  0  0  0
  182.6390  178.3660  141.2720 C   0  0  1  0  0  3  0  0  0  0  0  0
  183.2410  177.8640  139.9570 C   0  0  1  0  0  3  0  0  0  0  0  0
  182.7050  176.4990  139.5390 C   0  0  0  0  0  1  0  0  0  0  0  0
  182.2470  178.4240  137.6850 C   0  0  0  0  0  1  0  0  0  0  0  0
  183.1300  178.8930  138.8320 C   0  0  0  0  0  2  0  0  0  0  0  0
  186.3010  178.9920  141.8420 C   0  0  0  0  0  2  0  0  0  0  0  0
  187.2330  178.0390  141.1140 C   0  0  1  0  0  3  0  0  0  0  0  0
  186.9330  178.0360  139.6760 C   0  0  0  0  0  0  0  0  0  0  0  0
  186.6800  178.0470  138.4980 C   0  0  0  0  0  0  0  0  0  0  0  0
  186.3710  178.0680  137.0680 C   0  0  0  0  0  2  0  0  0  0  0  0
  184.8560  175.9590  136.4480 C   0  0  0  0  0  3  0  0  0  0  0  0
  185.5400  176.9110  136.7270 C   0  0  0  0  0  0  0  0  0  0  0  0
  188.5780  178.4510  141.3270 O   0  0  0  0  0  0  0  0  0  0  0  0
  190.2710  178.0130  139.8140 O   0  0  0  0  0  0  0  0  0  0  0  0
  189.6730  177.7070  140.8800 C   0  0  0  0  0  0  0  0  0  0  0  0
  190.1350  176.5380  141.6720 C   0  0  0  0  0  1  0  0  0  0  0  0
  1  5  1  0  0  0  0
  2  7  1  0  0  0  0
  3  8  1  0  0  0  0
  3  9  1  1  0  0  0
  4 18  1  6  0  0  0
  4  1  1  0  0  0  0
  5  8  1  0  0  0  0
  6 27  1  6  0  0  0
  6  2  1  0  0  0  0
  6  4  1  0  0  0  0
 10  7  1  6  0  0  0
 10  3  1  0  0  0  0
 11 14  1  6  0  0  0
 11 15  1  0  0  0  0
 11 12  1  0  0  0  0
 12 13  1  1  0  0  0
 12 17  1  0  0  0  0
 15 10  1  6  0  0  0
 15 12  1  0  0  0  0
 16 17  1  0  0  0  0
 18 19  2  0  0  0  0
 20 18  1  0  0  0  0
 22 21  1  6  0  0  0
 22 20  1  0  0  0  0
 23 24  1  6  0  0  0
 23 22  1  0  0  0  0
 25 26  1  0  0  0  0
 26 23  1  0  0  0  0
 28 29  1  6  0  0  0
 28 34  1  0  0  0  0
 28 27  1  0  0  0  0
 30 29  3  0  0  0  0
 31 30  1  0  0  0  0
 32 33  3  0  0  0  0
 33 31  1  0  0  0  0
 35 36  2  0  0  0  0
 36 34  1  0  0  0  0
 36 37  1  0  0  0  0
M  END
>  <MODEL>
7

>  <REMARK>
 VINA RESULT:      -4.8      2.952      7.725
  Name = 
  14 active torsions:
  status: ('A' for Active; 'I' for Inactive)
    1  A    between atoms: C_2  and  C_19
    2  A    between atoms: C_2  and  C_35
    3  A    between atoms: C_4  and  O_13
    4  A    between atoms: C_4  and  C_20
    5  A    between atoms: C_4  and  C_22
    6  A    between atoms: C_5  and  C_23
    7  A    between atoms: O_6  and  C_31
    8  A    between atoms: O_6  and  C_35
    9  A    between atoms: O_13  and  C_16
   10  A    between atoms: C_14  and  C_31
   11  A    between atoms: C_22  and  C_28
   12  A    between atoms: C_25  and  C_32
   13  A    between atoms: C_26  and  C_36
   14  A    between atoms: C_30  and  C_32
                            x       y       z     vdW  Elec       q    Type
                         _______ _______ _______ _____ _____    ______ ____

>  <TORSDO>
F 14

$$$$
=
 OpenBabel10272415063D

 37 38  0  0  1  0  0  0  0  0999 V2000
  184.8110  179.1630  144.5850 C   0  0  0  0  0  2  0  0  0  0  0  0
  186.4410  177.2160  142.9090 C   0  0  0  0  0  2  0  0  0  0  0  0
  186.5760  177.1440  145.9060 C   0  0  2  0  0  3  0  0  0  0  0  0
  185.2250  179.4550  143.1430 C   0  0  1  0  0  3  0  0  0  0  0  0
  185.9020  179.5590  145.5700 C   0  0  0  0  0  2  0  0  0  0  0  0
  186.5250  178.7340  142.7310 C   0  0  2  0  0  3  0  0  0  0  0  0
  187.6470  176.6650  143.6690 C   0  0  0  0  0  2  0  0  0  0  0  0
  186.1460  178.4430  146.5830 C   0  0  0  0  0  2  0  0  0  0  0  0
  186.6550  176.0020  146.9080 C   0  0  0  0  0  1  0  0  0  0  0  0
  187.8330  177.3270  145.0340 C   0  0  2  0  0  3  0  0  0  0  0  0
  190.4130  177.6210  145.2890 C   0  0  2  0  0  3  0  0  0  0  0  0
  189.7620  177.8500  146.6450 C   0  0  1  0  0  0  0  0  0  0  0  0
  189.0730  179.0560  146.8240 O   0  0  0  0  0  1  0  0  0  0  0  0
  190.1860  178.7920  144.3340 C   0  0  0  0  0  1  0  0  0  0  0  0
  189.1370  176.8430  145.6920 C   0  0  1  0  0  3  0  0  0  0  0  0
  191.8190  176.1650  147.3090 S   0  0  0  0  0  1  0  0  0  0  0  0
  190.4670  177.2520  147.8480 C   0  0  0  0  0  2  0  0  0  0  0  0
  184.0780  179.1640  142.2250 C   0  0  0  0  0  0  0  0  0  0  0  0
  182.9950  178.7350  142.7060 O   0  0  0  0  0  0  0  0  0  0  0  0
  184.2230  179.3510  140.8480 O   0  0  0  0  0  0  0  0  0  0  0  0
  183.0440  180.0250  138.8460 C   0  0  0  0  0  1  0  0  0  0  0  0
  183.2310  178.9510  139.9070 C   0  0  1  0  0  3  0  0  0  0  0  0
  183.6070  177.6210  139.2500 C   0  0  1  0  0  3  0  0  0  0  0  0
  182.6780  176.4770  139.6420 C   0  0  0  0  0  1  0  0  0  0  0  0
  183.1850  176.5470  136.9840 C   0  0  0  0  0  1  0  0  0  0  0  0
  183.7610  177.7400  137.7340 C   0  0  0  0  0  2  0  0  0  0  0  0
  186.9390  179.1010  141.3090 C   0  0  0  0  0  2  0  0  0  0  0  0
  187.7700  177.9980  140.6740 C   0  0  1  0  0  3  0  0  0  0  0  0
  187.5980  178.0100  139.2160 C   0  0  0  0  0  0  0  0  0  0  0  0
  187.4620  178.0340  138.0180 C   0  0  0  0  0  0  0  0  0  0  0  0
  187.3010  178.0710  136.5650 C   0  0  0  0  0  2  0  0  0  0  0  0
  186.6470  175.6400  135.6760 C   0  0  0  0  0  3  0  0  0  0  0  0
  186.9410  176.7370  136.0760 C   0  0  0  0  0  0  0  0  0  0  0  0
  189.1390  178.2000  141.0030 O   0  0  0  0  0  0  0  0  0  0  0  0
  190.1120  176.2060  141.6600 O   0  0  0  0  0  0  0  0  0  0  0  0
  190.0990  177.1930  140.8760 C   0  0  0  0  0  0  0  0  0  0  0  0
  191.1210  177.2890  139.8020 C   0  0  0  0  0  1  0  0  0  0  0  0
  1  5  1  0  0  0  0
  2  7  1  0  0  0  0
  3  8  1  0  0  0  0
  3  9  1  1  0  0  0
  4 18  1  6  0  0  0
  4  1  1  0  0  0  0
  5  8  1  0  0  0  0
  6 27  1  6  0  0  0
  6  2  1  0  0  0  0
  6  4  1  0  0  0  0
 10  7  1  6  0  0  0
 10  3  1  0  0  0  0
 11 14  1  6  0  0  0
 11 15  1  0  0  0  0
 11 12  1  0  0  0  0
 12 13  1  1  0  0  0
 12 17  1  0  0  0  0
 15 10  1  6  0  0  0
 15 12  1  0  0  0  0
 16 17  1  0  0  0  0
 18 19  2  0  0  0  0
 20 18  1  0  0  0  0
 22 21  1  6  0  0  0
 22 20  1  0  0  0  0
 23 24  1  6  0  0  0
 23 22  1  0  0  0  0
 25 26  1  0  0  0  0
 26 23  1  0  0  0  0
 28 29  1  6  0  0  0
 28 34  1  0  0  0  0
 28 27  1  0  0  0  0
 30 29  3  0  0  0  0
 31 30  1  0  0  0  0
 32 33  3  0  0  0  0
 33 31  1  0  0  0  0
 36 34  1  0  0  0  0
 36 35  2  0  0  0  0
 37 36  1  0  0  0  0
M  END
>  <MODEL>
8

>  <REMARK>
 VINA RESULT:      -4.6      3.006      7.717
  Name = 
  14 active torsions:
  status: ('A' for Active; 'I' for Inactive)
    1  A    between atoms: C_2  and  C_19
    2  A    between atoms: C_2  and  C_35
    3  A    between atoms: C_4  and  O_13
    4  A    between atoms: C_4  and  C_20
    5  A    between atoms: C_4  and  C_22
    6  A    between atoms: C_5  and  C_23
    7  A    between atoms: O_6  and  C_31
    8  A    between atoms: O_6  and  C_35
    9  A    between atoms: O_13  and  C_16
   10  A    between atoms: C_14  and  C_31
   11  A    between atoms: C_22  and  C_28
   12  A    between atoms: C_25  and  C_32
   13  A    between atoms: C_26  and  C_36
   14  A    between atoms: C_30  and  C_32
                            x       y       z     vdW  Elec       q    Type
                         _______ _______ _______ _____ _____    ______ ____

>  <TORSDO>
F 14

$$$$
=
 OpenBabel10272415063D

 37 38  0  0  1  0  0  0  0  0999 V2000
  190.3820  177.1540  141.0410 C   0  0  0  0  0  2  0  0  0  0  0  0
  187.4110  176.9850  140.4090 C   0  0  0  0  0  2  0  0  0  0  0  0
  189.4520  175.9210  138.4820 C   0  0  2  0  0  3  0  0  0  0  0  0
  189.3490  178.1030  141.6490 C   0  0  1  0  0  3  0  0  0  0  0  0
  190.8600  177.6460  139.6830 C   0  0  0  0  0  2  0  0  0  0  0  0
  188.1110  178.3020  140.7510 C   0  0  2  0  0  3  0  0  0  0  0  0
  187.1440  176.8550  138.9080 C   0  0  0  0  0  2  0  0  0  0  0  0
  190.8490  176.5100  138.6620 C   0  0  0  0  0  2  0  0  0  0  0  0
  189.4860  174.6890  137.5900 C   0  0  0  0  0  1  0  0  0  0  0  0
  188.4170  176.9870  138.0720 C   0  0  2  0  0  3  0  0  0  0  0  0
  187.3540  178.2670  136.0620 C   0  0  2  0  0  3  0  0  0  0  0  0
  188.8310  178.0420  135.7690 C   0  0  1  0  0  0  0  0  0  0  0  0
  189.7460  178.8330  136.4740 O   0  0  0  0  0  1  0  0  0  0  0  0
  187.1330  179.3540  137.1130 C   0  0  0  0  0  1  0  0  0  0  0  0
  188.0740  176.9950  136.5720 C   0  0  1  0  0  3  0  0  0  0  0  0
  190.4720  176.3510  134.3690 S   0  0  0  0  0  1  0  0  0  0  0  0
  189.1890  177.6370  134.3510 C   0  0  0  0  0  2  0  0  0  0  0  0
  189.0010  177.6440  143.0320 C   0  0  0  0  0  0  0  0  0  0  0  0
  188.1330  176.7430  143.1830 O   0  0  0  0  0  0  0  0  0  0  0  0
  189.6240  178.2290  144.1370 O   0  0  0  0  0  0  0  0  0  0  0  0
  191.8670  179.0340  144.5510 C   0  0  0  0  0  1  0  0  0  0  0  0
  190.9200  177.8430  144.5850 C   0  0  1  0  0  3  0  0  0  0  0  0
  190.8580  177.2590  145.9980 C   0  0  1  0  0  3  0  0  0  0  0  0
  189.4330  177.1090  146.5190 C   0  0  0  0  0  1  0  0  0  0  0  0
  192.3360  175.8190  147.4830 C   0  0  0  0  0  1  0  0  0  0  0  0
  191.6560  175.9620  146.1290 C   0  0  0  0  0  2  0  0  0  0  0  0
  187.1340  179.3040  141.3610 C   0  0  0  0  0  2  0  0  0  0  0  0
  185.7150  178.7620  141.3590 C   0  0  1  0  0  3  0  0  0  0  0  0
  185.1600  178.7930  142.7190 C   0  0  0  0  0  0  0  0  0  0  0  0
  184.6960  178.8060  143.8310 C   0  0  0  0  0  0  0  0  0  0  0  0
  184.1300  178.8140  145.1800 C   0  0  0  0  0  2  0  0  0  0  0  0
  186.0990  178.6700  146.9770 C   0  0  0  0  0  3  0  0  0  0  0  0
  185.2100  178.7340  146.1670 C   0  0  0  0  0  0  0  0  0  0  0  0
  184.9160  179.5540  140.4900 O   0  0  0  0  0  0  0  0  0  0  0  0
  183.5860  179.6290  138.5990 O   0  0  0  0  0  0  0  0  0  0  0  0
  183.9740  179.0000  139.6200 C   0  0  0  0  0  0  0  0  0  0  0  0
  183.4210  177.6510  139.9040 C   0  0  0  0  0  1  0  0  0  0  0  0
  1  4  1  0  0  0  0
  2  6  1  0  0  0  0
  3  9  1  6  0  0  0
  3  8  1  0  0  0  0
  4 18  1  1  0  0  0
  5  1  1  0  0  0  0
  6 27  1  1  0  0  0
  6  4  1  0  0  0  0
  7  2  1  0  0  0  0
  8  5  1  0  0  0  0
 10  3  1  0  0  0  0
 10  7  1  1  0  0  0
 11 15  1  0  0  0  0
 11 14  1  1  0  0  0
 12 11  1  0  0  0  0
 12 13  1  1  0  0  0
 12 15  1  0  0  0  0
 15 10  1  1  0  0  0
 17 16  1  0  0  0  0
 17 12  1  0  0  0  0
 18 19  2  0  0  0  0
 18 20  1  0  0  0  0
 20 22  1  0  0  0  0
 22 21  1  1  0  0  0
 22 23  1  0  0  0  0
 23 26  1  0  0  0  0
 23 24  1  6  0  0  0
 26 25  1  0  0  0  0
 28 27  1  1  0  0  0
 28 29  1  0  0  0  0
 29 30  3  0  0  0  0
 30 31  1  0  0  0  0
 31 33  1  0  0  0  0
 33 32  3  0  0  0  0
 34 28  1  0  0  0  0
 35 36  2  0  0  0  0
 36 37  1  0  0  0  0
 36 34  1  0  0  0  0
M  END
>  <MODEL>
9

>  <REMARK>
 VINA RESULT:      -4.6      2.400      5.613
  Name = 
  14 active torsions:
  status: ('A' for Active; 'I' for Inactive)
    1  A    between atoms: C_2  and  C_19
    2  A    between atoms: C_2  and  C_35
    3  A    between atoms: C_4  and  O_13
    4  A    between atoms: C_4  and  C_20
    5  A    between atoms: C_4  and  C_22
    6  A    between atoms: C_5  and  C_23
    7  A    between atoms: O_6  and  C_31
    8  A    between atoms: O_6  and  C_35
    9  A    between atoms: O_13  and  C_16
   10  A    between atoms: C_14  and  C_31
   11  A    between atoms: C_22  and  C_28
   12  A    between atoms: C_25  and  C_32
   13  A    between atoms: C_26  and  C_36
   14  A    between atoms: C_30  and  C_32
                            x       y       z     vdW  Elec       q    Type
                         _______ _______ _______ _____ _____    ______ ____

>  <TORSDO>
F 14

$$$$
