=
 OpenBabel10272401373D

 55 63  0  0  1  0  0  0  0  0999 V2000
  186.3280  177.3780  137.6260 C   0  0  0  0  0  2  0  0  0  0  0  0
  185.4660  178.4820  140.1990 N   0  0  0  0  0  0  0  0  0  0  0  0
  184.4680  178.6120  139.1220 C   0  0  0  0  0  2  0  0  0  0  0  0
  187.3860  178.0870  138.4420 C   0  0  0  0  0  2  0  0  0  0  0  0
  184.8350  177.7380  137.8130 C   0  0  2  0  0  3  0  0  0  0  0  0
  186.9080  178.2220  139.9290 C   0  0  0  0  0  2  0  0  0  0  0  0
  184.1830  176.4880  137.6640 O   0  0  0  0  0  0  0  0  0  0  0  0
  184.2480  176.0220  136.3270 C   0  0  2  0  0  3  0  0  0  0  0  0
  181.3760  174.3980  134.7290 O   0  0  0  0  0  0  0  0  0  0  0  0
  182.4030  171.8750  134.7350 C   0  0  0  0  0  2  0  0  0  0  0  0
  181.9450  170.3840  134.8730 C   0  0  0  0  0  2  0  0  0  0  0  0
  184.3170  171.5890  136.3710 C   0  0  2  0  0  3  0  0  0  0  0  0
  184.3360  170.1540  135.6810 C   0  0  0  0  0  2  0  0  0  0  0  0
  182.8310  176.1310  135.5500 C   0  0  1  0  0  3  0  0  0  0  0  0
  182.9520  169.4750  135.5340 C   0  0  0  0  0  2  0  0  0  0  0  0
  183.1450  172.3980  135.9420 C   0  0  1  0  0  3  0  0  0  0  0  0
  185.6020  173.5040  136.8110 C   0  0  2  0  0  3  0  0  0  0  0  0
  185.5470  172.2120  136.1640 O   0  0  0  0  0  0  0  0  0  0  0  0
  182.4640  174.7230  135.3750 C   0  0  0  0  0  0  0  0  0  0  0  0
  183.4340  173.8350  135.7070 N   0  0  0  0  0  0  0  0  0  0  0  0
  184.6030  174.4560  136.2590 C   0  0  1  0  0  3  0  0  0  0  0  0
  188.1730  172.9730  136.8680 C   0  0  0  0  0  3  0  0  0  0  0  0
  189.8170  174.2120  135.3980 C   0  0  2  0  0  3  0  0  0  0  0  0
  187.3570  174.7580  135.2610 C   0  0  0  0  0  2  0  0  0  0  0  0
  188.7480  175.3360  135.4180 C   0  0  0  0  0  2  0  0  0  0  0  0
  189.4080  173.0800  136.3290 C   0  0  0  0  0  3  0  0  0  0  0  0
  187.0400  174.0060  136.5970 C   0  0  1  0  0  3  0  0  0  0  0  0
  191.0430  174.7370  135.7950 O   0  0  0  0  0  0  0  0  0  0  0  0
  190.7550  176.0420  136.2310 C   0  0  0  0  0  2  0  0  0  0  0  0
  191.5550  176.4590  137.4360 C   0  0  0  0  0  1  0  0  0  0  0  0
  181.7400  178.1390  135.7710 C   0  0  0  0  0  2  0  0  0  0  0  0
  180.8750  177.2570  135.1700 O   0  0  0  0  0  0  0  0  0  0  0  0
  181.6750  176.7430  136.2050 C   0  0  1  0  0  3  0  0  0  0  0  0
  185.3970  179.6580  141.0940 C   0  0  0  0  0  2  0  0  0  0  0  0
  185.1610  178.2630  143.1320 C   0  0  1  0  0  3  0  0  0  0  0  0
  183.7010  178.5410  142.7290 C   0  0  2  0  0  3  0  0  0  0  0  0
  184.7550  179.6080  142.5230 C   0  0  2  0  0  3  0  0  0  0  0  0
  181.3080  178.8460  143.6860 C   0  0  0  0  0  1  0  0  0  0  0  0
  182.8080  178.6730  143.9780 C   0  0  0  0  0  2  0  0  0  0  0  0
  185.5200  178.3340  144.6700 C   0  0  2  0  0  3  0  0  0  0  0  0
  185.5380  179.6370  145.2280 O   0  0  0  0  0  1  0  0  0  0  0  0
  190.6690  177.7580  142.9510 O   0  0  0  0  0  1  0  0  0  0  0  0
  188.4650  176.3150  148.0140 O   0  0  0  0  0  1  0  0  0  0  0  0
  186.8200  177.5300  144.9210 C   0  0  1  0  0  0  0  0  0  0  0  0
  186.9620  178.5010  147.1620 O   0  0  0  0  0  1  0  0  0  0  0  0
  187.4990  177.5800  146.2370 C   0  0  2  0  0  0  0  0  0  0  0  0
  188.9390  176.4950  143.9800 N   0  0  0  0  0  2  0  0  0  0  0  0
  189.9750  177.7520  146.6720 C   0  0  2  0  0  3  0  0  0  0  0  0
  189.8220  177.6640  144.0690 C   0  0  1  0  0  3  0  0  0  0  0  0
  188.7320  176.8260  146.7620 C   0  0  1  0  0  3  0  0  0  0  0  0
  186.5500  176.6240  145.9420 O   0  0  0  0  0  0  0  0  0  0  0  0
  190.6730  177.5170  145.3130 C   0  0  0  0  0  2  0  0  0  0  0  0
  187.5420  176.8800  143.7260 C   0  0  0  0  0  2  0  0  0  0  0  0
  190.9370  177.5080  147.8570 C   0  0  0  0  0  2  0  0  0  0  0  0
  191.9770  176.6570  147.4640 O   0  0  0  0  0  1  0  0  0  0  0  0
  1  5  1  0  0  0  0
  1  4  1  0  0  0  0
  2 34  1  0  0  0  0
  3  2  1  0  0  0  0
  4  6  1  0  0  0  0
  5  7  1  1  0  0  0
  5  3  1  0  0  0  0
  6  2  1  0  0  0  0
  8  7  1  1  0  0  0
  9 19  2  0  0  0  0
 10 11  1  0  0  0  0
 11 15  1  0  0  0  0
 12 13  1  6  0  0  0
 14 19  1  1  0  0  0
 14 33  1  0  0  0  0
 14  8  1  0  0  0  0
 15 13  1  0  0  0  0
 16 10  1  6  0  0  0
 16 12  1  0  0  0  0
 17 18  1  6  0  0  0
 18 12  1  0  0  0  0
 19 20  1  0  0  0  0
 20 16  1  0  0  0  0
 21 20  1  1  0  0  0
 21  8  1  0  0  0  0
 21 17  1  0  0  0  0
 23 25  1  0  0  0  0
 23 28  1  1  0  0  0
 23 26  1  0  0  0  0
 24 25  1  0  0  0  0
 26 22  2  0  0  0  0
 27 24  1  6  0  0  0
 27 17  1  0  0  0  0
 27 22  1  0  0  0  0
 28 29  1  0  0  0  0
 29 30  1  0  0  0  0
 32 31  1  0  0  0  0
 32 33  1  0  0  0  0
 33 31  1  1  0  0  0
 35 40  1  1  0  0  0
 36 35  1  0  0  0  0
 36 39  1  1  0  0  0
 37 34  1  6  0  0  0
 37 36  1  0  0  0  0
 37 35  1  0  0  0  0
 38 39  1  0  0  0  0
 40 41  1  6  0  0  0
 44 40  1  6  0  0  0
 44 51  1  0  0  0  0
 44 46  1  0  0  0  0
 46 50  1  0  0  0  0
 46 45  1  1  0  0  0
 47 49  1  0  0  0  0
 48 50  1  0  0  0  0
 48 54  1  1  0  0  0
 49 42  1  6  0  0  0
 49 52  1  0  0  0  0
 50 43  1  1  0  0  0
 51 46  1  0  0  0  0
 52 48  1  0  0  0  0
 53 47  1  0  0  0  0
 53 44  1  0  0  0  0
 55 54  1  0  0  0  0
M  END
>  <MODEL>
1

>  <REMARK>
 VINA RESULT:      -7.2      0.000      0.000
  Name = 
  12 active torsions:
  status: ('A' for Active; 'I' for Inactive)
    1  A    between atoms: C_2  and  O_28
    2  A    between atoms: C_6  and  C_20
    3  A    between atoms: C_8  and  C_43
    4  A    between atoms: O_10  and  C_18
    5  A    between atoms: O_10  and  C_32
    6  A    between atoms: C_11  and  C_29
    7  A    between atoms: C_19  and  C_37
    8  A    between atoms: C_20  and  C_22
    9  A    between atoms: N_27  and  C_54
   10  A    between atoms: O_28  and  C_44
   11  A    between atoms: C_33  and  C_52
   12  A    between atoms: C_51  and  C_54
                            x       y       z     vdW  Elec       q    Type
                         _______ _______ _______ _____ _____    ______ ____

>  <TORSDO>
F 12

$$$$
=
 OpenBabel10272401373D

 55 63  0  0  1  0  0  0  0  0999 V2000
  187.8460  179.1390  137.7890 C   0  0  0  0  0  2  0  0  0  0  0  0
  187.9180  177.1070  135.6810 N   0  0  0  0  0  0  0  0  0  0  0  0
  187.4430  176.6070  136.9840 C   0  0  0  0  0  2  0  0  0  0  0  0
  189.0100  179.2100  136.8270 C   0  0  0  0  0  2  0  0  0  0  0  0
  187.1250  177.7930  138.0360 C   0  0  2  0  0  3  0  0  0  0  0  0
  188.6870  178.3750  135.5400 C   0  0  0  0  0  2  0  0  0  0  0  0
  185.7690  178.1790  138.1880 O   0  0  0  0  0  0  0  0  0  0  0  0
  185.0330  177.2160  138.9220 C   0  0  2  0  0  3  0  0  0  0  0  0
  181.3690  177.1400  138.8350 O   0  0  0  0  0  0  0  0  0  0  0  0
  180.9790  178.0830  141.3610 C   0  0  0  0  0  2  0  0  0  0  0  0
  179.9820  178.9700  142.1790 C   0  0  0  0  0  2  0  0  0  0  0  0
  183.0200  179.2490  142.3080 C   0  0  2  0  0  3  0  0  0  0  0  0
  182.0660  179.2960  143.5830 C   0  0  0  0  0  2  0  0  0  0  0  0
  183.6580  176.7760  138.1870 C   0  0  1  0  0  3  0  0  0  0  0  0
  180.6140  179.7540  143.3040 C   0  0  0  0  0  2  0  0  0  0  0  0
  182.3120  178.7450  141.1020 C   0  0  1  0  0  3  0  0  0  0  0  0
  185.1020  178.5050  141.5180 C   0  0  2  0  0  3  0  0  0  0  0  0
  184.1760  178.5400  142.6290 O   0  0  0  0  0  0  0  0  0  0  0  0
  182.6370  177.3350  139.0780 C   0  0  0  0  0  0  0  0  0  0  0  0
  183.1110  177.8320  140.2480 N   0  0  0  0  0  0  0  0  0  0  0  0
  184.5420  177.7950  140.3380 C   0  0  1  0  0  3  0  0  0  0  0  0
  187.7160  178.2740  141.4540 C   0  0  0  0  0  3  0  0  0  0  0  0
  189.0270  177.4560  143.4570 C   0  0  2  0  0  3  0  0  0  0  0  0
  186.5170  177.6810  143.6090 C   0  0  0  0  0  2  0  0  0  0  0  0
  187.6950  176.7600  143.8460 C   0  0  0  0  0  2  0  0  0  0  0  0
  188.8980  178.1090  142.0880 C   0  0  0  0  0  3  0  0  0  0  0  0
  186.3590  177.8030  142.0560 C   0  0  1  0  0  3  0  0  0  0  0  0
  190.0500  176.5130  143.4420 O   0  0  0  0  0  0  0  0  0  0  0  0
  191.1510  177.1630  144.0280 C   0  0  0  0  0  2  0  0  0  0  0  0
  191.1800  177.0500  145.5290 C   0  0  0  0  0  1  0  0  0  0  0  0
  183.9570  176.3390  135.9530 C   0  0  0  0  0  2  0  0  0  0  0  0
  182.6090  176.2800  136.2140 O   0  0  0  0  0  0  0  0  0  0  0  0
  183.3290  177.2990  136.8610 C   0  0  1  0  0  3  0  0  0  0  0  0
  188.6890  176.0530  134.9880 C   0  0  0  0  0  2  0  0  0  0  0  0
  190.5010  174.4090  135.4050 C   0  0  1  0  0  3  0  0  0  0  0  0
  189.4340  173.5740  134.6720 C   0  0  2  0  0  3  0  0  0  0  0  0
  189.0080  174.6610  135.6360 C   0  0  2  0  0  3  0  0  0  0  0  0
  188.1970  171.7630  136.0580 C   0  0  0  0  0  1  0  0  0  0  0  0
  189.4200  172.1270  135.2000 C   0  0  0  0  0  2  0  0  0  0  0  0
  191.2390  173.7370  136.6310 C   0  0  2  0  0  3  0  0  0  0  0  0
  190.7100  174.0600  137.9060 O   0  0  0  0  0  1  0  0  0  0  0  0
  195.6710  175.0850  139.5200 O   0  0  0  0  0  1  0  0  0  0  0  0
  195.4280  172.3670  134.5080 O   0  0  0  0  0  1  0  0  0  0  0  0
  192.7610  173.9950  136.5040 C   0  0  1  0  0  0  0  0  0  0  0  0
  193.0780  171.6650  135.8300 O   0  0  0  0  0  1  0  0  0  0  0  0
  193.6720  172.9320  136.0200 C   0  0  2  0  0  0  0  0  0  0  0  0
  194.8170  175.2500  137.3090 N   0  0  0  0  0  2  0  0  0  0  0  0
  195.9450  172.3370  136.9320 C   0  0  2  0  0  3  0  0  0  0  0  0
  195.2120  174.3610  138.4070 C   0  0  1  0  0  3  0  0  0  0  0  0
  195.1820  172.9550  135.7290 C   0  0  1  0  0  3  0  0  0  0  0  0
  193.0920  173.8400  135.1610 O   0  0  0  0  0  0  0  0  0  0  0  0
  196.3310  173.4690  137.9120 C   0  0  0  0  0  2  0  0  0  0  0  0
  193.3580  175.2750  137.1180 C   0  0  0  0  0  2  0  0  0  0  0  0
  197.1850  171.5470  136.4560 C   0  0  0  0  0  2  0  0  0  0  0  0
  198.2610  171.7730  137.3240 O   0  0  0  0  0  1  0  0  0  0  0  0
  1  5  1  0  0  0  0
  2  3  1  0  0  0  0
  3  5  1  0  0  0  0
  4  1  1  0  0  0  0
  5  7  1  6  0  0  0
  6  2  1  0  0  0  0
  6  4  1  0  0  0  0
  8  7  1  6  0  0  0
  8 21  1  0  0  0  0
  9 19  2  0  0  0  0
 10 11  1  0  0  0  0
 11 15  1  0  0  0  0
 12 18  1  0  0  0  0
 12 13  1  1  0  0  0
 14  8  1  0  0  0  0
 14 19  1  1  0  0  0
 15 13  1  0  0  0  0
 16 10  1  1  0  0  0
 16 12  1  0  0  0  0
 17 27  1  0  0  0  0
 17 18  1  1  0  0  0
 19 20  1  0  0  0  0
 20 16  1  0  0  0  0
 21 20  1  6  0  0  0
 21 17  1  0  0  0  0
 22 26  2  0  0  0  0
 23 28  1  6  0  0  0
 23 25  1  0  0  0  0
 24 25  1  0  0  0  0
 26 23  1  0  0  0  0
 27 22  1  1  0  0  0
 27 24  1  0  0  0  0
 28 29  1  0  0  0  0
 29 30  1  0  0  0  0
 31 32  1  0  0  0  0
 32 33  1  0  0  0  0
 33 31  1  6  0  0  0
 33 14  1  0  0  0  0
 34  2  1  0  0  0  0
 35 37  1  0  0  0  0
 35 40  1  1  0  0  0
 36 39  1  1  0  0  0
 36 35  1  0  0  0  0
 36 37  1  0  0  0  0
 37 34  1  6  0  0  0
 39 38  1  0  0  0  0
 40 41  1  1  0  0  0
 44 40  1  1  0  0  0
 44 53  1  0  0  0  0
 46 45  1  6  0  0  0
 46 44  1  0  0  0  0
 47 49  1  0  0  0  0
 48 54  1  6  0  0  0
 48 52  1  0  0  0  0
 49 42  1  1  0  0  0
 50 43  1  6  0  0  0
 50 46  1  0  0  0  0
 50 48  1  0  0  0  0
 51 46  1  0  0  0  0
 51 44  1  0  0  0  0
 52 49  1  0  0  0  0
 53 47  1  0  0  0  0
 54 55  1  0  0  0  0
M  END
>  <MODEL>
2

>  <REMARK>
 VINA RESULT:      -6.7      3.245      9.108
  Name = 
  12 active torsions:
  status: ('A' for Active; 'I' for Inactive)
    1  A    between atoms: C_2  and  O_28
    2  A    between atoms: C_6  and  C_20
    3  A    between atoms: C_8  and  C_43
    4  A    between atoms: O_10  and  C_18
    5  A    between atoms: O_10  and  C_32
    6  A    between atoms: C_11  and  C_29
    7  A    between atoms: C_19  and  C_37
    8  A    between atoms: C_20  and  C_22
    9  A    between atoms: N_27  and  C_54
   10  A    between atoms: O_28  and  C_44
   11  A    between atoms: C_33  and  C_52
   12  A    between atoms: C_51  and  C_54
                            x       y       z     vdW  Elec       q    Type
                         _______ _______ _______ _____ _____    ______ ____

>  <TORSDO>
F 12

$$$$
=
 OpenBabel10272401373D

 55 63  0  0  1  0  0  0  0  0999 V2000
  186.8870  178.0150  135.8950 C   0  0  0  0  0  2  0  0  0  0  0  0
  185.1030  177.3360  138.1170 N   0  0  0  0  0  0  0  0  0  0  0  0
  184.6450  176.8450  136.8040 C   0  0  0  0  0  2  0  0  0  0  0  0
  186.7130  179.0700  136.9640 C   0  0  0  0  0  2  0  0  0  0  0  0
  185.7790  176.9620  135.6570 C   0  0  2  0  0  3  0  0  0  0  0  0
  186.1140  178.4210  138.2590 C   0  0  0  0  0  2  0  0  0  0  0  0
  186.5120  175.7890  135.3470 O   0  0  0  0  0  0  0  0  0  0  0  0
  186.4040  174.8210  136.3760 C   0  0  2  0  0  3  0  0  0  0  0  0
  189.0910  172.4120  137.0220 O   0  0  0  0  0  0  0  0  0  0  0  0
  187.7960  170.2300  136.0320 C   0  0  0  0  0  2  0  0  0  0  0  0
  188.0880  168.8930  135.2710 C   0  0  0  0  0  2  0  0  0  0  0  0
  185.8530  170.8330  134.5200 C   0  0  2  0  0  3  0  0  0  0  0  0
  185.6820  169.2490  134.5600 C   0  0  0  0  0  2  0  0  0  0  0  0
  187.8290  174.4610  137.0580 C   0  0  1  0  0  3  0  0  0  0  0  0
  186.9850  168.4400  134.3460 C   0  0  0  0  0  2  0  0  0  0  0  0
  187.1080  171.2740  135.1840 C   0  0  1  0  0  3  0  0  0  0  0  0
  184.7810  172.8720  134.9700 C   0  0  2  0  0  3  0  0  0  0  0  0
  184.7000  171.4290  135.0250 O   0  0  0  0  0  0  0  0  0  0  0  0
  188.0420  173.0780  136.6210 C   0  0  0  0  0  0  0  0  0  0  0  0
  186.9790  172.5050  136.0030 N   0  0  0  0  0  0  0  0  0  0  0  0
  185.8820  173.4090  135.8130 C   0  0  1  0  0  3  0  0  0  0  0  0
  183.2040  173.4600  136.9840 C   0  0  0  0  0  3  0  0  0  0  0  0
  181.3570  175.1760  136.7680 C   0  0  2  0  0  3  0  0  0  0  0  0
  182.8530  174.6890  134.7930 C   0  0  0  0  0  2  0  0  0  0  0  0
  181.4180  174.8200  135.2590 C   0  0  0  0  0  2  0  0  0  0  0  0
  182.2820  174.2630  137.5610 C   0  0  0  0  0  3  0  0  0  0  0  0
  183.4080  173.3780  135.4420 C   0  0  1  0  0  3  0  0  0  0  0  0
  180.0480  175.0380  137.2200 O   0  0  0  0  0  0  0  0  0  0  0  0
  180.1420  175.0820  138.6220 C   0  0  0  0  0  2  0  0  0  0  0  0
  180.1050  176.4790  139.1790 C   0  0  0  0  0  1  0  0  0  0  0  0
  189.1370  176.2580  137.6330 C   0  0  0  0  0  2  0  0  0  0  0  0
  189.9020  175.1250  137.7650 O   0  0  0  0  0  0  0  0  0  0  0  0
  189.0410  175.1740  136.6560 C   0  0  1  0  0  3  0  0  0  0  0  0
  183.9380  177.7180  138.9450 C   0  0  0  0  0  2  0  0  0  0  0  0
  184.8450  177.9700  141.2400 C   0  0  1  0  0  3  0  0  0  0  0  0
  183.3410  178.2470  141.4270 C   0  0  2  0  0  3  0  0  0  0  0  0
  184.0390  178.7000  140.1620 C   0  0  2  0  0  3  0  0  0  0  0  0
  182.5850  178.7620  143.8550 C   0  0  0  0  0  1  0  0  0  0  0  0
  183.1160  179.3090  142.5200 C   0  0  0  0  0  2  0  0  0  0  0  0
  185.8600  178.8940  142.0240 C   0  0  2  0  0  3  0  0  0  0  0  0
  186.5520  179.8430  141.2290 O   0  0  0  0  0  1  0  0  0  0  0  0
  191.1150  177.8410  143.0630 O   0  0  0  0  0  1  0  0  0  0  0  0
  186.5920  176.7980  146.3830 O   0  0  0  0  0  1  0  0  0  0  0  0
  186.7920  178.0020  142.8820 C   0  0  1  0  0  0  0  0  0  0  0  0
  185.9030  179.0560  144.9030 O   0  0  0  0  0  1  0  0  0  0  0  0
  186.7400  178.0560  144.3610 C   0  0  2  0  0  0  0  0  0  0  0  0
  188.9980  176.7640  143.1060 N   0  0  0  0  0  2  0  0  0  0  0  0
  188.6880  178.0520  145.9590 C   0  0  2  0  0  3  0  0  0  0  0  0
  189.8250  177.8630  143.6190 C   0  0  1  0  0  3  0  0  0  0  0  0
  187.4830  177.2310  145.4250 C   0  0  1  0  0  3  0  0  0  0  0  0
  185.9760  177.1660  143.6370 O   0  0  0  0  0  0  0  0  0  0  0  0
  189.9390  177.7050  145.1200 C   0  0  0  0  0  2  0  0  0  0  0  0
  187.9460  177.2460  142.1970 C   0  0  0  0  0  2  0  0  0  0  0  0
  188.9190  177.7860  147.4640 C   0  0  0  0  0  2  0  0  0  0  0  0
  190.1240  177.0980  147.6510 O   0  0  0  0  0  1  0  0  0  0  0  0
  1  4  1  0  0  0  0
  2  6  1  0  0  0  0
  2 34  1  0  0  0  0
  3  2  1  0  0  0  0
  4  6  1  0  0  0  0
  5  7  1  1  0  0  0
  5  1  1  0  0  0  0
  5  3  1  0  0  0  0
  8  7  1  6  0  0  0
  8 14  1  0  0  0  0
 11 10  1  0  0  0  0
 12 13  1  1  0  0  0
 12 18  1  0  0  0  0
 12 16  1  0  0  0  0
 14 19  1  6  0  0  0
 15 13  1  0  0  0  0
 15 11  1  0  0  0  0
 16 20  1  0  0  0  0
 16 10  1  1  0  0  0
 17 18  1  1  0  0  0
 17 27  1  0  0  0  0
 17 21  1  0  0  0  0
 19  9  2  0  0  0  0
 20 19  1  0  0  0  0
 21 20  1  6  0  0  0
 21  8  1  0  0  0  0
 22 26  2  0  0  0  0
 23 28  1  1  0  0  0
 23 26  1  0  0  0  0
 24 25  1  0  0  0  0
 25 23  1  0  0  0  0
 27 24  1  6  0  0  0
 27 22  1  0  0  0  0
 28 29  1  0  0  0  0
 29 30  1  0  0  0  0
 31 32  1  0  0  0  0
 33 14  1  0  0  0  0
 33 31  1  1  0  0  0
 33 32  1  0  0  0  0
 35 36  1  0  0  0  0
 35 40  1  1  0  0  0
 36 39  1  1  0  0  0
 37 34  1  6  0  0  0
 37 35  1  0  0  0  0
 37 36  1  0  0  0  0
 39 38  1  0  0  0  0
 40 41  1  6  0  0  0
 44 40  1  6  0  0  0
 44 51  1  0  0  0  0
 44 46  1  0  0  0  0
 46 45  1  1  0  0  0
 46 50  1  0  0  0  0
 47 49  1  0  0  0  0
 48 54  1  1  0  0  0
 49 42  1  6  0  0  0
 49 52  1  0  0  0  0
 50 48  1  0  0  0  0
 50 43  1  1  0  0  0
 51 46  1  0  0  0  0
 52 48  1  0  0  0  0
 53 44  1  0  0  0  0
 53 47  1  0  0  0  0
 54 55  1  0  0  0  0
M  END
>  <MODEL>
3

>  <REMARK>
 VINA RESULT:      -6.7      2.003      4.778
  Name = 
  12 active torsions:
  status: ('A' for Active; 'I' for Inactive)
    1  A    between atoms: C_2  and  O_28
    2  A    between atoms: C_6  and  C_20
    3  A    between atoms: C_8  and  C_43
    4  A    between atoms: O_10  and  C_18
    5  A    between atoms: O_10  and  C_32
    6  A    between atoms: C_11  and  C_29
    7  A    between atoms: C_19  and  C_37
    8  A    between atoms: C_20  and  C_22
    9  A    between atoms: N_27  and  C_54
   10  A    between atoms: O_28  and  C_44
   11  A    between atoms: C_33  and  C_52
   12  A    between atoms: C_51  and  C_54
                            x       y       z     vdW  Elec       q    Type
                         _______ _______ _______ _____ _____    ______ ____

>  <TORSDO>
F 12

$$$$
=
 OpenBabel10272401373D

 55 63  0  0  1  0  0  0  0  0999 V2000
  189.1350  178.3950  139.1020 C   0  0  0  0  0  2  0  0  0  0  0  0
  187.7030  176.4910  137.3990 N   0  0  0  0  0  0  0  0  0  0  0  0
  188.7740  175.8850  138.2120 C   0  0  0  0  0  2  0  0  0  0  0  0
  188.7360  178.8890  137.7300 C   0  0  0  0  0  2  0  0  0  0  0  0
  189.3380  176.8820  139.3530 C   0  0  2  0  0  3  0  0  0  0  0  0
  187.6300  177.9540  137.1300 C   0  0  0  0  0  2  0  0  0  0  0  0
  188.8440  176.7060  140.6700 O   0  0  0  0  0  0  0  0  0  0  0  0
  189.0010  177.8810  141.4470 C   0  0  2  0  0  3  0  0  0  0  0  0
  191.1950  177.9490  144.3830 O   0  0  0  0  0  0  0  0  0  0  0  0
  189.2120  178.0310  146.2490 C   0  0  0  0  0  2  0  0  0  0  0  0
  188.8930  177.5260  147.6970 C   0  0  0  0  0  2  0  0  0  0  0  0
  186.9650  177.2910  145.3400 C   0  0  2  0  0  3  0  0  0  0  0  0
  186.5290  177.7360  146.8060 C   0  0  0  0  0  2  0  0  0  0  0  0
  190.4830  178.0230  142.0850 C   0  0  1  0  0  3  0  0  0  0  0  0
  187.4360  177.2180  147.9500 C   0  0  0  0  0  2  0  0  0  0  0  0
  188.4420  177.3090  145.1690 C   0  0  1  0  0  3  0  0  0  0  0  0
  186.5960  177.6650  143.0520 C   0  0  2  0  0  3  0  0  0  0  0  0
  186.2730  178.0590  144.4060 O   0  0  0  0  0  0  0  0  0  0  0  0
  190.2220  177.8490  143.5170 C   0  0  0  0  0  0  0  0  0  0  0  0
  188.9100  177.8260  143.8590 N   0  0  0  0  0  0  0  0  0  0  0  0
  188.0310  177.8820  142.7280 C   0  0  1  0  0  3  0  0  0  0  0  0
  186.0880  178.5960  140.6510 C   0  0  0  0  0  3  0  0  0  0  0  0
  183.7340  179.1680  139.9200 C   0  0  2  0  0  3  0  0  0  0  0  0
  184.1370  178.2470  142.2350 C   0  0  0  0  0  2  0  0  0  0  0  0
  183.4750  179.3520  141.4390 C   0  0  0  0  0  2  0  0  0  0  0  0
  185.2100  178.8960  139.6670 C   0  0  0  0  0  3  0  0  0  0  0  0
  185.6790  178.5070  142.1510 C   0  0  1  0  0  3  0  0  0  0  0  0
  183.3390  180.3180  139.2440 O   0  0  0  0  0  0  0  0  0  0  0  0
  182.2450  179.9190  138.4550 C   0  0  0  0  0  2  0  0  0  0  0  0
  181.4420  181.0740  137.9200 C   0  0  0  0  0  1  0  0  0  0  0  0
  192.2810  177.6850  140.6980 C   0  0  0  0  0  2  0  0  0  0  0  0
  192.7460  177.6930  141.9910 O   0  0  0  0  0  0  0  0  0  0  0  0
  191.5210  177.0420  141.7690 C   0  0  1  0  0  3  0  0  0  0  0  0
  187.6150  175.8040  136.0910 C   0  0  0  0  0  2  0  0  0  0  0  0
  189.1070  174.1920  134.9370 C   0  0  1  0  0  3  0  0  0  0  0  0
  187.6990  173.7330  134.5100 C   0  0  2  0  0  3  0  0  0  0  0  0
  187.9220  174.2790  135.9040 C   0  0  2  0  0  3  0  0  0  0  0  0
  186.3230  171.5500  134.7840 C   0  0  0  0  0  1  0  0  0  0  0  0
  187.6500  172.2000  134.3580 C   0  0  0  0  0  2  0  0  0  0  0  0
  190.1590  173.0710  135.3050 C   0  0  2  0  0  3  0  0  0  0  0  0
  189.8420  172.2950  136.4490 O   0  0  0  0  0  1  0  0  0  0  0  0
  193.1000  176.9410  137.7900 O   0  0  0  0  0  1  0  0  0  0  0  0
  194.9800  172.2640  135.1150 O   0  0  0  0  0  1  0  0  0  0  0  0
  191.5720  173.7040  135.3540 C   0  0  1  0  0  0  0  0  0  0  0  0
  192.4790  171.5680  136.1260 O   0  0  0  0  0  1  0  0  0  0  0  0
  192.7560  172.8880  135.7100 C   0  0  2  0  0  0  0  0  0  0  0  0
  193.0070  175.7660  135.7280 N   0  0  0  0  0  2  0  0  0  0  0  0
  194.6670  173.5450  137.2140 C   0  0  2  0  0  3  0  0  0  0  0  0
  193.1610  175.6750  137.1840 C   0  0  1  0  0  3  0  0  0  0  0  0
  194.2500  173.2460  135.7490 C   0  0  1  0  0  3  0  0  0  0  0  0
  192.3470  173.0480  134.4030 O   0  0  0  0  0  0  0  0  0  0  0  0
  194.5140  175.0600  137.4770 C   0  0  0  0  0  2  0  0  0  0  0  0
  191.7100  175.2360  135.2780 C   0  0  0  0  0  2  0  0  0  0  0  0
  196.1090  173.0610  137.4920 C   0  0  0  0  0  2  0  0  0  0  0  0
  196.2450  172.7080  138.8400 O   0  0  0  0  0  1  0  0  0  0  0  0
  1  5  1  0  0  0  0
  2  3  1  0  0  0  0
  3  5  1  0  0  0  0
  4  1  1  0  0  0  0
  5  7  1  1  0  0  0
  6  2  1  0  0  0  0
  6  4  1  0  0  0  0
  8  7  1  1  0  0  0
  8 14  1  0  0  0  0
  8 21  1  0  0  0  0
 10 11  1  0  0  0  0
 11 15  1  0  0  0  0
 12 13  1  1  0  0  0
 13 15  1  0  0  0  0
 14 19  1  1  0  0  0
 16 12  1  0  0  0  0
 16 10  1  1  0  0  0
 17 18  1  1  0  0  0
 18 12  1  0  0  0  0
 19 20  1  0  0  0  0
 19  9  2  0  0  0  0
 20 16  1  0  0  0  0
 21 17  1  0  0  0  0
 21 20  1  1  0  0  0
 23 28  1  6  0  0  0
 23 25  1  0  0  0  0
 25 24  1  0  0  0  0
 26 23  1  0  0  0  0
 26 22  2  0  0  0  0
 27 22  1  6  0  0  0
 27 24  1  0  0  0  0
 27 17  1  0  0  0  0
 29 28  1  0  0  0  0
 30 29  1  0  0  0  0
 31 32  1  0  0  0  0
 33 31  1  6  0  0  0
 33 32  1  0  0  0  0
 33 14  1  0  0  0  0
 34  2  1  0  0  0  0
 35 40  1  1  0  0  0
 35 37  1  0  0  0  0
 36 39  1  1  0  0  0
 36 35  1  0  0  0  0
 36 37  1  0  0  0  0
 37 34  1  6  0  0  0
 39 38  1  0  0  0  0
 40 41  1  1  0  0  0
 44 40  1  1  0  0  0
 44 46  1  0  0  0  0
 46 50  1  0  0  0  0
 46 45  1  1  0  0  0
 47 49  1  0  0  0  0
 48 52  1  0  0  0  0
 48 54  1  6  0  0  0
 49 52  1  0  0  0  0
 49 42  1  1  0  0  0
 50 43  1  1  0  0  0
 50 48  1  0  0  0  0
 51 44  1  0  0  0  0
 51 46  1  0  0  0  0
 53 44  1  0  0  0  0
 53 47  1  0  0  0  0
 54 55  1  0  0  0  0
M  END
>  <MODEL>
4

>  <REMARK>
 VINA RESULT:      -6.4      2.948     10.462
  Name = 
  12 active torsions:
  status: ('A' for Active; 'I' for Inactive)
    1  A    between atoms: C_2  and  O_28
    2  A    between atoms: C_6  and  C_20
    3  A    between atoms: C_8  and  C_43
    4  A    between atoms: O_10  and  C_18
    5  A    between atoms: O_10  and  C_32
    6  A    between atoms: C_11  and  C_29
    7  A    between atoms: C_19  and  C_37
    8  A    between atoms: C_20  and  C_22
    9  A    between atoms: N_27  and  C_54
   10  A    between atoms: O_28  and  C_44
   11  A    between atoms: C_33  and  C_52
   12  A    between atoms: C_51  and  C_54
                            x       y       z     vdW  Elec       q    Type
                         _______ _______ _______ _____ _____    ______ ____

>  <TORSDO>
F 12

$$$$
=
 OpenBabel10272401373D

 55 63  0  0  1  0  0  0  0  0999 V2000
  187.8550  176.9800  135.7830 C   0  0  0  0  0  2  0  0  0  0  0  0
  185.9640  178.0590  137.7420 N   0  0  0  0  0  0  0  0  0  0  0  0
  185.4040  177.9010  136.3880 C   0  0  0  0  0  2  0  0  0  0  0  0
  188.4180  177.9500  136.7970 C   0  0  0  0  0  2  0  0  0  0  0  0
  186.3550  177.0320  135.4100 C   0  0  2  0  0  3  0  0  0  0  0  0
  187.4300  178.0880  138.0060 C   0  0  0  0  0  2  0  0  0  0  0  0
  186.0210  175.6660  135.2290 O   0  0  0  0  0  0  0  0  0  0  0  0
  185.2070  175.1850  136.2830 C   0  0  2  0  0  3  0  0  0  0  0  0
  184.6220  171.5970  136.7600 O   0  0  0  0  0  0  0  0  0  0  0  0
  182.0290  171.5910  135.9230 C   0  0  0  0  0  2  0  0  0  0  0  0
  181.0040  170.6780  135.1700 C   0  0  0  0  0  2  0  0  0  0  0  0
  181.4240  173.6410  134.5620 C   0  0  2  0  0  3  0  0  0  0  0  0
  179.9940  172.9430  134.6490 C   0  0  0  0  0  2  0  0  0  0  0  0
  185.6940  173.7490  136.8550 C   0  0  1  0  0  3  0  0  0  0  0  0
  179.9820  171.4250  134.3470 C   0  0  0  0  0  2  0  0  0  0  0  0
  182.5000  172.7760  135.1130 C   0  0  1  0  0  3  0  0  0  0  0  0
  182.6140  175.6040  135.0540 C   0  0  2  0  0  3  0  0  0  0  0  0
  181.3520  174.9040  135.1460 O   0  0  0  0  0  0  0  0  0  0  0  0
  184.6080  172.8610  136.4320 C   0  0  0  0  0  0  0  0  0  0  0  0
  183.5250  173.4910  135.9130 N   0  0  0  0  0  0  0  0  0  0  0  0
  183.7010  174.9100  135.7940 C   0  0  1  0  0  3  0  0  0  0  0  0
  181.6840  178.0260  134.6530 C   0  0  0  0  0  3  0  0  0  0  0  0
  180.7850  179.4340  136.5530 C   0  0  2  0  0  3  0  0  0  0  0  0
  181.6330  177.1020  137.0150 C   0  0  0  0  0  2  0  0  0  0  0  0
  181.7110  178.5540  137.4350 C   0  0  0  0  0  2  0  0  0  0  0  0
  180.9930  179.1060  135.0810 C   0  0  0  0  0  3  0  0  0  0  0  0
  182.3470  177.0060  135.6250 C   0  0  1  0  0  3  0  0  0  0  0  0
  181.0670  180.7760  136.7880 O   0  0  0  0  0  0  0  0  0  0  0  0
  181.4270  180.8400  138.1450 C   0  0  0  0  0  2  0  0  0  0  0  0
  180.3880  181.5020  139.0090 C   0  0  0  0  0  1  0  0  0  0  0  0
  187.9610  173.6640  137.2090 C   0  0  0  0  0  2  0  0  0  0  0  0
  187.4580  172.4020  137.4160 O   0  0  0  0  0  0  0  0  0  0  0  0
  186.9140  173.1260  136.3410 C   0  0  1  0  0  3  0  0  0  0  0  0
  185.3830  179.2550  138.3900 C   0  0  0  0  0  2  0  0  0  0  0  0
  185.5190  178.3330  140.6900 C   0  0  1  0  0  3  0  0  0  0  0  0
  184.1420  177.8460  140.1990 C   0  0  2  0  0  3  0  0  0  0  0  0
  184.6540  179.2070  139.7770 C   0  0  2  0  0  3  0  0  0  0  0  0
  181.7070  178.2550  140.9980 C   0  0  0  0  0  1  0  0  0  0  0  0
  183.1330  177.8090  141.3630 C   0  0  0  0  0  2  0  0  0  0  0  0
  185.6210  178.8570  142.1780 C   0  0  2  0  0  3  0  0  0  0  0  0
  185.8150  180.2550  142.3150 O   0  0  0  0  0  1  0  0  0  0  0  0
  190.9910  178.1920  142.9000 O   0  0  0  0  0  1  0  0  0  0  0  0
  186.7490  176.6210  146.3790 O   0  0  0  0  0  1  0  0  0  0  0  0
  186.6650  178.0050  142.9410 C   0  0  1  0  0  0  0  0  0  0  0  0
  185.8040  178.8820  145.0560 O   0  0  0  0  0  1  0  0  0  0  0  0
  186.6880  177.9820  144.4220 C   0  0  2  0  0  0  0  0  0  0  0  0
  188.9720  176.9440  142.9900 N   0  0  0  0  0  2  0  0  0  0  0  0
  188.7130  178.0610  145.9200 C   0  0  2  0  0  3  0  0  0  0  0  0
  189.7340  178.0800  143.5190 C   0  0  1  0  0  3  0  0  0  0  0  0
  187.5500  177.1710  145.4030 C   0  0  1  0  0  3  0  0  0  0  0  0
  185.9590  177.0680  143.6900 O   0  0  0  0  0  0  0  0  0  0  0  0
  189.9410  177.8590  145.0030 C   0  0  0  0  0  2  0  0  0  0  0  0
  187.8370  177.3800  142.1610 C   0  0  0  0  0  2  0  0  0  0  0  0
  189.0440  177.7430  147.3950 C   0  0  0  0  0  2  0  0  0  0  0  0
  190.3670  177.2960  147.5050 O   0  0  0  0  0  1  0  0  0  0  0  0
  1  4  1  0  0  0  0
  2  6  1  0  0  0  0
  2 34  1  0  0  0  0
  3  2  1  0  0  0  0
  4  6  1  0  0  0  0
  5  7  1  1  0  0  0
  5  1  1  0  0  0  0
  5  3  1  0  0  0  0
  8  7  1  6  0  0  0
  8 14  1  0  0  0  0
 11 10  1  0  0  0  0
 12 13  1  1  0  0  0
 12 16  1  0  0  0  0
 12 18  1  0  0  0  0
 14 19  1  6  0  0  0
 15 13  1  0  0  0  0
 15 11  1  0  0  0  0
 16 20  1  0  0  0  0
 16 10  1  1  0  0  0
 17 18  1  1  0  0  0
 17 27  1  0  0  0  0
 17 21  1  0  0  0  0
 19  9  2  0  0  0  0
 20 19  1  0  0  0  0
 21 20  1  6  0  0  0
 21  8  1  0  0  0  0
 22 26  2  0  0  0  0
 23 28  1  6  0  0  0
 23 25  1  0  0  0  0
 24 25  1  0  0  0  0
 26 23  1  0  0  0  0
 27 22  1  6  0  0  0
 27 24  1  0  0  0  0
 28 29  1  0  0  0  0
 29 30  1  0  0  0  0
 31 32  1  0  0  0  0
 33 14  1  0  0  0  0
 33 31  1  1  0  0  0
 33 32  1  0  0  0  0
 35 40  1  1  0  0  0
 36 35  1  0  0  0  0
 36 39  1  1  0  0  0
 37 34  1  6  0  0  0
 37 36  1  0  0  0  0
 37 35  1  0  0  0  0
 38 39  1  0  0  0  0
 40 41  1  6  0  0  0
 44 40  1  6  0  0  0
 44 51  1  0  0  0  0
 44 46  1  0  0  0  0
 46 45  1  1  0  0  0
 46 50  1  0  0  0  0
 47 49  1  0  0  0  0
 48 54  1  1  0  0  0
 49 42  1  6  0  0  0
 49 52  1  0  0  0  0
 50 48  1  0  0  0  0
 50 43  1  1  0  0  0
 51 46  1  0  0  0  0
 52 48  1  0  0  0  0
 53 44  1  0  0  0  0
 53 47  1  0  0  0  0
 54 55  1  0  0  0  0
M  END
>  <MODEL>
5

>  <REMARK>
 VINA RESULT:      -6.3      1.782      4.880
  Name = 
  12 active torsions:
  status: ('A' for Active; 'I' for Inactive)
    1  A    between atoms: C_2  and  O_28
    2  A    between atoms: C_6  and  C_20
    3  A    between atoms: C_8  and  C_43
    4  A    between atoms: O_10  and  C_18
    5  A    between atoms: O_10  and  C_32
    6  A    between atoms: C_11  and  C_29
    7  A    between atoms: C_19  and  C_37
    8  A    between atoms: C_20  and  C_22
    9  A    between atoms: N_27  and  C_54
   10  A    between atoms: O_28  and  C_44
   11  A    between atoms: C_33  and  C_52
   12  A    between atoms: C_51  and  C_54
                            x       y       z     vdW  Elec       q    Type
                         _______ _______ _______ _____ _____    ______ ____

>  <TORSDO>
F 12

$$$$
=
 OpenBabel10272401373D

 55 63  0  0  1  0  0  0  0  0999 V2000
  188.2230  177.1790  138.6570 C   0  0  0  0  0  2  0  0  0  0  0  0
  189.6340  176.7530  136.1260 N   0  0  0  0  0  0  0  0  0  0  0  0
  188.3680  176.0060  136.2440 C   0  0  0  0  0  2  0  0  0  0  0  0
  189.7310  177.1010  138.7330 C   0  0  0  0  0  2  0  0  0  0  0  0
  187.4680  176.4850  137.4990 C   0  0  2  0  0  3  0  0  0  0  0  0
  190.3460  177.3150  137.3070 C   0  0  0  0  0  2  0  0  0  0  0  0
  186.4030  177.3810  137.2280 O   0  0  0  0  0  0  0  0  0  0  0  0
  185.1640  176.8690  137.6870 C   0  0  2  0  0  3  0  0  0  0  0  0
  182.0980  177.2310  135.7090 O   0  0  0  0  0  0  0  0  0  0  0  0
  180.9200  179.1010  137.3020 C   0  0  0  0  0  2  0  0  0  0  0  0
  179.9820  180.3510  137.2070 C   0  0  0  0  0  2  0  0  0  0  0  0
  182.5630  180.2710  138.8360 C   0  0  2  0  0  3  0  0  0  0  0  0
  181.2030  180.9180  139.3540 C   0  0  0  0  0  2  0  0  0  0  0  0
  184.2040  176.3620  136.4840 C   0  0  1  0  0  3  0  0  0  0  0  0
  180.2450  181.4160  138.2440 C   0  0  0  0  0  2  0  0  0  0  0  0
  182.3570  179.4410  137.6200 C   0  0  1  0  0  3  0  0  0  0  0  0
  184.4440  179.0270  139.4870 C   0  0  2  0  0  3  0  0  0  0  0  0
  183.1780  179.5970  139.8900 O   0  0  0  0  0  0  0  0  0  0  0  0
  183.1150  177.3410  136.5220 C   0  0  0  0  0  0  0  0  0  0  0  0
  183.1370  178.1800  137.5880 N   0  0  0  0  0  0  0  0  0  0  0  0
  184.2890  177.9990  138.4230 C   0  0  1  0  0  3  0  0  0  0  0  0
  186.5860  178.6000  140.9430 C   0  0  0  0  0  3  0  0  0  0  0  0
  186.4500  178.3210  143.4550 C   0  0  2  0  0  3  0  0  0  0  0  0
  184.3480  178.7600  142.1270 C   0  0  0  0  0  2  0  0  0  0  0  0
  184.9940  177.8690  143.1680 C   0  0  0  0  0  2  0  0  0  0  0  0
  187.1980  178.5470  142.1480 C   0  0  0  0  0  3  0  0  0  0  0  0
  185.0490  178.4270  140.7670 C   0  0  1  0  0  3  0  0  0  0  0  0
  187.0940  177.3460  144.2100 O   0  0  0  0  0  0  0  0  0  0  0  0
  188.4220  177.7910  144.3230 C   0  0  0  0  0  2  0  0  0  0  0  0
  188.9640  177.7070  145.7240 C   0  0  0  0  0  1  0  0  0  0  0  0
  185.1190  175.0030  134.8750 C   0  0  0  0  0  2  0  0  0  0  0  0
  183.9000  175.4370  134.4130 O   0  0  0  0  0  0  0  0  0  0  0  0
  184.6810  176.3800  135.1020 C   0  0  1  0  0  3  0  0  0  0  0  0
  190.6190  175.9550  135.3630 C   0  0  0  0  0  2  0  0  0  0  0  0
  192.2710  174.1320  135.0400 C   0  0  1  0  0  3  0  0  0  0  0  0
  190.9810  173.5450  134.4360 C   0  0  2  0  0  3  0  0  0  0  0  0
  190.9020  174.4410  135.6540 C   0  0  2  0  0  3  0  0  0  0  0  0
  189.4870  171.4610  134.8380 C   0  0  0  0  0  1  0  0  0  0  0  0
  190.9090  172.0260  134.6810 C   0  0  0  0  0  2  0  0  0  0  0  0
  193.1690  173.1720  135.9160 C   0  0  2  0  0  3  0  0  0  0  0  0
  193.0150  173.3110  137.3190 O   0  0  0  0  0  1  0  0  0  0  0  0
  197.6100  176.3330  136.2200 O   0  0  0  0  0  1  0  0  0  0  0  0
  197.3260  170.7700  134.9790 O   0  0  0  0  0  1  0  0  0  0  0  0
  194.6390  173.2820  135.4380 C   0  0  1  0  0  0  0  0  0  0  0  0
  195.1740  171.2460  136.6830 O   0  0  0  0  0  1  0  0  0  0  0  0
  195.6290  172.2380  135.7880 C   0  0  2  0  0  0  0  0  0  0  0  0
  196.5880  174.7620  134.7600 N   0  0  0  0  0  2  0  0  0  0  0  0
  198.0150  172.5820  136.5230 C   0  0  2  0  0  3  0  0  0  0  0  0
  197.1600  175.0080  136.0880 C   0  0  1  0  0  3  0  0  0  0  0  0
  197.1020  172.0690  135.3770 C   0  0  1  0  0  3  0  0  0  0  0  0
  194.8880  172.1790  134.6270 O   0  0  0  0  0  0  0  0  0  0  0  0
  198.3360  174.0730  136.2750 C   0  0  0  0  0  2  0  0  0  0  0  0
  195.1260  174.6020  134.8110 C   0  0  0  0  0  2  0  0  0  0  0  0
  199.3010  171.7320  136.6320 C   0  0  0  0  0  2  0  0  0  0  0  0
  200.0500  172.1340  137.7450 O   0  0  0  0  0  1  0  0  0  0  0  0
  1  4  1  0  0  0  0
  2  3  1  0  0  0  0
  2  6  1  0  0  0  0
  3  5  1  0  0  0  0
  5  7  1  6  0  0  0
  5  1  1  0  0  0  0
  6  4  1  0  0  0  0
  8  7  1  6  0  0  0
  8 21  1  0  0  0  0
  9 19  2  0  0  0  0
 11 10  1  0  0  0  0
 11 15  1  0  0  0  0
 12 13  1  1  0  0  0
 12 18  1  0  0  0  0
 14 19  1  6  0  0  0
 14  8  1  0  0  0  0
 15 13  1  0  0  0  0
 16 10  1  1  0  0  0
 16 12  1  0  0  0  0
 17 18  1  1  0  0  0
 17 27  1  0  0  0  0
 19 20  1  0  0  0  0
 20 16  1  0  0  0  0
 21 20  1  6  0  0  0
 21 17  1  0  0  0  0
 22 26  2  0  0  0  0
 23 28  1  1  0  0  0
 24 25  1  0  0  0  0
 25 23  1  0  0  0  0
 26 23  1  0  0  0  0
 27 22  1  1  0  0  0
 27 24  1  0  0  0  0
 28 29  1  0  0  0  0
 29 30  1  0  0  0  0
 32 31  1  0  0  0  0
 32 33  1  0  0  0  0
 33 31  1  1  0  0  0
 33 14  1  0  0  0  0
 34  2  1  0  0  0  0
 35 37  1  0  0  0  0
 35 40  1  1  0  0  0
 36 39  1  1  0  0  0
 36 35  1  0  0  0  0
 36 37  1  0  0  0  0
 37 34  1  6  0  0  0
 39 38  1  0  0  0  0
 40 41  1  1  0  0  0
 44 46  1  0  0  0  0
 44 40  1  1  0  0  0
 46 45  1  1  0  0  0
 47 53  1  0  0  0  0
 47 49  1  0  0  0  0
 48 54  1  6  0  0  0
 49 42  1  6  0  0  0
 49 52  1  0  0  0  0
 50 43  1  1  0  0  0
 50 46  1  0  0  0  0
 50 48  1  0  0  0  0
 51 44  1  0  0  0  0
 51 46  1  0  0  0  0
 52 48  1  0  0  0  0
 53 44  1  0  0  0  0
 54 55  1  0  0  0  0
M  END
>  <MODEL>
6

>  <REMARK>
 VINA RESULT:      -6.2      4.229      9.869
  Name = 
  12 active torsions:
  status: ('A' for Active; 'I' for Inactive)
    1  A    between atoms: C_2  and  O_28
    2  A    between atoms: C_6  and  C_20
    3  A    between atoms: C_8  and  C_43
    4  A    between atoms: O_10  and  C_18
    5  A    between atoms: O_10  and  C_32
    6  A    between atoms: C_11  and  C_29
    7  A    between atoms: C_19  and  C_37
    8  A    between atoms: C_20  and  C_22
    9  A    between atoms: N_27  and  C_54
   10  A    between atoms: O_28  and  C_44
   11  A    between atoms: C_33  and  C_52
   12  A    between atoms: C_51  and  C_54
                            x       y       z     vdW  Elec       q    Type
                         _______ _______ _______ _____ _____    ______ ____

>  <TORSDO>
F 12

$$$$
=
 OpenBabel10272401373D

 55 63  0  0  1  0  0  0  0  0999 V2000
  188.2550  178.0400  138.6680 C   0  0  0  0  0  2  0  0  0  0  0  0
  189.6330  176.1870  136.8670 N   0  0  0  0  0  0  0  0  0  0  0  0
  188.3550  175.6760  137.3960 C   0  0  0  0  0  2  0  0  0  0  0  0
  189.7620  177.9910  138.7790 C   0  0  0  0  0  2  0  0  0  0  0  0
  187.4770  176.8160  138.1310 C   0  0  2  0  0  3  0  0  0  0  0  0
  190.3670  177.3180  137.4990 C   0  0  0  0  0  2  0  0  0  0  0  0
  186.4250  177.4060  137.3850 O   0  0  0  0  0  0  0  0  0  0  0  0
  185.1630  176.8820  137.7600 C   0  0  2  0  0  3  0  0  0  0  0  0
  182.2440  177.1750  135.5610 O   0  0  0  0  0  0  0  0  0  0  0  0
  180.9280  179.0460  137.0410 C   0  0  0  0  0  2  0  0  0  0  0  0
  179.9820  180.2810  136.8630 C   0  0  0  0  0  2  0  0  0  0  0  0
  182.4390  180.2570  138.6750 C   0  0  2  0  0  3  0  0  0  0  0  0
  181.0360  180.8910  139.0850 C   0  0  0  0  0  2  0  0  0  0  0  0
  184.3000  176.3460  136.4980 C   0  0  1  0  0  3  0  0  0  0  0  0
  180.1540  181.3620  137.9030 C   0  0  0  0  0  2  0  0  0  0  0  0
  182.3340  179.4110  137.4570 C   0  0  1  0  0  3  0  0  0  0  0  0
  184.2850  179.0490  139.4760 C   0  0  2  0  0  3  0  0  0  0  0  0
  182.9850  179.6050  139.7790 O   0  0  0  0  0  0  0  0  0  0  0  0
  183.1980  177.3100  136.4440 C   0  0  0  0  0  0  0  0  0  0  0  0
  183.1310  178.1610  137.4980 N   0  0  0  0  0  0  0  0  0  0  0  0
  184.2220  178.0070  138.4170 C   0  0  1  0  0  3  0  0  0  0  0  0
  186.3390  178.5800  141.0430 C   0  0  0  0  0  3  0  0  0  0  0  0
  186.0810  178.4090  143.5540 C   0  0  2  0  0  3  0  0  0  0  0  0
  184.0620  178.8930  142.1170 C   0  0  0  0  0  2  0  0  0  0  0  0
  184.6180  178.0150  143.2190 C   0  0  0  0  0  2  0  0  0  0  0  0
  186.8940  178.5460  142.2740 C   0  0  0  0  0  3  0  0  0  0  0  0
  184.8040  178.4740  140.8040 C   0  0  1  0  0  3  0  0  0  0  0  0
  186.6420  177.4350  144.3740 O   0  0  0  0  0  0  0  0  0  0  0  0
  187.0960  178.1330  145.5070 C   0  0  0  0  0  2  0  0  0  0  0  0
  185.9820  178.6390  146.3830 C   0  0  0  0  0  1  0  0  0  0  0  0
  185.6100  175.0920  135.0890 C   0  0  0  0  0  2  0  0  0  0  0  0
  184.3700  175.2130  134.5100 O   0  0  0  0  0  0  0  0  0  0  0  0
  184.8760  176.3560  135.1530 C   0  0  1  0  0  3  0  0  0  0  0  0
  190.5970  175.0740  136.7180 C   0  0  0  0  0  2  0  0  0  0  0  0
  192.9980  174.6060  136.3030 C   0  0  1  0  0  3  0  0  0  0  0  0
  192.8270  176.0460  135.7820 C   0  0  2  0  0  3  0  0  0  0  0  0
  191.7050  175.0450  135.6100 C   0  0  2  0  0  3  0  0  0  0  0  0
  195.0720  176.9870  134.8810 C   0  0  0  0  0  1  0  0  0  0  0  0
  193.7370  176.2940  134.5630 C   0  0  0  0  0  2  0  0  0  0  0  0
  193.8870  173.6200  135.4460 C   0  0  2  0  0  3  0  0  0  0  0  0
  193.1710  172.6340  134.7220 O   0  0  0  0  0  1  0  0  0  0  0  0
  194.9920  169.5780  138.9440 O   0  0  0  0  0  1  0  0  0  0  0  0
  198.6700  172.6940  135.8890 O   0  0  0  0  0  1  0  0  0  0  0  0
  195.0070  173.0410  136.3460 C   0  0  1  0  0  0  0  0  0  0  0  0
  196.3490  172.5930  134.3510 O   0  0  0  0  0  1  0  0  0  0  0  0
  196.2900  172.5880  135.7620 C   0  0  2  0  0  0  0  0  0  0  0  0
  195.6550  171.8090  138.4700 N   0  0  0  0  0  2  0  0  0  0  0  0
  197.5900  170.5120  136.3550 C   0  0  2  0  0  3  0  0  0  0  0  0
  195.5470  170.4320  137.9760 C   0  0  1  0  0  3  0  0  0  0  0  0
  197.5710  172.0630  136.4300 C   0  0  1  0  0  3  0  0  0  0  0  0
  196.1110  173.8780  136.2140 O   0  0  0  0  0  0  0  0  0  0  0  0
  196.9390  169.9430  137.6360 C   0  0  0  0  0  2  0  0  0  0  0  0
  194.6890  172.7060  137.8150 C   0  0  0  0  0  2  0  0  0  0  0  0
  199.0280  169.9820  136.1610 C   0  0  0  0  0  2  0  0  0  0  0  0
  199.7050  169.9690  137.3870 O   0  0  0  0  0  1  0  0  0  0  0  0
  1  4  1  0  0  0  0
  2  3  1  0  0  0  0
  2  6  1  0  0  0  0
  3  5  1  0  0  0  0
  5  7  1  6  0  0  0
  5  1  1  0  0  0  0
  6  4  1  0  0  0  0
  8  7  1  6  0  0  0
  8 21  1  0  0  0  0
  9 19  2  0  0  0  0
 11 10  1  0  0  0  0
 11 15  1  0  0  0  0
 12 13  1  1  0  0  0
 12 18  1  0  0  0  0
 14 19  1  6  0  0  0
 14  8  1  0  0  0  0
 15 13  1  0  0  0  0
 16 10  1  1  0  0  0
 16 20  1  0  0  0  0
 16 12  1  0  0  0  0
 17 18  1  1  0  0  0
 17 27  1  0  0  0  0
 19 20  1  0  0  0  0
 21 20  1  6  0  0  0
 21 17  1  0  0  0  0
 22 26  2  0  0  0  0
 23 28  1  1  0  0  0
 24 25  1  0  0  0  0
 25 23  1  0  0  0  0
 26 23  1  0  0  0  0
 27 22  1  1  0  0  0
 27 24  1  0  0  0  0
 28 29  1  0  0  0  0
 29 30  1  0  0  0  0
 32 31  1  0  0  0  0
 32 33  1  0  0  0  0
 33 31  1  1  0  0  0
 33 14  1  0  0  0  0
 34  2  1  0  0  0  0
 35 40  1  6  0  0  0
 36 39  1  6  0  0  0
 36 35  1  0  0  0  0
 37 36  1  0  0  0  0
 37 35  1  0  0  0  0
 37 34  1  1  0  0  0
 39 38  1  0  0  0  0
 40 41  1  1  0  0  0
 44 40  1  6  0  0  0
 44 53  1  0  0  0  0
 46 45  1  6  0  0  0
 46 51  1  0  0  0  0
 46 44  1  0  0  0  0
 46 50  1  0  0  0  0
 48 54  1  1  0  0  0
 48 50  1  0  0  0  0
 48 52  1  0  0  0  0
 49 47  1  0  0  0  0
 49 42  1  1  0  0  0
 50 43  1  6  0  0  0
 51 44  1  0  0  0  0
 52 49  1  0  0  0  0
 53 47  1  0  0  0  0
 54 55  1  0  0  0  0
M  END
>  <MODEL>
7

>  <REMARK>
 VINA RESULT:      -6.1      4.385     10.074
  Name = 
  12 active torsions:
  status: ('A' for Active; 'I' for Inactive)
    1  A    between atoms: C_2  and  O_28
    2  A    between atoms: C_6  and  C_20
    3  A    between atoms: C_8  and  C_43
    4  A    between atoms: O_10  and  C_18
    5  A    between atoms: O_10  and  C_32
    6  A    between atoms: C_11  and  C_29
    7  A    between atoms: C_19  and  C_37
    8  A    between atoms: C_20  and  C_22
    9  A    between atoms: N_27  and  C_54
   10  A    between atoms: O_28  and  C_44
   11  A    between atoms: C_33  and  C_52
   12  A    between atoms: C_51  and  C_54
                            x       y       z     vdW  Elec       q    Type
                         _______ _______ _______ _____ _____    ______ ____

>  <TORSDO>
F 12

$$$$
=
 OpenBabel10272401373D

 55 63  0  0  1  0  0  0  0  0999 V2000
  187.8340  179.8340  136.9660 C   0  0  0  0  0  2  0  0  0  0  0  0
  187.9340  176.9640  136.3930 N   0  0  0  0  0  0  0  0  0  0  0  0
  189.1920  177.5160  136.9270 C   0  0  0  0  0  2  0  0  0  0  0  0
  187.0990  179.3700  135.7290 C   0  0  0  0  0  2  0  0  0  0  0  0
  189.0240  179.0130  137.5150 C   0  0  2  0  0  3  0  0  0  0  0  0
  186.8710  177.8200  135.7970 C   0  0  0  0  0  2  0  0  0  0  0  0
  188.8840  179.1460  138.9200 O   0  0  0  0  0  0  0  0  0  0  0  0
  188.5850  177.9040  139.5330 C   0  0  2  0  0  3  0  0  0  0  0  0
  186.6440  177.7250  142.6380 O   0  0  0  0  0  0  0  0  0  0  0  0
  188.7180  177.0350  144.2620 C   0  0  0  0  0  2  0  0  0  0  0  0
  189.2290  177.2480  145.7270 C   0  0  0  0  0  2  0  0  0  0  0  0
  190.9830  177.5400  143.2440 C   0  0  2  0  0  3  0  0  0  0  0  0
  191.4460  176.8060  144.5800 C   0  0  0  0  0  2  0  0  0  0  0  0
  187.1540  177.9010  140.2920 C   0  0  1  0  0  3  0  0  0  0  0  0
  190.7320  177.2750  145.8720 C   0  0  0  0  0  2  0  0  0  0  0  0
  189.5170  177.7860  143.2230 C   0  0  1  0  0  3  0  0  0  0  0  0
  191.1070  177.4780  140.9010 C   0  0  2  0  0  3  0  0  0  0  0  0
  191.4590  176.8290  142.1450 O   0  0  0  0  0  0  0  0  0  0  0  0
  187.5490  177.8040  141.7000 C   0  0  0  0  0  0  0  0  0  0  0  0
  188.8680  177.5620  141.9070 N   0  0  0  0  0  0  0  0  0  0  0  0
  189.6360  177.5460  140.6960 C   0  0  1  0  0  3  0  0  0  0  0  0
  190.8550  175.7840  138.9110 C   0  0  0  0  0  3  0  0  0  0  0  0
  192.5280  175.7050  137.0150 C   0  0  2  0  0  3  0  0  0  0  0  0
  192.8220  177.3850  138.8760 C   0  0  0  0  0  2  0  0  0  0  0  0
  193.5040  176.3070  138.0600 C   0  0  0  0  0  2  0  0  0  0  0  0
  191.1980  175.3650  137.6720 C   0  0  0  0  0  3  0  0  0  0  0  0
  191.7930  176.6520  139.8000 C   0  0  1  0  0  3  0  0  0  0  0  0
  193.0940  174.5600  136.4630 O   0  0  0  0  0  0  0  0  0  0  0  0
  194.0810  174.1640  137.3830 C   0  0  0  0  0  2  0  0  0  0  0  0
  194.9680  173.0620  136.8680 C   0  0  0  0  0  1  0  0  0  0  0  0
  185.2930  178.7030  139.2130 C   0  0  0  0  0  2  0  0  0  0  0  0
  184.9940  178.6130  140.5510 O   0  0  0  0  0  0  0  0  0  0  0  0
  186.2810  179.0730  140.2260 C   0  0  1  0  0  3  0  0  0  0  0  0
  188.2290  175.8940  135.4150 C   0  0  0  0  0  2  0  0  0  0  0  0
  186.2840  174.6230  136.2850 C   0  0  1  0  0  3  0  0  0  0  0  0
  187.4890  173.8590  136.8660 C   0  0  2  0  0  3  0  0  0  0  0  0
  187.5800  174.4690  135.4840 C   0  0  2  0  0  3  0  0  0  0  0  0
  187.7780  171.5100  135.8000 C   0  0  0  0  0  1  0  0  0  0  0  0
  187.1880  172.3490  136.9450 C   0  0  0  0  0  2  0  0  0  0  0  0
  185.0760  173.7680  135.7290 C   0  0  2  0  0  3  0  0  0  0  0  0
  185.1370  173.4640  134.3460 O   0  0  0  0  0  1  0  0  0  0  0  0
  182.6400  176.2770  139.9210 O   0  0  0  0  0  1  0  0  0  0  0  0
  181.3240  176.6010  134.3780 O   0  0  0  0  0  1  0  0  0  0  0  0
  183.7470  174.4350  136.1630 C   0  0  1  0  0  0  0  0  0  0  0  0
  184.0720  176.1490  134.4480 O   0  0  0  0  0  1  0  0  0  0  0  0
  183.2200  175.6150  135.4380 C   0  0  2  0  0  0  0  0  0  0  0  0
  182.0960  174.9640  138.0180 N   0  0  0  0  0  2  0  0  0  0  0  0
  182.1820  177.6820  136.4370 C   0  0  2  0  0  3  0  0  0  0  0  0
  182.7050  176.2010  138.5200 C   0  0  1  0  0  3  0  0  0  0  0  0
  181.9070  176.3980  135.6090 C   0  0  1  0  0  3  0  0  0  0  0  0
  182.8670  174.3280  135.0890 O   0  0  0  0  0  0  0  0  0  0  0  0
  181.9450  177.3720  137.9320 C   0  0  0  0  0  2  0  0  0  0  0  0
  183.1030  174.0250  137.5000 C   0  0  0  0  0  2  0  0  0  0  0  0
  181.3010  178.8550  135.9510 C   0  0  0  0  0  2  0  0  0  0  0  0
  181.0660  179.7480  137.0050 O   0  0  0  0  0  1  0  0  0  0  0  0
  1  5  1  0  0  0  0
  2  3  1  0  0  0  0
  3  5  1  0  0  0  0
  4  6  1  0  0  0  0
  4  1  1  0  0  0  0
  5  7  1  1  0  0  0
  6  2  1  0  0  0  0
  8  7  1  1  0  0  0
  8 14  1  0  0  0  0
  8 21  1  0  0  0  0
 10 11  1  0  0  0  0
 11 15  1  0  0  0  0
 12 13  1  1  0  0  0
 13 15  1  0  0  0  0
 14 19  1  1  0  0  0
 16 12  1  0  0  0  0
 16 10  1  1  0  0  0
 17 18  1  1  0  0  0
 18 12  1  0  0  0  0
 19 20  1  0  0  0  0
 19  9  2  0  0  0  0
 20 16  1  0  0  0  0
 21 17  1  0  0  0  0
 21 20  1  1  0  0  0
 22 27  1  0  0  0  0
 23 28  1  1  0  0  0
 23 26  1  0  0  0  0
 23 25  1  0  0  0  0
 25 24  1  0  0  0  0
 26 22  2  0  0  0  0
 27 24  1  6  0  0  0
 27 17  1  0  0  0  0
 28 29  1  0  0  0  0
 30 29  1  0  0  0  0
 31 32  1  0  0  0  0
 33 31  1  6  0  0  0
 33 14  1  0  0  0  0
 33 32  1  0  0  0  0
 34  2  1  0  0  0  0
 35 40  1  6  0  0  0
 35 36  1  0  0  0  0
 36 39  1  6  0  0  0
 37 34  1  1  0  0  0
 37 35  1  0  0  0  0
 37 36  1  0  0  0  0
 38 39  1  0  0  0  0
 40 41  1  6  0  0  0
 44 40  1  6  0  0  0
 44 53  1  0  0  0  0
 46 45  1  6  0  0  0
 46 50  1  0  0  0  0
 46 44  1  0  0  0  0
 47 49  1  0  0  0  0
 48 54  1  6  0  0  0
 48 52  1  0  0  0  0
 49 42  1  1  0  0  0
 50 43  1  6  0  0  0
 50 48  1  0  0  0  0
 51 46  1  0  0  0  0
 51 44  1  0  0  0  0
 52 49  1  0  0  0  0
 53 47  1  0  0  0  0
 54 55  1  0  0  0  0
M  END
>  <MODEL>
8

>  <REMARK>
 VINA RESULT:      -5.8      2.680      9.401
  Name = 
  12 active torsions:
  status: ('A' for Active; 'I' for Inactive)
    1  A    between atoms: C_2  and  O_28
    2  A    between atoms: C_6  and  C_20
    3  A    between atoms: C_8  and  C_43
    4  A    between atoms: O_10  and  C_18
    5  A    between atoms: O_10  and  C_32
    6  A    between atoms: C_11  and  C_29
    7  A    between atoms: C_19  and  C_37
    8  A    between atoms: C_20  and  C_22
    9  A    between atoms: N_27  and  C_54
   10  A    between atoms: O_28  and  C_44
   11  A    between atoms: C_33  and  C_52
   12  A    between atoms: C_51  and  C_54
                            x       y       z     vdW  Elec       q    Type
                         _______ _______ _______ _____ _____    ______ ____

>  <TORSDO>
F 12

$$$$
=
 OpenBabel10272401373D

 55 63  0  0  1  0  0  0  0  0999 V2000
  188.9810  177.5030  139.0270 C   0  0  0  0  0  2  0  0  0  0  0  0
  186.8960  178.4210  140.8670 N   0  0  0  0  0  0  0  0  0  0  0  0
  186.4880  178.4110  139.4500 C   0  0  0  0  0  2  0  0  0  0  0  0
  189.4380  178.3550  140.1890 C   0  0  0  0  0  2  0  0  0  0  0  0
  187.5320  177.6240  138.4990 C   0  0  2  0  0  3  0  0  0  0  0  0
  188.3230  178.3920  141.2910 C   0  0  0  0  0  2  0  0  0  0  0  0
  187.2080  176.2900  138.1450 O   0  0  0  0  0  0  0  0  0  0  0  0
  187.2680  176.0950  136.7420 C   0  0  2  0  0  3  0  0  0  0  0  0
  184.7740  174.0580  134.9900 O   0  0  0  0  0  0  0  0  0  0  0  0
  186.4090  171.9410  134.4740 C   0  0  0  0  0  2  0  0  0  0  0  0
  186.3630  170.3820  134.3460 C   0  0  0  0  0  2  0  0  0  0  0  0
  188.4740  171.9050  135.9430 C   0  0  2  0  0  3  0  0  0  0  0  0
  188.7970  170.6670  134.9930 C   0  0  0  0  0  2  0  0  0  0  0  0
  185.8050  175.9500  136.0610 C   0  0  1  0  0  3  0  0  0  0  0  0
  187.6260  169.6770  134.7800 C   0  0  0  0  0  2  0  0  0  0  0  0
  187.1000  172.4300  135.7250 C   0  0  1  0  0  3  0  0  0  0  0  0
  189.2600  173.9890  136.6820 C   0  0  2  0  0  3  0  0  0  0  0  0
  189.4790  172.8600  135.8050 O   0  0  0  0  0  0  0  0  0  0  0  0
  185.7970  174.5470  135.6380 C   0  0  0  0  0  0  0  0  0  0  0  0
  186.9880  173.9090  135.7540 N   0  0  0  0  0  0  0  0  0  0  0  0
  188.0040  174.7180  136.3640 C   0  0  1  0  0  3  0  0  0  0  0  0
  191.4230  175.0270  137.7490 C   0  0  0  0  0  3  0  0  0  0  0  0
  193.4170  175.6830  136.3370 C   0  0  2  0  0  3  0  0  0  0  0  0
  191.3860  174.6620  135.2390 C   0  0  0  0  0  2  0  0  0  0  0  0
  192.3690  175.8130  135.1990 C   0  0  0  0  0  2  0  0  0  0  0  0
  192.7230  175.3860  137.6590 C   0  0  0  0  0  3  0  0  0  0  0  0
  190.4950  174.8880  136.5060 C   0  0  1  0  0  3  0  0  0  0  0  0
  194.1390  176.8690  136.4330 O   0  0  0  0  0  0  0  0  0  0  0  0
  195.0420  176.8330  135.3550 C   0  0  0  0  0  2  0  0  0  0  0  0
  195.9200  175.6110  135.3530 C   0  0  0  0  0  1  0  0  0  0  0  0
  184.2000  177.4940  136.6190 C   0  0  0  0  0  2  0  0  0  0  0  0
  183.5750  176.4580  135.9670 O   0  0  0  0  0  0  0  0  0  0  0  0
  184.5950  176.1080  136.8680 C   0  0  1  0  0  3  0  0  0  0  0  0
  186.2580  179.5580  141.5660 C   0  0  0  0  0  2  0  0  0  0  0  0
  185.3480  177.9370  143.2100 C   0  0  1  0  0  3  0  0  0  0  0  0
  184.0990  178.3730  142.4200 C   0  0  2  0  0  3  0  0  0  0  0  0
  185.1970  179.3750  142.7050 C   0  0  2  0  0  3  0  0  0  0  0  0
  181.5780  178.9360  142.6750 C   0  0  0  0  0  1  0  0  0  0  0  0
  182.8620  178.4110  143.3390 C   0  0  0  0  0  2  0  0  0  0  0  0
  185.2050  177.7850  144.7760 C   0  0  2  0  0  3  0  0  0  0  0  0
  184.0710  178.4170  145.3450 O   0  0  0  0  0  1  0  0  0  0  0  0
  187.8550  177.7640  149.5490 O   0  0  0  0  0  1  0  0  0  0  0  0
  190.0660  178.0550  144.2960 O   0  0  0  0  0  1  0  0  0  0  0  0
  186.5430  178.1880  145.4450 C   0  0  1  0  0  0  0  0  0  0  0  0
  187.7150  176.5860  144.0150 O   0  0  0  0  0  1  0  0  0  0  0  0
  187.8260  177.6080  144.9830 C   0  0  2  0  0  0  0  0  0  0  0  0
  187.7700  178.9920  147.5180 N   0  0  0  0  0  2  0  0  0  0  0  0
  189.7400  176.8040  146.4100 C   0  0  2  0  0  3  0  0  0  0  0  0
  188.0160  177.6940  148.1550 C   0  0  1  0  0  3  0  0  0  0  0  0
  189.2740  177.8970  145.4120 C   0  0  1  0  0  3  0  0  0  0  0  0
  187.3280  178.7840  144.4620 O   0  0  0  0  0  0  0  0  0  0  0  0
  189.4410  177.2820  147.8490 C   0  0  0  0  0  2  0  0  0  0  0  0
  186.5130  179.0000  146.7530 C   0  0  0  0  0  2  0  0  0  0  0  0
  191.2380  176.4770  146.2170 C   0  0  0  0  0  2  0  0  0  0  0  0
  191.9120  176.5710  147.4420 O   0  0  0  0  0  1  0  0  0  0  0  0
  1  4  1  0  0  0  0
  2  6  1  0  0  0  0
  2 34  1  0  0  0  0
  3  2  1  0  0  0  0
  4  6  1  0  0  0  0
  5  7  1  1  0  0  0
  5  1  1  0  0  0  0
  5  3  1  0  0  0  0
  8  7  1  1  0  0  0
  9 19  2  0  0  0  0
 11 10  1  0  0  0  0
 11 15  1  0  0  0  0
 12 13  1  6  0  0  0
 14 19  1  1  0  0  0
 14  8  1  0  0  0  0
 14 33  1  0  0  0  0
 15 13  1  0  0  0  0
 16 10  1  6  0  0  0
 16 20  1  0  0  0  0
 16 12  1  0  0  0  0
 17 18  1  6  0  0  0
 18 12  1  0  0  0  0
 19 20  1  0  0  0  0
 21 20  1  1  0  0  0
 21 17  1  0  0  0  0
 21  8  1  0  0  0  0
 23 28  1  1  0  0  0
 23 26  1  0  0  0  0
 25 24  1  0  0  0  0
 25 23  1  0  0  0  0
 26 22  2  0  0  0  0
 27 24  1  6  0  0  0
 27 17  1  0  0  0  0
 27 22  1  0  0  0  0
 29 28  1  0  0  0  0
 30 29  1  0  0  0  0
 32 31  1  0  0  0  0
 32 33  1  0  0  0  0
 33 31  1  1  0  0  0
 35 40  1  1  0  0  0
 36 37  1  0  0  0  0
 36 35  1  0  0  0  0
 36 39  1  1  0  0  0
 37 34  1  6  0  0  0
 37 35  1  0  0  0  0
 38 39  1  0  0  0  0
 40 41  1  1  0  0  0
 44 40  1  6  0  0  0
 44 53  1  0  0  0  0
 46 45  1  6  0  0  0
 46 50  1  0  0  0  0
 46 44  1  0  0  0  0
 47 49  1  0  0  0  0
 48 54  1  1  0  0  0
 48 52  1  0  0  0  0
 49 42  1  1  0  0  0
 50 43  1  6  0  0  0
 50 48  1  0  0  0  0
 51 46  1  0  0  0  0
 51 44  1  0  0  0  0
 52 49  1  0  0  0  0
 53 47  1  0  0  0  0
 54 55  1  0  0  0  0
M  END
>  <MODEL>
9

>  <REMARK>
 VINA RESULT:      -5.7      2.078      3.304
  Name = 
  12 active torsions:
  status: ('A' for Active; 'I' for Inactive)
    1  A    between atoms: C_2  and  O_28
    2  A    between atoms: C_6  and  C_20
    3  A    between atoms: C_8  and  C_43
    4  A    between atoms: O_10  and  C_18
    5  A    between atoms: O_10  and  C_32
    6  A    between atoms: C_11  and  C_29
    7  A    between atoms: C_19  and  C_37
    8  A    between atoms: C_20  and  C_22
    9  A    between atoms: N_27  and  C_54
   10  A    between atoms: O_28  and  C_44
   11  A    between atoms: C_33  and  C_52
   12  A    between atoms: C_51  and  C_54
                            x       y       z     vdW  Elec       q    Type
                         _______ _______ _______ _____ _____    ______ ____

>  <TORSDO>
F 12

$$$$
