=
 OpenBabel10272400533D

 25 27  0  0  1  0  0  0  0  0999 V2000
  189.8400  176.9870  144.8960 C   0  0  0  0  0  0  0  0  0  0  0  0
  188.7860  177.4360  145.7250 C   0  0  0  0  0  0  0  0  0  0  0  0
  191.2970  176.8590  146.8390 C   0  0  0  0  0  3  0  0  0  0  0  0
  190.2570  177.2910  147.6620 C   0  0  0  0  0  3  0  0  0  0  0  0
  187.9580  178.0390  147.9440 C   0  0  0  0  0  0  0  0  0  0  0  0
  188.1490  178.1920  149.3140 O   0  0  0  0  0  1  0  0  0  0  0  0
  187.5260  177.7500  145.1920 C   0  0  0  0  0  3  0  0  0  0  0  0
  191.0900  176.7130  145.4670 C   0  0  0  0  0  3  0  0  0  0  0  0
  186.7130  178.3450  147.3910 C   0  0  0  0  0  3  0  0  0  0  0  0
  186.4950  178.1990  146.0200 C   0  0  0  0  0  0  0  0  0  0  0  0
  189.0000  177.5850  147.1190 C   0  0  0  0  0  0  0  0  0  0  0  0
  189.6860  176.8420  143.4020 C   0  0  0  0  0  0  0  0  0  0  0  0
  190.6710  175.8450  142.8210 C   0  0  0  0  0  2  0  0  0  0  0  0
  189.1850  175.5480  142.7830 C   0  0  0  0  0  2  0  0  0  0  0  0
  189.6210  178.0500  142.5710 N   0  0  0  0  0  2  0  0  0  0  0  0
  189.6440  178.0570  140.0870 C   0  0  0  0  0  1  0  0  0  0  0  0
  188.8190  177.8840  141.3510 C   0  0  0  0  0  3  0  0  0  0  0  0
  187.5680  178.7510  141.3330 C   0  0  0  0  0  1  0  0  0  0  0  0
  185.1740  178.5530  145.4320 C   0  0  0  0  0  2  0  0  0  0  0  0
  185.1780  178.2780  143.9330 C   0  0  0  0  0  2  0  0  0  0  0  0
  183.9800  178.9080  143.2310 C   0  0  1  0  0  3  0  0  0  0  0  0
  183.7210  178.2530  142.0250 O   0  0  0  0  0  1  0  0  0  0  0  0
  182.7500  178.8880  144.1250 C   0  0  0  0  0  2  0  0  0  0  0  0
  181.4970  179.1080  143.3000 C   0  0  0  0  0  2  0  0  0  0  0  0
  180.3240  178.4290  143.9730 C   0  0  0  0  0  1  0  0  0  0  0  0
  1  8  2  0  0  0  0
  1  2  1  0  0  0  0
  2 11  1  0  0  0  0
  3  4  2  0  0  0  0
  5  6  1  0  0  0  0
  7  2  2  0  0  0  0
  7 10  1  0  0  0  0
  8  3  1  0  0  0  0
  9  5  1  0  0  0  0
 10  9  2  0  0  0  0
 11  4  1  0  0  0  0
 11  5  2  0  0  0  0
 12  1  1  0  0  0  0
 13 12  1  0  0  0  0
 14 13  1  0  0  0  0
 14 12  1  0  0  0  0
 15 12  1  0  0  0  0
 16 17  1  0  0  0  0
 17 15  1  0  0  0  0
 18 17  1  0  0  0  0
 19 10  1  0  0  0  0
 20 19  1  0  0  0  0
 21 22  1  6  0  0  0
 21 20  1  0  0  0  0
 21 23  1  0  0  0  0
 24 25  1  0  0  0  0
 24 23  1  0  0  0  0
M  END
>  <MODEL>
1

>  <REMARK>
 VINA RESULT:      -8.4      0.000      0.000
  Name = 
  8 active torsions:
  status: ('A' for Active; 'I' for Inactive)
    1  A    between atoms: C_1  and  C_5
    2  A    between atoms: C_2  and  C_7
    3  A    between atoms: C_2  and  C_21
    4  A    between atoms: C_5  and  N_10
    5  A    between atoms: C_6  and  C_15
    6  A    between atoms: C_6  and  C_23
    7  A    between atoms: N_10  and  C_11
    8  A    between atoms: C_15  and  C_21
                            x       y       z     vdW  Elec       q    Type
                         _______ _______ _______ _____ _____    ______ ____

>  <TORSDO>
F 8

$$$$
=
 OpenBabel10272400533D

 25 27  0  0  1  0  0  0  0  0999 V2000
  189.1770  177.2570  144.8090 C   0  0  0  0  0  0  0  0  0  0  0  0
  187.8100  177.6190  144.8390 C   0  0  0  0  0  0  0  0  0  0  0  0
  189.3200  177.6500  147.2050 C   0  0  0  0  0  3  0  0  0  0  0  0
  187.9700  177.9970  147.2410 C   0  0  0  0  0  3  0  0  0  0  0  0
  185.8500  178.3570  146.1000 C   0  0  0  0  0  0  0  0  0  0  0  0
  185.2390  178.7230  147.2950 O   0  0  0  0  0  1  0  0  0  0  0  0
  187.0360  177.6310  143.6690 C   0  0  0  0  0  3  0  0  0  0  0  0
  189.9190  177.2880  145.9980 C   0  0  0  0  0  3  0  0  0  0  0  0
  185.1000  178.3610  144.9220 C   0  0  0  0  0  3  0  0  0  0  0  0
  185.6890  177.9960  143.7100 C   0  0  0  0  0  0  0  0  0  0  0  0
  187.2060  177.9890  146.0680 C   0  0  0  0  0  0  0  0  0  0  0  0
  189.8860  176.8890  143.5290 C   0  0  0  0  0  0  0  0  0  0  0  0
  191.1860  176.1530  143.7890 C   0  0  0  0  0  2  0  0  0  0  0  0
  190.0390  175.4390  143.1020 C   0  0  0  0  0  2  0  0  0  0  0  0
  190.0690  177.9150  142.4950 N   0  0  0  0  0  2  0  0  0  0  0  0
  191.1210  177.4220  140.2990 C   0  0  0  0  0  1  0  0  0  0  0  0
  189.8490  177.4200  141.1290 C   0  0  0  0  0  3  0  0  0  0  0  0
  188.7050  178.1250  140.4140 C   0  0  0  0  0  1  0  0  0  0  0  0
  184.8910  178.0290  142.4540 C   0  0  0  0  0  2  0  0  0  0  0  0
  185.4180  179.1190  141.5280 C   0  0  0  0  0  2  0  0  0  0  0  0
  184.6540  179.1710  140.2100 C   0  0  1  0  0  3  0  0  0  0  0  0
  185.5290  179.0070  139.1330 O   0  0  0  0  0  1  0  0  0  0  0  0
  183.5570  178.1180  140.1720 C   0  0  0  0  0  2  0  0  0  0  0  0
  182.2080  178.7730  139.9480 C   0  0  0  0  0  2  0  0  0  0  0  0
  181.4740  178.8790  141.2670 C   0  0  0  0  0  1  0  0  0  0  0  0
  1  2  2  0  0  0  0
  1  8  1  0  0  0  0
  2 11  1  0  0  0  0
  3  4  1  0  0  0  0
  5  6  1  0  0  0  0
  7 10  2  0  0  0  0
  7  2  1  0  0  0  0
  8  3  2  0  0  0  0
  9  5  2  0  0  0  0
 10  9  1  0  0  0  0
 11  5  1  0  0  0  0
 11  4  2  0  0  0  0
 12 13  1  0  0  0  0
 12  1  1  0  0  0  0
 14 12  1  0  0  0  0
 14 13  1  0  0  0  0
 15 12  1  0  0  0  0
 16 17  1  0  0  0  0
 17 15  1  0  0  0  0
 18 17  1  0  0  0  0
 19 10  1  0  0  0  0
 20 19  1  0  0  0  0
 21 22  1  6  0  0  0
 21 20  1  0  0  0  0
 23 21  1  0  0  0  0
 24 23  1  0  0  0  0
 24 25  1  0  0  0  0
M  END
>  <MODEL>
2

>  <REMARK>
 VINA RESULT:      -8.4      1.810      2.379
  Name = 
  8 active torsions:
  status: ('A' for Active; 'I' for Inactive)
    1  A    between atoms: C_1  and  C_5
    2  A    between atoms: C_2  and  C_7
    3  A    between atoms: C_2  and  C_21
    4  A    between atoms: C_5  and  N_10
    5  A    between atoms: C_6  and  C_15
    6  A    between atoms: C_6  and  C_23
    7  A    between atoms: N_10  and  C_11
    8  A    between atoms: C_15  and  C_21
                            x       y       z     vdW  Elec       q    Type
                         _______ _______ _______ _____ _____    ______ ____

>  <TORSDO>
F 8

$$$$
=
 OpenBabel10272400533D

 25 27  0  0  1  0  0  0  0  0999 V2000
  189.9160  176.9870  144.9070 C   0  0  0  0  0  0  0  0  0  0  0  0
  188.8910  177.4530  145.7630 C   0  0  0  0  0  0  0  0  0  0  0  0
  191.4150  176.8160  146.8150 C   0  0  0  0  0  3  0  0  0  0  0  0
  190.4040  177.2650  147.6640 C   0  0  0  0  0  3  0  0  0  0  0  0
  188.1290  178.0580  148.0050 C   0  0  0  0  0  0  0  0  0  0  0  0
  188.3540  178.1980  149.3710 O   0  0  0  0  0  1  0  0  0  0  0  0
  187.6260  177.7970  145.2620 C   0  0  0  0  0  3  0  0  0  0  0  0
  191.1730  176.6840  145.4470 C   0  0  0  0  0  3  0  0  0  0  0  0
  186.8780  178.3940  147.4830 C   0  0  0  0  0  3  0  0  0  0  0  0
  186.6240  178.2610  146.1160 C   0  0  0  0  0  0  0  0  0  0  0  0
  189.1410  177.5890  147.1530 C   0  0  0  0  0  0  0  0  0  0  0  0
  189.7240  176.8550  143.4160 C   0  0  0  0  0  0  0  0  0  0  0  0
  190.0560  175.4620  142.9190 C   0  0  0  0  0  2  0  0  0  0  0  0
  188.6310  175.9730  142.8370 C   0  0  0  0  0  2  0  0  0  0  0  0
  190.3030  177.8730  142.5300 N   0  0  0  0  0  2  0  0  0  0  0  0
  192.3270  177.6020  141.1160 C   0  0  0  0  0  1  0  0  0  0  0  0
  190.8420  177.3260  141.2780 C   0  0  0  0  0  3  0  0  0  0  0  0
  190.0520  177.7480  140.0480 C   0  0  0  0  0  1  0  0  0  0  0  0
  185.2980  178.6470  145.5620 C   0  0  0  0  0  2  0  0  0  0  0  0
  185.1060  178.0250  144.1840 C   0  0  0  0  0  2  0  0  0  0  0  0
  183.9290  178.6400  143.4360 C   0  0  1  0  0  3  0  0  0  0  0  0
  183.4700  179.7800  144.1010 O   0  0  0  0  0  1  0  0  0  0  0  0
  184.3070  178.9750  142.0010 C   0  0  0  0  0  2  0  0  0  0  0  0
  185.7830  179.3110  141.9120 C   0  0  0  0  0  2  0  0  0  0  0  0
  186.4000  178.5670  140.7470 C   0  0  0  0  0  1  0  0  0  0  0  0
  1  8  2  0  0  0  0
  1  2  1  0  0  0  0
  2 11  1  0  0  0  0
  3  4  2  0  0  0  0
  5  6  1  0  0  0  0
  7  2  2  0  0  0  0
  7 10  1  0  0  0  0
  8  3  1  0  0  0  0
  9  5  1  0  0  0  0
 10  9  2  0  0  0  0
 11  4  1  0  0  0  0
 11  5  2  0  0  0  0
 12  1  1  0  0  0  0
 13 12  1  0  0  0  0
 14 13  1  0  0  0  0
 14 12  1  0  0  0  0
 15 12  1  0  0  0  0
 16 17  1  0  0  0  0
 17 15  1  0  0  0  0
 18 17  1  0  0  0  0
 19 10  1  0  0  0  0
 20 19  1  0  0  0  0
 21 22  1  1  0  0  0
 21 20  1  0  0  0  0
 23 21  1  0  0  0  0
 24 23  1  0  0  0  0
 25 24  1  0  0  0  0
M  END
>  <MODEL>
3

>  <REMARK>
 VINA RESULT:      -8.3      1.190      2.050
  Name = 
  8 active torsions:
  status: ('A' for Active; 'I' for Inactive)
    1  A    between atoms: C_1  and  C_5
    2  A    between atoms: C_2  and  C_7
    3  A    between atoms: C_2  and  C_21
    4  A    between atoms: C_5  and  N_10
    5  A    between atoms: C_6  and  C_15
    6  A    between atoms: C_6  and  C_23
    7  A    between atoms: N_10  and  C_11
    8  A    between atoms: C_15  and  C_21
                            x       y       z     vdW  Elec       q    Type
                         _______ _______ _______ _____ _____    ______ ____

>  <TORSDO>
F 8

$$$$
=
 OpenBabel10272400533D

 25 27  0  0  1  0  0  0  0  0999 V2000
  183.3150  178.5130  141.8390 C   0  0  0  0  0  0  0  0  0  0  0  0
  184.2630  178.4210  142.8840 C   0  0  0  0  0  0  0  0  0  0  0  0
  181.5970  179.0820  143.4640 C   0  0  0  0  0  3  0  0  0  0  0  0
  182.5310  179.0020  144.4970 C   0  0  0  0  0  3  0  0  0  0  0  0
  184.8000  178.5720  145.2640 C   0  0  0  0  0  0  0  0  0  0  0  0
  184.4280  178.8130  146.5830 O   0  0  0  0  0  1  0  0  0  0  0  0
  185.5980  178.0730  142.6270 C   0  0  0  0  0  3  0  0  0  0  0  0
  181.9860  178.8340  142.1470 C   0  0  0  0  0  3  0  0  0  0  0  0
  186.1230  178.2250  144.9830 C   0  0  0  0  0  3  0  0  0  0  0  0
  186.5230  177.9790  143.6670 C   0  0  0  0  0  0  0  0  0  0  0  0
  183.8630  178.6710  144.2230 C   0  0  0  0  0  0  0  0  0  0  0  0
  183.6690  178.2240  140.4010 C   0  0  0  0  0  0  0  0  0  0  0  0
  183.1490  179.2940  139.4600 C   0  0  0  0  0  2  0  0  0  0  0  0
  184.6430  179.1060  139.6370 C   0  0  0  0  0  2  0  0  0  0  0  0
  183.4100  176.8850  139.8580 N   0  0  0  0  0  2  0  0  0  0  0  0
  181.0410  176.1440  139.7680 C   0  0  0  0  0  1  0  0  0  0  0  0
  182.1940  176.8080  139.0360 C   0  0  0  0  0  3  0  0  0  0  0  0
  182.4320  176.1830  137.6700 C   0  0  0  0  0  1  0  0  0  0  0  0
  187.9280  177.5830  143.3770 C   0  0  0  0  0  2  0  0  0  0  0  0
  188.5100  176.8170  144.5590 C   0  0  0  0  0  2  0  0  0  0  0  0
  189.9050  177.3090  144.9310 C   0  0  1  0  0  3  0  0  0  0  0  0
  190.0620  178.6490  144.5660 O   0  0  0  0  0  1  0  0  0  0  0  0
  190.1710  177.1250  146.4170 C   0  0  0  0  0  2  0  0  0  0  0  0
  188.8620  177.0170  147.1760 C   0  0  0  0  0  2  0  0  0  0  0  0
  188.7850  178.1230  148.2070 C   0  0  0  0  0  1  0  0  0  0  0  0
  1  8  2  0  0  0  0
  1  2  1  0  0  0  0
  2 11  1  0  0  0  0
  3  4  2  0  0  0  0
  5  6  1  0  0  0  0
  7  2  2  0  0  0  0
  7 10  1  0  0  0  0
  8  3  1  0  0  0  0
  9  5  1  0  0  0  0
 10  9  2  0  0  0  0
 11  4  1  0  0  0  0
 11  5  2  0  0  0  0
 12  1  1  0  0  0  0
 13 14  1  0  0  0  0
 13 12  1  0  0  0  0
 14 12  1  0  0  0  0
 15 12  1  0  0  0  0
 17 16  1  0  0  0  0
 17 15  1  0  0  0  0
 18 17  1  0  0  0  0
 19 10  1  0  0  0  0
 19 20  1  0  0  0  0
 20 21  1  0  0  0  0
 21 22  1  1  0  0  0
 21 23  1  0  0  0  0
 23 24  1  0  0  0  0
 24 25  1  0  0  0  0
M  END
>  <MODEL>
4

>  <REMARK>
 VINA RESULT:      -8.2      3.072      6.913
  Name = 
  8 active torsions:
  status: ('A' for Active; 'I' for Inactive)
    1  A    between atoms: C_1  and  C_5
    2  A    between atoms: C_2  and  C_7
    3  A    between atoms: C_2  and  C_21
    4  A    between atoms: C_5  and  N_10
    5  A    between atoms: C_6  and  C_15
    6  A    between atoms: C_6  and  C_23
    7  A    between atoms: N_10  and  C_11
    8  A    between atoms: C_15  and  C_21
                            x       y       z     vdW  Elec       q    Type
                         _______ _______ _______ _____ _____    ______ ____

>  <TORSDO>
F 8

$$$$
=
 OpenBabel10272400533D

 25 27  0  0  1  0  0  0  0  0999 V2000
  190.1880  177.7770  142.0990 C   0  0  0  0  0  0  0  0  0  0  0  0
  188.9090  178.0240  141.5480 C   0  0  0  0  0  0  0  0  0  0  0  0
  191.0210  177.2190  139.8830 C   0  0  0  0  0  3  0  0  0  0  0  0
  189.7640  177.4720  139.3340 C   0  0  0  0  0  3  0  0  0  0  0  0
  187.4310  178.1070  139.6030 C   0  0  0  0  0  0  0  0  0  0  0  0
  187.2070  177.9620  138.2380 O   0  0  0  0  0  1  0  0  0  0  0  0
  187.8300  178.4080  142.3590 C   0  0  0  0  0  3  0  0  0  0  0  0
  191.2290  177.3660  141.2550 C   0  0  0  0  0  3  0  0  0  0  0  0
  186.3720  178.4880  140.4310 C   0  0  0  0  0  3  0  0  0  0  0  0
  186.5710  178.6420  141.8050 C   0  0  0  0  0  0  0  0  0  0  0  0
  188.7010  177.8700  140.1530 C   0  0  0  0  0  0  0  0  0  0  0  0
  190.4640  177.8870  143.5790 C   0  0  0  0  0  0  0  0  0  0  0  0
  191.7560  178.6290  143.8650 C   0  0  0  0  0  2  0  0  0  0  0  0
  190.4310  179.2300  144.2890 C   0  0  0  0  0  2  0  0  0  0  0  0
  190.3620  176.6840  144.4150 N   0  0  0  0  0  2  0  0  0  0  0  0
  192.0450  174.8600  144.3490 C   0  0  0  0  0  1  0  0  0  0  0  0
  191.6550  176.2100  144.9250 C   0  0  0  0  0  3  0  0  0  0  0  0
  191.7420  176.2230  146.4440 C   0  0  0  0  0  1  0  0  0  0  0  0
  185.4330  179.0230  142.6850 C   0  0  0  0  0  2  0  0  0  0  0  0
  185.4430  178.1730  143.9490 C   0  0  0  0  0  2  0  0  0  0  0  0
  185.2300  179.0100  145.2060 C   0  0  1  0  0  3  0  0  0  0  0  0
  183.8660  179.1490  145.4740 O   0  0  0  0  0  1  0  0  0  0  0  0
  185.9500  178.4000  146.3980 C   0  0  0  0  0  2  0  0  0  0  0  0
  187.2250  177.7140  145.9480 C   0  0  0  0  0  2  0  0  0  0  0  0
  188.2240  177.7090  147.0860 C   0  0  0  0  0  1  0  0  0  0  0  0
  1 12  1  0  0  0  0
  2  1  1  0  0  0  0
  2  7  1  0  0  0  0
  3  8  1  0  0  0  0
  4  3  2  0  0  0  0
  4 11  1  0  0  0  0
  5 11  1  0  0  0  0
  5  9  2  0  0  0  0
  6  5  1  0  0  0  0
  8  1  2  0  0  0  0
  9 10  1  0  0  0  0
 10  7  2  0  0  0  0
 10 19  1  0  0  0  0
 11  2  2  0  0  0  0
 12 13  1  0  0  0  0
 12 14  1  0  0  0  0
 12 15  1  0  0  0  0
 13 14  1  0  0  0  0
 15 17  1  0  0  0  0
 16 17  1  0  0  0  0
 17 18  1  0  0  0  0
 19 20  1  0  0  0  0
 20 21  1  0  0  0  0
 21 22  1  1  0  0  0
 21 23  1  0  0  0  0
 24 23  1  0  0  0  0
 24 25  1  0  0  0  0
M  END
>  <MODEL>
5

>  <REMARK>
 VINA RESULT:      -8.1      2.324      5.582
  Name = 
  8 active torsions:
  status: ('A' for Active; 'I' for Inactive)
    1  A    between atoms: C_1  and  C_5
    2  A    between atoms: C_2  and  C_7
    3  A    between atoms: C_2  and  C_21
    4  A    between atoms: C_5  and  N_10
    5  A    between atoms: C_6  and  C_15
    6  A    between atoms: C_6  and  C_23
    7  A    between atoms: N_10  and  C_11
    8  A    between atoms: C_15  and  C_21
                            x       y       z     vdW  Elec       q    Type
                         _______ _______ _______ _____ _____    ______ ____

>  <TORSDO>
F 8

$$$$
=
 OpenBabel10272400533D

 25 27  0  0  1  0  0  0  0  0999 V2000
  189.8490  177.3680  146.7370 C   0  0  0  0  0  0  0  0  0  0  0  0
  188.5850  177.5640  146.1330 C   0  0  0  0  0  0  0  0  0  0  0  0
  188.9370  178.1270  148.8600 C   0  0  0  0  0  3  0  0  0  0  0  0
  187.6870  178.3110  148.2710 C   0  0  0  0  0  3  0  0  0  0  0  0
  186.2430  178.2400  146.3140 C   0  0  0  0  0  0  0  0  0  0  0  0
  185.1640  178.7030  147.0600 O   0  0  0  0  0  1  0  0  0  0  0  0
  188.3840  177.3090  144.7670 C   0  0  0  0  0  3  0  0  0  0  0  0
  190.0100  177.6650  148.0970 C   0  0  0  0  0  3  0  0  0  0  0  0
  186.0680  177.9790  144.9530 C   0  0  0  0  0  3  0  0  0  0  0  0
  187.1340  177.5110  144.1810 C   0  0  0  0  0  0  0  0  0  0  0  0
  187.4970  178.0370  146.9110 C   0  0  0  0  0  0  0  0  0  0  0  0
  191.0530  176.9020  145.9550 C   0  0  0  0  0  0  0  0  0  0  0  0
  191.9810  176.0470  146.7950 C   0  0  0  0  0  2  0  0  0  0  0  0
  191.2520  175.4350  145.6160 C   0  0  0  0  0  2  0  0  0  0  0  0
  191.8170  177.8810  145.1710 N   0  0  0  0  0  2  0  0  0  0  0  0
  191.7230  177.6940  142.6960 C   0  0  0  0  0  1  0  0  0  0  0  0
  191.1320  178.3190  143.9480 C   0  0  0  0  0  3  0  0  0  0  0  0
  191.0270  179.8320  143.8290 C   0  0  0  0  0  1  0  0  0  0  0  0
  186.9480  177.2610  142.7260 C   0  0  0  0  0  2  0  0  0  0  0  0
  187.2100  178.5400  141.9380 C   0  0  0  0  0  2  0  0  0  0  0  0
  185.9800  178.9960  141.1610 C   0  0  1  0  0  3  0  0  0  0  0  0
  186.1340  178.7220  139.8000 O   0  0  0  0  0  1  0  0  0  0  0  0
  184.7180  178.3390  141.6990 C   0  0  0  0  0  2  0  0  0  0  0  0
  183.5430  178.6350  140.7870 C   0  0  0  0  0  2  0  0  0  0  0  0
  182.2610  178.6120  141.5930 C   0  0  0  0  0  1  0  0  0  0  0  0
  1  8  1  0  0  0  0
  2  1  2  0  0  0  0
  2 11  1  0  0  0  0
  4  3  1  0  0  0  0
  5 11  1  0  0  0  0
  5  6  1  0  0  0  0
  7  2  1  0  0  0  0
  8  3  2  0  0  0  0
  9  5  2  0  0  0  0
 10  7  2  0  0  0  0
 10  9  1  0  0  0  0
 11  4  2  0  0  0  0
 12  1  1  0  0  0  0
 12 13  1  0  0  0  0
 14 12  1  0  0  0  0
 14 13  1  0  0  0  0
 15 12  1  0  0  0  0
 16 17  1  0  0  0  0
 17 15  1  0  0  0  0
 18 17  1  0  0  0  0
 19 10  1  0  0  0  0
 20 19  1  0  0  0  0
 21 22  1  6  0  0  0
 21 23  1  0  0  0  0
 21 20  1  0  0  0  0
 24 25  1  0  0  0  0
 24 23  1  0  0  0  0
M  END
>  <MODEL>
6

>  <REMARK>
 VINA RESULT:      -8.0      2.001      3.026
  Name = 
  8 active torsions:
  status: ('A' for Active; 'I' for Inactive)
    1  A    between atoms: C_1  and  C_5
    2  A    between atoms: C_2  and  C_7
    3  A    between atoms: C_2  and  C_21
    4  A    between atoms: C_5  and  N_10
    5  A    between atoms: C_6  and  C_15
    6  A    between atoms: C_6  and  C_23
    7  A    between atoms: N_10  and  C_11
    8  A    between atoms: C_15  and  C_21
                            x       y       z     vdW  Elec       q    Type
                         _______ _______ _______ _____ _____    ______ ____

>  <TORSDO>
F 8

$$$$
=
 OpenBabel10272400533D

 25 27  0  0  1  0  0  0  0  0999 V2000
  187.3080  177.9420  145.9410 C   0  0  0  0  0  0  0  0  0  0  0  0
  188.6270  177.7800  145.4600 C   0  0  0  0  0  0  0  0  0  0  0  0
  188.0430  177.2490  148.1530 C   0  0  0  0  0  3  0  0  0  0  0  0
  189.3470  177.0970  147.6850 C   0  0  0  0  0  3  0  0  0  0  0  0
  190.9630  177.1860  145.8680 C   0  0  0  0  0  0  0  0  0  0  0  0
  191.9830  176.7710  146.7190 O   0  0  0  0  0  1  0  0  0  0  0  0
  188.9450  178.0190  144.1140 C   0  0  0  0  0  3  0  0  0  0  0  0
  187.0310  177.6620  147.2860 C   0  0  0  0  0  3  0  0  0  0  0  0
  191.2550  177.4310  144.5240 C   0  0  0  0  0  3  0  0  0  0  0  0
  190.2500  177.8500  143.6490 C   0  0  0  0  0  0  0  0  0  0  0  0
  189.6530  177.3560  146.3440 C   0  0  0  0  0  0  0  0  0  0  0  0
  186.1670  178.3550  145.0440 C   0  0  0  0  0  0  0  0  0  0  0  0
  184.8480  178.4150  145.7890 C   0  0  0  0  0  2  0  0  0  0  0  0
  185.4580  179.6860  145.2320 C   0  0  0  0  0  2  0  0  0  0  0  0
  186.0000  177.6850  143.7480 N   0  0  0  0  0  2  0  0  0  0  0  0
  184.2100  178.1650  142.0950 C   0  0  0  0  0  1  0  0  0  0  0  0
  185.5500  178.5810  142.6750 C   0  0  0  0  0  3  0  0  0  0  0  0
  186.5960  178.7880  141.5890 C   0  0  0  0  0  1  0  0  0  0  0  0
  190.5620  178.0830  142.2130 C   0  0  0  0  0  2  0  0  0  0  0  0
  190.3760  176.7930  141.4220 C   0  0  0  0  0  2  0  0  0  0  0  0
  190.5560  177.0090  139.9230 C   0  0  1  0  0  3  0  0  0  0  0  0
  190.7690  175.7880  139.2770 O   0  0  0  0  0  1  0  0  0  0  0  0
  189.3560  177.7270  139.3260 C   0  0  0  0  0  2  0  0  0  0  0  0
  189.4960  177.8190  137.8180 C   0  0  0  0  0  2  0  0  0  0  0  0
  188.9800  179.1620  137.3460 C   0  0  0  0  0  1  0  0  0  0  0  0
  1  8  1  0  0  0  0
  2  1  2  0  0  0  0
  2 11  1  0  0  0  0
  4  3  1  0  0  0  0
  5 11  1  0  0  0  0
  5  6  1  0  0  0  0
  7  2  1  0  0  0  0
  8  3  2  0  0  0  0
  9  5  2  0  0  0  0
 10  7  2  0  0  0  0
 10  9  1  0  0  0  0
 11  4  2  0  0  0  0
 12 14  1  0  0  0  0
 12 13  1  0  0  0  0
 12  1  1  0  0  0  0
 14 13  1  0  0  0  0
 15 12  1  0  0  0  0
 16 17  1  0  0  0  0
 17 15  1  0  0  0  0
 18 17  1  0  0  0  0
 19 10  1  0  0  0  0
 20 19  1  0  0  0  0
 21 22  1  6  0  0  0
 21 20  1  0  0  0  0
 23 21  1  0  0  0  0
 24 23  1  0  0  0  0
 25 24  1  0  0  0  0
M  END
>  <MODEL>
7

>  <REMARK>
 VINA RESULT:      -7.9      2.556      5.583
  Name = 
  8 active torsions:
  status: ('A' for Active; 'I' for Inactive)
    1  A    between atoms: C_1  and  C_5
    2  A    between atoms: C_2  and  C_7
    3  A    between atoms: C_2  and  C_21
    4  A    between atoms: C_5  and  N_10
    5  A    between atoms: C_6  and  C_15
    6  A    between atoms: C_6  and  C_23
    7  A    between atoms: N_10  and  C_11
    8  A    between atoms: C_15  and  C_21
                            x       y       z     vdW  Elec       q    Type
                         _______ _______ _______ _____ _____    ______ ____

>  <TORSDO>
F 8

$$$$
=
 OpenBabel10272400533D

 25 27  0  0  1  0  0  0  0  0999 V2000
  187.8960  177.5730  144.6960 C   0  0  0  0  0  0  0  0  0  0  0  0
  186.6020  178.0150  144.3360 C   0  0  0  0  0  0  0  0  0  0  0  0
  187.3230  177.8490  147.0440 C   0  0  0  0  0  3  0  0  0  0  0  0
  186.0420  178.2750  146.6930 C   0  0  0  0  0  3  0  0  0  0  0  0
  184.3860  178.8120  144.9930 C   0  0  0  0  0  0  0  0  0  0  0  0
  183.4580  179.1600  145.9690 O   0  0  0  0  0  1  0  0  0  0  0  0
  186.2200  178.1260  142.9900 C   0  0  0  0  0  3  0  0  0  0  0  0
  188.2430  177.5060  146.0530 C   0  0  0  0  0  3  0  0  0  0  0  0
  184.0300  178.9140  143.6470 C   0  0  0  0  0  3  0  0  0  0  0  0
  184.9420  178.5690  142.6470 C   0  0  0  0  0  0  0  0  0  0  0  0
  185.6700  178.3650  145.3470 C   0  0  0  0  0  0  0  0  0  0  0  0
  188.9430  177.2200  143.6680 C   0  0  0  0  0  0  0  0  0  0  0  0
  189.8650  176.1160  144.1490 C   0  0  0  0  0  2  0  0  0  0  0  0
  188.9410  175.8700  142.9720 C   0  0  0  0  0  2  0  0  0  0  0  0
  189.7130  178.2990  143.0360 N   0  0  0  0  0  2  0  0  0  0  0  0
  191.6080  179.5040  144.0970 C   0  0  0  0  0  1  0  0  0  0  0  0
  191.1470  178.2630  143.3530 C   0  0  0  0  0  3  0  0  0  0  0  0
  192.0220  177.9720  142.1420 C   0  0  0  0  0  1  0  0  0  0  0  0
  184.5650  178.7060  141.2140 C   0  0  0  0  0  2  0  0  0  0  0  0
  185.7900  178.5060  140.3300 C   0  0  0  0  0  2  0  0  0  0  0  0
  185.4220  178.4100  138.8530 C   0  0  1  0  0  3  0  0  0  0  0  0
  184.6630  179.5180  138.4660 O   0  0  0  0  0  1  0  0  0  0  0  0
  186.6660  178.2860  137.9860 C   0  0  0  0  0  2  0  0  0  0  0  0
  187.8610  177.8980  138.8350 C   0  0  0  0  0  2  0  0  0  0  0  0
  189.1120  178.5300  138.2640 C   0  0  0  0  0  1  0  0  0  0  0  0
  1  8  1  0  0  0  0
  2  1  2  0  0  0  0
  2 11  1  0  0  0  0
  4  3  1  0  0  0  0
  5 11  1  0  0  0  0
  5  6  1  0  0  0  0
  7  2  1  0  0  0  0
  8  3  2  0  0  0  0
  9  5  2  0  0  0  0
 10  7  2  0  0  0  0
 10  9  1  0  0  0  0
 11  4  2  0  0  0  0
 12 13  1  0  0  0  0
 12  1  1  0  0  0  0
 14 12  1  0  0  0  0
 14 13  1  0  0  0  0
 15 17  1  0  0  0  0
 15 12  1  0  0  0  0
 17 16  1  0  0  0  0
 18 17  1  0  0  0  0
 19 10  1  0  0  0  0
 20 19  1  0  0  0  0
 21 22  1  6  0  0  0
 21 20  1  0  0  0  0
 23 24  1  0  0  0  0
 23 21  1  0  0  0  0
 25 24  1  0  0  0  0
M  END
>  <MODEL>
8

>  <REMARK>
 VINA RESULT:      -7.8      2.175      4.560
  Name = 
  8 active torsions:
  status: ('A' for Active; 'I' for Inactive)
    1  A    between atoms: C_1  and  C_5
    2  A    between atoms: C_2  and  C_7
    3  A    between atoms: C_2  and  C_21
    4  A    between atoms: C_5  and  N_10
    5  A    between atoms: C_6  and  C_15
    6  A    between atoms: C_6  and  C_23
    7  A    between atoms: N_10  and  C_11
    8  A    between atoms: C_15  and  C_21
                            x       y       z     vdW  Elec       q    Type
                         _______ _______ _______ _____ _____    ______ ____

>  <TORSDO>
F 8

$$$$
=
 OpenBabel10272400533D

 25 27  0  0  1  0  0  0  0  0999 V2000
  187.7990  177.5920  144.6910 C   0  0  0  0  0  0  0  0  0  0  0  0
  186.4950  178.0020  144.3300 C   0  0  0  0  0  0  0  0  0  0  0  0
  187.2490  177.9470  147.0330 C   0  0  0  0  0  3  0  0  0  0  0  0
  185.9580  178.3420  146.6830 C   0  0  0  0  0  3  0  0  0  0  0  0
  184.2750  178.7910  144.9830 C   0  0  0  0  0  0  0  0  0  0  0  0
  183.3530  179.1620  145.9570 O   0  0  0  0  0  1  0  0  0  0  0  0
  186.0960  178.0580  142.9860 C   0  0  0  0  0  3  0  0  0  0  0  0
  188.1630  177.5810  146.0450 C   0  0  0  0  0  3  0  0  0  0  0  0
  183.9020  178.8380  143.6380 C   0  0  0  0  0  3  0  0  0  0  0  0
  184.8080  178.4700  142.6410 C   0  0  0  0  0  0  0  0  0  0  0  0
  185.5690  178.3760  145.3380 C   0  0  0  0  0  0  0  0  0  0  0  0
  188.8400  177.2170  143.6650 C   0  0  0  0  0  0  0  0  0  0  0  0
  189.7480  176.1050  144.1540 C   0  0  0  0  0  2  0  0  0  0  0  0
  188.8190  175.8600  142.9820 C   0  0  0  0  0  2  0  0  0  0  0  0
  189.6220  178.2800  143.0210 N   0  0  0  0  0  2  0  0  0  0  0  0
  191.4930  179.5070  144.1000 C   0  0  0  0  0  1  0  0  0  0  0  0
  191.0500  178.2520  143.3670 C   0  0  0  0  0  3  0  0  0  0  0  0
  191.9490  177.9440  142.1790 C   0  0  0  0  0  1  0  0  0  0  0  0
  184.4130  178.5480  141.2090 C   0  0  0  0  0  2  0  0  0  0  0  0
  183.3320  177.5160  140.9080 C   0  0  0  0  0  2  0  0  0  0  0  0
  182.1370  178.1310  140.1870 C   0  0  1  0  0  3  0  0  0  0  0  0
  181.2380  177.1350  139.7970 O   0  0  0  0  0  1  0  0  0  0  0  0
  181.4430  179.1630  141.0630 C   0  0  0  0  0  2  0  0  0  0  0  0
  180.1280  178.6130  141.5820 C   0  0  0  0  0  2  0  0  0  0  0  0
  180.2360  178.3730  143.0730 C   0  0  0  0  0  1  0  0  0  0  0  0
  1  8  1  0  0  0  0
  2  1  2  0  0  0  0
  2 11  1  0  0  0  0
  4  3  1  0  0  0  0
  5 11  1  0  0  0  0
  5  6  1  0  0  0  0
  7  2  1  0  0  0  0
  8  3  2  0  0  0  0
  9  5  2  0  0  0  0
 10  7  2  0  0  0  0
 10  9  1  0  0  0  0
 11  4  2  0  0  0  0
 12 13  1  0  0  0  0
 12  1  1  0  0  0  0
 14 12  1  0  0  0  0
 14 13  1  0  0  0  0
 15 17  1  0  0  0  0
 15 12  1  0  0  0  0
 17 16  1  0  0  0  0
 18 17  1  0  0  0  0
 19 10  1  0  0  0  0
 20 19  1  0  0  0  0
 21 22  1  1  0  0  0
 21 20  1  0  0  0  0
 21 23  1  0  0  0  0
 23 24  1  0  0  0  0
 24 25  1  0  0  0  0
M  END
>  <MODEL>
9

>  <REMARK>
 VINA RESULT:      -7.7      2.071      3.504
  Name = 
  8 active torsions:
  status: ('A' for Active; 'I' for Inactive)
    1  A    between atoms: C_1  and  C_5
    2  A    between atoms: C_2  and  C_7
    3  A    between atoms: C_2  and  C_21
    4  A    between atoms: C_5  and  N_10
    5  A    between atoms: C_6  and  C_15
    6  A    between atoms: C_6  and  C_23
    7  A    between atoms: N_10  and  C_11
    8  A    between atoms: C_15  and  C_21
                            x       y       z     vdW  Elec       q    Type
                         _______ _______ _______ _____ _____    ______ ____

>  <TORSDO>
F 8

$$$$
