=
 OpenBabel10272400143D

 31 36  0  0  1  0  0  0  0  0999 V2000
  190.1950  177.2840  146.8600 C   0  0  0  0  0  0  0  0  0  0  0  0
  188.1770  177.6390  143.6850 N   0  0  0  0  0  0  0  0  0  0  0  0
  186.8400  178.0360  144.1070 C   0  0  0  0  0  0  0  0  0  0  0  0
  185.0840  177.7910  145.9500 C   0  0  0  0  0  3  0  0  0  0  0  0
  189.2600  177.3430  144.6070 C   0  0  0  0  0  0  0  0  0  0  0  0
  191.4160  176.8430  146.3490 C   0  0  0  0  0  3  0  0  0  0  0  0
  186.3760  177.5930  145.2830 C   0  0  0  0  0  3  0  0  0  0  0  0
  189.6540  176.7920  141.7740 C   0  0  1  0  0  3  0  0  0  0  0  0
  190.0450  177.4710  148.1920 F   0  0  0  0  0  0  0  0  0  0  0  0
  186.4000  178.8220  141.8530 C   0  0  0  0  0  3  0  0  0  0  0  0
  184.0930  178.6120  145.6240 C   0  0  0  0  0  3  0  0  0  0  0  0
  190.7080  176.7680  142.7330 O   0  0  0  0  0  0  0  0  0  0  0  0
  188.4630  177.5840  142.2690 C   0  0  0  0  0  0  0  0  0  0  0  0
  189.1300  177.5410  145.9940 C   0  0  0  0  0  3  0  0  0  0  0  0
  184.0170  179.5300  144.4890 C   0  0  0  0  0  3  0  0  0  0  0  0
  190.5050  176.9140  144.1050 C   0  0  0  0  0  0  0  0  0  0  0  0
  191.5710  176.6630  144.9740 C   0  0  0  0  0  3  0  0  0  0  0  0
  187.6090  178.1280  141.3960 C   0  0  0  0  0  3  0  0  0  0  0  0
  186.0070  178.7900  143.1270 C   0  0  0  0  0  0  0  0  0  0  0  0
  184.8190  179.5940  143.4340 C   0  0  0  0  0  3  0  0  0  0  0  0
  190.7940  176.2120  139.6780 N   0  0  0  0  0  2  0  0  0  0  0  0
  189.4560  176.7200  139.3480 C   0  0  1  0  0  3  0  0  0  0  0  0
  190.2020  177.3140  140.4500 C   0  0  1  0  0  3  0  0  0  0  0  0
  189.5420  177.6330  138.1380 C   0  0  0  0  0  2  0  0  0  0  0  0
  187.8130  176.0270  134.9650 C   0  0  2  0  0  3  0  0  0  0  0  0
  186.5330  178.1170  137.7730 C   0  0  0  0  0  1  0  0  0  0  0  0
  187.3550  174.6570  134.8340 N   0  0  0  0  0  1  0  0  0  0  0  0
  189.4420  176.0480  135.8040 S   0  0  0  0  0  0  0  0  0  0  0  0
  187.3710  177.3200  136.8350 C   0  0  0  0  0  0  0  0  0  0  0  0
  188.7530  177.0860  137.0430 N   0  0  0  0  0  0  0  0  0  0  0  0
  186.8660  176.7810  135.7800 N   0  0  0  0  0  0  0  0  0  0  0  0
  1  9  1  0  0  0  0
  2  3  1  0  0  0  0
  2  5  1  0  0  0  0
  3  7  2  0  0  0  0
  5 14  1  0  0  0  0
  6  1  1  0  0  0  0
  7  4  1  0  0  0  0
  8 13  1  1  0  0  0
  8 12  1  0  0  0  0
 10 19  2  0  0  0  0
 11  4  2  0  0  0  0
 12 16  1  0  0  0  0
 13  2  1  0  0  0  0
 14  1  2  0  0  0  0
 15 11  1  0  0  0  0
 16  5  2  0  0  0  0
 16 17  1  0  0  0  0
 17  6  2  0  0  0  0
 18 10  1  0  0  0  0
 18 13  2  0  0  0  0
 19 20  1  0  0  0  0
 19  3  1  0  0  0  0
 20 15  2  0  0  0  0
 22 24  1  6  0  0  0
 22 21  1  0  0  0  0
 22 23  1  0  0  0  0
 23 21  1  6  0  0  0
 23  8  1  0  0  0  0
 25 27  1  1  0  0  0
 25 31  1  0  0  0  0
 25 28  1  0  0  0  0
 28 30  1  0  0  0  0
 29 30  1  0  0  0  0
 29 26  1  0  0  0  0
 30 24  1  0  0  0  0
 31 29  2  0  0  0  0
M  END
>  <MODEL>
1

>  <REMARK>
 VINA RESULT:      -9.9      0.000      0.000
  Name = 
  3 active torsions:
  status: ('A' for Active; 'I' for Inactive)
    1  A    between atoms: C_3  and  C_9
    2  A    between atoms: C_3  and  N_22
    3  A    between atoms: C_15  and  C_23
                            x       y       z     vdW  Elec       q    Type
                         _______ _______ _______ _____ _____    ______ ____

>  <TORSDO>
F 3

$$$$
=
 OpenBabel10272400143D

 31 36  0  0  1  0  0  0  0  0999 V2000
  191.3050  177.4410  140.8600 C   0  0  0  0  0  0  0  0  0  0  0  0
  189.0770  177.3000  143.9080 N   0  0  0  0  0  0  0  0  0  0  0  0
  189.9410  176.9090  145.0150 C   0  0  0  0  0  0  0  0  0  0  0  0
  191.9870  175.5190  145.6610 C   0  0  0  0  0  3  0  0  0  0  0  0
  189.5290  177.4210  142.5330 C   0  0  0  0  0  0  0  0  0  0  0  0
  190.3760  177.7530  139.8670 C   0  0  0  0  0  3  0  0  0  0  0  0
  190.9790  176.1000  144.7670 C   0  0  0  0  0  3  0  0  0  0  0  0
  186.6770  177.6340  143.0830 C   0  0  1  0  0  3  0  0  0  0  0  0
  192.6130  177.2970  140.5440 F   0  0  0  0  0  0  0  0  0  0  0  0
  188.2770  177.7540  146.5670 C   0  0  0  0  0  3  0  0  0  0  0  0
  192.2260  175.7880  146.9380 C   0  0  0  0  0  3  0  0  0  0  0  0
  187.2610  177.9660  141.8260 O   0  0  0  0  0  0  0  0  0  0  0  0
  187.7010  177.6390  144.1980 C   0  0  0  0  0  0  0  0  0  0  0  0
  190.8850  177.2870  142.1830 C   0  0  0  0  0  3  0  0  0  0  0  0
  191.5250  176.7310  147.8080 C   0  0  0  0  0  3  0  0  0  0  0  0
  188.6060  177.7540  141.5220 C   0  0  0  0  0  0  0  0  0  0  0  0
  189.0300  177.9130  140.1990 C   0  0  0  0  0  3  0  0  0  0  0  0
  187.3160  177.8340  145.4630 C   0  0  0  0  0  3  0  0  0  0  0  0
  189.5230  177.3130  146.3870 C   0  0  0  0  0  0  0  0  0  0  0  0
  190.3810  177.3620  147.5770 C   0  0  0  0  0  3  0  0  0  0  0  0
  185.3820  179.5470  142.2520 N   0  0  0  0  0  2  0  0  0  0  0  0
  184.4860  178.3860  142.3300 C   0  0  1  0  0  3  0  0  0  0  0  0
  185.5090  178.5780  143.3500 C   0  0  1  0  0  3  0  0  0  0  0  0
  183.1400  178.8160  142.8840 C   0  0  0  0  0  2  0  0  0  0  0  0
  180.7030  178.6690  139.7750 C   0  0  2  0  0  3  0  0  0  0  0  0
  180.1420  178.4940  143.4550 C   0  0  0  0  0  1  0  0  0  0  0  0
  180.4180  177.5060  138.9560 N   0  0  0  0  0  1  0  0  0  0  0  0
  182.4980  178.7370  140.1370 S   0  0  0  0  0  0  0  0  0  0  0  0
  180.7270  178.5960  142.0890 C   0  0  0  0  0  0  0  0  0  0  0  0
  182.1190  178.7140  141.8530 N   0  0  0  0  0  0  0  0  0  0  0  0
  179.9820  178.5640  141.0390 N   0  0  0  0  0  0  0  0  0  0  0  0
  1 14  1  0  0  0  0
  2 13  1  0  0  0  0
  2  3  1  0  0  0  0
  3 19  1  0  0  0  0
  4 11  2  0  0  0  0
  5  2  1  0  0  0  0
  6 17  1  0  0  0  0
  6  1  2  0  0  0  0
  7  3  2  0  0  0  0
  7  4  1  0  0  0  0
  8 12  1  6  0  0  0
  8 23  1  0  0  0  0
  8 13  1  0  0  0  0
  9  1  1  0  0  0  0
 11 15  1  0  0  0  0
 13 18  2  0  0  0  0
 14  5  2  0  0  0  0
 16 12  1  0  0  0  0
 16  5  1  0  0  0  0
 17 16  2  0  0  0  0
 18 10  1  0  0  0  0
 19 10  2  0  0  0  0
 19 20  1  0  0  0  0
 20 15  2  0  0  0  0
 21 22  1  0  0  0  0
 22 24  1  1  0  0  0
 22 23  1  0  0  0  0
 23 21  1  6  0  0  0
 25 27  1  6  0  0  0
 25 28  1  0  0  0  0
 25 31  1  0  0  0  0
 28 30  1  0  0  0  0
 29 26  1  0  0  0  0
 30 29  1  0  0  0  0
 30 24  1  0  0  0  0
 31 29  2  0  0  0  0
M  END
>  <MODEL>
2

>  <REMARK>
 VINA RESULT:      -9.6      3.780      6.489
  Name = 
  3 active torsions:
  status: ('A' for Active; 'I' for Inactive)
    1  A    between atoms: C_3  and  C_9
    2  A    between atoms: C_3  and  N_22
    3  A    between atoms: C_15  and  C_23
                            x       y       z     vdW  Elec       q    Type
                         _______ _______ _______ _____ _____    ______ ____

>  <TORSDO>
F 3

$$$$
=
 OpenBabel10272400143D

 31 36  0  0  1  0  0  0  0  0999 V2000
  190.1690  177.2980  146.7000 C   0  0  0  0  0  0  0  0  0  0  0  0
  188.0600  177.6720  143.5880 N   0  0  0  0  0  0  0  0  0  0  0  0
  186.7330  178.0600  144.0520 C   0  0  0  0  0  0  0  0  0  0  0  0
  185.0330  177.7910  145.9420 C   0  0  0  0  0  3  0  0  0  0  0  0
  189.1700  177.3730  144.4760 C   0  0  0  0  0  0  0  0  0  0  0  0
  191.3770  176.8660  146.1510 C   0  0  0  0  0  3  0  0  0  0  0  0
  186.3050  177.6050  145.2360 C   0  0  0  0  0  3  0  0  0  0  0  0
  189.4850  176.8480  141.6280 C   0  0  1  0  0  3  0  0  0  0  0  0
  190.0570  177.4730  148.0380 F   0  0  0  0  0  0  0  0  0  0  0  0
  186.2270  178.8640  141.8180 C   0  0  0  0  0  3  0  0  0  0  0  0
  184.0300  178.6100  145.6520 C   0  0  0  0  0  3  0  0  0  0  0  0
  190.5660  176.8210  142.5560 O   0  0  0  0  0  0  0  0  0  0  0  0
  188.3050  177.6310  142.1640 C   0  0  0  0  0  0  0  0  0  0  0  0
  189.0790  177.5580  145.8670 C   0  0  0  0  0  3  0  0  0  0  0  0
  183.9170  179.5380  144.5280 C   0  0  0  0  0  3  0  0  0  0  0  0
  190.4020  176.9540  143.9350 C   0  0  0  0  0  0  0  0  0  0  0  0
  191.4940  176.6990  144.7710 C   0  0  0  0  0  3  0  0  0  0  0  0
  187.4240  178.1790  141.3200 C   0  0  0  0  0  3  0  0  0  0  0  0
  185.8700  178.8180  143.1030 C   0  0  0  0  0  0  0  0  0  0  0  0
  184.6880  179.6150  143.4510 C   0  0  0  0  0  3  0  0  0  0  0  0
  191.4620  177.4280  140.2930 N   0  0  0  0  0  2  0  0  0  0  0  0
  190.7470  176.3440  139.6070 C   0  0  1  0  0  3  0  0  0  0  0  0
  189.9930  177.3850  140.2930 C   0  0  1  0  0  3  0  0  0  0  0  0
  190.7230  176.6120  138.1130 C   0  0  0  0  0  2  0  0  0  0  0  0
  193.4910  174.5100  136.2280 C   0  0  2  0  0  3  0  0  0  0  0  0
  189.9200  173.8430  137.0630 C   0  0  0  0  0  1  0  0  0  0  0  0
  194.5270  173.7020  136.8420 N   0  0  0  0  0  1  0  0  0  0  0  0
  193.3230  176.0880  137.1460 S   0  0  0  0  0  0  0  0  0  0  0  0
  191.2780  174.4350  136.9060 C   0  0  0  0  0  0  0  0  0  0  0  0
  191.6310  175.7040  137.4280 N   0  0  0  0  0  0  0  0  0  0  0  0
  192.2170  173.8010  136.2930 N   0  0  0  0  0  0  0  0  0  0  0  0
  1  9  1  0  0  0  0
  2  3  1  0  0  0  0
  2  5  1  0  0  0  0
  3  7  2  0  0  0  0
  5 14  1  0  0  0  0
  6  1  1  0  0  0  0
  7  4  1  0  0  0  0
  8 13  1  1  0  0  0
  8 12  1  0  0  0  0
 10 19  2  0  0  0  0
 11  4  2  0  0  0  0
 12 16  1  0  0  0  0
 13  2  1  0  0  0  0
 14  1  2  0  0  0  0
 15 11  1  0  0  0  0
 16  5  2  0  0  0  0
 16 17  1  0  0  0  0
 17  6  2  0  0  0  0
 18 10  1  0  0  0  0
 18 13  2  0  0  0  0
 19 20  1  0  0  0  0
 19  3  1  0  0  0  0
 20 15  2  0  0  0  0
 22 24  1  6  0  0  0
 22 21  1  0  0  0  0
 22 23  1  0  0  0  0
 23 21  1  1  0  0  0
 23  8  1  0  0  0  0
 25 31  1  0  0  0  0
 25 27  1  1  0  0  0
 25 28  1  0  0  0  0
 28 30  1  0  0  0  0
 29 26  1  0  0  0  0
 29 30  1  0  0  0  0
 30 24  1  0  0  0  0
 31 29  2  0  0  0  0
M  END
>  <MODEL>
3

>  <REMARK>
 VINA RESULT:      -9.4      2.085      2.655
  Name = 
  3 active torsions:
  status: ('A' for Active; 'I' for Inactive)
    1  A    between atoms: C_3  and  C_9
    2  A    between atoms: C_3  and  N_22
    3  A    between atoms: C_15  and  C_23
                            x       y       z     vdW  Elec       q    Type
                         _______ _______ _______ _____ _____    ______ ____

>  <TORSDO>
F 3

$$$$
=
 OpenBabel10272400143D

 31 36  0  0  1  0  0  0  0  0999 V2000
  185.5300  178.2030  145.7500 C   0  0  0  0  0  0  0  0  0  0  0  0
  188.5940  177.5510  143.6370 N   0  0  0  0  0  0  0  0  0  0  0  0
  189.6330  177.1270  144.5650 C   0  0  0  0  0  0  0  0  0  0  0  0
  190.5480  177.4200  146.9350 C   0  0  0  0  0  3  0  0  0  0  0  0
  187.2590  177.9540  144.0470 C   0  0  0  0  0  0  0  0  0  0  0  0
  184.6340  178.6610  144.7830 C   0  0  0  0  0  3  0  0  0  0  0  0
  189.6330  177.6270  145.8080 C   0  0  0  0  0  3  0  0  0  0  0  0
  188.0320  178.3290  141.2630 C   0  0  1  0  0  3  0  0  0  0  0  0
  185.1390  178.1000  147.0410 F   0  0  0  0  0  0  0  0  0  0  0  0
  190.8610  176.1730  142.7010 C   0  0  0  0  0  3  0  0  0  0  0  0
  191.5320  176.5390  147.0600 C   0  0  0  0  0  3  0  0  0  0  0  0
  186.6920  178.4620  141.7320 O   0  0  0  0  0  0  0  0  0  0  0  0
  188.8840  177.5230  142.2200 C   0  0  0  0  0  0  0  0  0  0  0  0
  186.8280  177.8440  145.3810 C   0  0  0  0  0  3  0  0  0  0  0  0
  191.9830  175.5440  146.0880 C   0  0  0  0  0  3  0  0  0  0  0  0
  186.3370  178.4000  143.0790 C   0  0  0  0  0  0  0  0  0  0  0  0
  185.0360  178.7540  143.4500 C   0  0  0  0  0  3  0  0  0  0  0  0
  189.9720  176.8850  141.7770 C   0  0  0  0  0  3  0  0  0  0  0  0
  190.7300  176.2740  144.0240 C   0  0  0  0  0  0  0  0  0  0  0  0
  191.6510  175.4430  144.8080 C   0  0  0  0  0  3  0  0  0  0  0  0
  188.3080  178.7890  138.8680 N   0  0  0  0  0  2  0  0  0  0  0  0
  189.3410  177.8260  139.2730 C   0  0  1  0  0  3  0  0  0  0  0  0
  188.0080  177.7430  139.8560 C   0  0  1  0  0  3  0  0  0  0  0  0
  189.4870  176.7560  138.2060 C   0  0  0  0  0  2  0  0  0  0  0  0
  193.3960  176.5320  137.6550 C   0  0  2  0  0  3  0  0  0  0  0  0
  190.4730  175.7800  135.4680 C   0  0  0  0  0  1  0  0  0  0  0  0
  194.2650  175.4510  138.0760 N   0  0  0  0  0  1  0  0  0  0  0  0
  192.1950  176.9050  138.9880 S   0  0  0  0  0  0  0  0  0  0  0  0
  191.3710  176.1700  136.5900 C   0  0  0  0  0  0  0  0  0  0  0  0
  190.8890  176.5880  137.8550 N   0  0  0  0  0  0  0  0  0  0  0  0
  192.6530  176.1270  136.4660 N   0  0  0  0  0  0  0  0  0  0  0  0
  1  9  1  0  0  0  0
  2  5  1  0  0  0  0
  2  3  1  0  0  0  0
  3  7  2  0  0  0  0
  4 11  2  0  0  0  0
  5 14  2  0  0  0  0
  6  1  2  0  0  0  0
  7  4  1  0  0  0  0
  8 12  1  1  0  0  0
  8 13  1  0  0  0  0
 10 19  2  0  0  0  0
 12 16  1  0  0  0  0
 13  2  1  0  0  0  0
 14  1  1  0  0  0  0
 15 11  1  0  0  0  0
 16 17  2  0  0  0  0
 16  5  1  0  0  0  0
 17  6  1  0  0  0  0
 18 13  2  0  0  0  0
 18 10  1  0  0  0  0
 19  3  1  0  0  0  0
 19 20  1  0  0  0  0
 20 15  2  0  0  0  0
 21 22  1  0  0  0  0
 22 24  1  6  0  0  0
 22 23  1  0  0  0  0
 23 21  1  6  0  0  0
 23  8  1  0  0  0  0
 25 27  1  1  0  0  0
 25 28  1  0  0  0  0
 26 29  1  0  0  0  0
 29 30  1  0  0  0  0
 30 24  1  0  0  0  0
 30 28  1  0  0  0  0
 31 29  2  0  0  0  0
 31 25  1  0  0  0  0
M  END
>  <MODEL>
4

>  <REMARK>
 VINA RESULT:      -9.3      2.207      4.926
  Name = 
  3 active torsions:
  status: ('A' for Active; 'I' for Inactive)
    1  A    between atoms: C_3  and  C_9
    2  A    between atoms: C_3  and  N_22
    3  A    between atoms: C_15  and  C_23
                            x       y       z     vdW  Elec       q    Type
                         _______ _______ _______ _____ _____    ______ ____

>  <TORSDO>
F 3

$$$$
=
 OpenBabel10272400143D

 31 36  0  0  1  0  0  0  0  0999 V2000
  185.1260  178.3540  144.1220 C   0  0  0  0  0  0  0  0  0  0  0  0
  188.3960  177.7940  142.3140 N   0  0  0  0  0  0  0  0  0  0  0  0
  189.3570  177.4150  143.3410 C   0  0  0  0  0  0  0  0  0  0  0  0
  190.0340  177.7620  145.7820 C   0  0  0  0  0  3  0  0  0  0  0  0
  187.0150  178.1520  142.5920 C   0  0  0  0  0  0  0  0  0  0  0  0
  184.3090  178.7700  143.0700 C   0  0  0  0  0  3  0  0  0  0  0  0
  189.2220  177.9260  144.5720 C   0  0  0  0  0  3  0  0  0  0  0  0
  188.0330  178.5300  139.8890 C   0  0  1  0  0  3  0  0  0  0  0  0
  184.6180  178.2480  145.3720 F   0  0  0  0  0  0  0  0  0  0  0  0
  190.7870  176.4900  141.6110 C   0  0  0  0  0  3  0  0  0  0  0  0
  191.0320  176.9170  146.0100 C   0  0  0  0  0  3  0  0  0  0  0  0
  186.6510  178.6190  140.2280 O   0  0  0  0  0  0  0  0  0  0  0  0
  188.8190  177.7630  140.9310 C   0  0  0  0  0  0  0  0  0  0  0  0
  186.4650  178.0380  143.8820 C   0  0  0  0  0  3  0  0  0  0  0  0
  191.6070  175.9310  145.0970 C   0  0  0  0  0  3  0  0  0  0  0  0
  186.1730  178.5560  141.5370 C   0  0  0  0  0  0  0  0  0  0  0  0
  184.8320  178.8660  141.7800 C   0  0  0  0  0  3  0  0  0  0  0  0
  189.9660  177.1610  140.5990 C   0  0  0  0  0  3  0  0  0  0  0  0
  190.5290  176.5980  142.9150 C   0  0  0  0  0  0  0  0  0  0  0  0
  191.4010  175.8070  143.7920 C   0  0  0  0  0  3  0  0  0  0  0  0
  187.4830  178.7880  137.5110 N   0  0  0  0  0  2  0  0  0  0  0  0
  188.9440  178.8270  137.6500 C   0  0  1  0  0  3  0  0  0  0  0  0
  188.1620  177.9310  138.4930 C   0  0  1  0  0  3  0  0  0  0  0  0
  189.5850  178.0270  136.5310 C   0  0  0  0  0  2  0  0  0  0  0  0
  189.0960  174.1890  137.3460 C   0  0  2  0  0  3  0  0  0  0  0  0
  191.9560  176.5380  137.7880 C   0  0  0  0  0  1  0  0  0  0  0  0
  189.2200  173.0870  136.4120 N   0  0  0  0  0  1  0  0  0  0  0  0
  188.1960  175.5700  136.5450 S   0  0  0  0  0  0  0  0  0  0  0  0
  190.6460  175.9060  137.4690 C   0  0  0  0  0  0  0  0  0  0  0  0
  189.5770  176.6100  136.8610 N   0  0  0  0  0  0  0  0  0  0  0  0
  190.4250  174.6620  137.7210 N   0  0  0  0  0  0  0  0  0  0  0  0
  1  9  1  0  0  0  0
  2  5  1  0  0  0  0
  2  3  1  0  0  0  0
  3  7  2  0  0  0  0
  4 11  2  0  0  0  0
  5 14  2  0  0  0  0
  6  1  2  0  0  0  0
  7  4  1  0  0  0  0
  8 12  1  1  0  0  0
  8 13  1  0  0  0  0
 10 19  2  0  0  0  0
 12 16  1  0  0  0  0
 13  2  1  0  0  0  0
 14  1  1  0  0  0  0
 15 11  1  0  0  0  0
 16 17  2  0  0  0  0
 16  5  1  0  0  0  0
 17  6  1  0  0  0  0
 18 13  2  0  0  0  0
 18 10  1  0  0  0  0
 19  3  1  0  0  0  0
 19 20  1  0  0  0  0
 20 15  2  0  0  0  0
 21 22  1  0  0  0  0
 22 24  1  6  0  0  0
 22 23  1  0  0  0  0
 23 21  1  6  0  0  0
 23  8  1  0  0  0  0
 24 30  1  0  0  0  0
 25 27  1  6  0  0  0
 25 31  1  0  0  0  0
 28 30  1  0  0  0  0
 28 25  1  0  0  0  0
 29 31  2  0  0  0  0
 29 26  1  0  0  0  0
 30 29  1  0  0  0  0
M  END
>  <MODEL>
5

>  <REMARK>
 VINA RESULT:      -9.3      2.115      4.730
  Name = 
  3 active torsions:
  status: ('A' for Active; 'I' for Inactive)
    1  A    between atoms: C_3  and  C_9
    2  A    between atoms: C_3  and  N_22
    3  A    between atoms: C_15  and  C_23
                            x       y       z     vdW  Elec       q    Type
                         _______ _______ _______ _____ _____    ______ ____

>  <TORSDO>
F 3

$$$$
=
 OpenBabel10272400143D

 31 36  0  0  1  0  0  0  0  0999 V2000
  185.0220  178.3450  146.1810 C   0  0  0  0  0  0  0  0  0  0  0  0
  187.1960  178.0500  143.1050 N   0  0  0  0  0  0  0  0  0  0  0  0
  188.5130  177.6520  143.5860 C   0  0  0  0  0  0  0  0  0  0  0  0
  190.1740  177.8780  145.5170 C   0  0  0  0  0  3  0  0  0  0  0  0
  186.0670  178.3260  143.9760 C   0  0  0  0  0  0  0  0  0  0  0  0
  183.8250  178.7880  145.6180 C   0  0  0  0  0  3  0  0  0  0  0  0
  188.9160  178.0790  144.7900 C   0  0  0  0  0  3  0  0  0  0  0  0
  185.8100  178.9190  141.1360 C   0  0  1  0  0  3  0  0  0  0  0  0
  185.1070  178.1380  147.5160 F   0  0  0  0  0  0  0  0  0  0  0  0
  189.0680  176.9040  141.3440 C   0  0  0  0  0  3  0  0  0  0  0  0
  191.1850  177.0670  145.2280 C   0  0  0  0  0  3  0  0  0  0  0  0
  184.7100  178.9230  142.0420 O   0  0  0  0  0  0  0  0  0  0  0  0
  186.9800  178.1250  141.6770 C   0  0  0  0  0  0  0  0  0  0  0  0
  186.1300  178.1070  145.3650 C   0  0  0  0  0  3  0  0  0  0  0  0
  191.3220  176.1670  144.0840 C   0  0  0  0  0  3  0  0  0  0  0  0
  184.8460  178.7560  143.4210 C   0  0  0  0  0  0  0  0  0  0  0  0
  183.7370  178.9890  144.2400 C   0  0  0  0  0  3  0  0  0  0  0  0
  187.8790  177.5990  140.8390 C   0  0  0  0  0  3  0  0  0  0  0  0
  189.3980  176.9180  142.6370 C   0  0  0  0  0  0  0  0  0  0  0  0
  190.5740  176.1150  142.9900 C   0  0  0  0  0  3  0  0  0  0  0  0
  184.8560  179.5400  138.9610 N   0  0  0  0  0  2  0  0  0  0  0  0
  186.1850  178.9580  138.7300 C   0  0  1  0  0  3  0  0  0  0  0  0
  185.3310  178.4140  139.7790 C   0  0  1  0  0  3  0  0  0  0  0  0
  186.1370  178.0410  137.5220 C   0  0  0  0  0  2  0  0  0  0  0  0
  189.8760  177.0000  136.7650 C   0  0  2  0  0  3  0  0  0  0  0  0
  186.6920  175.0730  136.9710 C   0  0  0  0  0  1  0  0  0  0  0  0
  190.9180  176.7570  137.7440 N   0  0  0  0  0  1  0  0  0  0  0  0
  188.9120  178.4810  137.2540 S   0  0  0  0  0  0  0  0  0  0  0  0
  187.7390  176.1330  136.9710 C   0  0  0  0  0  0  0  0  0  0  0  0
  187.4590  177.4930  137.2580 N   0  0  0  0  0  0  0  0  0  0  0  0
  188.9710  175.8560  136.7220 N   0  0  0  0  0  0  0  0  0  0  0  0
  1  9  1  0  0  0  0
  2  3  1  0  0  0  0
  2  5  1  0  0  0  0
  3  7  2  0  0  0  0
  5 14  1  0  0  0  0
  6  1  1  0  0  0  0
  7  4  1  0  0  0  0
  8 13  1  1  0  0  0
  8 12  1  0  0  0  0
 10 19  2  0  0  0  0
 11  4  2  0  0  0  0
 12 16  1  0  0  0  0
 13  2  1  0  0  0  0
 14  1  2  0  0  0  0
 15 11  1  0  0  0  0
 16  5  2  0  0  0  0
 16 17  1  0  0  0  0
 17  6  2  0  0  0  0
 18 10  1  0  0  0  0
 18 13  2  0  0  0  0
 19 20  1  0  0  0  0
 19  3  1  0  0  0  0
 20 15  2  0  0  0  0
 22 24  1  6  0  0  0
 22 21  1  0  0  0  0
 22 23  1  0  0  0  0
 23 21  1  6  0  0  0
 23  8  1  0  0  0  0
 25 28  1  0  0  0  0
 25 27  1  1  0  0  0
 28 30  1  0  0  0  0
 29 26  1  0  0  0  0
 29 30  1  0  0  0  0
 30 24  1  0  0  0  0
 31 25  1  0  0  0  0
 31 29  2  0  0  0  0
M  END
>  <MODEL>
6

>  <REMARK>
 VINA RESULT:      -9.2      2.092      4.731
  Name = 
  3 active torsions:
  status: ('A' for Active; 'I' for Inactive)
    1  A    between atoms: C_3  and  C_9
    2  A    between atoms: C_3  and  N_22
    3  A    between atoms: C_15  and  C_23
                            x       y       z     vdW  Elec       q    Type
                         _______ _______ _______ _____ _____    ______ ____

>  <TORSDO>
F 3

$$$$
=
 OpenBabel10272400143D

 31 36  0  0  1  0  0  0  0  0999 V2000
  182.8420  178.6120  143.8650 C   0  0  0  0  0  0  0  0  0  0  0  0
  186.5770  178.1900  143.4770 N   0  0  0  0  0  0  0  0  0  0  0  0
  187.1020  178.0390  144.8280 C   0  0  0  0  0  0  0  0  0  0  0  0
  186.7930  178.7410  147.2670 C   0  0  0  0  0  3  0  0  0  0  0  0
  185.1760  178.4310  143.1770 C   0  0  0  0  0  0  0  0  0  0  0  0
  182.4590  178.8140  142.5390 C   0  0  0  0  0  3  0  0  0  0  0  0
  186.4870  178.6750  145.8340 C   0  0  0  0  0  3  0  0  0  0  0  0
  187.1120  178.5930  141.0060 C   0  0  1  0  0  3  0  0  0  0  0  0
  181.9090  178.6020  144.8460 F   0  0  0  0  0  0  0  0  0  0  0  0
  189.1240  177.0710  143.8960 C   0  0  0  0  0  3  0  0  0  0  0  0
  187.6760  178.0390  147.9660 C   0  0  0  0  0  3  0  0  0  0  0  0
  185.7010  178.5750  140.8020 O   0  0  0  0  0  0  0  0  0  0  0  0
  187.4890  178.0410  142.3650 C   0  0  0  0  0  0  0  0  0  0  0  0
  184.1880  178.4130  144.1790 C   0  0  0  0  0  3  0  0  0  0  0  0
  188.6040  177.0170  147.4820 C   0  0  0  0  0  3  0  0  0  0  0  0
  184.7710  178.6170  141.8400 C   0  0  0  0  0  0  0  0  0  0  0  0
  183.4220  178.8110  141.5280 C   0  0  0  0  0  3  0  0  0  0  0  0
  188.7070  177.5290  142.5670 C   0  0  0  0  0  3  0  0  0  0  0  0
  188.3900  177.3050  144.9850 C   0  0  0  0  0  0  0  0  0  0  0  0
  188.9100  176.7190  146.2260 C   0  0  0  0  0  3  0  0  0  0  0  0
  188.5840  178.7850  139.0510 N   0  0  0  0  0  2  0  0  0  0  0  0
  189.2340  177.9040  140.0300 C   0  0  1  0  0  3  0  0  0  0  0  0
  187.7870  177.8500  139.8590 C   0  0  1  0  0  3  0  0  0  0  0  0
  189.8660  176.7250  139.3140 C   0  0  0  0  0  2  0  0  0  0  0  0
  193.7510  177.3770  139.6580 C   0  0  2  0  0  3  0  0  0  0  0  0
  191.6480  175.9170  136.9490 C   0  0  0  0  0  1  0  0  0  0  0  0
  194.7090  176.5340  140.3460 N   0  0  0  0  0  1  0  0  0  0  0  0
  192.2210  177.5070  140.6590 S   0  0  0  0  0  0  0  0  0  0  0  0
  192.1560  176.5330  138.2060 C   0  0  0  0  0  0  0  0  0  0  0  0
  191.3140  176.8690  139.2960 N   0  0  0  0  0  0  0  0  0  0  0  0
  193.4090  176.7790  138.3720 N   0  0  0  0  0  0  0  0  0  0  0  0
  1 14  1  0  0  0  0
  1  9  1  0  0  0  0
  2  3  1  0  0  0  0
  3 19  1  0  0  0  0
  3  7  2  0  0  0  0
  4 11  2  0  0  0  0
  5  2  1  0  0  0  0
  5 14  2  0  0  0  0
  6  1  2  0  0  0  0
  7  4  1  0  0  0  0
  8 12  1  6  0  0  0
  8 13  1  0  0  0  0
 10 19  2  0  0  0  0
 12 16  1  0  0  0  0
 13 18  2  0  0  0  0
 13  2  1  0  0  0  0
 15 11  1  0  0  0  0
 16  5  1  0  0  0  0
 17 16  2  0  0  0  0
 17  6  1  0  0  0  0
 18 10  1  0  0  0  0
 19 20  1  0  0  0  0
 20 15  2  0  0  0  0
 21 22  1  0  0  0  0
 22 24  1  6  0  0  0
 23 21  1  6  0  0  0
 23 22  1  0  0  0  0
 23  8  1  0  0  0  0
 25 27  1  1  0  0  0
 25 28  1  0  0  0  0
 26 29  1  0  0  0  0
 29 31  2  0  0  0  0
 29 30  1  0  0  0  0
 30 24  1  0  0  0  0
 30 28  1  0  0  0  0
 31 25  1  0  0  0  0
M  END
>  <MODEL>
7

>  <REMARK>
 VINA RESULT:      -9.2      3.009      5.407
  Name = 
  3 active torsions:
  status: ('A' for Active; 'I' for Inactive)
    1  A    between atoms: C_3  and  C_9
    2  A    between atoms: C_3  and  N_22
    3  A    between atoms: C_15  and  C_23
                            x       y       z     vdW  Elec       q    Type
                         _______ _______ _______ _____ _____    ______ ____

>  <TORSDO>
F 3

$$$$
=
 OpenBabel10272400143D

 31 36  0  0  1  0  0  0  0  0999 V2000
  185.3030  178.1410  145.8360 C   0  0  0  0  0  0  0  0  0  0  0  0
  188.6120  177.6560  144.0780 N   0  0  0  0  0  0  0  0  0  0  0  0
  189.5720  177.3220  145.1230 C   0  0  0  0  0  0  0  0  0  0  0  0
  190.2050  177.7250  147.5670 C   0  0  0  0  0  3  0  0  0  0  0  0
  187.2180  177.9750  144.3330 C   0  0  0  0  0  0  0  0  0  0  0  0
  184.4880  178.5170  144.7670 C   0  0  0  0  0  3  0  0  0  0  0  0
  189.4050  177.8460  146.3440 C   0  0  0  0  0  3  0  0  0  0  0  0
  188.2590  178.3450  141.6380 C   0  0  1  0  0  3  0  0  0  0  0  0
  184.7830  178.0370  147.0810 F   0  0  0  0  0  0  0  0  0  0  0  0
  191.0520  176.4160  143.4250 C   0  0  0  0  0  3  0  0  0  0  0  0
  191.2250  176.9150  147.8200 C   0  0  0  0  0  3  0  0  0  0  0  0
  186.8710  178.3970  141.9580 O   0  0  0  0  0  0  0  0  0  0  0  0
  189.0540  177.6180  142.7010 C   0  0  0  0  0  0  0  0  0  0  0  0
  186.6540  177.8630  145.6170 C   0  0  0  0  0  3  0  0  0  0  0  0
  191.8420  175.9330  146.9290 C   0  0  0  0  0  3  0  0  0  0  0  0
  186.3780  178.3380  143.2620 C   0  0  0  0  0  0  0  0  0  0  0  0
  185.0250  178.6100  143.4820 C   0  0  0  0  0  3  0  0  0  0  0  0
  190.2240  177.0470  142.3930 C   0  0  0  0  0  3  0  0  0  0  0  0
  190.7740  176.5350  144.7240 C   0  0  0  0  0  0  0  0  0  0  0  0
  191.6570  175.7840  145.6240 C   0  0  0  0  0  3  0  0  0  0  0  0
  187.5490  178.4120  139.2890 N   0  0  0  0  0  2  0  0  0  0  0  0
  188.9820  178.7240  139.3440 C   0  0  1  0  0  3  0  0  0  0  0  0
  188.4250  177.7300  140.2520 C   0  0  1  0  0  3  0  0  0  0  0  0
  189.7020  178.0160  138.2100 C   0  0  0  0  0  2  0  0  0  0  0  0
  186.8420  176.7360  135.7990 C   0  0  2  0  0  3  0  0  0  0  0  0
  189.6560  175.0210  137.5400 C   0  0  0  0  0  1  0  0  0  0  0  0
  186.8400  176.8070  134.3500 N   0  0  0  0  0  1  0  0  0  0  0  0
  187.4870  178.3090  136.4860 S   0  0  0  0  0  0  0  0  0  0  0  0
  188.6740  176.0110  137.0150 C   0  0  0  0  0  0  0  0  0  0  0  0
  188.7370  177.3940  137.3160 N   0  0  0  0  0  0  0  0  0  0  0  0
  187.7150  175.6510  136.2340 N   0  0  0  0  0  0  0  0  0  0  0  0
  1  9  1  0  0  0  0
  2  5  1  0  0  0  0
  2  3  1  0  0  0  0
  3  7  2  0  0  0  0
  4 11  2  0  0  0  0
  5 14  2  0  0  0  0
  6  1  2  0  0  0  0
  7  4  1  0  0  0  0
  8 12  1  1  0  0  0
  8 13  1  0  0  0  0
 10 19  2  0  0  0  0
 12 16  1  0  0  0  0
 13  2  1  0  0  0  0
 14  1  1  0  0  0  0
 15 11  1  0  0  0  0
 16 17  2  0  0  0  0
 16  5  1  0  0  0  0
 17  6  1  0  0  0  0
 18 13  2  0  0  0  0
 18 10  1  0  0  0  0
 19  3  1  0  0  0  0
 19 20  1  0  0  0  0
 20 15  2  0  0  0  0
 21 22  1  0  0  0  0
 22 24  1  6  0  0  0
 22 23  1  0  0  0  0
 23 21  1  6  0  0  0
 23  8  1  0  0  0  0
 25 27  1  6  0  0  0
 25 31  1  0  0  0  0
 25 28  1  0  0  0  0
 28 30  1  0  0  0  0
 29 30  1  0  0  0  0
 29 26  1  0  0  0  0
 30 24  1  0  0  0  0
 31 29  2  0  0  0  0
M  END
>  <MODEL>
8

>  <REMARK>
 VINA RESULT:      -9.1      1.814      4.394
  Name = 
  3 active torsions:
  status: ('A' for Active; 'I' for Inactive)
    1  A    between atoms: C_3  and  C_9
    2  A    between atoms: C_3  and  N_22
    3  A    between atoms: C_15  and  C_23
                            x       y       z     vdW  Elec       q    Type
                         _______ _______ _______ _____ _____    ______ ____

>  <TORSDO>
F 3

$$$$
=
 OpenBabel10272400143D

 31 36  0  0  1  0  0  0  0  0999 V2000
  183.4380  178.4990  142.8820 C   0  0  0  0  0  0  0  0  0  0  0  0
  187.1750  178.3030  143.4060 N   0  0  0  0  0  0  0  0  0  0  0  0
  187.3660  178.1540  144.8430 C   0  0  0  0  0  0  0  0  0  0  0  0
  186.4360  178.7860  147.1390 C   0  0  0  0  0  3  0  0  0  0  0  0
  185.8750  178.4680  142.7780 C   0  0  0  0  0  0  0  0  0  0  0  0
  183.3740  178.7050  141.5030 C   0  0  0  0  0  3  0  0  0  0  0  0
  186.4890  178.7320  145.6750 C   0  0  0  0  0  3  0  0  0  0  0  0
  188.2630  178.7880  141.1410 C   0  0  1  0  0  3  0  0  0  0  0  0
  182.2990  178.4130  143.6070 F   0  0  0  0  0  0  0  0  0  0  0  0
  189.6090  177.3260  144.4220 C   0  0  0  0  0  3  0  0  0  0  0  0
  187.1660  178.1220  148.0270 C   0  0  0  0  0  3  0  0  0  0  0  0
  186.9480  178.6930  140.6010 O   0  0  0  0  0  0  0  0  0  0  0  0
  188.3350  178.2310  142.5470 C   0  0  0  0  0  0  0  0  0  0  0  0
  184.6780  178.3720  143.5110 C   0  0  0  0  0  3  0  0  0  0  0  0
  188.2440  177.1660  147.7760 C   0  0  0  0  0  3  0  0  0  0  0  0
  185.7940  178.6580  141.3840 C   0  0  0  0  0  0  0  0  0  0  0  0
  184.5500  178.7800  140.7560 C   0  0  0  0  0  3  0  0  0  0  0  0
  189.4980  177.7860  143.0340 C   0  0  0  0  0  3  0  0  0  0  0  0
  188.6210  177.4940  145.3030 C   0  0  0  0  0  0  0  0  0  0  0  0
  188.8620  176.9130  146.6290 C   0  0  0  0  0  3  0  0  0  0  0  0
  188.8200  176.7250  139.9340 N   0  0  0  0  0  2  0  0  0  0  0  0
  188.5540  177.7770  138.9450 C   0  0  1  0  0  3  0  0  0  0  0  0
  189.2410  178.1100  140.1860 C   0  0  1  0  0  3  0  0  0  0  0  0
  189.5700  177.6900  137.8200 C   0  0  0  0  0  2  0  0  0  0  0  0
  189.9710  173.8490  136.9710 C   0  0  2  0  0  3  0  0  0  0  0  0
  192.2660  176.3740  138.4700 C   0  0  0  0  0  1  0  0  0  0  0  0
  190.2880  173.2810  135.6740 N   0  0  0  0  0  1  0  0  0  0  0  0
  188.7540  175.2030  136.7620 S   0  0  0  0  0  0  0  0  0  0  0  0
  191.1120  175.6580  137.8590 C   0  0  0  0  0  0  0  0  0  0  0  0
  189.8880  176.2970  137.5410 N   0  0  0  0  0  0  0  0  0  0  0  0
  191.1800  174.4050  137.5690 N   0  0  0  0  0  0  0  0  0  0  0  0
  1 14  1  0  0  0  0
  1  9  1  0  0  0  0
  2  3  1  0  0  0  0
  3 19  1  0  0  0  0
  3  7  2  0  0  0  0
  4 11  2  0  0  0  0
  5  2  1  0  0  0  0
  5 14  2  0  0  0  0
  6  1  2  0  0  0  0
  7  4  1  0  0  0  0
  8 12  1  6  0  0  0
  8 13  1  0  0  0  0
 10 19  2  0  0  0  0
 12 16  1  0  0  0  0
 13 18  2  0  0  0  0
 13  2  1  0  0  0  0
 15 11  1  0  0  0  0
 16  5  1  0  0  0  0
 17 16  2  0  0  0  0
 17  6  1  0  0  0  0
 18 10  1  0  0  0  0
 19 20  1  0  0  0  0
 20 15  2  0  0  0  0
 22 24  1  6  0  0  0
 22 21  1  0  0  0  0
 22 23  1  0  0  0  0
 23 21  1  1  0  0  0
 23  8  1  0  0  0  0
 25 27  1  6  0  0  0
 25 31  1  0  0  0  0
 28 25  1  0  0  0  0
 28 30  1  0  0  0  0
 29 26  1  0  0  0  0
 30 24  1  0  0  0  0
 30 29  1  0  0  0  0
 31 29  2  0  0  0  0
M  END
>  <MODEL>
9

>  <REMARK>
 VINA RESULT:      -9.0      2.577      4.619
  Name = 
  3 active torsions:
  status: ('A' for Active; 'I' for Inactive)
    1  A    between atoms: C_3  and  C_9
    2  A    between atoms: C_3  and  N_22
    3  A    between atoms: C_15  and  C_23
                            x       y       z     vdW  Elec       q    Type
                         _______ _______ _______ _____ _____    ______ ____

>  <TORSDO>
F 3

$$$$
