=
 OpenBabel10272402123D

 32 38  0  0  1  0  0  0  0  0999 V2000
  184.9980  178.5340  143.3520 C   0  0  0  0  0  0  0  0  0  0  0  0
  187.3290  177.9050  143.7610 C   0  0  0  0  0  0  0  0  0  0  0  0
  183.7270  178.8400  143.8630 C   0  0  0  0  0  3  0  0  0  0  0  0
  186.0490  178.2260  144.2510 C   0  0  1  0  0  3  0  0  0  0  0  0
  188.4170  177.4260  144.7070 C   0  0  0  0  0  0  0  0  0  0  0  0
  190.5240  176.6160  140.2080 C   0  0  0  0  0  2  0  0  0  0  0  0
  187.5810  177.9620  142.3720 C   0  0  0  0  0  0  0  0  0  0  0  0
  191.4460  177.5850  142.3710 C   0  0  0  0  0  2  0  0  0  0  0  0
  190.0140  177.3340  142.8530 C   0  0  1  0  0  3  0  0  0  0  0  0
  185.8210  178.2800  145.6370 C   0  0  0  0  0  0  0  0  0  0  0  0
  189.7800  177.9170  144.2370 C   0  0  0  0  0  2  0  0  0  0  0  0
  186.9210  178.0560  146.5840 C   0  0  0  0  0  3  0  0  0  0  0  0
  184.5510  178.5940  146.1260 C   0  0  0  0  0  3  0  0  0  0  0  0
  186.5430  178.3000  141.4980 C   0  0  0  0  0  3  0  0  0  0  0  0
  185.2470  178.5520  141.9670 C   0  0  0  0  0  0  0  0  0  0  0  0
  188.9950  177.8740  141.8380 C   0  0  1  0  0  3  0  0  0  0  0  0
  188.1430  177.7020  146.1780 C   0  0  0  0  0  0  0  0  0  0  0  0
  183.5040  178.8640  145.2420 C   0  0  0  0  0  3  0  0  0  0  0  0
  191.5800  177.5280  140.8400 C   0  0  0  0  0  2  0  0  0  0  0  0
  189.0960  177.0970  140.5150 C   0  0  0  0  0  2  0  0  0  0  0  0
  182.2890  177.8980  139.8160 N   0  0  0  0  0  0  0  0  0  0  0  0
  181.6170  176.6090  139.7440 C   0  0  0  0  0  1  0  0  0  0  0  0
  183.2980  177.9070  138.7580 C   0  0  2  0  0  3  0  0  0  0  0  0
  184.1550  178.8940  140.9900 C   0  0  1  0  0  3  0  0  0  0  0  0
  184.7630  178.8500  139.2890 S   0  0  0  0  0  0  0  0  0  0  0  0
  182.9830  177.9410  141.0960 C   0  0  1  0  0  3  0  0  0  0  0  0
  182.0390  178.4250  142.1850 C   0  0  0  0  0  1  0  0  0  0  0  0
  182.9770  177.6290  136.3120 C   0  0  0  0  0  2  0  0  0  0  0  0
  182.7270  178.5410  137.4970 C   0  0  0  0  0  3  0  0  0  0  0  0
  181.6080  177.6760  136.9520 C   0  0  0  0  0  2  0  0  0  0  0  0
  189.1170  177.4200  147.1900 N   0  0  0  0  0  2  0  0  0  0  0  0
  189.1780  178.0980  148.4740 C   0  0  0  0  0  1  0  0  0  0  0  0
  1  3  2  0  0  0  0
  2  4  1  0  0  0  0
  2  5  1  0  0  0  0
  3 18  1  0  0  0  0
  4  1  1  1  0  0  0
  4 10  1  0  0  0  0
  5 17  2  0  0  0  0
  6 20  1  0  0  0  0
  6 19  1  0  0  0  0
  7  2  2  0  0  0  0
  9  8  1  6  0  0  0
  9 11  1  0  0  0  0
 10 13  1  0  0  0  0
 10 12  2  0  0  0  0
 11  5  1  0  0  0  0
 14 15  2  0  0  0  0
 14  7  1  0  0  0  0
 15  1  1  0  0  0  0
 16 20  1  6  0  0  0
 16  7  1  0  0  0  0
 16  9  1  0  0  0  0
 17 12  1  0  0  0  0
 17 31  1  0  0  0  0
 18 13  2  0  0  0  0
 19  8  1  0  0  0  0
 21 26  1  0  0  0  0
 22 21  1  0  0  0  0
 23 29  1  6  0  0  0
 23 25  1  0  0  0  0
 23 21  1  0  0  0  0
 24 26  1  0  0  0  0
 24 15  1  1  0  0  0
 25 24  1  0  0  0  0
 26 27  1  1  0  0  0
 28 30  1  0  0  0  0
 28 29  1  0  0  0  0
 30 29  1  0  0  0  0
 31 32  1  0  0  0  0
M  END
>  <MODEL>
1

>  <REMARK>
 VINA RESULT:     -10.9      0.000      0.000
  Name = 
  3 active torsions:
  status: ('A' for Active; 'I' for Inactive)
    1  A    between atoms: N_13  and  C_29
    2  A    between atoms: C_15  and  C_19
    3  A    between atoms: C_16  and  C_27
                            x       y       z     vdW  Elec       q    Type
                         _______ _______ _______ _____ _____    ______ ____

>  <TORSDO>
F 3

$$$$
=
 OpenBabel10272402123D

 32 38  0  0  1  0  0  0  0  0999 V2000
  187.4030  178.4570  141.7240 C   0  0  0  0  0  0  0  0  0  0  0  0
  188.2630  177.7890  139.5310 C   0  0  0  0  0  0  0  0  0  0  0  0
  186.3440  178.9480  142.5030 C   0  0  0  0  0  3  0  0  0  0  0  0
  187.2110  178.2700  140.3340 C   0  0  0  0  0  0  0  0  0  0  0  0
  188.1120  177.7310  138.0200 C   0  0  1  0  0  3  0  0  0  0  0  0
  193.0020  176.6960  138.6170 C   0  0  0  0  0  2  0  0  0  0  0  0
  189.4900  177.4270  140.1290 C   0  0  0  0  0  0  0  0  0  0  0  0
  191.2150  175.6750  137.1240 C   0  0  0  0  0  2  0  0  0  0  0  0
  190.3310  176.7130  137.8210 C   0  0  1  0  0  3  0  0  0  0  0  0
  185.9520  178.5260  139.7620 C   0  0  0  0  0  0  0  0  0  0  0  0
  188.8660  176.5300  137.4600 C   0  0  0  0  0  2  0  0  0  0  0  0
  185.7070  178.2470  138.3410 C   0  0  0  0  0  3  0  0  0  0  0  0
  184.9080  179.0060  140.5560 C   0  0  0  0  0  3  0  0  0  0  0  0
  189.6560  177.5860  141.5080 C   0  0  0  0  0  3  0  0  0  0  0  0
  188.6420  178.1290  142.3080 C   0  0  0  0  0  0  0  0  0  0  0  0
  190.5420  176.6750  139.3420 C   0  0  1  0  0  3  0  0  0  0  0  0
  186.6790  177.8370  137.5220 C   0  0  0  0  0  0  0  0  0  0  0  0
  185.1050  179.2260  141.9200 C   0  0  0  0  0  3  0  0  0  0  0  0
  192.5570  175.4520  137.8420 C   0  0  0  0  0  2  0  0  0  0  0  0
  191.9790  177.0980  139.6920 C   0  0  0  0  0  2  0  0  0  0  0  0
  190.3910  177.6560  145.5520 N   0  0  0  0  0  0  0  0  0  0  0  0
  191.6260  176.9000  145.6950 C   0  0  0  0  0  1  0  0  0  0  0  0
  189.2940  176.7180  145.7860 C   0  0  2  0  0  3  0  0  0  0  0  0
  188.8700  178.3010  143.7860 C   0  0  1  0  0  3  0  0  0  0  0  0
  187.8640  177.1430  144.7400 S   0  0  0  0  0  0  0  0  0  0  0  0
  190.3210  178.0880  144.1630 C   0  0  1  0  0  3  0  0  0  0  0  0
  191.0830  179.3910  143.9820 C   0  0  0  0  0  1  0  0  0  0  0  0
  188.9690  178.1850  147.7630 C   0  0  0  0  0  2  0  0  0  0  0  0
  188.8720  176.7620  147.2480 C   0  0  0  0  0  3  0  0  0  0  0  0
  187.6210  177.6070  147.3940 C   0  0  0  0  0  2  0  0  0  0  0  0
  186.3510  177.6830  136.1360 N   0  0  0  0  0  2  0  0  0  0  0  0
  185.2950  176.8160  135.6390 C   0  0  0  0  0  1  0  0  0  0  0  0
  1 15  1  0  0  0  0
  1  3  2  0  0  0  0
  2  7  2  0  0  0  0
  2  4  1  0  0  0  0
  4  1  1  0  0  0  0
  5 11  1  1  0  0  0
  5  2  1  0  0  0  0
  6 20  1  0  0  0  0
  7 14  1  0  0  0  0
  8 19  1  0  0  0  0
  9  8  1  6  0  0  0
  9 16  1  0  0  0  0
 10  4  2  0  0  0  0
 10 13  1  0  0  0  0
 11  9  1  0  0  0  0
 12 10  1  0  0  0  0
 13 18  2  0  0  0  0
 14 15  2  0  0  0  0
 16 20  1  6  0  0  0
 16  7  1  0  0  0  0
 17  5  1  0  0  0  0
 17 12  2  0  0  0  0
 18  3  1  0  0  0  0
 19  6  1  0  0  0  0
 21 22  1  0  0  0  0
 21 23  1  0  0  0  0
 23 29  1  1  0  0  0
 24 15  1  6  0  0  0
 24 26  1  0  0  0  0
 24 25  1  0  0  0  0
 25 23  1  0  0  0  0
 26 27  1  1  0  0  0
 26 21  1  0  0  0  0
 29 30  1  0  0  0  0
 29 28  1  0  0  0  0
 30 28  1  0  0  0  0
 31 17  1  0  0  0  0
 32 31  1  0  0  0  0
M  END
>  <MODEL>
2

>  <REMARK>
 VINA RESULT:     -10.8      2.576      7.511
  Name = 
  3 active torsions:
  status: ('A' for Active; 'I' for Inactive)
    1  A    between atoms: N_13  and  C_29
    2  A    between atoms: C_15  and  C_19
    3  A    between atoms: C_16  and  C_27
                            x       y       z     vdW  Elec       q    Type
                         _______ _______ _______ _____ _____    ______ ____

>  <TORSDO>
F 3

$$$$
=
 OpenBabel10272402123D

 32 38  0  0  1  0  0  0  0  0999 V2000
  188.0860  177.9050  141.0740 C   0  0  0  0  0  0  0  0  0  0  0  0
  188.2330  177.4790  143.4810 C   0  0  0  0  0  0  0  0  0  0  0  0
  187.3280  178.3280  139.9710 C   0  0  0  0  0  3  0  0  0  0  0  0
  187.4960  177.9100  142.3620 C   0  0  1  0  0  3  0  0  0  0  0  0
  187.5610  177.3370  144.8360 C   0  0  0  0  0  0  0  0  0  0  0  0
  192.0480  175.2170  145.6750 C   0  0  0  0  0  2  0  0  0  0  0  0
  189.5870  177.1080  143.3260 C   0  0  0  0  0  0  0  0  0  0  0  0
  190.6400  176.8250  147.0530 C   0  0  0  0  0  2  0  0  0  0  0  0
  189.6990  176.7070  145.8500 C   0  0  1  0  0  3  0  0  0  0  0  0
  186.1830  178.3870  142.5260 C   0  0  0  0  0  0  0  0  0  0  0  0
  188.5410  177.6860  145.9500 C   0  0  0  0  0  2  0  0  0  0  0  0
  185.5890  178.4880  143.8660 C   0  0  0  0  0  3  0  0  0  0  0  0
  185.4480  178.8120  141.4170 C   0  0  0  0  0  3  0  0  0  0  0  0
  190.1670  177.1390  142.0540 C   0  0  0  0  0  3  0  0  0  0  0  0
  189.4250  177.4980  140.9210 C   0  0  0  0  0  0  0  0  0  0  0  0
  190.4720  176.8870  144.5350 C   0  0  1  0  0  3  0  0  0  0  0  0
  186.2230  178.0500  144.9570 C   0  0  0  0  0  0  0  0  0  0  0  0
  186.0150  178.7740  140.1420 C   0  0  0  0  0  3  0  0  0  0  0  0
  192.0560  176.3000  146.7590 C   0  0  0  0  0  2  0  0  0  0  0  0
  191.4790  175.7400  144.3460 C   0  0  0  0  0  2  0  0  0  0  0  0
  190.6710  176.0160  137.7510 N   0  0  0  0  0  0  0  0  0  0  0  0
  190.5090  174.6120  137.4030 C   0  0  0  0  0  1  0  0  0  0  0  0
  191.9610  176.1350  138.4270 C   0  0  2  0  0  3  0  0  0  0  0  0
  190.0840  177.4990  139.5680 C   0  0  1  0  0  3  0  0  0  0  0  0
  191.8820  177.4190  139.7180 S   0  0  0  0  0  0  0  0  0  0  0  0
  189.6280  176.3320  138.7170 C   0  0  1  0  0  3  0  0  0  0  0  0
  188.3440  176.7080  137.9960 C   0  0  0  0  0  1  0  0  0  0  0  0
  194.1330  175.4490  137.4400 C   0  0  0  0  0  2  0  0  0  0  0  0
  193.0450  176.5050  137.4240 C   0  0  0  0  0  3  0  0  0  0  0  0
  193.1070  175.4570  136.3290 C   0  0  0  0  0  2  0  0  0  0  0  0
  185.5140  178.1140  146.2000 N   0  0  0  0  0  2  0  0  0  0  0  0
  185.6950  179.1630  147.1890 C   0  0  0  0  0  1  0  0  0  0  0  0
  2  5  2  0  0  0  0
  3 18  2  0  0  0  0
  3  1  1  0  0  0  0
  4  1  1  1  0  0  0
  4 10  1  0  0  0  0
  4  2  1  0  0  0  0
  5 17  1  0  0  0  0
  5 11  1  0  0  0  0
  6 19  1  0  0  0  0
  7  2  1  0  0  0  0
  7 16  1  0  0  0  0
  9 11  1  1  0  0  0
  9  8  1  0  0  0  0
 10 12  1  0  0  0  0
 12 17  2  0  0  0  0
 13 10  2  0  0  0  0
 14  7  2  0  0  0  0
 15  1  2  0  0  0  0
 15 14  1  0  0  0  0
 16 20  1  6  0  0  0
 16  9  1  0  0  0  0
 17 31  1  0  0  0  0
 18 13  1  0  0  0  0
 19  8  1  0  0  0  0
 20  6  1  0  0  0  0
 21 23  1  0  0  0  0
 21 26  1  0  0  0  0
 22 21  1  0  0  0  0
 23 29  1  6  0  0  0
 23 25  1  0  0  0  0
 24 25  1  0  0  0  0
 24 15  1  1  0  0  0
 26 27  1  6  0  0  0
 26 24  1  0  0  0  0
 29 28  1  0  0  0  0
 30 29  1  0  0  0  0
 30 28  1  0  0  0  0
 31 32  1  0  0  0  0
M  END
>  <MODEL>
3

>  <REMARK>
 VINA RESULT:     -10.8      3.040      6.045
  Name = 
  3 active torsions:
  status: ('A' for Active; 'I' for Inactive)
    1  A    between atoms: N_13  and  C_29
    2  A    between atoms: C_15  and  C_19
    3  A    between atoms: C_16  and  C_27
                            x       y       z     vdW  Elec       q    Type
                         _______ _______ _______ _____ _____    ______ ____

>  <TORSDO>
F 3

$$$$
=
 OpenBabel10272402123D

 32 38  0  0  1  0  0  0  0  0999 V2000
  183.4470  178.7360  141.9710 C   0  0  0  0  0  0  0  0  0  0  0  0
  185.8400  178.2710  141.7320 C   0  0  0  0  0  0  0  0  0  0  0  0
  182.3330  178.9110  142.8070 C   0  0  0  0  0  3  0  0  0  0  0  0
  184.7100  178.4620  142.5510 C   0  0  0  0  0  0  0  0  0  0  0  0
  187.1610  177.8270  142.3360 C   0  0  1  0  0  3  0  0  0  0  0  0
  188.0900  177.4350  137.4050 C   0  0  0  0  0  2  0  0  0  0  0  0
  185.7230  178.4240  140.3330 C   0  0  0  0  0  0  0  0  0  0  0  0
  189.4740  178.3530  139.3310 C   0  0  0  0  0  2  0  0  0  0  0  0
  188.2320  177.9630  140.1380 C   0  0  1  0  0  3  0  0  0  0  0  0
  184.8420  178.4220  143.9500 C   0  0  0  0  0  0  0  0  0  0  0  0
  188.3250  178.4500  141.5750 C   0  0  0  0  0  2  0  0  0  0  0  0
  186.1610  178.2330  144.5700 C   0  0  0  0  0  3  0  0  0  0  0  0
  183.7230  178.6070  144.7650 C   0  0  0  0  0  3  0  0  0  0  0  0
  184.4760  178.7270  139.7760 C   0  0  0  0  0  3  0  0  0  0  0  0
  183.3310  178.8500  140.5730 C   0  0  0  0  0  0  0  0  0  0  0  0
  186.9550  178.4770  139.4550 C   0  0  1  0  0  3  0  0  0  0  0  0
  187.2570  177.9990  143.8450 C   0  0  0  0  0  0  0  0  0  0  0  0
  182.4700  178.8420  144.1950 C   0  0  0  0  0  3  0  0  0  0  0  0
  189.2140  178.3910  137.8150 C   0  0  0  0  0  2  0  0  0  0  0  0
  186.7620  177.7840  138.0960 C   0  0  0  0  0  2  0  0  0  0  0  0
  180.6080  178.4980  138.0700 N   0  0  0  0  0  0  0  0  0  0  0  0
  180.6300  177.5200  136.9910 C   0  0  0  0  0  1  0  0  0  0  0  0
  181.1990  179.7240  137.5390 C   0  0  2  0  0  3  0  0  0  0  0  0
  182.0050  179.1570  139.9300 C   0  0  1  0  0  3  0  0  0  0  0  0
  182.1250  180.5950  138.8430 S   0  0  0  0  0  0  0  0  0  0  0  0
  181.4890  177.9910  139.1140 C   0  0  1  0  0  3  0  0  0  0  0  0
  180.7280  177.0400  140.0230 C   0  0  0  0  0  1  0  0  0  0  0  0
  180.7190  181.6620  136.0630 C   0  0  0  0  0  2  0  0  0  0  0  0
  180.1080  180.6420  137.0050 C   0  0  0  0  0  3  0  0  0  0  0  0
  179.9820  180.4650  135.5040 C   0  0  0  0  0  2  0  0  0  0  0  0
  188.4740  177.7390  144.5560 N   0  0  0  0  0  2  0  0  0  0  0  0
  188.5670  177.6410  146.0030 C   0  0  0  0  0  1  0  0  0  0  0  0
  1  4  1  0  0  0  0
  1  3  2  0  0  0  0
  2  5  1  0  0  0  0
  2  4  1  0  0  0  0
  3 18  1  0  0  0  0
  4 10  2  0  0  0  0
  5 11  1  6  0  0  0
  5 17  1  0  0  0  0
  6 19  1  0  0  0  0
  6 20  1  0  0  0  0
  7  2  2  0  0  0  0
  9  8  1  6  0  0  0
  9 11  1  0  0  0  0
 10 12  1  0  0  0  0
 10 13  1  0  0  0  0
 14  7  1  0  0  0  0
 14 15  2  0  0  0  0
 15  1  1  0  0  0  0
 16 20  1  6  0  0  0
 16  9  1  0  0  0  0
 16  7  1  0  0  0  0
 17 31  1  0  0  0  0
 17 12  2  0  0  0  0
 18 13  2  0  0  0  0
 19  8  1  0  0  0  0
 21 26  1  0  0  0  0
 22 21  1  0  0  0  0
 23 29  1  1  0  0  0
 23 21  1  0  0  0  0
 23 25  1  0  0  0  0
 24 15  1  6  0  0  0
 25 24  1  0  0  0  0
 26 24  1  0  0  0  0
 26 27  1  1  0  0  0
 28 29  1  0  0  0  0
 30 28  1  0  0  0  0
 30 29  1  0  0  0  0
 31 32  1  0  0  0  0
M  END
>  <MODEL>
4

>  <REMARK>
 VINA RESULT:     -10.8      1.996      2.891
  Name = 
  3 active torsions:
  status: ('A' for Active; 'I' for Inactive)
    1  A    between atoms: N_13  and  C_29
    2  A    between atoms: C_15  and  C_19
    3  A    between atoms: C_16  and  C_27
                            x       y       z     vdW  Elec       q    Type
                         _______ _______ _______ _____ _____    ______ ____

>  <TORSDO>
F 3

$$$$
=
 OpenBabel10272402123D

 32 38  0  0  1  0  0  0  0  0999 V2000
  189.6490  177.5840  142.2280 C   0  0  0  0  0  0  0  0  0  0  0  0
  188.0940  177.8530  144.1010 C   0  0  0  0  0  0  0  0  0  0  0  0
  190.9330  177.2520  141.7690 C   0  0  0  0  0  3  0  0  0  0  0  0
  189.3720  177.5140  143.6160 C   0  0  1  0  0  3  0  0  0  0  0  0
  187.8340  177.9280  145.5960 C   0  0  0  0  0  0  0  0  0  0  0  0
  183.5900  179.8660  143.7070 C   0  0  0  0  0  2  0  0  0  0  0  0
  187.0690  178.1950  143.1920 C   0  0  0  0  0  0  0  0  0  0  0  0
  184.0170  178.2130  145.5920 C   0  0  0  0  0  2  0  0  0  0  0  0
  185.4750  178.4330  145.1780 C   0  0  1  0  0  3  0  0  0  0  0  0
  190.3640  177.0650  144.5050 C   0  0  0  0  0  0  0  0  0  0  0  0
  186.4110  177.4830  145.9070 C   0  0  0  0  0  2  0  0  0  0  0  0
  190.0650  176.8960  145.9330 C   0  0  0  0  0  3  0  0  0  0  0  0
  191.6330  176.7310  144.0260 C   0  0  0  0  0  3  0  0  0  0  0  0
  187.3470  178.2290  141.8220 C   0  0  0  0  0  3  0  0  0  0  0  0
  188.6320  177.9620  141.3310 C   0  0  0  0  0  0  0  0  0  0  0  0
  185.6320  178.3150  143.6550 C   0  0  1  0  0  3  0  0  0  0  0  0
  188.8880  177.2470  146.4560 C   0  0  0  0  0  0  0  0  0  0  0  0
  191.9210  176.8330  142.6640 C   0  0  0  0  0  3  0  0  0  0  0  0
  183.0140  178.7170  144.5400 C   0  0  0  0  0  2  0  0  0  0  0  0
  184.8600  179.4430  142.9500 C   0  0  0  0  0  2  0  0  0  0  0  0
  188.3480  176.8990  137.7820 N   0  0  0  0  0  0  0  0  0  0  0  0
  187.5240  175.7830  137.3420 C   0  0  0  0  0  1  0  0  0  0  0  0
  189.6830  176.3610  138.0380 C   0  0  2  0  0  3  0  0  0  0  0  0
  188.8930  178.0280  139.8500 C   0  0  1  0  0  3  0  0  0  0  0  0
  190.4640  177.2410  139.4290 S   0  0  0  0  0  0  0  0  0  0  0  0
  187.7980  177.3520  139.0530 C   0  0  1  0  0  3  0  0  0  0  0  0
  186.6700  178.3420  138.8100 C   0  0  0  0  0  1  0  0  0  0  0  0
  191.7020  175.5260  136.8580 C   0  0  0  0  0  2  0  0  0  0  0  0
  190.5540  176.5160  136.7990 C   0  0  0  0  0  3  0  0  0  0  0  0
  190.5050  175.2420  135.9780 C   0  0  0  0  0  2  0  0  0  0  0  0
  188.7360  177.1240  147.8760 N   0  0  0  0  0  2  0  0  0  0  0  0
  188.5650  178.2510  148.7780 C   0  0  0  0  0  1  0  0  0  0  0  0
  2  5  1  0  0  0  0
  3  1  2  0  0  0  0
  3 18  1  0  0  0  0
  4  1  1  6  0  0  0
  4  2  1  0  0  0  0
  4 10  1  0  0  0  0
  5 11  1  0  0  0  0
  5 17  2  0  0  0  0
  6 19  1  0  0  0  0
  7 16  1  0  0  0  0
  7  2  2  0  0  0  0
  9  8  1  6  0  0  0
  9 11  1  0  0  0  0
 10 12  2  0  0  0  0
 12 17  1  0  0  0  0
 13 10  1  0  0  0  0
 14  7  1  0  0  0  0
 15 14  2  0  0  0  0
 15  1  1  0  0  0  0
 16 20  1  6  0  0  0
 16  9  1  0  0  0  0
 17 31  1  0  0  0  0
 18 13  2  0  0  0  0
 19  8  1  0  0  0  0
 20  6  1  0  0  0  0
 21 23  1  0  0  0  0
 21 26  1  0  0  0  0
 22 21  1  0  0  0  0
 23 29  1  6  0  0  0
 23 25  1  0  0  0  0
 24 15  1  1  0  0  0
 25 24  1  0  0  0  0
 26 27  1  6  0  0  0
 26 24  1  0  0  0  0
 29 28  1  0  0  0  0
 30 29  1  0  0  0  0
 30 28  1  0  0  0  0
 31 32  1  0  0  0  0
M  END
>  <MODEL>
5

>  <REMARK>
 VINA RESULT:     -10.7      2.646      5.805
  Name = 
  3 active torsions:
  status: ('A' for Active; 'I' for Inactive)
    1  A    between atoms: N_13  and  C_29
    2  A    between atoms: C_15  and  C_19
    3  A    between atoms: C_16  and  C_27
                            x       y       z     vdW  Elec       q    Type
                         _______ _______ _______ _____ _____    ______ ____

>  <TORSDO>
F 3

$$$$
=
 OpenBabel10272402123D

 32 38  0  0  1  0  0  0  0  0999 V2000
  189.1170  177.8380  141.4910 C   0  0  0  0  0  0  0  0  0  0  0  0
  186.8160  178.2750  142.2050 C   0  0  0  0  0  0  0  0  0  0  0  0
  190.4450  177.5370  141.8290 C   0  0  0  0  0  3  0  0  0  0  0  0
  188.1520  177.9630  142.5200 C   0  0  1  0  0  3  0  0  0  0  0  0
  185.8120  178.5610  143.3090 C   0  0  0  0  0  0  0  0  0  0  0  0
  183.2230  179.8560  139.1910 C   0  0  0  0  0  2  0  0  0  0  0  0
  186.4260  178.3940  140.8520 C   0  0  0  0  0  0  0  0  0  0  0  0
  182.5690  178.5530  141.2750 C   0  0  0  0  0  2  0  0  0  0  0  0
  184.0310  178.8150  141.6480 C   0  0  1  0  0  3  0  0  0  0  0  0
  188.5230  177.7330  143.8570 C   0  0  0  0  0  0  0  0  0  0  0  0
  184.4290  178.0630  142.9070 C   0  0  0  0  0  2  0  0  0  0  0  0
  187.5170  177.7660  144.9260 C   0  0  0  0  0  3  0  0  0  0  0  0
  189.8490  177.4260  144.1720 C   0  0  0  0  0  3  0  0  0  0  0  0
  187.3820  178.2360  139.8440 C   0  0  0  0  0  3  0  0  0  0  0  0
  188.7290  177.9940  140.1460 C   0  0  0  0  0  0  0  0  0  0  0  0
  184.9620  178.4760  140.4740 C   0  0  1  0  0  3  0  0  0  0  0  0
  186.2460  178.1030  144.6930 C   0  0  0  0  0  0  0  0  0  0  0  0
  190.8100  177.3380  143.1630 C   0  0  0  0  0  3  0  0  0  0  0  0
  182.2760  178.8100  139.7870 C   0  0  0  0  0  2  0  0  0  0  0  0
  184.6940  179.4180  139.2890 C   0  0  0  0  0  2  0  0  0  0  0  0
  189.8810  177.2360  136.6970 N   0  0  0  0  0  0  0  0  0  0  0  0
  188.9840  176.8440  135.6190 C   0  0  0  0  0  1  0  0  0  0  0  0
  190.3430  176.0020  137.3290 C   0  0  2  0  0  3  0  0  0  0  0  0
  189.7280  177.8500  139.0310 C   0  0  1  0  0  3  0  0  0  0  0  0
  190.5770  176.2580  139.1180 S   0  0  0  0  0  0  0  0  0  0  0  0
  189.0760  177.9630  137.6690 C   0  0  1  0  0  3  0  0  0  0  0  0
  188.9820  179.4290  137.2780 C   0  0  0  0  0  1  0  0  0  0  0  0
  191.8590  174.0750  136.9400 C   0  0  0  0  0  2  0  0  0  0  0  0
  191.6630  175.5610  136.7120 C   0  0  0  0  0  3  0  0  0  0  0  0
  191.3990  174.5770  135.5900 C   0  0  0  0  0  2  0  0  0  0  0  0
  185.3700  178.1900  145.8240 N   0  0  0  0  0  2  0  0  0  0  0  0
  185.7180  178.8410  147.0760 C   0  0  0  0  0  1  0  0  0  0  0  0
  1  3  2  0  0  0  0
  2  4  1  0  0  0  0
  2  5  1  0  0  0  0
  3 18  1  0  0  0  0
  4  1  1  6  0  0  0
  4 10  1  0  0  0  0
  5 17  2  0  0  0  0
  6 20  1  0  0  0  0
  6 19  1  0  0  0  0
  7  2  2  0  0  0  0
  9  8  1  6  0  0  0
  9 11  1  0  0  0  0
 10 13  1  0  0  0  0
 10 12  2  0  0  0  0
 11  5  1  0  0  0  0
 14 15  2  0  0  0  0
 14  7  1  0  0  0  0
 15  1  1  0  0  0  0
 16 20  1  6  0  0  0
 16  7  1  0  0  0  0
 16  9  1  0  0  0  0
 17 12  1  0  0  0  0
 17 31  1  0  0  0  0
 18 13  2  0  0  0  0
 19  8  1  0  0  0  0
 21 23  1  0  0  0  0
 21 26  1  0  0  0  0
 22 21  1  0  0  0  0
 23 29  1  6  0  0  0
 23 25  1  0  0  0  0
 24 25  1  0  0  0  0
 24 15  1  1  0  0  0
 26 27  1  6  0  0  0
 26 24  1  0  0  0  0
 29 28  1  0  0  0  0
 30 29  1  0  0  0  0
 30 28  1  0  0  0  0
 31 32  1  0  0  0  0
M  END
>  <MODEL>
6

>  <REMARK>
 VINA RESULT:     -10.5      2.912      6.351
  Name = 
  3 active torsions:
  status: ('A' for Active; 'I' for Inactive)
    1  A    between atoms: N_13  and  C_29
    2  A    between atoms: C_15  and  C_19
    3  A    between atoms: C_16  and  C_27
                            x       y       z     vdW  Elec       q    Type
                         _______ _______ _______ _____ _____    ______ ____

>  <TORSDO>
F 3

$$$$
=
 OpenBabel10272402123D

 32 38  0  0  1  0  0  0  0  0999 V2000
  184.4130  178.7060  142.8090 C   0  0  0  0  0  0  0  0  0  0  0  0
  186.7590  178.0080  142.7160 C   0  0  0  0  0  0  0  0  0  0  0  0
  183.2800  179.0150  143.5770 C   0  0  0  0  0  3  0  0  0  0  0  0
  185.6120  178.3330  143.4650 C   0  0  0  0  0  0  0  0  0  0  0  0
  187.9980  177.4610  143.4050 C   0  0  1  0  0  3  0  0  0  0  0  0
  189.1410  176.8170  138.5450 C   0  0  0  0  0  2  0  0  0  0  0  0
  186.7300  178.1240  141.3090 C   0  0  0  0  0  0  0  0  0  0  0  0
  190.5040  177.6640  140.5180 C   0  0  0  0  0  2  0  0  0  0  0  0
  189.1900  177.4210  141.2660 C   0  0  1  0  0  3  0  0  0  0  0  0
  185.6660  178.3280  144.8710 C   0  0  0  0  0  0  0  0  0  0  0  0
  189.2550  177.9450  142.6910 C   0  0  0  0  0  2  0  0  0  0  0  0
  186.9260  178.0360  145.5670 C   0  0  0  0  0  3  0  0  0  0  0  0
  184.5290  178.6460  145.6160 C   0  0  0  0  0  3  0  0  0  0  0  0
  185.5500  178.5250  140.6750 C   0  0  0  0  0  3  0  0  0  0  0  0
  184.3820  178.7830  141.4040 C   0  0  0  0  0  0  0  0  0  0  0  0
  188.0060  178.0300  140.4990 C   0  0  1  0  0  3  0  0  0  0  0  0
  188.0310  177.6750  144.9100 C   0  0  0  0  0  0  0  0  0  0  0  0
  183.3360  178.9800  144.9720 C   0  0  0  0  0  3  0  0  0  0  0  0
  190.3290  177.6750  138.9890 C   0  0  0  0  0  2  0  0  0  0  0  0
  187.8180  177.3140  139.1520 C   0  0  0  0  0  2  0  0  0  0  0  0
  181.5140  178.3710  139.0770 N   0  0  0  0  0  0  0  0  0  0  0  0
  181.2530  177.1470  138.3350 C   0  0  0  0  0  1  0  0  0  0  0  0
  182.3390  179.2170  138.2180 C   0  0  2  0  0  3  0  0  0  0  0  0
  183.1280  179.1940  140.6800 C   0  0  1  0  0  3  0  0  0  0  0  0
  183.5120  180.1860  139.2200 S   0  0  0  0  0  0  0  0  0  0  0  0
  182.3140  177.9970  140.2360 C   0  0  1  0  0  3  0  0  0  0  0  0
  181.4080  177.5560  141.3750 C   0  0  0  0  0  1  0  0  0  0  0  0
  180.2980  180.6290  138.2840 C   0  0  0  0  0  2  0  0  0  0  0  0
  181.4590  180.1700  137.4220 C   0  0  0  0  0  3  0  0  0  0  0  0
  181.4820  181.5440  138.0630 C   0  0  0  0  0  2  0  0  0  0  0  0
  189.1780  177.3250  145.6940 N   0  0  0  0  0  2  0  0  0  0  0  0
  189.1200  176.9230  147.0900 C   0  0  0  0  0  1  0  0  0  0  0  0
  1  4  1  0  0  0  0
  1  3  2  0  0  0  0
  2  5  1  0  0  0  0
  2  4  1  0  0  0  0
  3 18  1  0  0  0  0
  4 10  2  0  0  0  0
  5 11  1  6  0  0  0
  5 17  1  0  0  0  0
  6 19  1  0  0  0  0
  6 20  1  0  0  0  0
  7  2  2  0  0  0  0
  9  8  1  6  0  0  0
  9 11  1  0  0  0  0
 10 12  1  0  0  0  0
 10 13  1  0  0  0  0
 14  7  1  0  0  0  0
 14 15  2  0  0  0  0
 15  1  1  0  0  0  0
 16 20  1  6  0  0  0
 16  9  1  0  0  0  0
 16  7  1  0  0  0  0
 17 12  2  0  0  0  0
 17 31  1  0  0  0  0
 18 13  2  0  0  0  0
 19  8  1  0  0  0  0
 21 26  1  0  0  0  0
 22 21  1  0  0  0  0
 23 29  1  1  0  0  0
 23 21  1  0  0  0  0
 23 25  1  0  0  0  0
 24 15  1  6  0  0  0
 25 24  1  0  0  0  0
 26 24  1  0  0  0  0
 26 27  1  1  0  0  0
 29 30  1  0  0  0  0
 29 28  1  0  0  0  0
 30 28  1  0  0  0  0
 31 32  1  0  0  0  0
M  END
>  <MODEL>
7

>  <REMARK>
 VINA RESULT:     -10.5      1.426      1.769
  Name = 
  3 active torsions:
  status: ('A' for Active; 'I' for Inactive)
    1  A    between atoms: N_13  and  C_29
    2  A    between atoms: C_15  and  C_19
    3  A    between atoms: C_16  and  C_27
                            x       y       z     vdW  Elec       q    Type
                         _______ _______ _______ _____ _____    ______ ____

>  <TORSDO>
F 3

$$$$
=
 OpenBabel10272402123D

 32 38  0  0  1  0  0  0  0  0999 V2000
  189.1950  177.8260  140.4930 C   0  0  0  0  0  0  0  0  0  0  0  0
  188.8480  177.8970  142.9170 C   0  0  0  0  0  0  0  0  0  0  0  0
  190.0710  177.6790  139.4070 C   0  0  0  0  0  3  0  0  0  0  0  0
  189.7070  177.7410  141.8110 C   0  0  1  0  0  3  0  0  0  0  0  0
  189.4130  177.9580  144.3260 C   0  0  0  0  0  0  0  0  0  0  0  0
  184.5990  179.2190  145.0800 C   0  0  0  0  0  2  0  0  0  0  0  0
  187.4620  178.0690  142.7070 C   0  0  0  0  0  0  0  0  0  0  0  0
  186.1760  177.6800  146.3500 C   0  0  0  0  0  2  0  0  0  0  0  0
  187.1480  178.1040  145.2460 C   0  0  1  0  0  3  0  0  0  0  0  0
  191.0690  177.4570  142.0140 C   0  0  0  0  0  0  0  0  0  0  0  0
  188.4450  177.3140  145.3110 C   0  0  0  0  0  2  0  0  0  0  0  0
  191.5980  177.2710  143.3720 C   0  0  0  0  0  3  0  0  0  0  0  0
  191.9230  177.3050  140.9200 C   0  0  0  0  0  3  0  0  0  0  0  0
  186.9650  178.1190  141.4010 C   0  0  0  0  0  3  0  0  0  0  0  0
  187.8170  178.0350  140.2920 C   0  0  0  0  0  0  0  0  0  0  0  0
  186.4890  177.9850  143.8640 C   0  0  1  0  0  3  0  0  0  0  0  0
  190.8420  177.4540  144.4580 C   0  0  0  0  0  0  0  0  0  0  0  0
  191.4280  177.4250  139.6200 C   0  0  0  0  0  3  0  0  0  0  0  0
  184.7110  178.0120  146.0170 C   0  0  0  0  0  2  0  0  0  0  0  0
  185.3180  178.9740  143.7430 C   0  0  0  0  0  2  0  0  0  0  0  0
  185.3110  177.4350  137.6160 N   0  0  0  0  0  0  0  0  0  0  0  0
  184.0470  176.7480  137.8380 C   0  0  0  0  0  1  0  0  0  0  0  0
  186.2770  176.4180  137.2060 C   0  0  2  0  0  3  0  0  0  0  0  0
  187.2430  178.1140  138.9030 C   0  0  1  0  0  3  0  0  0  0  0  0
  187.9350  176.8310  137.8370 S   0  0  0  0  0  0  0  0  0  0  0  0
  185.7360  177.9620  138.9060 C   0  0  1  0  0  3  0  0  0  0  0  0
  185.0950  179.3180  139.1530 C   0  0  0  0  0  1  0  0  0  0  0  0
  186.8210  174.9560  135.2740 C   0  0  0  0  0  2  0  0  0  0  0  0
  186.3300  176.3300  135.6870 C   0  0  0  0  0  3  0  0  0  0  0  0
  185.3460  175.2840  135.2010 C   0  0  0  0  0  2  0  0  0  0  0  0
  191.4830  177.3350  145.7340 N   0  0  0  0  0  2  0  0  0  0  0  0
  191.9470  176.0790  146.2990 C   0  0  0  0  0  1  0  0  0  0  0  0
  2  5  2  0  0  0  0
  3 18  2  0  0  0  0
  3  1  1  0  0  0  0
  4  1  1  6  0  0  0
  4 10  1  0  0  0  0
  4  2  1  0  0  0  0
  5 17  1  0  0  0  0
  5 11  1  0  0  0  0
  6 19  1  0  0  0  0
  7  2  1  0  0  0  0
  7 16  1  0  0  0  0
  9 11  1  6  0  0  0
  9  8  1  0  0  0  0
 10 12  1  0  0  0  0
 12 17  2  0  0  0  0
 13 10  2  0  0  0  0
 14  7  2  0  0  0  0
 15  1  2  0  0  0  0
 15 14  1  0  0  0  0
 16 20  1  6  0  0  0
 16  9  1  0  0  0  0
 17 31  1  0  0  0  0
 18 13  1  0  0  0  0
 19  8  1  0  0  0  0
 20  6  1  0  0  0  0
 21 22  1  0  0  0  0
 21 26  1  0  0  0  0
 23 29  1  6  0  0  0
 23 21  1  0  0  0  0
 23 25  1  0  0  0  0
 24 26  1  0  0  0  0
 24 15  1  1  0  0  0
 25 24  1  0  0  0  0
 26 27  1  6  0  0  0
 28 29  1  0  0  0  0
 30 28  1  0  0  0  0
 30 29  1  0  0  0  0
 31 32  1  0  0  0  0
M  END
>  <MODEL>
8

>  <REMARK>
 VINA RESULT:     -10.5      2.164      5.051
  Name = 
  3 active torsions:
  status: ('A' for Active; 'I' for Inactive)
    1  A    between atoms: N_13  and  C_29
    2  A    between atoms: C_15  and  C_19
    3  A    between atoms: C_16  and  C_27
                            x       y       z     vdW  Elec       q    Type
                         _______ _______ _______ _____ _____    ______ ____

>  <TORSDO>
F 3

$$$$
=
 OpenBabel10272402123D

 32 38  0  0  1  0  0  0  0  0999 V2000
  184.5990  178.5270  142.8240 C   0  0  0  0  0  0  0  0  0  0  0  0
  186.6580  178.0490  144.0590 C   0  0  0  0  0  0  0  0  0  0  0  0
  183.2410  178.8810  142.8400 C   0  0  0  0  0  3  0  0  0  0  0  0
  185.2980  178.4140  144.0500 C   0  0  1  0  0  3  0  0  0  0  0  0
  187.3730  177.7770  145.3720 C   0  0  0  0  0  0  0  0  0  0  0  0
  190.7800  176.2430  142.0000 C   0  0  0  0  0  2  0  0  0  0  0  0
  187.3410  177.8650  142.8360 C   0  0  0  0  0  0  0  0  0  0  0  0
  190.9920  177.6070  144.1350 C   0  0  0  0  0  2  0  0  0  0  0  0
  189.4740  177.4030  144.1720 C   0  0  1  0  0  3  0  0  0  0  0  0
  184.6420  178.7070  145.2580 C   0  0  0  0  0  0  0  0  0  0  0  0
  188.8290  178.2170  145.2820 C   0  0  0  0  0  2  0  0  0  0  0  0
  185.3760  178.6870  146.5300 C   0  0  0  0  0  3  0  0  0  0  0  0
  183.2920  179.0660  145.2520 C   0  0  0  0  0  3  0  0  0  0  0  0
  186.6470  178.0120  141.6320 C   0  0  0  0  0  3  0  0  0  0  0  0
  185.2770  178.3060  141.6100 C   0  0  0  0  0  0  0  0  0  0  0  0
  188.8490  177.7250  142.8060 C   0  0  1  0  0  3  0  0  0  0  0  0
  186.6530  178.3020  146.6050 C   0  0  0  0  0  0  0  0  0  0  0  0
  182.5900  179.1430  144.0480 C   0  0  0  0  0  3  0  0  0  0  0  0
  191.6060  177.2830  142.7630 C   0  0  0  0  0  2  0  0  0  0  0  0
  189.3430  176.7280  141.7450 C   0  0  0  0  0  2  0  0  0  0  0  0
  183.3950  177.1170  138.6350 N   0  0  0  0  0  0  0  0  0  0  0  0
  182.9820  175.7340  138.4460 C   0  0  0  0  0  1  0  0  0  0  0  0
  184.7000  177.2580  137.9930 C   0  0  2  0  0  3  0  0  0  0  0  0
  184.5640  178.4360  140.2910 C   0  0  1  0  0  3  0  0  0  0  0  0
  185.7340  178.4420  138.9150 S   0  0  0  0  0  0  0  0  0  0  0  0
  183.5780  177.3090  140.0670 C   0  0  1  0  0  3  0  0  0  0  0  0
  182.2520  177.6650  140.7200 C   0  0  0  0  0  1  0  0  0  0  0  0
  185.6960  177.2820  135.7180 C   0  0  0  0  0  2  0  0  0  0  0  0
  184.5290  177.7540  136.5640 C   0  0  0  0  0  3  0  0  0  0  0  0
  184.3630  176.5720  135.6290 C   0  0  0  0  0  2  0  0  0  0  0  0
  187.2440  178.2330  147.9080 N   0  0  0  0  0  2  0  0  0  0  0  0
  188.2320  177.2430  148.3040 C   0  0  0  0  0  1  0  0  0  0  0  0
  1  3  2  0  0  0  0
  2  5  1  0  0  0  0
  3 18  1  0  0  0  0
  4  1  1  6  0  0  0
  4  2  1  0  0  0  0
  4 10  1  0  0  0  0
  5 17  2  0  0  0  0
  6 19  1  0  0  0  0
  7  2  2  0  0  0  0
  9  8  1  6  0  0  0
  9 11  1  0  0  0  0
 10 12  2  0  0  0  0
 11  5  1  0  0  0  0
 12 17  1  0  0  0  0
 13 10  1  0  0  0  0
 14  7  1  0  0  0  0
 15 14  2  0  0  0  0
 15  1  1  0  0  0  0
 16 20  1  6  0  0  0
 16  7  1  0  0  0  0
 16  9  1  0  0  0  0
 17 31  1  0  0  0  0
 18 13  2  0  0  0  0
 19  8  1  0  0  0  0
 20  6  1  0  0  0  0
 21 26  1  0  0  0  0
 22 21  1  0  0  0  0
 23 29  1  6  0  0  0
 23 21  1  0  0  0  0
 23 25  1  0  0  0  0
 24 15  1  1  0  0  0
 25 24  1  0  0  0  0
 26 24  1  0  0  0  0
 26 27  1  1  0  0  0
 28 29  1  0  0  0  0
 30 28  1  0  0  0  0
 30 29  1  0  0  0  0
 31 32  1  0  0  0  0
M  END
>  <MODEL>
9

>  <REMARK>
 VINA RESULT:     -10.4      1.299      1.594
  Name = 
  3 active torsions:
  status: ('A' for Active; 'I' for Inactive)
    1  A    between atoms: N_13  and  C_29
    2  A    between atoms: C_15  and  C_19
    3  A    between atoms: C_16  and  C_27
                            x       y       z     vdW  Elec       q    Type
                         _______ _______ _______ _____ _____    ______ ____

>  <TORSDO>
F 3

$$$$
