=
 OpenBabel10272401083D

 27 31  0  0  1  0  0  0  0  0999 V2000
  187.4720  178.6120  141.8630 N   0  0  0  0  0  2  0  0  0  0  0  0
  187.7260  177.3730  144.0340 C   0  0  1  0  0  3  0  0  0  0  0  0
  189.5000  176.5620  142.5190 N   0  0  0  0  0  2  0  0  0  0  0  0
  190.3030  176.8670  147.3070 C   0  0  0  0  0  3  0  0  0  0  0  0
  192.3180  175.9490  148.2630 O   0  0  0  0  0  1  0  0  0  0  0  0
  187.5160  178.2790  145.2480 C   0  0  0  0  0  2  0  0  0  0  0  0
  191.3090  176.3800  144.7410 C   0  0  0  0  0  3  0  0  0  0  0  0
  190.1040  177.1310  138.8970 C   0  0  0  0  0  0  0  0  0  0  0  0
  192.0680  176.0470  145.8660 C   0  0  0  0  0  3  0  0  0  0  0  0
  190.9150  176.6200  137.8940 O   0  0  0  0  0  1  0  0  0  0  0  0
  190.0330  176.9390  144.8930 C   0  0  0  0  0  0  0  0  0  0  0  0
  186.8390  177.7100  142.8200 C   0  0  1  0  0  3  0  0  0  0  0  0
  191.5640  176.2850  147.1470 C   0  0  0  0  0  0  0  0  0  0  0  0
  189.5400  177.2060  146.1860 C   0  0  0  0  0  0  0  0  0  0  0  0
  188.4380  178.1470  140.9120 C   0  0  0  0  0  0  0  0  0  0  0  0
  189.2200  177.3710  143.6990 C   0  0  2  0  0  3  0  0  0  0  0  0
  190.1360  176.5700  140.1750 C   0  0  0  0  0  3  0  0  0  0  0  0
  188.2760  177.7890  146.3550 O   0  0  0  0  0  0  0  0  0  0  0  0
  189.2670  178.2160  138.6320 C   0  0  0  0  0  3  0  0  0  0  0  0
  188.4360  178.7190  139.6350 C   0  0  0  0  0  3  0  0  0  0  0  0
  189.3240  177.0770  141.1940 C   0  0  0  0  0  0  0  0  0  0  0  0
  182.8150  178.9040  143.7620 C   0  0  0  0  0  3  0  0  0  0  0  0
  185.4440  178.1450  143.1620 C   0  0  0  0  0  0  0  0  0  0  0  0
  184.4860  178.2290  142.1450 C   0  0  0  0  0  3  0  0  0  0  0  0
  183.1750  178.6100  142.4440 C   0  0  0  0  0  3  0  0  0  0  0  0
  183.7650  178.8150  144.7830 C   0  0  0  0  0  3  0  0  0  0  0  0
  185.0770  178.4340  144.4850 C   0  0  0  0  0  3  0  0  0  0  0  0
  1 12  1  0  0  0  0
  2  6  1  1  0  0  0
  6 18  1  0  0  0  0
  7 11  2  0  0  0  0
  7  9  1  0  0  0  0
  8 17  1  0  0  0  0
  9 13  2  0  0  0  0
 10  8  1  0  0  0  0
 11 14  1  0  0  0  0
 12 23  1  1  0  0  0
 12  2  1  0  0  0  0
 13  4  1  0  0  0  0
 13  5  1  0  0  0  0
 14 18  1  0  0  0  0
 14  4  2  0  0  0  0
 15 21  1  0  0  0  0
 15  1  1  0  0  0  0
 16  3  1  6  0  0  0
 16  2  1  0  0  0  0
 16 11  1  0  0  0  0
 17 21  2  0  0  0  0
 19  8  2  0  0  0  0
 19 20  1  0  0  0  0
 20 15  2  0  0  0  0
 21  3  1  0  0  0  0
 22 26  1  0  0  0  0
 23 27  1  0  0  0  0
 24 25  1  0  0  0  0
 24 23  2  0  0  0  0
 25 22  2  0  0  0  0
 27 26  2  0  0  0  0
M  END
>  <MODEL>
1

>  <REMARK>
 VINA RESULT:     -11.2      0.000      0.000
  Name = 
  1 active torsions:
  status: ('A' for Active; 'I' for Inactive)
    1  A    between atoms: C_9  and  C_15
                            x       y       z     vdW  Elec       q    Type
                         _______ _______ _______ _____ _____    ______ ____

>  <TORSDO>
F 1

$$$$
=
 OpenBabel10272401083D

 27 31  0  0  1  0  0  0  0  0999 V2000
  189.3830  176.7200  142.7290 N   0  0  0  0  0  2  0  0  0  0  0  0
  187.6420  178.0380  143.9720 C   0  0  1  0  0  3  0  0  0  0  0  0
  187.4550  178.6500  141.5870 N   0  0  0  0  0  2  0  0  0  0  0  0
  183.4950  178.5130  144.4080 C   0  0  0  0  0  3  0  0  0  0  0  0
  181.3820  179.3290  143.5800 O   0  0  0  0  0  1  0  0  0  0  0  0
  186.9430  177.2060  145.0490 C   0  0  0  0  0  2  0  0  0  0  0  0
  184.6010  178.8060  141.8540 C   0  0  0  0  0  3  0  0  0  0  0  0
  189.6110  177.8700  138.6620 C   0  0  0  0  0  0  0  0  0  0  0  0
  183.2620  179.1370  142.0800 C   0  0  0  0  0  3  0  0  0  0  0  0
  189.7440  178.2760  137.3410 O   0  0  0  0  0  1  0  0  0  0  0  0
  185.4010  178.3480  142.9090 C   0  0  0  0  0  0  0  0  0  0  0  0
  189.1340  177.7080  143.7740 C   0  0  1  0  0  3  0  0  0  0  0  0
  182.7110  178.9950  143.3570 C   0  0  0  0  0  0  0  0  0  0  0  0
  184.8340  178.1770  144.1880 C   0  0  0  0  0  0  0  0  0  0  0  0
  189.3700  177.0710  141.3400 C   0  0  0  0  0  0  0  0  0  0  0  0
  186.8280  177.9190  142.6800 C   0  0  2  0  0  3  0  0  0  0  0  0
  188.6720  178.4870  139.4910 C   0  0  0  0  0  3  0  0  0  0  0  0
  185.6140  177.6930  145.2480 O   0  0  0  0  0  0  0  0  0  0  0  0
  190.4070  176.8370  139.1570 C   0  0  0  0  0  3  0  0  0  0  0  0
  190.2880  176.4410  140.4920 C   0  0  0  0  0  3  0  0  0  0  0  0
  188.5280  178.0870  140.8230 C   0  0  0  0  0  0  0  0  0  0  0  0
  191.2160  176.7710  147.4200 C   0  0  0  0  0  3  0  0  0  0  0  0
  189.8800  177.3900  145.0360 C   0  0  0  0  0  0  0  0  0  0  0  0
  189.3140  177.7320  146.2690 C   0  0  0  0  0  3  0  0  0  0  0  0
  189.9820  177.4260  147.4590 C   0  0  0  0  0  3  0  0  0  0  0  0
  191.7830  176.4210  146.1910 C   0  0  0  0  0  3  0  0  0  0  0  0
  191.1170  176.7270  145.0020 C   0  0  0  0  0  3  0  0  0  0  0  0
  1 12  1  0  0  0  0
  2  6  1  1  0  0  0
  6 18  1  0  0  0  0
  7  9  2  0  0  0  0
  7 11  1  0  0  0  0
  8 19  2  0  0  0  0
  8 17  1  0  0  0  0
  9 13  1  0  0  0  0
 10  8  1  0  0  0  0
 11 14  2  0  0  0  0
 12  2  1  0  0  0  0
 12 23  1  1  0  0  0
 13  5  1  0  0  0  0
 13  4  2  0  0  0  0
 14  4  1  0  0  0  0
 14 18  1  0  0  0  0
 15  1  1  0  0  0  0
 16  3  1  6  0  0  0
 16 11  1  0  0  0  0
 16  2  1  0  0  0  0
 17 21  2  0  0  0  0
 19 20  1  0  0  0  0
 20 15  2  0  0  0  0
 21 15  1  0  0  0  0
 21  3  1  0  0  0  0
 22 25  1  0  0  0  0
 23 24  1  0  0  0  0
 24 25  2  0  0  0  0
 26 22  2  0  0  0  0
 27 23  2  0  0  0  0
 27 26  1  0  0  0  0
M  END
>  <MODEL>
2

>  <REMARK>
 VINA RESULT:     -10.7      1.690      5.876
  Name = 
  1 active torsions:
  status: ('A' for Active; 'I' for Inactive)
    1  A    between atoms: C_9  and  C_15
                            x       y       z     vdW  Elec       q    Type
                         _______ _______ _______ _____ _____    ______ ____

>  <TORSDO>
F 1

$$$$
=
 OpenBabel10272401083D

 27 31  0  0  1  0  0  0  0  0999 V2000
  186.8360  178.8710  140.6300 N   0  0  0  0  0  2  0  0  0  0  0  0
  185.9570  178.0320  142.8290 C   0  0  1  0  0  3  0  0  0  0  0  0
  188.2110  177.0690  142.5290 N   0  0  0  0  0  2  0  0  0  0  0  0
  186.6000  178.2210  146.9720 C   0  0  0  0  0  3  0  0  0  0  0  0
  187.8610  177.5840  148.9260 O   0  0  0  0  0  1  0  0  0  0  0  0
  185.2180  179.1190  143.6120 C   0  0  0  0  0  2  0  0  0  0  0  0
  188.7060  177.3600  145.3420 C   0  0  0  0  0  3  0  0  0  0  0  0
  190.5190  177.0480  139.6160 C   0  0  0  0  0  0  0  0  0  0  0  0
  188.8110  177.2620  146.7330 C   0  0  0  0  0  3  0  0  0  0  0  0
  191.6950  176.4170  139.2370 O   0  0  0  0  0  1  0  0  0  0  0  0
  187.5380  177.8690  144.7580 C   0  0  0  0  0  0  0  0  0  0  0  0
  185.7840  178.1130  141.3000 C   0  0  1  0  0  3  0  0  0  0  0  0
  187.7570  177.6870  147.5460 C   0  0  0  0  0  0  0  0  0  0  0  0
  186.4900  178.3260  145.5820 C   0  0  0  0  0  0  0  0  0  0  0  0
  188.1230  178.3020  140.3620 C   0  0  0  0  0  0  0  0  0  0  0  0
  187.4250  178.0500  143.2660 C   0  0  2  0  0  3  0  0  0  0  0  0
  189.9050  176.7140  140.8250 C   0  0  0  0  0  3  0  0  0  0  0  0
  185.3260  178.8620  145.0140 O   0  0  0  0  0  0  0  0  0  0  0  0
  189.9570  178.0280  138.7960 C   0  0  0  0  0  3  0  0  0  0  0  0
  188.7630  178.6490  139.1680 C   0  0  0  0  0  3  0  0  0  0  0  0
  188.7200  177.3430  141.2190 C   0  0  0  0  0  0  0  0  0  0  0  0
  181.8790  179.2800  139.9250 C   0  0  0  0  0  3  0  0  0  0  0  0
  184.4160  178.5260  140.8430 C   0  0  0  0  0  0  0  0  0  0  0  0
  184.2900  179.3200  139.6980 C   0  0  0  0  0  3  0  0  0  0  0  0
  183.0240  179.6990  139.2400 C   0  0  0  0  0  3  0  0  0  0  0  0
  181.9990  178.4810  141.0650 C   0  0  0  0  0  3  0  0  0  0  0  0
  183.2640  178.1020  141.5230 C   0  0  0  0  0  3  0  0  0  0  0  0
  1 12  1  0  0  0  0
  2 16  1  0  0  0  0
  2  6  1  1  0  0  0
  4 13  1  0  0  0  0
  6 18  1  0  0  0  0
  7  9  1  0  0  0  0
  8 17  1  0  0  0  0
  9 13  2  0  0  0  0
 10  8  1  0  0  0  0
 11  7  2  0  0  0  0
 11 14  1  0  0  0  0
 12 23  1  1  0  0  0
 12  2  1  0  0  0  0
 13  5  1  0  0  0  0
 14  4  2  0  0  0  0
 15  1  1  0  0  0  0
 15 21  1  0  0  0  0
 16  3  1  6  0  0  0
 16 11  1  0  0  0  0
 17 21  2  0  0  0  0
 18 14  1  0  0  0  0
 19 20  1  0  0  0  0
 19  8  2  0  0  0  0
 20 15  2  0  0  0  0
 21  3  1  0  0  0  0
 22 26  1  0  0  0  0
 23 27  1  0  0  0  0
 24 23  2  0  0  0  0
 25 24  1  0  0  0  0
 25 22  2  0  0  0  0
 26 27  2  0  0  0  0
M  END
>  <MODEL>
3

>  <REMARK>
 VINA RESULT:     -10.4      1.858      2.766
  Name = 
  1 active torsions:
  status: ('A' for Active; 'I' for Inactive)
    1  A    between atoms: C_9  and  C_15
                            x       y       z     vdW  Elec       q    Type
                         _______ _______ _______ _____ _____    ______ ____

>  <TORSDO>
F 1

$$$$
=
 OpenBabel10272401083D

 27 31  0  0  1  0  0  0  0  0999 V2000
  190.1630  177.9840  142.5790 N   0  0  0  0  0  2  0  0  0  0  0  0
  188.3310  177.5190  140.9230 C   0  0  1  0  0  3  0  0  0  0  0  0
  187.3600  177.2570  143.1780 N   0  0  0  0  0  2  0  0  0  0  0  0
  184.6540  178.9720  139.5170 C   0  0  0  0  0  3  0  0  0  0  0  0
  182.2810  179.2900  139.8040 O   0  0  0  0  0  1  0  0  0  0  0  0
  188.3580  178.4890  139.7400 C   0  0  0  0  0  2  0  0  0  0  0  0
  184.9010  178.4110  142.2480 C   0  0  0  0  0  3  0  0  0  0  0  0
  188.9250  177.1910  146.5480 C   0  0  0  0  0  0  0  0  0  0  0  0
  183.6490  178.7170  141.7060 C   0  0  0  0  0  3  0  0  0  0  0  0
  188.5580  176.8790  147.8490 O   0  0  0  0  0  1  0  0  0  0  0  0
  186.0330  178.3630  141.4240 C   0  0  0  0  0  0  0  0  0  0  0  0
  189.7200  177.1400  141.4730 C   0  0  1  0  0  3  0  0  0  0  0  0
  183.5250  178.9920  140.3410 C   0  0  0  0  0  0  0  0  0  0  0  0
  185.9090  178.6710  140.0540 C   0  0  0  0  0  0  0  0  0  0  0  0
  189.6820  177.7920  143.9150 C   0  0  0  0  0  0  0  0  0  0  0  0
  187.4040  178.1040  141.9930 C   0  0  2  0  0  3  0  0  0  0  0  0
  188.0150  177.0120  145.5040 C   0  0  0  0  0  3  0  0  0  0  0  0
  187.0360  178.6540  139.2210 O   0  0  0  0  0  0  0  0  0  0  0  0
  190.1980  177.6990  146.2850 C   0  0  0  0  0  3  0  0  0  0  0  0
  190.5750  177.9950  144.9730 C   0  0  0  0  0  3  0  0  0  0  0  0
  188.3730  177.3230  144.1880 C   0  0  0  0  0  0  0  0  0  0  0  0
  192.8220  176.6490  138.5330 C   0  0  0  0  0  3  0  0  0  0  0  0
  190.7860  176.9750  140.4300 C   0  0  0  0  0  0  0  0  0  0  0  0
  192.0630  177.4940  140.6720 C   0  0  0  0  0  3  0  0  0  0  0  0
  193.0780  177.3340  139.7240 C   0  0  0  0  0  3  0  0  0  0  0  0
  191.5500  176.1220  138.2900 C   0  0  0  0  0  3  0  0  0  0  0  0
  190.5340  176.2820  139.2360 C   0  0  0  0  0  3  0  0  0  0  0  0
  1 15  1  0  0  0  0
  2  6  1  6  0  0  0
  2 12  1  0  0  0  0
  2 16  1  0  0  0  0
  3 21  1  0  0  0  0
  4 14  2  0  0  0  0
  4 13  1  0  0  0  0
  5 13  1  0  0  0  0
  8 10  1  0  0  0  0
  9  7  1  0  0  0  0
 11  7  2  0  0  0  0
 12 23  1  6  0  0  0
 12  1  1  0  0  0  0
 13  9  2  0  0  0  0
 14 11  1  0  0  0  0
 15 21  2  0  0  0  0
 15 20  1  0  0  0  0
 16 11  1  6  0  0  0
 16  3  1  0  0  0  0
 17  8  2  0  0  0  0
 18  6  1  0  0  0  0
 18 14  1  0  0  0  0
 19  8  1  0  0  0  0
 20 19  2  0  0  0  0
 21 17  1  0  0  0  0
 22 25  1  0  0  0  0
 23 24  1  0  0  0  0
 25 24  2  0  0  0  0
 26 22  2  0  0  0  0
 26 27  1  0  0  0  0
 27 23  2  0  0  0  0
M  END
>  <MODEL>
4

>  <REMARK>
 VINA RESULT:     -10.2      2.497      7.636
  Name = 
  1 active torsions:
  status: ('A' for Active; 'I' for Inactive)
    1  A    between atoms: C_9  and  C_15
                            x       y       z     vdW  Elec       q    Type
                         _______ _______ _______ _____ _____    ______ ____

>  <TORSDO>
F 1

$$$$
=
 OpenBabel10272401083D

 27 31  0  0  1  0  0  0  0  0999 V2000
  188.4230  178.1630  145.2380 N   0  0  0  0  0  2  0  0  0  0  0  0
  189.4770  177.0460  143.2490 C   0  0  1  0  0  3  0  0  0  0  0  0
  187.1000  177.4280  142.6970 N   0  0  0  0  0  2  0  0  0  0  0  0
  190.5000  177.6650  139.2260 C   0  0  0  0  0  3  0  0  0  0  0  0
  189.8610  177.8550  136.9090 O   0  0  0  0  0  1  0  0  0  0  0  0
  190.8740  177.5920  142.9490 C   0  0  0  0  0  2  0  0  0  0  0  0
  187.8290  178.0170  139.9830 C   0  0  0  0  0  3  0  0  0  0  0  0
  184.2350  178.5620  144.7740 C   0  0  0  0  0  0  0  0  0  0  0  0
  188.1810  178.0290  138.6310 C   0  0  0  0  0  3  0  0  0  0  0  0
  182.8540  178.6450  144.6680 O   0  0  0  0  0  1  0  0  0  0  0  0
  188.8070  177.8070  140.9640 C   0  0  0  0  0  0  0  0  0  0  0  0
  189.1220  176.9790  144.7470 C   0  0  1  0  0  3  0  0  0  0  0  0
  189.5140  177.8480  138.2520 C   0  0  0  0  0  0  0  0  0  0  0  0
  190.1550  177.6560  140.5810 C   0  0  0  0  0  0  0  0  0  0  0  0
  187.0230  178.3630  145.0090 C   0  0  0  0  0  0  0  0  0  0  0  0
  188.4670  177.8580  142.4320 C   0  0  2  0  0  3  0  0  0  0  0  0
  184.9810  177.9850  143.7440 C   0  0  0  0  0  3  0  0  0  0  0  0
  191.1500  177.4720  141.5510 O   0  0  0  0  0  0  0  0  0  0  0  0
  184.8790  179.0660  145.9040 C   0  0  0  0  0  3  0  0  0  0  0  0
  186.2670  178.9640  146.0210 C   0  0  0  0  0  3  0  0  0  0  0  0
  186.3730  177.8950  143.8390 C   0  0  0  0  0  0  0  0  0  0  0  0
  192.3320  175.8370  147.3730 C   0  0  0  0  0  3  0  0  0  0  0  0
  190.2570  176.5850  145.6450 C   0  0  0  0  0  0  0  0  0  0  0  0
  190.3050  177.0930  146.9480 C   0  0  0  0  0  3  0  0  0  0  0  0
  191.3420  176.7220  147.8100 C   0  0  0  0  0  3  0  0  0  0  0  0
  192.2850  175.3210  146.0750 C   0  0  0  0  0  3  0  0  0  0  0  0
  191.2500  175.6920  145.2130 C   0  0  0  0  0  3  0  0  0  0  0  0
  2  6  1  1  0  0  0
  2 12  1  0  0  0  0
  3 21  1  0  0  0  0
  4 14  1  0  0  0  0
  5 13  1  0  0  0  0
  7 11  1  0  0  0  0
  8 19  1  0  0  0  0
  9  7  2  0  0  0  0
 10  8  1  0  0  0  0
 12  1  1  0  0  0  0
 12 23  1  1  0  0  0
 13  9  1  0  0  0  0
 13  4  2  0  0  0  0
 14 11  2  0  0  0  0
 14 18  1  0  0  0  0
 15  1  1  0  0  0  0
 15 20  1  0  0  0  0
 16 11  1  6  0  0  0
 16  3  1  0  0  0  0
 16  2  1  0  0  0  0
 17 21  1  0  0  0  0
 17  8  2  0  0  0  0
 18  6  1  0  0  0  0
 19 20  2  0  0  0  0
 21 15  2  0  0  0  0
 22 25  1  0  0  0  0
 23 24  1  0  0  0  0
 24 25  2  0  0  0  0
 26 22  2  0  0  0  0
 27 23  2  0  0  0  0
 27 26  1  0  0  0  0
M  END
>  <MODEL>
5

>  <REMARK>
 VINA RESULT:      -9.7      2.091      7.065
  Name = 
  1 active torsions:
  status: ('A' for Active; 'I' for Inactive)
    1  A    between atoms: C_9  and  C_15
                            x       y       z     vdW  Elec       q    Type
                         _______ _______ _______ _____ _____    ______ ____

>  <TORSDO>
F 1

$$$$
=
 OpenBabel10272401083D

 27 31  0  0  1  0  0  0  0  0999 V2000
  189.8730  178.0340  142.4480 N   0  0  0  0  0  2  0  0  0  0  0  0
  187.4940  177.6150  141.7530 C   0  0  1  0  0  3  0  0  0  0  0  0
  187.6270  177.2080  144.1850 N   0  0  0  0  0  2  0  0  0  0  0  0
  183.5790  179.0530  142.2160 C   0  0  0  0  0  3  0  0  0  0  0  0
  181.5820  179.2980  143.5460 O   0  0  0  0  0  1  0  0  0  0  0  0
  186.9940  178.6480  140.7410 C   0  0  0  0  0  2  0  0  0  0  0  0
  185.0130  178.3510  144.5150 C   0  0  0  0  0  3  0  0  0  0  0  0
  190.5270  176.9980  146.4990 C   0  0  0  0  0  0  0  0  0  0  0  0
  183.6520  178.6550  144.6040 C   0  0  0  0  0  3  0  0  0  0  0  0
  190.7770  176.6060  147.8060 O   0  0  0  0  0  1  0  0  0  0  0  0
  185.6610  178.3750  143.2720 C   0  0  0  0  0  0  0  0  0  0  0  0
  188.9810  177.2410  141.6060 C   0  0  1  0  0  3  0  0  0  0  0  0
  182.9350  179.0010  143.4550 C   0  0  0  0  0  0  0  0  0  0  0  0
  184.9420  178.7540  142.1210 C   0  0  0  0  0  0  0  0  0  0  0  0
  190.0360  177.7580  143.8440 C   0  0  0  0  0  0  0  0  0  0  0  0
  187.1410  178.1180  143.1560 C   0  0  2  0  0  3  0  0  0  0  0  0
  189.2480  176.8530  145.9580 C   0  0  0  0  0  3  0  0  0  0  0  0
  185.5800  178.8090  140.8740 O   0  0  0  0  0  0  0  0  0  0  0  0
  191.5510  177.5490  145.7280 C   0  0  0  0  0  3  0  0  0  0  0  0
  191.3060  177.9250  144.4060 C   0  0  0  0  0  3  0  0  0  0  0  0
  188.9840  177.2440  144.6420 C   0  0  0  0  0  0  0  0  0  0  0  0
  190.4280  176.9510  137.5650 C   0  0  0  0  0  3  0  0  0  0  0  0
  189.4730  177.1580  140.1900 C   0  0  0  0  0  0  0  0  0  0  0  0
  190.8390  176.9720  139.9510 C   0  0  0  0  0  3  0  0  0  0  0  0
  191.3160  176.8710  138.6410 C   0  0  0  0  0  3  0  0  0  0  0  0
  189.0610  177.1290  137.7980 C   0  0  0  0  0  3  0  0  0  0  0  0
  188.5830  177.2310  139.1070 C   0  0  0  0  0  3  0  0  0  0  0  0
  1 15  1  0  0  0  0
  2  6  1  6  0  0  0
  2 16  1  0  0  0  0
  3 21  1  0  0  0  0
  4 13  1  0  0  0  0
  6 18  1  0  0  0  0
  7  9  1  0  0  0  0
  8 10  1  0  0  0  0
 11  7  2  0  0  0  0
 12 23  1  6  0  0  0
 12  2  1  0  0  0  0
 12  1  1  0  0  0  0
 13  5  1  0  0  0  0
 13  9  2  0  0  0  0
 14  4  2  0  0  0  0
 14 11  1  0  0  0  0
 15 20  2  0  0  0  0
 15 21  1  0  0  0  0
 16 11  1  6  0  0  0
 16  3  1  0  0  0  0
 17  8  1  0  0  0  0
 18 14  1  0  0  0  0
 19  8  2  0  0  0  0
 20 19  1  0  0  0  0
 21 17  2  0  0  0  0
 22 26  2  0  0  0  0
 22 25  1  0  0  0  0
 24 23  1  0  0  0  0
 25 24  2  0  0  0  0
 26 27  1  0  0  0  0
 27 23  2  0  0  0  0
M  END
>  <MODEL>
6

>  <REMARK>
 VINA RESULT:      -9.5      2.173      6.876
  Name = 
  1 active torsions:
  status: ('A' for Active; 'I' for Inactive)
    1  A    between atoms: C_9  and  C_15
                            x       y       z     vdW  Elec       q    Type
                         _______ _______ _______ _____ _____    ______ ____

>  <TORSDO>
F 1

$$$$
=
 OpenBabel10272401083D

 27 31  0  0  1  0  0  0  0  0999 V2000
  185.4610  178.9660  144.0560 N   0  0  0  0  0  2  0  0  0  0  0  0
  187.1740  177.8720  142.5790 C   0  0  1  0  0  3  0  0  0  0  0  0
  185.0470  177.9070  141.3270 N   0  0  0  0  0  2  0  0  0  0  0  0
  189.2870  178.3640  138.9870 C   0  0  0  0  0  3  0  0  0  0  0  0
  189.3570  178.3230  136.5770 O   0  0  0  0  0  1  0  0  0  0  0  0
  188.5320  178.5740  142.6460 C   0  0  0  0  0  2  0  0  0  0  0  0
  186.4900  178.4130  138.8970 C   0  0  0  0  0  3  0  0  0  0  0  0
  181.5870  178.7880  142.3600 C   0  0  0  0  0  0  0  0  0  0  0  0
  187.2290  178.3860  137.7110 C   0  0  0  0  0  3  0  0  0  0  0  0
  180.3010  178.6850  141.8500 O   0  0  0  0  0  1  0  0  0  0  0  0
  187.1450  178.3940  140.1350 C   0  0  0  0  0  0  0  0  0  0  0  0
  186.3960  177.8540  143.9090 C   0  0  1  0  0  3  0  0  0  0  0  0
  188.6250  178.3560  137.7560 C   0  0  0  0  0  0  0  0  0  0  0  0
  188.5540  178.3950  140.1770 C   0  0  0  0  0  0  0  0  0  0  0  0
  184.1820  178.9680  143.4120 C   0  0  0  0  0  0  0  0  0  0  0  0
  186.3770  178.4930  141.4290 C   0  0  2  0  0  3  0  0  0  0  0  0
  182.6640  178.2500  141.6530 C   0  0  0  0  0  3  0  0  0  0  0  0
  189.2250  178.4040  141.4080 O   0  0  0  0  0  0  0  0  0  0  0  0
  181.8060  179.4420  143.5730 C   0  0  0  0  0  3  0  0  0  0  0  0
  183.0980  179.5290  144.0970 C   0  0  0  0  0  3  0  0  0  0  0  0
  183.9650  178.3470  142.1560 C   0  0  0  0  0  0  0  0  0  0  0  0
  188.7730  177.2930  147.4500 C   0  0  0  0  0  3  0  0  0  0  0  0
  187.2440  177.6680  145.1330 C   0  0  0  0  0  0  0  0  0  0  0  0
  186.7330  178.0400  146.3810 C   0  0  0  0  0  3  0  0  0  0  0  0
  187.4970  177.8550  147.5370 C   0  0  0  0  0  3  0  0  0  0  0  0
  189.2860  176.9130  146.2060 C   0  0  0  0  0  3  0  0  0  0  0  0
  188.5240  177.0980  145.0500 C   0  0  0  0  0  3  0  0  0  0  0  0
  2  6  1  1  0  0  0
  2 12  1  0  0  0  0
  3 16  1  0  0  0  0
  3 21  1  0  0  0  0
  4 14  1  0  0  0  0
  5 13  1  0  0  0  0
  7 11  1  0  0  0  0
  8 19  1  0  0  0  0
  9 13  1  0  0  0  0
  9  7  2  0  0  0  0
 10  8  1  0  0  0  0
 11 14  2  0  0  0  0
 12  1  1  0  0  0  0
 12 23  1  1  0  0  0
 13  4  2  0  0  0  0
 14 18  1  0  0  0  0
 15  1  1  0  0  0  0
 15 20  1  0  0  0  0
 16 11  1  6  0  0  0
 16  2  1  0  0  0  0
 17 21  1  0  0  0  0
 17  8  2  0  0  0  0
 18  6  1  0  0  0  0
 19 20  2  0  0  0  0
 21 15  2  0  0  0  0
 22 25  1  0  0  0  0
 23 24  1  0  0  0  0
 24 25  2  0  0  0  0
 26 22  2  0  0  0  0
 27 23  2  0  0  0  0
 27 26  1  0  0  0  0
M  END
>  <MODEL>
7

>  <REMARK>
 VINA RESULT:      -9.5      2.545      6.892
  Name = 
  1 active torsions:
  status: ('A' for Active; 'I' for Inactive)
    1  A    between atoms: C_9  and  C_15
                            x       y       z     vdW  Elec       q    Type
                         _______ _______ _______ _____ _____    ______ ____

>  <TORSDO>
F 1

$$$$
=
 OpenBabel10272401083D

 27 31  0  0  1  0  0  0  0  0999 V2000
  187.2320  177.3510  142.1680 N   0  0  0  0  0  2  0  0  0  0  0  0
  189.5450  177.5450  143.1300 C   0  0  1  0  0  3  0  0  0  0  0  0
  187.9640  178.2840  144.8770 N   0  0  0  0  0  2  0  0  0  0  0  0
  192.0700  175.9770  146.0930 C   0  0  0  0  0  3  0  0  0  0  0  0
  192.7320  175.8100  148.4060 O   0  0  0  0  0  1  0  0  0  0  0  0
  190.4330  176.3590  142.7490 C   0  0  0  0  0  2  0  0  0  0  0  0
  189.6130  177.0600  146.8830 C   0  0  0  0  0  3  0  0  0  0  0  0
  184.3110  178.9600  144.7740 C   0  0  0  0  0  0  0  0  0  0  0  0
  190.5610  176.6990  147.8440 C   0  0  0  0  0  3  0  0  0  0  0  0
  183.3460  179.5380  145.5870 O   0  0  0  0  0  1  0  0  0  0  0  0
  189.8960  176.9020  145.5190 C   0  0  0  0  0  0  0  0  0  0  0  0
  188.5460  177.9740  142.0390 C   0  0  1  0  0  3  0  0  0  0  0  0
  191.7900  176.1630  147.4490 C   0  0  0  0  0  0  0  0  0  0  0  0
  191.1240  176.3330  145.1260 C   0  0  0  0  0  0  0  0  0  0  0  0
  186.2620  177.8220  143.1120 C   0  0  0  0  0  0  0  0  0  0  0  0
  188.8680  177.2180  144.4640 C   0  0  2  0  0  3  0  0  0  0  0  0
  185.6500  178.9630  145.1700 C   0  0  0  0  0  3  0  0  0  0  0  0
  191.4130  176.1430  143.7680 O   0  0  0  0  0  0  0  0  0  0  0  0
  183.9410  178.3640  143.5680 C   0  0  0  0  0  3  0  0  0  0  0  0
  184.9140  177.8000  142.7400 C   0  0  0  0  0  3  0  0  0  0  0  0
  186.6310  178.3830  144.3600 C   0  0  0  0  0  0  0  0  0  0  0  0
  190.0350  177.7970  138.0070 C   0  0  0  0  0  3  0  0  0  0  0  0
  189.0710  177.8900  140.6360 C   0  0  0  0  0  0  0  0  0  0  0  0
  188.3070  178.4130  139.5870 C   0  0  0  0  0  3  0  0  0  0  0  0
  188.7860  178.3650  138.2750 C   0  0  0  0  0  3  0  0  0  0  0  0
  190.8060  177.2790  139.0510 C   0  0  0  0  0  3  0  0  0  0  0  0
  190.3280  177.3260  140.3630 C   0  0  0  0  0  3  0  0  0  0  0  0
  1 15  1  0  0  0  0
  2  6  1  6  0  0  0
  2 16  1  0  0  0  0
  4 13  1  0  0  0  0
  6 18  1  0  0  0  0
  7  9  1  0  0  0  0
  8 17  1  0  0  0  0
  8 10  1  0  0  0  0
 11  7  2  0  0  0  0
 12 23  1  6  0  0  0
 12  1  1  0  0  0  0
 12  2  1  0  0  0  0
 13  9  2  0  0  0  0
 13  5  1  0  0  0  0
 14 11  1  0  0  0  0
 14  4  2  0  0  0  0
 15 21  1  0  0  0  0
 16  3  1  1  0  0  0
 16 11  1  0  0  0  0
 18 14  1  0  0  0  0
 19  8  2  0  0  0  0
 20 15  2  0  0  0  0
 20 19  1  0  0  0  0
 21  3  1  0  0  0  0
 21 17  2  0  0  0  0
 22 25  2  0  0  0  0
 22 26  1  0  0  0  0
 24 23  2  0  0  0  0
 25 24  1  0  0  0  0
 26 27  2  0  0  0  0
 27 23  1  0  0  0  0
M  END
>  <MODEL>
8

>  <REMARK>
 VINA RESULT:      -9.4      1.690      5.243
  Name = 
  1 active torsions:
  status: ('A' for Active; 'I' for Inactive)
    1  A    between atoms: C_9  and  C_15
                            x       y       z     vdW  Elec       q    Type
                         _______ _______ _______ _____ _____    ______ ____

>  <TORSDO>
F 1

$$$$
=
 OpenBabel10272401083D

 27 31  0  0  1  0  0  0  0  0999 V2000
  189.4350  176.8540  140.6720 N   0  0  0  0  0  2  0  0  0  0  0  0
  187.7700  178.2010  141.9870 C   0  0  1  0  0  3  0  0  0  0  0  0
  187.3400  178.6430  139.5960 N   0  0  0  0  0  2  0  0  0  0  0  0
  183.6680  178.5790  142.7860 C   0  0  0  0  0  3  0  0  0  0  0  0
  181.4590  179.2720  142.1110 O   0  0  0  0  0  1  0  0  0  0  0  0
  187.2060  177.4240  143.1780 C   0  0  0  0  0  2  0  0  0  0  0  0
  184.5190  178.7300  140.1240 C   0  0  0  0  0  3  0  0  0  0  0  0
  189.2410  177.7300  136.5350 C   0  0  0  0  0  0  0  0  0  0  0  0
  183.1960  179.0350  140.4550 C   0  0  0  0  0  3  0  0  0  0  0  0
  189.2350  178.0480  135.1850 O   0  0  0  0  0  1  0  0  0  0  0  0
  185.4310  178.3690  141.1250 C   0  0  0  0  0  0  0  0  0  0  0  0
  189.2490  177.9040  141.6700 C   0  0  1  0  0  3  0  0  0  0  0  0
  182.7720  178.9640  141.7840 C   0  0  0  0  0  0  0  0  0  0  0  0
  184.9920  178.2690  142.4610 C   0  0  0  0  0  0  0  0  0  0  0  0
  189.2800  177.1090  139.2710 C   0  0  0  0  0  0  0  0  0  0  0  0
  186.8450  177.9690  140.7890 C   0  0  2  0  0  3  0  0  0  0  0  0
  188.3610  178.3730  137.4090 C   0  0  0  0  0  3  0  0  0  0  0  0
  185.8840  177.8830  143.4710 O   0  0  0  0  0  0  0  0  0  0  0  0
  190.1170  176.7570  137.0190 C   0  0  0  0  0  3  0  0  0  0  0  0
  190.1370  176.4510  138.3820 C   0  0  0  0  0  3  0  0  0  0  0  0
  188.3570  178.0610  138.7720 C   0  0  0  0  0  0  0  0  0  0  0  0
  191.7060  177.3440  145.1560 C   0  0  0  0  0  3  0  0  0  0  0  0
  190.1210  177.6950  142.8730 C   0  0  0  0  0  0  0  0  0  0  0  0
  190.4380  178.7900  143.6840 C   0  0  0  0  0  3  0  0  0  0  0  0
  191.2310  178.6160  144.8230 C   0  0  0  0  0  3  0  0  0  0  0  0
  191.3860  176.2460  144.3530 C   0  0  0  0  0  3  0  0  0  0  0  0
  190.5940  176.4190  143.2150 C   0  0  0  0  0  3  0  0  0  0  0  0
  1 12  1  0  0  0  0
  2  6  1  1  0  0  0
  6 18  1  0  0  0  0
  7  9  2  0  0  0  0
  7 11  1  0  0  0  0
  8 19  2  0  0  0  0
  8 17  1  0  0  0  0
  9 13  1  0  0  0  0
 10  8  1  0  0  0  0
 11 14  2  0  0  0  0
 12  2  1  0  0  0  0
 12 23  1  1  0  0  0
 13  5  1  0  0  0  0
 13  4  2  0  0  0  0
 14  4  1  0  0  0  0
 14 18  1  0  0  0  0
 15  1  1  0  0  0  0
 16  3  1  6  0  0  0
 16 11  1  0  0  0  0
 16  2  1  0  0  0  0
 17 21  2  0  0  0  0
 19 20  1  0  0  0  0
 20 15  2  0  0  0  0
 21 15  1  0  0  0  0
 21  3  1  0  0  0  0
 23 27  2  0  0  0  0
 23 24  1  0  0  0  0
 24 25  2  0  0  0  0
 25 22  1  0  0  0  0
 26 22  2  0  0  0  0
 27 26  1  0  0  0  0
M  END
>  <MODEL>
9

>  <REMARK>
 VINA RESULT:      -9.0      2.373      6.258
  Name = 
  1 active torsions:
  status: ('A' for Active; 'I' for Inactive)
    1  A    between atoms: C_9  and  C_15
                            x       y       z     vdW  Elec       q    Type
                         _______ _______ _______ _____ _____    ______ ____

>  <TORSDO>
F 1

$$$$
