=
 OpenBabel10272415203D

 34 40  0  0  1  0  0  0  0  0999 V2000
  190.3940  175.6380  137.5960 C   0  0  1  0  0  3  0  0  0  0  0  0
  193.0200  175.6470  134.8200 C   0  0  0  0  0  3  0  0  0  0  0  0
  188.9400  176.5910  142.7140 C   0  0  0  0  0  2  0  0  0  0  0  0
  190.5380  175.6510  134.6010 C   0  0  0  0  0  2  0  0  0  0  0  0
  188.5450  178.7580  140.8520 C   0  0  0  0  0  2  0  0  0  0  0  0
  190.0480  176.8270  139.6860 C   0  0  2  0  0  0  0  0  0  0  0  0
  190.2440  176.9840  138.3250 C   0  0  2  0  0  3  0  0  0  0  0  0
  187.6490  176.4330  138.2910 C   0  0  0  0  0  2  0  0  0  0  0  0
  186.5950  174.9040  136.7130 C   0  0  0  0  0  1  0  0  0  0  0  0
  187.7910  177.5770  142.9780 C   0  0  1  0  0  3  0  0  0  0  0  0
  188.8580  176.9900  138.7530 N   0  0  1  0  0  0  0  0  0  0  0  0
  190.6930  178.0390  140.0910 O   0  0  0  0  0  0  0  0  0  0  0  0
  189.2990  176.1090  135.3610 C   0  0  0  0  0  2  0  0  0  0  0  0
  189.1720  175.3220  136.6600 C   0  0  2  0  0  3  0  0  0  0  0  0
  187.7970  175.5670  137.2870 C   0  0  1  0  0  3  0  0  0  0  0  0
  194.2070  175.5700  135.5640 C   0  0  0  0  0  0  0  0  0  0  0  0
  194.1320  175.4940  136.9580 C   0  0  0  0  0  3  0  0  0  0  0  0
  187.3500  178.2710  141.6720 C   0  0  1  0  0  3  0  0  0  0  0  0
  189.6280  177.6770  140.8670 C   0  0  1  0  0  0  0  0  0  0  0  0
  190.0470  177.2370  142.1310 O   0  0  0  0  0  0  0  0  0  0  0  0
  191.7750  175.6650  135.4550 C   0  0  0  0  0  0  0  0  0  0  0  0
  192.8930  175.4990  137.6030 C   0  0  0  0  0  3  0  0  0  0  0  0
  191.7080  175.5800  136.8630 C   0  0  0  0  0  0  0  0  0  0  0  0
  185.4560  179.5380  140.8990 O   0  0  0  0  0  1  0  0  0  0  0  0
  186.3850  179.4210  141.9360 C   0  0  0  0  0  2  0  0  0  0  0  0
  186.6250  176.8760  143.6850 C   0  0  0  0  0  2  0  0  0  0  0  0
  186.6310  177.0510  145.2040 C   0  0  0  0  0  2  0  0  0  0  0  0
  186.2970  178.4770  145.5940 C   0  0  0  0  0  3  0  0  0  0  0  0
  185.2940  178.4560  146.7310 C   0  0  0  0  0  2  0  0  0  0  0  0
  184.8290  178.7320  145.3190 C   0  0  0  0  0  2  0  0  0  0  0  0
  195.4760  175.5580  134.9650 O   0  0  0  0  0  0  0  0  0  0  0  0
  196.3860  177.8380  134.5540 C   0  0  0  0  0  1  0  0  0  0  0  0
  197.5140  176.2230  135.8720 O   0  0  0  0  0  0  0  0  0  0  0  0
  196.5000  176.4930  135.1750 C   0  0  0  0  0  0  0  0  0  0  0  0
  1 23  1  6  0  0  0
  1  7  1  0  0  0  0
  2 21  2  0  0  0  0
  2 16  1  0  0  0  0
  3 10  1  0  0  0  0
  4 13  1  0  0  0  0
  4 21  1  0  0  0  0
  5 19  1  0  0  0  0
  5 18  1  0  0  0  0
  6 12  1  6  0  0  0
  6 19  1  0  0  0  0
  7 11  1  0  0  0  0
  7  6  1  0  0  0  0
  8 11  1  0  0  0  0
  9 15  1  0  0  0  0
 10 26  1  0  0  0  0
 11  6  1  0  0  0  0
 12 19  1  0  0  0  0
 13 14  1  0  0  0  0
 14 15  1  0  0  0  0
 14  1  1  0  0  0  0
 15  8  1  0  0  0  0
 16 17  2  0  0  0  0
 17 22  1  0  0  0  0
 18 25  1  0  0  0  0
 18 10  1  0  0  0  0
 19 20  1  0  0  0  0
 20  3  1  0  0  0  0
 21 23  1  0  0  0  0
 23 22  2  0  0  0  0
 24 25  1  0  0  0  0
 26 27  1  0  0  0  0
 27 28  1  0  0  0  0
 28 29  1  0  0  0  0
 30 28  1  0  0  0  0
 30 29  1  0  0  0  0
 31 34  1  0  0  0  0
 31 16  1  0  0  0  0
 32 34  1  0  0  0  0
 34 33  2  0  0  0  0
M  END
>  <MODEL>
1

>  <REMARK>
 VINA RESULT:      -7.6      0.000      0.000
  Name = 
  6 active torsions:
  status: ('A' for Active; 'I' for Inactive)
    1  A    between atoms: C_7  and  C_11
    2  A    between atoms: C_7  and  C_14
    3  A    between atoms: C_14  and  C_16
    4  A    between atoms: O_23  and  C_24
    5  A    between atoms: O_23  and  C_25
    6  A    between atoms: C_28  and  C_29
                            x       y       z     vdW  Elec       q    Type
                         _______ _______ _______ _____ _____    ______ ____

>  <TORSDO>
F 6

$$$$
=
 OpenBabel10272415203D

 34 40  0  0  1  0  0  0  0  0999 V2000
  184.8190  177.8430  142.8610 C   0  0  1  0  0  3  0  0  0  0  0  0
  181.5390  179.1170  141.3710 C   0  0  0  0  0  3  0  0  0  0  0  0
  189.8650  175.9990  142.2680 C   0  0  0  0  0  2  0  0  0  0  0  0
  182.4300  179.4640  143.6720 C   0  0  0  0  0  2  0  0  0  0  0  0
  189.5770  178.8540  142.5560 C   0  0  0  0  0  2  0  0  0  0  0  0
  187.1400  177.7360  142.1550 C   0  0  2  0  0  0  0  0  0  0  0  0
  186.0690  178.5870  142.3600 C   0  0  2  0  0  3  0  0  0  0  0  0
  186.8980  178.3800  144.8720 C   0  0  0  0  0  2  0  0  0  0  0  0
  185.4160  178.0540  146.7790 C   0  0  0  0  0  1  0  0  0  0  0  0
  191.0140  176.7840  142.9210 C   0  0  1  0  0  3  0  0  0  0  0  0
  186.9970  178.4850  143.4700 N   0  0  1  0  0  0  0  0  0  0  0  0
  187.7370  178.4710  141.0800 O   0  0  0  0  0  0  0  0  0  0  0  0
  183.7610  179.5480  144.4090 C   0  0  0  0  0  2  0  0  0  0  0  0
  184.4670  178.1980  144.3510 C   0  0  2  0  0  3  0  0  0  0  0  0
  185.6550  178.1870  145.3170 C   0  0  1  0  0  3  0  0  0  0  0  0
  181.5770  178.5410  140.0920 C   0  0  0  0  0  0  0  0  0  0  0  0
  182.6600  177.7290  139.7430 C   0  0  0  0  0  3  0  0  0  0  0  0
  190.5020  178.1110  143.5200 C   0  0  1  0  0  3  0  0  0  0  0  0
  188.6310  177.8450  141.9030 C   0  0  1  0  0  0  0  0  0  0  0  0
  189.2350  176.7540  141.2620 O   0  0  0  0  0  0  0  0  0  0  0  0
  182.5740  178.9010  142.2850 C   0  0  0  0  0  0  0  0  0  0  0  0
  183.6940  177.4970  140.6530 C   0  0  0  0  0  3  0  0  0  0  0  0
  183.6600  178.0730  141.9280 C   0  0  0  0  0  0  0  0  0  0  0  0
  191.1880  180.3120  144.2130 O   0  0  0  0  0  1  0  0  0  0  0  0
  191.6480  179.0170  143.9570 C   0  0  0  0  0  2  0  0  0  0  0  0
  191.7410  175.9210  143.9590 C   0  0  0  0  0  2  0  0  0  0  0  0
  191.0440  175.8750  145.3190 C   0  0  0  0  0  2  0  0  0  0  0  0
  191.9150  176.4800  146.4030 C   0  0  0  0  0  3  0  0  0  0  0  0
  191.8870  175.5760  147.6200 C   0  0  0  0  0  2  0  0  0  0  0  0
  191.0460  176.8320  147.5930 C   0  0  0  0  0  2  0  0  0  0  0  0
  180.5620  178.7420  139.1430 O   0  0  0  0  0  0  0  0  0  0  0  0
  181.3360  180.8110  137.9970 C   0  0  0  0  0  1  0  0  0  0  0  0
  180.2200  179.0550  136.8620 O   0  0  0  0  0  0  0  0  0  0  0  0
  180.6710  179.4830  137.9570 C   0  0  0  0  0  0  0  0  0  0  0  0
  1 23  1  6  0  0  0
  1 14  1  0  0  0  0
  2 21  1  0  0  0  0
  3 10  1  0  0  0  0
  4 13  1  0  0  0  0
  5 18  1  0  0  0  0
  6 12  1  6  0  0  0
  6  7  1  0  0  0  0
  6 11  1  0  0  0  0
  7  1  1  0  0  0  0
  7 11  1  0  0  0  0
  8 15  1  0  0  0  0
 10 18  1  0  0  0  0
 10 26  1  0  0  0  0
 11  8  1  0  0  0  0
 12 19  1  0  0  0  0
 14 13  1  0  0  0  0
 14 15  1  0  0  0  0
 15  9  1  0  0  0  0
 16  2  2  0  0  0  0
 17 16  1  0  0  0  0
 17 22  2  0  0  0  0
 18 25  1  0  0  0  0
 19  6  1  0  0  0  0
 19  5  1  0  0  0  0
 20 19  1  0  0  0  0
 20  3  1  0  0  0  0
 21  4  1  0  0  0  0
 22 23  1  0  0  0  0
 23 21  2  0  0  0  0
 25 24  1  0  0  0  0
 26 27  1  0  0  0  0
 27 28  1  0  0  0  0
 28 30  1  0  0  0  0
 28 29  1  0  0  0  0
 30 29  1  0  0  0  0
 31 16  1  0  0  0  0
 33 34  2  0  0  0  0
 34 32  1  0  0  0  0
 34 31  1  0  0  0  0
M  END
>  <MODEL>
2

>  <REMARK>
 VINA RESULT:      -7.5      5.348      9.376
  Name = 
  6 active torsions:
  status: ('A' for Active; 'I' for Inactive)
    1  A    between atoms: C_7  and  C_11
    2  A    between atoms: C_7  and  C_14
    3  A    between atoms: C_14  and  C_16
    4  A    between atoms: O_23  and  C_24
    5  A    between atoms: O_23  and  C_25
    6  A    between atoms: C_28  and  C_29
                            x       y       z     vdW  Elec       q    Type
                         _______ _______ _______ _____ _____    ______ ____

>  <TORSDO>
F 6

$$$$
=
 OpenBabel10272415203D

 34 40  0  0  1  0  0  0  0  0999 V2000
  189.8940  175.2930  137.3590 C   0  0  1  0  0  3  0  0  0  0  0  0
  192.9100  174.7510  135.0770 C   0  0  0  0  0  3  0  0  0  0  0  0
  187.2060  178.2510  140.9970 C   0  0  0  0  0  2  0  0  0  0  0  0
  190.6390  173.7440  134.9020 C   0  0  0  0  0  2  0  0  0  0  0  0
  186.5790  178.7600  138.2280 C   0  0  0  0  0  2  0  0  0  0  0  0
  188.7910  177.1990  138.3830 C   0  0  2  0  0  0  0  0  0  0  0  0
  189.2060  176.6580  137.1800 C   0  0  2  0  0  3  0  0  0  0  0  0
  186.9540  175.2860  137.4760 C   0  0  0  0  0  2  0  0  0  0  0  0
  186.7470  172.8930  137.0680 C   0  0  0  0  0  1  0  0  0  0  0  0
  185.7880  178.7310  140.6480 C   0  0  1  0  0  3  0  0  0  0  0  0
  187.8240  176.3940  137.5300 N   0  0  1  0  0  0  0  0  0  0  0  0
  188.9520  178.5740  138.0150 O   0  0  0  0  0  0  0  0  0  0  0  0
  189.1910  174.0560  135.2620 C   0  0  0  0  0  2  0  0  0  0  0  0
  189.0380  174.1100  136.7780 C   0  0  2  0  0  3  0  0  0  0  0  0
  187.5540  174.1390  137.1530 C   0  0  1  0  0  3  0  0  0  0  0  0
  193.8880  175.5190  135.7270 C   0  0  0  0  0  0  0  0  0  0  0  0
  193.5550  176.1840  136.9100 C   0  0  0  0  0  3  0  0  0  0  0  0
  185.4400  178.3990  139.1820 C   0  0  1  0  0  3  0  0  0  0  0  0
  187.9060  178.3330  138.8610 C   0  0  1  0  0  0  0  0  0  0  0  0
  188.1670  178.8270  140.1460 O   0  0  0  0  0  0  0  0  0  0  0  0
  191.6130  174.6590  135.5890 C   0  0  0  0  0  0  0  0  0  0  0  0
  192.2650  176.0900  137.4380 C   0  0  0  0  0  3  0  0  0  0  0  0
  191.2870  175.3270  136.7890 C   0  0  0  0  0  0  0  0  0  0  0  0
  184.1900  180.4460  138.9820 O   0  0  0  0  0  1  0  0  0  0  0  0
  184.1450  179.0710  138.7380 C   0  0  0  0  0  2  0  0  0  0  0  0
  184.7620  178.1580  141.6330 C   0  0  0  0  0  2  0  0  0  0  0  0
  185.2460  178.1360  143.0830 C   0  0  0  0  0  2  0  0  0  0  0  0
  184.6690  179.2940  143.8740 C   0  0  0  0  0  3  0  0  0  0  0  0
  184.5780  178.8990  145.3340 C   0  0  0  0  0  2  0  0  0  0  0  0
  183.3410  178.8720  144.4670 C   0  0  0  0  0  2  0  0  0  0  0  0
  195.1990  175.6440  135.2400 O   0  0  0  0  0  0  0  0  0  0  0  0
  196.5380  173.9330  136.4530 C   0  0  0  0  0  1  0  0  0  0  0  0
  197.2930  176.1540  136.1170 O   0  0  0  0  0  0  0  0  0  0  0  0
  196.3740  175.3140  135.9290 C   0  0  0  0  0  0  0  0  0  0  0  0
  1 23  1  6  0  0  0
  2 21  2  0  0  0  0
  2 16  1  0  0  0  0
  4 13  1  0  0  0  0
  4 21  1  0  0  0  0
  5 19  1  0  0  0  0
  5 18  1  0  0  0  0
  6 12  1  6  0  0  0
  6 19  1  0  0  0  0
  7  1  1  0  0  0  0
  7 11  1  0  0  0  0
  7  6  1  0  0  0  0
  8 11  1  0  0  0  0
  9 15  1  0  0  0  0
 10  3  1  0  0  0  0
 10 26  1  0  0  0  0
 11  6  1  0  0  0  0
 12 19  1  0  0  0  0
 13 14  1  0  0  0  0
 14 15  1  0  0  0  0
 14  1  1  0  0  0  0
 15  8  1  0  0  0  0
 16 17  2  0  0  0  0
 17 22  1  0  0  0  0
 18 10  1  0  0  0  0
 19 20  1  0  0  0  0
 20  3  1  0  0  0  0
 21 23  1  0  0  0  0
 23 22  2  0  0  0  0
 25 24  1  0  0  0  0
 25 18  1  0  0  0  0
 26 27  1  0  0  0  0
 27 28  1  0  0  0  0
 28 30  1  0  0  0  0
 28 29  1  0  0  0  0
 30 29  1  0  0  0  0
 31 16  1  0  0  0  0
 31 34  1  0  0  0  0
 34 33  2  0  0  0  0
 34 32  1  0  0  0  0
M  END
>  <MODEL>
3

>  <REMARK>
 VINA RESULT:      -7.1      1.798      2.223
  Name = 
  6 active torsions:
  status: ('A' for Active; 'I' for Inactive)
    1  A    between atoms: C_7  and  C_11
    2  A    between atoms: C_7  and  C_14
    3  A    between atoms: C_14  and  C_16
    4  A    between atoms: O_23  and  C_24
    5  A    between atoms: O_23  and  C_25
    6  A    between atoms: C_28  and  C_29
                            x       y       z     vdW  Elec       q    Type
                         _______ _______ _______ _____ _____    ______ ____

>  <TORSDO>
F 6

$$$$
=
 OpenBabel10272415203D

 34 40  0  0  1  0  0  0  0  0999 V2000
  191.9080  174.5720  137.3630 C   0  0  1  0  0  3  0  0  0  0  0  0
  194.6100  174.2430  134.6810 C   0  0  0  0  0  3  0  0  0  0  0  0
  190.2000  176.4650  142.1280 C   0  0  0  0  0  2  0  0  0  0  0  0
  192.1490  173.9450  134.4400 C   0  0  0  0  0  2  0  0  0  0  0  0
  189.6580  178.1220  139.8310 C   0  0  0  0  0  2  0  0  0  0  0  0
  191.3790  176.1460  139.1350 C   0  0  2  0  0  0  0  0  0  0  0  0
  191.6040  176.0220  137.7750 C   0  0  2  0  0  3  0  0  0  0  0  0
  189.0770  175.2150  137.8360 C   0  0  0  0  0  2  0  0  0  0  0  0
  188.2300  173.2790  136.6220 C   0  0  0  0  0  1  0  0  0  0  0  0
  188.9520  177.3630  142.1560 C   0  0  1  0  0  3  0  0  0  0  0  0
  190.2110  175.9790  138.1770 N   0  0  1  0  0  0  0  0  0  0  0  0
  191.8900  177.4770  139.2700 O   0  0  0  0  0  0  0  0  0  0  0  0
  190.8460  174.4300  135.0670 C   0  0  0  0  0  2  0  0  0  0  0  0
  190.7540  173.9370  136.5060 C   0  0  2  0  0  3  0  0  0  0  0  0
  189.3420  174.1700  137.0490 C   0  0  1  0  0  3  0  0  0  0  0  0
  195.7740  174.4520  135.4370 C   0  0  0  0  0  0  0  0  0  0  0  0
  195.6610  174.6750  136.8130 C   0  0  0  0  0  3  0  0  0  0  0  0
  188.4900  177.7060  140.7240 C   0  0  1  0  0  3  0  0  0  0  0  0
  190.8400  177.1870  140.0950 C   0  0  1  0  0  0  0  0  0  0  0  0
  191.2570  177.0780  141.4300 O   0  0  0  0  0  0  0  0  0  0  0  0
  193.3490  174.2730  135.2830 C   0  0  0  0  0  0  0  0  0  0  0  0
  194.4070  174.6940  137.4270 C   0  0  0  0  0  3  0  0  0  0  0  0
  193.2450  174.4900  136.6750 C   0  0  0  0  0  0  0  0  0  0  0  0
  186.4440  178.5090  139.7450 O   0  0  0  0  0  1  0  0  0  0  0  0
  187.4090  178.7810  140.7180 C   0  0  0  0  0  2  0  0  0  0  0  0
  187.8380  176.7170  142.9880 C   0  0  0  0  0  2  0  0  0  0  0  0
  188.0690  176.7990  144.4970 C   0  0  0  0  0  2  0  0  0  0  0  0
  187.4250  178.0400  145.0850 C   0  0  0  0  0  3  0  0  0  0  0  0
  186.4280  177.6230  146.1480 C   0  0  0  0  0  2  0  0  0  0  0  0
  185.9430  178.0210  144.7730 C   0  0  0  0  0  2  0  0  0  0  0  0
  197.0570  174.4400  134.8690 O   0  0  0  0  0  0  0  0  0  0  0  0
  198.8080  173.0410  135.9530 C   0  0  0  0  0  1  0  0  0  0  0  0
  198.9200  175.4070  135.8740 O   0  0  0  0  0  0  0  0  0  0  0  0
  198.2720  174.3720  135.5660 C   0  0  0  0  0  0  0  0  0  0  0  0
  1 23  1  6  0  0  0
  1  7  1  0  0  0  0
  2 21  2  0  0  0  0
  2 16  1  0  0  0  0
  3 10  1  0  0  0  0
  4 13  1  0  0  0  0
  4 21  1  0  0  0  0
  5 19  1  0  0  0  0
  5 18  1  0  0  0  0
  6 12  1  6  0  0  0
  6 19  1  0  0  0  0
  7 11  1  0  0  0  0
  7  6  1  0  0  0  0
  8 11  1  0  0  0  0
  9 15  1  0  0  0  0
 10 26  1  0  0  0  0
 11  6  1  0  0  0  0
 12 19  1  0  0  0  0
 13 14  1  0  0  0  0
 14 15  1  0  0  0  0
 14  1  1  0  0  0  0
 15  8  1  0  0  0  0
 16 17  2  0  0  0  0
 17 22  1  0  0  0  0
 18 10  1  0  0  0  0
 19 20  1  0  0  0  0
 20  3  1  0  0  0  0
 21 23  1  0  0  0  0
 23 22  2  0  0  0  0
 24 25  1  0  0  0  0
 25 18  1  0  0  0  0
 26 27  1  0  0  0  0
 27 28  1  0  0  0  0
 28 29  1  0  0  0  0
 30 28  1  0  0  0  0
 30 29  1  0  0  0  0
 31 16  1  0  0  0  0
 31 34  1  0  0  0  0
 34 33  2  0  0  0  0
 34 32  1  0  0  0  0
M  END
>  <MODEL>
4

>  <REMARK>
 VINA RESULT:      -6.8      1.663      2.038
  Name = 
  6 active torsions:
  status: ('A' for Active; 'I' for Inactive)
    1  A    between atoms: C_7  and  C_11
    2  A    between atoms: C_7  and  C_14
    3  A    between atoms: C_14  and  C_16
    4  A    between atoms: O_23  and  C_24
    5  A    between atoms: O_23  and  C_25
    6  A    between atoms: C_28  and  C_29
                            x       y       z     vdW  Elec       q    Type
                         _______ _______ _______ _____ _____    ______ ____

>  <TORSDO>
F 6

$$$$
=
 OpenBabel10272415203D

 34 40  0  0  1  0  0  0  0  0999 V2000
  189.5120  176.7850  140.8190 C   0  0  1  0  0  3  0  0  0  0  0  0
  190.4790  178.0240  144.3020 C   0  0  0  0  0  3  0  0  0  0  0  0
  185.8200  176.0060  136.9490 C   0  0  0  0  0  2  0  0  0  0  0  0
  191.9520  177.6570  142.3270 C   0  0  0  0  0  2  0  0  0  0  0  0
  187.2590  178.5030  136.8530 C   0  0  0  0  0  2  0  0  0  0  0  0
  187.7540  177.2650  139.2130 C   0  0  2  0  0  0  0  0  0  0  0  0
  188.7720  177.8270  139.9630 C   0  0  2  0  0  3  0  0  0  0  0  0
  190.2330  176.8660  137.9680 C   0  0  0  0  0  2  0  0  0  0  0  0
  192.3410  175.6790  138.2650 C   0  0  0  0  0  1  0  0  0  0  0  0
  186.0450  176.6640  135.5780 C   0  0  1  0  0  3  0  0  0  0  0  0
  189.1310  177.4720  138.6040 N   0  0  1  0  0  0  0  0  0  0  0  0
  186.8930  178.4090  139.2120 O   0  0  0  0  0  0  0  0  0  0  0  0
  191.8880  177.6630  140.8040 C   0  0  0  0  0  2  0  0  0  0  0  0
  190.9820  176.5360  140.3230 C   0  0  2  0  0  3  0  0  0  0  0  0
  191.1320  176.3530  138.8110 C   0  0  1  0  0  3  0  0  0  0  0  0
  189.2480  177.9490  144.9720 C   0  0  0  0  0  0  0  0  0  0  0  0
  188.1270  177.4750  144.2840 C   0  0  0  0  0  3  0  0  0  0  0  0
  187.2660  177.6070  135.6140 C   0  0  1  0  0  3  0  0  0  0  0  0
  186.8490  177.6660  138.0660 C   0  0  1  0  0  0  0  0  0  0  0  0
  185.6370  176.9700  137.9570 O   0  0  0  0  0  0  0  0  0  0  0  0
  190.5900  177.6480  142.9600 C   0  0  0  0  0  0  0  0  0  0  0  0
  188.2280  177.0860  142.9460 C   0  0  0  0  0  3  0  0  0  0  0  0
  189.4540  177.1620  142.2750 C   0  0  0  0  0  0  0  0  0  0  0  0
  186.4050  179.4620  134.3460 O   0  0  0  0  0  1  0  0  0  0  0  0
  187.3700  178.4530  134.3500 C   0  0  0  0  0  2  0  0  0  0  0  0
  186.1640  175.6020  134.4790 C   0  0  0  0  0  2  0  0  0  0  0  0
  186.6140  174.2330  134.9900 C   0  0  0  0  0  2  0  0  0  0  0  0
  187.9440  173.8290  134.3840 C   0  0  0  0  0  3  0  0  0  0  0  0
  188.6660  172.9080  135.3470 C   0  0  0  0  0  2  0  0  0  0  0  0
  189.0640  174.3630  135.2530 C   0  0  0  0  0  2  0  0  0  0  0  0
  189.0940  178.3260  146.3150 O   0  0  0  0  0  0  0  0  0  0  0  0
  188.1450  177.9680  148.5880 C   0  0  0  0  0  1  0  0  0  0  0  0
  189.2910  176.2720  147.3920 O   0  0  0  0  0  0  0  0  0  0  0  0
  188.8790  177.4620  147.3990 C   0  0  0  0  0  0  0  0  0  0  0  0
  1 23  1  1  0  0  0
  2 16  1  0  0  0  0
  3 20  1  0  0  0  0
  4 21  1  0  0  0  0
  5 19  1  0  0  0  0
  6 12  1  6  0  0  0
  6  7  1  0  0  0  0
  7  1  1  0  0  0  0
  8 11  1  0  0  0  0
  8 15  1  0  0  0  0
  9 15  1  0  0  0  0
 10 18  1  0  0  0  0
 10  3  1  0  0  0  0
 11  6  1  0  0  0  0
 11  7  1  0  0  0  0
 13  4  1  0  0  0  0
 14 13  1  0  0  0  0
 14  1  1  0  0  0  0
 15 14  1  0  0  0  0
 16 31  1  0  0  0  0
 17 16  2  0  0  0  0
 18  5  1  0  0  0  0
 19 12  1  0  0  0  0
 19  6  1  0  0  0  0
 20 19  1  0  0  0  0
 21  2  2  0  0  0  0
 22 17  1  0  0  0  0
 23 22  2  0  0  0  0
 23 21  1  0  0  0  0
 24 25  1  0  0  0  0
 25 18  1  0  0  0  0
 26 27  1  0  0  0  0
 26 10  1  0  0  0  0
 28 27  1  0  0  0  0
 28 30  1  0  0  0  0
 28 29  1  0  0  0  0
 30 29  1  0  0  0  0
 31 34  1  0  0  0  0
 33 34  2  0  0  0  0
 34 32  1  0  0  0  0
M  END
>  <MODEL>
5

>  <REMARK>
 VINA RESULT:      -6.7      3.622      8.587
  Name = 
  6 active torsions:
  status: ('A' for Active; 'I' for Inactive)
    1  A    between atoms: C_7  and  C_11
    2  A    between atoms: C_7  and  C_14
    3  A    between atoms: C_14  and  C_16
    4  A    between atoms: O_23  and  C_24
    5  A    between atoms: O_23  and  C_25
    6  A    between atoms: C_28  and  C_29
                            x       y       z     vdW  Elec       q    Type
                         _______ _______ _______ _____ _____    ______ ____

>  <TORSDO>
F 6

$$$$
=
 OpenBabel10272415203D

 34 40  0  0  1  0  0  0  0  0999 V2000
  189.7470  176.8910  141.6930 C   0  0  1  0  0  3  0  0  0  0  0  0
  189.0140  178.2380  145.1930 C   0  0  0  0  0  3  0  0  0  0  0  0
  188.0590  175.0400  136.9040 C   0  0  0  0  0  2  0  0  0  0  0  0
  191.0900  178.4950  143.8410 C   0  0  0  0  0  2  0  0  0  0  0  0
  188.4980  177.8840  137.0870 C   0  0  0  0  0  2  0  0  0  0  0  0
  188.5720  176.7960  139.5690 C   0  0  2  0  0  0  0  0  0  0  0  0
  189.0240  177.6450  140.5640 C   0  0  2  0  0  3  0  0  0  0  0  0
  191.3010  177.3410  139.2360 C   0  0  0  0  0  2  0  0  0  0  0  0
  193.4610  176.9540  140.2960 C   0  0  0  0  0  1  0  0  0  0  0  0
  188.4860  175.7930  135.6340 C   0  0  1  0  0  3  0  0  0  0  0  0
  189.9140  177.4970  139.4280 N   0  0  1  0  0  0  0  0  0  0  0  0
  187.4240  177.5660  139.1980 O   0  0  0  0  0  0  0  0  0  0  0  0
  191.5380  178.5440  142.3850 C   0  0  0  0  0  2  0  0  0  0  0  0
  191.2890  177.1930  141.7250 C   0  0  2  0  0  3  0  0  0  0  0  0
  191.9870  177.1400  140.3630 C   0  0  1  0  0  3  0  0  0  0  0  0
  187.7350  177.7100  145.4280 C   0  0  0  0  0  0  0  0  0  0  0  0
  187.1410  176.9050  144.4510 C   0  0  0  0  0  3  0  0  0  0  0  0
  189.2230  177.1010  135.9930 C   0  0  1  0  0  3  0  0  0  0  0  0
  188.0210  176.9050  138.1620 C   0  0  1  0  0  0  0  0  0  0  0  0
  187.2310  175.8350  137.7180 O   0  0  0  0  0  0  0  0  0  0  0  0
  189.6860  177.9830  143.9940 C   0  0  0  0  0  0  0  0  0  0  0  0
  187.8090  176.6330  143.2540 C   0  0  0  0  0  3  0  0  0  0  0  0
  189.0820  177.1610  143.0160 C   0  0  0  0  0  0  0  0  0  0  0  0
  190.7760  177.9200  134.3460 O   0  0  0  0  0  1  0  0  0  0  0  0
  189.4460  177.9830  134.7690 C   0  0  0  0  0  2  0  0  0  0  0  0
  189.3200  174.8880  134.7200 C   0  0  0  0  0  2  0  0  0  0  0  0
  190.1420  173.8420  135.4730 C   0  0  0  0  0  2  0  0  0  0  0  0
  191.5760  174.2980  135.6610 C   0  0  0  0  0  3  0  0  0  0  0  0
  192.3820  173.1620  136.2590 C   0  0  0  0  0  2  0  0  0  0  0  0
  191.9040  174.2940  137.1400 C   0  0  0  0  0  2  0  0  0  0  0  0
  187.0240  177.9510  146.6140 O   0  0  0  0  0  0  0  0  0  0  0  0
  184.6910  178.5440  145.9800 C   0  0  0  0  0  1  0  0  0  0  0  0
  185.9590  179.8030  147.5370 O   0  0  0  0  0  0  0  0  0  0  0  0
  185.9260  178.8110  146.7620 C   0  0  0  0  0  0  0  0  0  0  0  0
  1 14  1  0  0  0  0
  1 23  1  1  0  0  0
  2 16  1  0  0  0  0
  3 20  1  0  0  0  0
  4 21  1  0  0  0  0
  5 19  1  0  0  0  0
  6 12  1  6  0  0  0
  6  7  1  0  0  0  0
  7  1  1  0  0  0  0
  8 11  1  0  0  0  0
  8 15  1  0  0  0  0
  9 15  1  0  0  0  0
 10 18  1  0  0  0  0
 10  3  1  0  0  0  0
 11  6  1  0  0  0  0
 11  7  1  0  0  0  0
 13  4  1  0  0  0  0
 14 13  1  0  0  0  0
 15 14  1  0  0  0  0
 16 31  1  0  0  0  0
 17 16  2  0  0  0  0
 18  5  1  0  0  0  0
 19 12  1  0  0  0  0
 19  6  1  0  0  0  0
 20 19  1  0  0  0  0
 21  2  2  0  0  0  0
 22 17  1  0  0  0  0
 23 22  2  0  0  0  0
 23 21  1  0  0  0  0
 24 25  1  0  0  0  0
 25 18  1  0  0  0  0
 26 27  1  0  0  0  0
 26 10  1  0  0  0  0
 27 28  1  0  0  0  0
 28 29  1  0  0  0  0
 28 30  1  0  0  0  0
 29 30  1  0  0  0  0
 31 34  1  0  0  0  0
 32 34  1  0  0  0  0
 34 33  2  0  0  0  0
M  END
>  <MODEL>
6

>  <REMARK>
 VINA RESULT:      -6.6      2.712      9.272
  Name = 
  6 active torsions:
  status: ('A' for Active; 'I' for Inactive)
    1  A    between atoms: C_7  and  C_11
    2  A    between atoms: C_7  and  C_14
    3  A    between atoms: C_14  and  C_16
    4  A    between atoms: O_23  and  C_24
    5  A    between atoms: O_23  and  C_25
    6  A    between atoms: C_28  and  C_29
                            x       y       z     vdW  Elec       q    Type
                         _______ _______ _______ _____ _____    ______ ____

>  <TORSDO>
F 6

$$$$
=
 OpenBabel10272415203D

 34 40  0  0  1  0  0  0  0  0999 V2000
  187.4750  177.1430  142.7640 C   0  0  1  0  0  3  0  0  0  0  0  0
  184.8590  179.1440  144.7010 C   0  0  0  0  0  3  0  0  0  0  0  0
  189.6160  175.4560  138.0970 C   0  0  0  0  0  2  0  0  0  0  0  0
  187.0980  178.3730  145.4730 C   0  0  0  0  0  2  0  0  0  0  0  0
  190.7020  177.8940  139.1890 C   0  0  0  0  0  2  0  0  0  0  0  0
  188.4500  177.2220  140.5410 C   0  0  2  0  0  0  0  0  0  0  0  0
  188.2220  177.9550  141.6920 C   0  0  2  0  0  3  0  0  0  0  0  0
  190.3540  176.5990  142.5020 C   0  0  0  0  0  2  0  0  0  0  0  0
  190.5560  175.5450  144.6900 C   0  0  0  0  0  1  0  0  0  0  0  0
  191.0850  175.7960  137.7990 C   0  0  1  0  0  3  0  0  0  0  0  0
  189.5200  177.3130  141.6180 N   0  0  1  0  0  0  0  0  0  0  0  0
  188.3920  178.3220  139.6260 O   0  0  0  0  0  0  0  0  0  0  0  0
  188.4750  178.0380  144.9140 C   0  0  0  0  0  2  0  0  0  0  0  0
  188.3790  176.8160  144.0080 C   0  0  2  0  0  3  0  0  0  0  0  0
  189.7820  176.3030  143.6700 C   0  0  1  0  0  3  0  0  0  0  0  0
  183.8100  179.1990  143.7700 C   0  0  0  0  0  0  0  0  0  0  0  0
  183.9650  178.5650  142.5340 C   0  0  0  0  0  3  0  0  0  0  0  0
  191.6590  176.7450  138.8730 C   0  0  1  0  0  3  0  0  0  0  0  0
  189.2780  177.3420  139.2780 C   0  0  1  0  0  0  0  0  0  0  0  0
  188.8240  176.6180  138.1660 O   0  0  0  0  0  0  0  0  0  0  0  0
  186.0510  178.4810  144.4000 C   0  0  0  0  0  0  0  0  0  0  0  0
  185.1470  177.8880  142.2260 C   0  0  0  0  0  3  0  0  0  0  0  0
  186.1950  177.8350  143.1520 C   0  0  0  0  0  0  0  0  0  0  0  0
  193.8580  177.4000  139.5970 O   0  0  0  0  0  1  0  0  0  0  0  0
  193.0280  177.2890  138.4790 C   0  0  0  0  0  2  0  0  0  0  0  0
  191.9180  174.5180  137.6480 C   0  0  0  0  0  2  0  0  0  0  0  0
  192.6100  174.3900  136.2910 C   0  0  0  0  0  2  0  0  0  0  0  0
  194.1120  174.5540  136.4210 C   0  0  0  0  0  3  0  0  0  0  0  0
  194.7710  173.1960  136.2850 C   0  0  0  0  0  2  0  0  0  0  0  0
  194.5830  173.8100  137.6530 C   0  0  0  0  0  2  0  0  0  0  0  0
  182.6020  179.8640  144.0300 O   0  0  0  0  0  0  0  0  0  0  0  0
  180.6070  178.3760  144.0960 C   0  0  0  0  0  1  0  0  0  0  0  0
  180.8200  180.1730  142.5660 O   0  0  0  0  0  0  0  0  0  0  0  0
  181.3420  179.5270  143.5120 C   0  0  0  0  0  0  0  0  0  0  0  0
  1 23  1  1  0  0  0
  1 14  1  0  0  0  0
  3 20  1  0  0  0  0
  5 19  1  0  0  0  0
  6 12  1  6  0  0  0
  6 11  1  0  0  0  0
  6  7  1  0  0  0  0
  7  1  1  0  0  0  0
  8 15  1  0  0  0  0
 10  3  1  0  0  0  0
 10 18  1  0  0  0  0
 11  7  1  0  0  0  0
 11  8  1  0  0  0  0
 13  4  1  0  0  0  0
 14 13  1  0  0  0  0
 15 14  1  0  0  0  0
 15  9  1  0  0  0  0
 16 31  1  0  0  0  0
 16  2  2  0  0  0  0
 17 16  1  0  0  0  0
 18  5  1  0  0  0  0
 19 12  1  0  0  0  0
 19  6  1  0  0  0  0
 20 19  1  0  0  0  0
 21  2  1  0  0  0  0
 21  4  1  0  0  0  0
 22 17  2  0  0  0  0
 22 23  1  0  0  0  0
 23 21  2  0  0  0  0
 25 18  1  0  0  0  0
 25 24  1  0  0  0  0
 26 10  1  0  0  0  0
 27 28  1  0  0  0  0
 27 26  1  0  0  0  0
 28 30  1  0  0  0  0
 29 28  1  0  0  0  0
 29 30  1  0  0  0  0
 33 34  2  0  0  0  0
 34 31  1  0  0  0  0
 34 32  1  0  0  0  0
M  END
>  <MODEL>
7

>  <REMARK>
 VINA RESULT:      -6.6      2.410     10.253
  Name = 
  6 active torsions:
  status: ('A' for Active; 'I' for Inactive)
    1  A    between atoms: C_7  and  C_11
    2  A    between atoms: C_7  and  C_14
    3  A    between atoms: C_14  and  C_16
    4  A    between atoms: O_23  and  C_24
    5  A    between atoms: O_23  and  C_25
    6  A    between atoms: C_28  and  C_29
                            x       y       z     vdW  Elec       q    Type
                         _______ _______ _______ _____ _____    ______ ____

>  <TORSDO>
F 6

$$$$
=
 OpenBabel10272415203D

 34 40  0  0  1  0  0  0  0  0999 V2000
  188.4270  177.1850  141.3160 C   0  0  1  0  0  3  0  0  0  0  0  0
  191.6070  177.4970  143.4120 C   0  0  0  0  0  3  0  0  0  0  0  0
  183.0480  177.4160  140.8470 C   0  0  0  0  0  2  0  0  0  0  0  0
  191.3660  177.6450  140.9370 C   0  0  0  0  0  2  0  0  0  0  0  0
  184.4810  179.8560  140.2900 C   0  0  0  0  0  2  0  0  0  0  0  0
  186.1630  178.0580  141.4250 C   0  0  2  0  0  0  0  0  0  0  0  0
  187.5010  178.4110  141.3910 C   0  0  2  0  0  3  0  0  0  0  0  0
  187.1370  177.9880  138.7970 C   0  0  0  0  0  2  0  0  0  0  0  0
  188.6960  176.7650  137.3790 C   0  0  0  0  0  1  0  0  0  0  0  0
  182.4420  178.4020  139.8350 C   0  0  1  0  0  3  0  0  0  0  0  0
  186.8300  178.4130  140.1050 N   0  0  1  0  0  0  0  0  0  0  0  0
  185.7160  179.1640  142.2160 O   0  0  0  0  0  0  0  0  0  0  0  0
  190.3360  178.0380  139.8850 C   0  0  0  0  0  2  0  0  0  0  0  0
  189.1590  177.0700  139.9300 C   0  0  2  0  0  3  0  0  0  0  0  0
  188.2630  177.2790  138.7060 C   0  0  1  0  0  3  0  0  0  0  0  0
  191.1110  177.2540  144.7020 C   0  0  0  0  0  0  0  0  0  0  0  0
  189.7510  176.9710  144.8650 C   0  0  0  0  0  3  0  0  0  0  0  0
  183.5340  179.3040  139.2240 C   0  0  1  0  0  3  0  0  0  0  0  0
  184.8170  178.7370  141.2790 C   0  0  1  0  0  0  0  0  0  0  0  0
  183.7260  178.0920  141.8780 O   0  0  0  0  0  0  0  0  0  0  0  0
  190.7590  177.4750  142.3010 C   0  0  0  0  0  0  0  0  0  0  0  0
  188.8960  176.9350  143.7610 C   0  0  0  0  0  3  0  0  0  0  0  0
  189.3890  177.1790  142.4740 C   0  0  0  0  0  0  0  0  0  0  0  0
  181.8220  180.9860  139.0450 O   0  0  0  0  0  1  0  0  0  0  0  0
  182.9390  180.4440  138.4050 C   0  0  0  0  0  2  0  0  0  0  0  0
  181.6400  177.6540  138.7630 C   0  0  0  0  0  2  0  0  0  0  0  0
  181.9230  176.1530  138.7170 C   0  0  0  0  0  2  0  0  0  0  0  0
  182.5940  175.7590  137.4160 C   0  0  0  0  0  3  0  0  0  0  0  0
  183.6030  174.6610  137.6920 C   0  0  0  0  0  2  0  0  0  0  0  0
  184.0710  176.0860  137.5050 C   0  0  0  0  0  2  0  0  0  0  0  0
  191.9270  177.2770  145.8430 O   0  0  0  0  0  0  0  0  0  0  0  0
  192.3540  175.4370  147.4640 C   0  0  0  0  0  1  0  0  0  0  0  0
  190.7930  177.1730  147.8720 O   0  0  0  0  0  0  0  0  0  0  0  0
  191.6400  176.6820  147.0800 C   0  0  0  0  0  0  0  0  0  0  0  0
  1  7  1  0  0  0  0
  1 23  1  1  0  0  0
  2 16  1  0  0  0  0
  3 20  1  0  0  0  0
  4 21  1  0  0  0  0
  5 19  1  0  0  0  0
  6 12  1  6  0  0  0
  7  6  1  0  0  0  0
  8 11  1  0  0  0  0
  9 15  1  0  0  0  0
 10  3  1  0  0  0  0
 11  7  1  0  0  0  0
 11  6  1  0  0  0  0
 13 14  1  0  0  0  0
 13  4  1  0  0  0  0
 14  1  1  0  0  0  0
 15  8  1  0  0  0  0
 15 14  1  0  0  0  0
 16 17  2  0  0  0  0
 16 31  1  0  0  0  0
 18 10  1  0  0  0  0
 18  5  1  0  0  0  0
 19  6  1  0  0  0  0
 19 20  1  0  0  0  0
 19 12  1  0  0  0  0
 21 23  1  0  0  0  0
 21  2  2  0  0  0  0
 22 17  1  0  0  0  0
 23 22  2  0  0  0  0
 25 24  1  0  0  0  0
 25 18  1  0  0  0  0
 26 10  1  0  0  0  0
 27 26  1  0  0  0  0
 28 30  1  0  0  0  0
 28 29  1  0  0  0  0
 28 27  1  0  0  0  0
 30 29  1  0  0  0  0
 31 34  1  0  0  0  0
 34 32  1  0  0  0  0
 34 33  2  0  0  0  0
M  END
>  <MODEL>
8

>  <REMARK>
 VINA RESULT:      -6.3      4.524      7.433
  Name = 
  6 active torsions:
  status: ('A' for Active; 'I' for Inactive)
    1  A    between atoms: C_7  and  C_11
    2  A    between atoms: C_7  and  C_14
    3  A    between atoms: C_14  and  C_16
    4  A    between atoms: O_23  and  C_24
    5  A    between atoms: O_23  and  C_25
    6  A    between atoms: C_28  and  C_29
                            x       y       z     vdW  Elec       q    Type
                         _______ _______ _______ _____ _____    ______ ____

>  <TORSDO>
F 6

$$$$
=
 OpenBabel10272415203D

 34 40  0  0  1  0  0  0  0  0999 V2000
  188.0520  178.0290  138.2530 C   0  0  1  0  0  3  0  0  0  0  0  0
  185.1910  178.7470  140.6830 C   0  0  0  0  0  3  0  0  0  0  0  0
  193.1650  176.5650  137.2910 C   0  0  0  0  0  2  0  0  0  0  0  0
  185.0570  178.1650  138.2650 C   0  0  0  0  0  2  0  0  0  0  0  0
  191.2170  174.4380  137.3350 C   0  0  0  0  0  2  0  0  0  0  0  0
  190.0940  176.7130  138.2890 C   0  0  2  0  0  0  0  0  0  0  0  0
  188.7210  176.6590  138.4560 C   0  0  2  0  0  3  0  0  0  0  0  0
  188.8010  176.5810  135.8050 C   0  0  0  0  0  2  0  0  0  0  0  0
  187.3330  177.8760  134.3540 C   0  0  0  0  0  1  0  0  0  0  0  0
  193.4210  175.3260  136.4180 C   0  0  1  0  0  3  0  0  0  0  0  0
  189.1950  176.3090  137.1310 N   0  0  1  0  0  0  0  0  0  0  0  0
  190.4190  175.6740  139.2180 O   0  0  0  0  0  0  0  0  0  0  0  0
  185.8350  177.3970  137.2020 C   0  0  0  0  0  2  0  0  0  0  0  0
  187.1740  178.0820  136.9510 C   0  0  2  0  0  3  0  0  0  0  0  0
  187.8350  177.4950  135.7010 C   0  0  1  0  0  3  0  0  0  0  0  0
  185.8980  179.0750  141.8500 C   0  0  0  0  0  0  0  0  0  0  0  0
  187.2960  179.0770  141.8210 C   0  0  0  0  0  3  0  0  0  0  0  0
  192.0990  174.5980  136.0960 C   0  0  1  0  0  3  0  0  0  0  0  0
  191.2470  175.7430  138.1330 C   0  0  1  0  0  0  0  0  0  0  0  0
  192.5160  176.2220  138.4910 O   0  0  0  0  0  0  0  0  0  0  0  0
  185.8670  178.4100  139.5070 C   0  0  0  0  0  0  0  0  0  0  0  0
  187.9820  178.7540  140.6480 C   0  0  0  0  0  3  0  0  0  0  0  0
  187.2790  178.4240  139.4830 C   0  0  0  0  0  0  0  0  0  0  0  0
  193.1230  172.4260  136.2610 O   0  0  0  0  0  1  0  0  0  0  0  0
  192.3410  173.2420  135.4400 C   0  0  0  0  0  2  0  0  0  0  0  0
  194.1990  175.7040  135.1530 C   0  0  0  0  0  2  0  0  0  0  0  0
  195.5630  175.0220  135.0420 C   0  0  0  0  0  2  0  0  0  0  0  0
  196.1990  174.8390  136.4060 C   0  0  0  0  0  3  0  0  0  0  0  0
  197.6810  174.5710  136.2280 C   0  0  0  0  0  2  0  0  0  0  0  0
  196.7360  173.4260  136.5130 C   0  0  0  0  0  2  0  0  0  0  0  0
  185.2580  179.4090  143.0540 O   0  0  0  0  0  0  0  0  0  0  0  0
  186.1970  177.7830  144.6880 C   0  0  0  0  0  1  0  0  0  0  0  0
  183.9140  178.4230  144.6780 O   0  0  0  0  0  0  0  0  0  0  0  0
  185.0480  178.5550  144.1460 C   0  0  0  0  0  0  0  0  0  0  0  0
  1  7  1  0  0  0  0
  1 23  1  1  0  0  0
  2 16  1  0  0  0  0
  3 20  1  0  0  0  0
  4 21  1  0  0  0  0
  5 19  1  0  0  0  0
  6  7  1  0  0  0  0
  6 12  1  1  0  0  0
  8 11  1  0  0  0  0
  9 15  1  0  0  0  0
 10  3  1  0  0  0  0
 11  6  1  0  0  0  0
 11  7  1  0  0  0  0
 13  4  1  0  0  0  0
 14 13  1  0  0  0  0
 14  1  1  0  0  0  0
 15  8  1  0  0  0  0
 15 14  1  0  0  0  0
 16 31  1  0  0  0  0
 17 16  2  0  0  0  0
 18 10  1  0  0  0  0
 18  5  1  0  0  0  0
 19  6  1  0  0  0  0
 19 20  1  0  0  0  0
 19 12  1  0  0  0  0
 21  2  2  0  0  0  0
 22 17  1  0  0  0  0
 23 21  1  0  0  0  0
 23 22  2  0  0  0  0
 25 18  1  0  0  0  0
 25 24  1  0  0  0  0
 26 10  1  0  0  0  0
 27 26  1  0  0  0  0
 27 28  1  0  0  0  0
 28 30  1  0  0  0  0
 29 28  1  0  0  0  0
 29 30  1  0  0  0  0
 31 34  1  0  0  0  0
 34 33  2  0  0  0  0
 34 32  1  0  0  0  0
M  END
>  <MODEL>
9

>  <REMARK>
 VINA RESULT:      -6.2      2.101      9.406
  Name = 
  6 active torsions:
  status: ('A' for Active; 'I' for Inactive)
    1  A    between atoms: C_7  and  C_11
    2  A    between atoms: C_7  and  C_14
    3  A    between atoms: C_14  and  C_16
    4  A    between atoms: O_23  and  C_24
    5  A    between atoms: O_23  and  C_25
    6  A    between atoms: C_28  and  C_29
                            x       y       z     vdW  Elec       q    Type
                         _______ _______ _______ _____ _____    ______ ____

>  <TORSDO>
F 6

$$$$
