=
 OpenBabel10272400233D

 31 34  0  0  0  0  0  0  0  0999 V2000
  190.7830  177.4830  140.9450 C   0  0  0  0  0  0  0  0  0  0  0  0
  188.7940  177.3550  144.1190 C   0  0  0  0  0  0  0  0  0  0  0  0
  189.7710  176.9810  145.1960 C   0  0  0  0  0  0  0  0  0  0  0  0
  191.9850  176.1220  145.9650 N   0  0  0  0  0  0  0  0  0  0  0  0
  189.1500  177.4960  142.7540 C   0  0  0  0  0  0  0  0  0  0  0  0
  189.7850  177.8150  140.0280 C   0  0  0  0  0  3  0  0  0  0  0  0
  191.0030  176.1600  144.8770 C   0  0  0  0  0  2  0  0  0  0  0  0
  186.5010  177.9430  143.5200 C   0  0  0  0  0  0  0  0  0  0  0  0
  192.0590  177.3100  140.5250 F   0  0  0  0  0  0  0  0  0  0  0  0
  188.1830  177.9100  146.8570 C   0  0  0  0  0  2  0  0  0  0  0  0
  191.6880  176.4020  147.1960 C   0  0  0  0  0  0  0  0  0  0  0  0
  186.8720  178.0550  142.2200 N   0  0  0  0  0  0  0  0  0  0  0  0
  187.4550  177.6140  144.4970 C   0  0  0  0  0  0  0  0  0  0  0  0
  190.4670  177.3280  142.2970 C   0  0  0  0  0  3  0  0  0  0  0  0
  192.6780  176.2840  148.2090 N   0  0  0  0  0  1  0  0  0  0  0  0
  188.1490  177.8480  141.8150 C   0  0  0  0  0  0  0  0  0  0  0  0
  188.4710  177.9990  140.4620 C   0  0  0  0  0  3  0  0  0  0  0  0
  187.0490  177.4670  145.9400 C   0  0  0  0  0  2  0  0  0  0  0  0
  189.4570  177.2120  146.4880 C   0  0  0  0  0  0  0  0  0  0  0  0
  190.3900  176.8940  147.5230 N   0  0  0  0  0  2  0  0  0  0  0  0
  185.0800  178.2130  143.8880 C   0  0  0  0  0  2  0  0  0  0  0  0
  184.4780  179.2270  142.9300 C   0  0  0  0  0  2  0  0  0  0  0  0
  183.1020  178.7680  142.4760 C   0  0  0  0  0  2  0  0  0  0  0  0
  183.1840  177.9950  141.1640 C   0  0  0  0  0  2  0  0  0  0  0  0
  182.9140  178.8830  139.9540 C   0  0  0  0  0  2  0  0  0  0  0  0
  186.0200  177.9980  137.8110 C   0  0  0  0  0  0  0  0  0  0  0  0
  184.6170  180.2490  139.0070 O   0  0  0  0  0  0  0  0  0  0  0  0
  186.5970  179.0930  137.5730 O   0  0  0  0  0  0  0  0  0  0  0  0
  186.5990  176.7370  137.2830 C   0  0  0  0  0  1  0  0  0  0  0  0
  184.1550  179.0860  139.1520 C   0  0  0  0  0  0  0  0  0  0  0  0
  184.8160  177.9510  138.5830 N   0  0  0  0  0  2  0  0  0  0  0  0
  1 14  1  0  0  0  0
  2 13  2  0  0  0  0
  2  3  1  0  0  0  0
  3 19  2  0  0  0  0
  4 11  2  0  0  0  0
  5  2  1  0  0  0  0
  6 17  1  0  0  0  0
  6  1  2  0  0  0  0
  7  3  1  0  0  0  0
  7  4  1  0  0  0  0
  8 21  1  0  0  0  0
  8 13  1  0  0  0  0
  9  1  1  0  0  0  0
 11 20  1  0  0  0  0
 11 15  1  0  0  0  0
 12  8  2  0  0  0  0
 13 18  1  0  0  0  0
 14  5  2  0  0  0  0
 16 12  1  0  0  0  0
 16  5  1  0  0  0  0
 17 16  2  0  0  0  0
 18 10  1  0  0  0  0
 19 10  1  0  0  0  0
 19 20  1  0  0  0  0
 22 21  1  0  0  0  0
 23 22  1  0  0  0  0
 24 23  1  0  0  0  0
 25 24  1  0  0  0  0
 26 31  1  0  0  0  0
 27 30  2  0  0  0  0
 28 26  2  0  0  0  0
 29 26  1  0  0  0  0
 30 25  1  0  0  0  0
 31 30  1  0  0  0  0
M  END
>  <MODEL>
1

>  <REMARK>
 VINA RESULT:      -9.9      0.000      0.000
  Name = 
  6 active torsions:
  status: ('A' for Active; 'I' for Inactive)
    1  A    between atoms: C_3  and  C_19
    2  A    between atoms: C_3  and  C_22
    3  A    between atoms: C_7  and  C_9
    4  A    between atoms: C_7  and  C_22
    5  A    between atoms: C_9  and  C_23
    6  A    between atoms: C_15  and  C_23
                            x       y       z     vdW  Elec       q    Type
                         _______ _______ _______ _____ _____    ______ ____

>  <TORSDO>
F 6

$$$$
=
 OpenBabel10272400233D

 31 34  0  0  0  0  0  0  0  0999 V2000
  185.6350  178.0250  145.4710 C   0  0  0  0  0  0  0  0  0  0  0  0
  188.9840  177.5700  143.8510 C   0  0  0  0  0  0  0  0  0  0  0  0
  189.9210  177.1800  144.9580 C   0  0  0  0  0  0  0  0  0  0  0  0
  190.5030  176.9360  147.3720 N   0  0  0  0  0  0  0  0  0  0  0  0
  187.6080  177.8490  144.0520 C   0  0  0  0  0  0  0  0  0  0  0  0
  184.8650  178.3980  144.3700 C   0  0  0  0  0  3  0  0  0  0  0  0
  189.6690  177.6240  146.3830 C   0  0  0  0  0  2  0  0  0  0  0  0
  188.6640  178.0120  141.4710 C   0  0  0  0  0  0  0  0  0  0  0  0
  185.0660  177.9290  146.6960 F   0  0  0  0  0  0  0  0  0  0  0  0
  191.4450  176.2480  143.2380 C   0  0  0  0  0  2  0  0  0  0  0  0
  191.6040  176.3220  147.0650 C   0  0  0  0  0  0  0  0  0  0  0  0
  187.3560  178.2860  141.7000 N   0  0  0  0  0  0  0  0  0  0  0  0
  189.4980  177.6270  142.5340 C   0  0  0  0  0  0  0  0  0  0  0  0
  186.9960  177.7500  145.3120 C   0  0  0  0  0  3  0  0  0  0  0  0
  192.3940  175.7280  148.0870 N   0  0  0  0  0  1  0  0  0  0  0  0
  186.8110  178.2150  142.9400 C   0  0  0  0  0  0  0  0  0  0  0  0
  185.4500  178.4910  143.1060 C   0  0  0  0  0  3  0  0  0  0  0  0
  190.9570  177.3390  142.2930 C   0  0  0  0  0  2  0  0  0  0  0  0
  191.0970  176.5910  144.6560 C   0  0  0  0  0  0  0  0  0  0  0  0
  191.9850  176.1820  145.6980 N   0  0  0  0  0  2  0  0  0  0  0  0
  189.1800  178.0880  140.0720 C   0  0  0  0  0  2  0  0  0  0  0  0
  188.2570  177.3310  139.1340 C   0  0  0  0  0  2  0  0  0  0  0  0
  189.0690  176.5110  138.1450 C   0  0  0  0  0  2  0  0  0  0  0  0
  190.4740  176.2430  138.6740 C   0  0  0  0  0  2  0  0  0  0  0  0
  191.5480  176.5450  137.6350 C   0  0  0  0  0  2  0  0  0  0  0  0
  194.6920  174.3830  138.3160 C   0  0  0  0  0  0  0  0  0  0  0  0
  193.5580  177.0140  138.8210 O   0  0  0  0  0  0  0  0  0  0  0  0
  195.4670  175.1060  138.9980 O   0  0  0  0  0  0  0  0  0  0  0  0
  195.1030  173.0000  137.9650 C   0  0  0  0  0  1  0  0  0  0  0  0
  192.9010  176.1790  138.1430 C   0  0  0  0  0  0  0  0  0  0  0  0
  193.4210  174.8730  137.8750 N   0  0  0  0  0  2  0  0  0  0  0  0
  1  9  1  0  0  0  0
  2  5  1  0  0  0  0
  2  3  1  0  0  0  0
  3  7  1  0  0  0  0
  5 14  2  0  0  0  0
  6  1  2  0  0  0  0
  7  4  1  0  0  0  0
  8 12  2  0  0  0  0
  8 13  1  0  0  0  0
 10 19  1  0  0  0  0
 11  4  2  0  0  0  0
 11 15  1  0  0  0  0
 12 16  1  0  0  0  0
 13  2  2  0  0  0  0
 14  1  1  0  0  0  0
 16 17  2  0  0  0  0
 16  5  1  0  0  0  0
 17  6  1  0  0  0  0
 18 13  1  0  0  0  0
 18 10  1  0  0  0  0
 19  3  2  0  0  0  0
 19 20  1  0  0  0  0
 20 11  1  0  0  0  0
 21  8  1  0  0  0  0
 22 21  1  0  0  0  0
 23 24  1  0  0  0  0
 23 22  1  0  0  0  0
 25 30  1  0  0  0  0
 25 24  1  0  0  0  0
 26 28  2  0  0  0  0
 29 26  1  0  0  0  0
 30 27  2  0  0  0  0
 31 30  1  0  0  0  0
 31 26  1  0  0  0  0
M  END
>  <MODEL>
2

>  <REMARK>
 VINA RESULT:      -9.5      3.746      6.020
  Name = 
  6 active torsions:
  status: ('A' for Active; 'I' for Inactive)
    1  A    between atoms: C_3  and  C_19
    2  A    between atoms: C_3  and  C_22
    3  A    between atoms: C_7  and  C_9
    4  A    between atoms: C_7  and  C_22
    5  A    between atoms: C_9  and  C_23
    6  A    between atoms: C_15  and  C_23
                            x       y       z     vdW  Elec       q    Type
                         _______ _______ _______ _____ _____    ______ ____

>  <TORSDO>
F 6

$$$$
=
 OpenBabel10272400233D

 31 34  0  0  0  0  0  0  0  0999 V2000
  185.4870  178.0550  145.6560 C   0  0  0  0  0  0  0  0  0  0  0  0
  188.8030  177.7000  143.9470 C   0  0  0  0  0  0  0  0  0  0  0  0
  189.7720  177.2940  145.0200 C   0  0  0  0  0  0  0  0  0  0  0  0
  190.4140  176.9910  147.4130 N   0  0  0  0  0  0  0  0  0  0  0  0
  187.4290  177.9510  144.1870 C   0  0  0  0  0  0  0  0  0  0  0  0
  184.6850  178.4460  144.5840 C   0  0  0  0  0  3  0  0  0  0  0  0
  189.5460  177.6930  146.4630 C   0  0  0  0  0  2  0  0  0  0  0  0
  188.4210  178.2020  141.5880 C   0  0  0  0  0  0  0  0  0  0  0  0
  184.9480  177.9160  146.8900 F   0  0  0  0  0  0  0  0  0  0  0  0
  191.2700  176.4350  143.2410 C   0  0  0  0  0  2  0  0  0  0  0  0
  191.5170  176.4040  147.0630 C   0  0  0  0  0  0  0  0  0  0  0  0
  187.1140  178.4490  141.8550 N   0  0  0  0  0  0  0  0  0  0  0  0
  189.2860  177.8020  142.6210 C   0  0  0  0  0  0  0  0  0  0  0  0
  186.8470  177.8060  145.4570 C   0  0  0  0  0  3  0  0  0  0  0  0
  192.3400  175.7950  148.0490 N   0  0  0  0  0  1  0  0  0  0  0  0
  186.6000  178.3340  143.1040 C   0  0  0  0  0  0  0  0  0  0  0  0
  185.2390  178.5840  143.3100 C   0  0  0  0  0  3  0  0  0  0  0  0
  190.7430  177.5450  142.3380 C   0  0  0  0  0  2  0  0  0  0  0  0
  190.9500  176.7320  144.6750 C   0  0  0  0  0  0  0  0  0  0  0  0
  191.8680  176.3090  145.6840 N   0  0  0  0  0  2  0  0  0  0  0  0
  188.9030  178.3260  140.1810 C   0  0  0  0  0  2  0  0  0  0  0  0
  189.0010  176.9520  139.5410 C   0  0  0  0  0  2  0  0  0  0  0  0
  189.2990  177.0840  138.0570 C   0  0  0  0  0  2  0  0  0  0  0  0
  189.0130  178.4970  137.5590 C   0  0  0  0  0  2  0  0  0  0  0  0
  187.9580  178.5170  136.4580 C   0  0  0  0  0  2  0  0  0  0  0  0
  184.7730  178.4170  138.6650 C   0  0  0  0  0  0  0  0  0  0  0  0
  186.0900  177.0430  136.4650 O   0  0  0  0  0  0  0  0  0  0  0  0
  184.1030  177.4310  138.2580 O   0  0  0  0  0  0  0  0  0  0  0  0
  184.2580  179.2370  139.7910 C   0  0  0  0  0  1  0  0  0  0  0  0
  186.6370  178.0570  136.9750 C   0  0  0  0  0  0  0  0  0  0  0  0
  186.0250  178.7600  138.0610 N   0  0  0  0  0  2  0  0  0  0  0  0
  1  9  1  0  0  0  0
  2  5  1  0  0  0  0
  2  3  1  0  0  0  0
  3  7  1  0  0  0  0
  5 14  2  0  0  0  0
  6  1  2  0  0  0  0
  7  4  1  0  0  0  0
  8 12  2  0  0  0  0
  8 13  1  0  0  0  0
 10 19  1  0  0  0  0
 11  4  2  0  0  0  0
 11 15  1  0  0  0  0
 12 16  1  0  0  0  0
 13  2  2  0  0  0  0
 14  1  1  0  0  0  0
 16 17  2  0  0  0  0
 16  5  1  0  0  0  0
 17  6  1  0  0  0  0
 18 13  1  0  0  0  0
 18 10  1  0  0  0  0
 19  3  2  0  0  0  0
 19 20  1  0  0  0  0
 20 11  1  0  0  0  0
 21  8  1  0  0  0  0
 22 21  1  0  0  0  0
 23 22  1  0  0  0  0
 24 23  1  0  0  0  0
 25 30  1  0  0  0  0
 25 24  1  0  0  0  0
 26 29  1  0  0  0  0
 27 30  2  0  0  0  0
 28 26  2  0  0  0  0
 30 31  1  0  0  0  0
 31 26  1  0  0  0  0
M  END
>  <MODEL>
3

>  <REMARK>
 VINA RESULT:      -9.5      2.125      4.422
  Name = 
  6 active torsions:
  status: ('A' for Active; 'I' for Inactive)
    1  A    between atoms: C_3  and  C_19
    2  A    between atoms: C_3  and  C_22
    3  A    between atoms: C_7  and  C_9
    4  A    between atoms: C_7  and  C_22
    5  A    between atoms: C_9  and  C_23
    6  A    between atoms: C_15  and  C_23
                            x       y       z     vdW  Elec       q    Type
                         _______ _______ _______ _____ _____    ______ ____

>  <TORSDO>
F 6

$$$$
=
 OpenBabel10272400233D

 31 34  0  0  0  0  0  0  0  0999 V2000
  188.4820  177.9980  148.2230 C   0  0  0  0  0  0  0  0  0  0  0  0
  187.8250  177.5780  144.5570 C   0  0  0  0  0  0  0  0  0  0  0  0
  186.3950  177.9890  144.3500 C   0  0  0  0  0  0  0  0  0  0  0  0
  184.1160  178.5480  145.2000 N   0  0  0  0  0  0  0  0  0  0  0  0
  188.4650  177.5800  145.8220 C   0  0  0  0  0  0  0  0  0  0  0  0
  189.8090  177.5760  148.2970 C   0  0  0  0  0  3  0  0  0  0  0  0
  185.3790  177.8510  145.4640 C   0  0  0  0  0  2  0  0  0  0  0  0
  189.9140  176.7880  143.5680 C   0  0  0  0  0  0  0  0  0  0  0  0
  187.8360  178.4030  149.3410 F   0  0  0  0  0  0  0  0  0  0  0  0
  186.9170  178.3280  141.9500 C   0  0  0  0  0  2  0  0  0  0  0  0
  183.7380  178.8990  144.0100 C   0  0  0  0  0  0  0  0  0  0  0  0
  190.4920  176.7880  144.7950 N   0  0  0  0  0  0  0  0  0  0  0  0
  188.5800  177.2040  143.4190 C   0  0  0  0  0  0  0  0  0  0  0  0
  187.8170  178.0020  146.9940 C   0  0  0  0  0  3  0  0  0  0  0  0
  182.4720  179.5180  143.8220 N   0  0  0  0  0  1  0  0  0  0  0  0
  189.8180  177.1680  145.9090 C   0  0  0  0  0  0  0  0  0  0  0  0
  190.4770  177.1640  147.1430 C   0  0  0  0  0  3  0  0  0  0  0  0
  187.9230  177.1890  142.0640 C   0  0  0  0  0  2  0  0  0  0  0  0
  185.9680  178.3040  143.1100 C   0  0  0  0  0  0  0  0  0  0  0  0
  184.6190  178.7300  142.9010 N   0  0  0  0  0  2  0  0  0  0  0  0
  190.7320  176.3800  142.3880 C   0  0  0  0  0  2  0  0  0  0  0  0
  191.4200  177.5940  141.7860 C   0  0  0  0  0  2  0  0  0  0  0  0
  191.7500  177.3400  140.3250 C   0  0  0  0  0  2  0  0  0  0  0  0
  190.6230  176.5850  139.6280 C   0  0  0  0  0  2  0  0  0  0  0  0
  190.1990  177.2560  138.3260 C   0  0  0  0  0  2  0  0  0  0  0  0
  186.3920  177.8350  137.8860 C   0  0  0  0  0  0  0  0  0  0  0  0
  188.7640  178.9820  139.1180 O   0  0  0  0  0  0  0  0  0  0  0  0
  186.1320  178.9020  138.5030 O   0  0  0  0  0  0  0  0  0  0  0  0
  185.3000  177.1100  137.1870 C   0  0  0  0  0  1  0  0  0  0  0  0
  188.8650  177.9070  138.4700 C   0  0  0  0  0  0  0  0  0  0  0  0
  187.7230  177.3100  137.8450 N   0  0  0  0  0  2  0  0  0  0  0  0
  1  6  1  0  0  0  0
  1  9  1  0  0  0  0
  2  5  1  0  0  0  0
  3  2  1  0  0  0  0
  3  7  1  0  0  0  0
  4  7  1  0  0  0  0
  5 16  2  0  0  0  0
  5 14  1  0  0  0  0
  8 12  2  0  0  0  0
 10 18  1  0  0  0  0
 10 19  1  0  0  0  0
 11  4  2  0  0  0  0
 12 16  1  0  0  0  0
 13  8  1  0  0  0  0
 13  2  2  0  0  0  0
 14  1  2  0  0  0  0
 15 11  1  0  0  0  0
 16 17  1  0  0  0  0
 17  6  2  0  0  0  0
 18 13  1  0  0  0  0
 19  3  2  0  0  0  0
 20 19  1  0  0  0  0
 20 11  1  0  0  0  0
 21  8  1  0  0  0  0
 22 21  1  0  0  0  0
 23 22  1  0  0  0  0
 24 23  1  0  0  0  0
 25 30  1  0  0  0  0
 25 24  1  0  0  0  0
 26 28  2  0  0  0  0
 29 26  1  0  0  0  0
 30 27  2  0  0  0  0
 31 26  1  0  0  0  0
 31 30  1  0  0  0  0
M  END
>  <MODEL>
4

>  <REMARK>
 VINA RESULT:      -9.4      2.582      6.142
  Name = 
  6 active torsions:
  status: ('A' for Active; 'I' for Inactive)
    1  A    between atoms: C_3  and  C_19
    2  A    between atoms: C_3  and  C_22
    3  A    between atoms: C_7  and  C_9
    4  A    between atoms: C_7  and  C_22
    5  A    between atoms: C_9  and  C_23
    6  A    between atoms: C_15  and  C_23
                            x       y       z     vdW  Elec       q    Type
                         _______ _______ _______ _____ _____    ______ ____

>  <TORSDO>
F 6

$$$$
=
 OpenBabel10272400233D

 31 34  0  0  0  0  0  0  0  0999 V2000
  185.5890  178.1840  146.1630 C   0  0  0  0  0  0  0  0  0  0  0  0
  188.7280  177.5490  144.2160 C   0  0  0  0  0  0  0  0  0  0  0  0
  189.7780  177.2110  145.2360 C   0  0  0  0  0  0  0  0  0  0  0  0
  190.6230  177.1130  147.5820 N   0  0  0  0  0  0  0  0  0  0  0  0
  187.3880  177.8710  144.5490 C   0  0  0  0  0  0  0  0  0  0  0  0
  184.7060  178.5020  145.1320 C   0  0  0  0  0  3  0  0  0  0  0  0
  189.6930  177.7530  146.6470 C   0  0  0  0  0  2  0  0  0  0  0  0
  188.1500  177.8400  141.8620 C   0  0  0  0  0  0  0  0  0  0  0  0
  185.1600  178.1820  147.4470 F   0  0  0  0  0  0  0  0  0  0  0  0
  191.0850  176.1340  143.4250 C   0  0  0  0  0  2  0  0  0  0  0  0
  191.6730  176.4550  147.1970 C   0  0  0  0  0  0  0  0  0  0  0  0
  186.8800  178.1590  142.2160 N   0  0  0  0  0  0  0  0  0  0  0  0
  189.0920  177.5070  142.8490 C   0  0  0  0  0  0  0  0  0  0  0  0
  186.9190  177.8690  145.8730 C   0  0  0  0  0  3  0  0  0  0  0  0
  192.5640  175.9120  148.1620 N   0  0  0  0  0  1  0  0  0  0  0  0
  186.4770  178.1810  143.5100 C   0  0  0  0  0  0  0  0  0  0  0  0
  185.1470  178.4980  143.8080 C   0  0  0  0  0  3  0  0  0  0  0  0
  190.5100  177.1720  142.4680 C   0  0  0  0  0  2  0  0  0  0  0  0
  190.9030  176.5770  144.8460 C   0  0  0  0  0  0  0  0  0  0  0  0
  191.8960  176.2170  145.8080 N   0  0  0  0  0  2  0  0  0  0  0  0
  188.5070  177.8130  140.4120 C   0  0  0  0  0  2  0  0  0  0  0  0
  187.3690  178.3840  139.5850 C   0  0  0  0  0  2  0  0  0  0  0  0
  187.5170  177.9700  138.1310 C   0  0  0  0  0  2  0  0  0  0  0  0
  188.6580  178.7230  137.4550 C   0  0  0  0  0  2  0  0  0  0  0  0
  189.2830  177.9230  136.3170 C   0  0  0  0  0  2  0  0  0  0  0  0
  189.6630  174.1250  136.9860 C   0  0  0  0  0  0  0  0  0  0  0  0
  190.9400  176.6880  137.4970 O   0  0  0  0  0  0  0  0  0  0  0  0
  190.7160  173.9980  137.6660 O   0  0  0  0  0  0  0  0  0  0  0  0
  188.8710  172.9180  136.6320 C   0  0  0  0  0  1  0  0  0  0  0  0
  189.8770  176.6520  136.8210 C   0  0  0  0  0  0  0  0  0  0  0  0
  189.2150  175.4120  136.5490 N   0  0  0  0  0  2  0  0  0  0  0  0
  1  9  1  0  0  0  0
  2  5  1  0  0  0  0
  2  3  1  0  0  0  0
  3  7  1  0  0  0  0
  5 14  2  0  0  0  0
  6  1  2  0  0  0  0
  7  4  1  0  0  0  0
  8 12  2  0  0  0  0
  8 13  1  0  0  0  0
 10 19  1  0  0  0  0
 11  4  2  0  0  0  0
 11 15  1  0  0  0  0
 12 16  1  0  0  0  0
 13  2  2  0  0  0  0
 14  1  1  0  0  0  0
 16 17  2  0  0  0  0
 16  5  1  0  0  0  0
 17  6  1  0  0  0  0
 18 13  1  0  0  0  0
 18 10  1  0  0  0  0
 19  3  2  0  0  0  0
 19 20  1  0  0  0  0
 20 11  1  0  0  0  0
 21  8  1  0  0  0  0
 22 21  1  0  0  0  0
 23 22  1  0  0  0  0
 24 23  1  0  0  0  0
 25 30  1  0  0  0  0
 25 24  1  0  0  0  0
 26 28  2  0  0  0  0
 29 26  1  0  0  0  0
 30 27  2  0  0  0  0
 31 30  1  0  0  0  0
 31 26  1  0  0  0  0
M  END
>  <MODEL>
5

>  <REMARK>
 VINA RESULT:      -9.3      2.956      4.916
  Name = 
  6 active torsions:
  status: ('A' for Active; 'I' for Inactive)
    1  A    between atoms: C_3  and  C_19
    2  A    between atoms: C_3  and  C_22
    3  A    between atoms: C_7  and  C_9
    4  A    between atoms: C_7  and  C_22
    5  A    between atoms: C_9  and  C_23
    6  A    between atoms: C_15  and  C_23
                            x       y       z     vdW  Elec       q    Type
                         _______ _______ _______ _____ _____    ______ ____

>  <TORSDO>
F 6

$$$$
=
 OpenBabel10272400233D

 31 34  0  0  0  0  0  0  0  0999 V2000
  185.7780  178.0040  145.5040 C   0  0  0  0  0  0  0  0  0  0  0  0
  189.1330  177.3790  143.9550 C   0  0  0  0  0  0  0  0  0  0  0  0
  190.0550  177.0580  145.0970 C   0  0  0  0  0  0  0  0  0  0  0  0
  190.6120  176.9860  147.5280 N   0  0  0  0  0  0  0  0  0  0  0  0
  187.7610  177.6930  144.1210 C   0  0  0  0  0  0  0  0  0  0  0  0
  185.0230  178.3060  144.3700 C   0  0  0  0  0  3  0  0  0  0  0  0
  189.7970  177.6110  146.4820 C   0  0  0  0  0  2  0  0  0  0  0  0
  188.8410  177.6450  141.5450 C   0  0  0  0  0  0  0  0  0  0  0  0
  185.1970  178.0090  146.7260 F   0  0  0  0  0  0  0  0  0  0  0  0
  191.5780  175.9760  143.4660 C   0  0  0  0  0  2  0  0  0  0  0  0
  191.7050  176.3340  147.2780 C   0  0  0  0  0  0  0  0  0  0  0  0
  187.5350  177.9560  141.7400 N   0  0  0  0  0  0  0  0  0  0  0  0
  189.6600  177.3280  142.6420 C   0  0  0  0  0  0  0  0  0  0  0  0
  187.1360  177.6970  145.3780 C   0  0  0  0  0  3  0  0  0  0  0  0
  192.4770  175.8060  148.3490 N   0  0  0  0  0  1  0  0  0  0  0  0
  186.9790  177.9860  142.9770 C   0  0  0  0  0  0  0  0  0  0  0  0
  185.6210  178.2950  143.1090 C   0  0  0  0  0  3  0  0  0  0  0  0
  191.1150  177.0010  142.4370 C   0  0  0  0  0  2  0  0  0  0  0  0
  191.2230  176.4290  144.8510 C   0  0  0  0  0  0  0  0  0  0  0  0
  192.0960  176.0860  145.9290 N   0  0  0  0  0  2  0  0  0  0  0  0
  189.3700  177.6090  140.1500 C   0  0  0  0  0  2  0  0  0  0  0  0
  188.3440  178.1840  139.1880 C   0  0  0  0  0  2  0  0  0  0  0  0
  187.9980  177.1630  138.1180 C   0  0  0  0  0  2  0  0  0  0  0  0
  186.5170  177.2220  137.7580 C   0  0  0  0  0  2  0  0  0  0  0  0
  185.9350  178.6200  137.9360 C   0  0  0  0  0  2  0  0  0  0  0  0
  182.7870  177.5480  139.9260 C   0  0  0  0  0  0  0  0  0  0  0  0
  184.9190  179.5280  139.8870 O   0  0  0  0  0  0  0  0  0  0  0  0
  182.6840  178.3690  140.8770 O   0  0  0  0  0  0  0  0  0  0  0  0
  181.7800  176.4660  139.7830 C   0  0  0  0  0  1  0  0  0  0  0  0
  184.8910  178.6330  139.0000 C   0  0  0  0  0  0  0  0  0  0  0  0
  183.8580  177.6420  138.9810 N   0  0  0  0  0  2  0  0  0  0  0  0
  1  9  1  0  0  0  0
  2  5  1  0  0  0  0
  2  3  1  0  0  0  0
  3  7  1  0  0  0  0
  5 14  2  0  0  0  0
  6  1  2  0  0  0  0
  7  4  1  0  0  0  0
  8 12  2  0  0  0  0
  8 13  1  0  0  0  0
 10 19  1  0  0  0  0
 11  4  2  0  0  0  0
 11 15  1  0  0  0  0
 12 16  1  0  0  0  0
 13  2  2  0  0  0  0
 14  1  1  0  0  0  0
 16 17  2  0  0  0  0
 16  5  1  0  0  0  0
 17  6  1  0  0  0  0
 18 13  1  0  0  0  0
 18 10  1  0  0  0  0
 19  3  2  0  0  0  0
 19 20  1  0  0  0  0
 20 11  1  0  0  0  0
 21  8  1  0  0  0  0
 22 21  1  0  0  0  0
 23 22  1  0  0  0  0
 24 25  1  0  0  0  0
 24 23  1  0  0  0  0
 25 30  1  0  0  0  0
 26 28  2  0  0  0  0
 29 26  1  0  0  0  0
 30 27  2  0  0  0  0
 31 30  1  0  0  0  0
 31 26  1  0  0  0  0
M  END
>  <MODEL>
6

>  <REMARK>
 VINA RESULT:      -9.3      1.997      4.153
  Name = 
  6 active torsions:
  status: ('A' for Active; 'I' for Inactive)
    1  A    between atoms: C_3  and  C_19
    2  A    between atoms: C_3  and  C_22
    3  A    between atoms: C_7  and  C_9
    4  A    between atoms: C_7  and  C_22
    5  A    between atoms: C_9  and  C_23
    6  A    between atoms: C_15  and  C_23
                            x       y       z     vdW  Elec       q    Type
                         _______ _______ _______ _____ _____    ______ ____

>  <TORSDO>
F 6

$$$$
=
 OpenBabel10272400233D

 31 34  0  0  0  0  0  0  0  0999 V2000
  191.0840  176.6530  146.4940 C   0  0  0  0  0  0  0  0  0  0  0  0
  189.1620  177.6190  143.4260 C   0  0  0  0  0  0  0  0  0  0  0  0
  190.1450  177.5540  142.2930 C   0  0  0  0  0  0  0  0  0  0  0  0
  192.4690  177.4090  141.3950 N   0  0  0  0  0  0  0  0  0  0  0  0
  189.4990  177.3350  144.7730 C   0  0  0  0  0  0  0  0  0  0  0  0
  190.0910  176.7660  147.4670 C   0  0  0  0  0  3  0  0  0  0  0  0
  191.6230  177.7810  142.5320 C   0  0  0  0  0  2  0  0  0  0  0  0
  186.8690  178.0440  144.1530 C   0  0  0  0  0  0  0  0  0  0  0  0
  192.3350  176.2730  146.8450 F   0  0  0  0  0  0  0  0  0  0  0  0
  188.2250  177.3840  140.7330 C   0  0  0  0  0  2  0  0  0  0  0  0
  192.0150  177.2850  140.1860 C   0  0  0  0  0  0  0  0  0  0  0  0
  187.2300  177.7800  145.4340 N   0  0  0  0  0  0  0  0  0  0  0  0
  187.8190  177.9470  143.1220 C   0  0  0  0  0  0  0  0  0  0  0  0
  190.7890  176.9330  145.1580 C   0  0  0  0  0  3  0  0  0  0  0  0
  192.9070  176.9820  139.1210 N   0  0  0  0  0  1  0  0  0  0  0  0
  188.4960  177.4310  145.7680 C   0  0  0  0  0  0  0  0  0  0  0  0
  188.7990  177.1520  147.1060 C   0  0  0  0  0  3  0  0  0  0  0  0
  187.4340  178.2570  141.7000 C   0  0  0  0  0  2  0  0  0  0  0  0
  189.6920  177.4810  141.0230 C   0  0  0  0  0  0  0  0  0  0  0  0
  190.6140  177.3840  139.9360 N   0  0  0  0  0  2  0  0  0  0  0  0
  185.4480  178.3960  143.8640 C   0  0  0  0  0  2  0  0  0  0  0  0
  184.8350  179.1090  145.0570 C   0  0  0  0  0  2  0  0  0  0  0  0
  183.3230  179.1600  144.9180 C   0  0  0  0  0  2  0  0  0  0  0  0
  182.8850  178.7940  143.5040 C   0  0  0  0  0  2  0  0  0  0  0  0
  181.3770  178.9150  143.3170 C   0  0  0  0  0  2  0  0  0  0  0  0
  181.3380  178.9190  139.4420 C   0  0  0  0  0  0  0  0  0  0  0  0
  180.0560  177.7020  141.7530 O   0  0  0  0  0  0  0  0  0  0  0  0
  180.4440  178.0960  139.1060 O   0  0  0  0  0  0  0  0  0  0  0  0
  182.0970  179.6430  138.3910 C   0  0  0  0  0  1  0  0  0  0  0  0
  180.9780  178.5430  141.9300 C   0  0  0  0  0  0  0  0  0  0  0  0
  181.6330  179.1670  140.8210 N   0  0  0  0  0  2  0  0  0  0  0  0
  1  9  1  0  0  0  0
  1  6  1  0  0  0  0
  2  5  1  0  0  0  0
  3  7  1  0  0  0  0
  3  2  1  0  0  0  0
  4  7  1  0  0  0  0
  5 14  1  0  0  0  0
  5 16  2  0  0  0  0
  8 12  2  0  0  0  0
 10 19  1  0  0  0  0
 10 18  1  0  0  0  0
 11  4  2  0  0  0  0
 12 16  1  0  0  0  0
 13  2  2  0  0  0  0
 13  8  1  0  0  0  0
 14  1  2  0  0  0  0
 15 11  1  0  0  0  0
 16 17  1  0  0  0  0
 17  6  2  0  0  0  0
 18 13  1  0  0  0  0
 19  3  2  0  0  0  0
 20 11  1  0  0  0  0
 20 19  1  0  0  0  0
 21  8  1  0  0  0  0
 21 22  1  0  0  0  0
 23 22  1  0  0  0  0
 24 23  1  0  0  0  0
 25 24  1  0  0  0  0
 26 31  1  0  0  0  0
 27 30  2  0  0  0  0
 28 26  2  0  0  0  0
 29 26  1  0  0  0  0
 30 25  1  0  0  0  0
 31 30  1  0  0  0  0
M  END
>  <MODEL>
7

>  <REMARK>
 VINA RESULT:      -8.8      2.936      4.857
  Name = 
  6 active torsions:
  status: ('A' for Active; 'I' for Inactive)
    1  A    between atoms: C_3  and  C_19
    2  A    between atoms: C_3  and  C_22
    3  A    between atoms: C_7  and  C_9
    4  A    between atoms: C_7  and  C_22
    5  A    between atoms: C_9  and  C_23
    6  A    between atoms: C_15  and  C_23
                            x       y       z     vdW  Elec       q    Type
                         _______ _______ _______ _____ _____    ______ ____

>  <TORSDO>
F 6

$$$$
=
 OpenBabel10272400233D

 31 34  0  0  0  0  0  0  0  0999 V2000
  185.6440  178.0590  145.6030 C   0  0  0  0  0  0  0  0  0  0  0  0
  188.9620  177.4980  143.9530 C   0  0  0  0  0  0  0  0  0  0  0  0
  189.9140  177.1520  145.0620 C   0  0  0  0  0  0  0  0  0  0  0  0
  190.5340  177.0170  147.4750 N   0  0  0  0  0  0  0  0  0  0  0  0
  187.5920  177.7980  144.1620 C   0  0  0  0  0  0  0  0  0  0  0  0
  184.8590  178.3870  144.4980 C   0  0  0  0  0  3  0  0  0  0  0  0
  189.6890  177.6650  146.4680 C   0  0  0  0  0  2  0  0  0  0  0  0
  188.6060  177.8280  141.5600 C   0  0  0  0  0  0  0  0  0  0  0  0
  185.0940  178.0270  146.8400 F   0  0  0  0  0  0  0  0  0  0  0  0
  191.4010  176.1250  143.3640 C   0  0  0  0  0  2  0  0  0  0  0  0
  191.6240  176.3800  147.1800 C   0  0  0  0  0  0  0  0  0  0  0  0
  187.3040  178.1250  141.7970 N   0  0  0  0  0  0  0  0  0  0  0  0
  189.4550  177.4870  142.6270 C   0  0  0  0  0  0  0  0  0  0  0  0
  187.0000  177.7650  145.4350 C   0  0  0  0  0  3  0  0  0  0  0  0
  192.4260  175.8280  148.2160 N   0  0  0  0  0  1  0  0  0  0  0  0
  186.7800  178.1170  143.0470 C   0  0  0  0  0  0  0  0  0  0  0  0
  185.4240  178.4140  143.2220 C   0  0  0  0  0  3  0  0  0  0  0  0
  190.9070  177.1750  142.3760 C   0  0  0  0  0  2  0  0  0  0  0  0
  191.0800  176.5380  144.7690 C   0  0  0  0  0  0  0  0  0  0  0  0
  191.9820  176.1710  145.8150 N   0  0  0  0  0  2  0  0  0  0  0  0
  189.1000  177.8330  140.1510 C   0  0  0  0  0  2  0  0  0  0  0  0
  187.9530  178.1240  139.1980 C   0  0  0  0  0  2  0  0  0  0  0  0
  188.4200  177.9940  137.7580 C   0  0  0  0  0  2  0  0  0  0  0  0
  187.2910  178.3030  136.7810 C   0  0  0  0  0  2  0  0  0  0  0  0
  185.9720  177.6680  137.2060 C   0  0  0  0  0  2  0  0  0  0  0  0
  185.2130  173.8900  136.7900 C   0  0  0  0  0  0  0  0  0  0  0  0
  185.9240  176.2720  135.2790 O   0  0  0  0  0  0  0  0  0  0  0  0
  185.3270  173.6490  135.5590 O   0  0  0  0  0  0  0  0  0  0  0  0
  184.8590  172.7880  137.7210 C   0  0  0  0  0  1  0  0  0  0  0  0
  185.7670  176.3570  136.5260 C   0  0  0  0  0  0  0  0  0  0  0  0
  185.4200  175.2080  137.3070 N   0  0  0  0  0  2  0  0  0  0  0  0
  1  9  1  0  0  0  0
  2  5  1  0  0  0  0
  2  3  1  0  0  0  0
  3  7  1  0  0  0  0
  5 14  2  0  0  0  0
  6  1  2  0  0  0  0
  7  4  1  0  0  0  0
  8 12  2  0  0  0  0
  8 13  1  0  0  0  0
 10 19  1  0  0  0  0
 11  4  2  0  0  0  0
 11 15  1  0  0  0  0
 12 16  1  0  0  0  0
 13  2  2  0  0  0  0
 14  1  1  0  0  0  0
 16 17  2  0  0  0  0
 16  5  1  0  0  0  0
 17  6  1  0  0  0  0
 18 13  1  0  0  0  0
 18 10  1  0  0  0  0
 19  3  2  0  0  0  0
 19 20  1  0  0  0  0
 20 11  1  0  0  0  0
 21  8  1  0  0  0  0
 22 21  1  0  0  0  0
 23 22  1  0  0  0  0
 24 25  1  0  0  0  0
 24 23  1  0  0  0  0
 26 31  1  0  0  0  0
 26 29  1  0  0  0  0
 27 30  2  0  0  0  0
 28 26  2  0  0  0  0
 30 25  1  0  0  0  0
 30 31  1  0  0  0  0
M  END
>  <MODEL>
8

>  <REMARK>
 VINA RESULT:      -8.8      2.524      4.459
  Name = 
  6 active torsions:
  status: ('A' for Active; 'I' for Inactive)
    1  A    between atoms: C_3  and  C_19
    2  A    between atoms: C_3  and  C_22
    3  A    between atoms: C_7  and  C_9
    4  A    between atoms: C_7  and  C_22
    5  A    between atoms: C_9  and  C_23
    6  A    between atoms: C_15  and  C_23
                            x       y       z     vdW  Elec       q    Type
                         _______ _______ _______ _____ _____    ______ ____

>  <TORSDO>
F 6

$$$$
=
 OpenBabel10272400233D

 31 34  0  0  0  0  0  0  0  0999 V2000
  191.2040  176.1580  143.6980 C   0  0  0  0  0  0  0  0  0  0  0  0
  189.2770  177.4410  140.7510 C   0  0  0  0  0  0  0  0  0  0  0  0
  190.1010  177.0960  139.5450 C   0  0  0  0  0  0  0  0  0  0  0  0
  192.2260  176.3590  138.4620 N   0  0  0  0  0  0  0  0  0  0  0  0
  189.6670  177.1360  142.0800 C   0  0  0  0  0  0  0  0  0  0  0  0
  190.3650  176.5460  144.7430 C   0  0  0  0  0  3  0  0  0  0  0  0
  191.6070  176.9680  139.6430 C   0  0  0  0  0  2  0  0  0  0  0  0
  187.2330  178.4360  141.6440 C   0  0  0  0  0  0  0  0  0  0  0  0
  192.3580  175.5000  143.9630 F   0  0  0  0  0  0  0  0  0  0  0  0
  188.0530  177.3360  138.1680 C   0  0  0  0  0  2  0  0  0  0  0  0
  191.6400  176.3020  137.3070 C   0  0  0  0  0  0  0  0  0  0  0  0
  187.6430  178.1420  142.9030 N   0  0  0  0  0  0  0  0  0  0  0  0
  188.0270  178.0720  140.5430 C   0  0  0  0  0  0  0  0  0  0  0  0
  190.8550  176.4490  142.3770 C   0  0  0  0  0  3  0  0  0  0  0  0
  192.3260  175.7500  136.1900 N   0  0  0  0  0  1  0  0  0  0  0  0
  188.8170  177.5100  143.1490 C   0  0  0  0  0  0  0  0  0  0  0  0
  189.1730  177.2180  144.4710 C   0  0  0  0  0  3  0  0  0  0  0  0
  187.5900  178.4120  139.1430 C   0  0  0  0  0  2  0  0  0  0  0  0
  189.5230  177.0860  138.3250 C   0  0  0  0  0  0  0  0  0  0  0  0
  190.2850  176.7270  137.1710 N   0  0  0  0  0  2  0  0  0  0  0  0
  185.9140  179.1100  141.4570 C   0  0  0  0  0  2  0  0  0  0  0  0
  184.8320  178.3550  142.2080 C   0  0  0  0  0  2  0  0  0  0  0  0
  184.3190  179.1890  143.3700 C   0  0  0  0  0  2  0  0  0  0  0  0
  184.3860  178.4120  144.6800 C   0  0  0  0  0  2  0  0  0  0  0  0
  185.2710  179.1000  145.7140 C   0  0  0  0  0  2  0  0  0  0  0  0
  188.1330  177.7820  147.9710 C   0  0  0  0  0  0  0  0  0  0  0  0
  186.1730  176.9170  146.0030 O   0  0  0  0  0  0  0  0  0  0  0  0
  188.2120  176.5460  147.7410 O   0  0  0  0  0  0  0  0  0  0  0  0
  189.0630  178.4050  148.9470 C   0  0  0  0  0  1  0  0  0  0  0  0
  186.2120  178.1290  146.3430 C   0  0  0  0  0  0  0  0  0  0  0  0
  187.1630  178.5970  147.3050 N   0  0  0  0  0  2  0  0  0  0  0  0
  1  9  1  0  0  0  0
  1  6  1  0  0  0  0
  2  5  1  0  0  0  0
  3  7  1  0  0  0  0
  3  2  1  0  0  0  0
  4  7  1  0  0  0  0
  5 14  1  0  0  0  0
  5 16  2  0  0  0  0
  8 12  2  0  0  0  0
 10 19  1  0  0  0  0
 10 18  1  0  0  0  0
 11  4  2  0  0  0  0
 12 16  1  0  0  0  0
 13  2  2  0  0  0  0
 13  8  1  0  0  0  0
 14  1  2  0  0  0  0
 15 11  1  0  0  0  0
 16 17  1  0  0  0  0
 17  6  2  0  0  0  0
 18 13  1  0  0  0  0
 19  3  2  0  0  0  0
 20 11  1  0  0  0  0
 20 19  1  0  0  0  0
 21  8  1  0  0  0  0
 21 22  1  0  0  0  0
 22 23  1  0  0  0  0
 23 24  1  0  0  0  0
 24 25  1  0  0  0  0
 25 30  1  0  0  0  0
 26 29  1  0  0  0  0
 27 30  2  0  0  0  0
 28 26  2  0  0  0  0
 30 31  1  0  0  0  0
 31 26  1  0  0  0  0
M  END
>  <MODEL>
9

>  <REMARK>
 VINA RESULT:      -8.6      3.560      6.697
  Name = 
  6 active torsions:
  status: ('A' for Active; 'I' for Inactive)
    1  A    between atoms: C_3  and  C_19
    2  A    between atoms: C_3  and  C_22
    3  A    between atoms: C_7  and  C_9
    4  A    between atoms: C_7  and  C_22
    5  A    between atoms: C_9  and  C_23
    6  A    between atoms: C_15  and  C_23
                            x       y       z     vdW  Elec       q    Type
                         _______ _______ _______ _____ _____    ______ ____

>  <TORSDO>
F 6

$$$$
