=
 OpenBabel10272401053D

 27 32  0  0  1  0  0  0  0  0999 V2000
  190.0660  178.6880  141.8730 C   0  0  0  0  0  2  0  0  0  0  0  0
  187.6000  178.3480  141.4570 C   0  0  0  0  0  0  0  0  0  0  0  0
  187.8360  177.5560  143.7900 O   0  0  0  0  0  0  0  0  0  0  0  0
  183.4760  179.2020  141.9950 C   0  0  0  0  0  3  0  0  0  0  0  0
  183.0440  178.9060  143.2480 C   0  0  0  0  0  0  0  0  0  0  0  0
  186.8050  178.8540  140.4750 N   0  0  0  0  0  0  0  0  0  0  0  0
  185.1630  178.0440  144.2890 C   0  0  0  0  0  3  0  0  0  0  0  0
  191.2430  176.8970  145.0250 C   0  0  0  0  0  0  0  0  0  0  0  0
  183.8430  178.3580  144.3340 C   0  0  0  0  0  0  0  0  0  0  0  0
  191.8990  175.9560  145.5420 O   0  0  0  0  0  0  0  0  0  0  0  0
  185.6970  178.3320  142.9770 C   0  0  0  0  0  0  0  0  0  0  0  0
  188.9700  178.0360  141.1410 N   0  0  0  0  0  0  0  0  0  0  0  0
  182.4800  178.6420  144.5040 C   0  0  0  0  0  2  0  0  0  0  0  0
  184.8760  178.8900  141.8800 C   0  0  0  0  0  0  0  0  0  0  0  0
  189.8320  178.7300  143.3160 N   0  0  2  0  0  0  0  0  0  0  0  0
  187.0580  178.0760  142.7390 C   0  0  0  0  0  0  0  0  0  0  0  0
  189.7630  176.9320  145.1000 C   0  0  0  0  0  2  0  0  0  0  0  0
  185.4900  179.1280  140.6560 C   0  0  0  0  0  3  0  0  0  0  0  0
  191.9010  177.9540  144.3420 N   0  0  0  0  0  2  0  0  0  0  0  0
  191.1060  179.1150  143.9530 C   0  0  0  0  0  2  0  0  0  0  0  0
  189.2510  177.4390  143.7520 C   0  0  1  0  0  3  0  0  0  0  0  0
  189.9180  175.6150  137.7690 C   0  0  0  0  0  3  0  0  0  0  0  0
  189.2880  177.2040  140.0050 C   0  0  0  0  0  0  0  0  0  0  0  0
  190.5590  176.6160  139.8770 C   0  0  0  0  0  3  0  0  0  0  0  0
  190.8710  175.8250  138.7680 C   0  0  0  0  0  3  0  0  0  0  0  0
  188.6540  176.1980  137.8780 C   0  0  0  0  0  3  0  0  0  0  0  0
  188.3420  176.9890  138.9870 C   0  0  0  0  0  3  0  0  0  0  0  0
  2 16  1  0  0  0  0
  4  5  2  0  0  0  0
  5  9  1  0  0  0  0
  5 13  1  0  0  0  0
  6 18  1  0  0  0  0
  6  2  2  0  0  0  0
  7  9  2  0  0  0  0
  8 17  1  0  0  0  0
  8 10  2  0  0  0  0
  9 13  1  0  0  0  0
 11  7  1  0  0  0  0
 12  2  1  0  0  0  0
 12  1  1  0  0  0  0
 14  4  1  0  0  0  0
 14 11  1  0  0  0  0
 15  1  1  6  0  0  0
 15 21  1  0  0  0  0
 15 20  1  0  0  0  0
 16 11  2  0  0  0  0
 16  3  1  0  0  0  0
 18 14  2  0  0  0  0
 19  8  1  0  0  0  0
 20 19  1  0  0  0  0
 21  3  1  0  0  0  0
 21 17  1  1  0  0  0
 22 26  2  0  0  0  0
 22 25  1  0  0  0  0
 23 12  1  0  0  0  0
 24 23  1  0  0  0  0
 25 24  2  0  0  0  0
 26 27  1  0  0  0  0
 27 23  2  0  0  0  0
M  END
>  <MODEL>
1

>  <REMARK>
 VINA RESULT:      -8.3      0.000      0.000
  Name = 
  1 active torsions:
  status: ('A' for Active; 'I' for Inactive)
    1  A    between atoms: C_9  and  N_15
                            x       y       z     vdW  Elec       q    Type
                         _______ _______ _______ _____ _____    ______ ____

>  <TORSDO>
F 1

$$$$
=
 OpenBabel10272401053D

 27 32  0  0  1  0  0  0  0  0999 V2000
  186.8920  178.9720  139.7380 C   0  0  0  0  0  2  0  0  0  0  0  0
  185.8160  178.5520  141.9820 C   0  0  0  0  0  0  0  0  0  0  0  0
  187.9340  177.2910  142.1920 O   0  0  0  0  0  0  0  0  0  0  0  0
  185.4600  178.9660  146.1930 C   0  0  0  0  0  3  0  0  0  0  0  0
  186.4830  178.3740  146.8600 C   0  0  0  0  0  0  0  0  0  0  0  0
  184.7830  179.2000  142.5870 N   0  0  0  0  0  0  0  0  0  0  0  0
  187.8340  177.4630  144.9470 C   0  0  0  0  0  3  0  0  0  0  0  0
  189.8310  176.6290  139.1040 C   0  0  0  0  0  0  0  0  0  0  0  0
  187.6080  177.6630  146.2710 C   0  0  0  0  0  0  0  0  0  0  0  0
  190.3030  175.6480  138.4730 O   0  0  0  0  0  0  0  0  0  0  0  0
  186.7790  178.0670  144.1660 C   0  0  0  0  0  0  0  0  0  0  0  0
  185.7980  178.4170  140.5480 N   0  0  0  0  0  0  0  0  0  0  0  0
  187.4830  177.8030  147.6600 C   0  0  0  0  0  2  0  0  0  0  0  0
  185.6400  178.7900  144.7760 C   0  0  0  0  0  0  0  0  0  0  0  0
  188.2110  178.6820  140.3000 N   0  0  2  0  0  0  0  0  0  0  0  0
  186.8440  177.9690  142.7660 C   0  0  0  0  0  0  0  0  0  0  0  0
  189.5380  176.5380  140.5540 C   0  0  0  0  0  2  0  0  0  0  0  0
  184.6780  179.3330  143.9320 C   0  0  0  0  0  3  0  0  0  0  0  0
  189.5520  177.8540  138.4420 N   0  0  0  0  0  2  0  0  0  0  0  0
  189.2080  179.0100  139.2630 C   0  0  0  0  0  2  0  0  0  0  0  0
  188.2290  177.2880  140.8020 C   0  0  1  0  0  3  0  0  0  0  0  0
  182.3600  176.8620  138.5750 C   0  0  0  0  0  3  0  0  0  0  0  0
  184.6380  177.8780  139.8790 C   0  0  0  0  0  0  0  0  0  0  0  0
  184.5710  177.8410  138.4740 C   0  0  0  0  0  3  0  0  0  0  0  0
  183.4400  177.3350  137.8260 C   0  0  0  0  0  3  0  0  0  0  0  0
  182.4090  176.8980  139.9700 C   0  0  0  0  0  3  0  0  0  0  0  0
  183.5390  177.4050  140.6170 C   0  0  0  0  0  3  0  0  0  0  0  0
  1 15  1  0  0  0  0
  1 12  1  0  0  0  0
  2  6  2  0  0  0  0
  2 16  1  0  0  0  0
  3 16  1  0  0  0  0
  4  5  2  0  0  0  0
  5 13  1  0  0  0  0
  6 18  1  0  0  0  0
  7  9  2  0  0  0  0
  8 17  1  0  0  0  0
  9  5  1  0  0  0  0
  9 13  1  0  0  0  0
 10  8  2  0  0  0  0
 11 14  1  0  0  0  0
 11  7  1  0  0  0  0
 12  2  1  0  0  0  0
 14  4  1  0  0  0  0
 15 20  1  6  0  0  0
 15 21  1  0  0  0  0
 16 11  2  0  0  0  0
 18 14  2  0  0  0  0
 19  8  1  0  0  0  0
 19 20  1  0  0  0  0
 21 17  1  1  0  0  0
 21  3  1  0  0  0  0
 22 26  1  0  0  0  0
 23 12  1  0  0  0  0
 23 27  1  0  0  0  0
 24 23  2  0  0  0  0
 25 24  1  0  0  0  0
 25 22  2  0  0  0  0
 26 27  2  0  0  0  0
M  END
>  <MODEL>
2

>  <REMARK>
 VINA RESULT:      -7.3      2.520      4.788
  Name = 
  1 active torsions:
  status: ('A' for Active; 'I' for Inactive)
    1  A    between atoms: C_9  and  N_15
                            x       y       z     vdW  Elec       q    Type
                         _______ _______ _______ _____ _____    ______ ____

>  <TORSDO>
F 1

$$$$
=
 OpenBabel10272401053D

 27 32  0  0  1  0  0  0  0  0999 V2000
  188.3410  178.2130  138.9520 C   0  0  0  0  0  2  0  0  0  0  0  0
  190.4590  176.8440  139.0690 C   0  0  0  0  0  0  0  0  0  0  0  0
  189.1260  175.5770  137.4130 O   0  0  0  0  0  0  0  0  0  0  0  0
  194.1120  175.3090  137.5440 C   0  0  0  0  0  3  0  0  0  0  0  0
  193.9220  174.4550  136.5060 C   0  0  0  0  0  0  0  0  0  0  0  0
  191.6790  177.1710  139.5760 N   0  0  0  0  0  0  0  0  0  0  0  0
  191.4160  174.4810  136.3210 C   0  0  0  0  0  3  0  0  0  0  0  0
  185.5320  176.3460  137.1760 C   0  0  0  0  0  0  0  0  0  0  0  0
  192.6460  174.0630  135.9260 C   0  0  0  0  0  0  0  0  0  0  0  0
  184.4270  175.7480  137.2510 O   0  0  0  0  0  0  0  0  0  0  0  0
  191.5360  175.3990  137.4320 C   0  0  0  0  0  0  0  0  0  0  0  0
  189.2830  177.3760  139.7100 N   0  0  0  0  0  0  0  0  0  0  0  0
  193.8560  173.5600  135.4280 C   0  0  0  0  0  2  0  0  0  0  0  0
  192.8390  175.7920  138.0120 C   0  0  0  0  0  0  0  0  0  0  0  0
  188.0450  177.6680  137.6270 N   0  0  2  0  0  0  0  0  0  0  0  0
  190.3620  175.9450  137.9770 C   0  0  0  0  0  0  0  0  0  0  0  0
  186.7800  175.6140  136.8550 C   0  0  0  0  0  2  0  0  0  0  0  0
  192.8410  176.6800  139.0810 C   0  0  0  0  0  3  0  0  0  0  0  0
  185.6200  177.7440  137.4090 N   0  0  0  0  0  2  0  0  0  0  0  0
  186.8820  178.4090  137.1020 C   0  0  0  0  0  2  0  0  0  0  0  0
  187.8890  176.1990  137.7290 C   0  0  1  0  0  3  0  0  0  0  0  0
  188.7010  176.9050  143.9010 C   0  0  0  0  0  3  0  0  0  0  0  0
  189.0950  177.2260  141.1330 C   0  0  0  0  0  0  0  0  0  0  0  0
  189.9150  176.3610  141.8800 C   0  0  0  0  0  3  0  0  0  0  0  0
  189.7210  176.2040  143.2550 C   0  0  0  0  0  3  0  0  0  0  0  0
  187.8730  177.7610  143.1730 C   0  0  0  0  0  3  0  0  0  0  0  0
  188.0670  177.9190  141.7970 C   0  0  0  0  0  3  0  0  0  0  0  0
  1 12  1  0  0  0  0
  2  6  1  0  0  0  0
  2 12  1  0  0  0  0
  3 21  1  0  0  0  0
  3 16  1  0  0  0  0
  4 14  1  0  0  0  0
  5  4  2  0  0  0  0
  7 11  1  0  0  0  0
  8 10  2  0  0  0  0
  8 19  1  0  0  0  0
  9  7  2  0  0  0  0
  9  5  1  0  0  0  0
 11 16  1  0  0  0  0
 11 14  2  0  0  0  0
 12 23  1  0  0  0  0
 13  9  1  0  0  0  0
 13  5  1  0  0  0  0
 14 18  1  0  0  0  0
 15 20  1  1  0  0  0
 15 21  1  0  0  0  0
 15  1  1  0  0  0  0
 16  2  2  0  0  0  0
 17  8  1  0  0  0  0
 18  6  2  0  0  0  0
 20 19  1  0  0  0  0
 21 17  1  6  0  0  0
 23 27  2  0  0  0  0
 23 24  1  0  0  0  0
 24 25  2  0  0  0  0
 25 22  1  0  0  0  0
 26 22  2  0  0  0  0
 27 26  1  0  0  0  0
M  END
>  <MODEL>
3

>  <REMARK>
 VINA RESULT:      -7.3      3.505      8.283
  Name = 
  1 active torsions:
  status: ('A' for Active; 'I' for Inactive)
    1  A    between atoms: C_9  and  N_15
                            x       y       z     vdW  Elec       q    Type
                         _______ _______ _______ _____ _____    ______ ____

>  <TORSDO>
F 1

$$$$
=
 OpenBabel10272401053D

 27 32  0  0  1  0  0  0  0  0999 V2000
  186.9640  178.9770  138.0390 C   0  0  0  0  0  2  0  0  0  0  0  0
  185.8380  178.4710  140.2410 C   0  0  0  0  0  0  0  0  0  0  0  0
  188.0230  177.3430  140.5180 O   0  0  0  0  0  0  0  0  0  0  0  0
  185.3100  178.8270  144.4390 C   0  0  0  0  0  3  0  0  0  0  0  0
  186.3450  178.2940  145.1390 C   0  0  0  0  0  0  0  0  0  0  0  0
  184.7460  179.0490  140.8130 N   0  0  0  0  0  0  0  0  0  0  0  0
  187.8160  177.4860  143.2690 C   0  0  0  0  0  3  0  0  0  0  0  0
  190.0650  176.8270  137.4950 C   0  0  0  0  0  0  0  0  0  0  0  0
  187.5310  177.6600  144.5850 C   0  0  0  0  0  0  0  0  0  0  0  0
  190.6190  175.8830  136.8750 O   0  0  0  0  0  0  0  0  0  0  0  0
  186.7530  178.0290  142.4550 C   0  0  0  0  0  0  0  0  0  0  0  0
  185.8790  178.3480  138.8070 N   0  0  0  0  0  0  0  0  0  0  0  0
  187.3500  177.7800  145.9700 C   0  0  0  0  0  2  0  0  0  0  0  0
  185.5500  178.6750  143.0280 C   0  0  0  0  0  0  0  0  0  0  0  0
  188.2780  178.7650  138.6460 N   0  0  2  0  0  0  0  0  0  0  0  0
  186.8730  177.9470  141.0570 C   0  0  0  0  0  0  0  0  0  0  0  0
  189.7270  176.7060  138.9330 C   0  0  0  0  0  2  0  0  0  0  0  0
  184.5870  179.1630  142.1540 C   0  0  0  0  0  3  0  0  0  0  0  0
  189.7320  178.0380  136.8320 N   0  0  0  0  0  2  0  0  0  0  0  0
  189.2880  179.1630  137.6470 C   0  0  0  0  0  2  0  0  0  0  0  0
  188.3660  177.3710  139.1390 C   0  0  1  0  0  3  0  0  0  0  0  0
  182.6450  176.5850  136.6700 C   0  0  0  0  0  3  0  0  0  0  0  0
  184.7790  177.7430  138.0930 C   0  0  0  0  0  0  0  0  0  0  0  0
  184.9660  176.5600  137.3540 C   0  0  0  0  0  3  0  0  0  0  0  0
  183.9050  175.9840  136.6490 C   0  0  0  0  0  3  0  0  0  0  0  0
  182.4450  177.7630  137.3930 C   0  0  0  0  0  3  0  0  0  0  0  0
  183.5060  178.3390  138.0980 C   0  0  0  0  0  3  0  0  0  0  0  0
  1 15  1  0  0  0  0
  1 12  1  0  0  0  0
  2  6  2  0  0  0  0
  2 16  1  0  0  0  0
  3 16  1  0  0  0  0
  4  5  2  0  0  0  0
  5 13  1  0  0  0  0
  6 18  1  0  0  0  0
  7  9  2  0  0  0  0
  8 17  1  0  0  0  0
  9  5  1  0  0  0  0
  9 13  1  0  0  0  0
 10  8  2  0  0  0  0
 11 14  1  0  0  0  0
 11  7  1  0  0  0  0
 12  2  1  0  0  0  0
 14  4  1  0  0  0  0
 15 20  1  6  0  0  0
 15 21  1  0  0  0  0
 16 11  2  0  0  0  0
 18 14  2  0  0  0  0
 19  8  1  0  0  0  0
 19 20  1  0  0  0  0
 21 17  1  1  0  0  0
 21  3  1  0  0  0  0
 22 26  1  0  0  0  0
 23 27  1  0  0  0  0
 23 12  1  0  0  0  0
 24 23  2  0  0  0  0
 25 22  2  0  0  0  0
 25 24  1  0  0  0  0
 26 27  2  0  0  0  0
M  END
>  <MODEL>
4

>  <REMARK>
 VINA RESULT:      -7.0      3.026      5.101
  Name = 
  1 active torsions:
  status: ('A' for Active; 'I' for Inactive)
    1  A    between atoms: C_9  and  N_15
                            x       y       z     vdW  Elec       q    Type
                         _______ _______ _______ _____ _____    ______ ____

>  <TORSDO>
F 1

$$$$
=
 OpenBabel10272401053D

 27 32  0  0  1  0  0  0  0  0999 V2000
  189.4410  177.3620  136.8520 C   0  0  0  0  0  2  0  0  0  0  0  0
  188.7830  177.4780  139.2860 C   0  0  0  0  0  0  0  0  0  0  0  0
  190.6060  175.8060  139.3320 O   0  0  0  0  0  0  0  0  0  0  0  0
  189.3810  178.4810  143.3680 C   0  0  0  0  0  3  0  0  0  0  0  0
  190.3810  177.7590  143.9380 C   0  0  0  0  0  0  0  0  0  0  0  0
  188.0450  178.4130  139.9440 N   0  0  0  0  0  0  0  0  0  0  0  0
  191.1050  176.3360  141.9970 C   0  0  0  0  0  3  0  0  0  0  0  0
  191.6640  174.3540  136.1160 C   0  0  0  0  0  0  0  0  0  0  0  0
  191.1970  176.7450  143.2890 C   0  0  0  0  0  0  0  0  0  0  0  0
  191.7940  173.2210  135.5840 O   0  0  0  0  0  0  0  0  0  0  0  0
  190.0550  177.0620  141.3210 C   0  0  0  0  0  0  0  0  0  0  0  0
  188.4470  177.1740  137.9180 N   0  0  0  0  0  0  0  0  0  0  0  0
  191.3890  177.0810  144.6370 C   0  0  0  0  0  2  0  0  0  0  0  0
  189.2310  178.0940  141.9900 C   0  0  0  0  0  0  0  0  0  0  0  0
  190.7630  176.8530  137.2190 N   0  0  2  0  0  0  0  0  0  0  0  0
  189.8120  176.7790  139.9660 C   0  0  0  0  0  0  0  0  0  0  0  0
  191.6610  174.5130  137.5900 C   0  0  0  0  0  2  0  0  0  0  0  0
  188.2450  178.7310  141.2460 C   0  0  0  0  0  3  0  0  0  0  0  0
  191.5050  175.5190  135.3200 N   0  0  0  0  0  2  0  0  0  0  0  0
  191.5720  176.8160  135.9860 C   0  0  0  0  0  2  0  0  0  0  0  0
  190.6060  175.5640  137.9320 C   0  0  1  0  0  3  0  0  0  0  0  0
  184.4570  176.1790  136.8140 C   0  0  0  0  0  3  0  0  0  0  0  0
  187.0910  176.8330  137.5570 C   0  0  0  0  0  0  0  0  0  0  0  0
  186.7700  175.5360  137.1170 C   0  0  0  0  0  3  0  0  0  0  0  0
  185.4610  175.2110  136.7500 C   0  0  0  0  0  3  0  0  0  0  0  0
  184.7620  177.4730  137.2420 C   0  0  0  0  0  3  0  0  0  0  0  0
  186.0710  177.7980  137.6080 C   0  0  0  0  0  3  0  0  0  0  0  0
  1 15  1  0  0  0  0
  1 12  1  0  0  0  0
  2  6  2  0  0  0  0
  2 16  1  0  0  0  0
  3 16  1  0  0  0  0
  4  5  2  0  0  0  0
  5 13  1  0  0  0  0
  6 18  1  0  0  0  0
  7  9  2  0  0  0  0
  8 17  1  0  0  0  0
  9  5  1  0  0  0  0
  9 13  1  0  0  0  0
 10  8  2  0  0  0  0
 11 14  1  0  0  0  0
 11  7  1  0  0  0  0
 12  2  1  0  0  0  0
 14  4  1  0  0  0  0
 15 20  1  6  0  0  0
 15 21  1  0  0  0  0
 16 11  2  0  0  0  0
 18 14  2  0  0  0  0
 19 20  1  0  0  0  0
 19  8  1  0  0  0  0
 21 17  1  1  0  0  0
 21  3  1  0  0  0  0
 22 26  1  0  0  0  0
 23 27  1  0  0  0  0
 23 12  1  0  0  0  0
 24 23  2  0  0  0  0
 25 22  2  0  0  0  0
 25 24  1  0  0  0  0
 26 27  2  0  0  0  0
M  END
>  <MODEL>
5

>  <REMARK>
 VINA RESULT:      -7.0      3.432      6.212
  Name = 
  1 active torsions:
  status: ('A' for Active; 'I' for Inactive)
    1  A    between atoms: C_9  and  N_15
                            x       y       z     vdW  Elec       q    Type
                         _______ _______ _______ _____ _____    ______ ____

>  <TORSDO>
F 1

$$$$
=
 OpenBabel10272401053D

 27 32  0  0  1  0  0  0  0  0999 V2000
  190.4790  176.1570  135.7270 C   0  0  0  0  0  2  0  0  0  0  0  0
  189.1430  176.6040  137.8220 C   0  0  0  0  0  0  0  0  0  0  0  0
  191.2150  175.6140  138.7420 O   0  0  0  0  0  0  0  0  0  0  0  0
  188.2970  178.6180  141.4620 C   0  0  0  0  0  3  0  0  0  0  0  0
  189.2310  178.3770  142.4170 C   0  0  0  0  0  0  0  0  0  0  0  0
  188.0500  177.3950  138.0040 N   0  0  0  0  0  0  0  0  0  0  0  0
  190.7920  176.8460  141.1790 C   0  0  0  0  0  3  0  0  0  0  0  0
  193.4580  173.8750  136.3940 C   0  0  0  0  0  0  0  0  0  0  0  0
  190.4130  177.5390  142.2830 C   0  0  0  0  0  0  0  0  0  0  0  0
  193.9960  172.7460  136.2560 O   0  0  0  0  0  0  0  0  0  0  0  0
  189.8400  177.0530  140.1110 C   0  0  0  0  0  0  0  0  0  0  0  0
  189.2930  175.9190  136.5630 N   0  0  0  0  0  0  0  0  0  0  0  0
  190.1270  178.2060  143.4830 C   0  0  0  0  0  2  0  0  0  0  0  0
  188.6420  177.9090  140.2580 C   0  0  0  0  0  0  0  0  0  0  0  0
  191.7210  176.1640  136.5000 N   0  0  2  0  0  0  0  0  0  0  0  0
  190.0680  176.4170  138.8800 C   0  0  0  0  0  0  0  0  0  0  0  0
  192.9960  174.3470  137.7210 C   0  0  0  0  0  2  0  0  0  0  0  0
  187.7890  178.0390  139.1680 C   0  0  0  0  0  3  0  0  0  0  0  0
  193.2660  174.7310  135.2770 N   0  0  0  0  0  2  0  0  0  0  0  0
  192.8340  176.1010  135.5340 C   0  0  0  0  0  2  0  0  0  0  0  0
  191.6720  175.0800  137.5080 C   0  0  1  0  0  3  0  0  0  0  0  0
  186.1450  173.5270  134.9830 C   0  0  0  0  0  3  0  0  0  0  0  0
  188.2170  175.1140  136.0360 C   0  0  0  0  0  0  0  0  0  0  0  0
  187.9180  173.8580  136.5960 C   0  0  0  0  0  3  0  0  0  0  0  0
  186.8880  173.0710  136.0740 C   0  0  0  0  0  3  0  0  0  0  0  0
  186.4350  174.7680  134.4110 C   0  0  0  0  0  3  0  0  0  0  0  0
  187.4660  175.5550  134.9330 C   0  0  0  0  0  3  0  0  0  0  0  0
  1 15  1  0  0  0  0
  1 12  1  0  0  0  0
  2  6  2  0  0  0  0
  2 16  1  0  0  0  0
  3 16  1  0  0  0  0
  4  5  2  0  0  0  0
  5 13  1  0  0  0  0
  6 18  1  0  0  0  0
  7  9  2  0  0  0  0
  8 17  1  0  0  0  0
  9  5  1  0  0  0  0
  9 13  1  0  0  0  0
 10  8  2  0  0  0  0
 11 14  1  0  0  0  0
 11  7  1  0  0  0  0
 12  2  1  0  0  0  0
 14  4  1  0  0  0  0
 15 20  1  6  0  0  0
 15 21  1  0  0  0  0
 16 11  2  0  0  0  0
 18 14  2  0  0  0  0
 19 20  1  0  0  0  0
 19  8  1  0  0  0  0
 21 17  1  1  0  0  0
 21  3  1  0  0  0  0
 22 25  1  0  0  0  0
 23 12  1  0  0  0  0
 23 24  1  0  0  0  0
 25 24  2  0  0  0  0
 26 27  1  0  0  0  0
 26 22  2  0  0  0  0
 27 23  2  0  0  0  0
M  END
>  <MODEL>
6

>  <REMARK>
 VINA RESULT:      -6.9      3.892      6.441
  Name = 
  1 active torsions:
  status: ('A' for Active; 'I' for Inactive)
    1  A    between atoms: C_9  and  N_15
                            x       y       z     vdW  Elec       q    Type
                         _______ _______ _______ _____ _____    ______ ____

>  <TORSDO>
F 1

$$$$
=
 OpenBabel10272401053D

 27 32  0  0  1  0  0  0  0  0999 V2000
  184.7020  179.5810  140.3430 C   0  0  0  0  0  2  0  0  0  0  0  0
  186.8600  178.4130  139.7530 C   0  0  0  0  0  0  0  0  0  0  0  0
  185.2380  177.2510  138.2900 O   0  0  0  0  0  0  0  0  0  0  0  0
  190.1070  177.4380  137.1970 C   0  0  0  0  0  3  0  0  0  0  0  0
  189.7180  176.7100  136.1180 C   0  0  0  0  0  0  0  0  0  0  0  0
  188.1460  178.7850  139.9990 N   0  0  0  0  0  0  0  0  0  0  0  0
  187.2470  176.5250  136.5380 C   0  0  0  0  0  3  0  0  0  0  0  0
  181.6570  177.7020  139.0270 C   0  0  0  0  0  0  0  0  0  0  0  0
  188.3640  176.2780  135.8060 C   0  0  0  0  0  0  0  0  0  0  0  0
  180.6430  176.9990  139.2710 O   0  0  0  0  0  0  0  0  0  0  0  0
  187.5830  177.2990  137.7120 C   0  0  0  0  0  0  0  0  0  0  0  0
  185.8500  178.7460  140.7240 N   0  0  0  0  0  0  0  0  0  0  0  0
  189.4410  175.9590  134.9670 C   0  0  0  0  0  2  0  0  0  0  0  0
  188.9640  177.7340  138.0190 C   0  0  0  0  0  0  0  0  0  0  0  0
  184.1200  179.1860  139.0600 N   0  0  2  0  0  0  0  0  0  0  0  0
  186.5500  177.6580  138.5940 C   0  0  0  0  0  0  0  0  0  0  0  0
  182.8280  177.1380  138.3150 C   0  0  0  0  0  2  0  0  0  0  0  0
  189.1770  178.4740  139.1760 C   0  0  0  0  0  3  0  0  0  0  0  0
  181.7170  179.0610  139.4360 N   0  0  0  0  0  2  0  0  0  0  0  0
  182.8210  179.8750  138.9400 C   0  0  0  0  0  2  0  0  0  0  0  0
  184.0820  177.7080  138.9780 C   0  0  1  0  0  3  0  0  0  0  0  0
  186.3570  177.6840  144.8160 C   0  0  0  0  0  3  0  0  0  0  0  0
  186.0290  178.3970  142.1140 C   0  0  0  0  0  0  0  0  0  0  0  0
  187.1500  177.6560  142.5310 C   0  0  0  0  0  3  0  0  0  0  0  0
  187.3140  177.3040  143.8730 C   0  0  0  0  0  3  0  0  0  0  0  0
  185.2340  178.4130  144.4170 C   0  0  0  0  0  3  0  0  0  0  0  0
  185.0710  178.7650  143.0750 C   0  0  0  0  0  3  0  0  0  0  0  0
  1 12  1  0  0  0  0
  2  6  1  0  0  0  0
  2 12  1  0  0  0  0
  3 16  1  0  0  0  0
  3 21  1  0  0  0  0
  4 14  1  0  0  0  0
  5  4  2  0  0  0  0
  7 11  1  0  0  0  0
  8 10  2  0  0  0  0
  8 19  1  0  0  0  0
  9  5  1  0  0  0  0
  9  7  2  0  0  0  0
 11 14  2  0  0  0  0
 11 16  1  0  0  0  0
 12 23  1  0  0  0  0
 13  9  1  0  0  0  0
 13  5  1  0  0  0  0
 14 18  1  0  0  0  0
 15 20  1  1  0  0  0
 15  1  1  0  0  0  0
 16  2  2  0  0  0  0
 17  8  1  0  0  0  0
 18  6  2  0  0  0  0
 20 19  1  0  0  0  0
 21 17  1  6  0  0  0
 21 15  1  0  0  0  0
 23 24  2  0  0  0  0
 23 27  1  0  0  0  0
 24 25  1  0  0  0  0
 25 22  2  0  0  0  0
 26 22  1  0  0  0  0
 27 26  2  0  0  0  0
M  END
>  <MODEL>
7

>  <REMARK>
 VINA RESULT:      -6.8      3.252      7.728
  Name = 
  1 active torsions:
  status: ('A' for Active; 'I' for Inactive)
    1  A    between atoms: C_9  and  N_15
                            x       y       z     vdW  Elec       q    Type
                         _______ _______ _______ _____ _____    ______ ____

>  <TORSDO>
F 1

$$$$
=
 OpenBabel10272401053D

 27 32  0  0  1  0  0  0  0  0999 V2000
  189.1340  176.3140  135.7640 C   0  0  0  0  0  2  0  0  0  0  0  0
  188.3160  176.8040  138.1010 C   0  0  0  0  0  0  0  0  0  0  0  0
  190.3980  175.5430  138.5460 O   0  0  0  0  0  0  0  0  0  0  0  0
  188.4760  178.7180  141.8870 C   0  0  0  0  0  3  0  0  0  0  0  0
  189.5490  178.3270  142.6210 C   0  0  0  0  0  0  0  0  0  0  0  0
  187.3860  177.7020  138.5270 N   0  0  0  0  0  0  0  0  0  0  0  0
  190.6310  176.6940  141.0470 C   0  0  0  0  0  3  0  0  0  0  0  0
  191.8920  173.6820  135.7390 C   0  0  0  0  0  0  0  0  0  0  0  0
  190.5700  177.3690  142.2240 C   0  0  0  0  0  0  0  0  0  0  0  0
  192.2510  172.5080  135.4650 O   0  0  0  0  0  0  0  0  0  0  0  0
  189.5130  177.0580  140.2060 C   0  0  0  0  0  0  0  0  0  0  0  0
  188.1240  176.1690  136.8220 N   0  0  0  0  0  0  0  0  0  0  0  0
  190.6160  178.0040  143.4720 C   0  0  0  0  0  2  0  0  0  0  0  0
  188.4810  178.0350  140.6200 C   0  0  0  0  0  0  0  0  0  0  0  0
  190.4990  176.1440  136.2610 N   0  0  2  0  0  0  0  0  0  0  0  0
  189.4080  176.4630  138.9390 C   0  0  0  0  0  0  0  0  0  0  0  0
  191.7690  174.1370  137.1450 C   0  0  0  0  0  2  0  0  0  0  0  0
  187.4460  178.3130  139.7350 C   0  0  0  0  0  3  0  0  0  0  0  0
  191.5800  174.6080  134.7090 N   0  0  0  0  0  2  0  0  0  0  0  0
  191.3780  176.0040  135.0840 C   0  0  0  0  0  2  0  0  0  0  0  0
  190.5270  175.0240  137.2300 C   0  0  1  0  0  3  0  0  0  0  0  0
  184.4210  174.2650  135.9310 C   0  0  0  0  0  3  0  0  0  0  0  0
  186.8750  175.5170  136.5100 C   0  0  0  0  0  0  0  0  0  0  0  0
  186.0110  176.0460  135.5350 C   0  0  0  0  0  3  0  0  0  0  0  0
  184.7930  175.4230  135.2460 C   0  0  0  0  0  3  0  0  0  0  0  0
  185.2650  173.7310  136.9080 C   0  0  0  0  0  3  0  0  0  0  0  0
  186.4820  174.3540  137.1970 C   0  0  0  0  0  3  0  0  0  0  0  0
  1 15  1  0  0  0  0
  1 12  1  0  0  0  0
  2  6  2  0  0  0  0
  2 16  1  0  0  0  0
  3 16  1  0  0  0  0
  4  5  2  0  0  0  0
  5 13  1  0  0  0  0
  6 18  1  0  0  0  0
  7  9  2  0  0  0  0
  8 17  1  0  0  0  0
  9  5  1  0  0  0  0
  9 13  1  0  0  0  0
 10  8  2  0  0  0  0
 11 14  1  0  0  0  0
 11  7  1  0  0  0  0
 12  2  1  0  0  0  0
 14  4  1  0  0  0  0
 15 20  1  6  0  0  0
 15 21  1  0  0  0  0
 16 11  2  0  0  0  0
 18 14  2  0  0  0  0
 19 20  1  0  0  0  0
 19  8  1  0  0  0  0
 21 17  1  1  0  0  0
 21  3  1  0  0  0  0
 22 26  1  0  0  0  0
 23 12  1  0  0  0  0
 23 27  1  0  0  0  0
 24 23  2  0  0  0  0
 25 24  1  0  0  0  0
 25 22  2  0  0  0  0
 26 27  2  0  0  0  0
M  END
>  <MODEL>
8

>  <REMARK>
 VINA RESULT:      -6.7      3.892      6.620
  Name = 
  1 active torsions:
  status: ('A' for Active; 'I' for Inactive)
    1  A    between atoms: C_9  and  N_15
                            x       y       z     vdW  Elec       q    Type
                         _______ _______ _______ _____ _____    ______ ____

>  <TORSDO>
F 1

$$$$
=
 OpenBabel10272401053D

 27 32  0  0  1  0  0  0  0  0999 V2000
  187.6840  178.4480  136.9260 C   0  0  0  0  0  2  0  0  0  0  0  0
  187.5920  178.0440  139.4170 C   0  0  0  0  0  0  0  0  0  0  0  0
  189.3990  176.5050  138.7200 O   0  0  0  0  0  0  0  0  0  0  0  0
  189.0850  178.2580  143.3850 C   0  0  0  0  0  3  0  0  0  0  0  0
  190.1970  177.4990  143.5620 C   0  0  0  0  0  0  0  0  0  0  0  0
  187.0100  178.7870  140.3970 N   0  0  0  0  0  0  0  0  0  0  0  0
  190.4820  176.5300  141.2610 C   0  0  0  0  0  3  0  0  0  0  0  0
  189.7210  175.7780  135.1220 C   0  0  0  0  0  0  0  0  0  0  0  0
  190.8580  176.6810  142.5570 C   0  0  0  0  0  0  0  0  0  0  0  0
  189.7420  174.7810  134.3550 O   0  0  0  0  0  0  0  0  0  0  0  0
  189.2960  177.3110  140.9940 C   0  0  0  0  0  0  0  0  0  0  0  0
  186.9590  177.9960  138.1230 N   0  0  0  0  0  0  0  0  0  0  0  0
  191.3460  176.7560  143.8700 C   0  0  0  0  0  2  0  0  0  0  0  0
  188.6320  178.1420  142.0240 C   0  0  0  0  0  0  0  0  0  0  0  0
  189.0610  177.9540  136.8830 N   0  0  2  0  0  0  0  0  0  0  0  0
  188.7570  177.2860  139.6970 C   0  0  0  0  0  0  0  0  0  0  0  0
  190.0490  175.6430  136.5620 C   0  0  0  0  0  2  0  0  0  0  0  0
  187.4950  178.8540  141.6610 C   0  0  0  0  0  3  0  0  0  0  0  0
  189.3710  177.0650  134.6360 N   0  0  0  0  0  2  0  0  0  0  0  0
  189.5710  178.2070  135.5220 C   0  0  0  0  0  2  0  0  0  0  0  0
  189.0860  176.5440  137.3350 C   0  0  1  0  0  3  0  0  0  0  0  0
  182.8360  177.0070  137.7400 C   0  0  0  0  0  3  0  0  0  0  0  0
  185.5620  177.6530  138.0050 C   0  0  0  0  0  0  0  0  0  0  0  0
  185.1630  176.4760  137.3460 C   0  0  0  0  0  3  0  0  0  0  0  0
  183.8090  176.1540  137.2170 C   0  0  0  0  0  3  0  0  0  0  0  0
  183.2150  178.1830  138.3900 C   0  0  0  0  0  3  0  0  0  0  0  0
  184.5690  178.5050  138.5200 C   0  0  0  0  0  3  0  0  0  0  0  0
  1 12  1  0  0  0  0
  2 16  2  0  0  0  0
  2  6  1  0  0  0  0
  3 16  1  0  0  0  0
  4  5  1  0  0  0  0
  5 13  1  0  0  0  0
  6 18  2  0  0  0  0
  7  9  1  0  0  0  0
  8 17  1  0  0  0  0
  9  5  2  0  0  0  0
  9 13  1  0  0  0  0
 10  8  2  0  0  0  0
 11  7  2  0  0  0  0
 11 14  1  0  0  0  0
 12  2  1  0  0  0  0
 14  4  2  0  0  0  0
 15 20  1  6  0  0  0
 15  1  1  0  0  0  0
 15 21  1  0  0  0  0
 16 11  1  0  0  0  0
 18 14  1  0  0  0  0
 19  8  1  0  0  0  0
 19 20  1  0  0  0  0
 21 17  1  6  0  0  0
 21  3  1  0  0  0  0
 22 26  1  0  0  0  0
 23 12  1  0  0  0  0
 23 27  1  0  0  0  0
 24 23  2  0  0  0  0
 25 24  1  0  0  0  0
 25 22  2  0  0  0  0
 26 27  2  0  0  0  0
M  END
>  <MODEL>
9

>  <REMARK>
 VINA RESULT:      -6.7      3.447      6.579
  Name = 
  1 active torsions:
  status: ('A' for Active; 'I' for Inactive)
    1  A    between atoms: C_9  and  N_15
                            x       y       z     vdW  Elec       q    Type
                         _______ _______ _______ _____ _____    ______ ____

>  <TORSDO>
F 1

$$$$
