=
 OpenBabel10272413473D

 30 32  0  0  1  0  0  0  0  0999 V2000
  191.1850  177.1850  144.8810 C   0  0  0  0  0  0  0  0  0  0  0  0
  191.8590  176.6090  145.9610 C   0  0  0  0  0  3  0  0  0  0  0  0
  191.8990  177.5160  143.7350 O   0  0  0  0  0  1  0  0  0  0  0  0
  189.1000  177.0870  146.1440 C   0  0  0  0  0  0  0  0  0  0  0  0
  191.1660  176.2710  147.1230 C   0  0  0  0  0  3  0  0  0  0  0  0
  189.8000  177.4270  144.9600 C   0  0  0  0  0  0  0  0  0  0  0  0
  189.7950  176.5110  147.2130 C   0  0  0  0  0  3  0  0  0  0  0  0
  186.1610  178.9450  147.4650 C   0  0  0  0  0  3  0  0  0  0  0  0
  182.8870  179.4220  145.1200 O   0  0  0  0  0  0  0  0  0  0  0  0
  185.2880  178.9180  146.3280 N   0  0  0  0  0  0  0  0  0  0  0  0
  187.2970  178.2480  147.4790 C   0  0  0  0  0  0  0  0  0  0  0  0
  183.3800  178.8950  144.0880 C   0  0  0  0  0  0  0  0  0  0  0  0
  184.7020  178.3450  144.0940 N   0  0  0  0  0  2  0  0  0  0  0  0
  186.9800  177.7680  145.0060 C   0  0  0  0  0  2  0  0  0  0  0  0
  188.1130  178.2420  148.7260 C   0  0  0  0  0  1  0  0  0  0  0  0
  185.6060  178.3400  145.2060 C   0  0  0  0  0  0  0  0  0  0  0  0
  182.5740  178.8400  142.8420 C   0  0  0  0  0  1  0  0  0  0  0  0
  187.6230  177.3250  146.3250 C   0  0  1  0  0  3  0  0  0  0  0  0
  189.0870  178.0340  143.7900 C   0  0  0  0  0  2  0  0  0  0  0  0
  188.8910  177.0040  142.6940 C   0  0  0  0  0  2  0  0  0  0  0  0
  188.1040  177.6270  141.5570 C   0  0  0  0  0  2  0  0  0  0  0  0
  189.0270  178.0820  140.4310 C   0  0  2  0  0  3  0  0  0  0  0  0
  188.2570  178.5640  139.3740 O   0  0  0  0  0  1  0  0  0  0  0  0
  191.8000  176.6350  138.7730 C   0  0  0  0  0  2  0  0  0  0  0  0
  189.9470  176.9710  139.9200 C   0  0  1  0  0  3  0  0  0  0  0  0
  190.6340  176.0280  138.0470 C   0  0  2  0  0  0  0  0  0  0  0  0
  189.4820  176.4590  138.7000 O   0  0  0  0  0  0  0  0  0  0  0  0
  191.2730  177.4190  139.7960 O   0  0  0  0  0  0  0  0  0  0  0  0
  190.7150  174.6370  138.0940 O   0  0  0  0  0  1  0  0  0  0  0  0
  190.6150  176.4920  136.6050 C   0  0  0  0  0  1  0  0  0  0  0  0
  1  6  2  0  0  0  0
  1  2  1  0  0  0  0
  2  5  2  0  0  0  0
  3  1  1  0  0  0  0
  4  7  2  0  0  0  0
  5  7  1  0  0  0  0
  6  4  1  0  0  0  0
  8 11  2  0  0  0  0
 10  8  1  0  0  0  0
 11 15  1  0  0  0  0
 12 13  1  0  0  0  0
 12  9  2  0  0  0  0
 13 16  1  0  0  0  0
 14 16  1  0  0  0  0
 14 18  1  0  0  0  0
 16 10  2  0  0  0  0
 17 12  1  0  0  0  0
 18  4  1  6  0  0  0
 18 11  1  0  0  0  0
 19  6  1  0  0  0  0
 20 19  1  0  0  0  0
 21 20  1  0  0  0  0
 22 23  1  6  0  0  0
 22 21  1  0  0  0  0
 24 28  1  0  0  0  0
 25 22  1  6  0  0  0
 26 30  1  6  0  0  0
 26 29  1  0  0  0  0
 26 27  1  0  0  0  0
 26 24  1  0  0  0  0
 27 25  1  0  0  0  0
 28 25  1  0  0  0  0
M  END
>  <MODEL>
1

>  <REMARK>
 VINA RESULT:     -10.2      0.000      0.000
  Name = 
  6 active torsions:
  status: ('A' for Active; 'I' for Inactive)
    1  A    between atoms: C_1  and  C_4
    2  A    between atoms: C_1  and  C_5
    3  A    between atoms: C_4  and  C_27
    4  A    between atoms: C_5  and  C_22
    5  A    between atoms: C_8  and  C_27
    6  A    between atoms: C_19  and  C_29
                            x       y       z     vdW  Elec       q    Type
                         _______ _______ _______ _____ _____    ______ ____

>  <TORSDO>
F 6

$$$$
=
 OpenBabel10272413473D

 30 32  0  0  1  0  0  0  0  0999 V2000
  191.2010  177.2110  144.9730 C   0  0  0  0  0  0  0  0  0  0  0  0
  191.8560  176.6410  146.0680 C   0  0  0  0  0  3  0  0  0  0  0  0
  191.9360  177.5400  143.8400 O   0  0  0  0  0  1  0  0  0  0  0  0
  189.0920  177.1090  146.1940 C   0  0  0  0  0  0  0  0  0  0  0  0
  191.1410  176.3050  147.2180 C   0  0  0  0  0  3  0  0  0  0  0  0
  189.8140  177.4470  145.0230 C   0  0  0  0  0  0  0  0  0  0  0  0
  189.7670  176.5400  147.2790 C   0  0  0  0  0  3  0  0  0  0  0  0
  186.1210  178.9640  147.4470 C   0  0  0  0  0  3  0  0  0  0  0  0
  182.8910  179.4140  145.0360 O   0  0  0  0  0  0  0  0  0  0  0  0
  185.2690  178.9270  146.2930 N   0  0  0  0  0  0  0  0  0  0  0  0
  187.2580  178.2710  147.4870 C   0  0  0  0  0  0  0  0  0  0  0  0
  183.4060  178.8830  144.0170 C   0  0  0  0  0  0  0  0  0  0  0  0
  184.7290  178.3390  144.0520 N   0  0  0  0  0  2  0  0  0  0  0  0
  186.9910  177.7760  145.0110 C   0  0  0  0  0  2  0  0  0  0  0  0
  188.0500  178.2750  148.7500 C   0  0  0  0  0  1  0  0  0  0  0  0
  185.6120  178.3440  145.1810 C   0  0  0  0  0  0  0  0  0  0  0  0
  182.6240  178.8180  142.7550 C   0  0  0  0  0  1  0  0  0  0  0  0
  187.6100  177.3430  146.3450 C   0  0  1  0  0  3  0  0  0  0  0  0
  189.1220  178.0480  143.8370 C   0  0  0  0  0  2  0  0  0  0  0  0
  189.3770  177.2150  142.5950 C   0  0  0  0  0  2  0  0  0  0  0  0
  188.1490  177.2530  141.7070 C   0  0  0  0  0  2  0  0  0  0  0  0
  188.1820  178.4560  140.7690 C   0  0  2  0  0  3  0  0  0  0  0  0
  186.8880  178.7300  140.3300 O   0  0  0  0  0  1  0  0  0  0  0  0
  189.2060  178.5980  137.3830 C   0  0  0  0  0  2  0  0  0  0  0  0
  189.0940  178.2510  139.5580 C   0  0  1  0  0  3  0  0  0  0  0  0
  189.2180  177.1220  137.6650 C   0  0  2  0  0  0  0  0  0  0  0  0
  188.9270  176.9660  139.0190 O   0  0  0  0  0  0  0  0  0  0  0  0
  188.8750  179.2320  138.5780 O   0  0  0  0  0  0  0  0  0  0  0  0
  190.4780  176.5940  137.3860 O   0  0  0  0  0  1  0  0  0  0  0  0
  188.1700  176.4190  136.8270 C   0  0  0  0  0  1  0  0  0  0  0  0
  1  6  2  0  0  0  0
  1  2  1  0  0  0  0
  2  5  2  0  0  0  0
  3  1  1  0  0  0  0
  4  7  2  0  0  0  0
  5  7  1  0  0  0  0
  6  4  1  0  0  0  0
  8 11  2  0  0  0  0
 10  8  1  0  0  0  0
 11 15  1  0  0  0  0
 12 13  1  0  0  0  0
 12  9  2  0  0  0  0
 13 16  1  0  0  0  0
 14 16  1  0  0  0  0
 14 18  1  0  0  0  0
 16 10  2  0  0  0  0
 17 12  1  0  0  0  0
 18  4  1  6  0  0  0
 18 11  1  0  0  0  0
 19  6  1  0  0  0  0
 20 19  1  0  0  0  0
 21 20  1  0  0  0  0
 22 23  1  6  0  0  0
 22 21  1  0  0  0  0
 24 26  1  0  0  0  0
 24 28  1  0  0  0  0
 25 22  1  1  0  0  0
 26 30  1  6  0  0  0
 26 27  1  0  0  0  0
 27 25  1  0  0  0  0
 28 25  1  0  0  0  0
 29 26  1  0  0  0  0
M  END
>  <MODEL>
2

>  <REMARK>
 VINA RESULT:     -10.1      1.027      1.215
  Name = 
  6 active torsions:
  status: ('A' for Active; 'I' for Inactive)
    1  A    between atoms: C_1  and  C_4
    2  A    between atoms: C_1  and  C_5
    3  A    between atoms: C_4  and  C_27
    4  A    between atoms: C_5  and  C_22
    5  A    between atoms: C_8  and  C_27
    6  A    between atoms: C_19  and  C_29
                            x       y       z     vdW  Elec       q    Type
                         _______ _______ _______ _____ _____    ______ ____

>  <TORSDO>
F 6

$$$$
=
 OpenBabel10272413473D

 30 32  0  0  1  0  0  0  0  0999 V2000
  189.5910  177.3840  145.1780 C   0  0  0  0  0  0  0  0  0  0  0  0
  190.8520  177.9610  145.3550 C   0  0  0  0  0  3  0  0  0  0  0  0
  188.8070  177.1170  146.2940 O   0  0  0  0  0  1  0  0  0  0  0  0
  189.9530  177.3550  142.7660 C   0  0  0  0  0  0  0  0  0  0  0  0
  191.6590  178.2360  144.2510 C   0  0  0  0  0  3  0  0  0  0  0  0
  189.1280  177.0790  143.8850 C   0  0  0  0  0  0  0  0  0  0  0  0
  191.2120  177.9330  142.9660 C   0  0  0  0  0  3  0  0  0  0  0  0
  189.0510  178.2860  139.2800 C   0  0  0  0  0  3  0  0  0  0  0  0
  190.3980  176.0170  136.2000 O   0  0  0  0  0  0  0  0  0  0  0  0
  189.7550  177.2800  138.5380 N   0  0  0  0  0  0  0  0  0  0  0  0
  188.9760  178.2360  140.6100 C   0  0  0  0  0  0  0  0  0  0  0  0
  191.1110  175.2490  136.8980 C   0  0  0  0  0  0  0  0  0  0  0  0
  191.1650  175.3760  138.3230 N   0  0  0  0  0  2  0  0  0  0  0  0
  190.6990  176.3710  140.5910 C   0  0  0  0  0  2  0  0  0  0  0  0
  188.1490  179.2570  141.3150 C   0  0  0  0  0  1  0  0  0  0  0  0
  190.4730  176.3550  139.1070 C   0  0  0  0  0  0  0  0  0  0  0  0
  191.9090  174.1880  136.2300 C   0  0  0  0  0  1  0  0  0  0  0  0
  189.5490  177.0460  141.3480 C   0  0  1  0  0  3  0  0  0  0  0  0
  187.7690  176.4720  143.7090 C   0  0  0  0  0  2  0  0  0  0  0  0
  186.6890  177.4730  144.0710 C   0  0  0  0  0  2  0  0  0  0  0  0
  185.7120  177.5940  142.9180 C   0  0  0  0  0  2  0  0  0  0  0  0
  184.8150  178.8170  143.0810 C   0  0  2  0  0  3  0  0  0  0  0  0
  183.8480  178.5510  144.0490 O   0  0  0  0  0  1  0  0  0  0  0  0
  183.2110  178.4120  139.9510 C   0  0  0  0  0  2  0  0  0  0  0  0
  184.1260  179.2360  141.7800 C   0  0  1  0  0  3  0  0  0  0  0  0
  184.4220  179.2260  139.5930 C   0  0  2  0  0  0  0  0  0  0  0  0
  185.0720  179.5310  140.7860 O   0  0  0  0  0  0  0  0  0  0  0  0
  183.2290  178.2510  141.3340 O   0  0  0  0  0  0  0  0  0  0  0  0
  184.0330  180.4010  138.9500 O   0  0  0  0  0  1  0  0  0  0  0  0
  185.3420  178.4290  138.6920 C   0  0  0  0  0  1  0  0  0  0  0  0
  1  2  1  0  0  0  0
  1  3  1  0  0  0  0
  4  7  2  0  0  0  0
  4  6  1  0  0  0  0
  5  2  2  0  0  0  0
  6  1  2  0  0  0  0
  7  5  1  0  0  0  0
  8 11  2  0  0  0  0
  9 12  2  0  0  0  0
 10 16  2  0  0  0  0
 10  8  1  0  0  0  0
 11 15  1  0  0  0  0
 11 18  1  0  0  0  0
 12 13  1  0  0  0  0
 13 16  1  0  0  0  0
 14 18  1  0  0  0  0
 16 14  1  0  0  0  0
 17 12  1  0  0  0  0
 18  4  1  1  0  0  0
 19  6  1  0  0  0  0
 19 20  1  0  0  0  0
 21 22  1  0  0  0  0
 21 20  1  0  0  0  0
 22 23  1  1  0  0  0
 24 28  1  0  0  0  0
 25 22  1  1  0  0  0
 26 30  1  6  0  0  0
 26 24  1  0  0  0  0
 26 27  1  0  0  0  0
 27 25  1  0  0  0  0
 28 25  1  0  0  0  0
 29 26  1  0  0  0  0
M  END
>  <MODEL>
3

>  <REMARK>
 VINA RESULT:      -9.8      3.158      6.942
  Name = 
  6 active torsions:
  status: ('A' for Active; 'I' for Inactive)
    1  A    between atoms: C_1  and  C_4
    2  A    between atoms: C_1  and  C_5
    3  A    between atoms: C_4  and  C_27
    4  A    between atoms: C_5  and  C_22
    5  A    between atoms: C_8  and  C_27
    6  A    between atoms: C_19  and  C_29
                            x       y       z     vdW  Elec       q    Type
                         _______ _______ _______ _____ _____    ______ ____

>  <TORSDO>
F 6

$$$$
=
 OpenBabel10272413473D

 30 32  0  0  1  0  0  0  0  0999 V2000
  187.7320  177.7140  146.3620 C   0  0  0  0  0  0  0  0  0  0  0  0
  187.1610  178.6140  147.2650 C   0  0  0  0  0  3  0  0  0  0  0  0
  188.9080  177.0610  146.7100 O   0  0  0  0  0  1  0  0  0  0  0  0
  185.9250  178.1640  144.7860 C   0  0  0  0  0  0  0  0  0  0  0  0
  185.9820  179.2850  146.9380 C   0  0  0  0  0  3  0  0  0  0  0  0
  187.1200  177.4770  145.1170 C   0  0  0  0  0  0  0  0  0  0  0  0
  185.3710  179.0620  145.7050 C   0  0  0  0  0  3  0  0  0  0  0  0
  183.3380  179.0270  142.2570 C   0  0  0  0  0  3  0  0  0  0  0  0
  184.2870  178.9120  138.3160 O   0  0  0  0  0  0  0  0  0  0  0  0
  184.0930  178.9090  141.0430 N   0  0  0  0  0  0  0  0  0  0  0  0
  183.8520  178.6510  143.4280 C   0  0  0  0  0  0  0  0  0  0  0  0
  185.5100  178.6570  138.4780 C   0  0  0  0  0  0  0  0  0  0  0  0
  186.0640  178.4720  139.7840 N   0  0  0  0  0  2  0  0  0  0  0  0
  186.1140  178.4020  142.3040 C   0  0  0  0  0  2  0  0  0  0  0  0
  182.9830  178.7100  144.6380 C   0  0  0  0  0  1  0  0  0  0  0  0
  185.3490  178.5710  141.0220 C   0  0  0  0  0  0  0  0  0  0  0  0
  186.3940  178.5430  137.2890 C   0  0  0  0  0  1  0  0  0  0  0  0
  185.2110  177.9880  143.4710 C   0  0  1  0  0  3  0  0  0  0  0  0
  187.7370  176.5000  144.1620 C   0  0  0  0  0  2  0  0  0  0  0  0
  188.9950  177.0810  143.5470 C   0  0  0  0  0  2  0  0  0  0  0  0
  189.2090  176.4690  142.1760 C   0  0  0  0  0  2  0  0  0  0  0  0
  190.6610  176.6110  141.7290 C   0  0  2  0  0  3  0  0  0  0  0  0
  191.3190  177.4940  142.5820 O   0  0  0  0  0  1  0  0  0  0  0  0
  189.6370  177.9330  138.6090 C   0  0  0  0  0  2  0  0  0  0  0  0
  190.8010  177.1020  140.2870 C   0  0  1  0  0  3  0  0  0  0  0  0
  190.1960  176.5920  138.2260 C   0  0  2  0  0  0  0  0  0  0  0  0
  190.7260  176.0290  139.3840 O   0  0  0  0  0  0  0  0  0  0  0  0
  189.8370  178.0760  139.9790 O   0  0  0  0  0  0  0  0  0  0  0  0
  191.2000  176.7490  137.2710 O   0  0  0  0  0  1  0  0  0  0  0  0
  189.0990  175.7040  137.6760 C   0  0  0  0  0  1  0  0  0  0  0  0
  1  3  1  0  0  0  0
  1  2  1  0  0  0  0
  4  6  1  0  0  0  0
  4  7  2  0  0  0  0
  5  2  2  0  0  0  0
  6  1  2  0  0  0  0
  7  5  1  0  0  0  0
  8 11  2  0  0  0  0
  9 12  2  0  0  0  0
 10  8  1  0  0  0  0
 11 18  1  0  0  0  0
 11 15  1  0  0  0  0
 12 13  1  0  0  0  0
 13 16  1  0  0  0  0
 14 18  1  0  0  0  0
 16 10  2  0  0  0  0
 16 14  1  0  0  0  0
 17 12  1  0  0  0  0
 18  4  1  1  0  0  0
 19  6  1  0  0  0  0
 20 19  1  0  0  0  0
 21 20  1  0  0  0  0
 22 21  1  0  0  0  0
 22 23  1  1  0  0  0
 24 28  1  0  0  0  0
 25 22  1  1  0  0  0
 26 30  1  6  0  0  0
 26 24  1  0  0  0  0
 26 27  1  0  0  0  0
 27 25  1  0  0  0  0
 28 25  1  0  0  0  0
 29 26  1  0  0  0  0
M  END
>  <MODEL>
4

>  <REMARK>
 VINA RESULT:      -9.7      2.343      4.200
  Name = 
  6 active torsions:
  status: ('A' for Active; 'I' for Inactive)
    1  A    between atoms: C_1  and  C_4
    2  A    between atoms: C_1  and  C_5
    3  A    between atoms: C_4  and  C_27
    4  A    between atoms: C_5  and  C_22
    5  A    between atoms: C_8  and  C_27
    6  A    between atoms: C_19  and  C_29
                            x       y       z     vdW  Elec       q    Type
                         _______ _______ _______ _____ _____    ______ ____

>  <TORSDO>
F 6

$$$$
=
 OpenBabel10272413473D

 30 32  0  0  1  0  0  0  0  0999 V2000
  189.8740  177.1510  146.2750 C   0  0  0  0  0  0  0  0  0  0  0  0
  189.6340  177.5970  147.5770 C   0  0  0  0  0  3  0  0  0  0  0  0
  191.1520  176.7310  145.9270 O   0  0  0  0  0  1  0  0  0  0  0  0
  187.5380  177.5730  145.7100 C   0  0  0  0  0  0  0  0  0  0  0  0
  188.3600  178.0260  147.9490 C   0  0  0  0  0  3  0  0  0  0  0  0
  188.8300  177.1310  145.3300 C   0  0  0  0  0  0  0  0  0  0  0  0
  187.3200  178.0150  147.0200 C   0  0  0  0  0  3  0  0  0  0  0  0
  184.3050  178.9140  144.4530 C   0  0  0  0  0  3  0  0  0  0  0  0
  183.6810  179.1850  140.4550 O   0  0  0  0  0  0  0  0  0  0  0  0
  184.5280  178.8810  143.0360 N   0  0  0  0  0  0  0  0  0  0  0  0
  185.1750  178.3680  145.3010 C   0  0  0  0  0  0  0  0  0  0  0  0
  184.8360  178.8230  140.1110 C   0  0  0  0  0  0  0  0  0  0  0  0
  185.8170  178.4470  141.0840 N   0  0  0  0  0  2  0  0  0  0  0  0
  186.8040  178.0820  143.3740 C   0  0  0  0  0  2  0  0  0  0  0  0
  184.8390  178.3500  146.7530 C   0  0  0  0  0  1  0  0  0  0  0  0
  185.6380  178.4550  142.5050 C   0  0  0  0  0  0  0  0  0  0  0  0
  185.1890  178.7810  138.6680 C   0  0  0  0  0  1  0  0  0  0  0  0
  186.3660  177.6040  144.7630 C   0  0  1  0  0  3  0  0  0  0  0  0
  189.0980  176.6390  143.9400 C   0  0  0  0  0  2  0  0  0  0  0  0
  190.1660  177.4850  143.2740 C   0  0  0  0  0  2  0  0  0  0  0  0
  189.8110  177.6790  141.8130 C   0  0  0  0  0  2  0  0  0  0  0  0
  190.7710  176.9180  140.9050 C   0  0  2  0  0  3  0  0  0  0  0  0
  191.9300  177.6730  140.7280 O   0  0  0  0  0  1  0  0  0  0  0  0
  190.4360  176.9630  137.3810 C   0  0  0  0  0  2  0  0  0  0  0  0
  190.1710  176.5850  139.5370 C   0  0  1  0  0  3  0  0  0  0  0  0
  189.1220  177.5280  137.8400 C   0  0  2  0  0  0  0  0  0  0  0  0
  189.1140  177.4550  139.2310 O   0  0  0  0  0  0  0  0  0  0  0  0
  191.1470  176.6160  138.5270 O   0  0  0  0  0  0  0  0  0  0  0  0
  188.0710  176.7760  137.3180 O   0  0  0  0  0  1  0  0  0  0  0  0
  188.9890  178.9710  137.3980 C   0  0  0  0  0  1  0  0  0  0  0  0
  1  2  1  0  0  0  0
  2  5  2  0  0  0  0
  3  1  1  0  0  0  0
  4  7  2  0  0  0  0
  6  4  1  0  0  0  0
  6  1  2  0  0  0  0
  7  5  1  0  0  0  0
  8 11  2  0  0  0  0
 10  8  1  0  0  0  0
 11 15  1  0  0  0  0
 12  9  2  0  0  0  0
 12 13  1  0  0  0  0
 13 16  1  0  0  0  0
 14 18  1  0  0  0  0
 16 10  2  0  0  0  0
 16 14  1  0  0  0  0
 17 12  1  0  0  0  0
 18 11  1  0  0  0  0
 18  4  1  1  0  0  0
 19  6  1  0  0  0  0
 20 19  1  0  0  0  0
 21 20  1  0  0  0  0
 22 23  1  6  0  0  0
 22 21  1  0  0  0  0
 24 26  1  0  0  0  0
 24 28  1  0  0  0  0
 25 22  1  1  0  0  0
 26 30  1  6  0  0  0
 26 27  1  0  0  0  0
 27 25  1  0  0  0  0
 28 25  1  0  0  0  0
 29 26  1  0  0  0  0
M  END
>  <MODEL>
5

>  <REMARK>
 VINA RESULT:      -9.7      2.007      2.836
  Name = 
  6 active torsions:
  status: ('A' for Active; 'I' for Inactive)
    1  A    between atoms: C_1  and  C_4
    2  A    between atoms: C_1  and  C_5
    3  A    between atoms: C_4  and  C_27
    4  A    between atoms: C_5  and  C_22
    5  A    between atoms: C_8  and  C_27
    6  A    between atoms: C_19  and  C_29
                            x       y       z     vdW  Elec       q    Type
                         _______ _______ _______ _____ _____    ______ ____

>  <TORSDO>
F 6

$$$$
=
 OpenBabel10272413473D

 30 32  0  0  1  0  0  0  0  0999 V2000
  186.7470  177.9040  147.0090 C   0  0  0  0  0  0  0  0  0  0  0  0
  187.4810  178.0380  148.1910 C   0  0  0  0  0  3  0  0  0  0  0  0
  185.3590  177.8570  147.0750 O   0  0  0  0  0  1  0  0  0  0  0  0
  188.8270  177.8580  145.7350 C   0  0  0  0  0  0  0  0  0  0  0  0
  188.8740  178.0840  148.1520 C   0  0  0  0  0  3  0  0  0  0  0  0
  187.4110  177.8160  145.7710 C   0  0  0  0  0  0  0  0  0  0  0  0
  189.5410  177.9920  146.9300 C   0  0  0  0  0  3  0  0  0  0  0  0
  191.1800  176.1640  143.4060 C   0  0  0  0  0  3  0  0  0  0  0  0
  190.4870  176.3170  139.4130 O   0  0  0  0  0  0  0  0  0  0  0  0
  190.5470  176.4200  142.1440 N   0  0  0  0  0  0  0  0  0  0  0  0
  190.7400  176.7340  144.5270 C   0  0  0  0  0  0  0  0  0  0  0  0
  189.3800  176.9120  139.4890 C   0  0  0  0  0  0  0  0  0  0  0  0
  188.8400  177.3180  140.7510 N   0  0  0  0  0  2  0  0  0  0  0  0
  188.6940  177.5420  143.2580 C   0  0  0  0  0  2  0  0  0  0  0  0
  191.4990  176.5040  145.7890 C   0  0  0  0  0  1  0  0  0  0  0  0
  189.4390  177.0940  142.0330 C   0  0  0  0  0  0  0  0  0  0  0  0
  188.6210  177.2010  138.2450 C   0  0  0  0  0  1  0  0  0  0  0  0
  189.6220  177.7520  144.4590 C   0  0  1  0  0  3  0  0  0  0  0  0
  186.6110  177.6840  144.5100 C   0  0  0  0  0  2  0  0  0  0  0  0
  185.5760  178.7890  144.4200 C   0  0  0  0  0  2  0  0  0  0  0  0
  184.6550  178.5160  143.2470 C   0  0  0  0  0  2  0  0  0  0  0  0
  185.3950  178.6510  141.9200 C   0  0  2  0  0  3  0  0  0  0  0  0
  185.9830  179.9130  141.8500 O   0  0  0  0  0  1  0  0  0  0  0  0
  183.1630  179.5310  139.3170 C   0  0  0  0  0  2  0  0  0  0  0  0
  184.4920  178.4460  140.7020 C   0  0  1  0  0  3  0  0  0  0  0  0
  182.3700  178.5230  140.0980 C   0  0  2  0  0  0  0  0  0  0  0  0
  183.2100  178.0320  141.0960 O   0  0  0  0  0  0  0  0  0  0  0  0
  184.4180  179.6070  139.9160 O   0  0  0  0  0  0  0  0  0  0  0  0
  181.9670  177.4820  139.2620 O   0  0  0  0  0  1  0  0  0  0  0  0
  181.1560  179.1790  140.7220 C   0  0  0  0  0  1  0  0  0  0  0  0
  1  3  1  0  0  0  0
  1  2  1  0  0  0  0
  4  6  1  0  0  0  0
  4  7  2  0  0  0  0
  5  2  2  0  0  0  0
  6  1  2  0  0  0  0
  7  5  1  0  0  0  0
  8 11  2  0  0  0  0
  9 12  2  0  0  0  0
 10  8  1  0  0  0  0
 11 15  1  0  0  0  0
 12 13  1  0  0  0  0
 13 16  1  0  0  0  0
 14 18  1  0  0  0  0
 16 10  2  0  0  0  0
 16 14  1  0  0  0  0
 17 12  1  0  0  0  0
 18 11  1  0  0  0  0
 18  4  1  1  0  0  0
 19  6  1  0  0  0  0
 20 19  1  0  0  0  0
 21 20  1  0  0  0  0
 22 23  1  6  0  0  0
 22 21  1  0  0  0  0
 24 28  1  0  0  0  0
 24 26  1  0  0  0  0
 25 27  1  0  0  0  0
 25 22  1  1  0  0  0
 26 30  1  1  0  0  0
 26 27  1  0  0  0  0
 28 25  1  0  0  0  0
 29 26  1  0  0  0  0
M  END
>  <MODEL>
6

>  <REMARK>
 VINA RESULT:      -9.4      2.802      6.120
  Name = 
  6 active torsions:
  status: ('A' for Active; 'I' for Inactive)
    1  A    between atoms: C_1  and  C_4
    2  A    between atoms: C_1  and  C_5
    3  A    between atoms: C_4  and  C_27
    4  A    between atoms: C_5  and  C_22
    5  A    between atoms: C_8  and  C_27
    6  A    between atoms: C_19  and  C_29
                            x       y       z     vdW  Elec       q    Type
                         _______ _______ _______ _____ _____    ______ ____

>  <TORSDO>
F 6

$$$$
=
 OpenBabel10272413473D

 30 32  0  0  1  0  0  0  0  0999 V2000
  187.6940  177.5610  146.6630 C   0  0  0  0  0  0  0  0  0  0  0  0
  188.5830  176.8740  147.4930 C   0  0  0  0  0  3  0  0  0  0  0  0
  186.4290  177.8790  147.1420 O   0  0  0  0  0  1  0  0  0  0  0  0
  189.3740  177.5780  144.8940 C   0  0  0  0  0  0  0  0  0  0  0  0
  189.8580  176.5400  147.0340 C   0  0  0  0  0  3  0  0  0  0  0  0
  188.0800  177.9230  145.3580 C   0  0  0  0  0  0  0  0  0  0  0  0
  190.2480  176.8900  145.7420 C   0  0  0  0  0  3  0  0  0  0  0  0
  192.0220  178.2920  142.3810 C   0  0  0  0  0  3  0  0  0  0  0  0
  191.6650  176.7900  138.6300 O   0  0  0  0  0  0  0  0  0  0  0  0
  191.5330  177.5520  141.2530 N   0  0  0  0  0  0  0  0  0  0  0  0
  191.2840  178.4370  143.4810 C   0  0  0  0  0  0  0  0  0  0  0  0
  190.6240  176.1170  138.8510 C   0  0  0  0  0  0  0  0  0  0  0  0
  189.9830  176.1380  140.1310 N   0  0  0  0  0  2  0  0  0  0  0  0
  189.6540  176.7210  142.5610 C   0  0  0  0  0  2  0  0  0  0  0  0
  191.8080  179.2970  144.5810 C   0  0  0  0  0  1  0  0  0  0  0  0
  190.4260  176.8680  141.2820 C   0  0  0  0  0  0  0  0  0  0  0  0
  190.0470  175.2870  137.7620 C   0  0  0  0  0  1  0  0  0  0  0  0
  189.8670  177.9080  143.5080 C   0  0  1  0  0  3  0  0  0  0  0  0
  187.1210  178.6710  144.4820 C   0  0  0  0  0  2  0  0  0  0  0  0
  186.2530  177.7050  143.6990 C   0  0  0  0  0  2  0  0  0  0  0  0
  186.2160  178.1310  142.2450 C   0  0  0  0  0  2  0  0  0  0  0  0
  185.0220  179.0380  141.9650 C   0  0  2  0  0  3  0  0  0  0  0  0
  184.0680  178.8610  142.9650 O   0  0  0  0  0  1  0  0  0  0  0  0
  183.4160  179.8150  138.9070 C   0  0  0  0  0  2  0  0  0  0  0  0
  184.3780  178.7810  140.6010 C   0  0  1  0  0  3  0  0  0  0  0  0
  182.4310  178.8920  139.5670 C   0  0  2  0  0  0  0  0  0  0  0  0
  183.0240  178.4420  140.7440 O   0  0  0  0  0  0  0  0  0  0  0  0
  184.5240  179.8870  139.7480 O   0  0  0  0  0  0  0  0  0  0  0  0
  182.1570  177.8110  138.7300 O   0  0  0  0  0  1  0  0  0  0  0  0
  181.1490  179.6330  139.8840 C   0  0  0  0  0  1  0  0  0  0  0  0
  1  3  1  0  0  0  0
  1  2  1  0  0  0  0
  4  6  1  0  0  0  0
  4  7  2  0  0  0  0
  5  2  2  0  0  0  0
  6  1  2  0  0  0  0
  7  5  1  0  0  0  0
  8 11  2  0  0  0  0
  9 12  2  0  0  0  0
 10 16  2  0  0  0  0
 10  8  1  0  0  0  0
 11 18  1  0  0  0  0
 11 15  1  0  0  0  0
 12 13  1  0  0  0  0
 13 16  1  0  0  0  0
 14 18  1  0  0  0  0
 16 14  1  0  0  0  0
 17 12  1  0  0  0  0
 18  4  1  1  0  0  0
 19  6  1  0  0  0  0
 20 19  1  0  0  0  0
 21 20  1  0  0  0  0
 22 21  1  0  0  0  0
 22 23  1  1  0  0  0
 24 26  1  0  0  0  0
 24 28  1  0  0  0  0
 25 27  1  0  0  0  0
 25 22  1  1  0  0  0
 26 30  1  1  0  0  0
 26 27  1  0  0  0  0
 28 25  1  0  0  0  0
 29 26  1  0  0  0  0
M  END
>  <MODEL>
7

>  <REMARK>
 VINA RESULT:      -9.4      3.128      6.459
  Name = 
  6 active torsions:
  status: ('A' for Active; 'I' for Inactive)
    1  A    between atoms: C_1  and  C_4
    2  A    between atoms: C_1  and  C_5
    3  A    between atoms: C_4  and  C_27
    4  A    between atoms: C_5  and  C_22
    5  A    between atoms: C_8  and  C_27
    6  A    between atoms: C_19  and  C_29
                            x       y       z     vdW  Elec       q    Type
                         _______ _______ _______ _____ _____    ______ ____

>  <TORSDO>
F 6

$$$$
=
 OpenBabel10272413473D

 30 32  0  0  1  0  0  0  0  0999 V2000
  185.3310  178.5190  140.0290 C   0  0  0  0  0  0  0  0  0  0  0  0
  183.9720  178.2000  139.9890 C   0  0  0  0  0  3  0  0  0  0  0  0
  186.0330  178.6430  138.8360 O   0  0  0  0  0  1  0  0  0  0  0  0
  185.2380  178.5690  142.4660 C   0  0  0  0  0  0  0  0  0  0  0  0
  183.2460  178.0670  141.1730 C   0  0  0  0  0  3  0  0  0  0  0  0
  185.9770  178.7100  141.2660 C   0  0  0  0  0  0  0  0  0  0  0  0
  183.8770  178.2490  142.4030 C   0  0  0  0  0  3  0  0  0  0  0  0
  185.2090  178.3440  146.1790 C   0  0  0  0  0  3  0  0  0  0  0  0
  188.5690  177.1840  148.1310 O   0  0  0  0  0  0  0  0  0  0  0  0
  186.5370  177.8650  146.4340 N   0  0  0  0  0  0  0  0  0  0  0  0
  184.8330  178.7150  144.9560 C   0  0  0  0  0  0  0  0  0  0  0  0
  189.2450  176.9290  147.0990 C   0  0  0  0  0  0  0  0  0  0  0  0
  188.7110  177.1450  145.7890 N   0  0  0  0  0  2  0  0  0  0  0  0
  186.9910  177.7370  144.0440 C   0  0  0  0  0  2  0  0  0  0  0  0
  183.4710  179.2940  144.7750 C   0  0  0  0  0  1  0  0  0  0  0  0
  187.3970  177.6300  145.4860 C   0  0  0  0  0  0  0  0  0  0  0  0
  190.6250  176.3980  147.2450 C   0  0  0  0  0  1  0  0  0  0  0  0
  185.8480  178.7370  143.8340 C   0  0  1  0  0  3  0  0  0  0  0  0
  187.4330  179.0640  141.2940 C   0  0  0  0  0  2  0  0  0  0  0  0
  188.2850  177.8190  141.1410 C   0  0  0  0  0  2  0  0  0  0  0  0
  189.2970  178.0390  140.0330 C   0  0  0  0  0  2  0  0  0  0  0  0
  190.3960  176.9820  140.0710 C   0  0  2  0  0  3  0  0  0  0  0  0
  191.4510  177.4460  140.8540 O   0  0  0  0  0  1  0  0  0  0  0  0
  190.2640  176.2600  136.6070 C   0  0  0  0  0  2  0  0  0  0  0  0
  190.9220  176.6100  138.6830 C   0  0  1  0  0  3  0  0  0  0  0  0
  190.8310  174.9940  137.1820 C   0  0  2  0  0  0  0  0  0  0  0  0
  191.0220  175.2170  138.5440 O   0  0  0  0  0  0  0  0  0  0  0  0
  190.1180  177.1520  137.6670 O   0  0  0  0  0  0  0  0  0  0  0  0
  192.0510  174.6990  136.5740 O   0  0  0  0  0  1  0  0  0  0  0  0
  189.8650  173.8450  136.9770 C   0  0  0  0  0  1  0  0  0  0  0  0
  1  6  1  0  0  0  0
  2  1  2  0  0  0  0
  2  5  1  0  0  0  0
  3  1  1  0  0  0  0
  5  7  2  0  0  0  0
  6 19  1  0  0  0  0
  6  4  2  0  0  0  0
  7  4  1  0  0  0  0
  8 10  1  0  0  0  0
 11  8  2  0  0  0  0
 12 17  1  0  0  0  0
 12  9  2  0  0  0  0
 13 12  1  0  0  0  0
 14 16  1  0  0  0  0
 15 11  1  0  0  0  0
 16 13  1  0  0  0  0
 16 10  2  0  0  0  0
 18  4  1  6  0  0  0
 18 14  1  0  0  0  0
 18 11  1  0  0  0  0
 20 19  1  0  0  0  0
 21 22  1  0  0  0  0
 21 20  1  0  0  0  0
 22 23  1  1  0  0  0
 24 26  1  0  0  0  0
 24 28  1  0  0  0  0
 25 22  1  1  0  0  0
 26 30  1  6  0  0  0
 26 27  1  0  0  0  0
 27 25  1  0  0  0  0
 28 25  1  0  0  0  0
 29 26  1  0  0  0  0
M  END
>  <MODEL>
8

>  <REMARK>
 VINA RESULT:      -9.3      2.005      5.122
  Name = 
  6 active torsions:
  status: ('A' for Active; 'I' for Inactive)
    1  A    between atoms: C_1  and  C_4
    2  A    between atoms: C_1  and  C_5
    3  A    between atoms: C_4  and  C_27
    4  A    between atoms: C_5  and  C_22
    5  A    between atoms: C_8  and  C_27
    6  A    between atoms: C_19  and  C_29
                            x       y       z     vdW  Elec       q    Type
                         _______ _______ _______ _____ _____    ______ ____

>  <TORSDO>
F 6

$$$$
=
 OpenBabel10272413473D

 30 32  0  0  1  0  0  0  0  0999 V2000
  187.6410  177.6220  146.9050 C   0  0  0  0  0  0  0  0  0  0  0  0
  188.5940  176.9130  147.6410 C   0  0  0  0  0  3  0  0  0  0  0  0
  186.4150  177.9160  147.4880 O   0  0  0  0  0  1  0  0  0  0  0  0
  189.1820  177.7110  145.0150 C   0  0  0  0  0  0  0  0  0  0  0  0
  189.8310  176.6040  147.0760 C   0  0  0  0  0  3  0  0  0  0  0  0
  187.9260  178.0310  145.5880 C   0  0  0  0  0  0  0  0  0  0  0  0
  190.1210  177.0000  145.7710 C   0  0  0  0  0  3  0  0  0  0  0  0
  191.5650  177.9890  142.1720 C   0  0  0  0  0  3  0  0  0  0  0  0
  190.2600  177.2620  138.4020 O   0  0  0  0  0  0  0  0  0  0  0  0
  190.7230  177.6110  141.0740 N   0  0  0  0  0  0  0  0  0  0  0  0
  191.0630  178.1730  143.3940 C   0  0  0  0  0  0  0  0  0  0  0  0
  189.0980  176.9030  138.7260 C   0  0  0  0  0  0  0  0  0  0  0  0
  188.6710  176.9130  140.0930 N   0  0  0  0  0  2  0  0  0  0  0  0
  188.8670  177.1820  142.5910 C   0  0  0  0  0  2  0  0  0  0  0  0
  191.9720  178.6580  144.4710 C   0  0  0  0  0  1  0  0  0  0  0  0
  189.4700  177.2910  141.2200 C   0  0  0  0  0  0  0  0  0  0  0  0
  188.1500  176.4610  137.6710 C   0  0  0  0  0  1  0  0  0  0  0  0
  189.5680  178.0900  143.6090 C   0  0  1  0  0  3  0  0  0  0  0  0
  186.9000  178.8020  144.8130 C   0  0  0  0  0  2  0  0  0  0  0  0
  185.7940  177.8810  144.3350 C   0  0  0  0  0  2  0  0  0  0  0  0
  184.4520  178.4640  144.7320 C   0  0  0  0  0  2  0  0  0  0  0  0
  183.7980  179.1930  143.5630 C   0  0  2  0  0  3  0  0  0  0  0  0
  182.4130  179.1630  143.7210 O   0  0  0  0  0  1  0  0  0  0  0  0
  184.8560  179.1630  140.1850 C   0  0  0  0  0  2  0  0  0  0  0  0
  184.1650  178.6000  142.2020 C   0  0  1  0  0  3  0  0  0  0  0  0
  183.4860  178.5530  140.1020 C   0  0  2  0  0  0  0  0  0  0  0  0
  183.0210  178.4240  141.4080 O   0  0  0  0  0  0  0  0  0  0  0  0
  185.1130  179.3920  141.5340 O   0  0  0  0  0  0  0  0  0  0  0  0
  183.5580  177.2990  139.4970 O   0  0  0  0  0  1  0  0  0  0  0  0
  182.5590  179.4520  139.3100 C   0  0  0  0  0  1  0  0  0  0  0  0
  1  3  1  0  0  0  0
  1  2  1  0  0  0  0
  4  6  1  0  0  0  0
  4  7  2  0  0  0  0
  5  2  2  0  0  0  0
  6  1  2  0  0  0  0
  7  5  1  0  0  0  0
  8 11  2  0  0  0  0
  9 12  2  0  0  0  0
 10 16  2  0  0  0  0
 10  8  1  0  0  0  0
 11 18  1  0  0  0  0
 11 15  1  0  0  0  0
 12 13  1  0  0  0  0
 13 16  1  0  0  0  0
 14 18  1  0  0  0  0
 16 14  1  0  0  0  0
 17 12  1  0  0  0  0
 18  4  1  1  0  0  0
 19  6  1  0  0  0  0
 20 21  1  0  0  0  0
 20 19  1  0  0  0  0
 22 23  1  1  0  0  0
 22 21  1  0  0  0  0
 24 28  1  0  0  0  0
 25 22  1  1  0  0  0
 26 30  1  6  0  0  0
 26 24  1  0  0  0  0
 26 27  1  0  0  0  0
 27 25  1  0  0  0  0
 28 25  1  0  0  0  0
 29 26  1  0  0  0  0
M  END
>  <MODEL>
9

>  <REMARK>
 VINA RESULT:      -9.3      2.755      6.111
  Name = 
  6 active torsions:
  status: ('A' for Active; 'I' for Inactive)
    1  A    between atoms: C_1  and  C_4
    2  A    between atoms: C_1  and  C_5
    3  A    between atoms: C_4  and  C_27
    4  A    between atoms: C_5  and  C_22
    5  A    between atoms: C_8  and  C_27
    6  A    between atoms: C_19  and  C_29
                            x       y       z     vdW  Elec       q    Type
                         _______ _______ _______ _____ _____    ______ ____

>  <TORSDO>
F 6

$$$$
