=
 OpenBabel10272401113D

 27 30  0  0  1  0  0  0  0  0999 V2000
  186.2680  178.9310  144.6020 C   0  0  0  0  0  2  0  0  0  0  0  0
  186.9950  177.6210  142.5660 N   0  0  0  0  0  0  0  0  0  0  0  0
  189.0570  177.9900  144.1000 C   0  0  0  0  0  2  0  0  0  0  0  0
  188.8050  175.8890  142.5150 C   0  0  1  0  0  3  0  0  0  0  0  0
  189.3830  178.1440  147.8520 C   0  0  0  0  0  2  0  0  0  0  0  0
  190.2740  175.6920  142.8510 C   0  0  0  0  0  1  0  0  0  0  0  0
  188.2150  177.8460  148.7960 C   0  0  0  0  0  2  0  0  0  0  0  0
  187.9710  175.6380  143.7640 C   0  0  0  0  0  2  0  0  0  0  0  0
  185.9130  177.9000  143.5280 C   0  0  2  0  0  3  0  0  0  0  0  0
  187.0270  178.2280  145.7140 C   0  0  2  0  0  3  0  0  0  0  0  0
  188.1640  177.0560  143.2590 C   0  0  2  0  0  0  0  0  0  0  0  0
  189.2860  177.4140  146.5200 C   0  0  0  0  0  2  0  0  0  0  0  0
  186.8310  177.7640  148.1430 C   0  0  0  0  0  2  0  0  0  0  0  0
  186.6110  178.8090  147.0580 C   0  0  0  0  0  2  0  0  0  0  0  0
  188.5520  178.2950  145.5170 C   0  0  1  0  0  3  0  0  0  0  0  0
  182.3190  178.9800  143.0050 C   0  0  0  0  0  3  0  0  0  0  0  0
  184.6000  178.1680  142.8540 C   0  0  0  0  0  0  0  0  0  0  0  0
  184.3790  177.8210  141.5130 C   0  0  0  0  0  3  0  0  0  0  0  0
  183.1350  178.0580  140.9210 C   0  0  0  0  0  3  0  0  0  0  0  0
  182.1060  178.6380  141.6670 C   0  0  0  0  0  3  0  0  0  0  0  0
  183.5630  178.7430  143.5980 C   0  0  0  0  0  3  0  0  0  0  0  0
  187.4680  179.1050  141.6900 S   0  0  0  0  0  0  0  0  0  0  0  0
  189.2900  178.6490  139.6500 C   0  0  0  0  0  1  0  0  0  0  0  0
  187.9040  178.2570  140.1320 C   0  0  2  0  0  3  0  0  0  0  0  0
  186.8550  178.5090  139.0600 C   0  0  0  0  0  2  0  0  0  0  0  0
  187.2090  178.5950  136.5930 C   0  0  0  0  0  1  0  0  0  0  0  0
  187.1310  177.6910  137.8080 C   0  0  0  0  0  2  0  0  0  0  0  0
  2 11  1  0  0  0  0
  2  9  1  0  0  0  0
  4  6  1  1  0  0  0
  4 11  1  0  0  0  0
  4  8  1  0  0  0  0
  5  7  1  0  0  0  0
  9 17  1  6  0  0  0
  9  1  1  0  0  0  0
 10  1  1  6  0  0  0
 10 14  1  0  0  0  0
 11  8  1  1  0  0  0
 11  3  1  0  0  0  0
 12  5  1  0  0  0  0
 13  7  1  0  0  0  0
 14 13  1  0  0  0  0
 15  3  1  6  0  0  0
 15 10  1  0  0  0  0
 15 12  1  0  0  0  0
 16 21  1  0  0  0  0
 17 21  2  0  0  0  0
 18 17  1  0  0  0  0
 19 18  2  0  0  0  0
 19 20  1  0  0  0  0
 20 16  2  0  0  0  0
 22  2  1  0  0  0  0
 24 23  1  6  0  0  0
 24 22  1  0  0  0  0
 25 24  1  0  0  0  0
 26 27  1  0  0  0  0
 27 25  1  0  0  0  0
M  END
>  <MODEL>
1

>  <REMARK>
 VINA RESULT:      -6.3      0.000      0.000
  Name = 
  5 active torsions:
  status: ('A' for Active; 'I' for Inactive)
    1  A    between atoms: N_2  and  S_6
    2  A    between atoms: S_6  and  C_21
    3  A    between atoms: C_9  and  C_15
    4  A    between atoms: C_16  and  C_17
    5  A    between atoms: C_17  and  C_21
                            x       y       z     vdW  Elec       q    Type
                         _______ _______ _______ _____ _____    ______ ____

>  <TORSDO>
F 5

$$$$
=
 OpenBabel10272401113D

 27 30  0  0  1  0  0  0  0  0999 V2000
  187.8010  177.0740  141.9150 C   0  0  0  0  0  2  0  0  0  0  0  0
  188.6350  178.1090  144.0650 N   0  0  0  0  0  0  0  0  0  0  0  0
  190.6500  177.0620  142.8080 C   0  0  0  0  0  2  0  0  0  0  0  0
  190.8860  179.1560  144.4030 C   0  0  1  0  0  3  0  0  0  0  0  0
  191.4080  176.7460  139.1280 C   0  0  0  0  0  2  0  0  0  0  0  0
  192.3710  178.8580  144.2700 C   0  0  0  0  0  1  0  0  0  0  0  0
  190.5370  177.3930  138.0470 C   0  0  0  0  0  2  0  0  0  0  0  0
  190.3550  179.6440  143.0630 C   0  0  0  0  0  2  0  0  0  0  0  0
  187.6600  178.1830  142.9610 C   0  0  2  0  0  3  0  0  0  0  0  0
  188.8890  177.4730  140.9340 C   0  0  2  0  0  3  0  0  0  0  0  0
  190.0060  178.2500  143.5480 C   0  0  2  0  0  0  0  0  0  0  0  0
  191.3760  177.4900  140.4560 C   0  0  0  0  0  2  0  0  0  0  0  0
  189.1820  177.9340  138.5140 C   0  0  0  0  0  2  0  0  0  0  0  0
  188.4900  177.0360  139.5300 C   0  0  0  0  0  2  0  0  0  0  0  0
  190.2680  176.9150  141.3280 C   0  0  1  0  0  3  0  0  0  0  0  0
  183.8880  178.5330  142.9390 C   0  0  0  0  0  3  0  0  0  0  0  0
  186.2540  178.3690  143.4480 C   0  0  0  0  0  0  0  0  0  0  0  0
  185.9710  178.6140  144.8000 C   0  0  0  0  0  3  0  0  0  0  0  0
  184.6520  178.8120  145.2190 C   0  0  0  0  0  3  0  0  0  0  0  0
  183.6110  178.7710  144.2890 C   0  0  0  0  0  3  0  0  0  0  0  0
  185.2060  178.3360  142.5200 C   0  0  0  0  0  3  0  0  0  0  0  0
  188.4770  176.5670  144.9540 S   0  0  0  0  0  0  0  0  0  0  0  0
  190.6100  176.6140  146.7260 C   0  0  0  0  0  1  0  0  0  0  0  0
  189.2190  177.1840  146.5060 C   0  0  2  0  0  3  0  0  0  0  0  0
  188.3120  176.9030  147.6950 C   0  0  0  0  0  2  0  0  0  0  0  0
  187.0020  178.9810  148.1250 C   0  0  0  0  0  1  0  0  0  0  0  0
  188.1680  178.1260  148.5850 C   0  0  0  0  0  2  0  0  0  0  0  0
  1  9  1  0  0  0  0
  2 22  1  0  0  0  0
  4  6  1  6  0  0  0
  5 12  1  0  0  0  0
  7 13  1  0  0  0  0
  7  5  1  0  0  0  0
  8 11  1  0  0  0  0
  8  4  1  0  0  0  0
  9 17  1  1  0  0  0
  9  2  1  0  0  0  0
 10 14  1  6  0  0  0
 10 15  1  0  0  0  0
 10  1  1  0  0  0  0
 11  3  1  6  0  0  0
 11  2  1  0  0  0  0
 11  4  1  0  0  0  0
 13 14  1  0  0  0  0
 15 12  1  6  0  0  0
 15  3  1  0  0  0  0
 16 20  1  0  0  0  0
 17 18  2  0  0  0  0
 18 19  1  0  0  0  0
 20 19  2  0  0  0  0
 21 16  2  0  0  0  0
 21 17  1  0  0  0  0
 22 24  1  0  0  0  0
 24 23  1  1  0  0  0
 24 25  1  0  0  0  0
 25 27  1  0  0  0  0
 26 27  1  0  0  0  0
M  END
>  <MODEL>
2

>  <REMARK>
 VINA RESULT:      -6.2      1.864      6.224
  Name = 
  5 active torsions:
  status: ('A' for Active; 'I' for Inactive)
    1  A    between atoms: N_2  and  S_6
    2  A    between atoms: S_6  and  C_21
    3  A    between atoms: C_9  and  C_15
    4  A    between atoms: C_16  and  C_17
    5  A    between atoms: C_17  and  C_21
                            x       y       z     vdW  Elec       q    Type
                         _______ _______ _______ _____ _____    ______ ____

>  <TORSDO>
F 5

$$$$
=
 OpenBabel10272401113D

 27 30  0  0  1  0  0  0  0  0999 V2000
  187.1430  178.8830  141.2690 C   0  0  0  0  0  2  0  0  0  0  0  0
  188.8670  177.6880  142.6800 N   0  0  0  0  0  0  0  0  0  0  0  0
  187.1150  178.7810  144.2530 C   0  0  0  0  0  2  0  0  0  0  0  0
  188.4330  176.5790  144.8850 C   0  0  1  0  0  3  0  0  0  0  0  0
  183.4060  179.3330  143.8610 C   0  0  0  0  0  2  0  0  0  0  0  0
  187.8680  176.8580  146.2680 C   0  0  0  0  0  1  0  0  0  0  0  0
  182.6080  178.7770  142.6780 C   0  0  0  0  0  2  0  0  0  0  0  0
  187.2950  176.1930  143.9500 C   0  0  0  0  0  2  0  0  0  0  0  0
  188.1140  177.7080  141.4130 C   0  0  2  0  0  3  0  0  0  0  0  0
  185.8520  178.5320  141.9890 C   0  0  2  0  0  3  0  0  0  0  0  0
  187.9460  177.5570  143.8210 C   0  0  2  0  0  0  0  0  0  0  0  0
  184.6320  178.5000  144.2080 C   0  0  0  0  0  2  0  0  0  0  0  0
  183.4370  178.2310  141.5100 C   0  0  0  0  0  2  0  0  0  0  0  0
  184.6680  179.0710  141.1980 C   0  0  0  0  0  2  0  0  0  0  0  0
  185.8350  179.0360  143.4430 C   0  0  1  0  0  3  0  0  0  0  0  0
  189.5520  178.1080  137.9300 C   0  0  0  0  0  3  0  0  0  0  0  0
  188.9980  177.5150  140.2160 C   0  0  0  0  0  0  0  0  0  0  0  0
  190.0240  176.5590  140.2080 C   0  0  0  0  0  3  0  0  0  0  0  0
  190.8130  176.3830  139.0680 C   0  0  0  0  0  3  0  0  0  0  0  0
  190.5770  177.1580  137.9290 C   0  0  0  0  0  3  0  0  0  0  0  0
  188.7620  178.2840  139.0700 C   0  0  0  0  0  3  0  0  0  0  0  0
  189.8500  179.1690  142.8620 S   0  0  0  0  0  0  0  0  0  0  0  0
  191.5340  176.9640  142.8560 C   0  0  0  0  0  1  0  0  0  0  0  0
  191.3280  178.3170  143.5170 C   0  0  2  0  0  3  0  0  0  0  0  0
  191.2580  178.1860  145.0310 C   0  0  0  0  0  2  0  0  0  0  0  0
  191.5340  176.6730  146.9940 C   0  0  0  0  0  1  0  0  0  0  0  0
  191.6790  176.7990  145.4890 C   0  0  0  0  0  2  0  0  0  0  0  0
  1  9  1  0  0  0  0
  1 10  1  0  0  0  0
  2 22  1  0  0  0  0
  2 11  1  0  0  0  0
  4  6  1  1  0  0  0
  5 12  1  0  0  0  0
  7  5  1  0  0  0  0
  8  4  1  0  0  0  0
  9 17  1  6  0  0  0
  9  2  1  0  0  0  0
 10 14  1  6  0  0  0
 10 15  1  0  0  0  0
 11  8  1  6  0  0  0
 11  3  1  0  0  0  0
 11  4  1  0  0  0  0
 13  7  1  0  0  0  0
 14 13  1  0  0  0  0
 15 12  1  1  0  0  0
 15  3  1  0  0  0  0
 16 21  1  0  0  0  0
 18 17  1  0  0  0  0
 19 18  2  0  0  0  0
 20 16  2  0  0  0  0
 20 19  1  0  0  0  0
 21 17  2  0  0  0  0
 22 24  1  0  0  0  0
 24 23  1  6  0  0  0
 24 25  1  0  0  0  0
 25 27  1  0  0  0  0
 27 26  1  0  0  0  0
M  END
>  <MODEL>
3

>  <REMARK>
 VINA RESULT:      -6.0      1.756      6.038
  Name = 
  5 active torsions:
  status: ('A' for Active; 'I' for Inactive)
    1  A    between atoms: N_2  and  S_6
    2  A    between atoms: S_6  and  C_21
    3  A    between atoms: C_9  and  C_15
    4  A    between atoms: C_16  and  C_17
    5  A    between atoms: C_17  and  C_21
                            x       y       z     vdW  Elec       q    Type
                         _______ _______ _______ _____ _____    ______ ____

>  <TORSDO>
F 5

$$$$
=
 OpenBabel10272401113D

 27 30  0  0  1  0  0  0  0  0999 V2000
  191.9020  176.5080  138.2120 C   0  0  0  0  0  2  0  0  0  0  0  0
  189.4840  176.1280  137.5840 N   0  0  0  0  0  0  0  0  0  0  0  0
  190.9830  175.4520  135.5750 C   0  0  0  0  0  2  0  0  0  0  0  0
  188.6380  174.3300  136.0570 C   0  0  1  0  0  3  0  0  0  0  0  0
  194.4100  173.8880  135.4310 C   0  0  0  0  0  2  0  0  0  0  0  0
  188.8240  173.7730  134.6550 C   0  0  0  0  0  1  0  0  0  0  0  0
  195.1480  173.3970  136.6810 C   0  0  0  0  0  2  0  0  0  0  0  0
  189.6630  173.6930  136.9850 C   0  0  0  0  0  2  0  0  0  0  0  0
  190.4900  176.1240  138.6610 C   0  0  2  0  0  3  0  0  0  0  0  0
  192.5740  175.2770  137.6290 C   0  0  2  0  0  3  0  0  0  0  0  0
  189.8340  175.1370  136.5530 C   0  0  2  0  0  0  0  0  0  0  0  0
  192.8950  173.8430  135.5670 C   0  0  0  0  0  2  0  0  0  0  0  0
  194.5510  173.8320  138.0240 C   0  0  0  0  0  2  0  0  0  0  0  0
  194.0450  175.2670  138.0240 C   0  0  0  0  0  2  0  0  0  0  0  0
  192.3990  175.1790  136.1040 C   0  0  1  0  0  3  0  0  0  0  0  0
  190.4910  177.6500  142.1290 C   0  0  0  0  0  3  0  0  0  0  0  0
  190.0300  176.8670  139.8800 C   0  0  0  0  0  0  0  0  0  0  0  0
  188.7380  177.4080  139.9660 C   0  0  0  0  0  3  0  0  0  0  0  0
  188.3280  178.0700  141.1270 C   0  0  0  0  0  3  0  0  0  0  0  0
  189.2040  178.1910  142.2080 C   0  0  0  0  0  3  0  0  0  0  0  0
  190.9010  176.9870  140.9690 C   0  0  0  0  0  3  0  0  0  0  0  0
  189.3460  177.7490  136.8450 S   0  0  0  0  0  0  0  0  0  0  0  0
  187.4560  177.7070  134.8150 C   0  0  0  0  0  1  0  0  0  0  0  0
  187.6060  177.5530  136.3190 C   0  0  2  0  0  3  0  0  0  0  0  0
  186.6970  178.5160  137.0660 C   0  0  0  0  0  2  0  0  0  0  0  0
  185.1410  178.5650  139.0150 C   0  0  0  0  0  1  0  0  0  0  0  0
  185.5860  177.7790  137.7970 C   0  0  0  0  0  2  0  0  0  0  0  0
  1  9  1  0  0  0  0
  2  9  1  0  0  0  0
  3 15  1  0  0  0  0
  4  6  1  6  0  0  0
  4 11  1  0  0  0  0
  4  8  1  0  0  0  0
  5 12  1  0  0  0  0
  5  7  1  0  0  0  0
  7 13  1  0  0  0  0
  9 17  1  1  0  0  0
 10 14  1  6  0  0  0
 10  1  1  0  0  0  0
 11  3  1  6  0  0  0
 11  8  1  0  0  0  0
 11  2  1  0  0  0  0
 14 13  1  0  0  0  0
 15 12  1  1  0  0  0
 15 10  1  0  0  0  0
 16 20  1  0  0  0  0
 17 18  2  0  0  0  0
 17 21  1  0  0  0  0
 18 19  1  0  0  0  0
 19 20  2  0  0  0  0
 21 16  2  0  0  0  0
 22  2  1  0  0  0  0
 24 23  1  6  0  0  0
 24 22  1  0  0  0  0
 24 25  1  0  0  0  0
 25 27  1  0  0  0  0
 27 26  1  0  0  0  0
M  END
>  <MODEL>
4

>  <REMARK>
 VINA RESULT:      -5.5      4.523      8.448
  Name = 
  5 active torsions:
  status: ('A' for Active; 'I' for Inactive)
    1  A    between atoms: N_2  and  S_6
    2  A    between atoms: S_6  and  C_21
    3  A    between atoms: C_9  and  C_15
    4  A    between atoms: C_16  and  C_17
    5  A    between atoms: C_17  and  C_21
                            x       y       z     vdW  Elec       q    Type
                         _______ _______ _______ _____ _____    ______ ____

>  <TORSDO>
F 5

$$$$
=
 OpenBabel10272401113D

 27 30  0  0  1  0  0  0  0  0999 V2000
  185.1940  177.8080  140.5340 C   0  0  0  0  0  2  0  0  0  0  0  0
  184.1140  178.3200  138.3070 N   0  0  0  0  0  0  0  0  0  0  0  0
  182.2470  177.9380  140.0710 C   0  0  0  0  0  2  0  0  0  0  0  0
  181.9440  179.5290  137.9810 C   0  0  1  0  0  3  0  0  0  0  0  0
  182.0840  178.7440  143.7490 C   0  0  0  0  0  2  0  0  0  0  0  0
  180.4810  179.4830  138.3910 C   0  0  0  0  0  1  0  0  0  0  0  0
  183.1780  179.5380  144.4710 C   0  0  0  0  0  2  0  0  0  0  0  0
  182.7330  180.2880  139.0390 C   0  0  0  0  0  2  0  0  0  0  0  0
  185.2610  178.5600  139.2030 C   0  0  2  0  0  3  0  0  0  0  0  0
  184.3250  178.6030  141.4930 C   0  0  2  0  0  3  0  0  0  0  0  0
  182.8670  178.7810  138.9380 C   0  0  2  0  0  0  0  0  0  0  0  0
  181.9640  179.0870  142.2710 C   0  0  0  0  0  2  0  0  0  0  0  0
  184.4810  179.7420  143.6910 C   0  0  0  0  0  2  0  0  0  0  0  0
  184.9090  178.5160  142.8970 C   0  0  0  0  0  2  0  0  0  0  0  0
  182.8540  178.1510  141.4650 C   0  0  1  0  0  3  0  0  0  0  0  0
  188.9240  177.8060  138.5990 C   0  0  0  0  0  3  0  0  0  0  0  0
  186.5780  178.4130  138.5000 C   0  0  0  0  0  0  0  0  0  0  0  0
  186.7400  178.7890  137.1580 C   0  0  0  0  0  3  0  0  0  0  0  0
  187.9880  178.6670  136.5400 C   0  0  0  0  0  3  0  0  0  0  0  0
  189.0790  178.1750  137.2600 C   0  0  0  0  0  3  0  0  0  0  0  0
  187.6770  177.9270  139.2180 C   0  0  0  0  0  3  0  0  0  0  0  0
  183.9790  176.5870  137.8920 S   0  0  0  0  0  0  0  0  0  0  0  0
  182.8010  176.6930  135.3840 C   0  0  0  0  0  1  0  0  0  0  0  0
  184.1400  176.8270  136.0880 C   0  0  2  0  0  3  0  0  0  0  0  0
  185.1710  175.8760  135.4990 C   0  0  0  0  0  2  0  0  0  0  0  0
  187.4250  175.0100  136.1200 C   0  0  0  0  0  1  0  0  0  0  0  0
  185.9960  175.2070  136.5860 C   0  0  0  0  0  2  0  0  0  0  0  0
  2 11  1  0  0  0  0
  2  9  1  0  0  0  0
  4  6  1  1  0  0  0
  4 11  1  0  0  0  0
  4  8  1  0  0  0  0
  5  7  1  0  0  0  0
  9 17  1  6  0  0  0
  9  1  1  0  0  0  0
 10  1  1  6  0  0  0
 10 14  1  0  0  0  0
 11  8  1  1  0  0  0
 11  3  1  0  0  0  0
 12  5  1  0  0  0  0
 13  7  1  0  0  0  0
 14 13  1  0  0  0  0
 15  3  1  6  0  0  0
 15 10  1  0  0  0  0
 15 12  1  0  0  0  0
 16 21  1  0  0  0  0
 17 21  2  0  0  0  0
 18 17  1  0  0  0  0
 19 18  2  0  0  0  0
 19 20  1  0  0  0  0
 20 16  2  0  0  0  0
 22  2  1  0  0  0  0
 24 23  1  6  0  0  0
 24 22  1  0  0  0  0
 25 24  1  0  0  0  0
 25 27  1  0  0  0  0
 26 27  1  0  0  0  0
M  END
>  <MODEL>
5

>  <REMARK>
 VINA RESULT:      -5.3      3.682      6.697
  Name = 
  5 active torsions:
  status: ('A' for Active; 'I' for Inactive)
    1  A    between atoms: N_2  and  S_6
    2  A    between atoms: S_6  and  C_21
    3  A    between atoms: C_9  and  C_15
    4  A    between atoms: C_16  and  C_17
    5  A    between atoms: C_17  and  C_21
                            x       y       z     vdW  Elec       q    Type
                         _______ _______ _______ _____ _____    ______ ____

>  <TORSDO>
F 5

$$$$
=
 OpenBabel10272401113D

 27 30  0  0  1  0  0  0  0  0999 V2000
  186.6430  178.9500  144.0020 C   0  0  0  0  0  2  0  0  0  0  0  0
  187.7260  177.6510  142.1240 N   0  0  0  0  0  0  0  0  0  0  0  0
  189.4440  177.9190  144.0510 C   0  0  0  0  0  2  0  0  0  0  0  0
  189.4530  175.8570  142.3960 C   0  0  1  0  0  3  0  0  0  0  0  0
  189.0080  177.9940  147.7940 C   0  0  0  0  0  2  0  0  0  0  0  0
  190.8160  175.6000  143.0170 C   0  0  0  0  0  1  0  0  0  0  0  0
  187.6630  177.7220  148.4750 C   0  0  0  0  0  2  0  0  0  0  0  0
  188.3760  175.6140  143.4450 C   0  0  0  0  0  2  0  0  0  0  0  0
  186.4800  177.9510  142.8540 C   0  0  2  0  0  3  0  0  0  0  0  0
  187.1380  178.2000  145.2270 C   0  0  2  0  0  3  0  0  0  0  0  0
  188.7110  177.0320  143.0250 C   0  0  2  0  0  0  0  0  0  0  0  0
  189.1590  177.2920  146.4520 C   0  0  0  0  0  2  0  0  0  0  0  0
  186.4390  177.7000  147.5540 C   0  0  0  0  0  2  0  0  0  0  0  0
  186.4770  178.7720  146.4740 C   0  0  0  0  0  2  0  0  0  0  0  0
  188.6720  178.2160  145.3440 C   0  0  1  0  0  3  0  0  0  0  0  0
  184.5790  179.1630  139.8090 C   0  0  0  0  0  3  0  0  0  0  0  0
  185.3400  178.2790  141.9360 C   0  0  0  0  0  0  0  0  0  0  0  0
  184.0060  178.0900  142.3250 C   0  0  0  0  0  3  0  0  0  0  0  0
  182.9640  178.4310  141.4580 C   0  0  0  0  0  3  0  0  0  0  0  0
  183.2510  178.9670  140.2000 C   0  0  0  0  0  3  0  0  0  0  0  0
  185.6200  178.8220  140.6760 C   0  0  0  0  0  3  0  0  0  0  0  0
  188.4130  179.1330  141.3990 S   0  0  0  0  0  0  0  0  0  0  0  0
  187.9650  177.2610  139.4010 C   0  0  0  0  0  1  0  0  0  0  0  0
  188.9460  178.3340  139.8440 C   0  0  2  0  0  3  0  0  0  0  0  0
  190.3550  177.7760  139.9700 C   0  0  0  0  0  2  0  0  0  0  0  0
  191.8880  176.5590  138.4240 C   0  0  0  0  0  1  0  0  0  0  0  0
  190.5390  176.5310  139.1170 C   0  0  0  0  0  2  0  0  0  0  0  0
  2  9  1  0  0  0  0
  2 11  1  0  0  0  0
  4  6  1  1  0  0  0
  4 11  1  0  0  0  0
  4  8  1  0  0  0  0
  5  7  1  0  0  0  0
  9 17  1  6  0  0  0
  9  1  1  0  0  0  0
 10  1  1  6  0  0  0
 10 15  1  0  0  0  0
 10 14  1  0  0  0  0
 11  8  1  1  0  0  0
 11  3  1  0  0  0  0
 12  5  1  0  0  0  0
 13  7  1  0  0  0  0
 14 13  1  0  0  0  0
 15  3  1  6  0  0  0
 15 12  1  0  0  0  0
 16 20  2  0  0  0  0
 16 21  1  0  0  0  0
 17 18  1  0  0  0  0
 19 18  2  0  0  0  0
 20 19  1  0  0  0  0
 21 17  2  0  0  0  0
 22  2  1  0  0  0  0
 24 23  1  1  0  0  0
 24 25  1  0  0  0  0
 24 22  1  0  0  0  0
 26 27  1  0  0  0  0
 27 25  1  0  0  0  0
M  END
>  <MODEL>
6

>  <REMARK>
 VINA RESULT:      -5.3      1.226      1.956
  Name = 
  5 active torsions:
  status: ('A' for Active; 'I' for Inactive)
    1  A    between atoms: N_2  and  S_6
    2  A    between atoms: S_6  and  C_21
    3  A    between atoms: C_9  and  C_15
    4  A    between atoms: C_16  and  C_17
    5  A    between atoms: C_17  and  C_21
                            x       y       z     vdW  Elec       q    Type
                         _______ _______ _______ _____ _____    ______ ____

>  <TORSDO>
F 5

$$$$
=
 OpenBabel10272401113D

 27 30  0  0  1  0  0  0  0  0999 V2000
  191.1450  176.0860  139.4250 C   0  0  0  0  0  2  0  0  0  0  0  0
  190.2110  176.6660  137.1490 N   0  0  0  0  0  0  0  0  0  0  0  0
  188.3210  176.9080  138.9120 C   0  0  0  0  0  2  0  0  0  0  0  0
  188.4090  178.3470  136.6960 C   0  0  1  0  0  3  0  0  0  0  0  0
  188.3920  178.0310  142.5100 C   0  0  0  0  0  2  0  0  0  0  0  0
  186.9840  178.7010  137.0890 C   0  0  0  0  0  1  0  0  0  0  0  0
  189.6540  178.5840  143.1790 C   0  0  0  0  0  2  0  0  0  0  0  0
  189.3710  178.9700  137.6990 C   0  0  0  0  0  2  0  0  0  0  0  0
  191.3880  176.6850  138.0370 C   0  0  2  0  0  3  0  0  0  0  0  0
  190.5100  177.1490  140.3040 C   0  0  2  0  0  3  0  0  0  0  0  0
  189.1230  177.4740  137.7230 C   0  0  2  0  0  0  0  0  0  0  0  0
  188.3500  178.2690  141.0080 C   0  0  0  0  0  2  0  0  0  0  0  0
  190.9620  178.3910  142.4030 C   0  0  0  0  0  2  0  0  0  0  0  0
  191.0630  177.0350  141.7180 C   0  0  0  0  0  2  0  0  0  0  0  0
  188.9720  177.0770  140.2930 C   0  0  1  0  0  3  0  0  0  0  0  0
  194.6320  174.8050  137.4910 C   0  0  0  0  0  3  0  0  0  0  0  0
  192.6220  176.1570  137.3670 C   0  0  0  0  0  0  0  0  0  0  0  0
  192.9720  176.5430  136.0640 C   0  0  0  0  0  3  0  0  0  0  0  0
  194.1430  176.0560  135.4770 C   0  0  0  0  0  3  0  0  0  0  0  0
  194.9730  175.1870  136.1900 C   0  0  0  0  0  3  0  0  0  0  0  0
  193.4610  175.2910  138.0790 C   0  0  0  0  0  3  0  0  0  0  0  0
  189.6450  174.9930  136.8750 S   0  0  0  0  0  0  0  0  0  0  0  0
  188.5120  174.8490  134.3480 C   0  0  0  0  0  1  0  0  0  0  0  0
  189.8410  175.0380  135.0590 C   0  0  2  0  0  3  0  0  0  0  0  0
  190.8660  174.0150  134.5940 C   0  0  0  0  0  2  0  0  0  0  0  0
  192.6120  172.4100  135.3650 C   0  0  0  0  0  1  0  0  0  0  0  0
  191.3330  173.1340  135.7410 C   0  0  0  0  0  2  0  0  0  0  0  0
  2 11  1  0  0  0  0
  2  9  1  0  0  0  0
  4  6  1  1  0  0  0
  4  8  1  0  0  0  0
  4 11  1  0  0  0  0
  5  7  1  0  0  0  0
  9 17  1  6  0  0  0
  9  1  1  0  0  0  0
 10  1  1  6  0  0  0
 10 14  1  0  0  0  0
 11  8  1  1  0  0  0
 11  3  1  0  0  0  0
 12  5  1  0  0  0  0
 13  7  1  0  0  0  0
 14 13  1  0  0  0  0
 15  3  1  6  0  0  0
 15 10  1  0  0  0  0
 15 12  1  0  0  0  0
 16 21  1  0  0  0  0
 17 21  2  0  0  0  0
 18 17  1  0  0  0  0
 19 18  2  0  0  0  0
 19 20  1  0  0  0  0
 20 16  2  0  0  0  0
 22  2  1  0  0  0  0
 24 23  1  6  0  0  0
 24 22  1  0  0  0  0
 25 24  1  0  0  0  0
 25 27  1  0  0  0  0
 26 27  1  0  0  0  0
M  END
>  <MODEL>
7

>  <REMARK>
 VINA RESULT:      -5.3      4.571      8.243
  Name = 
  5 active torsions:
  status: ('A' for Active; 'I' for Inactive)
    1  A    between atoms: N_2  and  S_6
    2  A    between atoms: S_6  and  C_21
    3  A    between atoms: C_9  and  C_15
    4  A    between atoms: C_16  and  C_17
    5  A    between atoms: C_17  and  C_21
                            x       y       z     vdW  Elec       q    Type
                         _______ _______ _______ _____ _____    ______ ____

>  <TORSDO>
F 5

$$$$
=
 OpenBabel10272401113D

 27 30  0  0  1  0  0  0  0  0999 V2000
  191.5070  177.2150  139.1340 C   0  0  0  0  0  2  0  0  0  0  0  0
  189.0370  176.6880  139.0440 N   0  0  0  0  0  0  0  0  0  0  0  0
  189.9550  176.7990  136.6180 C   0  0  0  0  0  2  0  0  0  0  0  0
  187.9090  175.2750  137.3100 C   0  0  1  0  0  3  0  0  0  0  0  0
  193.2940  175.8240  135.1650 C   0  0  0  0  0  2  0  0  0  0  0  0
  187.7300  175.1520  135.8050 C   0  0  0  0  0  1  0  0  0  0  0  0
  194.3780  175.1180  135.9850 C   0  0  0  0  0  2  0  0  0  0  0  0
  189.1880  174.5580  137.7190 C   0  0  0  0  0  2  0  0  0  0  0  0
  190.3020  176.5310  139.7850 C   0  0  2  0  0  3  0  0  0  0  0  0
  192.0630  176.2940  138.0620 C   0  0  2  0  0  3  0  0  0  0  0  0
  189.1450  176.0740  137.7110 C   0  0  2  0  0  0  0  0  0  0  0  0
  191.8820  175.5340  135.6530 C   0  0  0  0  0  2  0  0  0  0  0  0
  194.1550  175.0840  137.5010 C   0  0  0  0  0  2  0  0  0  0  0  0
  193.5830  176.3810  138.0560 C   0  0  0  0  0  2  0  0  0  0  0  0
  191.4760  176.5910  136.6710 C   0  0  1  0  0  3  0  0  0  0  0  0
  191.0340  177.9180  143.2340 C   0  0  0  0  0  3  0  0  0  0  0  0
  190.1560  176.8440  141.2450 C   0  0  0  0  0  0  0  0  0  0  0  0
  189.0910  176.3320  142.0010 C   0  0  0  0  0  3  0  0  0  0  0  0
  188.9970  176.6170  143.3670 C   0  0  0  0  0  3  0  0  0  0  0  0
  189.9680  177.4100  143.9820 C   0  0  0  0  0  3  0  0  0  0  0  0
  191.1290  177.6320  141.8690 C   0  0  0  0  0  3  0  0  0  0  0  0
  188.6020  178.4140  138.8830 S   0  0  0  0  0  0  0  0  0  0  0  0
  186.3300  178.5760  137.3000 C   0  0  0  0  0  1  0  0  0  0  0  0
  186.8100  178.1220  138.6680 C   0  0  2  0  0  3  0  0  0  0  0  0
  186.0110  178.7830  139.7810 C   0  0  0  0  0  2  0  0  0  0  0  0
  185.8300  178.6440  142.2640 C   0  0  0  0  0  1  0  0  0  0  0  0
  186.7810  178.7880  141.0910 C   0  0  0  0  0  2  0  0  0  0  0  0
  1  9  1  0  0  0  0
  2  9  1  0  0  0  0
  3 15  1  0  0  0  0
  4  6  1  6  0  0  0
  4 11  1  0  0  0  0
  4  8  1  0  0  0  0
  5 12  1  0  0  0  0
  5  7  1  0  0  0  0
  7 13  1  0  0  0  0
  9 17  1  1  0  0  0
 10 14  1  6  0  0  0
 10  1  1  0  0  0  0
 11  3  1  6  0  0  0
 11  8  1  0  0  0  0
 11  2  1  0  0  0  0
 13 14  1  0  0  0  0
 15 12  1  6  0  0  0
 15 10  1  0  0  0  0
 16 20  1  0  0  0  0
 17 21  1  0  0  0  0
 17 18  2  0  0  0  0
 18 19  1  0  0  0  0
 19 20  2  0  0  0  0
 21 16  2  0  0  0  0
 22  2  1  0  0  0  0
 24 23  1  6  0  0  0
 24 22  1  0  0  0  0
 24 25  1  0  0  0  0
 25 27  1  0  0  0  0
 27 26  1  0  0  0  0
M  END
>  <MODEL>
8

>  <REMARK>
 VINA RESULT:      -5.2      3.553      7.978
  Name = 
  5 active torsions:
  status: ('A' for Active; 'I' for Inactive)
    1  A    between atoms: N_2  and  S_6
    2  A    between atoms: S_6  and  C_21
    3  A    between atoms: C_9  and  C_15
    4  A    between atoms: C_16  and  C_17
    5  A    between atoms: C_17  and  C_21
                            x       y       z     vdW  Elec       q    Type
                         _______ _______ _______ _____ _____    ______ ____

>  <TORSDO>
F 5

$$$$
=
 OpenBabel10272401113D

 27 30  0  0  1  0  0  0  0  0999 V2000
  185.3940  178.6710  139.8810 C   0  0  0  0  0  2  0  0  0  0  0  0
  183.0460  177.9970  140.5310 N   0  0  0  0  0  0  0  0  0  0  0  0
  183.1890  178.1300  137.9430 C   0  0  0  0  0  2  0  0  0  0  0  0
  181.5390  176.4960  139.2080 C   0  0  1  0  0  3  0  0  0  0  0  0
  185.9930  177.3360  135.5520 C   0  0  0  0  0  2  0  0  0  0  0  0
  180.9270  176.3420  137.8250 C   0  0  0  0  0  1  0  0  0  0  0  0
  187.3140  176.7070  136.0060 C   0  0  0  0  0  2  0  0  0  0  0  0
  182.9240  175.8620  139.2110 C   0  0  0  0  0  2  0  0  0  0  0  0
  184.4820  177.9260  140.8590 C   0  0  2  0  0  3  0  0  0  0  0  0
  185.6580  177.7710  138.6870 C   0  0  2  0  0  3  0  0  0  0  0  0
  182.7880  177.3730  139.2240 C   0  0  2  0  0  0  0  0  0  0  0  0
  184.8120  176.9690  136.4390 C   0  0  0  0  0  2  0  0  0  0  0  0
  187.5560  176.6800  137.5190 C   0  0  0  0  0  2  0  0  0  0  0  0
  187.0990  177.9480  138.2270 C   0  0  0  0  0  2  0  0  0  0  0  0
  184.6650  178.0140  137.5370 C   0  0  1  0  0  3  0  0  0  0  0  0
  183.9240  178.9450  144.4650 C   0  0  0  0  0  3  0  0  0  0  0  0
  184.7600  178.2480  142.2970 C   0  0  0  0  0  0  0  0  0  0  0  0
  186.0640  178.2300  142.8150 C   0  0  0  0  0  3  0  0  0  0  0  0
  186.2940  178.5640  144.1530 C   0  0  0  0  0  3  0  0  0  0  0  0
  185.2250  178.9200  144.9780 C   0  0  0  0  0  3  0  0  0  0  0  0
  183.6930  178.6130  143.1270 C   0  0  0  0  0  3  0  0  0  0  0  0
  182.4780  179.6920  140.5170 S   0  0  0  0  0  0  0  0  0  0  0  0
  180.0260  180.0770  139.2810 C   0  0  0  0  0  1  0  0  0  0  0  0
  180.7030  179.2790  140.3820 C   0  0  2  0  0  3  0  0  0  0  0  0
  179.9950  179.4660  141.7150 C   0  0  0  0  0  2  0  0  0  0  0  0
  180.0330  178.4990  144.0130 C   0  0  0  0  0  1  0  0  0  0  0  0
  179.9960  178.1830  142.5300 C   0  0  0  0  0  2  0  0  0  0  0  0
  1  9  1  0  0  0  0
  2  9  1  0  0  0  0
  4  6  1  6  0  0  0
  4  8  1  0  0  0  0
  4 11  1  0  0  0  0
  5  7  1  0  0  0  0
  5 12  1  0  0  0  0
  7 13  1  0  0  0  0
  8 11  1  0  0  0  0
  9 17  1  1  0  0  0
 10 14  1  6  0  0  0
 10  1  1  0  0  0  0
 11  3  1  6  0  0  0
 11  2  1  0  0  0  0
 13 14  1  0  0  0  0
 15 12  1  6  0  0  0
 15  3  1  0  0  0  0
 15 10  1  0  0  0  0
 16 20  1  0  0  0  0
 17 18  2  0  0  0  0
 17 21  1  0  0  0  0
 18 19  1  0  0  0  0
 19 20  2  0  0  0  0
 21 16  2  0  0  0  0
 22  2  1  0  0  0  0
 24 23  1  6  0  0  0
 24 22  1  0  0  0  0
 24 25  1  0  0  0  0
 25 27  1  0  0  0  0
 27 26  1  0  0  0  0
M  END
>  <MODEL>
9

>  <REMARK>
 VINA RESULT:      -5.1      2.914      7.751
  Name = 
  5 active torsions:
  status: ('A' for Active; 'I' for Inactive)
    1  A    between atoms: N_2  and  S_6
    2  A    between atoms: S_6  and  C_21
    3  A    between atoms: C_9  and  C_15
    4  A    between atoms: C_16  and  C_17
    5  A    between atoms: C_17  and  C_21
                            x       y       z     vdW  Elec       q    Type
                         _______ _______ _______ _____ _____    ______ ____

>  <TORSDO>
F 5

$$$$
