=
 OpenBabel10272402113D

 32 38  0  0  1  0  0  0  0  0999 V2000
  186.6210  178.2020  141.7650 C   0  0  0  0  0  0  0  0  0  0  0  0
  188.0800  177.4590  143.5670 C   0  0  0  0  0  0  0  0  0  0  0  0
  186.4370  178.5100  140.4090 C   0  0  0  0  0  3  0  0  0  0  0  0
  187.8920  177.7750  142.2120 C   0  0  0  0  0  0  0  0  0  0  0  0
  189.4110  176.8880  144.0340 C   0  0  2  0  0  3  0  0  0  0  0  0
  186.7300  178.5370  148.0680 C   0  0  0  0  0  3  0  0  0  0  0  0
  187.0260  177.6630  144.4680 C   0  0  0  0  0  0  0  0  0  0  0  0
  189.0180  177.7660  147.6920 C   0  0  0  0  0  3  0  0  0  0  0  0
  188.7420  177.8070  146.2150 C   0  0  1  0  0  3  0  0  0  0  0  0
  188.9730  177.7110  141.3060 C   0  0  0  0  0  0  0  0  0  0  0  0
  189.6410  176.9040  145.4960 N   0  0  0  0  0  2  0  0  0  0  0  0
  190.3440  177.2750  141.7520 C   0  0  0  0  0  2  0  0  0  0  0  0
  188.7640  178.0160  139.9590 C   0  0  0  0  0  3  0  0  0  0  0  0
  185.8070  178.0630  144.0120 N   0  0  0  0  0  0  0  0  0  0  0  0
  185.5730  178.3220  142.6960 C   0  0  0  0  0  0  0  0  0  0  0  0
  187.2790  177.4430  145.9270 C   0  0  1  0  0  3  0  0  0  0  0  0
  190.5690  177.5110  143.2500 C   0  0  2  0  0  3  0  0  0  0  0  0
  187.5020  178.4130  139.5110 C   0  0  0  0  0  3  0  0  0  0  0  0
  188.0710  178.1540  148.5560 C   0  0  0  0  0  3  0  0  0  0  0  0
  186.3590  178.2460  146.8150 C   0  0  0  0  0  3  0  0  0  0  0  0
  181.9060  179.2360  143.0080 C   0  0  2  0  0  3  0  0  0  0  0  0
  181.8430  179.9390  139.2200 O   0  0  0  0  0  0  0  0  0  0  0  0
  180.8550  178.6260  143.9160 C   0  0  0  0  0  1  0  0  0  0  0  0
  182.2370  177.9170  140.7370 C   0  0  2  0  0  3  0  0  0  0  0  0
  184.1970  178.7590  142.2690 C   0  0  1  0  0  3  0  0  0  0  0  0
  181.6830  178.7880  141.6590 N   0  0  0  0  0  0  0  0  0  0  0  0
  183.7320  177.8350  141.0960 C   0  0  0  0  0  2  0  0  0  0  0  0
  183.2490  178.7860  143.4190 N   0  0  0  0  0  0  0  0  0  0  0  0
  183.7200  179.7860  144.3710 C   0  0  0  0  0  1  0  0  0  0  0  0
  181.8740  179.1270  140.1790 C   0  0  0  0  0  0  0  0  0  0  0  0
  191.8960  176.8890  143.6590 C   0  0  0  0  0  2  0  0  0  0  0  0
  191.7720  175.5010  143.7210 O   0  0  0  0  0  1  0  0  0  0  0  0
  1  4  1  0  0  0  0
  1 15  2  0  0  0  0
  2  7  1  0  0  0  0
  3  1  1  0  0  0  0
  4  2  2  0  0  0  0
  5  2  1  1  0  0  0
  5 11  1  0  0  0  0
  6 19  1  0  0  0  0
  7 16  1  0  0  0  0
  8 19  2  0  0  0  0
  9  8  1  1  0  0  0
 10 12  1  0  0  0  0
 10  4  1  0  0  0  0
 11  9  1  0  0  0  0
 12 17  1  0  0  0  0
 13 10  2  0  0  0  0
 14  7  2  0  0  0  0
 15 14  1  0  0  0  0
 16  9  1  0  0  0  0
 16 20  1  1  0  0  0
 17 31  1  1  0  0  0
 17  5  1  0  0  0  0
 18 13  1  0  0  0  0
 18  3  2  0  0  0  0
 20  6  2  0  0  0  0
 21 28  1  0  0  0  0
 21 23  1  1  0  0  0
 22 30  2  0  0  0  0
 24 27  1  1  0  0  0
 24 26  1  0  0  0  0
 25 15  1  1  0  0  0
 25 28  1  0  0  0  0
 26 21  1  0  0  0  0
 27 25  1  0  0  0  0
 28 29  1  0  0  0  0
 30 24  1  0  0  0  0
 30 26  1  0  0  0  0
 31 32  1  0  0  0  0
M  END
>  <MODEL>
1

>  <REMARK>
 VINA RESULT:     -10.9      0.000      0.000
  Name = 
  2 active torsions:
  status: ('A' for Active; 'I' for Inactive)
    1  A    between atoms: C_13  and  C_29
    2  A    between atoms: C_16  and  C_27
                            x       y       z     vdW  Elec       q    Type
                         _______ _______ _______ _____ _____    ______ ____

>  <TORSDO>
F 2

$$$$
=
 OpenBabel10272402113D

 32 38  0  0  1  0  0  0  0  0999 V2000
  184.4150  178.7020  142.1170 C   0  0  0  0  0  0  0  0  0  0  0  0
  186.8360  178.4410  142.0780 C   0  0  0  0  0  0  0  0  0  0  0  0
  183.2210  178.7860  142.8480 C   0  0  0  0  0  3  0  0  0  0  0  0
  185.6370  178.5210  142.8040 C   0  0  0  0  0  0  0  0  0  0  0  0
  188.1640  178.3630  142.8150 C   0  0  2  0  0  3  0  0  0  0  0  0
  188.8180  176.9890  137.9290 C   0  0  0  0  0  3  0  0  0  0  0  0
  186.7870  178.4510  140.6770 C   0  0  0  0  0  0  0  0  0  0  0  0
  190.1800  176.9200  139.9570 C   0  0  0  0  0  3  0  0  0  0  0  0
  188.9550  177.3060  140.7400 C   0  0  1  0  0  3  0  0  0  0  0  0
  185.6410  178.3750  144.2080 C   0  0  0  0  0  0  0  0  0  0  0  0
  189.3290  177.9460  142.0010 N   0  0  0  0  0  2  0  0  0  0  0  0
  186.9230  178.1640  144.9700 C   0  0  0  0  0  2  0  0  0  0  0  0
  184.4400  178.4690  144.9150 C   0  0  0  0  0  3  0  0  0  0  0  0
  185.6000  178.6400  140.0370 N   0  0  0  0  0  0  0  0  0  0  0  0
  184.4250  178.7780  140.7120 C   0  0  0  0  0  0  0  0  0  0  0  0
  188.0580  178.2390  139.9140 C   0  0  1  0  0  3  0  0  0  0  0  0
  188.0200  177.5420  144.0990 C   0  0  2  0  0  3  0  0  0  0  0  0
  183.2350  178.6750  144.2400 C   0  0  0  0  0  3  0  0  0  0  0  0
  190.0920  176.7330  138.6340 C   0  0  0  0  0  3  0  0  0  0  0  0
  187.8340  177.6610  138.5380 C   0  0  0  0  0  3  0  0  0  0  0  0
  181.6400  178.0510  138.2430 C   0  0  2  0  0  3  0  0  0  0  0  0
  179.9830  181.3770  139.2560 O   0  0  0  0  0  0  0  0  0  0  0  0
  181.7320  177.3640  136.8930 C   0  0  0  0  0  1  0  0  0  0  0  0
  182.1690  180.6420  138.1500 C   0  0  2  0  0  3  0  0  0  0  0  0
  183.1530  178.9870  139.9330 C   0  0  1  0  0  3  0  0  0  0  0  0
  181.4520  179.4630  138.0430 N   0  0  0  0  0  0  0  0  0  0  0  0
  183.2270  180.3850  139.2370 C   0  0  0  0  0  2  0  0  0  0  0  0
  182.8980  177.8610  138.9890 N   0  0  0  0  0  0  0  0  0  0  0  0
  182.7070  176.6460  139.7730 C   0  0  0  0  0  1  0  0  0  0  0  0
  180.8860  180.7490  138.6490 C   0  0  0  0  0  0  0  0  0  0  0  0
  189.3260  177.5240  144.8790 C   0  0  0  0  0  2  0  0  0  0  0  0
  189.1330  176.9160  146.1190 O   0  0  0  0  0  1  0  0  0  0  0  0
  1  4  2  0  0  0  0
  1  3  1  0  0  0  0
  2  4  1  0  0  0  0
  2  5  1  0  0  0  0
  3 18  2  0  0  0  0
  4 10  1  0  0  0  0
  5 11  1  6  0  0  0
  5 17  1  0  0  0  0
  6 20  2  0  0  0  0
  6 19  1  0  0  0  0
  7  2  2  0  0  0  0
  9  8  1  6  0  0  0
  9 11  1  0  0  0  0
 10 13  2  0  0  0  0
 10 12  1  0  0  0  0
 14  7  1  0  0  0  0
 14 15  2  0  0  0  0
 15  1  1  0  0  0  0
 16 20  1  6  0  0  0
 16  7  1  0  0  0  0
 16  9  1  0  0  0  0
 17 31  1  1  0  0  0
 17 12  1  0  0  0  0
 18 13  1  0  0  0  0
 19  8  2  0  0  0  0
 21 23  1  6  0  0  0
 21 28  1  0  0  0  0
 24 30  1  0  0  0  0
 24 27  1  1  0  0  0
 25 15  1  6  0  0  0
 26 24  1  0  0  0  0
 26 21  1  0  0  0  0
 26 30  1  0  0  0  0
 27 25  1  0  0  0  0
 28 29  1  0  0  0  0
 28 25  1  0  0  0  0
 30 22  2  0  0  0  0
 31 32  1  0  0  0  0
M  END
>  <MODEL>
2

>  <REMARK>
 VINA RESULT:     -10.7      2.174      5.136
  Name = 
  2 active torsions:
  status: ('A' for Active; 'I' for Inactive)
    1  A    between atoms: C_13  and  C_29
    2  A    between atoms: C_16  and  C_27
                            x       y       z     vdW  Elec       q    Type
                         _______ _______ _______ _____ _____    ______ ____

>  <TORSDO>
F 2

$$$$
=
 OpenBabel10272402113D

 32 38  0  0  1  0  0  0  0  0999 V2000
  189.4090  177.6100  141.7420 C   0  0  0  0  0  0  0  0  0  0  0  0
  188.6380  177.2810  144.0280 C   0  0  0  0  0  0  0  0  0  0  0  0
  190.4650  177.6720  140.8210 C   0  0  0  0  0  3  0  0  0  0  0  0
  189.6910  177.3500  143.1030 C   0  0  0  0  0  0  0  0  0  0  0  0
  188.9200  176.8880  145.4700 C   0  0  2  0  0  3  0  0  0  0  0  0
  184.2770  179.0120  145.1410 C   0  0  0  0  0  3  0  0  0  0  0  0
  187.3330  177.5640  143.6000 C   0  0  0  0  0  0  0  0  0  0  0  0
  185.7630  178.3430  146.9610 C   0  0  0  0  0  3  0  0  0  0  0  0
  186.8420  178.1150  145.9380 C   0  0  1  0  0  3  0  0  0  0  0  0
  191.0280  177.2070  143.5300 C   0  0  0  0  0  0  0  0  0  0  0  0
  187.8360  177.1650  146.4390 N   0  0  0  0  0  2  0  0  0  0  0  0
  191.3660  176.9450  144.9750 C   0  0  0  0  0  2  0  0  0  0  0  0
  192.0630  177.2650  142.5940 C   0  0  0  0  0  3  0  0  0  0  0  0
  187.0840  177.7980  142.2820 N   0  0  0  0  0  0  0  0  0  0  0  0
  188.0740  177.8160  141.3470 C   0  0  0  0  0  0  0  0  0  0  0  0
  186.2390  177.6110  144.6200 C   0  0  1  0  0  3  0  0  0  0  0  0
  190.2720  177.4460  145.9260 C   0  0  2  0  0  3  0  0  0  0  0  0
  191.7840  177.4960  141.2450 C   0  0  0  0  0  3  0  0  0  0  0  0
  184.5680  178.8070  146.5750 C   0  0  0  0  0  3  0  0  0  0  0  0
  185.0820  178.4890  144.2080 C   0  0  0  0  0  3  0  0  0  0  0  0
  185.8930  178.3270  138.2880 C   0  0  2  0  0  3  0  0  0  0  0  0
  189.0860  178.8810  136.2040 O   0  0  0  0  0  0  0  0  0  0  0  0
  184.5900  177.6360  137.9330 C   0  0  0  0  0  1  0  0  0  0  0  0
  188.0440  176.9720  137.5510 C   0  0  2  0  0  3  0  0  0  0  0  0
  187.7200  178.0800  139.9080 C   0  0  1  0  0  3  0  0  0  0  0  0
  186.9450  177.8080  137.4550 N   0  0  0  0  0  0  0  0  0  0  0  0
  188.5090  177.0680  139.0150 C   0  0  0  0  0  2  0  0  0  0  0  0
  186.2450  178.0440  139.6920 N   0  0  0  0  0  0  0  0  0  0  0  0
  185.6460  179.1240  140.4680 C   0  0  0  0  0  1  0  0  0  0  0  0
  188.3020  178.1120  136.8170 C   0  0  0  0  0  0  0  0  0  0  0  0
  190.5950  176.9910  147.3410 C   0  0  0  0  0  2  0  0  0  0  0  0
  191.9740  176.8470  147.4930 O   0  0  0  0  0  1  0  0  0  0  0  0
  1  4  1  0  0  0  0
  3 18  2  0  0  0  0
  3  1  1  0  0  0  0
  4 10  1  0  0  0  0
  4  2  2  0  0  0  0
  5  2  1  6  0  0  0
  5 17  1  0  0  0  0
  5 11  1  0  0  0  0
  6 19  1  0  0  0  0
  7  2  1  0  0  0  0
  7 16  1  0  0  0  0
  9 11  1  0  0  0  0
  9  8  1  1  0  0  0
 10 12  1  0  0  0  0
 12 17  1  0  0  0  0
 13 10  2  0  0  0  0
 14  7  2  0  0  0  0
 15  1  2  0  0  0  0
 15 14  1  0  0  0  0
 16 20  1  6  0  0  0
 16  9  1  0  0  0  0
 17 31  1  1  0  0  0
 18 13  1  0  0  0  0
 19  8  2  0  0  0  0
 20  6  2  0  0  0  0
 21 23  1  6  0  0  0
 21 28  1  0  0  0  0
 22 30  2  0  0  0  0
 24 27  1  1  0  0  0
 25 15  1  1  0  0  0
 26 24  1  0  0  0  0
 26 21  1  0  0  0  0
 27 25  1  0  0  0  0
 28 25  1  0  0  0  0
 28 29  1  0  0  0  0
 30 26  1  0  0  0  0
 30 24  1  0  0  0  0
 31 32  1  0  0  0  0
M  END
>  <MODEL>
3

>  <REMARK>
 VINA RESULT:     -10.5      2.630      4.311
  Name = 
  2 active torsions:
  status: ('A' for Active; 'I' for Inactive)
    1  A    between atoms: C_13  and  C_29
    2  A    between atoms: C_16  and  C_27
                            x       y       z     vdW  Elec       q    Type
                         _______ _______ _______ _____ _____    ______ ____

>  <TORSDO>
F 2

$$$$
=
 OpenBabel10272402113D

 32 38  0  0  1  0  0  0  0  0999 V2000
  189.8800  177.5590  142.8650 C   0  0  0  0  0  0  0  0  0  0  0  0
  187.8330  177.5470  144.1840 C   0  0  0  0  0  0  0  0  0  0  0  0
  191.2810  177.5720  142.8110 C   0  0  0  0  0  3  0  0  0  0  0  0
  189.2350  177.5660  144.1230 C   0  0  0  0  0  0  0  0  0  0  0  0
  187.1340  177.4370  145.5310 C   0  0  2  0  0  3  0  0  0  0  0  0
  183.7930  178.9780  141.9740 C   0  0  0  0  0  3  0  0  0  0  0  0
  187.0970  177.6140  142.9920 C   0  0  0  0  0  0  0  0  0  0  0  0
  183.7830  178.7880  144.4100 C   0  0  0  0  0  3  0  0  0  0  0  0
  185.2580  178.5030  144.3500 C   0  0  1  0  0  3  0  0  0  0  0  0
  190.0010  177.6380  145.3070 C   0  0  0  0  0  0  0  0  0  0  0  0
  185.6890  177.7610  145.5350 N   0  0  0  0  0  2  0  0  0  0  0  0
  189.3460  177.6640  146.6630 C   0  0  0  0  0  2  0  0  0  0  0  0
  191.3950  177.6430  145.2280 C   0  0  0  0  0  3  0  0  0  0  0  0
  187.7400  177.5930  141.7920 N   0  0  0  0  0  0  0  0  0  0  0  0
  189.0980  177.5540  141.6960 C   0  0  0  0  0  0  0  0  0  0  0  0
  185.6070  177.7210  143.0760 C   0  0  1  0  0  3  0  0  0  0  0  0
  187.9120  178.2020  146.6050 C   0  0  2  0  0  3  0  0  0  0  0  0
  192.0340  177.6090  143.9870 C   0  0  0  0  0  3  0  0  0  0  0  0
  183.1110  179.0520  143.2830 C   0  0  0  0  0  3  0  0  0  0  0  0
  184.9910  178.3900  141.8710 C   0  0  0  0  0  3  0  0  0  0  0  0
  189.3670  177.8110  137.9220 C   0  0  2  0  0  3  0  0  0  0  0  0
  193.1240  177.0130  138.2170 O   0  0  0  0  0  0  0  0  0  0  0  0
  188.3500  177.4010  136.8740 C   0  0  0  0  0  1  0  0  0  0  0  0
  190.9180  175.8230  138.7260 C   0  0  2  0  0  3  0  0  0  0  0  0
  189.7360  177.5300  140.3320 C   0  0  1  0  0  3  0  0  0  0  0  0
  190.4430  176.8560  137.9370 N   0  0  0  0  0  0  0  0  0  0  0  0
  190.4760  176.1630  140.1600 C   0  0  0  0  0  2  0  0  0  0  0  0
  188.7400  177.8100  139.2570 N   0  0  0  0  0  0  0  0  0  0  0  0
  188.2330  179.1630  139.4500 C   0  0  0  0  0  1  0  0  0  0  0  0
  191.9240  176.6420  138.2540 C   0  0  0  0  0  0  0  0  0  0  0  0
  187.2590  178.0320  147.9690 C   0  0  0  0  0  2  0  0  0  0  0  0
  188.2330  178.0380  148.9670 O   0  0  0  0  0  1  0  0  0  0  0  0
  1  4  1  0  0  0  0
  3  1  2  0  0  0  0
  3 18  1  0  0  0  0
  4  2  1  0  0  0  0
  4 10  2  0  0  0  0
  5  2  1  6  0  0  0
  5 11  1  0  0  0  0
  5 17  1  0  0  0  0
  6 19  1  0  0  0  0
  7 16  1  0  0  0  0
  7  2  2  0  0  0  0
  9  8  1  1  0  0  0
  9 11  1  0  0  0  0
 10 12  1  0  0  0  0
 13 10  1  0  0  0  0
 14  7  1  0  0  0  0
 15 14  2  0  0  0  0
 15  1  1  0  0  0  0
 16 20  1  6  0  0  0
 16  9  1  0  0  0  0
 17 12  1  0  0  0  0
 17 31  1  1  0  0  0
 18 13  2  0  0  0  0
 19  8  2  0  0  0  0
 20  6  2  0  0  0  0
 21 23  1  6  0  0  0
 21 26  1  0  0  0  0
 21 28  1  0  0  0  0
 22 30  2  0  0  0  0
 24 27  1  1  0  0  0
 25 15  1  1  0  0  0
 26 30  1  0  0  0  0
 26 24  1  0  0  0  0
 27 25  1  0  0  0  0
 28 29  1  0  0  0  0
 28 25  1  0  0  0  0
 30 24  1  0  0  0  0
 31 32  1  0  0  0  0
M  END
>  <MODEL>
4

>  <REMARK>
 VINA RESULT:     -10.0      2.943      6.397
  Name = 
  2 active torsions:
  status: ('A' for Active; 'I' for Inactive)
    1  A    between atoms: C_13  and  C_29
    2  A    between atoms: C_16  and  C_27
                            x       y       z     vdW  Elec       q    Type
                         _______ _______ _______ _____ _____    ______ ____

>  <TORSDO>
F 2

$$$$
=
 OpenBabel10272402113D

 32 38  0  0  1  0  0  0  0  0999 V2000
  189.0230  177.3120  142.6110 C   0  0  0  0  0  0  0  0  0  0  0  0
  187.1620  178.2840  141.3770 C   0  0  0  0  0  0  0  0  0  0  0  0
  190.2930  176.7170  142.6110 C   0  0  0  0  0  3  0  0  0  0  0  0
  188.4310  177.6820  141.3830 C   0  0  0  0  0  0  0  0  0  0  0  0
  186.5700  178.7900  140.0710 C   0  0  2  0  0  3  0  0  0  0  0  0
  182.8970  178.4590  143.6190 C   0  0  0  0  0  3  0  0  0  0  0  0
  186.4670  178.4210  142.5870 C   0  0  0  0  0  0  0  0  0  0  0  0
  182.9620  178.8490  141.2070 C   0  0  0  0  0  3  0  0  0  0  0  0
  184.4230  178.4940  141.2330 C   0  0  1  0  0  3  0  0  0  0  0  0
  189.0960  177.4050  140.1690 C   0  0  0  0  0  0  0  0  0  0  0  0
  185.1210  179.0930  140.0950 N   0  0  0  0  0  2  0  0  0  0  0  0
  188.4870  177.7720  138.8400 C   0  0  0  0  0  2  0  0  0  0  0  0
  190.3630  176.8180  140.1930 C   0  0  0  0  0  3  0  0  0  0  0  0
  187.0630  178.0700  143.7590 N   0  0  0  0  0  0  0  0  0  0  0  0
  188.3150  177.5360  143.8070 C   0  0  0  0  0  0  0  0  0  0  0  0
  185.0660  178.9470  142.5510 C   0  0  1  0  0  3  0  0  0  0  0  0
  186.9580  177.8700  138.9100 C   0  0  2  0  0  3  0  0  0  0  0  0
  190.9600  176.4760  141.4080 C   0  0  0  0  0  3  0  0  0  0  0  0
  182.2430  178.7880  142.3350 C   0  0  0  0  0  3  0  0  0  0  0  0
  184.2310  178.4880  143.7220 C   0  0  0  0  0  3  0  0  0  0  0  0
  188.6320  177.2990  147.5780 C   0  0  2  0  0  3  0  0  0  0  0  0
  191.9260  175.3600  147.0990 O   0  0  0  0  0  0  0  0  0  0  0  0
  188.2320  178.3220  148.6240 C   0  0  0  0  0  1  0  0  0  0  0  0
  191.0460  177.7030  146.5720 C   0  0  2  0  0  3  0  0  0  0  0  0
  188.9080  177.1740  145.1430 C   0  0  1  0  0  3  0  0  0  0  0  0
  190.0650  177.2850  147.4540 N   0  0  0  0  0  0  0  0  0  0  0  0
  190.3810  177.6970  145.1830 C   0  0  0  0  0  2  0  0  0  0  0  0
  188.0660  177.6730  146.2680 N   0  0  0  0  0  0  0  0  0  0  0  0
  186.7720  177.0030  146.1980 C   0  0  0  0  0  1  0  0  0  0  0  0
  191.2800  176.4380  147.0720 C   0  0  0  0  0  0  0  0  0  0  0  0
  186.4320  178.4130  137.5900 C   0  0  0  0  0  2  0  0  0  0  0  0
  187.4110  179.1920  136.9710 O   0  0  0  0  0  1  0  0  0  0  0  0
  1  3  1  0  0  0  0
  1 15  2  0  0  0  0
  2  4  2  0  0  0  0
  2  7  1  0  0  0  0
  4  1  1  0  0  0  0
  5 11  1  1  0  0  0
  5  2  1  0  0  0  0
  6 20  2  0  0  0  0
  7 14  2  0  0  0  0
  8 19  2  0  0  0  0
  9  8  1  1  0  0  0
  9 16  1  0  0  0  0
 10 13  2  0  0  0  0
 10  4  1  0  0  0  0
 11  9  1  0  0  0  0
 12 17  1  0  0  0  0
 12 10  1  0  0  0  0
 13 18  1  0  0  0  0
 14 15  1  0  0  0  0
 16  7  1  0  0  0  0
 16 20  1  1  0  0  0
 17 31  1  6  0  0  0
 17  5  1  0  0  0  0
 18  3  2  0  0  0  0
 19  6  1  0  0  0  0
 21 23  1  1  0  0  0
 24 27  1  6  0  0  0
 24 30  1  0  0  0  0
 24 26  1  0  0  0  0
 25 15  1  6  0  0  0
 25 27  1  0  0  0  0
 25 28  1  0  0  0  0
 26 21  1  0  0  0  0
 28 21  1  0  0  0  0
 29 28  1  0  0  0  0
 30 22  2  0  0  0  0
 30 26  1  0  0  0  0
 32 31  1  0  0  0  0
M  END
>  <MODEL>
5

>  <REMARK>
 VINA RESULT:      -9.8      1.908      6.741
  Name = 
  2 active torsions:
  status: ('A' for Active; 'I' for Inactive)
    1  A    between atoms: C_13  and  C_29
    2  A    between atoms: C_16  and  C_27
                            x       y       z     vdW  Elec       q    Type
                         _______ _______ _______ _____ _____    ______ ____

>  <TORSDO>
F 2

$$$$
=
 OpenBabel10272402113D

 32 38  0  0  1  0  0  0  0  0999 V2000
  185.8820  178.0480  144.1680 C   0  0  0  0  0  0  0  0  0  0  0  0
  188.1370  178.1070  143.2520 C   0  0  0  0  0  0  0  0  0  0  0  0
  185.0330  177.9350  145.2780 C   0  0  0  0  0  3  0  0  0  0  0  0
  187.2820  177.9890  144.3580 C   0  0  0  0  0  0  0  0  0  0  0  0
  189.6430  178.1610  143.4610 C   0  0  2  0  0  3  0  0  0  0  0  0
  188.6180  177.1600  138.5480 C   0  0  0  0  0  3  0  0  0  0  0  0
  187.5830  178.1890  141.9670 C   0  0  0  0  0  0  0  0  0  0  0  0
  190.6210  177.1560  139.9470 C   0  0  0  0  0  3  0  0  0  0  0  0
  189.7310  177.3340  141.1460 C   0  0  1  0  0  3  0  0  0  0  0  0
  187.8090  177.7660  145.6490 C   0  0  0  0  0  0  0  0  0  0  0  0
  190.4700  177.9450  142.2510 N   0  0  0  0  0  2  0  0  0  0  0  0
  189.2940  177.6810  145.8840 C   0  0  0  0  0  2  0  0  0  0  0  0
  186.9430  177.6640  146.7400 C   0  0  0  0  0  3  0  0  0  0  0  0
  186.2330  178.2580  141.8090 N   0  0  0  0  0  0  0  0  0  0  0  0
  185.3750  178.2040  142.8650 C   0  0  0  0  0  0  0  0  0  0  0  0
  188.5060  178.1870  140.7880 C   0  0  1  0  0  3  0  0  0  0  0  0
  190.0580  177.2570  144.6250 C   0  0  2  0  0  3  0  0  0  0  0  0
  185.5610  177.7480  146.5580 C   0  0  0  0  0  3  0  0  0  0  0  0
  190.0790  177.0330  138.7290 C   0  0  0  0  0  3  0  0  0  0  0  0
  187.8580  177.6630  139.5290 C   0  0  0  0  0  3  0  0  0  0  0  0
  182.1500  178.7590  140.9490 C   0  0  2  0  0  3  0  0  0  0  0  0
  180.1920  177.8700  144.1460 O   0  0  0  0  0  0  0  0  0  0  0  0
  181.8600  179.7810  139.8660 C   0  0  0  0  0  1  0  0  0  0  0  0
  181.8230  179.6960  143.4030 C   0  0  2  0  0  3  0  0  0  0  0  0
  183.8930  178.2880  142.6110 C   0  0  1  0  0  3  0  0  0  0  0  0
  181.4990  179.1630  142.1670 N   0  0  0  0  0  0  0  0  0  0  0  0
  183.2650  179.2360  143.6850 C   0  0  0  0  0  2  0  0  0  0  0  0
  183.6010  178.6990  141.2080 N   0  0  0  0  0  0  0  0  0  0  0  0
  184.1120  177.6640  140.3170 C   0  0  0  0  0  1  0  0  0  0  0  0
  180.8970  178.6760  143.4860 C   0  0  0  0  0  0  0  0  0  0  0  0
  191.5530  177.3660  144.8870 C   0  0  0  0  0  2  0  0  0  0  0  0
  191.8530  176.8610  146.1530 O   0  0  0  0  0  1  0  0  0  0  0  0
  1  4  2  0  0  0  0
  1  3  1  0  0  0  0
  2  5  1  0  0  0  0
  2  4  1  0  0  0  0
  3 18  2  0  0  0  0
  4 10  1  0  0  0  0
  5 11  1  6  0  0  0
  5 17  1  0  0  0  0
  6 19  1  0  0  0  0
  6 20  2  0  0  0  0
  7  2  2  0  0  0  0
  9  8  1  6  0  0  0
  9 11  1  0  0  0  0
 10 12  1  0  0  0  0
 10 13  2  0  0  0  0
 14  7  1  0  0  0  0
 14 15  2  0  0  0  0
 15  1  1  0  0  0  0
 16 20  1  6  0  0  0
 16  9  1  0  0  0  0
 16  7  1  0  0  0  0
 17 31  1  1  0  0  0
 17 12  1  0  0  0  0
 18 13  1  0  0  0  0
 19  8  2  0  0  0  0
 21 23  1  6  0  0  0
 21 28  1  0  0  0  0
 21 26  1  0  0  0  0
 24 30  1  0  0  0  0
 24 27  1  1  0  0  0
 25 15  1  6  0  0  0
 25 27  1  0  0  0  0
 26 24  1  0  0  0  0
 26 30  1  0  0  0  0
 28 25  1  0  0  0  0
 29 28  1  0  0  0  0
 30 22  2  0  0  0  0
 31 32  1  0  0  0  0
M  END
>  <MODEL>
6

>  <REMARK>
 VINA RESULT:      -9.8      1.684      4.686
  Name = 
  2 active torsions:
  status: ('A' for Active; 'I' for Inactive)
    1  A    between atoms: C_13  and  C_29
    2  A    between atoms: C_16  and  C_27
                            x       y       z     vdW  Elec       q    Type
                         _______ _______ _______ _____ _____    ______ ____

>  <TORSDO>
F 2

$$$$
=
 OpenBabel10272402113D

 32 38  0  0  1  0  0  0  0  0999 V2000
  186.1550  178.1700  143.6610 C   0  0  0  0  0  0  0  0  0  0  0  0
  188.4590  177.9900  142.8940 C   0  0  0  0  0  0  0  0  0  0  0  0
  185.2190  178.0930  144.7030 C   0  0  0  0  0  3  0  0  0  0  0  0
  187.5170  177.9090  143.9320 C   0  0  0  0  0  0  0  0  0  0  0  0
  189.9400  177.8250  143.2000 C   0  0  2  0  0  3  0  0  0  0  0  0
  189.1520  177.3290  138.1690 C   0  0  0  0  0  3  0  0  0  0  0  0
  188.0150  178.2390  141.5880 C   0  0  0  0  0  0  0  0  0  0  0  0
  191.0310  176.9530  139.6850 C   0  0  0  0  0  3  0  0  0  0  0  0
  190.0870  177.1630  140.8360 C   0  0  1  0  0  3  0  0  0  0  0  0
  187.9160  177.5240  145.2300 C   0  0  0  0  0  0  0  0  0  0  0  0
  190.8170  177.5870  142.0310 N   0  0  0  0  0  2  0  0  0  0  0  0
  189.3560  177.2230  145.5510 C   0  0  0  0  0  2  0  0  0  0  0  0
  186.9670  177.4610  146.2540 C   0  0  0  0  0  3  0  0  0  0  0  0
  186.7000  178.5010  141.3530 N   0  0  0  0  0  0  0  0  0  0  0  0
  185.7680  178.4870  142.3460 C   0  0  0  0  0  0  0  0  0  0  0  0
  189.0130  178.1980  140.4730 C   0  0  1  0  0  3  0  0  0  0  0  0
  190.1480  176.7910  144.3110 C   0  0  2  0  0  3  0  0  0  0  0  0
  185.6250  177.7450  145.9930 C   0  0  0  0  0  3  0  0  0  0  0  0
  190.5670  176.9930  138.4290 C   0  0  0  0  0  3  0  0  0  0  0  0
  188.3950  177.8580  139.1370 C   0  0  0  0  0  3  0  0  0  0  0  0
  182.0970  179.2550  142.9080 C   0  0  2  0  0  3  0  0  0  0  0  0
  181.6250  179.4020  139.0880 O   0  0  0  0  0  0  0  0  0  0  0  0
  181.1800  178.7300  143.9970 C   0  0  0  0  0  1  0  0  0  0  0  0
  182.2920  177.6410  140.8190 C   0  0  2  0  0  3  0  0  0  0  0  0
  184.3320  178.7890  142.0070 C   0  0  1  0  0  3  0  0  0  0  0  0
  181.7740  178.6070  141.6650 N   0  0  0  0  0  0  0  0  0  0  0  0
  183.8160  177.6840  141.0280 C   0  0  0  0  0  2  0  0  0  0  0  0
  183.4990  178.9350  143.2360 N   0  0  0  0  0  0  0  0  0  0  0  0
  183.9950  180.0830  143.9860 C   0  0  0  0  0  1  0  0  0  0  0  0
  181.8010  178.7380  140.1410 C   0  0  0  0  0  0  0  0  0  0  0  0
  191.6220  176.6780  144.6740 C   0  0  0  0  0  2  0  0  0  0  0  0
  191.8040  176.9780  146.0240 O   0  0  0  0  0  1  0  0  0  0  0  0
  1  4  2  0  0  0  0
  1  3  1  0  0  0  0
  2  5  1  0  0  0  0
  2  4  1  0  0  0  0
  3 18  2  0  0  0  0
  4 10  1  0  0  0  0
  5 11  1  6  0  0  0
  5 17  1  0  0  0  0
  6 19  1  0  0  0  0
  6 20  2  0  0  0  0
  7  2  2  0  0  0  0
  9  8  1  6  0  0  0
  9 11  1  0  0  0  0
 10 12  1  0  0  0  0
 10 13  2  0  0  0  0
 14  7  1  0  0  0  0
 14 15  2  0  0  0  0
 15  1  1  0  0  0  0
 16 20  1  6  0  0  0
 16  9  1  0  0  0  0
 16  7  1  0  0  0  0
 17 31  1  1  0  0  0
 17 12  1  0  0  0  0
 18 13  1  0  0  0  0
 19  8  2  0  0  0  0
 21 28  1  0  0  0  0
 21 23  1  1  0  0  0
 22 30  2  0  0  0  0
 24 27  1  1  0  0  0
 24 26  1  0  0  0  0
 25 15  1  1  0  0  0
 25 28  1  0  0  0  0
 26 21  1  0  0  0  0
 27 25  1  0  0  0  0
 28 29  1  0  0  0  0
 30 24  1  0  0  0  0
 30 26  1  0  0  0  0
 31 32  1  0  0  0  0
M  END
>  <MODEL>
7

>  <REMARK>
 VINA RESULT:      -9.0      1.386      4.353
  Name = 
  2 active torsions:
  status: ('A' for Active; 'I' for Inactive)
    1  A    between atoms: C_13  and  C_29
    2  A    between atoms: C_16  and  C_27
                            x       y       z     vdW  Elec       q    Type
                         _______ _______ _______ _____ _____    ______ ____

>  <TORSDO>
F 2

$$$$
=
 OpenBabel10272402113D

 32 38  0  0  1  0  0  0  0  0999 V2000
  185.8970  178.3720  144.0810 C   0  0  0  0  0  0  0  0  0  0  0  0
  185.5080  178.1200  141.6900 C   0  0  0  0  0  0  0  0  0  0  0  0
  185.4020  178.6580  145.3610 C   0  0  0  0  0  3  0  0  0  0  0  0
  185.0190  178.4120  142.9740 C   0  0  0  0  0  0  0  0  0  0  0  0
  184.5490  178.0470  140.5120 C   0  0  2  0  0  3  0  0  0  0  0  0
  189.3570  178.4130  138.8000 C   0  0  0  0  0  3  0  0  0  0  0  0
  186.8800  177.8840  141.5200 C   0  0  0  0  0  0  0  0  0  0  0  0
  187.1340  178.5420  137.7950 C   0  0  0  0  0  3  0  0  0  0  0  0
  186.5550  178.5530  139.1830 C   0  0  1  0  0  3  0  0  0  0  0  0
  183.6710  178.7880  143.1560 C   0  0  0  0  0  0  0  0  0  0  0  0
  185.1730  178.0730  139.1700 N   0  0  0  0  0  2  0  0  0  0  0  0
  182.7130  178.8570  141.9960 C   0  0  0  0  0  2  0  0  0  0  0  0
  183.1990  179.0630  144.4420 C   0  0  0  0  0  3  0  0  0  0  0  0
  187.7030  177.8370  142.6030 N   0  0  0  0  0  0  0  0  0  0  0  0
  187.2520  178.0590  143.8690 C   0  0  0  0  0  0  0  0  0  0  0  0
  187.4070  177.6990  140.1310 C   0  0  1  0  0  3  0  0  0  0  0  0
  183.4330  179.0850  140.6620 C   0  0  2  0  0  3  0  0  0  0  0  0
  184.0590  178.9980  145.5400 C   0  0  0  0  0  3  0  0  0  0  0  0
  188.4620  178.5180  137.6290 C   0  0  0  0  0  3  0  0  0  0  0  0
  188.8650  178.0700  139.9970 C   0  0  0  0  0  3  0  0  0  0  0  0
  190.5450  177.5410  145.6760 C   0  0  2  0  0  3  0  0  0  0  0  0
  188.7780  178.4260  148.9820 O   0  0  0  0  0  0  0  0  0  0  0  0
  191.6350  176.5270  145.3790 C   0  0  0  0  0  1  0  0  0  0  0  0
  188.6060  176.5920  147.2070 C   0  0  2  0  0  3  0  0  0  0  0  0
  188.2250  177.9880  145.0160 C   0  0  1  0  0  3  0  0  0  0  0  0
  189.8300  177.1340  146.8560 N   0  0  0  0  0  0  0  0  0  0  0  0
  187.6270  177.0390  146.1070 C   0  0  0  0  0  2  0  0  0  0  0  0
  189.5860  177.5880  144.5570 N   0  0  0  0  0  0  0  0  0  0  0  0
  190.0840  178.6240  143.6600 C   0  0  0  0  0  1  0  0  0  0  0  0
  188.9960  177.6190  148.0430 C   0  0  0  0  0  0  0  0  0  0  0  0
  182.4280  178.9650  139.5260 C   0  0  0  0  0  2  0  0  0  0  0  0
  182.4230  180.1370  138.7680 O   0  0  0  0  0  1  0  0  0  0  0  0
  1  3  1  0  0  0  0
  2  4  1  0  0  0  0
  3 18  2  0  0  0  0
  4 10  1  0  0  0  0
  4  1  2  0  0  0  0
  5 11  1  6  0  0  0
  5 17  1  0  0  0  0
  5  2  1  0  0  0  0
  6 20  2  0  0  0  0
  7  2  2  0  0  0  0
  7 14  1  0  0  0  0
  9  8  1  6  0  0  0
  9 16  1  0  0  0  0
 10 13  2  0  0  0  0
 11  9  1  0  0  0  0
 12 10  1  0  0  0  0
 13 18  1  0  0  0  0
 14 15  2  0  0  0  0
 15  1  1  0  0  0  0
 16 20  1  1  0  0  0
 16  7  1  0  0  0  0
 17 31  1  6  0  0  0
 17 12  1  0  0  0  0
 19  8  2  0  0  0  0
 19  6  1  0  0  0  0
 21 23  1  6  0  0  0
 21 26  1  0  0  0  0
 24 27  1  6  0  0  0
 24 30  1  0  0  0  0
 25 15  1  6  0  0  0
 25 27  1  0  0  0  0
 26 24  1  0  0  0  0
 26 30  1  0  0  0  0
 28 25  1  0  0  0  0
 28 21  1  0  0  0  0
 29 28  1  0  0  0  0
 30 22  2  0  0  0  0
 32 31  1  0  0  0  0
M  END
>  <MODEL>
8

>  <REMARK>
 VINA RESULT:      -9.0      2.106      7.750
  Name = 
  2 active torsions:
  status: ('A' for Active; 'I' for Inactive)
    1  A    between atoms: C_13  and  C_29
    2  A    between atoms: C_16  and  C_27
                            x       y       z     vdW  Elec       q    Type
                         _______ _______ _______ _____ _____    ______ ____

>  <TORSDO>
F 2

$$$$
=
 OpenBabel10272402113D

 32 38  0  0  1  0  0  0  0  0999 V2000
  186.9120  178.2950  141.5510 C   0  0  0  0  0  0  0  0  0  0  0  0
  188.1490  177.4590  139.6280 C   0  0  0  0  0  0  0  0  0  0  0  0
  185.7560  178.8900  142.0780 C   0  0  0  0  0  3  0  0  0  0  0  0
  186.9970  178.0590  140.1600 C   0  0  0  0  0  0  0  0  0  0  0  0
  188.2010  177.0950  138.1510 C   0  0  2  0  0  3  0  0  0  0  0  0
  192.9270  177.0320  140.1120 C   0  0  0  0  0  3  0  0  0  0  0  0
  189.2320  177.1890  140.4760 C   0  0  0  0  0  0  0  0  0  0  0  0
  191.9690  176.9050  137.8680 C   0  0  0  0  0  3  0  0  0  0  0  0
  190.6350  177.2590  138.4650 C   0  0  1  0  0  3  0  0  0  0  0  0
  185.9470  178.4670  139.3100 C   0  0  0  0  0  0  0  0  0  0  0  0
  189.5450  176.7890  137.6100 N   0  0  0  0  0  2  0  0  0  0  0  0
  186.0120  178.2460  137.8220 C   0  0  0  0  0  2  0  0  0  0  0  0
  184.8020  179.0520  139.8580 C   0  0  0  0  0  3  0  0  0  0  0  0
  189.1220  177.4130  141.8140 N   0  0  0  0  0  0  0  0  0  0  0  0
  187.9980  177.9410  142.3730 C   0  0  0  0  0  0  0  0  0  0  0  0
  190.5000  176.6670  139.8750 C   0  0  1  0  0  3  0  0  0  0  0  0
  187.4540  178.1370  137.3140 C   0  0  2  0  0  3  0  0  0  0  0  0
  184.7060  179.2610  141.2360 C   0  0  0  0  0  3  0  0  0  0  0  0
  193.0530  176.8420  138.6510 C   0  0  0  0  0  3  0  0  0  0  0  0
  191.7240  176.9940  140.6960 C   0  0  0  0  0  3  0  0  0  0  0  0
  189.2070  178.0240  145.9650 C   0  0  2  0  0  3  0  0  0  0  0  0
  185.7470  179.3510  147.0150 O   0  0  0  0  0  0  0  0  0  0  0  0
  190.1500  177.0630  146.6660 C   0  0  0  0  0  1  0  0  0  0  0  0
  186.6860  177.2180  145.9620 C   0  0  2  0  0  3  0  0  0  0  0  0
  187.9510  178.1570  143.8620 C   0  0  1  0  0  3  0  0  0  0  0  0
  187.8640  177.7830  146.4200 N   0  0  0  0  0  0  0  0  0  0  0  0
  186.7200  177.3780  144.4320 C   0  0  0  0  0  2  0  0  0  0  0  0
  189.2430  177.7900  144.5100 N   0  0  0  0  0  0  0  0  0  0  0  0
  190.2760  178.6820  143.9970 C   0  0  0  0  0  1  0  0  0  0  0  0
  186.4830  178.4070  146.6330 C   0  0  0  0  0  0  0  0  0  0  0  0
  187.4380  177.7390  135.8450 C   0  0  0  0  0  2  0  0  0  0  0  0
  186.1370  177.4270  135.4510 O   0  0  0  0  0  1  0  0  0  0  0  0
  1  3  1  0  0  0  0
  1 15  2  0  0  0  0
  2  4  2  0  0  0  0
  2  7  1  0  0  0  0
  4  1  1  0  0  0  0
  5 11  1  6  0  0  0
  5  2  1  0  0  0  0
  6 20  2  0  0  0  0
  7 14  2  0  0  0  0
  8 19  2  0  0  0  0
  9  8  1  6  0  0  0
  9 16  1  0  0  0  0
 10 13  2  0  0  0  0
 10  4  1  0  0  0  0
 11  9  1  0  0  0  0
 12 10  1  0  0  0  0
 13 18  1  0  0  0  0
 14 15  1  0  0  0  0
 16  7  1  0  0  0  0
 16 20  1  1  0  0  0
 17 31  1  6  0  0  0
 17 12  1  0  0  0  0
 17  5  1  0  0  0  0
 18  3  2  0  0  0  0
 19  6  1  0  0  0  0
 21 26  1  0  0  0  0
 21 23  1  1  0  0  0
 24 27  1  6  0  0  0
 24 26  1  0  0  0  0
 24 30  1  0  0  0  0
 25 15  1  6  0  0  0
 25 27  1  0  0  0  0
 25 28  1  0  0  0  0
 26 30  1  0  0  0  0
 28 21  1  0  0  0  0
 29 28  1  0  0  0  0
 30 22  2  0  0  0  0
 32 31  1  0  0  0  0
M  END
>  <MODEL>
9

>  <REMARK>
 VINA RESULT:      -9.0      3.052      6.884
  Name = 
  2 active torsions:
  status: ('A' for Active; 'I' for Inactive)
    1  A    between atoms: C_13  and  C_29
    2  A    between atoms: C_16  and  C_27
                            x       y       z     vdW  Elec       q    Type
                         _______ _______ _______ _____ _____    ______ ____

>  <TORSDO>
F 2

$$$$
