=
 OpenBabel10262423543D

 34 39  0  0  1  0  0  0  0  0999 V2000
  188.5330  177.3560  137.3630 C   0  0  0  0  0  0  0  0  0  0  0  0
  186.0950  176.7480  137.4720 C   0  0  0  0  0  0  0  0  0  0  0  0
  187.0930  178.0270  139.3730 C   0  0  0  0  0  0  0  0  0  0  0  0
  185.9140  178.7730  141.4600 C   0  0  1  0  0  3  0  0  0  0  0  0
  187.4000  175.9440  135.5820 C   0  0  0  0  0  2  0  0  0  0  0  0
  186.4920  175.5170  136.7260 C   0  0  0  0  0  2  0  0  0  0  0  0
  184.7730  178.9380  139.1760 C   0  0  0  0  0  0  0  0  0  0  0  0
  187.1430  177.7520  137.8770 C   0  0  1  0  0  3  0  0  0  0  0  0
  184.2400  178.2660  138.1350 C   0  0  0  0  0  0  0  0  0  0  0  0
  184.5980  178.3260  142.0750 C   0  0  0  0  0  1  0  0  0  0  0  0
  188.7110  176.5210  136.1180 C   0  0  0  0  0  2  0  0  0  0  0  0
  188.3740  177.8010  140.1660 C   0  0  2  0  0  3  0  0  0  0  0  0
  189.6360  177.6450  138.0640 C   0  0  0  0  0  3  0  0  0  0  0  0
  184.7990  177.0300  137.5590 C   0  0  0  0  0  3  0  0  0  0  0  0
  187.0380  178.1110  142.2380 C   0  0  0  0  0  2  0  0  0  0  0  0
  188.3580  178.4170  141.5660 C   0  0  1  0  0  3  0  0  0  0  0  0
  184.1440  180.1080  139.6010 O   0  0  0  0  0  1  0  0  0  0  0  0
  185.9560  178.4820  139.9660 C   0  0  0  0  0  0  0  0  0  0  0  0
  189.5480  178.3640  139.3710 C   0  0  0  0  0  2  0  0  0  0  0  0
  191.4310  178.3080  143.8180 C   0  0  0  0  0  0  0  0  0  0  0  0
  191.6100  176.9290  143.9570 C   0  0  0  0  0  3  0  0  0  0  0  0
  189.4970  177.9160  142.4040 C   0  0  0  0  0  0  0  0  0  0  0  0
  190.7350  176.0430  143.3200 C   0  0  0  0  0  3  0  0  0  0  0  0
  190.3770  178.8020  143.0430 C   0  0  0  0  0  3  0  0  0  0  0  0
  189.6810  176.5360  142.5450 C   0  0  0  0  0  3  0  0  0  0  0  0
  192.2780  179.1670  144.4340 F   0  0  0  0  0  0  0  0  0  0  0  0
  182.9720  178.7580  137.5090 C   0  0  0  0  0  2  0  0  0  0  0  0
  180.3130  178.8630  136.0540 C   0  0  0  0  0  1  0  0  0  0  0  0
  181.8000  177.8280  137.8280 C   0  0  2  0  0  3  0  0  0  0  0  0
  180.4480  178.4870  137.5190 C   0  0  1  0  0  3  0  0  0  0  0  0
  180.7480  179.5550  139.8290 C   0  0  0  0  0  2  0  0  0  0  0  0
  180.9010  178.0920  140.2330 C   0  0  0  0  0  2  0  0  0  0  0  0
  181.8700  177.3590  139.2950 C   0  0  0  0  0  2  0  0  0  0  0  0
  180.1490  179.6920  138.4220 C   0  0  0  0  0  2  0  0  0  0  0  0
  1 13  2  0  0  0  0
  2 14  2  0  0  0  0
  2  8  1  0  0  0  0
  3 18  2  0  0  0  0
  3 12  1  0  0  0  0
  4 10  1  1  0  0  0
  4 15  1  0  0  0  0
  5 11  1  0  0  0  0
  5  6  1  0  0  0  0
  6  2  1  0  0  0  0
  7 17  1  0  0  0  0
  7 18  1  0  0  0  0
  8  1  1  1  0  0  0
  8  3  1  0  0  0  0
  9  7  2  0  0  0  0
 11  1  1  0  0  0  0
 12 19  1  6  0  0  0
 12 16  1  0  0  0  0
 13 19  1  0  0  0  0
 14  9  1  0  0  0  0
 16 15  1  0  0  0  0
 16 22  1  1  0  0  0
 18  4  1  0  0  0  0
 20 21  1  0  0  0  0
 20 26  1  0  0  0  0
 22 25  2  0  0  0  0
 22 24  1  0  0  0  0
 23 21  2  0  0  0  0
 24 20  2  0  0  0  0
 25 23  1  0  0  0  0
 27  9  1  0  0  0  0
 29 27  1  1  0  0  0
 29 33  1  0  0  0  0
 30 28  1  6  0  0  0
 30 29  1  0  0  0  0
 30 34  1  0  0  0  0
 31 32  1  0  0  0  0
 33 32  1  0  0  0  0
 34 31  1  0  0  0  0
M  END
>  <MODEL>
1

>  <REMARK>
 VINA RESULT:      -8.2      0.000      0.000
  Name = 
  3 active torsions:
  status: ('A' for Active; 'I' for Inactive)
    1  A    between atoms: C_3  and  C_13
    2  A    between atoms: C_3  and  C_17
    3  A    between atoms: C_12  and  C_28
                            x       y       z     vdW  Elec       q    Type
                         _______ _______ _______ _____ _____    ______ ____

>  <TORSDO>
F 3

$$$$
=
 OpenBabel10262423543D

 34 39  0  0  1  0  0  0  0  0999 V2000
  186.4470  177.4270  143.0760 C   0  0  0  0  0  0  0  0  0  0  0  0
  187.3630  178.6470  141.0760 C   0  0  0  0  0  0  0  0  0  0  0  0
  188.9130  177.2160  142.4160 C   0  0  0  0  0  0  0  0  0  0  0  0
  191.3650  176.8680  142.0020 C   0  0  1  0  0  3  0  0  0  0  0  0
  185.0390  179.0240  141.6920 C   0  0  0  0  0  2  0  0  0  0  0  0
  186.3710  179.7080  141.4200 C   0  0  0  0  0  2  0  0  0  0  0  0
  189.7010  176.9290  140.0600 C   0  0  0  0  0  0  0  0  0  0  0  0
  187.4820  177.4200  141.9430 C   0  0  1  0  0  3  0  0  0  0  0  0
  188.8500  177.6800  139.3320 C   0  0  0  0  0  0  0  0  0  0  0  0
  192.3570  177.6600  141.1650 C   0  0  0  0  0  1  0  0  0  0  0  0
  185.1270  178.1470  142.9410 C   0  0  0  0  0  2  0  0  0  0  0  0
  189.1450  177.1300  143.9190 C   0  0  2  0  0  3  0  0  0  0  0  0
  186.7260  176.8870  144.2680 C   0  0  0  0  0  3  0  0  0  0  0  0
  187.9550  178.7110  139.8880 C   0  0  0  0  0  3  0  0  0  0  0  0
  191.5840  177.2440  143.4570 C   0  0  0  0  0  2  0  0  0  0  0  0
  190.5210  176.5850  144.3090 C   0  0  1  0  0  3  0  0  0  0  0  0
  190.4740  175.9750  139.3990 O   0  0  0  0  0  1  0  0  0  0  0  0
  189.9360  177.0890  141.5260 C   0  0  0  0  0  0  0  0  0  0  0  0
  188.0550  176.2570  144.5340 C   0  0  0  0  0  2  0  0  0  0  0  0
  190.2850  177.8120  147.9090 C   0  0  0  0  0  0  0  0  0  0  0  0
  191.3950  177.1800  148.4780 C   0  0  0  0  0  3  0  0  0  0  0  0
  190.8110  176.8030  145.7640 C   0  0  0  0  0  0  0  0  0  0  0  0
  192.2120  176.3620  147.6930 C   0  0  0  0  0  3  0  0  0  0  0  0
  189.9930  177.6250  146.5550 C   0  0  0  0  0  3  0  0  0  0  0  0
  191.9210  176.1740  146.3390 C   0  0  0  0  0  3  0  0  0  0  0  0
  189.4930  178.6060  148.6690 F   0  0  0  0  0  0  0  0  0  0  0  0
  188.8010  177.5120  137.8450 C   0  0  0  0  0  2  0  0  0  0  0  0
  189.4790  175.0690  136.1810 C   0  0  0  0  0  1  0  0  0  0  0  0
  187.7710  176.4550  137.4420 C   0  0  2  0  0  3  0  0  0  0  0  0
  188.1380  175.7770  136.1140 C   0  0  1  0  0  3  0  0  0  0  0  0
  187.0240  177.8350  135.0700 C   0  0  0  0  0  2  0  0  0  0  0  0
  185.8720  177.3790  135.9590 C   0  0  0  0  0  2  0  0  0  0  0  0
  186.3610  177.0730  137.3820 C   0  0  0  0  0  2  0  0  0  0  0  0
  188.0870  176.7390  134.9180 C   0  0  0  0  0  2  0  0  0  0  0  0
  1 13  2  0  0  0  0
  2  6  1  0  0  0  0
  3 12  1  0  0  0  0
  4 10  1  6  0  0  0
  4 15  1  0  0  0  0
  5 11  1  0  0  0  0
  6  5  1  0  0  0  0
  7 18  1  0  0  0  0
  8  2  1  1  0  0  0
  8  3  1  0  0  0  0
  8  1  1  0  0  0  0
  9 14  1  0  0  0  0
  9  7  2  0  0  0  0
 11  1  1  0  0  0  0
 12 16  1  0  0  0  0
 12 19  1  1  0  0  0
 13 19  1  0  0  0  0
 14  2  2  0  0  0  0
 15 16  1  0  0  0  0
 16 22  1  1  0  0  0
 17  7  1  0  0  0  0
 18  4  1  0  0  0  0
 18  3  2  0  0  0  0
 20 21  1  0  0  0  0
 20 26  1  0  0  0  0
 22 25  2  0  0  0  0
 22 24  1  0  0  0  0
 23 21  2  0  0  0  0
 24 20  2  0  0  0  0
 25 23  1  0  0  0  0
 27  9  1  0  0  0  0
 29 27  1  6  0  0  0
 30 28  1  1  0  0  0
 30 29  1  0  0  0  0
 31 32  1  0  0  0  0
 32 33  1  0  0  0  0
 33 29  1  0  0  0  0
 34 31  1  0  0  0  0
 34 30  1  0  0  0  0
M  END
>  <MODEL>
2

>  <REMARK>
 VINA RESULT:      -7.4      3.068      5.958
  Name = 
  3 active torsions:
  status: ('A' for Active; 'I' for Inactive)
    1  A    between atoms: C_3  and  C_13
    2  A    between atoms: C_3  and  C_17
    3  A    between atoms: C_12  and  C_28
                            x       y       z     vdW  Elec       q    Type
                         _______ _______ _______ _____ _____    ______ ____

>  <TORSDO>
F 3

$$$$
=
 OpenBabel10262423543D

 34 39  0  0  1  0  0  0  0  0999 V2000
  186.4370  177.4190  143.1370 C   0  0  0  0  0  0  0  0  0  0  0  0
  187.3440  178.6060  141.1130 C   0  0  0  0  0  0  0  0  0  0  0  0
  188.9020  177.2030  142.4730 C   0  0  0  0  0  0  0  0  0  0  0  0
  191.3530  176.8550  142.0580 C   0  0  1  0  0  3  0  0  0  0  0  0
  185.0200  178.9870  141.7290 C   0  0  0  0  0  2  0  0  0  0  0  0
  186.3490  179.6700  141.4410 C   0  0  0  0  0  2  0  0  0  0  0  0
  189.6830  176.8770  140.1200 C   0  0  0  0  0  0  0  0  0  0  0  0
  187.4680  177.3950  142.0010 C   0  0  1  0  0  3  0  0  0  0  0  0
  188.8270  177.6130  139.3810 C   0  0  0  0  0  0  0  0  0  0  0  0
  192.3400  177.6350  141.2040 C   0  0  0  0  0  1  0  0  0  0  0  0
  185.1150  178.1330  142.9940 C   0  0  0  0  0  2  0  0  0  0  0  0
  189.1390  177.1450  143.9760 C   0  0  2  0  0  3  0  0  0  0  0  0
  186.7220  176.9000  144.3380 C   0  0  0  0  0  3  0  0  0  0  0  0
  187.9310  178.6500  139.9220 C   0  0  0  0  0  3  0  0  0  0  0  0
  191.5760  177.2570  143.5050 C   0  0  0  0  0  2  0  0  0  0  0  0
  190.5170  176.6110  144.3710 C   0  0  1  0  0  3  0  0  0  0  0  0
  190.4570  175.9130  139.4730 O   0  0  0  0  0  1  0  0  0  0  0  0
  189.9220  177.0640  141.5830 C   0  0  0  0  0  0  0  0  0  0  0  0
  188.0530  176.2800  144.6100 C   0  0  0  0  0  2  0  0  0  0  0  0
  192.1330  176.4630  147.8190 C   0  0  0  0  0  0  0  0  0  0  0  0
  191.3160  177.3450  148.5340 C   0  0  0  0  0  3  0  0  0  0  0  0
  190.8110  176.8550  145.8220 C   0  0  0  0  0  0  0  0  0  0  0  0
  190.2470  177.9800  147.8950 C   0  0  0  0  0  3  0  0  0  0  0  0
  191.8820  176.2180  146.4660 C   0  0  0  0  0  3  0  0  0  0  0  0
  189.9950  177.7360  146.5420 C   0  0  0  0  0  3  0  0  0  0  0  0
  193.1690  175.8470  148.4380 F   0  0  0  0  0  0  0  0  0  0  0  0
  188.7750  177.4180  137.8980 C   0  0  0  0  0  2  0  0  0  0  0  0
  188.9100  174.5470  136.9300 C   0  0  0  0  0  1  0  0  0  0  0  0
  187.5420  176.6070  137.4910 C   0  0  2  0  0  3  0  0  0  0  0  0
  187.8810  175.5460  136.4330 C   0  0  1  0  0  3  0  0  0  0  0  0
  187.6340  177.4980  134.7900 C   0  0  0  0  0  2  0  0  0  0  0  0
  186.2750  177.6020  135.4750 C   0  0  0  0  0  2  0  0  0  0  0  0
  186.4200  177.5440  137.0020 C   0  0  0  0  0  2  0  0  0  0  0  0
  188.3150  176.1560  135.0920 C   0  0  0  0  0  2  0  0  0  0  0  0
  1 13  2  0  0  0  0
  2  6  1  0  0  0  0
  3 12  1  0  0  0  0
  4 10  1  6  0  0  0
  4 15  1  0  0  0  0
  5 11  1  0  0  0  0
  6  5  1  0  0  0  0
  7 18  1  0  0  0  0
  8  2  1  1  0  0  0
  8  3  1  0  0  0  0
  8  1  1  0  0  0  0
  9 14  1  0  0  0  0
  9  7  2  0  0  0  0
 11  1  1  0  0  0  0
 12 16  1  0  0  0  0
 12 19  1  1  0  0  0
 13 19  1  0  0  0  0
 14  2  2  0  0  0  0
 15 16  1  0  0  0  0
 16 22  1  1  0  0  0
 17  7  1  0  0  0  0
 18  4  1  0  0  0  0
 18  3  2  0  0  0  0
 20 26  1  0  0  0  0
 20 21  1  0  0  0  0
 22 24  1  0  0  0  0
 22 25  2  0  0  0  0
 23 21  2  0  0  0  0
 24 20  2  0  0  0  0
 25 23  1  0  0  0  0
 27  9  1  0  0  0  0
 29 27  1  6  0  0  0
 30 28  1  1  0  0  0
 30 29  1  0  0  0  0
 31 34  1  0  0  0  0
 31 32  1  0  0  0  0
 32 33  1  0  0  0  0
 33 29  1  0  0  0  0
 34 30  1  0  0  0  0
M  END
>  <MODEL>
3

>  <REMARK>
 VINA RESULT:      -7.4      3.137      6.043
  Name = 
  3 active torsions:
  status: ('A' for Active; 'I' for Inactive)
    1  A    between atoms: C_3  and  C_13
    2  A    between atoms: C_3  and  C_17
    3  A    between atoms: C_12  and  C_28
                            x       y       z     vdW  Elec       q    Type
                         _______ _______ _______ _____ _____    ______ ____

>  <TORSDO>
F 3

$$$$
=
 OpenBabel10262423543D

 34 39  0  0  1  0  0  0  0  0999 V2000
  186.8730  177.6530  138.2070 C   0  0  0  0  0  0  0  0  0  0  0  0
  188.2540  178.5040  140.1290 C   0  0  0  0  0  0  0  0  0  0  0  0
  185.7950  178.2080  140.4640 C   0  0  0  0  0  0  0  0  0  0  0  0
  184.4960  178.7080  142.5530 C   0  0  1  0  0  3  0  0  0  0  0  0
  189.3570  178.1360  137.9910 C   0  0  0  0  0  2  0  0  0  0  0  0
  189.0880  179.1630  139.0810 C   0  0  0  0  0  2  0  0  0  0  0  0
  186.7900  177.5820  142.6700 C   0  0  0  0  0  0  0  0  0  0  0  0
  187.0340  177.7150  139.7310 C   0  0  1  0  0  3  0  0  0  0  0  0
  188.1200  177.7160  142.4850 C   0  0  0  0  0  0  0  0  0  0  0  0
  184.8540  179.5410  143.7730 C   0  0  0  0  0  1  0  0  0  0  0  0
  188.0600  177.7520  137.2790 C   0  0  0  0  0  2  0  0  0  0  0  0
  184.6120  178.6470  139.6120 C   0  0  2  0  0  3  0  0  0  0  0  0
  185.6600  177.6210  137.6420 C   0  0  0  0  0  3  0  0  0  0  0  0
  188.7410  178.4450  141.3640 C   0  0  0  0  0  3  0  0  0  0  0  0
  183.5660  179.5360  141.6840 C   0  0  0  0  0  2  0  0  0  0  0  0
  183.3020  178.7970  140.3900 C   0  0  1  0  0  3  0  0  0  0  0  0
  186.3460  176.8440  143.7670 O   0  0  0  0  0  1  0  0  0  0  0  0
  185.7440  178.2290  141.8230 C   0  0  0  0  0  0  0  0  0  0  0  0
  184.4230  177.6420  138.4790 C   0  0  0  0  0  2  0  0  0  0  0  0
  181.5240  181.4110  138.2630 C   0  0  0  0  0  0  0  0  0  0  0  0
  180.2740  180.8090  138.0920 C   0  0  0  0  0  3  0  0  0  0  0  0
  182.2590  179.5120  139.5860 C   0  0  0  0  0  0  0  0  0  0  0  0
  180.0150  179.5610  138.6680 C   0  0  0  0  0  3  0  0  0  0  0  0
  182.5150  180.7650  139.0080 C   0  0  0  0  0  3  0  0  0  0  0  0
  181.0050  178.9150  139.4130 C   0  0  0  0  0  3  0  0  0  0  0  0
  181.7760  182.6190  137.7050 F   0  0  0  0  0  0  0  0  0  0  0  0
  189.0690  177.1260  143.4810 C   0  0  0  0  0  2  0  0  0  0  0  0
  191.6040  178.7900  143.4950 C   0  0  0  0  0  1  0  0  0  0  0  0
  189.4100  178.1320  144.5830 C   0  0  2  0  0  3  0  0  0  0  0  0
  190.9270  178.2920  144.7600 C   0  0  1  0  0  3  0  0  0  0  0  0
  190.7070  176.1840  146.2010 C   0  0  0  0  0  2  0  0  0  0  0  0
  189.6780  177.0560  146.9130 C   0  0  0  0  0  2  0  0  0  0  0  0
  188.7330  177.7290  145.9070 C   0  0  0  0  0  2  0  0  0  0  0  0
  191.6070  177.0150  145.2760 C   0  0  0  0  0  2  0  0  0  0  0  0
  2 14  2  0  0  0  0
  3 18  2  0  0  0  0
  4 10  1  1  0  0  0
  5  6  1  0  0  0  0
  6  2  1  0  0  0  0
  7 17  1  0  0  0  0
  8  1  1  6  0  0  0
  8  2  1  0  0  0  0
  8  3  1  0  0  0  0
  9  7  2  0  0  0  0
  9 27  1  0  0  0  0
 11  5  1  0  0  0  0
 11  1  1  0  0  0  0
 12 19  1  6  0  0  0
 12 16  1  0  0  0  0
 12  3  1  0  0  0  0
 13  1  2  0  0  0  0
 13 19  1  0  0  0  0
 14  9  1  0  0  0  0
 15  4  1  0  0  0  0
 16 22  1  6  0  0  0
 16 15  1  0  0  0  0
 18  4  1  0  0  0  0
 18  7  1  0  0  0  0
 20 24  1  0  0  0  0
 21 20  2  0  0  0  0
 21 23  1  0  0  0  0
 23 25  2  0  0  0  0
 24 22  2  0  0  0  0
 25 22  1  0  0  0  0
 26 20  1  0  0  0  0
 29 27  1  6  0  0  0
 29 30  1  0  0  0  0
 29 33  1  0  0  0  0
 30 28  1  6  0  0  0
 30 34  1  0  0  0  0
 31 32  1  0  0  0  0
 33 32  1  0  0  0  0
 34 31  1  0  0  0  0
M  END
>  <MODEL>
4

>  <REMARK>
 VINA RESULT:      -7.0      2.833      8.116
  Name = 
  3 active torsions:
  status: ('A' for Active; 'I' for Inactive)
    1  A    between atoms: C_3  and  C_13
    2  A    between atoms: C_3  and  C_17
    3  A    between atoms: C_12  and  C_28
                            x       y       z     vdW  Elec       q    Type
                         _______ _______ _______ _____ _____    ______ ____

>  <TORSDO>
F 3

$$$$
=
 OpenBabel10262423543D

 34 39  0  0  1  0  0  0  0  0999 V2000
  186.9850  178.1140  136.3140 C   0  0  0  0  0  0  0  0  0  0  0  0
  185.1510  177.3500  137.8580 C   0  0  0  0  0  0  0  0  0  0  0  0
  187.3100  178.1190  138.8550 C   0  0  0  0  0  0  0  0  0  0  0  0
  187.8910  178.1910  141.2960 C   0  0  1  0  0  3  0  0  0  0  0  0
  184.7850  177.1770  135.4580 C   0  0  0  0  0  2  0  0  0  0  0  0
  184.7930  176.3980  136.7650 C   0  0  0  0  0  2  0  0  0  0  0  0
  185.5750  178.9050  140.4750 C   0  0  0  0  0  0  0  0  0  0  0  0
  186.3360  178.2670  137.6950 C   0  0  1  0  0  3  0  0  0  0  0  0
  184.4070  178.5130  139.9260 C   0  0  0  0  0  0  0  0  0  0  0  0
  187.2470  177.5130  142.4940 C   0  0  0  0  0  1  0  0  0  0  0  0
  186.1930  177.6630  135.1100 C   0  0  0  0  0  2  0  0  0  0  0  0
  188.7510  177.7640  138.5130 C   0  0  2  0  0  3  0  0  0  0  0  0
  188.3050  178.2660  136.1510 C   0  0  0  0  0  3  0  0  0  0  0  0
  184.2800  177.5190  138.8460 C   0  0  0  0  0  3  0  0  0  0  0  0
  189.1450  177.4110  140.9410 C   0  0  0  0  0  2  0  0  0  0  0  0
  189.7360  177.9700  139.6660 C   0  0  1  0  0  3  0  0  0  0  0  0
  185.5440  179.8730  141.4780 O   0  0  0  0  0  1  0  0  0  0  0  0
  186.9100  178.3240  140.1390 C   0  0  0  0  0  0  0  0  0  0  0  0
  189.1890  178.5940  137.3090 C   0  0  0  0  0  2  0  0  0  0  0  0
  192.4630  175.8200  138.0960 C   0  0  0  0  0  0  0  0  0  0  0  0
  193.5600  176.1580  138.8950 C   0  0  0  0  0  3  0  0  0  0  0  0
  191.0620  177.3290  139.3820 C   0  0  0  0  0  0  0  0  0  0  0  0
  193.4100  177.0790  139.9360 C   0  0  0  0  0  3  0  0  0  0  0  0
  191.2160  176.4040  138.3390 C   0  0  0  0  0  3  0  0  0  0  0  0
  192.1630  177.6630  140.1790 C   0  0  0  0  0  3  0  0  0  0  0  0
  192.6080  174.9290  137.0870 F   0  0  0  0  0  0  0  0  0  0  0  0
  183.1210  179.0790  140.4420 C   0  0  0  0  0  2  0  0  0  0  0  0
  181.0720  176.9730  139.6930 C   0  0  0  0  0  1  0  0  0  0  0  0
  182.4710  178.1380  141.4590 C   0  0  2  0  0  3  0  0  0  0  0  0
  181.0620  177.7100  141.0200 C   0  0  1  0  0  3  0  0  0  0  0  0
  180.3580  179.9500  142.0480 C   0  0  0  0  0  2  0  0  0  0  0  0
  181.0810  179.3610  143.2560 C   0  0  0  0  0  2  0  0  0  0  0  0
  182.4480  178.7870  142.8560 C   0  0  0  0  0  2  0  0  0  0  0  0
  180.0650  178.8770  140.9890 C   0  0  0  0  0  2  0  0  0  0  0  0
  2 14  2  0  0  0  0
  3 18  2  0  0  0  0
  4 10  1  1  0  0  0
  5  6  1  0  0  0  0
  6  2  1  0  0  0  0
  7 17  1  0  0  0  0
  8  1  1  6  0  0  0
  8  2  1  0  0  0  0
  8  3  1  0  0  0  0
  9 27  1  0  0  0  0
  9  7  2  0  0  0  0
 11  5  1  0  0  0  0
 11  1  1  0  0  0  0
 12 19  1  6  0  0  0
 12  3  1  0  0  0  0
 12 16  1  0  0  0  0
 13  1  2  0  0  0  0
 13 19  1  0  0  0  0
 14  9  1  0  0  0  0
 15  4  1  0  0  0  0
 16 22  1  6  0  0  0
 16 15  1  0  0  0  0
 18  7  1  0  0  0  0
 18  4  1  0  0  0  0
 20 24  2  0  0  0  0
 20 21  1  0  0  0  0
 21 23  2  0  0  0  0
 22 25  2  0  0  0  0
 23 25  1  0  0  0  0
 24 22  1  0  0  0  0
 26 20  1  0  0  0  0
 29 27  1  6  0  0  0
 29 33  1  0  0  0  0
 30 28  1  6  0  0  0
 30 29  1  0  0  0  0
 31 32  1  0  0  0  0
 33 32  1  0  0  0  0
 34 30  1  0  0  0  0
 34 31  1  0  0  0  0
M  END
>  <MODEL>
5

>  <REMARK>
 VINA RESULT:      -7.0      2.448      3.369
  Name = 
  3 active torsions:
  status: ('A' for Active; 'I' for Inactive)
    1  A    between atoms: C_3  and  C_13
    2  A    between atoms: C_3  and  C_17
    3  A    between atoms: C_12  and  C_28
                            x       y       z     vdW  Elec       q    Type
                         _______ _______ _______ _____ _____    ______ ____

>  <TORSDO>
F 3

$$$$
=
 OpenBabel10262423543D

 34 39  0  0  1  0  0  0  0  0999 V2000
  186.7500  177.8880  136.1210 C   0  0  0  0  0  0  0  0  0  0  0  0
  184.9860  177.1880  137.7730 C   0  0  0  0  0  0  0  0  0  0  0  0
  187.1680  178.0390  138.6440 C   0  0  0  0  0  0  0  0  0  0  0  0
  187.8380  178.2550  141.0540 C   0  0  1  0  0  3  0  0  0  0  0  0
  184.5340  176.8760  135.4020 C   0  0  0  0  0  2  0  0  0  0  0  0
  184.6020  176.1710  136.7490 C   0  0  0  0  0  2  0  0  0  0  0  0
  185.4830  178.8910  140.2830 C   0  0  0  0  0  0  0  0  0  0  0  0
  186.1500  178.1090  137.5160 C   0  0  1  0  0  3  0  0  0  0  0  0
  184.3010  178.4540  139.8010 C   0  0  0  0  0  0  0  0  0  0  0  0
  187.2490  177.6360  142.3110 C   0  0  0  0  0  1  0  0  0  0  0  0
  185.9200  177.3600  134.9750 C   0  0  0  0  0  2  0  0  0  0  0  0
  188.6010  177.6840  138.2680 C   0  0  2  0  0  3  0  0  0  0  0  0
  188.0600  178.0480  135.9000 C   0  0  0  0  0  3  0  0  0  0  0  0
  184.1490  177.3990  138.7830 C   0  0  0  0  0  3  0  0  0  0  0  0
  189.0900  177.4730  140.6950 C   0  0  0  0  0  2  0  0  0  0  0  0
  189.6250  177.9670  139.3690 C   0  0  1  0  0  3  0  0  0  0  0  0
  185.4740  179.9140  141.2310 O   0  0  0  0  0  1  0  0  0  0  0  0
  186.8130  178.3100  139.9290 C   0  0  0  0  0  0  0  0  0  0  0  0
  188.9810  178.4510  137.0040 C   0  0  0  0  0  2  0  0  0  0  0  0
  193.2730  176.8960  139.6240 C   0  0  0  0  0  0  0  0  0  0  0  0
  193.4020  176.1160  138.4710 C   0  0  0  0  0  3  0  0  0  0  0  0
  190.9490  177.3290  139.0720 C   0  0  0  0  0  0  0  0  0  0  0  0
  192.3080  175.9420  137.6190 C   0  0  0  0  0  3  0  0  0  0  0  0
  192.0500  177.5020  139.9240 C   0  0  0  0  0  3  0  0  0  0  0  0
  191.0840  176.5470  137.9180 C   0  0  0  0  0  3  0  0  0  0  0  0
  194.3330  177.0650  140.4500 F   0  0  0  0  0  0  0  0  0  0  0  0
  183.0270  179.0310  140.3330 C   0  0  0  0  0  2  0  0  0  0  0  0
  180.8700  177.0130  139.6480 C   0  0  0  0  0  1  0  0  0  0  0  0
  182.3870  178.1000  141.3650 C   0  0  2  0  0  3  0  0  0  0  0  0
  180.9450  177.7300  140.9830 C   0  0  1  0  0  3  0  0  0  0  0  0
  180.3710  179.9800  142.0690 C   0  0  0  0  0  2  0  0  0  0  0  0
  181.1230  179.3480  143.2360 C   0  0  0  0  0  2  0  0  0  0  0  0
  182.4480  178.7300  142.7700 C   0  0  0  0  0  2  0  0  0  0  0  0
  179.9920  178.9340  141.0110 C   0  0  0  0  0  2  0  0  0  0  0  0
  2 14  2  0  0  0  0
  3 18  2  0  0  0  0
  4 10  1  1  0  0  0
  5  6  1  0  0  0  0
  6  2  1  0  0  0  0
  7 17  1  0  0  0  0
  8  1  1  6  0  0  0
  8  2  1  0  0  0  0
  8  3  1  0  0  0  0
  9  7  2  0  0  0  0
  9 27  1  0  0  0  0
 11  5  1  0  0  0  0
 11  1  1  0  0  0  0
 12 19  1  6  0  0  0
 12  3  1  0  0  0  0
 12 16  1  0  0  0  0
 13  1  2  0  0  0  0
 13 19  1  0  0  0  0
 14  9  1  0  0  0  0
 15  4  1  0  0  0  0
 16 22  1  6  0  0  0
 16 15  1  0  0  0  0
 18  7  1  0  0  0  0
 18  4  1  0  0  0  0
 20 24  1  0  0  0  0
 20 26  1  0  0  0  0
 21 20  2  0  0  0  0
 22 24  2  0  0  0  0
 23 25  2  0  0  0  0
 23 21  1  0  0  0  0
 25 22  1  0  0  0  0
 29 27  1  6  0  0  0
 29 33  1  0  0  0  0
 30 28  1  6  0  0  0
 30 34  1  0  0  0  0
 30 29  1  0  0  0  0
 31 32  1  0  0  0  0
 33 32  1  0  0  0  0
 34 31  1  0  0  0  0
M  END
>  <MODEL>
6

>  <REMARK>
 VINA RESULT:      -7.0      2.179      3.167
  Name = 
  3 active torsions:
  status: ('A' for Active; 'I' for Inactive)
    1  A    between atoms: C_3  and  C_13
    2  A    between atoms: C_3  and  C_17
    3  A    between atoms: C_12  and  C_28
                            x       y       z     vdW  Elec       q    Type
                         _______ _______ _______ _____ _____    ______ ____

>  <TORSDO>
F 3

$$$$
=
 OpenBabel10262423543D

 34 39  0  0  1  0  0  0  0  0999 V2000
  187.0720  178.3950  143.7740 C   0  0  0  0  0  0  0  0  0  0  0  0
  188.3720  176.9390  142.1880 C   0  0  0  0  0  0  0  0  0  0  0  0
  186.4970  178.3180  141.2790 C   0  0  0  0  0  0  0  0  0  0  0  0
  185.7140  178.3990  138.8950 C   0  0  1  0  0  3  0  0  0  0  0  0
  188.9150  176.8330  144.5580 C   0  0  0  0  0  2  0  0  0  0  0  0
  188.5090  176.0070  143.3460 C   0  0  0  0  0  2  0  0  0  0  0  0
  188.2090  178.3420  139.4580 C   0  0  0  0  0  0  0  0  0  0  0  0
  187.5830  178.2130  142.3390 C   0  0  1  0  0  3  0  0  0  0  0  0
  189.2330  177.6190  139.9560 C   0  0  0  0  0  0  0  0  0  0  0  0
  185.9640  177.4530  137.7320 C   0  0  0  0  0  1  0  0  0  0  0  0
  187.7940  177.7940  144.9560 C   0  0  0  0  0  2  0  0  0  0  0  0
  185.0650  178.5010  141.7650 C   0  0  2  0  0  3  0  0  0  0  0  0
  185.9030  178.9990  144.0190 C   0  0  0  0  0  3  0  0  0  0  0  0
  189.1390  176.7250  141.1240 C   0  0  0  0  0  3  0  0  0  0  0  0
  184.3180  178.1210  139.4260 C   0  0  0  0  0  2  0  0  0  0  0  0
  184.0860  178.9420  140.6740 C   0  0  1  0  0  3  0  0  0  0  0  0
  188.4520  179.1630  138.3570 O   0  0  0  0  0  1  0  0  0  0  0  0
  186.8020  178.2770  139.9540 C   0  0  0  0  0  0  0  0  0  0  0  0
  185.0590  179.5190  142.9020 C   0  0  0  0  0  2  0  0  0  0  0  0
  180.9900  178.6680  142.8790 C   0  0  0  0  0  0  0  0  0  0  0  0
  179.9840  178.5710  141.9130 C   0  0  0  0  0  3  0  0  0  0  0  0
  182.6610  178.8140  141.1240 C   0  0  0  0  0  0  0  0  0  0  0  0
  180.3140  178.5950  140.5550 C   0  0  0  0  0  3  0  0  0  0  0  0
  182.3260  178.7890  142.4870 C   0  0  0  0  0  3  0  0  0  0  0  0
  181.6500  178.7160  140.1620 C   0  0  0  0  0  3  0  0  0  0  0  0
  180.6710  178.6450  144.1950 F   0  0  0  0  0  0  0  0  0  0  0  0
  190.5710  177.6730  139.2860 C   0  0  0  0  0  2  0  0  0  0  0  0
  193.4800  177.1590  139.9720 C   0  0  0  0  0  1  0  0  0  0  0  0
  191.2170  176.2870  139.2300 C   0  0  2  0  0  3  0  0  0  0  0  0
  192.7200  176.3700  138.9210 C   0  0  1  0  0  3  0  0  0  0  0  0
  191.9320  176.5390  136.4880 C   0  0  0  0  0  2  0  0  0  0  0  0
  191.2200  175.2450  136.8690 C   0  0  0  0  0  2  0  0  0  0  0  0
  190.4860  175.3930  138.2100 C   0  0  0  0  0  2  0  0  0  0  0  0
  193.0110  176.9110  137.5140 C   0  0  0  0  0  2  0  0  0  0  0  0
  1 13  2  0  0  0  0
  1 11  1  0  0  0  0
  2  8  1  0  0  0  0
  2  6  1  0  0  0  0
  3 12  1  0  0  0  0
  4 10  1  6  0  0  0
  4 15  1  0  0  0  0
  4 18  1  0  0  0  0
  5 11  1  0  0  0  0
  6  5  1  0  0  0  0
  7 18  1  0  0  0  0
  7  9  2  0  0  0  0
  8  3  1  6  0  0  0
  8  1  1  0  0  0  0
  9 14  1  0  0  0  0
 12 19  1  1  0  0  0
 14  2  2  0  0  0  0
 15 16  1  0  0  0  0
 16 22  1  1  0  0  0
 16 12  1  0  0  0  0
 17  7  1  0  0  0  0
 18  3  2  0  0  0  0
 19 13  1  0  0  0  0
 20 26  1  0  0  0  0
 21 20  2  0  0  0  0
 22 24  2  0  0  0  0
 23 21  1  0  0  0  0
 24 20  1  0  0  0  0
 25 23  2  0  0  0  0
 25 22  1  0  0  0  0
 27  9  1  0  0  0  0
 29 27  1  6  0  0  0
 30 29  1  0  0  0  0
 30 28  1  1  0  0  0
 31 32  1  0  0  0  0
 31 34  1  0  0  0  0
 32 33  1  0  0  0  0
 33 29  1  0  0  0  0
 34 30  1  0  0  0  0
M  END
>  <MODEL>
7

>  <REMARK>
 VINA RESULT:      -6.9      2.915      8.211
  Name = 
  3 active torsions:
  status: ('A' for Active; 'I' for Inactive)
    1  A    between atoms: C_3  and  C_13
    2  A    between atoms: C_3  and  C_17
    3  A    between atoms: C_12  and  C_28
                            x       y       z     vdW  Elec       q    Type
                         _______ _______ _______ _____ _____    ______ ____

>  <TORSDO>
F 3

$$$$
=
 OpenBabel10262423543D

 34 39  0  0  1  0  0  0  0  0999 V2000
  186.9460  178.4240  143.1180 C   0  0  0  0  0  0  0  0  0  0  0  0
  188.4740  176.9250  141.7960 C   0  0  0  0  0  0  0  0  0  0  0  0
  186.7810  178.2910  140.5660 C   0  0  0  0  0  0  0  0  0  0  0  0
  186.3950  178.3170  138.0850 C   0  0  1  0  0  3  0  0  0  0  0  0
  188.6260  176.8740  144.2250 C   0  0  0  0  0  2  0  0  0  0  0  0
  188.4150  176.0210  142.9830 C   0  0  0  0  0  2  0  0  0  0  0  0
  188.7660  178.2640  139.0450 C   0  0  0  0  0  0  0  0  0  0  0  0
  187.6810  178.2060  141.7900 C   0  0  1  0  0  3  0  0  0  0  0  0
  189.6900  177.5480  139.7180 C   0  0  0  0  0  0  0  0  0  0  0  0
  186.8220  177.3430  137.0000 C   0  0  0  0  0  1  0  0  0  0  0  0
  187.4640  177.8490  144.4150 C   0  0  0  0  0  2  0  0  0  0  0  0
  185.2910  178.4910  140.8090 C   0  0  2  0  0  3  0  0  0  0  0  0
  185.7580  179.0390  143.1570 C   0  0  0  0  0  3  0  0  0  0  0  0
  189.4010  176.6830  140.8760 C   0  0  0  0  0  3  0  0  0  0  0  0
  184.9300  178.0580  138.3890 C   0  0  0  0  0  2  0  0  0  0  0  0
  184.5050  178.9100  139.5650 C   0  0  1  0  0  3  0  0  0  0  0  0
  189.1900  179.0570  137.9800 O   0  0  0  0  0  1  0  0  0  0  0  0
  187.2960  178.2160  139.3080 C   0  0  0  0  0  0  0  0  0  0  0  0
  185.1100  179.5360  141.9070 C   0  0  0  0  0  2  0  0  0  0  0  0
  180.8010  179.7710  139.8090 C   0  0  0  0  0  0  0  0  0  0  0  0
  180.2670  178.5390  140.2000 C   0  0  0  0  0  3  0  0  0  0  0  0
  183.0260  178.7990  139.7810 C   0  0  0  0  0  0  0  0  0  0  0  0
  181.1100  177.4390  140.3820 C   0  0  0  0  0  3  0  0  0  0  0  0
  182.1770  179.9020  139.6000 C   0  0  0  0  0  3  0  0  0  0  0  0
  182.4860  177.5690  140.1740 C   0  0  0  0  0  3  0  0  0  0  0  0
  179.9850  180.8380  139.6320 F   0  0  0  0  0  0  0  0  0  0  0  0
  191.1190  177.5800  139.2730 C   0  0  0  0  0  2  0  0  0  0  0  0
  194.0150  176.8880  139.8480 C   0  0  0  0  0  1  0  0  0  0  0  0
  191.6890  176.1660  139.1410 C   0  0  2  0  0  3  0  0  0  0  0  0
  193.1840  176.1850  138.7900 C   0  0  1  0  0  3  0  0  0  0  0  0
  192.3380  176.4960  136.3910 C   0  0  0  0  0  2  0  0  0  0  0  0
  191.5700  175.2260  136.7410 C   0  0  0  0  0  2  0  0  0  0  0  0
  190.8830  175.3550  138.1080 C   0  0  0  0  0  2  0  0  0  0  0  0
  193.4640  176.7690  137.3980 C   0  0  0  0  0  2  0  0  0  0  0  0
  1 13  2  0  0  0  0
  1 11  1  0  0  0  0
  2  6  1  0  0  0  0
  3 12  1  0  0  0  0
  4 10  1  6  0  0  0
  4 15  1  0  0  0  0
  4 18  1  0  0  0  0
  5 11  1  0  0  0  0
  6  5  1  0  0  0  0
  7 18  1  0  0  0  0
  7  9  2  0  0  0  0
  8  3  1  6  0  0  0
  8  2  1  0  0  0  0
  8  1  1  0  0  0  0
  9 14  1  0  0  0  0
 12 19  1  1  0  0  0
 14  2  2  0  0  0  0
 15 16  1  0  0  0  0
 16 22  1  1  0  0  0
 16 12  1  0  0  0  0
 17  7  1  0  0  0  0
 18  3  2  0  0  0  0
 19 13  1  0  0  0  0
 20 21  1  0  0  0  0
 21 23  2  0  0  0  0
 22 25  2  0  0  0  0
 24 22  1  0  0  0  0
 24 20  2  0  0  0  0
 25 23  1  0  0  0  0
 26 20  1  0  0  0  0
 27  9  1  0  0  0  0
 29 27  1  6  0  0  0
 30 29  1  0  0  0  0
 30 28  1  1  0  0  0
 31 32  1  0  0  0  0
 31 34  1  0  0  0  0
 32 33  1  0  0  0  0
 33 29  1  0  0  0  0
 34 30  1  0  0  0  0
M  END
>  <MODEL>
8

>  <REMARK>
 VINA RESULT:      -6.4      3.139      8.407
  Name = 
  3 active torsions:
  status: ('A' for Active; 'I' for Inactive)
    1  A    between atoms: C_3  and  C_13
    2  A    between atoms: C_3  and  C_17
    3  A    between atoms: C_12  and  C_28
                            x       y       z     vdW  Elec       q    Type
                         _______ _______ _______ _____ _____    ______ ____

>  <TORSDO>
F 3

$$$$
=
 OpenBabel10262423543D

 34 39  0  0  1  0  0  0  0  0999 V2000
  187.2640  177.9480  136.0750 C   0  0  0  0  0  0  0  0  0  0  0  0
  185.9860  177.3520  138.1580 C   0  0  0  0  0  0  0  0  0  0  0  0
  188.4710  177.5750  138.3040 C   0  0  0  0  0  0  0  0  0  0  0  0
  189.8880  177.2320  140.3470 C   0  0  1  0  0  3  0  0  0  0  0  0
  184.7560  177.5520  136.0680 C   0  0  0  0  0  2  0  0  0  0  0  0
  185.0600  176.6280  137.2380 C   0  0  0  0  0  2  0  0  0  0  0  0
  187.6490  178.4610  140.4930 C   0  0  0  0  0  0  0  0  0  0  0  0
  187.2040  178.0460  137.6050 C   0  0  1  0  0  3  0  0  0  0  0  0
  186.3060  178.3650  140.4070 C   0  0  0  0  0  0  0  0  0  0  0  0
  189.5840  176.5410  141.6660 C   0  0  0  0  0  1  0  0  0  0  0  0
  186.0150  177.8070  135.2390 C   0  0  0  0  0  2  0  0  0  0  0  0
  189.5780  177.0030  137.4280 C   0  0  2  0  0  3  0  0  0  0  0  0
  188.4370  177.8720  135.4340 C   0  0  0  0  0  3  0  0  0  0  0  0
  185.5860  177.5550  139.4090 C   0  0  0  0  0  3  0  0  0  0  0  0
  190.7280  176.2830  139.5100 C   0  0  0  0  0  2  0  0  0  0  0  0
  190.9300  176.8770  138.1330 C   0  0  1  0  0  3  0  0  0  0  0  0
  188.1920  179.2850  141.4780 O   0  0  0  0  0  1  0  0  0  0  0  0
  188.6120  177.6880  139.6530 C   0  0  0  0  0  0  0  0  0  0  0  0
  189.7260  177.8820  136.1890 C   0  0  0  0  0  2  0  0  0  0  0  0
  194.0500  175.7130  136.2810 C   0  0  0  0  0  0  0  0  0  0  0  0
  193.6490  174.4420  135.8590 C   0  0  0  0  0  3  0  0  0  0  0  0
  191.8910  176.0410  137.3420 C   0  0  0  0  0  0  0  0  0  0  0  0
  192.3730  173.9700  136.1770 C   0  0  0  0  0  3  0  0  0  0  0  0
  193.1730  176.5120  137.0200 C   0  0  0  0  0  3  0  0  0  0  0  0
  191.4950  174.7680  136.9160 C   0  0  0  0  0  3  0  0  0  0  0  0
  195.2870  176.1710  135.9730 F   0  0  0  0  0  0  0  0  0  0  0  0
  185.4480  179.0910  141.3960 C   0  0  0  0  0  2  0  0  0  0  0  0
  182.4520  178.7890  141.7530 C   0  0  0  0  0  1  0  0  0  0  0  0
  184.8130  178.1210  142.3940 C   0  0  2  0  0  3  0  0  0  0  0  0
  183.4470  178.6230  142.8870 C   0  0  1  0  0  3  0  0  0  0  0  0
  184.8530  180.0100  144.5210 C   0  0  0  0  0  2  0  0  0  0  0  0
  185.4140  178.6300  144.8510 C   0  0  0  0  0  2  0  0  0  0  0  0
  185.7700  177.8590  143.5720 C   0  0  0  0  0  2  0  0  0  0  0  0
  183.5480  179.9100  143.7180 C   0  0  0  0  0  2  0  0  0  0  0  0
  2 14  2  0  0  0  0
  3 18  2  0  0  0  0
  4 10  1  1  0  0  0
  5  6  1  0  0  0  0
  6  2  1  0  0  0  0
  7 17  1  0  0  0  0
  8  1  1  6  0  0  0
  8  2  1  0  0  0  0
  8  3  1  0  0  0  0
  9  7  2  0  0  0  0
  9 27  1  0  0  0  0
 11  5  1  0  0  0  0
 11  1  1  0  0  0  0
 12 19  1  6  0  0  0
 12 16  1  0  0  0  0
 12  3  1  0  0  0  0
 13  1  2  0  0  0  0
 13 19  1  0  0  0  0
 14  9  1  0  0  0  0
 15  4  1  0  0  0  0
 16 22  1  6  0  0  0
 16 15  1  0  0  0  0
 18  4  1  0  0  0  0
 18  7  1  0  0  0  0
 20 24  1  0  0  0  0
 21 23  1  0  0  0  0
 21 20  2  0  0  0  0
 23 25  2  0  0  0  0
 24 22  2  0  0  0  0
 25 22  1  0  0  0  0
 26 20  1  0  0  0  0
 29 27  1  6  0  0  0
 29 30  1  0  0  0  0
 29 33  1  0  0  0  0
 30 28  1  6  0  0  0
 30 34  1  0  0  0  0
 31 32  1  0  0  0  0
 33 32  1  0  0  0  0
 34 31  1  0  0  0  0
M  END
>  <MODEL>
9

>  <REMARK>
 VINA RESULT:      -6.4      2.909      5.149
  Name = 
  3 active torsions:
  status: ('A' for Active; 'I' for Inactive)
    1  A    between atoms: C_3  and  C_13
    2  A    between atoms: C_3  and  C_17
    3  A    between atoms: C_12  and  C_28
                            x       y       z     vdW  Elec       q    Type
                         _______ _______ _______ _____ _____    ______ ____

>  <TORSDO>
F 3

$$$$
