=
 OpenBabel10272402113D

 32 37  0  0  1  0  0  0  0  0999 V2000
  189.5930  178.0550  142.5670 C   0  0  0  0  0  0  0  0  0  0  0  0
  187.6890  177.6260  144.1110 C   0  0  1  0  0  3  0  0  0  0  0  0
  191.0440  178.0350  142.2720 C   0  0  0  0  0  3  0  0  0  0  0  0
  189.1640  177.7590  143.8180 C   0  0  0  0  0  0  0  0  0  0  0  0
  187.3490  177.8970  145.5920 C   0  0  1  0  0  3  0  0  0  0  0  0
  182.1300  179.2990  143.3230 O   0  0  0  0  0  0  0  0  0  0  0  0
  186.8050  178.4710  143.1770 C   0  0  1  0  0  3  0  0  0  0  0  0
  183.7060  178.7120  144.9680 N   0  0  0  0  0  2  0  0  0  0  0  0
  185.1420  178.5960  144.8280 C   0  0  1  0  0  3  0  0  0  0  0  0
  190.1450  177.1970  144.8360 C   0  0  2  0  0  3  0  0  0  0  0  0
  185.8410  177.7080  145.8410 C   0  0  0  0  0  2  0  0  0  0  0  0
  189.6840  177.4280  146.2760 C   0  0  0  0  0  2  0  0  0  0  0  0
  191.5320  177.8250  144.6770 C   0  0  0  0  0  2  0  0  0  0  0  0
  187.1740  178.1070  141.7480 C   0  0  0  0  0  2  0  0  0  0  0  0
  188.6300  178.5000  141.4730 C   0  0  2  0  0  3  0  0  0  0  0  0
  185.4160  178.1240  143.4710 N   0  0  1  0  0  0  0  0  0  0  0  0
  188.2250  177.0280  146.4960 C   0  0  1  0  0  3  0  0  0  0  0  0
  191.9500  177.8830  143.2380 C   0  0  0  0  0  3  0  0  0  0  0  0
  183.3080  178.9850  143.6380 C   0  0  0  0  0  0  0  0  0  0  0  0
  184.4260  178.8440  142.6760 C   0  0  0  0  0  2  0  0  0  0  0  0
  187.1630  177.8410  138.2800 C   0  0  1  0  0  3  0  0  0  0  0  0
  188.8980  175.1640  136.8760 O   0  0  0  0  0  1  0  0  0  0  0  0
  186.7340  178.4160  137.0970 F   0  0  0  0  0  0  0  0  0  0  0  0
  189.7320  176.2310  138.8470 C   0  0  0  0  0  2  0  0  0  0  0  0
  189.0680  178.0180  140.0870 C   0  0  1  0  0  3  0  0  0  0  0  0
  187.4590  176.4670  138.0910 O   0  0  0  0  0  0  0  0  0  0  0  0
  189.0640  176.6090  140.0250 O   0  0  0  0  0  0  0  0  0  0  0  0
  188.2420  178.7120  138.9800 C   0  0  1  0  0  3  0  0  0  0  0  0
  189.1060  179.2760  138.0380 O   0  0  0  0  0  1  0  0  0  0  0  0
  188.7850  176.3210  137.6470 C   0  0  2  0  0  3  0  0  0  0  0  0
  187.8710  177.2460  147.9630 C   0  0  0  0  0  2  0  0  0  0  0  0
  188.7880  178.2850  148.5780 C   0  0  0  0  0  1  0  0  0  0  0  0
  1  4  2  0  0  0  0
  2  4  1  1  0  0  0
  2  5  1  0  0  0  0
  3  1  1  0  0  0  0
  3 18  2  0  0  0  0
  4 10  1  0  0  0  0
  5 11  1  6  0  0  0
  5 17  1  0  0  0  0
  6 19  2  0  0  0  0
  7 14  1  6  0  0  0
  7 16  1  0  0  0  0
  7  2  1  0  0  0  0
  9  8  1  0  0  0  0
  9 11  1  1  0  0  0
 10 13  1  1  0  0  0
 10 12  1  0  0  0  0
 12 17  1  0  0  0  0
 15 14  1  1  0  0  0
 15  1  1  0  0  0  0
 16 20  1  6  0  0  0
 16  9  1  0  0  0  0
 17 31  1  1  0  0  0
 18 13  1  0  0  0  0
 19  8  1  0  0  0  0
 20 19  1  0  0  0  0
 21 23  1  6  0  0  0
 21 28  1  0  0  0  0
 24 27  1  0  0  0  0
 25 27  1  1  0  0  0
 25 15  1  0  0  0  0
 26 21  1  0  0  0  0
 28 29  1  6  0  0  0
 28 25  1  0  0  0  0
 30 22  1  1  0  0  0
 30 26  1  0  0  0  0
 30 24  1  0  0  0  0
 31 32  1  0  0  0  0
M  END
>  <MODEL>
1

>  <REMARK>
 VINA RESULT:     -11.0      0.000      0.000
  Name = 
  2 active torsions:
  status: ('A' for Active; 'I' for Inactive)
    1  A    between atoms: C_13  and  C_29
    2  A    between atoms: C_16  and  C_27
                            x       y       z     vdW  Elec       q    Type
                         _______ _______ _______ _____ _____    ______ ____

>  <TORSDO>
F 2

$$$$
=
 OpenBabel10272402113D

 32 37  0  0  1  0  0  0  0  0999 V2000
  189.1520  177.8110  142.2370 C   0  0  0  0  0  0  0  0  0  0  0  0
  187.3960  177.6160  143.9900 C   0  0  1  0  0  3  0  0  0  0  0  0
  190.5620  177.6800  141.8050 C   0  0  0  0  0  3  0  0  0  0  0  0
  188.8380  177.6370  143.5450 C   0  0  0  0  0  0  0  0  0  0  0  0
  187.2240  178.0200  145.4700 C   0  0  1  0  0  3  0  0  0  0  0  0
  181.8820  179.5600  143.6140 O   0  0  0  0  0  0  0  0  0  0  0  0
  186.4670  178.4400  143.0800 C   0  0  1  0  0  3  0  0  0  0  0  0
  183.5840  179.0050  145.1400 N   0  0  0  0  0  2  0  0  0  0  0  0
  184.9900  178.7920  144.8700 C   0  0  1  0  0  3  0  0  0  0  0  0
  189.8870  177.0960  144.5040 C   0  0  2  0  0  3  0  0  0  0  0  0
  185.7410  177.9430  145.8800 C   0  0  0  0  0  2  0  0  0  0  0  0
  189.5880  177.4640  145.9590 C   0  0  0  0  0  2  0  0  0  0  0  0
  191.2820  177.6240  144.1590 C   0  0  0  0  0  2  0  0  0  0  0  0
  186.6680  177.9460  141.6570 C   0  0  0  0  0  2  0  0  0  0  0  0
  188.1080  178.2280  141.2100 C   0  0  2  0  0  3  0  0  0  0  0  0
  185.0990  178.2010  143.5360 N   0  0  1  0  0  0  0  0  0  0  0  0
  188.1400  177.1720  146.3530 C   0  0  1  0  0  3  0  0  0  0  0  0
  191.5540  177.5470  142.6870 C   0  0  0  0  0  3  0  0  0  0  0  0
  183.0670  179.2000  143.8370 C   0  0  0  0  0  0  0  0  0  0  0  0
  184.0720  178.9170  142.7850 C   0  0  0  0  0  2  0  0  0  0  0  0
  188.6320  179.3250  137.8480 C   0  0  1  0  0  3  0  0  0  0  0  0
  187.2380  176.9220  135.7450 O   0  0  0  0  0  1  0  0  0  0  0  0
  189.5690  179.8200  136.9570 F   0  0  0  0  0  0  0  0  0  0  0  0
  187.4790  176.4750  138.0820 C   0  0  0  0  0  2  0  0  0  0  0  0
  188.3760  177.6150  139.8320 C   0  0  1  0  0  3  0  0  0  0  0  0
  187.5680  178.6950  137.1560 O   0  0  0  0  0  0  0  0  0  0  0  0
  187.1650  177.2740  139.1940 O   0  0  0  0  0  0  0  0  0  0  0  0
  189.3050  178.5280  138.9990 C   0  0  1  0  0  3  0  0  0  0  0  0
  190.3810  177.7800  138.5160 O   0  0  0  0  0  1  0  0  0  0  0  0
  187.8950  177.3520  136.8970 C   0  0  2  0  0  3  0  0  0  0  0  0
  187.9500  177.5220  147.8240 C   0  0  0  0  0  2  0  0  0  0  0  0
  189.1820  178.2230  148.3630 C   0  0  0  0  0  1  0  0  0  0  0  0
  1  4  2  0  0  0  0
  2  4  1  6  0  0  0
  2  5  1  0  0  0  0
  3  1  1  0  0  0  0
  3 18  2  0  0  0  0
  4 10  1  0  0  0  0
  5 11  1  1  0  0  0
  5 17  1  0  0  0  0
  6 19  2  0  0  0  0
  7 14  1  6  0  0  0
  7 16  1  0  0  0  0
  7  2  1  0  0  0  0
  9  8  1  0  0  0  0
  9 11  1  1  0  0  0
 10 13  1  6  0  0  0
 10 12  1  0  0  0  0
 12 17  1  0  0  0  0
 15 14  1  1  0  0  0
 15  1  1  0  0  0  0
 16 20  1  6  0  0  0
 16  9  1  0  0  0  0
 17 31  1  1  0  0  0
 18 13  1  0  0  0  0
 19  8  1  0  0  0  0
 20 19  1  0  0  0  0
 21 23  1  6  0  0  0
 21 28  1  0  0  0  0
 24 27  1  0  0  0  0
 25 27  1  6  0  0  0
 25 15  1  0  0  0  0
 26 21  1  0  0  0  0
 28 29  1  6  0  0  0
 28 25  1  0  0  0  0
 30 22  1  6  0  0  0
 30 26  1  0  0  0  0
 30 24  1  0  0  0  0
 31 32  1  0  0  0  0
M  END
>  <MODEL>
2

>  <REMARK>
 VINA RESULT:     -10.2      1.152      1.262
  Name = 
  2 active torsions:
  status: ('A' for Active; 'I' for Inactive)
    1  A    between atoms: C_13  and  C_29
    2  A    between atoms: C_16  and  C_27
                            x       y       z     vdW  Elec       q    Type
                         _______ _______ _______ _____ _____    ______ ____

>  <TORSDO>
F 2

$$$$
=
 OpenBabel10272402113D

 32 37  0  0  1  0  0  0  0  0999 V2000
  184.8160  178.4820  143.3870 C   0  0  0  0  0  0  0  0  0  0  0  0
  187.2940  178.3290  143.5520 C   0  0  1  0  0  3  0  0  0  0  0  0
  183.4930  178.7110  144.0120 C   0  0  0  0  0  3  0  0  0  0  0  0
  185.9190  178.4120  144.1700 C   0  0  0  0  0  0  0  0  0  0  0  0
  188.3270  177.6630  144.4860 C   0  0  1  0  0  3  0  0  0  0  0  0
  190.9420  176.3970  139.3950 O   0  0  0  0  0  0  0  0  0  0  0  0
  187.2970  177.6680  142.1630 C   0  0  1  0  0  3  0  0  0  0  0  0
  190.7220  176.6960  141.7180 N   0  0  0  0  0  2  0  0  0  0  0  0
  189.5180  176.9760  142.4720 C   0  0  1  0  0  3  0  0  0  0  0  0
  185.8220  178.7880  145.6410 C   0  0  2  0  0  3  0  0  0  0  0  0
  189.7170  177.6420  143.8220 C   0  0  0  0  0  2  0  0  0  0  0  0
  186.9390  178.1600  146.4770 C   0  0  0  0  0  2  0  0  0  0  0  0
  184.4820  178.3530  146.2390 C   0  0  0  0  0  2  0  0  0  0  0  0
  186.2900  178.4130  141.3020 C   0  0  0  0  0  2  0  0  0  0  0  0
  184.8820  178.2390  141.8840 C   0  0  2  0  0  3  0  0  0  0  0  0
  188.6510  177.7990  141.6280 N   0  0  1  0  0  0  0  0  0  0  0  0
  188.3200  178.3540  145.8500 C   0  0  1  0  0  3  0  0  0  0  0  0
  183.3360  178.6990  145.3360 C   0  0  0  0  0  3  0  0  0  0  0  0
  190.2420  176.7300  140.3870 C   0  0  0  0  0  0  0  0  0  0  0  0
  188.8440  177.2130  140.3050 C   0  0  0  0  0  2  0  0  0  0  0  0
  181.8640  177.7880  140.0210 C   0  0  1  0  0  3  0  0  0  0  0  0
  181.8570  180.1620  137.4700 O   0  0  0  0  0  1  0  0  0  0  0  0
  180.4930  177.6260  140.1180 F   0  0  0  0  0  0  0  0  0  0  0  0
  183.4810  180.2880  139.2210 C   0  0  0  0  0  2  0  0  0  0  0  0
  183.8700  179.0940  141.1160 C   0  0  1  0  0  3  0  0  0  0  0  0
  182.2190  178.2950  138.7450 O   0  0  0  0  0  0  0  0  0  0  0  0
  184.2880  179.2840  139.7830 O   0  0  0  0  0  0  0  0  0  0  0  0
  182.4430  178.5170  141.2640 C   0  0  1  0  0  3  0  0  0  0  0  0
  181.5750  179.5260  141.6910 O   0  0  0  0  0  1  0  0  0  0  0  0
  182.1470  179.6990  138.7530 C   0  0  2  0  0  3  0  0  0  0  0  0
  189.3680  177.7410  146.7720 C   0  0  0  0  0  2  0  0  0  0  0  0
  189.0350  178.0380  148.2210 C   0  0  0  0  0  1  0  0  0  0  0  0
  1  3  1  0  0  0  0
  1  4  2  0  0  0  0
  2  4  1  1  0  0  0
  2  5  1  0  0  0  0
  3 18  2  0  0  0  0
  4 10  1  0  0  0  0
  5 11  1  6  0  0  0
  5 17  1  0  0  0  0
  6 19  2  0  0  0  0
  7 14  1  6  0  0  0
  7  2  1  0  0  0  0
  8  9  1  0  0  0  0
  9 11  1  1  0  0  0
 10 13  1  1  0  0  0
 10 12  1  0  0  0  0
 15 14  1  6  0  0  0
 15  1  1  0  0  0  0
 16 20  1  6  0  0  0
 16  7  1  0  0  0  0
 16  9  1  0  0  0  0
 17 12  1  0  0  0  0
 17 31  1  1  0  0  0
 18 13  1  0  0  0  0
 19  8  1  0  0  0  0
 20 19  1  0  0  0  0
 21 23  1  1  0  0  0
 21 28  1  0  0  0  0
 24 27  1  0  0  0  0
 25 27  1  6  0  0  0
 25 28  1  0  0  0  0
 25 15  1  0  0  0  0
 26 30  1  0  0  0  0
 26 21  1  0  0  0  0
 28 29  1  6  0  0  0
 30 22  1  6  0  0  0
 30 24  1  0  0  0  0
 31 32  1  0  0  0  0
M  END
>  <MODEL>
3

>  <REMARK>
 VINA RESULT:      -9.3      2.835      5.776
  Name = 
  2 active torsions:
  status: ('A' for Active; 'I' for Inactive)
    1  A    between atoms: C_13  and  C_29
    2  A    between atoms: C_16  and  C_27
                            x       y       z     vdW  Elec       q    Type
                         _______ _______ _______ _____ _____    ______ ____

>  <TORSDO>
F 2

$$$$
=
 OpenBabel10272402113D

 32 37  0  0  1  0  0  0  0  0999 V2000
  186.3480  178.0430  142.9270 C   0  0  0  0  0  0  0  0  0  0  0  0
  188.8040  178.0900  142.5260 C   0  0  1  0  0  3  0  0  0  0  0  0
  185.1900  178.1170  143.8470 C   0  0  0  0  0  3  0  0  0  0  0  0
  187.6030  178.0150  143.4380 C   0  0  0  0  0  0  0  0  0  0  0  0
  190.0640  177.4520  143.1470 C   0  0  1  0  0  3  0  0  0  0  0  0
  191.5300  176.7560  137.5150 O   0  0  0  0  0  0  0  0  0  0  0  0
  188.5340  177.5260  141.1190 C   0  0  1  0  0  3  0  0  0  0  0  0
  191.8250  176.8780  139.8450 N   0  0  0  0  0  2  0  0  0  0  0  0
  190.8090  177.0050  140.8680 C   0  0  1  0  0  3  0  0  0  0  0  0
  187.8180  178.2820  144.9200 C   0  0  2  0  0  3  0  0  0  0  0  0
  191.2640  177.5930  142.1920 C   0  0  0  0  0  2  0  0  0  0  0  0
  189.1360  177.6960  145.4310 C   0  0  0  0  0  2  0  0  0  0  0  0
  186.6810  177.6960  145.7610 C   0  0  0  0  0  2  0  0  0  0  0  0
  187.3100  178.2400  140.5690 C   0  0  0  0  0  2  0  0  0  0  0  0
  186.0870  177.9090  141.4330 C   0  0  2  0  0  3  0  0  0  0  0  0
  189.7190  177.8060  140.3100 N   0  0  1  0  0  0  0  0  0  0  0  0
  190.3220  178.0460  144.5320 C   0  0  1  0  0  3  0  0  0  0  0  0
  185.3390  178.0030  145.1670 C   0  0  0  0  0  3  0  0  0  0  0  0
  191.0540  176.9610  138.6610 C   0  0  0  0  0  0  0  0  0  0  0  0
  189.6450  177.3290  138.9330 C   0  0  0  0  0  2  0  0  0  0  0  0
  182.8230  177.3330  140.0910 C   0  0  1  0  0  3  0  0  0  0  0  0
  182.1070  179.9770  137.9370 O   0  0  0  0  0  1  0  0  0  0  0  0
  181.5170  177.0020  140.4080 F   0  0  0  0  0  0  0  0  0  0  0  0
  184.0180  180.0830  139.3720 C   0  0  0  0  0  2  0  0  0  0  0  0
  184.8710  178.7250  140.9830 C   0  0  1  0  0  3  0  0  0  0  0  0
  182.8780  178.0270  138.8560 O   0  0  0  0  0  0  0  0  0  0  0  0
  185.0070  179.1200  139.6360 O   0  0  0  0  0  0  0  0  0  0  0  0
  183.5590  177.9720  141.3010 C   0  0  1  0  0  3  0  0  0  0  0  0
  182.6990  178.8140  142.0110 O   0  0  0  0  0  1  0  0  0  0  0  0
  182.6790  179.4020  139.0720 C   0  0  2  0  0  3  0  0  0  0  0  0
  191.5900  177.4640  145.1430 C   0  0  0  0  0  2  0  0  0  0  0  0
  191.2550  176.6360  146.3690 C   0  0  0  0  0  1  0  0  0  0  0  0
  1  4  2  0  0  0  0
  1  3  1  0  0  0  0
  2  5  1  0  0  0  0
  2  4  1  1  0  0  0
  3 18  2  0  0  0  0
  4 10  1  0  0  0  0
  5 11  1  6  0  0  0
  5 17  1  0  0  0  0
  6 19  2  0  0  0  0
  7 14  1  6  0  0  0
  7  2  1  0  0  0  0
  8  9  1  0  0  0  0
  9 11  1  1  0  0  0
 10 12  1  1  0  0  0
 10 13  1  0  0  0  0
 15 14  1  6  0  0  0
 15  1  1  0  0  0  0
 16 20  1  6  0  0  0
 16  9  1  0  0  0  0
 16  7  1  0  0  0  0
 17 31  1  1  0  0  0
 17 12  1  0  0  0  0
 18 13  1  0  0  0  0
 19 20  1  0  0  0  0
 19  8  1  0  0  0  0
 21 23  1  1  0  0  0
 21 28  1  0  0  0  0
 24 27  1  0  0  0  0
 25 27  1  6  0  0  0
 25 28  1  0  0  0  0
 25 15  1  0  0  0  0
 26 30  1  0  0  0  0
 26 21  1  0  0  0  0
 28 29  1  6  0  0  0
 30 22  1  6  0  0  0
 30 24  1  0  0  0  0
 31 32  1  0  0  0  0
M  END
>  <MODEL>
4

>  <REMARK>
 VINA RESULT:      -8.9      2.918      5.775
  Name = 
  2 active torsions:
  status: ('A' for Active; 'I' for Inactive)
    1  A    between atoms: C_13  and  C_29
    2  A    between atoms: C_16  and  C_27
                            x       y       z     vdW  Elec       q    Type
                         _______ _______ _______ _____ _____    ______ ____

>  <TORSDO>
F 2

$$$$
=
 OpenBabel10272402113D

 32 37  0  0  1  0  0  0  0  0999 V2000
  187.1850  177.9240  145.0370 C   0  0  0  0  0  0  0  0  0  0  0  0
  186.5190  177.7920  142.6420 C   0  0  1  0  0  3  0  0  0  0  0  0
  186.8300  178.0450  146.4700 C   0  0  0  0  0  3  0  0  0  0  0  0
  186.2170  178.0570  144.0980 C   0  0  0  0  0  0  0  0  0  0  0  0
  185.5650  178.5440  141.6900 C   0  0  1  0  0  3  0  0  0  0  0  0
  190.1070  178.0460  138.0180 O   0  0  0  0  0  0  0  0  0  0  0  0
  187.9900  178.0500  142.2700 C   0  0  1  0  0  3  0  0  0  0  0  0
  187.8860  178.4130  138.7020 N   0  0  0  0  0  2  0  0  0  0  0  0
  187.3710  178.5040  140.0520 C   0  0  1  0  0  3  0  0  0  0  0  0
  184.7570  178.1050  144.5240 C   0  0  2  0  0  3  0  0  0  0  0  0
  185.8930  178.2050  140.2240 C   0  0  0  0  0  2  0  0  0  0  0  0
  183.8690  178.7840  143.4800 C   0  0  0  0  0  2  0  0  0  0  0  0
  184.5890  178.8550  145.8480 C   0  0  0  0  0  2  0  0  0  0  0  0
  188.8500  177.2380  143.2250 C   0  0  0  0  0  2  0  0  0  0  0  0
  188.6490  177.7430  144.6590 C   0  0  2  0  0  3  0  0  0  0  0  0
  188.1670  177.6050  140.8890 N   0  0  1  0  0  0  0  0  0  0  0  0
  184.1120  178.2520  142.0670 C   0  0  1  0  0  3  0  0  0  0  0  0
  185.6140  178.4320  146.8570 C   0  0  0  0  0  3  0  0  0  0  0  0
  189.2430  178.0850  138.9330 C   0  0  0  0  0  0  0  0  0  0  0  0
  189.5140  177.7840  140.3580 C   0  0  0  0  0  2  0  0  0  0  0  0
  190.2290  178.0380  147.8530 C   0  0  1  0  0  3  0  0  0  0  0  0
  192.9430  175.8540  147.8720 O   0  0  0  0  0  1  0  0  0  0  0  0
  190.0110  178.0650  149.2200 F   0  0  0  0  0  0  0  0  0  0  0  0
  191.3410  175.7590  146.0990 C   0  0  0  0  0  2  0  0  0  0  0  0
  189.3980  176.8530  145.6550 C   0  0  1  0  0  3  0  0  0  0  0  0
  191.5630  177.6540  147.5660 O   0  0  0  0  0  0  0  0  0  0  0  0
  190.7700  176.7930  145.3380 O   0  0  0  0  0  0  0  0  0  0  0  0
  189.0940  177.2820  147.1090 C   0  0  1  0  0  3  0  0  0  0  0  0
  188.6770  176.1710  147.8460 O   0  0  0  0  0  1  0  0  0  0  0  0
  191.6560  176.2520  147.5150 C   0  0  2  0  0  3  0  0  0  0  0  0
  183.1540  178.9480  141.1080 C   0  0  0  0  0  2  0  0  0  0  0  0
  181.7230  178.7880  141.5840 C   0  0  0  0  0  1  0  0  0  0  0  0
  1  3  1  0  0  0  0
  2  4  1  1  0  0  0
  3 18  2  0  0  0  0
  4 10  1  0  0  0  0
  4  1  2  0  0  0  0
  5 11  1  6  0  0  0
  5 17  1  0  0  0  0
  5  2  1  0  0  0  0
  6 19  2  0  0  0  0
  7  2  1  0  0  0  0
  7 14  1  1  0  0  0
  8 19  1  0  0  0  0
  8  9  1  0  0  0  0
  9 11  1  6  0  0  0
  9 16  1  0  0  0  0
 10 12  1  6  0  0  0
 10 13  1  0  0  0  0
 13 18  1  0  0  0  0
 15 14  1  6  0  0  0
 15  1  1  0  0  0  0
 15 25  1  0  0  0  0
 16 20  1  6  0  0  0
 16  7  1  0  0  0  0
 17 31  1  6  0  0  0
 17 12  1  0  0  0  0
 19 20  1  0  0  0  0
 21 23  1  1  0  0  0
 24 30  1  0  0  0  0
 25 27  1  6  0  0  0
 25 28  1  0  0  0  0
 26 21  1  0  0  0  0
 27 24  1  0  0  0  0
 28 29  1  1  0  0  0
 28 21  1  0  0  0  0
 30 26  1  0  0  0  0
 30 22  1  6  0  0  0
 31 32  1  0  0  0  0
M  END
>  <MODEL>
5

>  <REMARK>
 VINA RESULT:      -8.9      3.897      7.296
  Name = 
  2 active torsions:
  status: ('A' for Active; 'I' for Inactive)
    1  A    between atoms: C_13  and  C_29
    2  A    between atoms: C_16  and  C_27
                            x       y       z     vdW  Elec       q    Type
                         _______ _______ _______ _____ _____    ______ ____

>  <TORSDO>
F 2

$$$$
=
 OpenBabel10272402113D

 32 37  0  0  1  0  0  0  0  0999 V2000
  187.4800  178.2640  140.1360 C   0  0  0  0  0  0  0  0  0  0  0  0
  187.8500  177.3620  142.4260 C   0  0  1  0  0  3  0  0  0  0  0  0
  187.9020  178.4130  138.7240 C   0  0  0  0  0  3  0  0  0  0  0  0
  188.3120  177.6620  141.0200 C   0  0  0  0  0  0  0  0  0  0  0  0
  189.0190  177.2660  143.4280 C   0  0  1  0  0  3  0  0  0  0  0  0
  184.8360  178.7750  147.2460 O   0  0  0  0  0  0  0  0  0  0  0  0
  186.7670  178.3330  142.9290 C   0  0  1  0  0  3  0  0  0  0  0  0
  186.9030  177.9420  146.4940 N   0  0  0  0  0  2  0  0  0  0  0  0
  187.4370  177.9630  145.1480 C   0  0  1  0  0  3  0  0  0  0  0  0
  189.5610  176.9550  140.5150 C   0  0  2  0  0  3  0  0  0  0  0  0
  188.4950  176.9200  144.8350 C   0  0  0  0  0  2  0  0  0  0  0  0
  190.6310  176.8190  141.6010 C   0  0  0  0  0  2  0  0  0  0  0  0
  190.1800  177.6980  139.3290 C   0  0  0  0  0  2  0  0  0  0  0  0
  185.6420  178.3290  141.9080 C   0  0  0  0  0  2  0  0  0  0  0  0
  186.1540  178.8760  140.5700 C   0  0  2  0  0  3  0  0  0  0  0  0
  186.3110  177.8310  144.2240 N   0  0  1  0  0  0  0  0  0  0  0  0
  190.0680  176.2790  142.9150 C   0  0  1  0  0  3  0  0  0  0  0  0
  189.1400  178.1100  138.3310 C   0  0  0  0  0  3  0  0  0  0  0  0
  185.6090  178.4820  146.2980 C   0  0  0  0  0  0  0  0  0  0  0  0
  185.2780  178.6410  144.8620 C   0  0  0  0  0  2  0  0  0  0  0  0
  182.5910  178.6900  140.3460 C   0  0  1  0  0  3  0  0  0  0  0  0
  181.8300  176.6220  137.6470 O   0  0  0  0  0  1  0  0  0  0  0  0
  181.4220  179.4310  140.3380 F   0  0  0  0  0  0  0  0  0  0  0  0
  184.0760  177.3660  137.9900 C   0  0  0  0  0  2  0  0  0  0  0  0
  185.0780  178.7520  139.4880 C   0  0  1  0  0  3  0  0  0  0  0  0
  182.3940  177.4380  139.7100 O   0  0  0  0  0  0  0  0  0  0  0  0
  184.8500  177.4000  139.1630 O   0  0  0  0  0  0  0  0  0  0  0  0
  183.8080  179.5380  139.8870 C   0  0  1  0  0  3  0  0  0  0  0  0
  183.4450  180.3970  138.8460 O   0  0  0  0  0  1  0  0  0  0  0  0
  182.5960  177.5690  138.3250 C   0  0  2  0  0  3  0  0  0  0  0  0
  191.2090  176.1330  143.9150 C   0  0  0  0  0  2  0  0  0  0  0  0
  191.6430  177.4950  144.4230 C   0  0  0  0  0  1  0  0  0  0  0  0
  1 15  1  0  0  0  0
  1  4  2  0  0  0  0
  2  4  1  6  0  0  0
  2  7  1  0  0  0  0
  2  5  1  0  0  0  0
  3  1  1  0  0  0  0
  5 11  1  1  0  0  0
  7 14  1  6  0  0  0
  7 16  1  0  0  0  0
  9 11  1  1  0  0  0
  9  8  1  0  0  0  0
 10 13  1  6  0  0  0
 10  4  1  0  0  0  0
 10 12  1  0  0  0  0
 12 17  1  0  0  0  0
 15 14  1  1  0  0  0
 16 20  1  1  0  0  0
 16  9  1  0  0  0  0
 17  5  1  0  0  0  0
 17 31  1  1  0  0  0
 18  3  2  0  0  0  0
 18 13  1  0  0  0  0
 19  8  1  0  0  0  0
 19  6  2  0  0  0  0
 20 19  1  0  0  0  0
 21 23  1  6  0  0  0
 24 30  1  0  0  0  0
 24 27  1  0  0  0  0
 25 27  1  1  0  0  0
 25 28  1  0  0  0  0
 25 15  1  0  0  0  0
 26 21  1  0  0  0  0
 28 29  1  6  0  0  0
 28 21  1  0  0  0  0
 30 22  1  6  0  0  0
 30 26  1  0  0  0  0
 31 32  1  0  0  0  0
M  END
>  <MODEL>
6

>  <REMARK>
 VINA RESULT:      -8.8      2.728      4.407
  Name = 
  2 active torsions:
  status: ('A' for Active; 'I' for Inactive)
    1  A    between atoms: C_13  and  C_29
    2  A    between atoms: C_16  and  C_27
                            x       y       z     vdW  Elec       q    Type
                         _______ _______ _______ _____ _____    ______ ____

>  <TORSDO>
F 2

$$$$
=
 OpenBabel10272402113D

 32 37  0  0  1  0  0  0  0  0999 V2000
  183.9440  178.7470  141.8540 C   0  0  0  0  0  0  0  0  0  0  0  0
  186.4260  178.6800  141.6850 C   0  0  1  0  0  3  0  0  0  0  0  0
  182.7080  178.8430  142.6640 C   0  0  0  0  0  3  0  0  0  0  0  0
  185.1420  178.6300  142.4770 C   0  0  0  0  0  0  0  0  0  0  0  0
  187.5890  177.9510  142.3900 C   0  0  1  0  0  3  0  0  0  0  0  0
  189.5500  177.4170  136.8920 O   0  0  0  0  0  0  0  0  0  0  0  0
  186.2650  178.1910  140.2340 C   0  0  1  0  0  3  0  0  0  0  0  0
  189.6270  177.4250  139.2430 N   0  0  0  0  0  2  0  0  0  0  0  0
  188.5250  177.5620  140.1720 C   0  0  1  0  0  3  0  0  0  0  0  0
  185.2270  178.8220  143.9840 C   0  0  2  0  0  3  0  0  0  0  0  0
  188.8800  178.0680  141.5580 C   0  0  0  0  0  2  0  0  0  0  0  0
  186.4600  178.1460  144.5860 C   0  0  0  0  0  2  0  0  0  0  0  0
  183.9880  178.2620  144.6870 C   0  0  0  0  0  2  0  0  0  0  0  0
  185.1350  178.9920  139.6070 C   0  0  0  0  0  2  0  0  0  0  0  0
  183.8200  178.6900  140.3370 C   0  0  2  0  0  3  0  0  0  0  0  0
  187.5340  178.4430  139.5540 N   0  0  1  0  0  0  0  0  0  0  0  0
  187.7420  178.4710  143.8200 C   0  0  1  0  0  3  0  0  0  0  0  0
  182.7260  178.6650  143.9860 C   0  0  0  0  0  3  0  0  0  0  0  0
  188.9770  177.5990  137.9980 C   0  0  0  0  0  0  0  0  0  0  0  0
  187.5680  178.0290  138.1540 C   0  0  0  0  0  2  0  0  0  0  0  0
  181.2560  178.5950  137.8470 C   0  0  1  0  0  3  0  0  0  0  0  0
  180.8490  181.8440  136.6540 O   0  0  0  0  0  1  0  0  0  0  0  0
  179.9820  178.1380  137.5580 F   0  0  0  0  0  0  0  0  0  0  0  0
  182.1850  181.4380  138.5960 C   0  0  0  0  0  2  0  0  0  0  0  0
  182.6940  179.5870  139.8150 C   0  0  1  0  0  3  0  0  0  0  0  0
  181.5840  179.7090  137.0330 O   0  0  0  0  0  0  0  0  0  0  0  0
  183.1770  180.4700  138.8270 O   0  0  0  0  0  0  0  0  0  0  0  0
  181.4770  178.7400  139.3770 C   0  0  1  0  0  3  0  0  0  0  0  0
  180.3240  179.2270  139.9970 O   0  0  0  0  0  1  0  0  0  0  0  0
  181.1230  180.8930  137.6360 C   0  0  2  0  0  3  0  0  0  0  0  0
  188.9170  177.7970  144.5180 C   0  0  0  0  0  2  0  0  0  0  0  0
  188.5150  177.3420  145.9080 C   0  0  0  0  0  1  0  0  0  0  0  0
  1  4  2  0  0  0  0
  1  3  1  0  0  0  0
  2  5  1  0  0  0  0
  2  4  1  1  0  0  0
  3 18  2  0  0  0  0
  4 10  1  0  0  0  0
  5 11  1  6  0  0  0
  5 17  1  0  0  0  0
  6 19  2  0  0  0  0
  7 14  1  6  0  0  0
  7  2  1  0  0  0  0
  8  9  1  0  0  0  0
  9 11  1  1  0  0  0
 10 12  1  1  0  0  0
 10 13  1  0  0  0  0
 15 14  1  6  0  0  0
 15  1  1  0  0  0  0
 16 20  1  6  0  0  0
 16  9  1  0  0  0  0
 16  7  1  0  0  0  0
 17 31  1  1  0  0  0
 17 12  1  0  0  0  0
 18 13  1  0  0  0  0
 19 20  1  0  0  0  0
 19  8  1  0  0  0  0
 21 23  1  1  0  0  0
 21 28  1  0  0  0  0
 24 27  1  0  0  0  0
 25 27  1  6  0  0  0
 25 15  1  0  0  0  0
 26 30  1  0  0  0  0
 26 21  1  0  0  0  0
 28 25  1  0  0  0  0
 28 29  1  1  0  0  0
 30 22  1  6  0  0  0
 30 24  1  0  0  0  0
 31 32  1  0  0  0  0
M  END
>  <MODEL>
7

>  <REMARK>
 VINA RESULT:      -8.5      3.536      6.542
  Name = 
  2 active torsions:
  status: ('A' for Active; 'I' for Inactive)
    1  A    between atoms: C_13  and  C_29
    2  A    between atoms: C_16  and  C_27
                            x       y       z     vdW  Elec       q    Type
                         _______ _______ _______ _____ _____    ______ ____

>  <TORSDO>
F 2

$$$$
=
 OpenBabel10272402113D

 32 37  0  0  1  0  0  0  0  0999 V2000
  189.4710  177.7820  140.4570 C   0  0  0  0  0  0  0  0  0  0  0  0
  188.1000  177.4310  142.5040 C   0  0  1  0  0  3  0  0  0  0  0  0
  190.7570  177.6690  139.7310 C   0  0  0  0  0  3  0  0  0  0  0  0
  189.4220  177.4690  141.7750 C   0  0  0  0  0  0  0  0  0  0  0  0
  188.2510  177.6690  144.0220 C   0  0  1  0  0  3  0  0  0  0  0  0
  182.7180  179.5260  143.4830 O   0  0  0  0  0  0  0  0  0  0  0  0
  187.0440  178.3720  141.8980 C   0  0  1  0  0  3  0  0  0  0  0  0
  184.6670  178.7650  144.5570 N   0  0  0  0  0  2  0  0  0  0  0  0
  185.9790  178.5530  143.9820 C   0  0  1  0  0  3  0  0  0  0  0  0
  190.6180  176.8000  142.4350 C   0  0  2  0  0  3  0  0  0  0  0  0
  186.8800  177.5790  144.7190 C   0  0  0  0  0  2  0  0  0  0  0  0
  190.6370  177.0080  143.9510 C   0  0  0  0  0  2  0  0  0  0  0  0
  191.9360  177.3330  141.8670 C   0  0  0  0  0  2  0  0  0  0  0  0
  186.9300  178.0370  140.4210 C   0  0  0  0  0  2  0  0  0  0  0  0
  188.2600  178.3350  139.7180 C   0  0  2  0  0  3  0  0  0  0  0  0
  185.7880  178.1140  142.5990 N   0  0  1  0  0  0  0  0  0  0  0  0
  189.2880  176.7060  144.6020 C   0  0  1  0  0  3  0  0  0  0  0  0
  191.9000  177.4160  140.3700 C   0  0  0  0  0  3  0  0  0  0  0  0
  183.9060  179.1170  143.4170 C   0  0  0  0  0  0  0  0  0  0  0  0
  184.6630  178.9330  142.1570 C   0  0  0  0  0  2  0  0  0  0  0  0
  189.4830  175.6330  137.7210 C   0  0  1  0  0  3  0  0  0  0  0  0
  190.1870  176.9180  134.5590 O   0  0  0  0  0  1  0  0  0  0  0  0
  189.2550  174.3240  137.3350 F   0  0  0  0  0  0  0  0  0  0  0  0
  188.9930  178.2430  136.1530 C   0  0  0  0  0  2  0  0  0  0  0  0
  188.2150  177.8760  138.2580 C   0  0  1  0  0  3  0  0  0  0  0  0
  190.2840  176.3050  136.7630 O   0  0  0  0  0  0  0  0  0  0  0  0
  189.2530  178.4750  137.5140 O   0  0  0  0  0  0  0  0  0  0  0  0
  188.1710  176.3330  138.1700 C   0  0  1  0  0  3  0  0  0  0  0  0
  187.1030  175.9430  137.3590 O   0  0  0  0  0  1  0  0  0  0  0  0
  189.4680  176.8430  135.7520 C   0  0  2  0  0  3  0  0  0  0  0  0
  189.4160  176.8930  146.1090 C   0  0  0  0  0  2  0  0  0  0  0  0
  190.8770  176.9130  146.5160 C   0  0  0  0  0  1  0  0  0  0  0  0
  1  4  2  0  0  0  0
  2  4  1  6  0  0  0
  2  5  1  0  0  0  0
  3 18  2  0  0  0  0
  3  1  1  0  0  0  0
  4 10  1  0  0  0  0
  5 17  1  0  0  0  0
  5 11  1  1  0  0  0
  7 14  1  6  0  0  0
  7  2  1  0  0  0  0
  7 16  1  0  0  0  0
  9  8  1  0  0  0  0
  9 11  1  1  0  0  0
 10 13  1  6  0  0  0
 10 12  1  0  0  0  0
 12 17  1  0  0  0  0
 15 14  1  1  0  0  0
 15  1  1  0  0  0  0
 16 20  1  6  0  0  0
 16  9  1  0  0  0  0
 17 31  1  1  0  0  0
 18 13  1  0  0  0  0
 19  6  2  0  0  0  0
 19  8  1  0  0  0  0
 20 19  1  0  0  0  0
 21 23  1  6  0  0  0
 21 28  1  0  0  0  0
 24 27  1  0  0  0  0
 25 27  1  6  0  0  0
 25 15  1  0  0  0  0
 26 21  1  0  0  0  0
 28 29  1  6  0  0  0
 28 25  1  0  0  0  0
 30 22  1  6  0  0  0
 30 24  1  0  0  0  0
 30 26  1  0  0  0  0
 31 32  1  0  0  0  0
M  END
>  <MODEL>
8

>  <REMARK>
 VINA RESULT:      -8.5      1.572      2.447
  Name = 
  2 active torsions:
  status: ('A' for Active; 'I' for Inactive)
    1  A    between atoms: C_13  and  C_29
    2  A    between atoms: C_16  and  C_27
                            x       y       z     vdW  Elec       q    Type
                         _______ _______ _______ _____ _____    ______ ____

>  <TORSDO>
F 2

$$$$
=
 OpenBabel10272402113D

 32 37  0  0  1  0  0  0  0  0999 V2000
  186.6560  178.3280  142.4090 C   0  0  0  0  0  0  0  0  0  0  0  0
  185.9290  177.9550  140.0580 C   0  0  1  0  0  3  0  0  0  0  0  0
  186.3360  178.5460  143.8390 C   0  0  0  0  0  3  0  0  0  0  0  0
  185.6540  178.3230  141.4970 C   0  0  0  0  0  0  0  0  0  0  0  0
  184.9020  178.5650  139.0810 C   0  0  1  0  0  3  0  0  0  0  0  0
  189.3570  178.0410  135.3080 O   0  0  0  0  0  0  0  0  0  0  0  0
  187.3690  178.2710  139.6160 C   0  0  1  0  0  3  0  0  0  0  0  0
  187.1380  178.3270  136.0360 N   0  0  0  0  0  2  0  0  0  0  0  0
  186.6580  178.4990  137.3910 C   0  0  1  0  0  3  0  0  0  0  0  0
  184.2070  178.3170  141.9680 C   0  0  2  0  0  3  0  0  0  0  0  0
  185.2080  178.1260  137.6370 C   0  0  0  0  0  2  0  0  0  0  0  0
  183.2470  178.8500  140.9030 C   0  0  0  0  0  2  0  0  0  0  0  0
  184.0310  179.1630  143.2310 C   0  0  0  0  0  2  0  0  0  0  0  0
  188.3070  177.5960  140.6030 C   0  0  0  0  0  2  0  0  0  0  0  0
  188.1170  178.2060  141.9970 C   0  0  2  0  0  3  0  0  0  0  0  0
  187.5340  177.7240  138.2700 N   0  0  1  0  0  0  0  0  0  0  0  0
  183.4830  178.2180  139.5310 C   0  0  1  0  0  3  0  0  0  0  0  0
  185.1100  178.8900  144.2350 C   0  0  0  0  0  3  0  0  0  0  0  0
  188.5200  178.1030  136.2460 C   0  0  0  0  0  0  0  0  0  0  0  0
  188.8510  177.9400  137.6810 C   0  0  0  0  0  2  0  0  0  0  0  0
  191.4030  178.3290  143.4000 C   0  0  1  0  0  3  0  0  0  0  0  0
  192.3560  175.0500  144.0960 O   0  0  0  0  0  1  0  0  0  0  0  0
  192.2040  178.9510  144.3420 F   0  0  0  0  0  0  0  0  0  0  0  0
  190.0950  175.5390  143.4900 C   0  0  0  0  0  2  0  0  0  0  0  0
  188.9500  177.4500  143.0360 C   0  0  1  0  0  3  0  0  0  0  0  0
  191.9200  177.0500  143.0710 O   0  0  0  0  0  0  0  0  0  0  0  0
  189.5870  176.3370  142.4510 O   0  0  0  0  0  0  0  0  0  0  0  0
  189.9010  178.4140  143.7830 C   0  0  1  0  0  3  0  0  0  0  0  0
  189.7340  178.2580  145.1610 O   0  0  0  0  0  1  0  0  0  0  0  0
  191.4370  176.0920  143.9790 C   0  0  2  0  0  3  0  0  0  0  0  0
  182.4540  178.7710  138.5520 C   0  0  0  0  0  2  0  0  0  0  0  0
  182.2890  180.2660  138.7480 C   0  0  0  0  0  1  0  0  0  0  0  0
  1  3  1  0  0  0  0
  2  4  1  1  0  0  0
  3 18  2  0  0  0  0
  4 10  1  0  0  0  0
  4  1  2  0  0  0  0
  5 11  1  6  0  0  0
  5 17  1  0  0  0  0
  5  2  1  0  0  0  0
  6 19  2  0  0  0  0
  7  2  1  0  0  0  0
  7 14  1  1  0  0  0
  8 19  1  0  0  0  0
  8  9  1  0  0  0  0
  9 11  1  6  0  0  0
  9 16  1  0  0  0  0
 10 12  1  6  0  0  0
 10 13  1  0  0  0  0
 13 18  1  0  0  0  0
 15 14  1  6  0  0  0
 15  1  1  0  0  0  0
 15 25  1  0  0  0  0
 16 20  1  6  0  0  0
 16  7  1  0  0  0  0
 17 31  1  6  0  0  0
 17 12  1  0  0  0  0
 19 20  1  0  0  0  0
 21 28  1  0  0  0  0
 21 23  1  1  0  0  0
 24 30  1  0  0  0  0
 25 27  1  6  0  0  0
 25 28  1  0  0  0  0
 26 21  1  0  0  0  0
 26 30  1  0  0  0  0
 27 24  1  0  0  0  0
 28 29  1  1  0  0  0
 30 22  1  6  0  0  0
 31 32  1  0  0  0  0
M  END
>  <MODEL>
9

>  <REMARK>
 VINA RESULT:      -8.4      3.433      7.053
  Name = 
  2 active torsions:
  status: ('A' for Active; 'I' for Inactive)
    1  A    between atoms: C_13  and  C_29
    2  A    between atoms: C_16  and  C_27
                            x       y       z     vdW  Elec       q    Type
                         _______ _______ _______ _____ _____    ______ ____

>  <TORSDO>
F 2

$$$$
