=
 OpenBabel10272401473D

 28 30  0  0  1  0  0  0  0  0999 V2000
  183.6150  179.1570  142.1340 C   0  0  0  0  0  2  0  0  0  0  0  0
  183.1330  178.6450  144.5330 C   0  0  0  0  0  1  0  0  0  0  0  0
  184.9100  180.2920  143.9460 C   0  0  0  0  0  1  0  0  0  0  0  0
  184.2240  178.9960  143.5280 C   0  0  0  0  0  0  0  0  0  0  0  0
  185.2490  177.8610  143.4480 C   0  0  0  0  0  2  0  0  0  0  0  0
  186.8170  177.7150  145.6150 C   0  0  0  0  0  0  0  0  0  0  0  0
  186.1120  177.7750  144.6390 C   0  0  0  0  0  0  0  0  0  0  0  0
  187.6710  177.6560  146.8050 C   0  0  0  0  0  2  0  0  0  0  0  0
  190.8260  177.4840  144.7160 C   0  0  0  0  0  3  0  0  0  0  0  0
  189.0880  177.4320  146.4050 C   0  0  0  0  0  0  0  0  0  0  0  0
  191.3260  176.6720  146.9410 C   0  0  0  0  0  0  0  0  0  0  0  0
  189.5010  177.7160  145.0980 C   0  0  0  0  0  3  0  0  0  0  0  0
  190.0020  176.9030  147.3260 C   0  0  0  0  0  3  0  0  0  0  0  0
  192.2540  176.1350  147.8780 N   0  0  0  0  0  1  0  0  0  0  0  0
  191.7390  176.9630  145.6370 C   0  0  0  0  0  3  0  0  0  0  0  0
  182.0300  178.0000  140.6030 C   0  0  0  0  0  2  0  0  0  0  0  0
  183.3780  177.8090  139.9380 C   0  0  2  0  0  3  0  0  0  0  0  0
  183.2620  177.8230  141.4680 C   0  0  1  0  0  3  0  0  0  0  0  0
  183.9120  179.3840  139.1750 S   0  0  0  0  0  0  0  0  0  0  0  0
  185.5670  178.7450  138.7700 C   0  0  0  0  0  2  0  0  0  0  0  0
  186.3700  178.6140  139.9800 N   0  0  0  0  0  0  0  0  0  0  0  0
  187.6380  178.3150  140.0320 C   0  0  0  0  0  0  0  0  0  0  0  0
  190.3970  177.4440  140.3000 C   0  0  0  0  0  2  0  0  0  0  0  0
  188.2730  178.1930  141.3840 C   0  0  0  0  0  2  0  0  0  0  0  0
  188.1810  178.6760  137.6900 N   0  0  0  0  0  2  0  0  0  0  0  0
  188.5030  178.1580  138.8300 C   0  0  0  0  0  0  0  0  0  0  0  0
  189.7470  177.3270  138.9220 C   0  0  0  0  0  2  0  0  0  0  0  0
  189.3760  177.1370  141.3900 C   0  0  0  0  0  2  0  0  0  0  0  0
  1  4  1  0  0  0  0
  4  3  1  0  0  0  0
  4  2  1  0  0  0  0
  5  4  1  0  0  0  0
  5  7  1  0  0  0  0
  6  8  1  0  0  0  0
  7  6  3  0  0  0  0
  9 12  2  0  0  0  0
  9 15  1  0  0  0  0
 10  8  1  0  0  0  0
 10 13  2  0  0  0  0
 11 13  1  0  0  0  0
 11 14  1  0  0  0  0
 12 10  1  0  0  0  0
 15 11  2  0  0  0  0
 16 18  1  0  0  0  0
 17 19  1  1  0  0  0
 17 16  1  0  0  0  0
 17 18  1  0  0  0  0
 18  1  1  1  0  0  0
 20 19  1  0  0  0  0
 20 21  1  0  0  0  0
 21 22  2  0  0  0  0
 22 24  1  0  0  0  0
 23 28  1  0  0  0  0
 24 28  1  0  0  0  0
 25 26  2  0  0  0  0
 26 27  1  0  0  0  0
 26 22  1  0  0  0  0
 27 23  1  0  0  0  0
M  END
>  <MODEL>
1

>  <REMARK>
 VINA RESULT:      -8.0      0.000      0.000
  Name = 
  9 active torsions:
  status: ('A' for Active; 'I' for Inactive)
    1  A    between atoms: C_1  and  N_2
    2  A    between atoms: C_1  and  S_26
    3  A    between atoms: C_5  and  C_21
    4  A    between atoms: C_5  and  C_27
    5  A    between atoms: C_9  and  C_18
    6  A    between atoms: C_14  and  C_18
    7  A    between atoms: C_19  and  S_26
    8  A    between atoms: C_20  and  C_25
    9  A    between atoms: C_20  and  C_27
                            x       y       z     vdW  Elec       q    Type
                         _______ _______ _______ _____ _____    ______ ____

>  <TORSDO>
F 9

$$$$
=
 OpenBabel10272401473D

 28 30  0  0  1  0  0  0  0  0999 V2000
  190.0880  177.8010  145.7840 C   0  0  0  0  0  2  0  0  0  0  0  0
  190.1330  178.3770  148.2160 C   0  0  0  0  0  1  0  0  0  0  0  0
  191.1810  176.2600  147.4210 C   0  0  0  0  0  1  0  0  0  0  0  0
  190.0330  177.2400  147.2060 C   0  0  0  0  0  0  0  0  0  0  0  0
  188.6910  176.5180  147.3600 C   0  0  0  0  0  2  0  0  0  0  0  0
  186.5810  178.0790  146.8230 C   0  0  0  0  0  0  0  0  0  0  0  0
  187.5330  177.3770  147.0590 C   0  0  0  0  0  0  0  0  0  0  0  0
  185.4200  178.9290  146.5480 C   0  0  0  0  0  2  0  0  0  0  0  0
  185.4630  178.1620  142.8390 C   0  0  0  0  0  3  0  0  0  0  0  0
  184.9690  178.7390  145.1410 C   0  0  0  0  0  0  0  0  0  0  0  0
  183.2270  178.8580  143.4600 C   0  0  0  0  0  0  0  0  0  0  0  0
  185.8800  178.3190  144.1640 C   0  0  0  0  0  3  0  0  0  0  0  0
  183.6420  179.0140  144.7850 C   0  0  0  0  0  3  0  0  0  0  0  0
  181.8790  179.1370  143.1000 N   0  0  0  0  0  1  0  0  0  0  0  0
  184.1360  178.4310  142.4870 C   0  0  0  0  0  3  0  0  0  0  0  0
  190.6940  176.1380  144.0350 C   0  0  0  0  0  2  0  0  0  0  0  0
  191.1180  177.4630  143.4350 C   0  0  2  0  0  3  0  0  0  0  0  0
  191.2330  177.2230  144.9460 C   0  0  1  0  0  3  0  0  0  0  0  0
  189.6370  178.3920  142.8960 S   0  0  0  0  0  0  0  0  0  0  0  0
  189.0980  177.0740  141.7620 C   0  0  0  0  0  2  0  0  0  0  0  0
  190.0130  176.9730  140.6310 N   0  0  0  0  0  0  0  0  0  0  0  0
  189.7390  177.2730  139.3920 C   0  0  0  0  0  0  0  0  0  0  0  0
  189.1960  177.6930  136.5690 C   0  0  0  0  0  2  0  0  0  0  0  0
  190.8130  177.0640  138.3680 C   0  0  0  0  0  2  0  0  0  0  0  0
  187.6730  178.4970  139.7740 N   0  0  0  0  0  2  0  0  0  0  0  0
  188.4500  177.8730  138.9490 C   0  0  0  0  0  0  0  0  0  0  0  0
  188.0070  177.7000  137.5280 C   0  0  0  0  0  2  0  0  0  0  0  0
  190.2270  176.6620  137.0170 C   0  0  0  0  0  2  0  0  0  0  0  0
  1  4  1  0  0  0  0
  4  5  1  0  0  0  0
  4  3  1  0  0  0  0
  4  2  1  0  0  0  0
  6  7  3  0  0  0  0
  7  5  1  0  0  0  0
  8  6  1  0  0  0  0
  9 12  1  0  0  0  0
 10  8  1  0  0  0  0
 11 13  2  0  0  0  0
 12 10  2  0  0  0  0
 13 10  1  0  0  0  0
 14 11  1  0  0  0  0
 15  9  2  0  0  0  0
 15 11  1  0  0  0  0
 16 18  1  0  0  0  0
 17 19  1  1  0  0  0
 17 16  1  0  0  0  0
 17 18  1  0  0  0  0
 18  1  1  1  0  0  0
 20 19  1  0  0  0  0
 21 20  1  0  0  0  0
 22 21  2  0  0  0  0
 23 28  1  0  0  0  0
 23 27  1  0  0  0  0
 24 22  1  0  0  0  0
 26 22  1  0  0  0  0
 26 25  2  0  0  0  0
 27 26  1  0  0  0  0
 28 24  1  0  0  0  0
M  END
>  <MODEL>
2

>  <REMARK>
 VINA RESULT:      -7.8      2.373      6.235
  Name = 
  9 active torsions:
  status: ('A' for Active; 'I' for Inactive)
    1  A    between atoms: C_1  and  N_2
    2  A    between atoms: C_1  and  S_26
    3  A    between atoms: C_5  and  C_21
    4  A    between atoms: C_5  and  C_27
    5  A    between atoms: C_9  and  C_18
    6  A    between atoms: C_14  and  C_18
    7  A    between atoms: C_19  and  S_26
    8  A    between atoms: C_20  and  C_25
    9  A    between atoms: C_20  and  C_27
                            x       y       z     vdW  Elec       q    Type
                         _______ _______ _______ _____ _____    ______ ____

>  <TORSDO>
F 9

$$$$
=
 OpenBabel10272401473D

 28 30  0  0  1  0  0  0  0  0999 V2000
  189.5800  177.9680  145.7220 C   0  0  0  0  0  2  0  0  0  0  0  0
  191.6260  176.5370  145.5970 C   0  0  0  0  0  1  0  0  0  0  0  0
  191.3630  178.4680  144.0420 C   0  0  0  0  0  1  0  0  0  0  0  0
  190.6290  177.3600  144.7890 C   0  0  0  0  0  0  0  0  0  0  0  0
  189.8870  176.4590  143.7970 C   0  0  0  0  0  2  0  0  0  0  0  0
  188.9360  177.7920  141.6770 C   0  0  0  0  0  0  0  0  0  0  0  0
  189.3580  177.1900  142.6330 C   0  0  0  0  0  0  0  0  0  0  0  0
  188.4350  178.5250  140.5110 C   0  0  0  0  0  2  0  0  0  0  0  0
  189.4050  178.1090  136.8730 C   0  0  0  0  0  3  0  0  0  0  0  0
  189.0330  177.9700  139.2640 C   0  0  0  0  0  0  0  0  0  0  0  0
  190.2740  176.2270  138.1260 C   0  0  0  0  0  0  0  0  0  0  0  0
  188.8640  178.6420  138.0470 C   0  0  0  0  0  3  0  0  0  0  0  0
  189.7340  176.7580  139.3010 C   0  0  0  0  0  3  0  0  0  0  0  0
  190.9870  174.9970  138.1640 N   0  0  0  0  0  1  0  0  0  0  0  0
  190.1110  176.9030  136.9120 C   0  0  0  0  0  3  0  0  0  0  0  0
  189.2640  178.0150  148.1900 C   0  0  0  0  0  2  0  0  0  0  0  0
  187.9780  177.4030  147.6740 C   0  0  2  0  0  3  0  0  0  0  0  0
  189.3110  177.1190  146.9690 C   0  0  1  0  0  3  0  0  0  0  0  0
  186.9460  178.7050  146.9090 S   0  0  0  0  0  0  0  0  0  0  0  0
  185.9130  177.5030  146.0120 C   0  0  0  0  0  2  0  0  0  0  0  0
  185.9890  177.7420  144.5760 N   0  0  0  0  0  0  0  0  0  0  0  0
  185.0400  178.2280  143.8270 C   0  0  0  0  0  0  0  0  0  0  0  0
  182.9420  179.0930  142.0120 C   0  0  0  0  0  2  0  0  0  0  0  0
  185.3070  178.3640  142.3580 C   0  0  0  0  0  2  0  0  0  0  0  0
  183.5920  179.0660  145.5910 N   0  0  0  0  0  2  0  0  0  0  0  0
  183.7370  178.7200  144.3540 C   0  0  0  0  0  0  0  0  0  0  0  0
  182.5430  178.7580  143.4480 C   0  0  0  0  0  2  0  0  0  0  0  0
  184.0390  178.1470  141.5360 C   0  0  0  0  0  2  0  0  0  0  0  0
  3  4  1  0  0  0  0
  4  2  1  0  0  0  0
  4  1  1  0  0  0  0
  5  4  1  0  0  0  0
  6  7  3  0  0  0  0
  7  5  1  0  0  0  0
  8  6  1  0  0  0  0
  9 15  2  0  0  0  0
  9 12  1  0  0  0  0
 10 13  1  0  0  0  0
 10  8  1  0  0  0  0
 11 14  1  0  0  0  0
 11 13  2  0  0  0  0
 12 10  2  0  0  0  0
 15 11  1  0  0  0  0
 17 19  1  6  0  0  0
 17 16  1  0  0  0  0
 18  1  1  6  0  0  0
 18 17  1  0  0  0  0
 18 16  1  0  0  0  0
 20 19  1  0  0  0  0
 21 20  1  0  0  0  0
 22 26  1  0  0  0  0
 22 21  2  0  0  0  0
 23 27  1  0  0  0  0
 24 22  1  0  0  0  0
 26 25  2  0  0  0  0
 27 26  1  0  0  0  0
 28 23  1  0  0  0  0
 28 24  1  0  0  0  0
M  END
>  <MODEL>
3

>  <REMARK>
 VINA RESULT:      -7.7      2.693      7.417
  Name = 
  9 active torsions:
  status: ('A' for Active; 'I' for Inactive)
    1  A    between atoms: C_1  and  N_2
    2  A    between atoms: C_1  and  S_26
    3  A    between atoms: C_5  and  C_21
    4  A    between atoms: C_5  and  C_27
    5  A    between atoms: C_9  and  C_18
    6  A    between atoms: C_14  and  C_18
    7  A    between atoms: C_19  and  S_26
    8  A    between atoms: C_20  and  C_25
    9  A    between atoms: C_20  and  C_27
                            x       y       z     vdW  Elec       q    Type
                         _______ _______ _______ _____ _____    ______ ____

>  <TORSDO>
F 9

$$$$
=
 OpenBabel10272401473D

 28 30  0  0  1  0  0  0  0  0999 V2000
  189.8880  176.9270  145.4750 C   0  0  0  0  0  2  0  0  0  0  0  0
  190.3490  178.4520  147.4010 C   0  0  0  0  0  1  0  0  0  0  0  0
  191.2630  176.1330  147.4060 C   0  0  0  0  0  1  0  0  0  0  0  0
  190.0860  177.0070  146.9900 C   0  0  0  0  0  0  0  0  0  0  0  0
  188.7970  176.5010  147.6450 C   0  0  0  0  0  2  0  0  0  0  0  0
  186.6720  178.0550  147.1530 C   0  0  0  0  0  0  0  0  0  0  0  0
  187.6320  177.3600  147.3740 C   0  0  0  0  0  0  0  0  0  0  0  0
  185.4970  178.8880  146.8860 C   0  0  0  0  0  2  0  0  0  0  0  0
  183.4000  178.8100  143.7320 C   0  0  0  0  0  3  0  0  0  0  0  0
  185.1070  178.7770  145.4520 C   0  0  0  0  0  0  0  0  0  0  0  0
  185.7030  178.3520  143.1420 C   0  0  0  0  0  0  0  0  0  0  0  0
  183.7690  178.9370  145.0750 C   0  0  0  0  0  3  0  0  0  0  0  0
  186.0740  178.4790  144.4830 C   0  0  0  0  0  3  0  0  0  0  0  0
  186.6860  178.0490  142.1590 N   0  0  0  0  0  1  0  0  0  0  0  0
  184.3670  178.5180  142.7660 C   0  0  0  0  0  3  0  0  0  0  0  0
  191.4850  178.2590  144.1090 C   0  0  0  0  0  2  0  0  0  0  0  0
  190.2510  178.1690  143.2350 C   0  0  2  0  0  3  0  0  0  0  0  0
  190.1160  178.2620  144.7600 C   0  0  1  0  0  3  0  0  0  0  0  0
  190.1200  176.4830  142.5350 S   0  0  0  0  0  0  0  0  0  0  0  0
  190.8190  176.9840  140.9310 C   0  0  0  0  0  2  0  0  0  0  0  0
  189.8190  177.6920  140.1410 N   0  0  0  0  0  0  0  0  0  0  0  0
  189.5850  177.5250  138.8700 C   0  0  0  0  0  0  0  0  0  0  0  0
  189.1130  177.4100  136.0050 C   0  0  0  0  0  2  0  0  0  0  0  0
  188.5330  178.3810  138.2330 C   0  0  0  0  0  2  0  0  0  0  0  0
  190.8020  175.4430  138.5580 N   0  0  0  0  0  2  0  0  0  0  0  0
  190.2510  176.4890  138.0330 C   0  0  0  0  0  0  0  0  0  0  0  0
  190.3440  176.6880  136.5500 C   0  0  0  0  0  2  0  0  0  0  0  0
  188.8750  178.7010  136.7800 C   0  0  0  0  0  2  0  0  0  0  0  0
  1  4  1  0  0  0  0
  4  2  1  0  0  0  0
  4  3  1  0  0  0  0
  4  5  1  0  0  0  0
  6  7  3  0  0  0  0
  7  5  1  0  0  0  0
  8  6  1  0  0  0  0
  9 12  1  0  0  0  0
 10  8  1  0  0  0  0
 11 13  2  0  0  0  0
 12 10  2  0  0  0  0
 13 10  1  0  0  0  0
 14 11  1  0  0  0  0
 15 11  1  0  0  0  0
 15  9  2  0  0  0  0
 16 18  1  0  0  0  0
 17 19  1  1  0  0  0
 17 16  1  0  0  0  0
 17 18  1  0  0  0  0
 18  1  1  1  0  0  0
 20 19  1  0  0  0  0
 21 20  1  0  0  0  0
 22 21  2  0  0  0  0
 23 27  1  0  0  0  0
 23 28  1  0  0  0  0
 24 22  1  0  0  0  0
 26 25  2  0  0  0  0
 26 22  1  0  0  0  0
 27 26  1  0  0  0  0
 28 24  1  0  0  0  0
M  END
>  <MODEL>
4

>  <REMARK>
 VINA RESULT:      -7.6      2.716      6.035
  Name = 
  9 active torsions:
  status: ('A' for Active; 'I' for Inactive)
    1  A    between atoms: C_1  and  N_2
    2  A    between atoms: C_1  and  S_26
    3  A    between atoms: C_5  and  C_21
    4  A    between atoms: C_5  and  C_27
    5  A    between atoms: C_9  and  C_18
    6  A    between atoms: C_14  and  C_18
    7  A    between atoms: C_19  and  S_26
    8  A    between atoms: C_20  and  C_25
    9  A    between atoms: C_20  and  C_27
                            x       y       z     vdW  Elec       q    Type
                         _______ _______ _______ _____ _____    ______ ____

>  <TORSDO>
F 9

$$$$
=
 OpenBabel10272401473D

 28 30  0  0  1  0  0  0  0  0999 V2000
  190.9920  177.7890  144.8770 C   0  0  0  0  0  2  0  0  0  0  0  0
  189.4820  178.5020  143.0170 C   0  0  0  0  0  1  0  0  0  0  0  0
  190.0010  176.0850  143.3390 C   0  0  0  0  0  1  0  0  0  0  0  0
  190.5530  177.5030  143.4400 C   0  0  0  0  0  0  0  0  0  0  0  0
  191.7900  177.6500  142.5480 C   0  0  0  0  0  2  0  0  0  0  0  0
  191.3290  176.9590  140.0020 C   0  0  0  0  0  0  0  0  0  0  0  0
  191.5420  177.2730  141.1460 C   0  0  0  0  0  0  0  0  0  0  0  0
  191.0580  176.5720  138.6140 C   0  0  0  0  0  2  0  0  0  0  0  0
  188.4630  178.1340  136.3400 C   0  0  0  0  0  3  0  0  0  0  0  0
  189.8020  177.2160  138.1400 C   0  0  0  0  0  0  0  0  0  0  0  0
  187.6330  178.1890  138.6140 C   0  0  0  0  0  0  0  0  0  0  0  0
  189.6330  177.5080  136.7820 C   0  0  0  0  0  3  0  0  0  0  0  0
  188.8010  177.5630  139.0580 C   0  0  0  0  0  3  0  0  0  0  0  0
  186.6170  178.5400  139.5470 N   0  0  0  0  0  1  0  0  0  0  0  0
  187.4630  178.4740  137.2550 C   0  0  0  0  0  3  0  0  0  0  0  0
  191.4340  176.9290  147.1700 C   0  0  0  0  0  2  0  0  0  0  0  0
  189.9820  176.5700  146.9230 C   0  0  2  0  0  3  0  0  0  0  0  0
  190.9940  176.5450  145.7710 C   0  0  1  0  0  3  0  0  0  0  0  0
  188.9530  178.0790  147.0330 S   0  0  0  0  0  0  0  0  0  0  0  0
  187.4290  177.1960  146.5710 C   0  0  0  0  0  2  0  0  0  0  0  0
  187.0880  177.4680  145.1790 N   0  0  0  0  0  0  0  0  0  0  0  0
  186.0270  178.0950  144.7560 C   0  0  0  0  0  0  0  0  0  0  0  0
  183.6050  179.2770  143.6720 C   0  0  0  0  0  2  0  0  0  0  0  0
  185.8440  178.2400  143.2760 C   0  0  0  0  0  2  0  0  0  0  0  0
  185.3180  179.0560  146.8740 N   0  0  0  0  0  2  0  0  0  0  0  0
  185.0270  178.7330  145.6560 C   0  0  0  0  0  0  0  0  0  0  0  0
  183.6280  178.9510  145.1640 C   0  0  0  0  0  2  0  0  0  0  0  0
  184.3670  178.2130  142.8900 C   0  0  0  0  0  2  0  0  0  0  0  0
  2  4  1  0  0  0  0
  3  4  1  0  0  0  0
  4  1  1  0  0  0  0
  5  4  1  0  0  0  0
  6  7  3  0  0  0  0
  7  5  1  0  0  0  0
  8  6  1  0  0  0  0
  9 12  2  0  0  0  0
  9 15  1  0  0  0  0
 10  8  1  0  0  0  0
 10 13  2  0  0  0  0
 11 13  1  0  0  0  0
 11 14  1  0  0  0  0
 12 10  1  0  0  0  0
 15 11  2  0  0  0  0
 17 19  1  6  0  0  0
 17 16  1  0  0  0  0
 18  1  1  6  0  0  0
 18 17  1  0  0  0  0
 18 16  1  0  0  0  0
 20 19  1  0  0  0  0
 21 20  1  0  0  0  0
 22 21  2  0  0  0  0
 22 26  1  0  0  0  0
 23 27  1  0  0  0  0
 24 22  1  0  0  0  0
 26 25  2  0  0  0  0
 27 26  1  0  0  0  0
 28 24  1  0  0  0  0
 28 23  1  0  0  0  0
M  END
>  <MODEL>
5

>  <REMARK>
 VINA RESULT:      -7.5      2.756      8.070
  Name = 
  9 active torsions:
  status: ('A' for Active; 'I' for Inactive)
    1  A    between atoms: C_1  and  N_2
    2  A    between atoms: C_1  and  S_26
    3  A    between atoms: C_5  and  C_21
    4  A    between atoms: C_5  and  C_27
    5  A    between atoms: C_9  and  C_18
    6  A    between atoms: C_14  and  C_18
    7  A    between atoms: C_19  and  S_26
    8  A    between atoms: C_20  and  C_25
    9  A    between atoms: C_20  and  C_27
                            x       y       z     vdW  Elec       q    Type
                         _______ _______ _______ _____ _____    ______ ____

>  <TORSDO>
F 9

$$$$
=
 OpenBabel10272401473D

 28 30  0  0  1  0  0  0  0  0999 V2000
  189.9360  176.9870  145.2840 C   0  0  0  0  0  2  0  0  0  0  0  0
  190.3350  178.4500  147.2710 C   0  0  0  0  0  1  0  0  0  0  0  0
  191.2580  176.1350  147.2270 C   0  0  0  0  0  1  0  0  0  0  0  0
  190.0900  177.0190  146.8050 C   0  0  0  0  0  0  0  0  0  0  0  0
  188.7850  176.4870  147.4060 C   0  0  0  0  0  2  0  0  0  0  0  0
  186.6750  178.0680  146.9320 C   0  0  0  0  0  0  0  0  0  0  0  0
  187.6290  177.3620  147.1460 C   0  0  0  0  0  0  0  0  0  0  0  0
  185.5090  178.9160  146.6700 C   0  0  0  0  0  2  0  0  0  0  0  0
  185.5070  178.1220  142.9660 C   0  0  0  0  0  3  0  0  0  0  0  0
  185.0440  178.7250  145.2670 C   0  0  0  0  0  0  0  0  0  0  0  0
  183.2920  178.8680  143.5990 C   0  0  0  0  0  0  0  0  0  0  0  0
  185.9380  178.2800  144.2870 C   0  0  0  0  0  3  0  0  0  0  0  0
  183.7200  179.0250  144.9200 C   0  0  0  0  0  3  0  0  0  0  0  0
  181.9470  179.1720  143.2480 N   0  0  0  0  0  1  0  0  0  0  0  0
  184.1840  178.4160  142.6220 C   0  0  0  0  0  3  0  0  0  0  0  0
  191.5340  178.3880  143.9890 C   0  0  0  0  0  2  0  0  0  0  0  0
  190.3120  178.3160  143.0960 C   0  0  2  0  0  3  0  0  0  0  0  0
  190.1570  178.3510  144.6210 C   0  0  1  0  0  3  0  0  0  0  0  0
  190.2110  176.6560  142.3330 S   0  0  0  0  0  0  0  0  0  0  0  0
  190.9520  177.2180  140.7680 C   0  0  0  0  0  2  0  0  0  0  0  0
  190.6120  176.2990  139.6870 N   0  0  0  0  0  0  0  0  0  0  0  0
  191.3540  176.0240  138.6520 C   0  0  0  0  0  0  0  0  0  0  0  0
  192.8050  175.4910  136.1920 C   0  0  0  0  0  2  0  0  0  0  0  0
  190.8050  175.0740  137.6300 C   0  0  0  0  0  2  0  0  0  0  0  0
  193.4450  176.9680  139.4540 N   0  0  0  0  0  2  0  0  0  0  0  0
  192.7370  176.5420  138.4600 C   0  0  0  0  0  0  0  0  0  0  0  0
  193.3040  176.6320  137.0760 C   0  0  0  0  0  2  0  0  0  0  0  0
  191.2820  175.4280  136.2240 C   0  0  0  0  0  2  0  0  0  0  0  0
  1  4  1  0  0  0  0
  4  3  1  0  0  0  0
  4  2  1  0  0  0  0
  4  5  1  0  0  0  0
  6  7  3  0  0  0  0
  7  5  1  0  0  0  0
  8  6  1  0  0  0  0
  9 12  1  0  0  0  0
 10  8  1  0  0  0  0
 11 13  2  0  0  0  0
 12 10  2  0  0  0  0
 13 10  1  0  0  0  0
 14 11  1  0  0  0  0
 15  9  2  0  0  0  0
 15 11  1  0  0  0  0
 16 18  1  0  0  0  0
 17 19  1  1  0  0  0
 17 16  1  0  0  0  0
 17 18  1  0  0  0  0
 18  1  1  1  0  0  0
 20 19  1  0  0  0  0
 21 20  1  0  0  0  0
 22 21  2  0  0  0  0
 23 28  1  0  0  0  0
 23 27  1  0  0  0  0
 24 22  1  0  0  0  0
 26 22  1  0  0  0  0
 26 25  2  0  0  0  0
 27 26  1  0  0  0  0
 28 24  1  0  0  0  0
M  END
>  <MODEL>
6

>  <REMARK>
 VINA RESULT:      -7.4      3.032      6.531
  Name = 
  9 active torsions:
  status: ('A' for Active; 'I' for Inactive)
    1  A    between atoms: C_1  and  N_2
    2  A    between atoms: C_1  and  S_26
    3  A    between atoms: C_5  and  C_21
    4  A    between atoms: C_5  and  C_27
    5  A    between atoms: C_9  and  C_18
    6  A    between atoms: C_14  and  C_18
    7  A    between atoms: C_19  and  S_26
    8  A    between atoms: C_20  and  C_25
    9  A    between atoms: C_20  and  C_27
                            x       y       z     vdW  Elec       q    Type
                         _______ _______ _______ _____ _____    ______ ____

>  <TORSDO>
F 9

$$$$
=
 OpenBabel10272401473D

 28 30  0  0  1  0  0  0  0  0999 V2000
  189.8780  178.0310  142.3420 C   0  0  0  0  0  2  0  0  0  0  0  0
  191.6490  176.4340  143.0880 C   0  0  0  0  0  1  0  0  0  0  0  0
  189.2440  175.8310  143.3460 C   0  0  0  0  0  1  0  0  0  0  0  0
  190.2540  176.9730  143.3800 C   0  0  0  0  0  0  0  0  0  0  0  0
  190.2310  177.6540  144.7530 C   0  0  0  0  0  2  0  0  0  0  0  0
  187.7830  177.7920  145.8300 C   0  0  0  0  0  0  0  0  0  0  0  0
  188.8830  177.7310  145.3390 C   0  0  0  0  0  0  0  0  0  0  0  0
  186.4520  177.8630  146.4380 C   0  0  0  0  0  2  0  0  0  0  0  0
  183.2560  179.1450  144.8600 C   0  0  0  0  0  3  0  0  0  0  0  0
  185.4450  178.2660  145.4160 C   0  0  0  0  0  0  0  0  0  0  0  0
  184.7640  178.4480  143.0970 C   0  0  0  0  0  0  0  0  0  0  0  0
  184.2100  178.7880  145.8180 C   0  0  0  0  0  3  0  0  0  0  0  0
  185.7190  178.0910  144.0540 C   0  0  0  0  0  3  0  0  0  0  0  0
  185.0430  178.2700  141.7140 N   0  0  0  0  0  1  0  0  0  0  0  0
  183.5330  178.9760  143.5000 C   0  0  0  0  0  3  0  0  0  0  0  0
  188.3200  178.7760  140.5490 C   0  0  0  0  0  2  0  0  0  0  0  0
  188.6680  177.3540  140.1570 C   0  0  2  0  0  3  0  0  0  0  0  0
  188.5480  177.7440  141.6360 C   0  0  1  0  0  3  0  0  0  0  0  0
  190.3720  177.3030  139.4920 S   0  0  0  0  0  0  0  0  0  0  0  0
  189.8270  177.6500  137.7900 C   0  0  0  0  0  2  0  0  0  0  0  0
  189.0370  176.5380  137.2740 N   0  0  0  0  0  0  0  0  0  0  0  0
  187.7660  176.5680  136.9880 C   0  0  0  0  0  0  0  0  0  0  0  0
  184.9010  176.4330  136.5210 C   0  0  0  0  0  2  0  0  0  0  0  0
  187.1290  175.3010  136.5010 C   0  0  0  0  0  2  0  0  0  0  0  0
  187.4550  178.9790  137.0090 N   0  0  0  0  0  2  0  0  0  0  0  0
  186.9290  177.7980  137.0510 C   0  0  0  0  0  0  0  0  0  0  0  0
  185.4460  177.6720  137.2300 C   0  0  0  0  0  2  0  0  0  0  0  0
  185.6760  175.1940  136.9560 C   0  0  0  0  0  2  0  0  0  0  0  0
  1  4  1  0  0  0  0
  2  4  1  0  0  0  0
  3  4  1  0  0  0  0
  4  5  1  0  0  0  0
  5  7  1  0  0  0  0
  6  8  1  0  0  0  0
  7  6  3  0  0  0  0
  9 12  1  0  0  0  0
 10 12  2  0  0  0  0
 10  8  1  0  0  0  0
 11 15  1  0  0  0  0
 11 13  2  0  0  0  0
 13 10  1  0  0  0  0
 14 11  1  0  0  0  0
 15  9  2  0  0  0  0
 16 18  1  0  0  0  0
 17 19  1  1  0  0  0
 17 16  1  0  0  0  0
 17 18  1  0  0  0  0
 18  1  1  1  0  0  0
 20 19  1  0  0  0  0
 21 20  1  0  0  0  0
 22 26  1  0  0  0  0
 22 21  2  0  0  0  0
 23 28  1  0  0  0  0
 23 27  1  0  0  0  0
 24 28  1  0  0  0  0
 24 22  1  0  0  0  0
 25 26  2  0  0  0  0
 26 27  1  0  0  0  0
M  END
>  <MODEL>
7

>  <REMARK>
 VINA RESULT:      -7.3      2.778      5.800
  Name = 
  9 active torsions:
  status: ('A' for Active; 'I' for Inactive)
    1  A    between atoms: C_1  and  N_2
    2  A    between atoms: C_1  and  S_26
    3  A    between atoms: C_5  and  C_21
    4  A    between atoms: C_5  and  C_27
    5  A    between atoms: C_9  and  C_18
    6  A    between atoms: C_14  and  C_18
    7  A    between atoms: C_19  and  S_26
    8  A    between atoms: C_20  and  C_25
    9  A    between atoms: C_20  and  C_27
                            x       y       z     vdW  Elec       q    Type
                         _______ _______ _______ _____ _____    ______ ____

>  <TORSDO>
F 9

$$$$
=
 OpenBabel10272401473D

 28 30  0  0  1  0  0  0  0  0999 V2000
  189.6520  178.0610  139.1350 C   0  0  0  0  0  2  0  0  0  0  0  0
  190.2550  176.9890  136.9580 C   0  0  0  0  0  1  0  0  0  0  0  0
  188.8560  179.0530  136.9830 C   0  0  0  0  0  1  0  0  0  0  0  0
  189.1740  177.7540  137.7150 C   0  0  0  0  0  0  0  0  0  0  0  0
  187.9110  176.8960  137.8350 C   0  0  0  0  0  2  0  0  0  0  0  0
  185.7280  178.3030  138.4910 C   0  0  0  0  0  0  0  0  0  0  0  0
  186.7150  177.6730  138.1990 C   0  0  0  0  0  0  0  0  0  0  0  0
  184.5230  179.0600  138.8400 C   0  0  0  0  0  2  0  0  0  0  0  0
  185.1240  178.8650  142.5750 C   0  0  0  0  0  3  0  0  0  0  0  0
  184.2760  178.9790  140.3070 C   0  0  0  0  0  0  0  0  0  0  0  0
  182.7370  178.7830  142.1700 C   0  0  0  0  0  0  0  0  0  0  0  0
  185.3540  178.9640  141.1990 C   0  0  0  0  0  3  0  0  0  0  0  0
  182.9660  178.8830  140.7940 C   0  0  0  0  0  3  0  0  0  0  0  0
  181.4060  178.6860  142.6630 N   0  0  0  0  0  1  0  0  0  0  0  0
  183.8150  178.7760  143.0600 C   0  0  0  0  0  3  0  0  0  0  0  0
  191.2470  177.4570  140.9470 C   0  0  0  0  0  2  0  0  0  0  0  0
  190.0650  176.5410  141.1870 C   0  0  2  0  0  3  0  0  0  0  0  0
  190.4710  176.9250  139.7590 C   0  0  1  0  0  3  0  0  0  0  0  0
  188.6810  177.5040  141.8980 S   0  0  0  0  0  0  0  0  0  0  0  0
  188.5330  176.4140  143.3490 C   0  0  0  0  0  2  0  0  0  0  0  0
  187.7460  177.0620  144.3920 N   0  0  0  0  0  0  0  0  0  0  0  0
  188.1740  177.4110  145.5720 C   0  0  0  0  0  0  0  0  0  0  0  0
  188.9380  178.0390  148.3040 C   0  0  0  0  0  2  0  0  0  0  0  0
  187.1920  178.0360  146.5160 C   0  0  0  0  0  2  0  0  0  0  0  0
  190.5610  177.2060  145.1560 N   0  0  0  0  0  2  0  0  0  0  0  0
  189.5930  177.2900  146.0090 C   0  0  0  0  0  0  0  0  0  0  0  0
  189.9070  177.2010  147.4720 C   0  0  0  0  0  2  0  0  0  0  0  0
  187.4980  177.6680  147.9660 C   0  0  0  0  0  2  0  0  0  0  0  0
  2  4  1  0  0  0  0
  3  4  1  0  0  0  0
  4  5  1  0  0  0  0
  4  1  1  0  0  0  0
  5  7  1  0  0  0  0
  6  8  1  0  0  0  0
  7  6  3  0  0  0  0
  8 10  1  0  0  0  0
  9 15  1  0  0  0  0
 10 13  2  0  0  0  0
 10 12  1  0  0  0  0
 11 14  1  0  0  0  0
 11 15  2  0  0  0  0
 12  9  2  0  0  0  0
 13 11  1  0  0  0  0
 16 17  1  0  0  0  0
 17 19  1  1  0  0  0
 18  1  1  1  0  0  0
 18 16  1  0  0  0  0
 18 17  1  0  0  0  0
 19 20  1  0  0  0  0
 20 21  1  0  0  0  0
 21 22  2  0  0  0  0
 22 26  1  0  0  0  0
 22 24  1  0  0  0  0
 24 28  1  0  0  0  0
 25 26  2  0  0  0  0
 26 27  1  0  0  0  0
 27 23  1  0  0  0  0
 28 23  1  0  0  0  0
M  END
>  <MODEL>
8

>  <REMARK>
 VINA RESULT:      -7.3      2.425      7.777
  Name = 
  9 active torsions:
  status: ('A' for Active; 'I' for Inactive)
    1  A    between atoms: C_1  and  N_2
    2  A    between atoms: C_1  and  S_26
    3  A    between atoms: C_5  and  C_21
    4  A    between atoms: C_5  and  C_27
    5  A    between atoms: C_9  and  C_18
    6  A    between atoms: C_14  and  C_18
    7  A    between atoms: C_19  and  S_26
    8  A    between atoms: C_20  and  C_25
    9  A    between atoms: C_20  and  C_27
                            x       y       z     vdW  Elec       q    Type
                         _______ _______ _______ _____ _____    ______ ____

>  <TORSDO>
F 9

$$$$
=
 OpenBabel10272401473D

 28 30  0  0  1  0  0  0  0  0999 V2000
  184.9260  178.1480  143.5850 C   0  0  0  0  0  2  0  0  0  0  0  0
  182.5900  179.0260  143.7110 C   0  0  0  0  0  1  0  0  0  0  0  0
  184.4930  180.4460  144.4700 C   0  0  0  0  0  1  0  0  0  0  0  0
  183.9570  179.0210  144.3840 C   0  0  0  0  0  0  0  0  0  0  0  0
  183.8500  178.4150  145.7870 C   0  0  0  0  0  2  0  0  0  0  0  0
  186.1820  178.3570  147.1020 C   0  0  0  0  0  0  0  0  0  0  0  0
  185.1340  178.3890  146.5070 C   0  0  0  0  0  0  0  0  0  0  0  0
  187.4530  178.3080  147.8300 C   0  0  0  0  0  2  0  0  0  0  0  0
  189.3440  177.3130  144.7020 C   0  0  0  0  0  3  0  0  0  0  0  0
  188.5390  177.8280  146.9290 C   0  0  0  0  0  0  0  0  0  0  0  0
  190.7620  176.9120  146.6240 C   0  0  0  0  0  0  0  0  0  0  0  0
  188.3330  177.7850  145.5450 C   0  0  0  0  0  3  0  0  0  0  0  0
  189.7540  177.3850  147.4690 C   0  0  0  0  0  3  0  0  0  0  0  0
  191.9960  176.4630  147.1720 N   0  0  0  0  0  1  0  0  0  0  0  0
  190.5580  176.8770  145.2410 C   0  0  0  0  0  3  0  0  0  0  0  0
  186.7940  178.0520  141.9430 C   0  0  0  0  0  2  0  0  0  0  0  0
  185.8990  179.1520  141.4080 C   0  0  2  0  0  3  0  0  0  0  0  0
  186.0540  178.9440  142.9200 C   0  0  1  0  0  3  0  0  0  0  0  0
  184.4010  178.4110  140.6610 S   0  0  0  0  0  0  0  0  0  0  0  0
  184.9030  178.8520  138.9680 C   0  0  0  0  0  2  0  0  0  0  0  0
  184.8230  177.6850  138.0960 N   0  0  0  0  0  0  0  0  0  0  0  0
  185.7820  177.2200  137.3460 C   0  0  0  0  0  0  0  0  0  0  0  0
  187.7570  176.2120  135.4680 C   0  0  0  0  0  2  0  0  0  0  0  0
  185.4850  176.0250  136.4920 C   0  0  0  0  0  2  0  0  0  0  0  0
  187.6310  178.4530  138.3320 N   0  0  0  0  0  2  0  0  0  0  0  0
  187.1690  177.7620  137.3410 C   0  0  0  0  0  0  0  0  0  0  0  0
  188.0350  177.5580  136.1350 C   0  0  0  0  0  2  0  0  0  0  0  0
  186.2670  176.0660  135.1810 C   0  0  0  0  0  2  0  0  0  0  0  0
  1  4  1  0  0  0  0
  2  4  1  0  0  0  0
  4  3  1  0  0  0  0
  4  5  1  0  0  0  0
  5  7  1  0  0  0  0
  6  8  1  0  0  0  0
  7  6  3  0  0  0  0
  9 15  2  0  0  0  0
  9 12  1  0  0  0  0
 10 13  1  0  0  0  0
 10  8  1  0  0  0  0
 11 14  1  0  0  0  0
 11 13  2  0  0  0  0
 12 10  2  0  0  0  0
 15 11  1  0  0  0  0
 16 18  1  0  0  0  0
 17 19  1  6  0  0  0
 17 16  1  0  0  0  0
 17 18  1  0  0  0  0
 18  1  1  6  0  0  0
 20 19  1  0  0  0  0
 21 20  1  0  0  0  0
 22 21  2  0  0  0  0
 23 27  1  0  0  0  0
 24 22  1  0  0  0  0
 26 22  1  0  0  0  0
 26 25  2  0  0  0  0
 27 26  1  0  0  0  0
 28 23  1  0  0  0  0
 28 24  1  0  0  0  0
M  END
>  <MODEL>
9

>  <REMARK>
 VINA RESULT:      -7.2      1.934      2.889
  Name = 
  9 active torsions:
  status: ('A' for Active; 'I' for Inactive)
    1  A    between atoms: C_1  and  N_2
    2  A    between atoms: C_1  and  S_26
    3  A    between atoms: C_5  and  C_21
    4  A    between atoms: C_5  and  C_27
    5  A    between atoms: C_9  and  C_18
    6  A    between atoms: C_14  and  C_18
    7  A    between atoms: C_19  and  S_26
    8  A    between atoms: C_20  and  C_25
    9  A    between atoms: C_20  and  C_27
                            x       y       z     vdW  Elec       q    Type
                         _______ _______ _______ _____ _____    ______ ____

>  <TORSDO>
F 9

$$$$
