=
 OpenBabel10272415203D

 34 39  0  0  1  0  0  0  0  0999 V2000
  183.9950  178.6700  141.7310 N   0  0  0  0  0  0  0  0  0  0  0  0
  182.0230  177.4650  138.9240 C   0  0  0  0  0  3  0  0  0  0  0  0
  181.7800  178.7710  141.0680 C   0  0  0  0  0  0  0  0  0  0  0  0
  184.6870  179.1460  144.0350 C   0  0  1  0  0  3  0  0  0  0  0  0
  184.9880  178.3440  142.7480 C   0  0  0  0  0  2  0  0  0  0  0  0
  182.2280  179.0380  143.4080 C   0  0  0  0  0  0  0  0  0  0  0  0
  180.8890  179.1550  143.6410 N   0  0  0  0  0  0  0  0  0  0  0  0
  183.2320  178.9230  144.5230 C   0  0  0  0  0  2  0  0  0  0  0  0
  180.4090  178.9230  141.2820 C   0  0  0  0  0  3  0  0  0  0  0  0
  182.6540  178.8710  142.1050 C   0  0  0  0  0  0  0  0  0  0  0  0
  179.9820  179.1200  142.6130 C   0  0  0  0  0  3  0  0  0  0  0  0
  182.7610  176.8600  137.9710 C   0  0  0  0  0  3  0  0  0  0  0  0
  184.2470  177.0600  137.7230 C   0  0  2  0  0  3  0  0  0  0  0  0
  184.7580  178.4900  137.9840 C   0  0  0  0  0  2  0  0  0  0  0  0
  182.5600  178.5440  139.8190 C   0  0  1  0  0  3  0  0  0  0  0  0
  185.0530  178.7450  139.4720 C   0  0  0  0  0  2  0  0  0  0  0  0
  183.9570  178.1690  140.3610 C   0  0  1  0  0  3  0  0  0  0  0  0
  186.7480  177.9670  147.8410 C   0  0  0  0  0  2  0  0  0  0  0  0
  186.2710  177.4050  144.9040 C   0  0  0  0  0  2  0  0  0  0  0  0
  190.2000  176.9950  146.6280 C   0  0  0  0  0  0  0  0  0  0  0  0
  189.1320  177.3960  147.4390 C   0  0  0  0  0  3  0  0  0  0  0  0
  187.8450  177.5430  146.9110 C   0  0  0  0  0  0  0  0  0  0  0  0
  185.6870  178.7980  145.1350 C   0  0  2  0  0  3  0  0  0  0  0  0
  188.6890  176.8740  144.7330 C   0  0  0  0  0  3  0  0  0  0  0  0
  187.6220  177.2780  145.5400 C   0  0  0  0  0  0  0  0  0  0  0  0
  189.9710  176.7340  145.2720 C   0  0  0  0  0  3  0  0  0  0  0  0
  185.0500  178.8190  146.3850 O   0  0  0  0  0  0  0  0  0  0  0  0
  186.0260  179.2020  147.3150 C   0  0  0  0  0  2  0  0  0  0  0  0
  191.5470  176.8470  147.2010 C   0  0  0  0  0  0  0  0  0  0  0  0
  192.3970  176.0960  146.6510 O   0  0  0  0  0  0  0  0  0  0  0  0
  191.8970  177.5370  148.3570 O   0  0  0  0  0  1  0  0  0  0  0  0
  184.6290  176.5390  136.3360 C   0  0  0  0  0  3  0  0  0  0  0  0
  183.6060  176.9110  135.2730 C   0  0  0  0  0  1  0  0  0  0  0  0
  186.0040  177.0350  135.9290 C   0  0  0  0  0  1  0  0  0  0  0  0
  1 10  1  0  0  0  0
  1  5  1  0  0  0  0
  3  9  2  0  0  0  0
  3 10  1  0  0  0  0
  4  5  1  6  0  0  0
  4  8  1  0  0  0  0
  4 23  1  0  0  0  0
  6  7  1  0  0  0  0
  6  8  1  0  0  0  0
  9 11  1  0  0  0  0
 10  6  2  0  0  0  0
 11  7  2  0  0  0  0
 12  2  2  0  0  0  0
 13 32  1  6  0  0  0
 13 12  1  0  0  0  0
 13 14  1  0  0  0  0
 14 16  1  0  0  0  0
 15  2  1  1  0  0  0
 15 17  1  0  0  0  0
 15  3  1  0  0  0  0
 17 16  1  6  0  0  0
 17  1  1  0  0  0  0
 19 25  1  0  0  0  0
 20 29  1  0  0  0  0
 20 21  1  0  0  0  0
 22 21  2  0  0  0  0
 22 18  1  0  0  0  0
 23 19  1  6  0  0  0
 23 27  1  0  0  0  0
 24 26  1  0  0  0  0
 24 25  2  0  0  0  0
 25 22  1  0  0  0  0
 26 20  2  0  0  0  0
 27 28  1  0  0  0  0
 28 18  1  0  0  0  0
 29 31  1  0  0  0  0
 30 29  2  0  0  0  0
 33 32  1  0  0  0  0
 34 32  1  0  0  0  0
M  END
>  <MODEL>
1

>  <REMARK>
 VINA RESULT:     -10.6      0.000      0.000
  Name = 
  3 active torsions:
  status: ('A' for Active; 'I' for Inactive)
    1  A    between atoms: C_3  and  C_25
    2  A    between atoms: C_7  and  C_11
    3  A    between atoms: C_8  and  C_18
                            x       y       z     vdW  Elec       q    Type
                         _______ _______ _______ _____ _____    ______ ____

>  <TORSDO>
F 3

$$$$
=
 OpenBabel10272415203D

 34 39  0  0  1  0  0  0  0  0999 V2000
  190.0330  177.1160  138.7810 N   0  0  0  0  0  0  0  0  0  0  0  0
  191.2010  175.1570  135.9500 C   0  0  0  0  0  3  0  0  0  0  0  0
  189.6240  177.0460  136.5050 C   0  0  0  0  0  0  0  0  0  0  0  0
  188.5170  178.2490  140.3410 C   0  0  1  0  0  3  0  0  0  0  0  0
  189.5280  177.0960  140.1490 C   0  0  0  0  0  2  0  0  0  0  0  0
  187.9100  177.9930  137.8880 C   0  0  0  0  0  0  0  0  0  0  0  0
  187.1390  178.1930  136.7810 N   0  0  0  0  0  0  0  0  0  0  0  0
  187.3850  178.2010  139.2830 C   0  0  0  0  0  2  0  0  0  0  0  0
  188.8640  177.2730  135.3560 C   0  0  0  0  0  3  0  0  0  0  0  0
  189.1650  177.4390  137.7230 C   0  0  0  0  0  0  0  0  0  0  0  0
  187.5950  177.8650  135.5280 C   0  0  0  0  0  3  0  0  0  0  0  0
  192.1780  174.2850  136.2690 C   0  0  0  0  0  3  0  0  0  0  0  0
  193.1140  174.3810  137.4630 C   0  0  2  0  0  3  0  0  0  0  0  0
  193.5130  175.8170  137.8560 C   0  0  0  0  0  2  0  0  0  0  0  0
  190.9760  176.4460  136.6850 C   0  0  1  0  0  3  0  0  0  0  0  0
  192.4500  176.5000  138.7340 C   0  0  0  0  0  2  0  0  0  0  0  0
  191.0430  176.2300  138.2140 C   0  0  1  0  0  3  0  0  0  0  0  0
  185.9390  177.8810  143.9940 C   0  0  0  0  0  2  0  0  0  0  0  0
  188.4340  177.0040  142.5180 C   0  0  0  0  0  2  0  0  0  0  0  0
  188.4970  177.6690  146.7760 C   0  0  0  0  0  0  0  0  0  0  0  0
  187.3050  177.8640  146.0680 C   0  0  0  0  0  3  0  0  0  0  0  0
  187.2510  177.6610  144.6850 C   0  0  0  0  0  0  0  0  0  0  0  0
  187.9380  178.2310  141.7540 C   0  0  2  0  0  3  0  0  0  0  0  0
  189.6030  177.0520  144.7060 C   0  0  0  0  0  3  0  0  0  0  0  0
  188.4160  177.2500  143.9960 C   0  0  0  0  0  0  0  0  0  0  0  0
  189.6460  177.2610  146.0870 C   0  0  0  0  0  3  0  0  0  0  0  0
  186.5370  178.1940  141.6970 O   0  0  0  0  0  0  0  0  0  0  0  0
  186.0810  178.8650  142.8390 C   0  0  0  0  0  2  0  0  0  0  0  0
  188.5360  177.8890  148.2300 C   0  0  0  0  0  0  0  0  0  0  0  0
  187.5280  177.6360  148.9430 O   0  0  0  0  0  1  0  0  0  0  0  0
  189.6900  178.3790  148.8340 O   0  0  0  0  0  0  0  0  0  0  0  0
  194.3240  173.4650  137.2650 C   0  0  0  0  0  3  0  0  0  0  0  0
  195.1460  173.8430  136.0420 C   0  0  0  0  0  1  0  0  0  0  0  0
  195.2050  173.4540  138.5000 C   0  0  0  0  0  1  0  0  0  0  0  0
  1  5  1  0  0  0  0
  2 12  2  0  0  0  0
  3 15  1  0  0  0  0
  3 10  1  0  0  0  0
  4  8  1  6  0  0  0
  4 23  1  0  0  0  0
  5  4  1  0  0  0  0
  6  8  1  0  0  0  0
  7  6  1  0  0  0  0
  9 11  1  0  0  0  0
  9  3  2  0  0  0  0
 10  6  2  0  0  0  0
 10  1  1  0  0  0  0
 11  7  2  0  0  0  0
 12 13  1  0  0  0  0
 13 32  1  6  0  0  0
 13 14  1  0  0  0  0
 14 16  1  0  0  0  0
 15  2  1  6  0  0  0
 15 17  1  0  0  0  0
 17 16  1  1  0  0  0
 17  1  1  0  0  0  0
 18 22  1  0  0  0  0
 19 25  1  0  0  0  0
 20 29  1  0  0  0  0
 21 20  2  0  0  0  0
 22 21  1  0  0  0  0
 23 19  1  6  0  0  0
 24 26  2  0  0  0  0
 25 22  2  0  0  0  0
 25 24  1  0  0  0  0
 26 20  1  0  0  0  0
 27 23  1  0  0  0  0
 27 28  1  0  0  0  0
 28 18  1  0  0  0  0
 29 31  2  0  0  0  0
 29 30  1  0  0  0  0
 32 34  1  0  0  0  0
 33 32  1  0  0  0  0
M  END
>  <MODEL>
2

>  <REMARK>
 VINA RESULT:     -10.3      4.858      7.167
  Name = 
  3 active torsions:
  status: ('A' for Active; 'I' for Inactive)
    1  A    between atoms: C_3  and  C_25
    2  A    between atoms: C_7  and  C_11
    3  A    between atoms: C_8  and  C_18
                            x       y       z     vdW  Elec       q    Type
                         _______ _______ _______ _____ _____    ______ ____

>  <TORSDO>
F 3

$$$$
=
 OpenBabel10272415203D

 34 39  0  0  1  0  0  0  0  0999 V2000
  186.3250  178.2390  138.8740 N   0  0  0  0  0  0  0  0  0  0  0  0
  186.8950  176.4270  135.7740 C   0  0  0  0  0  3  0  0  0  0  0  0
  185.0790  177.6680  137.0100 C   0  0  0  0  0  0  0  0  0  0  0  0
  185.2750  178.9660  140.9680 C   0  0  1  0  0  3  0  0  0  0  0  0
  186.4830  178.2490  140.3240 C   0  0  0  0  0  2  0  0  0  0  0  0
  183.8680  178.1240  139.0270 C   0  0  0  0  0  0  0  0  0  0  0  0
  182.7010  177.8520  138.3770 N   0  0  0  0  0  0  0  0  0  0  0  0
  183.9290  178.3410  140.5150 C   0  0  0  0  0  2  0  0  0  0  0  0
  183.8930  177.4180  136.3180 C   0  0  0  0  0  3  0  0  0  0  0  0
  185.0490  178.0510  138.3140 C   0  0  0  0  0  0  0  0  0  0  0  0
  182.6880  177.5220  137.0450 C   0  0  0  0  0  3  0  0  0  0  0  0
  188.1750  176.0350  135.6110 C   0  0  0  0  0  3  0  0  0  0  0  0
  189.3960  176.6540  136.2720 C   0  0  2  0  0  3  0  0  0  0  0  0
  189.3130  178.1780  136.4820 C   0  0  0  0  0  2  0  0  0  0  0  0
  186.5010  177.6420  136.5630 C   0  0  1  0  0  3  0  0  0  0  0  0
  188.5320  178.5530  137.7540 C   0  0  0  0  0  2  0  0  0  0  0  0
  187.2720  177.7080  137.9000 C   0  0  1  0  0  3  0  0  0  0  0  0
  184.5560  178.8950  145.3950 C   0  0  0  0  0  2  0  0  0  0  0  0
  185.8360  177.5830  142.9850 C   0  0  0  0  0  2  0  0  0  0  0  0
  187.9230  177.8190  146.7480 C   0  0  0  0  0  0  0  0  0  0  0  0
  186.6360  178.3600  146.6410 C   0  0  0  0  0  3  0  0  0  0  0  0
  185.9330  178.3030  145.4340 C   0  0  0  0  0  0  0  0  0  0  0  0
  185.3890  178.9590  142.4910 C   0  0  2  0  0  3  0  0  0  0  0  0
  187.8130  177.1470  144.4190 C   0  0  0  0  0  3  0  0  0  0  0  0
  186.5300  177.6890  144.3080 C   0  0  0  0  0  0  0  0  0  0  0  0
  188.5070  177.2110  145.6300 C   0  0  0  0  0  3  0  0  0  0  0  0
  184.1470  179.2650  143.0660 O   0  0  0  0  0  0  0  0  0  0  0  0
  184.4260  179.9180  144.2730 C   0  0  0  0  0  2  0  0  0  0  0  0
  188.6500  177.8880  148.0260 C   0  0  0  0  0  0  0  0  0  0  0  0
  188.0300  178.1000  149.1030 O   0  0  0  0  0  1  0  0  0  0  0  0
  190.0300  177.7210  148.0570 O   0  0  0  0  0  0  0  0  0  0  0  0
  190.6700  176.2260  135.5410 C   0  0  0  0  0  3  0  0  0  0  0  0
  191.8440  176.0240  136.4870 C   0  0  0  0  0  1  0  0  0  0  0  0
  190.4330  174.9660  134.7300 C   0  0  0  0  0  1  0  0  0  0  0  0
  1  5  1  0  0  0  0
  3 10  1  0  0  0  0
  4  5  1  6  0  0  0
  4 23  1  0  0  0  0
  6  8  1  0  0  0  0
  7  6  1  0  0  0  0
  8  4  1  0  0  0  0
  9  3  2  0  0  0  0
  9 11  1  0  0  0  0
 10  1  1  0  0  0  0
 10  6  2  0  0  0  0
 11  7  2  0  0  0  0
 12  2  2  0  0  0  0
 12 13  1  0  0  0  0
 13 32  1  6  0  0  0
 13 14  1  0  0  0  0
 14 16  1  0  0  0  0
 15  2  1  1  0  0  0
 15  3  1  0  0  0  0
 15 17  1  0  0  0  0
 17 16  1  6  0  0  0
 17  1  1  0  0  0  0
 18 22  1  0  0  0  0
 19 25  1  0  0  0  0
 20 29  1  0  0  0  0
 21 20  1  0  0  0  0
 22 21  2  0  0  0  0
 23 19  1  1  0  0  0
 23 27  1  0  0  0  0
 24 26  1  0  0  0  0
 25 24  2  0  0  0  0
 25 22  1  0  0  0  0
 26 20  2  0  0  0  0
 27 28  1  0  0  0  0
 28 18  1  0  0  0  0
 29 31  2  0  0  0  0
 29 30  1  0  0  0  0
 32 33  1  0  0  0  0
 34 32  1  0  0  0  0
M  END
>  <MODEL>
3

>  <REMARK>
 VINA RESULT:      -9.8      2.505      4.418
  Name = 
  3 active torsions:
  status: ('A' for Active; 'I' for Inactive)
    1  A    between atoms: C_3  and  C_25
    2  A    between atoms: C_7  and  C_11
    3  A    between atoms: C_8  and  C_18
                            x       y       z     vdW  Elec       q    Type
                         _______ _______ _______ _____ _____    ______ ____

>  <TORSDO>
F 3

$$$$
=
 OpenBabel10272415203D

 34 39  0  0  1  0  0  0  0  0999 V2000
  186.5500  178.4160  140.0880 N   0  0  0  0  0  0  0  0  0  0  0  0
  185.5670  177.3730  136.7470 C   0  0  0  0  0  3  0  0  0  0  0  0
  184.6740  178.6200  138.7500 C   0  0  0  0  0  0  0  0  0  0  0  0
  186.4690  178.7940  142.5100 C   0  0  1  0  0  3  0  0  0  0  0  0
  187.1510  178.0220  141.3570 C   0  0  0  0  0  2  0  0  0  0  0  0
  184.3440  178.7980  141.1180 C   0  0  0  0  0  0  0  0  0  0  0  0
  183.0060  178.9580  140.9100 N   0  0  0  0  0  0  0  0  0  0  0  0
  184.9290  178.6110  142.4920 C   0  0  0  0  0  2  0  0  0  0  0  0
  183.3120  178.8170  138.5150 C   0  0  0  0  0  3  0  0  0  0  0  0
  185.1660  178.6560  140.0170 C   0  0  0  0  0  0  0  0  0  0  0  0
  182.4810  178.9890  139.6420 C   0  0  0  0  0  3  0  0  0  0  0  0
  186.5580  176.7710  136.0610 C   0  0  0  0  0  3  0  0  0  0  0  0
  188.0490  176.9220  136.3150 C   0  0  2  0  0  3  0  0  0  0  0  0
  188.4840  178.3240  136.7860 C   0  0  0  0  0  2  0  0  0  0  0  0
  185.8110  178.4030  137.8120 C   0  0  1  0  0  3  0  0  0  0  0  0
  188.2860  178.5210  138.2980 C   0  0  0  0  0  2  0  0  0  0  0  0
  186.9460  177.9590  138.7610 C   0  0  1  0  0  3  0  0  0  0  0  0
  187.1700  177.2830  146.6750 C   0  0  0  0  0  2  0  0  0  0  0  0
  187.8160  177.0610  143.7250 C   0  0  0  0  0  2  0  0  0  0  0  0
  190.9080  176.6860  146.7050 C   0  0  0  0  0  0  0  0  0  0  0  0
  189.5870  176.9160  147.1090 C   0  0  0  0  0  3  0  0  0  0  0  0
  188.5610  177.0470  146.1680 C   0  0  0  0  0  0  0  0  0  0  0  0
  187.0480  178.3760  143.8600 C   0  0  2  0  0  3  0  0  0  0  0  0
  190.1810  176.7080  144.3890 C   0  0  0  0  0  3  0  0  0  0  0  0
  188.8620  176.9420  144.7910 C   0  0  0  0  0  0  0  0  0  0  0  0
  191.1980  176.5830  145.3390 C   0  0  0  0  0  3  0  0  0  0  0  0
  186.0130  178.2010  144.7910 O   0  0  0  0  0  0  0  0  0  0  0  0
  186.5550  178.5260  146.0420 C   0  0  0  0  0  2  0  0  0  0  0  0
  191.9750  176.5530  147.7080 C   0  0  0  0  0  0  0  0  0  0  0  0
  192.1230  177.4270  148.6040 O   0  0  0  0  0  1  0  0  0  0  0  0
  192.8340  175.4600  147.6770 O   0  0  0  0  0  0  0  0  0  0  0  0
  188.8470  176.4310  135.1050 C   0  0  0  0  0  3  0  0  0  0  0  0
  189.7480  177.5100  134.5250 C   0  0  0  0  0  1  0  0  0  0  0  0
  189.6660  175.2040  135.4580 C   0  0  0  0  0  1  0  0  0  0  0  0
  1  5  1  0  0  0  0
  3 10  1  0  0  0  0
  4  5  1  6  0  0  0
  4 23  1  0  0  0  0
  6  8  1  0  0  0  0
  7  6  1  0  0  0  0
  8  4  1  0  0  0  0
  9  3  2  0  0  0  0
  9 11  1  0  0  0  0
 10  1  1  0  0  0  0
 10  6  2  0  0  0  0
 11  7  2  0  0  0  0
 12 13  1  0  0  0  0
 12  2  2  0  0  0  0
 13 32  1  6  0  0  0
 13 14  1  0  0  0  0
 14 16  1  0  0  0  0
 15  2  1  6  0  0  0
 15  3  1  0  0  0  0
 15 17  1  0  0  0  0
 17 16  1  6  0  0  0
 17  1  1  0  0  0  0
 19 25  1  0  0  0  0
 20 21  1  0  0  0  0
 20 29  1  0  0  0  0
 22 18  1  0  0  0  0
 22 21  2  0  0  0  0
 23 19  1  6  0  0  0
 23 27  1  0  0  0  0
 24 25  2  0  0  0  0
 24 26  1  0  0  0  0
 25 22  1  0  0  0  0
 26 20  2  0  0  0  0
 27 28  1  0  0  0  0
 28 18  1  0  0  0  0
 29 30  1  0  0  0  0
 31 29  2  0  0  0  0
 32 34  1  0  0  0  0
 33 32  1  0  0  0  0
M  END
>  <MODEL>
4

>  <REMARK>
 VINA RESULT:      -9.3      1.855      3.080
  Name = 
  3 active torsions:
  status: ('A' for Active; 'I' for Inactive)
    1  A    between atoms: C_3  and  C_25
    2  A    between atoms: C_7  and  C_11
    3  A    between atoms: C_8  and  C_18
                            x       y       z     vdW  Elec       q    Type
                         _______ _______ _______ _____ _____    ______ ____

>  <TORSDO>
F 3

$$$$
=
 OpenBabel10272415203D

 34 39  0  0  1  0  0  0  0  0999 V2000
  191.0390  176.5260  137.8680 N   0  0  0  0  0  0  0  0  0  0  0  0
  191.7430  174.5960  134.8680 C   0  0  0  0  0  3  0  0  0  0  0  0
  190.3570  176.5510  135.6570 C   0  0  0  0  0  0  0  0  0  0  0  0
  189.7890  177.6900  139.6280 C   0  0  1  0  0  3  0  0  0  0  0  0
  190.7010  176.4900  139.2860 C   0  0  0  0  0  2  0  0  0  0  0  0
  188.8800  177.5470  137.2610 C   0  0  0  0  0  0  0  0  0  0  0  0
  187.9950  177.8240  136.2600 N   0  0  0  0  0  0  0  0  0  0  0  0
  188.5380  177.7390  138.7140 C   0  0  0  0  0  2  0  0  0  0  0  0
  189.4810  176.8570  134.6150 C   0  0  0  0  0  3  0  0  0  0  0  0
  190.0710  176.9300  136.9310 C   0  0  0  0  0  0  0  0  0  0  0  0
  188.2770  177.5120  134.9540 C   0  0  0  0  0  3  0  0  0  0  0  0
  192.6980  173.6620  135.0440 C   0  0  0  0  0  3  0  0  0  0  0  0
  193.7750  173.6680  136.1180 C   0  0  2  0  0  3  0  0  0  0  0  0
  194.3010  175.0660  136.4960 C   0  0  0  0  0  2  0  0  0  0  0  0
  191.6830  175.8720  135.6570 C   0  0  1  0  0  3  0  0  0  0  0  0
  193.3930  175.7790  137.5130 C   0  0  0  0  0  2  0  0  0  0  0  0
  191.9200  175.6040  137.1600 C   0  0  1  0  0  3  0  0  0  0  0  0
  187.6610  177.3030  143.5580 C   0  0  0  0  0  2  0  0  0  0  0  0
  189.9480  176.4140  141.7830 C   0  0  0  0  0  2  0  0  0  0  0  0
  190.5300  177.0150  146.0110 C   0  0  0  0  0  0  0  0  0  0  0  0
  189.2650  177.2370  145.4530 C   0  0  0  0  0  3  0  0  0  0  0  0
  189.0430  177.0550  144.0840 C   0  0  0  0  0  0  0  0  0  0  0  0
  189.3830  177.6600  141.1000 C   0  0  2  0  0  3  0  0  0  0  0  0
  191.3710  176.4140  143.8150 C   0  0  0  0  0  3  0  0  0  0  0  0
  190.1100  176.6380  143.2550 C   0  0  0  0  0  0  0  0  0  0  0  0
  191.5820  176.6020  145.1840 C   0  0  0  0  0  3  0  0  0  0  0  0
  187.9850  177.6410  141.2110 O   0  0  0  0  0  0  0  0  0  0  0  0
  187.6790  178.3020  142.4080 C   0  0  0  0  0  2  0  0  0  0  0  0
  190.7460  177.2130  147.4520 C   0  0  0  0  0  0  0  0  0  0  0  0
  191.8490  176.9080  147.9810 O   0  0  0  0  0  0  0  0  0  0  0  0
  189.7330  177.7390  148.2470 O   0  0  0  0  0  1  0  0  0  0  0  0
  194.8960  172.6940  135.7520 C   0  0  0  0  0  3  0  0  0  0  0  0
  196.2710  173.2150  136.1420 C   0  0  0  0  0  1  0  0  0  0  0  0
  194.6590  171.3330  136.3790 C   0  0  0  0  0  1  0  0  0  0  0  0
  1  5  1  0  0  0  0
  2 12  2  0  0  0  0
  3 15  1  0  0  0  0
  3 10  1  0  0  0  0
  4  8  1  6  0  0  0
  4 23  1  0  0  0  0
  5  4  1  0  0  0  0
  6  8  1  0  0  0  0
  7  6  1  0  0  0  0
  9 11  1  0  0  0  0
  9  3  2  0  0  0  0
 10  6  2  0  0  0  0
 10  1  1  0  0  0  0
 11  7  2  0  0  0  0
 12 13  1  0  0  0  0
 13 32  1  6  0  0  0
 13 14  1  0  0  0  0
 14 16  1  0  0  0  0
 15  2  1  6  0  0  0
 15 17  1  0  0  0  0
 17 16  1  1  0  0  0
 17  1  1  0  0  0  0
 18 22  1  0  0  0  0
 19 25  1  0  0  0  0
 20 29  1  0  0  0  0
 21 20  1  0  0  0  0
 22 21  2  0  0  0  0
 23 27  1  0  0  0  0
 23 19  1  6  0  0  0
 24 26  1  0  0  0  0
 25 24  2  0  0  0  0
 25 22  1  0  0  0  0
 26 20  2  0  0  0  0
 27 28  1  0  0  0  0
 28 18  1  0  0  0  0
 29 30  2  0  0  0  0
 29 31  1  0  0  0  0
 32 33  1  0  0  0  0
 32 34  1  0  0  0  0
M  END
>  <MODEL>
5

>  <REMARK>
 VINA RESULT:      -9.1      5.538      8.003
  Name = 
  3 active torsions:
  status: ('A' for Active; 'I' for Inactive)
    1  A    between atoms: C_3  and  C_25
    2  A    between atoms: C_7  and  C_11
    3  A    between atoms: C_8  and  C_18
                            x       y       z     vdW  Elec       q    Type
                         _______ _______ _______ _____ _____    ______ ____

>  <TORSDO>
F 3

$$$$
=
 OpenBabel10272415203D

 34 39  0  0  1  0  0  0  0  0999 V2000
  191.0020  176.2630  138.0120 N   0  0  0  0  0  0  0  0  0  0  0  0
  192.3590  174.2780  135.2850 C   0  0  0  0  0  3  0  0  0  0  0  0
  190.7000  176.1270  135.7220 C   0  0  0  0  0  0  0  0  0  0  0  0
  189.3820  177.3810  139.4740 C   0  0  1  0  0  3  0  0  0  0  0  0
  190.4360  176.2570  139.3560 C   0  0  0  0  0  2  0  0  0  0  0  0
  188.8960  177.0500  137.0030 C   0  0  0  0  0  0  0  0  0  0  0  0
  188.1710  177.1990  135.8580 N   0  0  0  0  0  0  0  0  0  0  0  0
  188.3010  177.2730  138.3670 C   0  0  0  0  0  2  0  0  0  0  0  0
  189.9870  176.3040  134.5350 C   0  0  0  0  0  3  0  0  0  0  0  0
  190.1740  176.5330  136.9080 C   0  0  0  0  0  0  0  0  0  0  0  0
  188.6930  176.8580  134.6350 C   0  0  0  0  0  3  0  0  0  0  0  0
  193.3470  173.4450  135.6690 C   0  0  0  0  0  3  0  0  0  0  0  0
  194.2240  173.5980  136.9010 C   0  0  2  0  0  3  0  0  0  0  0  0
  194.5600  175.0550  137.2770 C   0  0  0  0  0  2  0  0  0  0  0  0
  192.0600  175.5750  135.9780 C   0  0  1  0  0  3  0  0  0  0  0  0
  193.4370  175.7240  138.0890 C   0  0  0  0  0  2  0  0  0  0  0  0
  192.0640  175.3970  137.5130 C   0  0  1  0  0  3  0  0  0  0  0  0
  188.4980  177.3140  143.8720 C   0  0  0  0  0  2  0  0  0  0  0  0
  188.2720  178.7840  141.2340 C   0  0  0  0  0  2  0  0  0  0  0  0
  184.9800  178.7050  144.0150 C   0  0  0  0  0  0  0  0  0  0  0  0
  186.1680  178.0390  144.3370 C   0  0  0  0  0  3  0  0  0  0  0  0
  187.2540  178.0410  143.4560 C   0  0  0  0  0  0  0  0  0  0  0  0
  188.7390  177.3770  140.8600 C   0  0  2  0  0  3  0  0  0  0  0  0
  185.9630  179.3960  141.9060 C   0  0  0  0  0  3  0  0  0  0  0  0
  187.1500  178.7290  142.2250 C   0  0  0  0  0  0  0  0  0  0  0  0
  184.8840  179.3840  142.7940 C   0  0  0  0  0  3  0  0  0  0  0  0
  189.6660  176.9390  141.8170 O   0  0  0  0  0  0  0  0  0  0  0  0
  188.9230  176.3000  142.8170 C   0  0  0  0  0  2  0  0  0  0  0  0
  183.8470  178.6910  144.9530 C   0  0  0  0  0  0  0  0  0  0  0  0
  184.0450  178.7610  146.1960 O   0  0  0  0  0  1  0  0  0  0  0  0
  182.5430  178.5980  144.4760 O   0  0  0  0  0  0  0  0  0  0  0  0
  195.4690  172.7180  136.7790 C   0  0  0  0  0  3  0  0  0  0  0  0
  196.7420  173.4520  137.1740 C   0  0  0  0  0  1  0  0  0  0  0  0
  195.3220  171.4530  137.6040 C   0  0  0  0  0  1  0  0  0  0  0  0
  1  5  1  0  0  0  0
  2 12  2  0  0  0  0
  3 15  1  0  0  0  0
  3 10  1  0  0  0  0
  4  8  1  6  0  0  0
  4 23  1  0  0  0  0
  5  4  1  0  0  0  0
  6  8  1  0  0  0  0
  7  6  1  0  0  0  0
  9 11  1  0  0  0  0
  9  3  2  0  0  0  0
 10  6  2  0  0  0  0
 10  1  1  0  0  0  0
 11  7  2  0  0  0  0
 12 13  1  0  0  0  0
 13 32  1  6  0  0  0
 13 14  1  0  0  0  0
 14 16  1  0  0  0  0
 15  2  1  6  0  0  0
 15 17  1  0  0  0  0
 17  1  1  0  0  0  0
 17 16  1  1  0  0  0
 19 25  1  0  0  0  0
 20 21  1  0  0  0  0
 20 29  1  0  0  0  0
 22 18  1  0  0  0  0
 22 21  2  0  0  0  0
 23 19  1  1  0  0  0
 23 27  1  0  0  0  0
 24 25  2  0  0  0  0
 24 26  1  0  0  0  0
 25 22  1  0  0  0  0
 26 20  2  0  0  0  0
 27 28  1  0  0  0  0
 28 18  1  0  0  0  0
 29 30  1  0  0  0  0
 31 29  2  0  0  0  0
 32 33  1  0  0  0  0
 32 34  1  0  0  0  0
M  END
>  <MODEL>
6

>  <REMARK>
 VINA RESULT:      -8.7      5.736      8.855
  Name = 
  3 active torsions:
  status: ('A' for Active; 'I' for Inactive)
    1  A    between atoms: C_3  and  C_25
    2  A    between atoms: C_7  and  C_11
    3  A    between atoms: C_8  and  C_18
                            x       y       z     vdW  Elec       q    Type
                         _______ _______ _______ _____ _____    ______ ____

>  <TORSDO>
F 3

$$$$
=
 OpenBabel10272415203D

 34 39  0  0  1  0  0  0  0  0999 V2000
  189.0070  177.8060  141.5920 N   0  0  0  0  0  0  0  0  0  0  0  0
  186.9640  177.7960  144.6000 C   0  0  0  0  0  3  0  0  0  0  0  0
  189.3670  178.0270  143.8670 C   0  0  0  0  0  0  0  0  0  0  0  0
  190.8260  177.2880  140.0310 C   0  0  1  0  0  3  0  0  0  0  0  0
  189.3160  177.1450  140.3300 C   0  0  0  0  0  2  0  0  0  0  0  0
  191.2220  177.2880  142.5400 C   0  0  0  0  0  0  0  0  0  0  0  0
  191.9820  177.1980  143.6690 N   0  0  0  0  0  0  0  0  0  0  0  0
  191.6950  176.7740  141.2070 C   0  0  0  0  0  2  0  0  0  0  0  0
  190.1380  177.9740  145.0290 C   0  0  0  0  0  3  0  0  0  0  0  0
  189.9190  177.7310  142.6600 C   0  0  0  0  0  0  0  0  0  0  0  0
  191.4770  177.5470  144.8960 C   0  0  0  0  0  3  0  0  0  0  0  0
  185.6420  177.7150  144.3490 C   0  0  0  0  0  3  0  0  0  0  0  0
  184.9470  178.1060  143.0550 C   0  0  2  0  0  3  0  0  0  0  0  0
  185.5670  179.3170  142.3300 C   0  0  0  0  0  2  0  0  0  0  0  0
  187.9460  178.4170  143.6490 C   0  0  1  0  0  3  0  0  0  0  0  0
  186.7790  178.9240  141.4680 C   0  0  0  0  0  2  0  0  0  0  0  0
  187.6880  177.9440  142.2010 C   0  0  1  0  0  3  0  0  0  0  0  0
  191.4710  176.0370  135.7720 C   0  0  0  0  0  2  0  0  0  0  0  0
  192.6920  176.6880  138.4650 C   0  0  0  0  0  2  0  0  0  0  0  0
  194.1700  173.4030  136.0990 C   0  0  0  0  0  0  0  0  0  0  0  0
  193.1090  174.1760  135.6140 C   0  0  0  0  0  3  0  0  0  0  0  0
  192.6030  175.2460  136.3580 C   0  0  0  0  0  0  0  0  0  0  0  0
  191.1920  176.5710  138.7340 C   0  0  2  0  0  3  0  0  0  0  0  0
  194.2360  174.7800  138.0960 C   0  0  0  0  0  3  0  0  0  0  0  0
  193.1740  175.5520  137.6150 C   0  0  0  0  0  0  0  0  0  0  0  0
  194.7310  173.7110  137.3450 C   0  0  0  0  0  3  0  0  0  0  0  0
  190.4950  177.1400  137.6580 O   0  0  0  0  0  0  0  0  0  0  0  0
  190.2910  176.1080  136.7340 C   0  0  0  0  0  2  0  0  0  0  0  0
  194.6890  172.2790  135.3040 C   0  0  0  0  0  0  0  0  0  0  0  0
  193.9300  171.6450  134.5220 O   0  0  0  0  0  0  0  0  0  0  0  0
  196.0240  171.9040  135.4080 O   0  0  0  0  0  1  0  0  0  0  0  0
  183.4430  178.2640  143.2870 C   0  0  0  0  0  3  0  0  0  0  0  0
  183.1280  179.1630  144.4740 C   0  0  0  0  0  1  0  0  0  0  0  0
  182.7530  178.7880  142.0420 C   0  0  0  0  0  1  0  0  0  0  0  0
  1 17  1  0  0  0  0
  1 10  1  0  0  0  0
  3  9  1  0  0  0  0
  4  5  1  1  0  0  0
  4  8  1  0  0  0  0
  5  1  1  0  0  0  0
  6 10  1  0  0  0  0
  6  7  2  0  0  0  0
  7 11  1  0  0  0  0
  8  6  1  0  0  0  0
 10  3  2  0  0  0  0
 11  9  2  0  0  0  0
 12  2  2  0  0  0  0
 13 32  1  1  0  0  0
 13 12  1  0  0  0  0
 14 13  1  0  0  0  0
 15  3  1  0  0  0  0
 15  2  1  1  0  0  0
 16 14  1  0  0  0  0
 17 16  1  6  0  0  0
 17 15  1  0  0  0  0
 18 22  1  0  0  0  0
 18 28  1  0  0  0  0
 20 26  1  0  0  0  0
 21 20  2  0  0  0  0
 21 22  1  0  0  0  0
 22 25  2  0  0  0  0
 23 19  1  6  0  0  0
 23  4  1  0  0  0  0
 25 24  1  0  0  0  0
 25 19  1  0  0  0  0
 26 24  2  0  0  0  0
 27 23  1  0  0  0  0
 28 27  1  0  0  0  0
 29 31  1  0  0  0  0
 29 20  1  0  0  0  0
 30 29  2  0  0  0  0
 32 33  1  0  0  0  0
 34 32  1  0  0  0  0
M  END
>  <MODEL>
7

>  <REMARK>
 VINA RESULT:      -8.5      6.086      9.469
  Name = 
  3 active torsions:
  status: ('A' for Active; 'I' for Inactive)
    1  A    between atoms: C_3  and  C_25
    2  A    between atoms: C_7  and  C_11
    3  A    between atoms: C_8  and  C_18
                            x       y       z     vdW  Elec       q    Type
                         _______ _______ _______ _____ _____    ______ ____

>  <TORSDO>
F 3

$$$$
=
 OpenBabel10272415203D

 34 39  0  0  1  0  0  0  0  0999 V2000
  189.3590  176.1760  138.0520 N   0  0  0  0  0  0  0  0  0  0  0  0
  188.5060  176.6570  134.5510 C   0  0  0  0  0  3  0  0  0  0  0  0
  190.4690  176.0750  136.0240 C   0  0  0  0  0  0  0  0  0  0  0  0
  190.5580  176.3490  140.1840 C   0  0  1  0  0  3  0  0  0  0  0  0
  189.2680  176.7010  139.4090 C   0  0  0  0  0  2  0  0  0  0  0  0
  191.8030  176.4790  137.9740 C   0  0  0  0  0  0  0  0  0  0  0  0
  192.9150  176.5540  137.1870 N   0  0  0  0  0  0  0  0  0  0  0  0
  191.8270  176.8330  139.4360 C   0  0  0  0  0  2  0  0  0  0  0  0
  191.5990  176.1140  135.2060 C   0  0  0  0  0  3  0  0  0  0  0  0
  190.5890  176.2120  137.3710 C   0  0  0  0  0  0  0  0  0  0  0  0
  192.8400  176.3600  135.8300 C   0  0  0  0  0  3  0  0  0  0  0  0
  187.1930  176.8840  134.3460 C   0  0  0  0  0  3  0  0  0  0  0  0
  186.0560  176.4910  135.2760 C   0  0  2  0  0  3  0  0  0  0  0  0
  186.2700  175.1640  136.0300 C   0  0  0  0  0  2  0  0  0  0  0  0
  189.0310  175.8510  135.7030 C   0  0  1  0  0  3  0  0  0  0  0  0
  187.1350  175.3390  137.2900 C   0  0  0  0  0  2  0  0  0  0  0  0
  188.3290  176.2480  137.0210 C   0  0  1  0  0  3  0  0  0  0  0  0
  191.1110  178.7290  143.9470 C   0  0  0  0  0  2  0  0  0  0  0  0
  189.2180  177.7020  141.8170 C   0  0  0  0  0  2  0  0  0  0  0  0
  188.0540  177.7770  145.9660 C   0  0  0  0  0  0  0  0  0  0  0  0
  189.3270  178.2310  145.6010 C   0  0  0  0  0  3  0  0  0  0  0  0
  189.7370  178.2170  144.2650 C   0  0  0  0  0  0  0  0  0  0  0  0
  190.5130  176.9200  141.5990 C   0  0  2  0  0  3  0  0  0  0  0  0
  187.5820  177.2900  143.6360 C   0  0  0  0  0  3  0  0  0  0  0  0
  188.8530  177.7400  143.2700 C   0  0  0  0  0  0  0  0  0  0  0  0
  187.1840  177.3060  144.9760 C   0  0  0  0  0  3  0  0  0  0  0  0
  191.6010  177.7820  141.8040 O   0  0  0  0  0  0  0  0  0  0  0  0
  191.9160  177.6970  143.1660 C   0  0  0  0  0  2  0  0  0  0  0  0
  187.6390  177.7970  147.3780 C   0  0  0  0  0  0  0  0  0  0  0  0
  186.7790  178.6250  147.7800 O   0  0  0  0  0  0  0  0  0  0  0  0
  188.1940  176.8990  148.2840 O   0  0  0  0  0  1  0  0  0  0  0  0
  184.7200  176.5400  134.5320 C   0  0  0  0  0  3  0  0  0  0  0  0
  184.1000  175.1610  134.3580 C   0  0  0  0  0  1  0  0  0  0  0  0
  183.7420  177.4640  135.2320 C   0  0  0  0  0  1  0  0  0  0  0  0
  1  5  1  0  0  0  0
  3 10  1  0  0  0  0
  4  5  1  6  0  0  0
  4 23  1  0  0  0  0
  6  8  1  0  0  0  0
  7  6  1  0  0  0  0
  8  4  1  0  0  0  0
  9 11  1  0  0  0  0
  9  3  2  0  0  0  0
 10  6  2  0  0  0  0
 10  1  1  0  0  0  0
 11  7  2  0  0  0  0
 12  2  2  0  0  0  0
 12 13  1  0  0  0  0
 13 32  1  6  0  0  0
 13 14  1  0  0  0  0
 14 16  1  0  0  0  0
 15  2  1  6  0  0  0
 15  3  1  0  0  0  0
 15 17  1  0  0  0  0
 17 16  1  1  0  0  0
 17  1  1  0  0  0  0
 18 22  1  0  0  0  0
 19 25  1  0  0  0  0
 20 29  1  0  0  0  0
 21 20  1  0  0  0  0
 22 21  2  0  0  0  0
 23 27  1  0  0  0  0
 23 19  1  6  0  0  0
 24 26  1  0  0  0  0
 25 24  2  0  0  0  0
 25 22  1  0  0  0  0
 26 20  2  0  0  0  0
 27 28  1  0  0  0  0
 28 18  1  0  0  0  0
 29 30  2  0  0  0  0
 29 31  1  0  0  0  0
 32 34  1  0  0  0  0
 33 32  1  0  0  0  0
M  END
>  <MODEL>
8

>  <REMARK>
 VINA RESULT:      -8.4      4.180      7.127
  Name = 
  3 active torsions:
  status: ('A' for Active; 'I' for Inactive)
    1  A    between atoms: C_3  and  C_25
    2  A    between atoms: C_7  and  C_11
    3  A    between atoms: C_8  and  C_18
                            x       y       z     vdW  Elec       q    Type
                         _______ _______ _______ _____ _____    ______ ____

>  <TORSDO>
F 3

$$$$
=
 OpenBabel10272415203D

 34 39  0  0  1  0  0  0  0  0999 V2000
  188.5990  176.2050  137.7200 N   0  0  0  0  0  0  0  0  0  0  0  0
  187.3370  176.8570  134.3730 C   0  0  0  0  0  3  0  0  0  0  0  0
  189.4210  176.0750  135.5610 C   0  0  0  0  0  0  0  0  0  0  0  0
  190.0770  176.2170  139.6770 C   0  0  1  0  0  3  0  0  0  0  0  0
  188.7310  176.6950  139.0870 C   0  0  0  0  0  2  0  0  0  0  0  0
  191.0280  176.3110  137.3240 C   0  0  0  0  0  0  0  0  0  0  0  0
  192.0290  176.3190  136.3970 N   0  0  0  0  0  0  0  0  0  0  0  0
  191.2730  176.6190  138.7760 C   0  0  0  0  0  2  0  0  0  0  0  0
  190.4330  176.0460  134.6000 C   0  0  0  0  0  3  0  0  0  0  0  0
  189.7280  176.1610  136.8820 C   0  0  0  0  0  0  0  0  0  0  0  0
  191.7620  176.1720  135.0590 C   0  0  0  0  0  3  0  0  0  0  0  0
  186.0330  177.1960  134.3490 C   0  0  0  0  0  3  0  0  0  0  0  0
  184.9990  176.8690  135.4140 C   0  0  2  0  0  3  0  0  0  0  0  0
  185.1970  175.5070  136.1080 C   0  0  0  0  0  2  0  0  0  0  0  0
  187.9400  175.9770  135.4300 C   0  0  1  0  0  3  0  0  0  0  0  0
  186.2310  175.5740  137.2450 C   0  0  0  0  0  2  0  0  0  0  0  0
  187.4520  176.3900  136.8370 C   0  0  1  0  0  3  0  0  0  0  0  0
  191.3130  178.4340  143.3750 C   0  0  0  0  0  2  0  0  0  0  0  0
  189.0780  177.6200  141.5010 C   0  0  0  0  0  2  0  0  0  0  0  0
  188.4840  177.6610  145.7690 C   0  0  0  0  0  0  0  0  0  0  0  0
  189.7290  178.0270  145.2450 C   0  0  0  0  0  3  0  0  0  0  0  0
  189.9570  178.0210  143.8660 C   0  0  0  0  0  0  0  0  0  0  0  0
  190.2660  176.7480  141.0960 C   0  0  2  0  0  3  0  0  0  0  0  0
  187.6690  177.2810  143.5150 C   0  0  0  0  0  3  0  0  0  0  0  0
  188.9130  177.6430  142.9890 C   0  0  0  0  0  0  0  0  0  0  0  0
  187.4550  177.2880  144.8960 C   0  0  0  0  0  3  0  0  0  0  0  0
  191.4370  177.5160  141.1680 O   0  0  0  0  0  0  0  0  0  0  0  0
  191.9220  177.3670  142.4740 C   0  0  0  0  0  2  0  0  0  0  0  0
  188.2630  177.6710  147.2240 C   0  0  0  0  0  0  0  0  0  0  0  0
  189.1840  177.3310  148.0130 O   0  0  0  0  0  1  0  0  0  0  0  0
  187.0310  178.0560  147.7430 O   0  0  0  0  0  0  0  0  0  0  0  0
  183.5860  177.0470  134.8550 C   0  0  0  0  0  3  0  0  0  0  0  0
  182.9920  175.7430  134.3460 C   0  0  0  0  0  1  0  0  0  0  0  0
  182.6670  177.6670  135.8910 C   0  0  0  0  0  1  0  0  0  0  0  0
  1  5  1  0  0  0  0
  3 10  1  0  0  0  0
  4  8  1  6  0  0  0
  4 23  1  0  0  0  0
  5  4  1  0  0  0  0
  6  8  1  0  0  0  0
  7  6  1  0  0  0  0
  9 11  1  0  0  0  0
  9  3  2  0  0  0  0
 10  6  2  0  0  0  0
 10  1  1  0  0  0  0
 11  7  2  0  0  0  0
 12  2  2  0  0  0  0
 12 13  1  0  0  0  0
 13 32  1  6  0  0  0
 13 14  1  0  0  0  0
 14 16  1  0  0  0  0
 15  2  1  6  0  0  0
 15  3  1  0  0  0  0
 15 17  1  0  0  0  0
 17 16  1  1  0  0  0
 17  1  1  0  0  0  0
 18 22  1  0  0  0  0
 19 25  1  0  0  0  0
 20 29  1  0  0  0  0
 21 20  1  0  0  0  0
 22 21  2  0  0  0  0
 23 27  1  0  0  0  0
 23 19  1  6  0  0  0
 24 26  1  0  0  0  0
 25 24  2  0  0  0  0
 25 22  1  0  0  0  0
 26 20  2  0  0  0  0
 27 28  1  0  0  0  0
 28 18  1  0  0  0  0
 29 31  2  0  0  0  0
 29 30  1  0  0  0  0
 32 34  1  0  0  0  0
 33 32  1  0  0  0  0
M  END
>  <MODEL>
9

>  <REMARK>
 VINA RESULT:      -8.4      3.901      6.883
  Name = 
  3 active torsions:
  status: ('A' for Active; 'I' for Inactive)
    1  A    between atoms: C_3  and  C_25
    2  A    between atoms: C_7  and  C_11
    3  A    between atoms: C_8  and  C_18
                            x       y       z     vdW  Elec       q    Type
                         _______ _______ _______ _____ _____    ______ ____

>  <TORSDO>
F 3

$$$$
