=
 OpenBabel10272401293D

 55 59  0  0  1  0  0  0  0  0999 V2000
  189.5010  176.8810  142.9630 C   0  0  2  0  0  3  0  0  0  0  0  0
  189.9270  178.2730  143.4100 C   0  0  0  0  0  3  0  0  0  0  0  0
  189.9170  178.3470  144.9250 C   0  0  0  0  0  2  0  0  0  0  0  0
  191.2280  178.1870  144.1820 C   0  0  0  0  0  2  0  0  0  0  0  0
  190.5100  176.2900  141.9780 C   0  0  0  0  0  2  0  0  0  0  0  0
  190.9000  177.2830  140.8900 C   0  0  0  0  0  2  0  0  0  0  0  0
  190.4490  176.7860  139.5280 C   0  0  0  0  0  2  0  0  0  0  0  0
  189.9080  177.9390  138.7030 C   0  0  0  0  0  2  0  0  0  0  0  0
  189.9060  177.5740  137.2330 C   0  0  0  0  0  2  0  0  0  0  0  0
  190.5250  176.2020  137.0700 C   0  0  0  0  0  2  0  0  0  0  0  0
  191.0070  175.9960  135.6440 C   0  0  1  0  0  3  0  0  0  0  0  0
  192.3360  175.3940  135.6510 N   0  0  0  0  0  2  0  0  0  0  0  0
  195.3400  176.1490  135.6800 C   0  0  0  0  0  0  0  0  0  0  0  0
  192.6160  174.1330  138.0760 F   0  0  0  0  0  0  0  0  0  0  0  0
  193.1090  176.0280  136.7130 C   0  0  1  0  0  3  0  0  0  0  0  0
  196.9270  172.7330  135.9880 C   0  0  0  0  0  3  0  0  0  0  0  0
  194.1440  175.6090  138.8130 F   0  0  0  0  0  0  0  0  0  0  0  0
  193.6500  174.9690  137.6880 C   0  0  0  0  0  0  0  0  0  0  0  0
  196.1430  176.7700  134.9330 O   0  0  0  0  0  0  0  0  0  0  0  0
  196.1090  172.1480  136.9580 C   0  0  0  0  0  3  0  0  0  0  0  0
  195.0400  172.8650  137.4980 C   0  0  0  0  0  3  0  0  0  0  0  0
  195.6080  174.7640  136.0950 C   0  0  0  0  0  0  0  0  0  0  0  0
  194.7670  174.1690  137.0570 C   0  0  0  0  0  0  0  0  0  0  0  0
  196.6810  174.0400  135.5600 C   0  0  0  0  0  3  0  0  0  0  0  0
  194.1780  176.7790  136.1340 O   0  0  0  0  0  0  0  0  0  0  0  0
  190.0160  175.1390  134.8440 C   0  0  0  0  0  2  0  0  0  0  0  0
  187.6230  174.9130  135.4500 C   0  0  0  0  0  1  0  0  0  0  0  0
  189.0180  174.3860  135.7130 C   0  0  1  0  0  3  0  0  0  0  0  0
  189.0610  173.0200  135.4360 O   0  0  0  0  0  1  0  0  0  0  0  0
  188.0870  176.9100  142.3910 C   0  0  0  0  0  2  0  0  0  0  0  0
  187.7490  178.3010  141.8710 C   0  0  0  0  0  2  0  0  0  0  0  0
  186.9250  178.2210  140.5960 C   0  0  0  0  0  2  0  0  0  0  0  0
  185.6320  179.0010  140.7600 C   0  0  0  0  0  2  0  0  0  0  0  0
  184.7290  178.3470  141.8060 C   0  0  1  0  0  3  0  0  0  0  0  0
  183.0620  178.9750  143.5980 C   0  0  0  0  0  2  0  0  0  0  0  0
  184.7210  179.1810  145.3030 C   0  0  1  0  0  3  0  0  0  0  0  0
  184.4210  179.2710  142.9910 C   0  0  1  0  0  3  0  0  0  0  0  0
  185.4400  179.1750  144.0340 N   0  0  0  0  0  2  0  0  0  0  0  0
  183.3250  178.6650  145.0480 C   0  0  0  0  0  2  0  0  0  0  0  0
  185.4370  178.3470  146.3690 C   0  0  0  0  0  3  0  0  0  0  0  0
  186.4570  177.3890  145.7740 C   0  0  0  0  0  1  0  0  0  0  0  0
  186.1120  179.2500  147.3820 C   0  0  0  0  0  1  0  0  0  0  0  0
  183.4170  177.9090  141.1660 C   0  0  0  0  0  2  0  0  0  0  0  0
  181.3190  178.5890  137.5220 C   0  0  0  0  0  2  0  0  0  0  0  0
  181.9960  179.7990  138.1490 C   0  0  0  0  0  2  0  0  0  0  0  0
  183.5000  176.0560  138.9960 O   0  0  0  0  0  0  0  0  0  0  0  0
  183.3290  178.3450  139.7070 C   0  0  2  0  0  3  0  0  0  0  0  0
  182.3060  179.4760  139.6020 C   0  0  0  0  0  2  0  0  0  0  0  0
  182.9890  177.1910  138.7880 C   0  0  0  0  0  0  0  0  0  0  0  0
  182.1800  177.4120  137.6180 N   0  0  0  0  0  0  0  0  0  0  0  0
  182.0340  176.3630  136.6120 C   0  0  0  0  0  2  0  0  0  0  0  0
  183.1590  175.2770  134.6970 C   0  0  0  0  0  1  0  0  0  0  0  0
  184.2580  177.1920  135.7830 C   0  0  0  0  0  1  0  0  0  0  0  0
  182.2300  177.5370  134.4070 C   0  0  0  0  0  1  0  0  0  0  0  0
  182.9180  176.6040  135.3870 C   0  0  0  0  0  0  0  0  0  0  0  0
  1  5  1  6  0  0  0
  1  2  1  0  0  0  0
  2  4  1  0  0  0  0
  2  3  1  0  0  0  0
  4  3  1  0  0  0  0
  6  5  1  0  0  0  0
  7  6  1  0  0  0  0
  8  7  1  0  0  0  0
  9  8  1  0  0  0  0
 10  9  1  0  0  0  0
 11 26  1  6  0  0  0
 11 12  1  0  0  0  0
 11 10  1  0  0  0  0
 13 22  1  0  0  0  0
 13 25  1  0  0  0  0
 15 12  1  6  0  0  0
 15 18  1  0  0  0  0
 16 20  1  0  0  0  0
 18 14  1  0  0  0  0
 18 17  1  0  0  0  0
 19 13  2  0  0  0  0
 20 21  2  0  0  0  0
 22 23  2  0  0  0  0
 23 21  1  0  0  0  0
 23 18  1  0  0  0  0
 24 16  2  0  0  0  0
 24 22  1  0  0  0  0
 25 15  1  0  0  0  0
 26 28  1  0  0  0  0
 28 27  1  6  0  0  0
 29 28  1  0  0  0  0
 30  1  1  0  0  0  0
 31 30  1  0  0  0  0
 32 33  1  0  0  0  0
 32 31  1  0  0  0  0
 34 33  1  6  0  0  0
 35 39  1  0  0  0  0
 36 40  1  1  0  0  0
 37 34  1  6  0  0  0
 37 35  1  0  0  0  0
 37 38  1  0  0  0  0
 38 36  1  0  0  0  0
 39 36  1  0  0  0  0
 40 42  1  0  0  0  0
 41 40  1  0  0  0  0
 43 34  1  0  0  0  0
 44 50  1  0  0  0  0
 44 45  1  0  0  0  0
 45 48  1  0  0  0  0
 47 43  1  1  0  0  0
 48 47  1  0  0  0  0
 49 46  2  0  0  0  0
 49 47  1  0  0  0  0
 50 49  1  0  0  0  0
 51 50  1  0  0  0  0
 52 55  1  0  0  0  0
 54 55  1  0  0  0  0
 55 53  1  0  0  0  0
 55 51  1  0  0  0  0
M  END
>  <MODEL>
1

>  <REMARK>
 VINA RESULT:      -6.5      0.000      0.000
  Name = 
  23 active torsions:
  status: ('A' for Active; 'I' for Inactive)
    1  A    between atoms: C_2  and  C_28
    2  A    between atoms: C_2  and  C_44
    3  A    between atoms: C_6  and  N_46
    4  A    between atoms: C_8  and  C_20
    5  A    between atoms: C_8  and  C_22
    6  A    between atoms: C_10  and  C_32
    7  A    between atoms: C_17  and  C_36
    8  A    between atoms: C_19  and  C_40
    9  A    between atoms: C_19  and  N_45
   10  A    between atoms: C_22  and  C_35
   11  A    between atoms: C_22  and  N_46
   12  A    between atoms: C_24  and  C_44
   13  A    between atoms: C_27  and  C_31
   14  A    between atoms: C_27  and  C_54
   15  A    between atoms: C_28  and  C_49
   16  A    between atoms: C_31  and  C_44
   17  A    between atoms: C_33  and  C_49
   18  A    between atoms: C_33  and  C_52
   19  A    between atoms: C_34  and  C_52
   20  A    between atoms: C_35  and  C_43
   21  A    between atoms: C_36  and  C_52
   22  A    between atoms: C_43  and  C_51
   23  A    between atoms: C_51  and  C_54
                            x       y       z     vdW  Elec       q    Type
                         _______ _______ _______ _____ _____    ______ ____

>  <TORSDO>
F 23

$$$$
=
 OpenBabel10272401293D

 55 59  0  0  1  0  0  0  0  0999 V2000
  190.0410  177.5190  138.3580 C   0  0  2  0  0  3  0  0  0  0  0  0
  190.4470  176.4530  137.3490 C   0  0  0  0  0  3  0  0  0  0  0  0
  191.9590  176.3930  137.2520 C   0  0  0  0  0  2  0  0  0  0  0  0
  191.2080  175.3470  138.0520 C   0  0  0  0  0  2  0  0  0  0  0  0
  189.5540  176.8830  139.6600 C   0  0  0  0  0  2  0  0  0  0  0  0
  190.0930  177.6060  140.8890 C   0  0  0  0  0  2  0  0  0  0  0  0
  191.5250  177.1860  141.1690 C   0  0  0  0  0  2  0  0  0  0  0  0
  192.0630  177.9330  142.3750 C   0  0  0  0  0  2  0  0  0  0  0  0
  190.9750  178.0970  143.4160 C   0  0  0  0  0  2  0  0  0  0  0  0
  191.6190  178.3990  144.7530 C   0  0  0  0  0  2  0  0  0  0  0  0
  190.5900  178.3460  145.8700 C   0  0  1  0  0  3  0  0  0  0  0  0
  189.2530  178.5450  145.3230 N   0  0  0  0  0  2  0  0  0  0  0  0
  187.5740  176.6840  143.5030 C   0  0  0  0  0  0  0  0  0  0  0  0
  187.0980  178.8750  146.9960 F   0  0  0  0  0  0  0  0  0  0  0  0
  188.4400  177.3920  145.6950 C   0  0  1  0  0  3  0  0  0  0  0  0
  184.6900  178.9620  142.6250 C   0  0  0  0  0  3  0  0  0  0  0  0
  186.3640  176.7740  146.6750 F   0  0  0  0  0  0  0  0  0  0  0  0
  187.0200  177.8380  146.0800 C   0  0  0  0  0  0  0  0  0  0  0  0
  187.7510  176.0250  142.4430 O   0  0  0  0  0  0  0  0  0  0  0  0
  184.4160  179.5340  143.8700 C   0  0  0  0  0  3  0  0  0  0  0  0
  185.1790  179.1820  144.9850 C   0  0  0  0  0  3  0  0  0  0  0  0
  186.4950  177.6770  143.6080 C   0  0  0  0  0  0  0  0  0  0  0  0
  186.2370  178.2690  144.8610 C   0  0  0  0  0  0  0  0  0  0  0  0
  185.7240  178.0320  142.4940 C   0  0  0  0  0  3  0  0  0  0  0  0
  188.4050  176.4680  144.6060 O   0  0  0  0  0  0  0  0  0  0  0  0
  190.6810  177.0230  146.6410 C   0  0  0  0  0  2  0  0  0  0  0  0
  192.3770  175.5880  147.7440 C   0  0  0  0  0  1  0  0  0  0  0  0
  192.0080  176.2970  146.4570 C   0  0  1  0  0  3  0  0  0  0  0  0
  191.9170  175.3670  145.4220 O   0  0  0  0  0  1  0  0  0  0  0  0
  189.0040  178.4620  137.7550 C   0  0  0  0  0  2  0  0  0  0  0  0
  187.6090  178.1110  138.2510 C   0  0  0  0  0  2  0  0  0  0  0  0
  186.5640  178.3900  137.1830 C   0  0  0  0  0  2  0  0  0  0  0  0
  185.1700  178.2760  137.7750 C   0  0  0  0  0  2  0  0  0  0  0  0
  184.7250  176.8150  137.8500 C   0  0  1  0  0  3  0  0  0  0  0  0
  182.7720  175.9490  139.1990 C   0  0  0  0  0  2  0  0  0  0  0  0
  181.4380  177.8940  138.8260 C   0  0  1  0  0  3  0  0  0  0  0  0
  183.2010  176.6580  137.9280 C   0  0  1  0  0  3  0  0  0  0  0  0
  182.5180  177.9470  137.8470 N   0  0  0  0  0  2  0  0  0  0  0  0
  181.8250  176.8940  139.8910 C   0  0  0  0  0  2  0  0  0  0  0  0
  181.1490  179.2690  139.4340 C   0  0  0  0  0  3  0  0  0  0  0  0
  181.2360  179.2660  140.9520 C   0  0  0  0  0  1  0  0  0  0  0  0
  182.0970  180.3080  138.8690 C   0  0  0  0  0  1  0  0  0  0  0  0
  185.2410  176.0470  136.6400 C   0  0  0  0  0  2  0  0  0  0  0  0
  186.4700  172.0700  135.7310 C   0  0  0  0  0  2  0  0  0  0  0  0
  186.9250  172.6300  137.0720 C   0  0  0  0  0  2  0  0  0  0  0  0
  183.5050  174.1730  135.3650 O   0  0  0  0  0  0  0  0  0  0  0  0
  185.3070  174.5470  136.9100 C   0  0  2  0  0  3  0  0  0  0  0  0
  186.7760  174.1430  137.0350 C   0  0  0  0  0  2  0  0  0  0  0  0
  184.5910  173.7450  135.8440 C   0  0  0  0  0  0  0  0  0  0  0  0
  185.0840  172.4470  135.4630 N   0  0  0  0  0  0  0  0  0  0  0  0
  184.2830  171.5760  134.6060 C   0  0  0  0  0  2  0  0  0  0  0  0
  182.1180  170.3910  134.7390 C   0  0  0  0  0  1  0  0  0  0  0  0
  183.2400  171.0420  136.8300 C   0  0  0  0  0  1  0  0  0  0  0  0
  184.1630  169.2160  135.4380 C   0  0  0  0  0  1  0  0  0  0  0  0
  183.4660  170.5630  135.4090 C   0  0  0  0  0  0  0  0  0  0  0  0
  1 30  1  6  0  0  0
  1  5  1  0  0  0  0
  2  4  1  0  0  0  0
  2  1  1  0  0  0  0
  3  2  1  0  0  0  0
  3  4  1  0  0  0  0
  5  6  1  0  0  0  0
  6  7  1  0  0  0  0
  7  8  1  0  0  0  0
  8  9  1  0  0  0  0
  9 10  1  0  0  0  0
 11 10  1  6  0  0  0
 11 26  1  0  0  0  0
 12 11  1  0  0  0  0
 13 22  1  0  0  0  0
 13 25  1  0  0  0  0
 15 12  1  6  0  0  0
 15 18  1  0  0  0  0
 16 20  1  0  0  0  0
 18 17  1  0  0  0  0
 18 14  1  0  0  0  0
 19 13  2  0  0  0  0
 20 21  2  0  0  0  0
 22 23  2  0  0  0  0
 23 21  1  0  0  0  0
 23 18  1  0  0  0  0
 24 16  2  0  0  0  0
 24 22  1  0  0  0  0
 25 15  1  0  0  0  0
 28 26  1  0  0  0  0
 28 27  1  1  0  0  0
 29 28  1  0  0  0  0
 30 31  1  0  0  0  0
 32 33  1  0  0  0  0
 32 31  1  0  0  0  0
 33 34  1  0  0  0  0
 34 43  1  6  0  0  0
 35 39  1  0  0  0  0
 36 40  1  1  0  0  0
 36 39  1  0  0  0  0
 37 34  1  1  0  0  0
 37 35  1  0  0  0  0
 38 37  1  0  0  0  0
 38 36  1  0  0  0  0
 40 41  1  0  0  0  0
 42 40  1  0  0  0  0
 44 45  1  0  0  0  0
 46 49  2  0  0  0  0
 47 43  1  6  0  0  0
 47 48  1  0  0  0  0
 48 45  1  0  0  0  0
 49 47  1  0  0  0  0
 50 44  1  0  0  0  0
 50 49  1  0  0  0  0
 51 55  1  0  0  0  0
 51 50  1  0  0  0  0
 52 55  1  0  0  0  0
 55 54  1  0  0  0  0
 55 53  1  0  0  0  0
M  END
>  <MODEL>
2

>  <REMARK>
 VINA RESULT:      -6.4      3.977      8.639
  Name = 
  23 active torsions:
  status: ('A' for Active; 'I' for Inactive)
    1  A    between atoms: C_2  and  C_28
    2  A    between atoms: C_2  and  C_44
    3  A    between atoms: C_6  and  N_46
    4  A    between atoms: C_8  and  C_20
    5  A    between atoms: C_8  and  C_22
    6  A    between atoms: C_10  and  C_32
    7  A    between atoms: C_17  and  C_36
    8  A    between atoms: C_19  and  C_40
    9  A    between atoms: C_19  and  N_45
   10  A    between atoms: C_22  and  C_35
   11  A    between atoms: C_22  and  N_46
   12  A    between atoms: C_24  and  C_44
   13  A    between atoms: C_27  and  C_31
   14  A    between atoms: C_27  and  C_54
   15  A    between atoms: C_28  and  C_49
   16  A    between atoms: C_31  and  C_44
   17  A    between atoms: C_33  and  C_49
   18  A    between atoms: C_33  and  C_52
   19  A    between atoms: C_34  and  C_52
   20  A    between atoms: C_35  and  C_43
   21  A    between atoms: C_36  and  C_52
   22  A    between atoms: C_43  and  C_51
   23  A    between atoms: C_51  and  C_54
                            x       y       z     vdW  Elec       q    Type
                         _______ _______ _______ _____ _____    ______ ____

>  <TORSDO>
F 23

$$$$
=
 OpenBabel10272401293D

 55 59  0  0  1  0  0  0  0  0999 V2000
  191.3570  177.5570  142.4390 C   0  0  2  0  0  3  0  0  0  0  0  0
  191.9020  178.2550  143.6780 C   0  0  0  0  0  3  0  0  0  0  0  0
  191.0110  179.4300  144.0330 C   0  0  0  0  0  2  0  0  0  0  0  0
  190.9050  178.1340  144.8120 C   0  0  0  0  0  2  0  0  0  0  0  0
  190.8190  176.1690  142.7850 C   0  0  0  0  0  2  0  0  0  0  0  0
  189.3810  175.9770  142.3160 C   0  0  0  0  0  2  0  0  0  0  0  0
  188.7910  177.2980  141.8540 C   0  0  0  0  0  2  0  0  0  0  0  0
  187.6070  177.6740  142.7250 C   0  0  0  0  0  2  0  0  0  0  0  0
  187.4430  176.6690  143.8460 C   0  0  0  0  0  2  0  0  0  0  0  0
  186.2310  177.0510  144.6720 C   0  0  0  0  0  2  0  0  0  0  0  0
  185.6110  178.3380  144.1520 C   0  0  1  0  0  3  0  0  0  0  0  0
  184.4330  178.0320  143.3490 N   0  0  0  0  0  2  0  0  0  0  0  0
  181.7280  179.2370  142.4420 C   0  0  0  0  0  0  0  0  0  0  0  0
  185.2810  177.9350  140.7370 F   0  0  0  0  0  0  0  0  0  0  0  0
  184.1870  179.1660  142.4640 C   0  0  1  0  0  3  0  0  0  0  0  0
  180.5290  176.5700  140.0470 C   0  0  0  0  0  3  0  0  0  0  0  0
  184.1920  179.8210  140.1780 F   0  0  0  0  0  0  0  0  0  0  0  0
  184.1590  178.7050  140.9970 C   0  0  0  0  0  0  0  0  0  0  0  0
  180.6620  179.6300  142.9880 O   0  0  0  0  0  0  0  0  0  0  0  0
  181.7060  176.2990  139.3440 C   0  0  0  0  0  3  0  0  0  0  0  0
  182.8840  176.9780  139.6600 C   0  0  0  0  0  3  0  0  0  0  0  0
  181.7060  178.2100  141.3900 C   0  0  0  0  0  0  0  0  0  0  0  0
  182.9000  177.9220  140.6990 C   0  0  0  0  0  0  0  0  0  0  0  0
  180.5280  177.5270  141.0660 C   0  0  0  0  0  3  0  0  0  0  0  0
  182.9530  179.7890  142.8260 O   0  0  0  0  0  0  0  0  0  0  0  0
  185.2630  179.2880  145.3060 C   0  0  0  0  0  2  0  0  0  0  0  0
  186.2620  179.7620  147.5260 C   0  0  0  0  0  1  0  0  0  0  0  0
  185.5650  178.7130  146.6840 C   0  0  1  0  0  3  0  0  0  0  0  0
  184.3880  178.3140  147.3170 O   0  0  0  0  0  1  0  0  0  0  0  0
  192.4170  177.5060  141.3420 C   0  0  0  0  0  2  0  0  0  0  0  0
  191.7740  177.6410  139.9700 C   0  0  0  0  0  2  0  0  0  0  0  0
  191.9530  176.3700  139.1560 C   0  0  0  0  0  2  0  0  0  0  0  0
  190.6780  176.0560  138.3920 C   0  0  0  0  0  2  0  0  0  0  0  0
  190.9820  175.7280  136.9300 C   0  0  1  0  0  3  0  0  0  0  0  0
  189.0120  175.5940  135.3540 C   0  0  0  0  0  2  0  0  0  0  0  0
  188.0710  177.6620  136.0900 C   0  0  1  0  0  3  0  0  0  0  0  0
  190.0830  176.4900  135.9480 C   0  0  1  0  0  3  0  0  0  0  0  0
  189.4450  177.6440  136.5790 N   0  0  0  0  0  2  0  0  0  0  0  0
  187.7000  176.2530  135.6920 C   0  0  0  0  0  2  0  0  0  0  0  0
  187.0990  178.2190  137.1340 C   0  0  0  0  0  3  0  0  0  0  0  0
  185.7330  177.5560  137.0710 C   0  0  0  0  0  1  0  0  0  0  0  0
  187.6770  178.0710  138.5270 C   0  0  0  0  0  1  0  0  0  0  0  0
  192.4390  176.0430  136.6140 C   0  0  0  0  0  2  0  0  0  0  0  0
  194.5010  172.3530  136.0860 C   0  0  0  0  0  2  0  0  0  0  0  0
  193.1270  172.4590  135.4400 C   0  0  0  0  0  2  0  0  0  0  0  0
  195.2470  175.9290  136.1140 O   0  0  0  0  0  0  0  0  0  0  0  0
  193.0800  174.9510  135.7640 C   0  0  2  0  0  3  0  0  0  0  0  0
  192.3870  173.6250  136.0760 C   0  0  0  0  0  2  0  0  0  0  0  0
  194.5760  174.8680  135.9770 C   0  0  0  0  0  0  0  0  0  0  0  0
  195.2480  173.5970  135.9100 N   0  0  0  0  0  0  0  0  0  0  0  0
  196.7070  173.5330  135.8920 C   0  0  0  0  0  2  0  0  0  0  0  0
  198.4900  174.0740  137.5150 C   0  0  0  0  0  1  0  0  0  0  0  0
  197.7450  171.7370  137.3120 C   0  0  0  0  0  1  0  0  0  0  0  0
  196.2710  173.4280  138.3560 C   0  0  0  0  0  1  0  0  0  0  0  0
  197.2910  173.1830  137.2610 C   0  0  0  0  0  0  0  0  0  0  0  0
  1 30  1  6  0  0  0
  1  5  1  0  0  0  0
  1  2  1  0  0  0  0
  2  3  1  0  0  0  0
  2  4  1  0  0  0  0
  3  4  1  0  0  0  0
  6  5  1  0  0  0  0
  7  6  1  0  0  0  0
  7  8  1  0  0  0  0
  8  9  1  0  0  0  0
  9 10  1  0  0  0  0
 11 10  1  1  0  0  0
 11 26  1  0  0  0  0
 12 11  1  0  0  0  0
 13 25  1  0  0  0  0
 13 19  2  0  0  0  0
 14 18  1  0  0  0  0
 15 25  1  0  0  0  0
 15 12  1  1  0  0  0
 16 24  1  0  0  0  0
 17 18  1  0  0  0  0
 18 15  1  0  0  0  0
 20 21  1  0  0  0  0
 20 16  2  0  0  0  0
 21 23  2  0  0  0  0
 22 13  1  0  0  0  0
 23 18  1  0  0  0  0
 23 22  1  0  0  0  0
 24 22  2  0  0  0  0
 26 28  1  0  0  0  0
 28 29  1  0  0  0  0
 28 27  1  1  0  0  0
 31 30  1  0  0  0  0
 32 31  1  0  0  0  0
 33 32  1  0  0  0  0
 34 43  1  6  0  0  0
 34 33  1  0  0  0  0
 35 39  1  0  0  0  0
 35 37  1  0  0  0  0
 36 38  1  0  0  0  0
 36 40  1  1  0  0  0
 37 38  1  0  0  0  0
 37 34  1  1  0  0  0
 39 36  1  0  0  0  0
 40 42  1  0  0  0  0
 41 40  1  0  0  0  0
 45 48  1  0  0  0  0
 45 44  1  0  0  0  0
 47 49  1  0  0  0  0
 47 48  1  0  0  0  0
 47 43  1  1  0  0  0
 49 46  2  0  0  0  0
 50 49  1  0  0  0  0
 50 44  1  0  0  0  0
 51 50  1  0  0  0  0
 51 55  1  0  0  0  0
 55 53  1  0  0  0  0
 55 52  1  0  0  0  0
 55 54  1  0  0  0  0
M  END
>  <MODEL>
3

>  <REMARK>
 VINA RESULT:      -6.2      2.923     11.242
  Name = 
  23 active torsions:
  status: ('A' for Active; 'I' for Inactive)
    1  A    between atoms: C_2  and  C_28
    2  A    between atoms: C_2  and  C_44
    3  A    between atoms: C_6  and  N_46
    4  A    between atoms: C_8  and  C_20
    5  A    between atoms: C_8  and  C_22
    6  A    between atoms: C_10  and  C_32
    7  A    between atoms: C_17  and  C_36
    8  A    between atoms: C_19  and  C_40
    9  A    between atoms: C_19  and  N_45
   10  A    between atoms: C_22  and  C_35
   11  A    between atoms: C_22  and  N_46
   12  A    between atoms: C_24  and  C_44
   13  A    between atoms: C_27  and  C_31
   14  A    between atoms: C_27  and  C_54
   15  A    between atoms: C_28  and  C_49
   16  A    between atoms: C_31  and  C_44
   17  A    between atoms: C_33  and  C_49
   18  A    between atoms: C_33  and  C_52
   19  A    between atoms: C_34  and  C_52
   20  A    between atoms: C_35  and  C_43
   21  A    between atoms: C_36  and  C_52
   22  A    between atoms: C_43  and  C_51
   23  A    between atoms: C_51  and  C_54
                            x       y       z     vdW  Elec       q    Type
                         _______ _______ _______ _____ _____    ______ ____

>  <TORSDO>
F 23

$$$$
=
 OpenBabel10272401293D

 55 59  0  0  1  0  0  0  0  0999 V2000
  191.2220  177.5720  142.1390 C   0  0  2  0  0  3  0  0  0  0  0  0
  191.9190  178.3830  143.2240 C   0  0  0  0  0  3  0  0  0  0  0  0
  190.8860  179.1350  144.0400 C   0  0  0  0  0  2  0  0  0  0  0  0
  191.5110  177.8680  144.5880 C   0  0  0  0  0  2  0  0  0  0  0  0
  190.6830  176.2560  142.7000 C   0  0  0  0  0  2  0  0  0  0  0  0
  189.1650  176.1640  142.5900 C   0  0  0  0  0  2  0  0  0  0  0  0
  188.6320  177.2460  141.6690 C   0  0  0  0  0  2  0  0  0  0  0  0
  187.5420  178.0380  142.3680 C   0  0  0  0  0  2  0  0  0  0  0  0
  186.5740  178.6070  141.3510 C   0  0  0  0  0  2  0  0  0  0  0  0
  185.6710  179.6070  142.0420 C   0  0  0  0  0  2  0  0  0  0  0  0
  184.9690  178.9680  143.2290 C   0  0  1  0  0  3  0  0  0  0  0  0
  185.7600  179.1630  144.4380 N   0  0  0  0  0  2  0  0  0  0  0  0
  186.0660  179.4320  147.5090 C   0  0  0  0  0  0  0  0  0  0  0  0
  186.4110  176.4980  144.5930 F   0  0  0  0  0  0  0  0  0  0  0  0
  185.1820  178.3360  145.4910 C   0  0  1  0  0  3  0  0  0  0  0  0
  189.6310  178.2670  147.9730 C   0  0  0  0  0  3  0  0  0  0  0  0
  185.3960  176.2340  146.5820 F   0  0  0  0  0  0  0  0  0  0  0  0
  186.0890  177.1290  145.7840 C   0  0  0  0  0  0  0  0  0  0  0  0
  185.9490  180.3430  148.3720 O   0  0  0  0  0  0  0  0  0  0  0  0
  189.6550  177.1500  147.1330 C   0  0  0  0  0  3  0  0  0  0  0  0
  188.5140  176.7900  146.4130 C   0  0  0  0  0  3  0  0  0  0  0  0
  187.3160  178.6680  147.3770 C   0  0  0  0  0  0  0  0  0  0  0  0
  187.3430  177.5560  146.5120 C   0  0  0  0  0  0  0  0  0  0  0  0
  188.4630  179.0230  148.0990 C   0  0  0  0  0  3  0  0  0  0  0  0
  184.9940  179.1280  146.6650 O   0  0  0  0  0  0  0  0  0  0  0  0
  183.5510  179.5290  143.3990 C   0  0  0  0  0  2  0  0  0  0  0  0
  181.1080  179.1890  143.1480 C   0  0  0  0  0  1  0  0  0  0  0  0
  182.4740  178.6800  142.7370 C   0  0  1  0  0  3  0  0  0  0  0  0
  182.5930  178.7330  141.3480 O   0  0  0  0  0  1  0  0  0  0  0  0
  192.1540  177.3520  140.9510 C   0  0  0  0  0  2  0  0  0  0  0  0
  191.3650  177.3220  139.6500 C   0  0  0  0  0  2  0  0  0  0  0  0
  191.9040  176.2560  138.7090 C   0  0  0  0  0  2  0  0  0  0  0  0
  190.7570  175.4790  138.0890 C   0  0  0  0  0  2  0  0  0  0  0  0
  191.0660  175.1100  136.6380 C   0  0  1  0  0  3  0  0  0  0  0  0
  188.7160  174.9160  135.7300 C   0  0  0  0  0  2  0  0  0  0  0  0
  188.3490  177.2760  135.7190 C   0  0  1  0  0  3  0  0  0  0  0  0
  190.0330  175.6640  135.6480 C   0  0  1  0  0  3  0  0  0  0  0  0
  189.7880  177.0890  135.8610 N   0  0  0  0  0  2  0  0  0  0  0  0
  187.6750  175.9610  136.0370 C   0  0  0  0  0  2  0  0  0  0  0  0
  187.8260  178.4000  136.6180 C   0  0  0  0  0  3  0  0  0  0  0  0
  186.7120  177.9360  137.5430 C   0  0  0  0  0  1  0  0  0  0  0  0
  188.9560  178.9930  137.4350 C   0  0  0  0  0  1  0  0  0  0  0  0
  192.4480  175.6200  136.2510 C   0  0  0  0  0  2  0  0  0  0  0  0
  194.5840  172.0530  137.1820 C   0  0  0  0  0  2  0  0  0  0  0  0
  193.6030  171.9710  136.0200 C   0  0  0  0  0  2  0  0  0  0  0  0
  195.2100  175.6470  136.9720 O   0  0  0  0  0  0  0  0  0  0  0  0
  193.3980  174.4750  135.9140 C   0  0  2  0  0  3  0  0  0  0  0  0
  192.6530  173.1550  136.1110 C   0  0  0  0  0  2  0  0  0  0  0  0
  194.6690  174.5310  136.7340 C   0  0  0  0  0  0  0  0  0  0  0  0
  195.3220  173.3140  137.1420 N   0  0  0  0  0  0  0  0  0  0  0  0
  196.6560  173.3550  137.7350 C   0  0  0  0  0  2  0  0  0  0  0  0
  198.7020  174.3140  136.7330 C   0  0  0  0  0  1  0  0  0  0  0  0
  197.1840  173.0080  135.3010 C   0  0  0  0  0  1  0  0  0  0  0  0
  198.5500  171.8760  137.0260 C   0  0  0  0  0  1  0  0  0  0  0  0
  197.7590  173.1290  136.6990 C   0  0  0  0  0  0  0  0  0  0  0  0
  1 30  1  6  0  0  0
  1  5  1  0  0  0  0
  1  2  1  0  0  0  0
  2  3  1  0  0  0  0
  2  4  1  0  0  0  0
  3  4  1  0  0  0  0
  6  5  1  0  0  0  0
  7  8  1  0  0  0  0
  7  6  1  0  0  0  0
  9 10  1  0  0  0  0
  9  8  1  0  0  0  0
 11 10  1  6  0  0  0
 11 26  1  0  0  0  0
 11 12  1  0  0  0  0
 13 19  2  0  0  0  0
 14 18  1  0  0  0  0
 15 12  1  6  0  0  0
 15 18  1  0  0  0  0
 15 25  1  0  0  0  0
 16 24  1  0  0  0  0
 18 23  1  0  0  0  0
 18 17  1  0  0  0  0
 20 16  2  0  0  0  0
 21 23  2  0  0  0  0
 21 20  1  0  0  0  0
 22 13  1  0  0  0  0
 22 24  2  0  0  0  0
 23 22  1  0  0  0  0
 25 13  1  0  0  0  0
 28 27  1  6  0  0  0
 28 26  1  0  0  0  0
 29 28  1  0  0  0  0
 31 30  1  0  0  0  0
 32 31  1  0  0  0  0
 33 32  1  0  0  0  0
 34 43  1  6  0  0  0
 34 33  1  0  0  0  0
 35 39  1  0  0  0  0
 36 38  1  0  0  0  0
 36 39  1  0  0  0  0
 36 40  1  1  0  0  0
 37 35  1  0  0  0  0
 37 38  1  0  0  0  0
 37 34  1  1  0  0  0
 40 42  1  0  0  0  0
 40 41  1  0  0  0  0
 45 48  1  0  0  0  0
 45 44  1  0  0  0  0
 47 48  1  0  0  0  0
 47 43  1  1  0  0  0
 47 49  1  0  0  0  0
 49 46  2  0  0  0  0
 49 50  1  0  0  0  0
 50 44  1  0  0  0  0
 50 51  1  0  0  0  0
 53 55  1  0  0  0  0
 55 52  1  0  0  0  0
 55 54  1  0  0  0  0
 55 51  1  0  0  0  0
M  END
>  <MODEL>
4

>  <REMARK>
 VINA RESULT:      -6.0      3.214     11.043
  Name = 
  23 active torsions:
  status: ('A' for Active; 'I' for Inactive)
    1  A    between atoms: C_2  and  C_28
    2  A    between atoms: C_2  and  C_44
    3  A    between atoms: C_6  and  N_46
    4  A    between atoms: C_8  and  C_20
    5  A    between atoms: C_8  and  C_22
    6  A    between atoms: C_10  and  C_32
    7  A    between atoms: C_17  and  C_36
    8  A    between atoms: C_19  and  C_40
    9  A    between atoms: C_19  and  N_45
   10  A    between atoms: C_22  and  C_35
   11  A    between atoms: C_22  and  N_46
   12  A    between atoms: C_24  and  C_44
   13  A    between atoms: C_27  and  C_31
   14  A    between atoms: C_27  and  C_54
   15  A    between atoms: C_28  and  C_49
   16  A    between atoms: C_31  and  C_44
   17  A    between atoms: C_33  and  C_49
   18  A    between atoms: C_33  and  C_52
   19  A    between atoms: C_34  and  C_52
   20  A    between atoms: C_35  and  C_43
   21  A    between atoms: C_36  and  C_52
   22  A    between atoms: C_43  and  C_51
   23  A    between atoms: C_51  and  C_54
                            x       y       z     vdW  Elec       q    Type
                         _______ _______ _______ _____ _____    ______ ____

>  <TORSDO>
F 23

$$$$
=
 OpenBabel10272401293D

 55 59  0  0  1  0  0  0  0  0999 V2000
  190.9180  177.4150  142.2380 C   0  0  2  0  0  3  0  0  0  0  0  0
  191.9900  177.9310  143.1900 C   0  0  0  0  0  3  0  0  0  0  0  0
  191.4390  179.0900  143.9970 C   0  0  0  0  0  2  0  0  0  0  0  0
  191.5480  177.7140  144.6220 C   0  0  0  0  0  2  0  0  0  0  0  0
  190.4070  176.0440  142.6800 C   0  0  0  0  0  2  0  0  0  0  0  0
  188.9080  176.0520  142.9590 C   0  0  0  0  0  2  0  0  0  0  0  0
  188.3730  177.4720  142.9510 C   0  0  0  0  0  2  0  0  0  0  0  0
  187.1420  177.5620  142.0680 C   0  0  0  0  0  2  0  0  0  0  0  0
  187.0280  178.9490  141.4690 C   0  0  0  0  0  2  0  0  0  0  0  0
  185.7550  179.5960  141.9730 C   0  0  0  0  0  2  0  0  0  0  0  0
  185.1620  178.7950  143.1200 C   0  0  1  0  0  3  0  0  0  0  0  0
  185.7910  179.1870  144.3760 N   0  0  0  0  0  2  0  0  0  0  0  0
  186.0630  179.5890  147.4350 C   0  0  0  0  0  0  0  0  0  0  0  0
  186.1950  176.4860  144.6820 F   0  0  0  0  0  0  0  0  0  0  0  0
  185.1210  178.4710  145.4560 C   0  0  1  0  0  3  0  0  0  0  0  0
  189.4990  178.1360  148.0410 C   0  0  0  0  0  3  0  0  0  0  0  0
  185.1240  176.4190  146.6580 F   0  0  0  0  0  0  0  0  0  0  0  0
  185.9090  177.2050  145.8320 C   0  0  0  0  0  0  0  0  0  0  0  0
  186.0130  180.5520  148.2480 O   0  0  0  0  0  0  0  0  0  0  0  0
  189.4370  176.9790  147.2600 C   0  0  0  0  0  3  0  0  0  0  0  0
  188.2820  176.6840  146.5330 C   0  0  0  0  0  3  0  0  0  0  0  0
  187.2410  178.7110  147.3720 C   0  0  0  0  0  0  0  0  0  0  0  0
  187.1830  177.5570  146.5650 C   0  0  0  0  0  0  0  0  0  0  0  0
  188.4010  178.9990  148.1010 C   0  0  0  0  0  3  0  0  0  0  0  0
  184.9840  179.3380  146.5840 O   0  0  0  0  0  0  0  0  0  0  0  0
  183.6390  178.9700  143.1860 C   0  0  0  0  0  2  0  0  0  0  0  0
  183.5020  177.6130  141.1160 C   0  0  0  0  0  1  0  0  0  0  0  0
  182.9480  178.8240  141.8370 C   0  0  1  0  0  3  0  0  0  0  0  0
  181.5710  178.6770  142.0050 O   0  0  0  0  0  1  0  0  0  0  0  0
  191.4370  177.4010  140.8030 C   0  0  0  0  0  2  0  0  0  0  0  0
  190.2960  177.6210  139.8200 C   0  0  0  0  0  2  0  0  0  0  0  0
  190.6720  177.1340  138.4290 C   0  0  0  0  0  2  0  0  0  0  0  0
  190.4170  175.6410  138.3130 C   0  0  0  0  0  2  0  0  0  0  0  0
  190.3190  175.2150  136.8480 C   0  0  1  0  0  3  0  0  0  0  0  0
  188.8130  174.8530  134.8520 C   0  0  0  0  0  2  0  0  0  0  0  0
  186.9770  174.0790  136.1690 C   0  0  1  0  0  3  0  0  0  0  0  0
  188.9080  175.3840  136.2700 C   0  0  1  0  0  3  0  0  0  0  0  0
  187.9000  174.7220  137.0970 N   0  0  0  0  0  2  0  0  0  0  0  0
  187.7210  173.8160  134.8800 C   0  0  0  0  0  2  0  0  0  0  0  0
  186.3930  172.7870  136.7470 C   0  0  0  0  0  3  0  0  0  0  0  0
  184.9190  172.9180  137.0950 C   0  0  0  0  0  1  0  0  0  0  0  0
  186.5900  171.6370  135.7800 C   0  0  0  0  0  1  0  0  0  0  0  0
  191.3000  176.0170  136.0020 C   0  0  0  0  0  2  0  0  0  0  0  0
  194.0660  172.8360  136.6160 C   0  0  0  0  0  2  0  0  0  0  0  0
  193.3120  172.8320  135.2930 C   0  0  0  0  0  2  0  0  0  0  0  0
  193.8420  176.4300  137.2350 O   0  0  0  0  0  0  0  0  0  0  0  0
  192.5330  175.1970  135.6390 C   0  0  2  0  0  3  0  0  0  0  0  0
  192.1040  173.7460  135.4270 C   0  0  0  0  0  2  0  0  0  0  0  0
  193.6230  175.3150  136.6840 C   0  0  0  0  0  0  0  0  0  0  0  0
  194.4800  174.1930  136.9660 N   0  0  0  0  0  0  0  0  0  0  0  0
  195.6660  174.3620  137.8010 C   0  0  0  0  0  2  0  0  0  0  0  0
  197.1000  172.4540  137.1570 C   0  0  0  0  0  1  0  0  0  0  0  0
  198.1670  174.6010  137.7150 C   0  0  0  0  0  1  0  0  0  0  0  0
  196.8850  174.3570  135.6120 C   0  0  0  0  0  1  0  0  0  0  0  0
  196.9510  173.9600  137.0750 C   0  0  0  0  0  0  0  0  0  0  0  0
  1 30  1  6  0  0  0
  1  5  1  0  0  0  0
  1  2  1  0  0  0  0
  2  3  1  0  0  0  0
  2  4  1  0  0  0  0
  3  4  1  0  0  0  0
  5  6  1  0  0  0  0
  7  6  1  0  0  0  0
  8  7  1  0  0  0  0
  9 10  1  0  0  0  0
  9  8  1  0  0  0  0
 11 10  1  6  0  0  0
 11 26  1  0  0  0  0
 11 12  1  0  0  0  0
 13 19  2  0  0  0  0
 14 18  1  0  0  0  0
 15 12  1  6  0  0  0
 15 18  1  0  0  0  0
 15 25  1  0  0  0  0
 16 24  1  0  0  0  0
 18 23  1  0  0  0  0
 18 17  1  0  0  0  0
 20 16  2  0  0  0  0
 21 23  2  0  0  0  0
 21 20  1  0  0  0  0
 22 13  1  0  0  0  0
 22 24  2  0  0  0  0
 23 22  1  0  0  0  0
 25 13  1  0  0  0  0
 28 27  1  1  0  0  0
 28 29  1  0  0  0  0
 28 26  1  0  0  0  0
 31 30  1  0  0  0  0
 32 31  1  0  0  0  0
 33 32  1  0  0  0  0
 34 43  1  6  0  0  0
 34 33  1  0  0  0  0
 35 39  1  0  0  0  0
 35 37  1  0  0  0  0
 36 40  1  1  0  0  0
 36 38  1  0  0  0  0
 37 34  1  1  0  0  0
 37 38  1  0  0  0  0
 39 36  1  0  0  0  0
 40 41  1  0  0  0  0
 42 40  1  0  0  0  0
 44 50  1  0  0  0  0
 45 48  1  0  0  0  0
 45 44  1  0  0  0  0
 47 43  1  1  0  0  0
 47 49  1  0  0  0  0
 48 47  1  0  0  0  0
 49 50  1  0  0  0  0
 49 46  2  0  0  0  0
 50 51  1  0  0  0  0
 54 55  1  0  0  0  0
 55 52  1  0  0  0  0
 55 53  1  0  0  0  0
 55 51  1  0  0  0  0
M  END
>  <MODEL>
5

>  <REMARK>
 VINA RESULT:      -5.5      3.246     10.838
  Name = 
  23 active torsions:
  status: ('A' for Active; 'I' for Inactive)
    1  A    between atoms: C_2  and  C_28
    2  A    between atoms: C_2  and  C_44
    3  A    between atoms: C_6  and  N_46
    4  A    between atoms: C_8  and  C_20
    5  A    between atoms: C_8  and  C_22
    6  A    between atoms: C_10  and  C_32
    7  A    between atoms: C_17  and  C_36
    8  A    between atoms: C_19  and  C_40
    9  A    between atoms: C_19  and  N_45
   10  A    between atoms: C_22  and  C_35
   11  A    between atoms: C_22  and  N_46
   12  A    between atoms: C_24  and  C_44
   13  A    between atoms: C_27  and  C_31
   14  A    between atoms: C_27  and  C_54
   15  A    between atoms: C_28  and  C_49
   16  A    between atoms: C_31  and  C_44
   17  A    between atoms: C_33  and  C_49
   18  A    between atoms: C_33  and  C_52
   19  A    between atoms: C_34  and  C_52
   20  A    between atoms: C_35  and  C_43
   21  A    between atoms: C_36  and  C_52
   22  A    between atoms: C_43  and  C_51
   23  A    between atoms: C_51  and  C_54
                            x       y       z     vdW  Elec       q    Type
                         _______ _______ _______ _____ _____    ______ ____

>  <TORSDO>
F 23

$$$$
=
 OpenBabel10272401293D

 55 59  0  0  1  0  0  0  0  0999 V2000
  189.4550  177.9450  142.7970 C   0  0  2  0  0  3  0  0  0  0  0  0
  189.9360  177.2650  144.0720 C   0  0  0  0  0  3  0  0  0  0  0  0
  189.9120  178.2570  145.2190 C   0  0  0  0  0  2  0  0  0  0  0  0
  188.8110  177.2240  145.0850 C   0  0  0  0  0  2  0  0  0  0  0  0
  188.1410  177.3320  142.3120 C   0  0  0  0  0  2  0  0  0  0  0  0
  187.2760  178.3430  141.5680 C   0  0  0  0  0  2  0  0  0  0  0  0
  186.1500  178.8370  142.4580 C   0  0  0  0  0  2  0  0  0  0  0  0
  184.8700  178.0830  142.1500 C   0  0  0  0  0  2  0  0  0  0  0  0
  184.1210  178.7640  141.0230 C   0  0  0  0  0  2  0  0  0  0  0  0
  182.7090  178.2170  140.9740 C   0  0  0  0  0  2  0  0  0  0  0  0
  182.1500  178.2960  139.5640 C   0  0  1  0  0  3  0  0  0  0  0  0
  182.0950  176.9630  138.9750 N   0  0  0  0  0  2  0  0  0  0  0  0
  181.3730  174.9400  136.7440 C   0  0  0  0  0  0  0  0  0  0  0  0
  184.5930  177.2990  137.8810 F   0  0  0  0  0  0  0  0  0  0  0  0
  182.2410  177.1040  137.5310 C   0  0  1  0  0  3  0  0  0  0  0  0
  184.1150  172.3790  137.1920 C   0  0  0  0  0  3  0  0  0  0  0  0
  183.8440  177.0600  135.7750 F   0  0  0  0  0  0  0  0  0  0  0  0
  183.6480  176.6690  137.0880 C   0  0  0  0  0  0  0  0  0  0  0  0
  180.3770  174.2380  136.4210 O   0  0  0  0  0  0  0  0  0  0  0  0
  185.2250  173.2090  137.3670 C   0  0  0  0  0  3  0  0  0  0  0  0
  185.0730  174.5960  137.3490 C   0  0  0  0  0  3  0  0  0  0  0  0
  182.6890  174.3270  136.9750 C   0  0  0  0  0  0  0  0  0  0  0  0
  183.8030  175.1670  137.1740 C   0  0  0  0  0  0  0  0  0  0  0  0
  182.8490  172.9360  136.9920 C   0  0  0  0  0  3  0  0  0  0  0  0
  181.2380  176.3250  136.8760 O   0  0  0  0  0  0  0  0  0  0  0  0
  180.7670  178.9630  139.5540 C   0  0  0  0  0  2  0  0  0  0  0  0
  182.1110  180.7800  138.5330 C   0  0  0  0  0  1  0  0  0  0  0  0
  180.7090  180.2390  138.7240 C   0  0  1  0  0  3  0  0  0  0  0  0
  180.1330  179.9870  137.4790 O   0  0  0  0  0  1  0  0  0  0  0  0
  190.5400  177.9030  141.7240 C   0  0  0  0  0  2  0  0  0  0  0  0
  190.4760  176.5950  140.9500 C   0  0  0  0  0  2  0  0  0  0  0  0
  191.0170  176.7690  139.5390 C   0  0  0  0  0  2  0  0  0  0  0  0
  190.6130  175.5860  138.6770 C   0  0  0  0  0  2  0  0  0  0  0  0
  191.5000  175.4860  137.4350 C   0  0  1  0  0  3  0  0  0  0  0  0
  189.8580  174.3210  135.9090 C   0  0  0  0  0  2  0  0  0  0  0  0
  188.5810  176.2970  135.5010 C   0  0  1  0  0  3  0  0  0  0  0  0
  190.7040  175.5610  136.1250 C   0  0  1  0  0  3  0  0  0  0  0  0
  189.8430  176.7410  136.0800 N   0  0  0  0  0  2  0  0  0  0  0  0
  188.4420  174.8160  135.7660 C   0  0  0  0  0  2  0  0  0  0  0  0
  187.3880  177.0760  136.0610 C   0  0  0  0  0  3  0  0  0  0  0  0
  187.6920  177.7230  137.4040 C   0  0  0  0  0  1  0  0  0  0  0  0
  186.9360  178.1340  135.0750 C   0  0  0  0  0  1  0  0  0  0  0  0
  192.5430  176.5960  137.4460 C   0  0  0  0  0  2  0  0  0  0  0  0
  194.8280  173.9650  134.9950 C   0  0  0  0  0  2  0  0  0  0  0  0
  194.3640  175.2620  134.3470 C   0  0  0  0  0  2  0  0  0  0  0  0
  194.8050  175.1690  138.4450 O   0  0  0  0  0  0  0  0  0  0  0  0
  193.7460  176.2470  136.5760 C   0  0  2  0  0  3  0  0  0  0  0  0
  193.2410  175.8450  135.1910 C   0  0  0  0  0  2  0  0  0  0  0  0
  194.6040  175.1660  137.1980 C   0  0  0  0  0  0  0  0  0  0  0  0
  195.2810  174.2090  136.3630 N   0  0  0  0  0  0  0  0  0  0  0  0
  196.2810  173.3090  136.9320 C   0  0  0  0  0  2  0  0  0  0  0  0
  198.5290  173.7030  137.8810 C   0  0  0  0  0  1  0  0  0  0  0  0
  197.7410  175.1620  136.0630 C   0  0  0  0  0  1  0  0  0  0  0  0
  198.3410  172.8070  135.5980 C   0  0  0  0  0  1  0  0  0  0  0  0
  197.7100  173.7470  136.6080 C   0  0  0  0  0  0  0  0  0  0  0  0
  1 30  1  6  0  0  0
  1  2  1  0  0  0  0
  2  4  1  0  0  0  0
  2  3  1  0  0  0  0
  4  3  1  0  0  0  0
  5  1  1  0  0  0  0
  6  5  1  0  0  0  0
  6  7  1  0  0  0  0
  8  7  1  0  0  0  0
  9  8  1  0  0  0  0
 10  9  1  0  0  0  0
 11 26  1  1  0  0  0
 11 10  1  0  0  0  0
 12 11  1  0  0  0  0
 13 25  1  0  0  0  0
 13 22  1  0  0  0  0
 15 12  1  1  0  0  0
 16 20  1  0  0  0  0
 17 18  1  0  0  0  0
 18 23  1  0  0  0  0
 18 15  1  0  0  0  0
 18 14  1  0  0  0  0
 19 13  2  0  0  0  0
 21 20  2  0  0  0  0
 22 24  1  0  0  0  0
 22 23  2  0  0  0  0
 23 21  1  0  0  0  0
 24 16  2  0  0  0  0
 25 15  1  0  0  0  0
 28 27  1  6  0  0  0
 28 26  1  0  0  0  0
 29 28  1  0  0  0  0
 31 30  1  0  0  0  0
 32 31  1  0  0  0  0
 33 32  1  0  0  0  0
 34 43  1  6  0  0  0
 34 33  1  0  0  0  0
 35 37  1  0  0  0  0
 36 39  1  0  0  0  0
 36 40  1  1  0  0  0
 36 38  1  0  0  0  0
 37 34  1  1  0  0  0
 38 37  1  0  0  0  0
 39 35  1  0  0  0  0
 40 41  1  0  0  0  0
 42 40  1  0  0  0  0
 44 50  1  0  0  0  0
 45 44  1  0  0  0  0
 45 48  1  0  0  0  0
 47 49  1  0  0  0  0
 47 43  1  1  0  0  0
 48 47  1  0  0  0  0
 49 46  2  0  0  0  0
 50 51  1  0  0  0  0
 50 49  1  0  0  0  0
 53 55  1  0  0  0  0
 54 55  1  0  0  0  0
 55 51  1  0  0  0  0
 55 52  1  0  0  0  0
M  END
>  <MODEL>
6

>  <REMARK>
 VINA RESULT:      -5.5      2.837     10.647
  Name = 
  23 active torsions:
  status: ('A' for Active; 'I' for Inactive)
    1  A    between atoms: C_2  and  C_28
    2  A    between atoms: C_2  and  C_44
    3  A    between atoms: C_6  and  N_46
    4  A    between atoms: C_8  and  C_20
    5  A    between atoms: C_8  and  C_22
    6  A    between atoms: C_10  and  C_32
    7  A    between atoms: C_17  and  C_36
    8  A    between atoms: C_19  and  C_40
    9  A    between atoms: C_19  and  N_45
   10  A    between atoms: C_22  and  C_35
   11  A    between atoms: C_22  and  N_46
   12  A    between atoms: C_24  and  C_44
   13  A    between atoms: C_27  and  C_31
   14  A    between atoms: C_27  and  C_54
   15  A    between atoms: C_28  and  C_49
   16  A    between atoms: C_31  and  C_44
   17  A    between atoms: C_33  and  C_49
   18  A    between atoms: C_33  and  C_52
   19  A    between atoms: C_34  and  C_52
   20  A    between atoms: C_35  and  C_43
   21  A    between atoms: C_36  and  C_52
   22  A    between atoms: C_43  and  C_51
   23  A    between atoms: C_51  and  C_54
                            x       y       z     vdW  Elec       q    Type
                         _______ _______ _______ _____ _____    ______ ____

>  <TORSDO>
F 23

$$$$
=
 OpenBabel10272401293D

 55 59  0  0  1  0  0  0  0  0999 V2000
  189.1560  177.5110  137.1270 C   0  0  2  0  0  3  0  0  0  0  0  0
  188.7980  176.2900  136.2900 C   0  0  0  0  0  3  0  0  0  0  0  0
  189.1580  176.5440  134.8390 C   0  0  0  0  0  2  0  0  0  0  0  0
  190.0570  175.6850  135.7050 C   0  0  0  0  0  2  0  0  0  0  0  0
  190.4020  177.2480  137.9740 C   0  0  0  0  0  2  0  0  0  0  0  0
  190.2930  177.8660  139.3630 C   0  0  0  0  0  2  0  0  0  0  0  0
  189.4080  177.0150  140.2560 C   0  0  0  0  0  2  0  0  0  0  0  0
  188.8690  177.8490  141.4040 C   0  0  0  0  0  2  0  0  0  0  0  0
  188.1380  176.9650  142.3940 C   0  0  0  0  0  2  0  0  0  0  0  0
  186.7690  177.5560  142.6570 C   0  0  0  0  0  2  0  0  0  0  0  0
  186.4030  177.4310  144.1270 C   0  0  1  0  0  3  0  0  0  0  0  0
  187.5570  176.9700  144.8890 N   0  0  0  0  0  2  0  0  0  0  0  0
  190.4050  178.1890  144.8390 C   0  0  0  0  0  0  0  0  0  0  0  0
  187.6340  176.8710  147.6340 F   0  0  0  0  0  0  0  0  0  0  0  0
  188.0800  178.1050  145.6410 C   0  0  1  0  0  3  0  0  0  0  0  0
  192.3480  175.5290  146.6910 C   0  0  0  0  0  3  0  0  0  0  0  0
  188.8380  178.7620  147.7980 F   0  0  0  0  0  0  0  0  0  0  0  0
  188.6000  177.6460  147.0140 C   0  0  0  0  0  0  0  0  0  0  0  0
  191.2240  178.5860  143.9670 O   0  0  0  0  0  0  0  0  0  0  0  0
  191.4760  175.2530  147.7480 C   0  0  0  0  0  3  0  0  0  0  0  0
  190.2570  175.9260  147.8450 C   0  0  0  0  0  3  0  0  0  0  0  0
  190.7820  177.1620  145.8220 C   0  0  0  0  0  0  0  0  0  0  0  0
  189.8900  176.8690  146.8730 C   0  0  0  0  0  0  0  0  0  0  0  0
  192.0040  176.4850  145.7320 C   0  0  0  0  0  3  0  0  0  0  0  0
  189.1190  178.7340  144.8880 O   0  0  0  0  0  0  0  0  0  0  0  0
  185.8710  178.7610  144.6780 C   0  0  0  0  0  2  0  0  0  0  0  0
  184.5960  178.3760  146.7690 C   0  0  0  0  0  1  0  0  0  0  0  0
  184.4780  178.6580  145.2860 C   0  0  1  0  0  3  0  0  0  0  0  0
  183.7700  179.8440  145.0910 O   0  0  0  0  0  1  0  0  0  0  0  0
  187.9650  177.9470  137.9770 C   0  0  0  0  0  2  0  0  0  0  0  0
  186.6830  177.9100  137.1580 C   0  0  0  0  0  2  0  0  0  0  0  0
  185.4850  178.3140  138.0020 C   0  0  0  0  0  2  0  0  0  0  0  0
  184.5700  177.1210  138.2160 C   0  0  0  0  0  2  0  0  0  0  0  0
  183.1010  177.5300  138.1060 C   0  0  1  0  0  3  0  0  0  0  0  0
  181.7800  179.6830  138.0400 C   0  0  0  0  0  2  0  0  0  0  0  0
  181.2270  179.6080  140.3620 C   0  0  1  0  0  3  0  0  0  0  0  0
  182.7980  178.8610  138.8080 C   0  0  1  0  0  3  0  0  0  0  0  0
  182.3150  178.6560  140.1720 N   0  0  0  0  0  2  0  0  0  0  0  0
  180.6490  179.9320  139.0030 C   0  0  0  0  0  2  0  0  0  0  0  0
  180.1520  179.0680  141.3090 C   0  0  0  0  0  3  0  0  0  0  0  0
  180.0230  177.5550  141.2420 C   0  0  0  0  0  1  0  0  0  0  0  0
  180.4380  179.4960  142.7340 C   0  0  0  0  0  1  0  0  0  0  0  0
  182.6960  177.6390  136.6410 C   0  0  0  0  0  2  0  0  0  0  0  0
  181.4020  173.5870  136.8660 C   0  0  0  0  0  2  0  0  0  0  0  0
  180.3420  174.6510  137.1150 C   0  0  0  0  0  2  0  0  0  0  0  0
  183.6140  175.6470  134.8140 O   0  0  0  0  0  0  0  0  0  0  0  0
  181.8320  176.4600  136.2060 C   0  0  2  0  0  3  0  0  0  0  0  0
  181.0440  175.9650  137.4180 C   0  0  0  0  0  2  0  0  0  0  0  0
  182.6530  175.3540  135.5780 C   0  0  0  0  0  0  0  0  0  0  0  0
  182.2700  173.9780  135.7570 N   0  0  0  0  0  0  0  0  0  0  0  0
  182.9170  172.9250  134.9790 C   0  0  0  0  0  2  0  0  0  0  0  0
  184.3450  170.9070  134.9730 C   0  0  0  0  0  1  0  0  0  0  0  0
  182.9960  171.3950  136.9720 C   0  0  0  0  0  1  0  0  0  0  0  0
  184.9600  172.7970  136.4230 C   0  0  0  0  0  1  0  0  0  0  0  0
  183.7940  172.0180  135.8430 C   0  0  0  0  0  0  0  0  0  0  0  0
  1  5  1  1  0  0  0
  1 30  1  0  0  0  0
  2  1  1  0  0  0  0
  3  4  1  0  0  0  0
  3  2  1  0  0  0  0
  4  2  1  0  0  0  0
  5  6  1  0  0  0  0
  6  7  1  0  0  0  0
  7  8  1  0  0  0  0
  8  9  1  0  0  0  0
  9 10  1  0  0  0  0
 11 10  1  6  0  0  0
 11 26  1  0  0  0  0
 11 12  1  0  0  0  0
 13 25  1  0  0  0  0
 13 22  1  0  0  0  0
 15 12  1  6  0  0  0
 15 18  1  0  0  0  0
 16 20  1  0  0  0  0
 18 14  1  0  0  0  0
 18 17  1  0  0  0  0
 19 13  2  0  0  0  0
 20 21  2  0  0  0  0
 22 23  2  0  0  0  0
 23 18  1  0  0  0  0
 23 21  1  0  0  0  0
 24 22  1  0  0  0  0
 24 16  2  0  0  0  0
 25 15  1  0  0  0  0
 26 28  1  0  0  0  0
 28 27  1  1  0  0  0
 29 28  1  0  0  0  0
 31 30  1  0  0  0  0
 31 32  1  0  0  0  0
 32 33  1  0  0  0  0
 34 43  1  6  0  0  0
 34 33  1  0  0  0  0
 35 37  1  0  0  0  0
 35 39  1  0  0  0  0
 36 40  1  1  0  0  0
 37 34  1  6  0  0  0
 37 38  1  0  0  0  0
 38 36  1  0  0  0  0
 39 36  1  0  0  0  0
 40 42  1  0  0  0  0
 41 40  1  0  0  0  0
 44 45  1  0  0  0  0
 45 48  1  0  0  0  0
 46 49  2  0  0  0  0
 47 43  1  1  0  0  0
 47 48  1  0  0  0  0
 49 50  1  0  0  0  0
 49 47  1  0  0  0  0
 50 44  1  0  0  0  0
 51 50  1  0  0  0  0
 51 55  1  0  0  0  0
 52 55  1  0  0  0  0
 55 54  1  0  0  0  0
 55 53  1  0  0  0  0
M  END
>  <MODEL>
7

>  <REMARK>
 VINA RESULT:      -5.3      4.242      7.949
  Name = 
  23 active torsions:
  status: ('A' for Active; 'I' for Inactive)
    1  A    between atoms: C_2  and  C_28
    2  A    between atoms: C_2  and  C_44
    3  A    between atoms: C_6  and  N_46
    4  A    between atoms: C_8  and  C_20
    5  A    between atoms: C_8  and  C_22
    6  A    between atoms: C_10  and  C_32
    7  A    between atoms: C_17  and  C_36
    8  A    between atoms: C_19  and  C_40
    9  A    between atoms: C_19  and  N_45
   10  A    between atoms: C_22  and  C_35
   11  A    between atoms: C_22  and  N_46
   12  A    between atoms: C_24  and  C_44
   13  A    between atoms: C_27  and  C_31
   14  A    between atoms: C_27  and  C_54
   15  A    between atoms: C_28  and  C_49
   16  A    between atoms: C_31  and  C_44
   17  A    between atoms: C_33  and  C_49
   18  A    between atoms: C_33  and  C_52
   19  A    between atoms: C_34  and  C_52
   20  A    between atoms: C_35  and  C_43
   21  A    between atoms: C_36  and  C_52
   22  A    between atoms: C_43  and  C_51
   23  A    between atoms: C_51  and  C_54
                            x       y       z     vdW  Elec       q    Type
                         _______ _______ _______ _____ _____    ______ ____

>  <TORSDO>
F 23

$$$$
=
 OpenBabel10272401293D

 55 59  0  0  1  0  0  0  0  0999 V2000
  185.5530  178.5750  144.3680 C   0  0  2  0  0  3  0  0  0  0  0  0
  185.5350  178.0510  145.7970 C   0  0  0  0  0  3  0  0  0  0  0  0
  186.9300  178.1350  146.3880 C   0  0  0  0  0  2  0  0  0  0  0  0
  185.8860  179.1700  146.7560 C   0  0  0  0  0  2  0  0  0  0  0  0
  184.2700  179.3450  144.0510 C   0  0  0  0  0  2  0  0  0  0  0  0
  183.0540  178.7440  144.7450 C   0  0  0  0  0  2  0  0  0  0  0  0
  181.7730  179.2230  144.0860 C   0  0  0  0  0  2  0  0  0  0  0  0
  181.7160  178.7440  142.6470 C   0  0  0  0  0  2  0  0  0  0  0  0
  180.5090  179.3350  141.9470 C   0  0  0  0  0  2  0  0  0  0  0  0
  180.2030  178.5060  140.7170 C   0  0  0  0  0  2  0  0  0  0  0  0
  180.8410  179.1200  139.4820 C   0  0  1  0  0  3  0  0  0  0  0  0
  180.9280  178.1250  138.4210 N   0  0  0  0  0  2  0  0  0  0  0  0
  182.5550  177.1880  135.9570 C   0  0  0  0  0  0  0  0  0  0  0  0
  181.6540  175.8500  139.7810 F   0  0  0  0  0  0  0  0  0  0  0  0
  182.3070  177.6530  138.3610 C   0  0  1  0  0  3  0  0  0  0  0  0
  180.9380  173.8430  135.2670 C   0  0  0  0  0  3  0  0  0  0  0  0
  183.6890  175.7760  138.8300 F   0  0  0  0  0  0  0  0  0  0  0  0
  182.3690  176.1400  138.6300 C   0  0  0  0  0  0  0  0  0  0  0  0
  182.8150  177.6230  134.8020 O   0  0  0  0  0  0  0  0  0  0  0  0
  180.8360  173.3270  136.5620 C   0  0  0  0  0  3  0  0  0  0  0  0
  181.2850  174.0750  137.6520 C   0  0  0  0  0  3  0  0  0  0  0  0
  181.9440  175.8650  136.1480 C   0  0  0  0  0  0  0  0  0  0  0  0
  181.8220  175.3570  137.4580 C   0  0  0  0  0  0  0  0  0  0  0  0
  181.4940  175.1080  135.0590 C   0  0  0  0  0  3  0  0  0  0  0  0
  182.8580  177.9640  137.0790 O   0  0  0  0  0  0  0  0  0  0  0  0
  180.0630  180.3590  139.0170 C   0  0  0  0  0  2  0  0  0  0  0  0
  182.1910  181.5110  138.4750 C   0  0  0  0  0  1  0  0  0  0  0  0
  180.7990  181.1870  137.9720 C   0  0  1  0  0  3  0  0  0  0  0  0
  180.8890  180.4880  136.7680 O   0  0  0  0  0  1  0  0  0  0  0  0
  185.8000  177.4370  143.3810 C   0  0  0  0  0  2  0  0  0  0  0  0
  187.1420  177.6140  142.6860 C   0  0  0  0  0  2  0  0  0  0  0  0
  187.0600  178.6800  141.6050 C   0  0  0  0  0  2  0  0  0  0  0  0
  188.4280  178.8990  140.9840 C   0  0  0  0  0  2  0  0  0  0  0  0
  189.0160  177.5820  140.4740 C   0  0  1  0  0  3  0  0  0  0  0  0
  189.6650  176.2180  138.4490 C   0  0  0  0  0  2  0  0  0  0  0  0
  188.0180  177.2200  137.0390 C   0  0  1  0  0  3  0  0  0  0  0  0
  189.2840  177.5940  138.9630 C   0  0  1  0  0  3  0  0  0  0  0  0
  188.1300  178.0820  138.2110 N   0  0  0  0  0  2  0  0  0  0  0  0
  188.6600  175.8940  137.3740 C   0  0  0  0  0  2  0  0  0  0  0  0
  186.5630  177.0380  136.5990 C   0  0  0  0  0  3  0  0  0  0  0  0
  186.2890  177.6360  135.2280 C   0  0  0  0  0  1  0  0  0  0  0  0
  186.1890  175.5690  136.6020 C   0  0  0  0  0  1  0  0  0  0  0  0
  190.3150  177.2700  141.2050 C   0  0  0  0  0  2  0  0  0  0  0  0
  191.9710  178.1950  145.0190 C   0  0  0  0  0  2  0  0  0  0  0  0
  190.9930  179.2090  144.4410 C   0  0  0  0  0  2  0  0  0  0  0  0
  190.6920  175.2830  143.2200 O   0  0  0  0  0  0  0  0  0  0  0  0
  190.2120  177.5790  142.6950 C   0  0  2  0  0  3  0  0  0  0  0  0
  190.8520  178.9430  142.9510 C   0  0  0  0  0  2  0  0  0  0  0  0
  190.8380  176.4940  143.5460 C   0  0  0  0  0  0  0  0  0  0  0  0
  191.4980  176.8330  144.7790 N   0  0  0  0  0  0  0  0  0  0  0  0
  191.9050  175.7840  145.7110 C   0  0  0  0  0  2  0  0  0  0  0  0
  191.0190  174.6310  147.7100 C   0  0  0  0  0  1  0  0  0  0  0  0
  190.0330  176.7890  147.0550 C   0  0  0  0  0  1  0  0  0  0  0  0
  192.3150  176.7000  148.0060 C   0  0  0  0  0  1  0  0  0  0  0  0
  191.3200  175.9890  147.1090 C   0  0  0  0  0  0  0  0  0  0  0  0
  1 30  1  6  0  0  0
  1  2  1  0  0  0  0
  2  3  1  0  0  0  0
  2  4  1  0  0  0  0
  3  4  1  0  0  0  0
  5  1  1  0  0  0  0
  5  6  1  0  0  0  0
  7  6  1  0  0  0  0
  8  7  1  0  0  0  0
  9  8  1  0  0  0  0
 10  9  1  0  0  0  0
 11 26  1  6  0  0  0
 11 10  1  0  0  0  0
 12 11  1  0  0  0  0
 13 22  1  0  0  0  0
 13 25  1  0  0  0  0
 15 12  1  6  0  0  0
 15 18  1  0  0  0  0
 16 20  1  0  0  0  0
 18 17  1  0  0  0  0
 18 14  1  0  0  0  0
 19 13  2  0  0  0  0
 20 21  2  0  0  0  0
 22 23  2  0  0  0  0
 23 21  1  0  0  0  0
 23 18  1  0  0  0  0
 24 16  2  0  0  0  0
 24 22  1  0  0  0  0
 25 15  1  0  0  0  0
 28 27  1  1  0  0  0
 28 26  1  0  0  0  0
 29 28  1  0  0  0  0
 31 30  1  0  0  0  0
 32 31  1  0  0  0  0
 33 32  1  0  0  0  0
 34 33  1  1  0  0  0
 34 43  1  0  0  0  0
 35 37  1  0  0  0  0
 36 40  1  1  0  0  0
 36 39  1  0  0  0  0
 36 38  1  0  0  0  0
 37 34  1  1  0  0  0
 38 37  1  0  0  0  0
 39 35  1  0  0  0  0
 40 42  1  0  0  0  0
 41 40  1  0  0  0  0
 45 44  1  0  0  0  0
 46 49  2  0  0  0  0
 47 43  1  6  0  0  0
 47 48  1  0  0  0  0
 47 49  1  0  0  0  0
 48 45  1  0  0  0  0
 49 50  1  0  0  0  0
 50 44  1  0  0  0  0
 50 51  1  0  0  0  0
 51 55  1  0  0  0  0
 53 55  1  0  0  0  0
 55 52  1  0  0  0  0
 55 54  1  0  0  0  0
M  END
>  <MODEL>
8

>  <REMARK>
 VINA RESULT:      -5.3      4.204     10.602
  Name = 
  23 active torsions:
  status: ('A' for Active; 'I' for Inactive)
    1  A    between atoms: C_2  and  C_28
    2  A    between atoms: C_2  and  C_44
    3  A    between atoms: C_6  and  N_46
    4  A    between atoms: C_8  and  C_20
    5  A    between atoms: C_8  and  C_22
    6  A    between atoms: C_10  and  C_32
    7  A    between atoms: C_17  and  C_36
    8  A    between atoms: C_19  and  C_40
    9  A    between atoms: C_19  and  N_45
   10  A    between atoms: C_22  and  C_35
   11  A    between atoms: C_22  and  N_46
   12  A    between atoms: C_24  and  C_44
   13  A    between atoms: C_27  and  C_31
   14  A    between atoms: C_27  and  C_54
   15  A    between atoms: C_28  and  C_49
   16  A    between atoms: C_31  and  C_44
   17  A    between atoms: C_33  and  C_49
   18  A    between atoms: C_33  and  C_52
   19  A    between atoms: C_34  and  C_52
   20  A    between atoms: C_35  and  C_43
   21  A    between atoms: C_36  and  C_52
   22  A    between atoms: C_43  and  C_51
   23  A    between atoms: C_51  and  C_54
                            x       y       z     vdW  Elec       q    Type
                         _______ _______ _______ _____ _____    ______ ____

>  <TORSDO>
F 23

$$$$
=
 OpenBabel10272401293D

 55 59  0  0  1  0  0  0  0  0999 V2000
  185.2060  178.8500  144.8020 C   0  0  2  0  0  3  0  0  0  0  0  0
  185.1730  178.4600  146.2740 C   0  0  0  0  0  3  0  0  0  0  0  0
  186.5670  178.0740  146.7290 C   0  0  0  0  0  2  0  0  0  0  0  0
  186.0040  179.4360  147.0800 C   0  0  0  0  0  2  0  0  0  0  0  0
  183.9000  179.5280  144.3860 C   0  0  0  0  0  2  0  0  0  0  0  0
  182.8760  178.5290  143.8600 C   0  0  0  0  0  2  0  0  0  0  0  0
  182.3110  178.9970  142.5300 C   0  0  0  0  0  2  0  0  0  0  0  0
  183.0320  178.3090  141.3850 C   0  0  0  0  0  2  0  0  0  0  0  0
  182.0820  178.0940  140.2250 C   0  0  0  0  0  2  0  0  0  0  0  0
  181.9930  179.3750  139.4220 C   0  0  0  0  0  2  0  0  0  0  0  0
  181.9670  179.0760  137.9330 C   0  0  1  0  0  3  0  0  0  0  0  0
  182.5130  177.7470  137.6830 N   0  0  0  0  0  2  0  0  0  0  0  0
  181.4670  174.8440  137.4110 C   0  0  0  0  0  0  0  0  0  0  0  0
  183.6140  177.5990  135.1700 F   0  0  0  0  0  0  0  0  0  0  0  0
  181.7530  177.1470  136.5920 C   0  0  1  0  0  3  0  0  0  0  0  0
  184.6900  172.9870  136.7450 C   0  0  0  0  0  3  0  0  0  0  0  0
  181.9600  176.2970  134.3810 F   0  0  0  0  0  0  0  0  0  0  0  0
  182.7020  176.6130  135.5060 C   0  0  0  0  0  0  0  0  0  0  0  0
  180.8090  174.0300  138.1140 O   0  0  0  0  0  0  0  0  0  0  0  0
  185.3020  173.8420  135.8240 C   0  0  0  0  0  3  0  0  0  0  0  0
  184.6660  175.0220  135.4340 C   0  0  0  0  0  3  0  0  0  0  0  0
  182.7950  174.4920  136.8890 C   0  0  0  0  0  0  0  0  0  0  0  0
  183.4200  175.3680  135.9780 C   0  0  0  0  0  0  0  0  0  0  0  0
  183.4370  173.3090  137.2730 C   0  0  0  0  0  3  0  0  0  0  0  0
  180.9310  176.0990  137.1100 O   0  0  0  0  0  0  0  0  0  0  0  0
  180.5460  179.2050  137.3680 C   0  0  0  0  0  2  0  0  0  0  0  0
  180.9970  181.6330  137.5850 C   0  0  0  0  0  1  0  0  0  0  0  0
  180.2360  180.5840  136.8010 C   0  0  1  0  0  3  0  0  0  0  0  0
  180.5980  180.6530  135.4560 O   0  0  0  0  0  1  0  0  0  0  0  0
  185.5270  177.6380  143.9320 C   0  0  0  0  0  2  0  0  0  0  0  0
  186.8720  177.8160  143.2430 C   0  0  0  0  0  2  0  0  0  0  0  0
  186.8030  178.9050  142.1850 C   0  0  0  0  0  2  0  0  0  0  0  0
  187.1640  178.3340  140.8250 C   0  0  0  0  0  2  0  0  0  0  0  0
  188.6280  177.8920  140.7870 C   0  0  1  0  0  3  0  0  0  0  0  0
  189.2810  176.5360  138.7580 C   0  0  0  0  0  2  0  0  0  0  0  0
  188.3800  178.1140  137.2080 C   0  0  1  0  0  3  0  0  0  0  0  0
  189.2250  177.9220  139.3740 C   0  0  1  0  0  3  0  0  0  0  0  0
  188.4750  178.8090  138.4870 N   0  0  0  0  0  2  0  0  0  0  0  0
  188.4990  176.6320  137.4740 C   0  0  0  0  0  2  0  0  0  0  0  0
  187.0790  178.4450  136.4720 C   0  0  0  0  0  3  0  0  0  0  0  0
  187.0470  177.8790  135.0610 C   0  0  0  0  0  1  0  0  0  0  0  0
  185.8850  177.9360  137.2550 C   0  0  0  0  0  1  0  0  0  0  0  0
  189.4660  178.7790  141.6980 C   0  0  0  0  0  2  0  0  0  0  0  0
  191.0680  175.9150  144.4150 C   0  0  0  0  0  2  0  0  0  0  0  0
  191.3430  175.6740  142.9370 C   0  0  0  0  0  2  0  0  0  0  0  0
  190.6310  179.5360  144.1930 O   0  0  0  0  0  0  0  0  0  0  0  0
  190.6130  178.0040  142.3400 C   0  0  2  0  0  3  0  0  0  0  0  0
  190.3670  176.5110  142.1260 C   0  0  0  0  0  2  0  0  0  0  0  0
  190.7770  178.3420  143.8070 C   0  0  0  0  0  0  0  0  0  0  0  0
  191.2090  177.3330  144.7380 N   0  0  0  0  0  0  0  0  0  0  0  0
  191.5840  177.6990  146.1010 C   0  0  0  0  0  2  0  0  0  0  0  0
  190.4640  177.8760  148.2980 C   0  0  0  0  0  1  0  0  0  0  0  0
  191.5580  175.7550  147.6950 C   0  0  0  0  0  1  0  0  0  0  0  0
  189.4660  176.4430  146.5650 C   0  0  0  0  0  1  0  0  0  0  0  0
  190.7760  176.9350  147.1520 C   0  0  0  0  0  0  0  0  0  0  0  0
  1 30  1  6  0  0  0
  1  2  1  0  0  0  0
  2  3  1  0  0  0  0
  2  4  1  0  0  0  0
  3  4  1  0  0  0  0
  5  1  1  0  0  0  0
  6  5  1  0  0  0  0
  7  6  1  0  0  0  0
  8  7  1  0  0  0  0
  9  8  1  0  0  0  0
 10  9  1  0  0  0  0
 11 26  1  1  0  0  0
 11 10  1  0  0  0  0
 12 11  1  0  0  0  0
 13 19  2  0  0  0  0
 14 18  1  0  0  0  0
 15 25  1  0  0  0  0
 15 12  1  1  0  0  0
 16 24  1  0  0  0  0
 17 18  1  0  0  0  0
 18 23  1  0  0  0  0
 18 15  1  0  0  0  0
 20 16  2  0  0  0  0
 21 20  1  0  0  0  0
 21 23  2  0  0  0  0
 22 24  2  0  0  0  0
 22 13  1  0  0  0  0
 23 22  1  0  0  0  0
 25 13  1  0  0  0  0
 28 26  1  0  0  0  0
 28 27  1  1  0  0  0
 29 28  1  0  0  0  0
 31 30  1  0  0  0  0
 32 31  1  0  0  0  0
 33 32  1  0  0  0  0
 34 33  1  6  0  0  0
 34 43  1  0  0  0  0
 35 37  1  0  0  0  0
 36 40  1  1  0  0  0
 36 39  1  0  0  0  0
 36 38  1  0  0  0  0
 37 34  1  1  0  0  0
 38 37  1  0  0  0  0
 39 35  1  0  0  0  0
 40 42  1  0  0  0  0
 41 40  1  0  0  0  0
 44 50  1  0  0  0  0
 45 44  1  0  0  0  0
 47 43  1  1  0  0  0
 47 49  1  0  0  0  0
 48 47  1  0  0  0  0
 48 45  1  0  0  0  0
 49 46  2  0  0  0  0
 49 50  1  0  0  0  0
 50 51  1  0  0  0  0
 51 55  1  0  0  0  0
 54 55  1  0  0  0  0
 55 53  1  0  0  0  0
 55 52  1  0  0  0  0
M  END
>  <MODEL>
9

>  <REMARK>
 VINA RESULT:      -5.2      4.530     10.154
  Name = 
  23 active torsions:
  status: ('A' for Active; 'I' for Inactive)
    1  A    between atoms: C_2  and  C_28
    2  A    between atoms: C_2  and  C_44
    3  A    between atoms: C_6  and  N_46
    4  A    between atoms: C_8  and  C_20
    5  A    between atoms: C_8  and  C_22
    6  A    between atoms: C_10  and  C_32
    7  A    between atoms: C_17  and  C_36
    8  A    between atoms: C_19  and  C_40
    9  A    between atoms: C_19  and  N_45
   10  A    between atoms: C_22  and  C_35
   11  A    between atoms: C_22  and  N_46
   12  A    between atoms: C_24  and  C_44
   13  A    between atoms: C_27  and  C_31
   14  A    between atoms: C_27  and  C_54
   15  A    between atoms: C_28  and  C_49
   16  A    between atoms: C_31  and  C_44
   17  A    between atoms: C_33  and  C_49
   18  A    between atoms: C_33  and  C_52
   19  A    between atoms: C_34  and  C_52
   20  A    between atoms: C_35  and  C_43
   21  A    between atoms: C_36  and  C_52
   22  A    between atoms: C_43  and  C_51
   23  A    between atoms: C_51  and  C_54
                            x       y       z     vdW  Elec       q    Type
                         _______ _______ _______ _____ _____    ______ ____

>  <TORSDO>
F 23

$$$$
