=
 OpenBabel10272400463D

 25 28  0  0  1  0  0  0  0  0999 V2000
  188.2970  177.4410  145.3410 C   0  0  0  0  0  0  0  0  0  0  0  0
  186.9800  177.9630  145.6820 C   0  0  0  0  0  0  0  0  0  0  0  0
  187.6170  178.2240  148.0720 C   0  0  0  0  0  2  0  0  0  0  0  0
  185.8660  178.1890  144.9070 C   0  0  0  0  0  0  0  0  0  0  0  0
  183.3460  178.8690  144.0000 C   0  0  0  0  0  3  0  0  0  0  0  0
  188.9280  177.6790  147.6650 N   0  0  0  0  0  0  0  0  0  0  0  0
  184.9310  178.6840  145.7830 C   0  0  0  0  0  0  0  0  0  0  0  0
  183.6520  179.0380  145.3640 C   0  0  0  0  0  3  0  0  0  0  0  0
  190.5670  176.8050  146.1630 N   0  0  0  0  0  0  0  0  0  0  0  0
  191.5700  176.6540  147.2050 C   0  0  0  0  0  1  0  0  0  0  0  0
  188.6470  177.0740  144.1060 C   0  0  0  0  0  3  0  0  0  0  0  0
  184.3120  178.3590  143.1010 C   0  0  0  0  0  3  0  0  0  0  0  0
  186.6860  178.3150  146.9460 N   0  0  0  0  0  0  0  0  0  0  0  0
  185.4370  178.7610  147.0310 N   0  0  0  0  0  0  0  0  0  0  0  0
  190.8970  176.4210  144.8200 C   0  0  0  0  0  3  0  0  0  0  0  0
  185.5990  178.0080  143.5520 C   0  0  0  0  0  3  0  0  0  0  0  0
  190.0010  176.5480  143.8310 C   0  0  0  0  0  0  0  0  0  0  0  0
  189.2580  177.3230  146.4510 C   0  0  0  0  0  0  0  0  0  0  0  0
  190.3620  176.1260  142.4470 C   0  0  0  0  0  2  0  0  0  0  0  0
  190.4120  177.3220  141.5090 C   0  0  1  0  0  3  0  0  0  0  0  0
  191.7960  177.6780  141.2410 N   0  0  0  0  0  1  0  0  0  0  0  0
  189.7090  176.9640  140.2090 C   0  0  0  0  0  2  0  0  0  0  0  0
  188.2130  178.7280  141.1430 C   0  0  0  0  0  1  0  0  0  0  0  0
  189.0430  178.8760  138.8760 N   0  0  0  0  0  1  0  0  0  0  0  0
  188.5930  177.9490  139.8980 C   0  0  1  0  0  3  0  0  0  0  0  0
  1  2  1  0  0  0  0
  1 18  1  0  0  0  0
  2 13  1  0  0  0  0
  4  2  2  0  0  0  0
  4  7  1  0  0  0  0
  5  8  2  0  0  0  0
  6  3  1  0  0  0  0
  7 14  2  0  0  0  0
  8  7  1  0  0  0  0
  9 18  1  0  0  0  0
  9 10  1  0  0  0  0
 11  1  2  0  0  0  0
 12 16  2  0  0  0  0
 12  5  1  0  0  0  0
 13 14  1  0  0  0  0
 13  3  1  0  0  0  0
 15  9  1  0  0  0  0
 16  4  1  0  0  0  0
 17 11  1  0  0  0  0
 17 15  2  0  0  0  0
 18  6  2  0  0  0  0
 19 17  1  0  0  0  0
 20 21  1  6  0  0  0
 20 19  1  0  0  0  0
 22 20  1  0  0  0  0
 24 25  1  0  0  0  0
 25 22  1  0  0  0  0
 25 23  1  1  0  0  0
M  END
>  <MODEL>
1

>  <REMARK>
 VINA RESULT:     -10.1      0.000      0.000
  Name = 
  4 active torsions:
  status: ('A' for Active; 'I' for Inactive)
    1  A    between atoms: C_6  and  C_15
    2  A    between atoms: C_6  and  C_23
    3  A    between atoms: C_12  and  C_21
    4  A    between atoms: C_15  and  C_21
                            x       y       z     vdW  Elec       q    Type
                         _______ _______ _______ _____ _____    ______ ____

>  <TORSDO>
F 4

$$$$
=
 OpenBabel10272400463D

 25 28  0  0  1  0  0  0  0  0999 V2000
  187.0310  177.7270  144.7430 C   0  0  0  0  0  0  0  0  0  0  0  0
  185.6590  178.2140  144.7280 C   0  0  0  0  0  0  0  0  0  0  0  0
  185.7190  178.6830  147.1700 C   0  0  0  0  0  2  0  0  0  0  0  0
  184.7490  178.3300  143.7030 C   0  0  0  0  0  0  0  0  0  0  0  0
  182.4900  178.8250  142.1900 C   0  0  0  0  0  3  0  0  0  0  0  0
  187.1010  178.1690  147.1210 N   0  0  0  0  0  0  0  0  0  0  0  0
  183.6240  178.8480  144.2970 C   0  0  0  0  0  0  0  0  0  0  0  0
  182.4670  179.1110  143.5690 C   0  0  0  0  0  3  0  0  0  0  0  0
  189.0660  177.2570  146.1120 N   0  0  0  0  0  0  0  0  0  0  0  0
  189.8040  177.2310  147.3640 C   0  0  0  0  0  1  0  0  0  0  0  0
  187.6680  177.2840  143.6550 C   0  0  0  0  0  3  0  0  0  0  0  0
  183.6500  178.2930  141.5820 C   0  0  0  0  0  3  0  0  0  0  0  0
  185.0710  178.6470  145.8580 N   0  0  0  0  0  0  0  0  0  0  0  0
  183.8250  179.0420  145.6170 N   0  0  0  0  0  0  0  0  0  0  0  0
  189.7080  176.7880  144.9160 C   0  0  0  0  0  3  0  0  0  0  0  0
  184.8060  178.0350  142.3430 C   0  0  0  0  0  3  0  0  0  0  0  0
  189.0620  176.7990  143.7420 C   0  0  0  0  0  0  0  0  0  0  0  0
  187.7120  177.7370  146.0480 C   0  0  0  0  0  0  0  0  0  0  0  0
  189.7440  176.2900  142.5180 C   0  0  0  0  0  2  0  0  0  0  0  0
  190.0410  177.4240  141.5490 C   0  0  1  0  0  3  0  0  0  0  0  0
  191.4700  177.4830  141.2850 N   0  0  0  0  0  1  0  0  0  0  0  0
  189.2850  177.1810  140.2520 C   0  0  0  0  0  2  0  0  0  0  0  0
  189.1480  178.6260  138.2240 C   0  0  0  0  0  1  0  0  0  0  0  0
  187.2950  178.4790  139.7710 N   0  0  0  0  0  1  0  0  0  0  0  0
  188.7440  178.4810  139.6790 C   0  0  1  0  0  3  0  0  0  0  0  0
  1 18  1  0  0  0  0
  2  1  1  0  0  0  0
  2 13  1  0  0  0  0
  4  7  1  0  0  0  0
  4  2  2  0  0  0  0
  5  8  2  0  0  0  0
  6  3  1  0  0  0  0
  7 14  2  0  0  0  0
  8  7  1  0  0  0  0
  9 10  1  0  0  0  0
 11 17  1  0  0  0  0
 11  1  2  0  0  0  0
 12  5  1  0  0  0  0
 12 16  2  0  0  0  0
 13  3  1  0  0  0  0
 14 13  1  0  0  0  0
 15  9  1  0  0  0  0
 16  4  1  0  0  0  0
 17 15  2  0  0  0  0
 18  9  1  0  0  0  0
 18  6  2  0  0  0  0
 19 17  1  0  0  0  0
 20 21  1  6  0  0  0
 20 19  1  0  0  0  0
 22 20  1  0  0  0  0
 25 23  1  6  0  0  0
 25 24  1  0  0  0  0
 25 22  1  0  0  0  0
M  END
>  <MODEL>
2

>  <REMARK>
 VINA RESULT:      -9.6      1.192      1.662
  Name = 
  4 active torsions:
  status: ('A' for Active; 'I' for Inactive)
    1  A    between atoms: C_6  and  C_15
    2  A    between atoms: C_6  and  C_23
    3  A    between atoms: C_12  and  C_21
    4  A    between atoms: C_15  and  C_21
                            x       y       z     vdW  Elec       q    Type
                         _______ _______ _______ _____ _____    ______ ____

>  <TORSDO>
F 4

$$$$
=
 OpenBabel10272400463D

 25 28  0  0  1  0  0  0  0  0999 V2000
  187.9730  178.0380  142.2230 C   0  0  0  0  0  0  0  0  0  0  0  0
  186.6880  178.2890  142.8600 C   0  0  0  0  0  0  0  0  0  0  0  0
  185.6130  178.7840  140.6720 C   0  0  0  0  0  2  0  0  0  0  0  0
  186.3070  178.2460  144.1820 C   0  0  0  0  0  0  0  0  0  0  0  0
  184.8850  178.3550  146.5480 C   0  0  0  0  0  3  0  0  0  0  0  0
  186.9440  178.5270  140.0880 N   0  0  0  0  0  0  0  0  0  0  0  0
  184.9750  178.5800  144.1680 C   0  0  0  0  0  0  0  0  0  0  0  0
  184.2250  178.6450  145.3380 C   0  0  0  0  0  3  0  0  0  0  0  0
  189.2650  177.9620  140.0870 N   0  0  0  0  0  0  0  0  0  0  0  0
  189.3890  178.0970  138.6450 C   0  0  0  0  0  1  0  0  0  0  0  0
  189.0750  177.6940  142.8950 C   0  0  0  0  0  3  0  0  0  0  0  0
  186.2580  178.0120  146.5580 C   0  0  0  0  0  3  0  0  0  0  0  0
  185.6130  178.6340  142.1280 N   0  0  0  0  0  0  0  0  0  0  0  0
  184.5530  178.8160  142.9090 N   0  0  0  0  0  0  0  0  0  0  0  0
  190.4230  177.5960  140.8530 C   0  0  0  0  0  3  0  0  0  0  0  0
  186.9920  177.9540  145.3580 C   0  0  0  0  0  3  0  0  0  0  0  0
  190.3490  177.4580  142.1840 C   0  0  0  0  0  0  0  0  0  0  0  0
  188.0150  178.1910  140.7580 C   0  0  0  0  0  0  0  0  0  0  0  0
  191.5700  177.0930  142.9590 C   0  0  0  0  0  2  0  0  0  0  0  0
  191.2120  176.2600  144.1800 C   0  0  1  0  0  3  0  0  0  0  0  0
  191.9800  175.0250  144.1730 N   0  0  0  0  0  1  0  0  0  0  0  0
  191.5240  177.0580  145.4360 C   0  0  0  0  0  2  0  0  0  0  0  0
  192.1610  175.9980  147.6020 C   0  0  0  0  0  1  0  0  0  0  0  0
  190.0880  177.2250  147.3810 N   0  0  0  0  0  1  0  0  0  0  0  0
  191.0100  176.3500  146.6790 C   0  0  1  0  0  3  0  0  0  0  0  0
  1  2  1  0  0  0  0
  1 11  2  0  0  0  0
  2  4  2  0  0  0  0
  3 13  1  0  0  0  0
  4 16  1  0  0  0  0
  5 12  1  0  0  0  0
  6  3  1  0  0  0  0
  6 18  2  0  0  0  0
  7  4  1  0  0  0  0
  7  8  1  0  0  0  0
  8  5  2  0  0  0  0
  9 18  1  0  0  0  0
  9 15  1  0  0  0  0
 10  9  1  0  0  0  0
 13  2  1  0  0  0  0
 13 14  1  0  0  0  0
 14  7  2  0  0  0  0
 15 17  2  0  0  0  0
 16 12  2  0  0  0  0
 17 11  1  0  0  0  0
 17 19  1  0  0  0  0
 18  1  1  0  0  0  0
 19 20  1  0  0  0  0
 20 21  1  1  0  0  0
 20 22  1  0  0  0  0
 22 25  1  0  0  0  0
 25 24  1  0  0  0  0
 25 23  1  1  0  0  0
M  END
>  <MODEL>
3

>  <REMARK>
 VINA RESULT:      -9.1      1.853      5.086
  Name = 
  4 active torsions:
  status: ('A' for Active; 'I' for Inactive)
    1  A    between atoms: C_6  and  C_15
    2  A    between atoms: C_6  and  C_23
    3  A    between atoms: C_12  and  C_21
    4  A    between atoms: C_15  and  C_21
                            x       y       z     vdW  Elec       q    Type
                         _______ _______ _______ _____ _____    ______ ____

>  <TORSDO>
F 4

$$$$
=
 OpenBabel10272400463D

 25 28  0  0  1  0  0  0  0  0999 V2000
  186.8590  178.1150  143.4740 C   0  0  0  0  0  0  0  0  0  0  0  0
  187.4900  178.1250  142.1610 C   0  0  0  0  0  0  0  0  0  0  0  0
  185.4310  179.0240  141.0940 C   0  0  0  0  0  2  0  0  0  0  0  0
  188.7530  177.7550  141.7590 C   0  0  0  0  0  0  0  0  0  0  0  0
  191.0270  177.2170  140.2860 C   0  0  0  0  0  3  0  0  0  0  0  0
  184.8450  178.9800  142.4480 N   0  0  0  0  0  0  0  0  0  0  0  0
  188.7640  177.9830  140.4050 C   0  0  0  0  0  0  0  0  0  0  0  0
  189.8900  177.7250  139.6290 C   0  0  0  0  0  3  0  0  0  0  0  0
  184.7970  178.5790  144.8030 N   0  0  0  0  0  0  0  0  0  0  0  0
  183.4180  179.0190  144.9390 C   0  0  0  0  0  1  0  0  0  0  0  0
  187.4770  177.7090  144.5860 C   0  0  0  0  0  3  0  0  0  0  0  0
  191.0110  176.9830  141.6810 C   0  0  0  0  0  3  0  0  0  0  0  0
  186.8140  178.5450  141.0760 N   0  0  0  0  0  0  0  0  0  0  0  0
  187.5760  178.4680  139.9910 N   0  0  0  0  0  0  0  0  0  0  0  0
  185.5020  178.1310  145.9710 C   0  0  0  0  0  3  0  0  0  0  0  0
  189.8580  177.2520  142.4410 C   0  0  0  0  0  3  0  0  0  0  0  0
  186.7750  177.7210  145.8870 C   0  0  0  0  0  0  0  0  0  0  0  0
  185.4630  178.5800  143.5290 C   0  0  0  0  0  0  0  0  0  0  0  0
  187.4810  177.2440  147.1110 C   0  0  0  0  0  2  0  0  0  0  0  0
  188.9330  177.6990  147.1150 C   0  0  1  0  0  3  0  0  0  0  0  0
  189.2050  178.4610  148.3230 N   0  0  0  0  0  1  0  0  0  0  0  0
  189.8360  176.4770  147.0590 C   0  0  0  0  0  2  0  0  0  0  0  0
  192.1680  175.7220  147.5170 C   0  0  0  0  0  1  0  0  0  0  0  0
  191.6910  177.2500  145.7040 N   0  0  0  0  0  1  0  0  0  0  0  0
  191.3030  176.8770  147.0520 C   0  0  1  0  0  3  0  0  0  0  0  0
  1 18  1  0  0  0  0
  1 11  2  0  0  0  0
  2  1  1  0  0  0  0
  3  6  1  0  0  0  0
  4  2  2  0  0  0  0
  4 16  1  0  0  0  0
  5 12  1  0  0  0  0
  6 18  2  0  0  0  0
  7  4  1  0  0  0  0
  8  5  2  0  0  0  0
  8  7  1  0  0  0  0
  9 10  1  0  0  0  0
  9 15  1  0  0  0  0
 11 17  1  0  0  0  0
 12 16  2  0  0  0  0
 13  3  1  0  0  0  0
 13  2  1  0  0  0  0
 14  7  2  0  0  0  0
 14 13  1  0  0  0  0
 17 15  2  0  0  0  0
 17 19  1  0  0  0  0
 18  9  1  0  0  0  0
 19 20  1  0  0  0  0
 20 21  1  1  0  0  0
 22 20  1  0  0  0  0
 24 25  1  0  0  0  0
 25 22  1  0  0  0  0
 25 23  1  6  0  0  0
M  END
>  <MODEL>
4

>  <REMARK>
 VINA RESULT:      -9.1      1.635      6.418
  Name = 
  4 active torsions:
  status: ('A' for Active; 'I' for Inactive)
    1  A    between atoms: C_6  and  C_15
    2  A    between atoms: C_6  and  C_23
    3  A    between atoms: C_12  and  C_21
    4  A    between atoms: C_15  and  C_21
                            x       y       z     vdW  Elec       q    Type
                         _______ _______ _______ _____ _____    ______ ____

>  <TORSDO>
F 4

$$$$
=
 OpenBabel10272400463D

 25 28  0  0  1  0  0  0  0  0999 V2000
  188.0930  177.3970  143.4710 C   0  0  0  0  0  0  0  0  0  0  0  0
  186.9520  177.7700  144.2960 C   0  0  0  0  0  0  0  0  0  0  0  0
  188.2400  177.3830  146.3880 C   0  0  0  0  0  2  0  0  0  0  0  0
  185.6800  178.1700  143.9560 C   0  0  0  0  0  0  0  0  0  0  0  0
  183.0460  179.0030  144.0130 C   0  0  0  0  0  3  0  0  0  0  0  0
  189.3560  177.0060  145.4980 N   0  0  0  0  0  0  0  0  0  0  0  0
  185.0520  178.3800  145.1590 C   0  0  0  0  0  0  0  0  0  0  0  0
  183.7270  178.8000  145.2290 C   0  0  0  0  0  3  0  0  0  0  0  0
  190.4670  176.6220  143.4170 N   0  0  0  0  0  0  0  0  0  0  0  0
  191.7100  176.2190  144.0540 C   0  0  0  0  0  1  0  0  0  0  0  0
  188.0680  177.3930  142.1360 C   0  0  0  0  0  3  0  0  0  0  0  0
  183.6970  178.7860  142.7760 C   0  0  0  0  0  3  0  0  0  0  0  0
  187.0390  177.7540  145.6380 N   0  0  0  0  0  0  0  0  0  0  0  0
  185.8880  178.1250  146.1870 N   0  0  0  0  0  0  0  0  0  0  0  0
  190.3900  176.6310  141.9840 C   0  0  0  0  0  3  0  0  0  0  0  0
  185.0380  178.3600  142.7350 C   0  0  0  0  0  3  0  0  0  0  0  0
  189.2630  176.9990  141.3600 C   0  0  0  0  0  0  0  0  0  0  0  0
  189.3170  177.0060  144.1910 C   0  0  0  0  0  0  0  0  0  0  0  0
  189.2030  176.9830  139.8690 C   0  0  0  0  0  2  0  0  0  0  0  0
  188.2370  178.0380  139.3520 C   0  0  1  0  0  3  0  0  0  0  0  0
  188.9830  179.1640  138.8130 N   0  0  0  0  0  1  0  0  0  0  0  0
  187.3680  177.4250  138.2650 C   0  0  0  0  0  2  0  0  0  0  0  0
  185.0540  177.4460  137.3360 C   0  0  0  0  0  1  0  0  0  0  0  0
  185.6310  178.7900  139.2630 N   0  0  0  0  0  1  0  0  0  0  0  0
  186.1350  178.2750  138.0020 C   0  0  1  0  0  3  0  0  0  0  0  0
  1 18  1  0  0  0  0
  1  2  1  0  0  0  0
  2 13  1  0  0  0  0
  4  2  2  0  0  0  0
  4  7  1  0  0  0  0
  5  8  2  0  0  0  0
  6  3  1  0  0  0  0
  7  8  1  0  0  0  0
  7 14  2  0  0  0  0
  9 10  1  0  0  0  0
  9 18  1  0  0  0  0
 11  1  2  0  0  0  0
 12  5  1  0  0  0  0
 13 14  1  0  0  0  0
 13  3  1  0  0  0  0
 15  9  1  0  0  0  0
 16 12  2  0  0  0  0
 16  4  1  0  0  0  0
 17 15  2  0  0  0  0
 17 11  1  0  0  0  0
 18  6  2  0  0  0  0
 19 17  1  0  0  0  0
 20 21  1  6  0  0  0
 20 19  1  0  0  0  0
 22 20  1  0  0  0  0
 25 23  1  1  0  0  0
 25 22  1  0  0  0  0
 25 24  1  0  0  0  0
M  END
>  <MODEL>
5

>  <REMARK>
 VINA RESULT:      -8.7      1.690      2.497
  Name = 
  4 active torsions:
  status: ('A' for Active; 'I' for Inactive)
    1  A    between atoms: C_6  and  C_15
    2  A    between atoms: C_6  and  C_23
    3  A    between atoms: C_12  and  C_21
    4  A    between atoms: C_15  and  C_21
                            x       y       z     vdW  Elec       q    Type
                         _______ _______ _______ _____ _____    ______ ____

>  <TORSDO>
F 4

$$$$
=
 OpenBabel10272400463D

 25 28  0  0  1  0  0  0  0  0999 V2000
  186.2020  178.2140  144.2660 C   0  0  0  0  0  0  0  0  0  0  0  0
  187.0800  177.9260  145.3920 C   0  0  0  0  0  0  0  0  0  0  0  0
  185.2350  178.2850  147.0200 C   0  0  0  0  0  2  0  0  0  0  0  0
  188.4140  177.5930  145.4400 C   0  0  0  0  0  0  0  0  0  0  0  0
  190.9610  176.9150  146.2680 C   0  0  0  0  0  3  0  0  0  0  0  0
  184.4000  178.5760  145.8390 N   0  0  0  0  0  0  0  0  0  0  0  0
  188.6850  177.4460  146.7780 C   0  0  0  0  0  0  0  0  0  0  0  0
  189.9550  177.1050  147.2340 C   0  0  0  0  0  3  0  0  0  0  0  0
  183.9060  178.8490  143.5170 N   0  0  0  0  0  0  0  0  0  0  0  0
  182.5160  179.1940  143.7620 C   0  0  0  0  0  1  0  0  0  0  0  0
  186.6050  178.1900  142.9930 C   0  0  0  0  0  3  0  0  0  0  0  0
  190.6780  177.0670  144.8900 C   0  0  0  0  0  3  0  0  0  0  0  0
  186.6160  177.9670  146.6540 N   0  0  0  0  0  0  0  0  0  0  0  0
  187.5810  177.6750  147.5190 N   0  0  0  0  0  0  0  0  0  0  0  0
  184.3860  178.8140  142.1640 C   0  0  0  0  0  3  0  0  0  0  0  0
  189.3840  177.4130  144.4570 C   0  0  0  0  0  3  0  0  0  0  0  0
  185.6610  178.4970  141.8970 C   0  0  0  0  0  0  0  0  0  0  0  0
  184.8070  178.5500  144.5960 C   0  0  0  0  0  0  0  0  0  0  0  0
  186.1390  178.4830  140.4850 C   0  0  0  0  0  2  0  0  0  0  0  0
  184.9710  178.5420  139.5130 C   0  0  1  0  0  3  0  0  0  0  0  0
  184.4990  179.9130  139.3960 N   0  0  0  0  0  1  0  0  0  0  0  0
  185.4280  178.0360  138.1540 C   0  0  0  0  0  2  0  0  0  0  0  0
  187.4380  176.7080  137.5050 C   0  0  0  0  0  1  0  0  0  0  0  0
  187.3630  179.1000  137.1550 N   0  0  0  0  0  1  0  0  0  0  0  0
  186.9450  178.0360  138.0490 C   0  0  1  0  0  3  0  0  0  0  0  0
  1 18  1  0  0  0  0
  1  2  1  0  0  0  0
  2  4  2  0  0  0  0
  2 13  1  0  0  0  0
  4  7  1  0  0  0  0
  5  8  2  0  0  0  0
  6  3  1  0  0  0  0
  7  8  1  0  0  0  0
  7 14  2  0  0  0  0
  9 10  1  0  0  0  0
  9 18  1  0  0  0  0
 11  1  2  0  0  0  0
 12  5  1  0  0  0  0
 13  3  1  0  0  0  0
 13 14  1  0  0  0  0
 15  9  1  0  0  0  0
 16 12  2  0  0  0  0
 16  4  1  0  0  0  0
 17 15  2  0  0  0  0
 17 11  1  0  0  0  0
 18  6  2  0  0  0  0
 19 17  1  0  0  0  0
 20 21  1  6  0  0  0
 20 19  1  0  0  0  0
 22 20  1  0  0  0  0
 24 25  1  0  0  0  0
 25 23  1  6  0  0  0
 25 22  1  0  0  0  0
M  END
>  <MODEL>
6

>  <REMARK>
 VINA RESULT:      -8.6      2.144      5.249
  Name = 
  4 active torsions:
  status: ('A' for Active; 'I' for Inactive)
    1  A    between atoms: C_6  and  C_15
    2  A    between atoms: C_6  and  C_23
    3  A    between atoms: C_12  and  C_21
    4  A    between atoms: C_15  and  C_21
                            x       y       z     vdW  Elec       q    Type
                         _______ _______ _______ _____ _____    ______ ____

>  <TORSDO>
F 4

$$$$
=
 OpenBabel10272400463D

 25 28  0  0  1  0  0  0  0  0999 V2000
  186.2490  178.4190  143.2230 C   0  0  0  0  0  0  0  0  0  0  0  0
  186.2040  178.3010  144.6740 C   0  0  0  0  0  0  0  0  0  0  0  0
  183.7580  178.7530  144.7110 C   0  0  0  0  0  2  0  0  0  0  0  0
  187.1930  178.0380  145.5930 C   0  0  0  0  0  0  0  0  0  0  0  0
  188.6140  177.5770  147.9180 C   0  0  0  0  0  3  0  0  0  0  0  0
  183.8720  178.8710  143.2440 N   0  0  0  0  0  0  0  0  0  0  0  0
  186.5500  178.0550  146.8060 C   0  0  0  0  0  0  0  0  0  0  0  0
  187.2300  177.8270  147.9990 C   0  0  0  0  0  3  0  0  0  0  0  0
  184.9710  178.8590  141.1230 N   0  0  0  0  0  0  0  0  0  0  0  0
  183.7530  179.1630  140.3900 C   0  0  0  0  0  1  0  0  0  0  0  0
  187.3660  178.2720  142.5060 C   0  0  0  0  0  3  0  0  0  0  0  0
  189.2730  177.5610  146.6670 C   0  0  0  0  0  3  0  0  0  0  0  0
  185.0470  178.4610  145.3420 N   0  0  0  0  0  0  0  0  0  0  0  0
  185.2350  178.3130  146.6480 N   0  0  0  0  0  0  0  0  0  0  0  0
  186.1980  178.6940  140.3950 C   0  0  0  0  0  3  0  0  0  0  0  0
  188.5590  177.7950  145.4760 C   0  0  0  0  0  3  0  0  0  0  0  0
  187.3410  178.4100  141.0340 C   0  0  0  0  0  0  0  0  0  0  0  0
  184.9730  178.7240  142.5540 C   0  0  0  0  0  0  0  0  0  0  0  0
  188.6050  178.2600  140.2570 C   0  0  0  0  0  2  0  0  0  0  0  0
  189.4240  177.0860  140.7700 C   0  0  1  0  0  3  0  0  0  0  0  0
  189.9800  176.3480  139.6470 N   0  0  0  0  0  1  0  0  0  0  0  0
  190.5470  177.6100  141.6510 C   0  0  0  0  0  2  0  0  0  0  0  0
  191.6070  177.1720  143.8660 C   0  0  0  0  0  1  0  0  0  0  0  0
  189.9330  175.6730  142.9710 N   0  0  0  0  0  1  0  0  0  0  0  0
  191.0410  176.5380  142.6090 C   0  0  1  0  0  3  0  0  0  0  0  0
  1  2  1  0  0  0  0
  2 13  1  0  0  0  0
  2  4  2  0  0  0  0
  3 13  1  0  0  0  0
  4  7  1  0  0  0  0
  5  8  2  0  0  0  0
  6  3  1  0  0  0  0
  7  8  1  0  0  0  0
  9 18  1  0  0  0  0
 10  9  1  0  0  0  0
 11  1  2  0  0  0  0
 12  5  1  0  0  0  0
 13 14  1  0  0  0  0
 14  7  2  0  0  0  0
 15 17  2  0  0  0  0
 15  9  1  0  0  0  0
 16  4  1  0  0  0  0
 16 12  2  0  0  0  0
 17 11  1  0  0  0  0
 18  1  1  0  0  0  0
 18  6  2  0  0  0  0
 19 20  1  0  0  0  0
 19 17  1  0  0  0  0
 20 21  1  6  0  0  0
 20 22  1  0  0  0  0
 22 25  1  0  0  0  0
 25 24  1  0  0  0  0
 25 23  1  1  0  0  0
M  END
>  <MODEL>
7

>  <REMARK>
 VINA RESULT:      -8.4      1.853      4.830
  Name = 
  4 active torsions:
  status: ('A' for Active; 'I' for Inactive)
    1  A    between atoms: C_6  and  C_15
    2  A    between atoms: C_6  and  C_23
    3  A    between atoms: C_12  and  C_21
    4  A    between atoms: C_15  and  C_21
                            x       y       z     vdW  Elec       q    Type
                         _______ _______ _______ _____ _____    ______ ____

>  <TORSDO>
F 4

$$$$
=
 OpenBabel10272400463D

 25 28  0  0  1  0  0  0  0  0999 V2000
  188.8640  177.7340  142.9100 C   0  0  0  0  0  0  0  0  0  0  0  0
  189.3740  177.4560  144.2460 C   0  0  0  0  0  0  0  0  0  0  0  0
  191.5840  176.7630  143.3430 C   0  0  0  0  0  2  0  0  0  0  0  0
  188.7800  177.5640  145.4830 C   0  0  0  0  0  0  0  0  0  0  0  0
  188.2530  177.5320  148.1950 C   0  0  0  0  0  3  0  0  0  0  0  0
  191.0070  177.0530  142.0160 N   0  0  0  0  0  0  0  0  0  0  0  0
  189.7500  177.1590  146.3670 C   0  0  0  0  0  0  0  0  0  0  0  0
  189.5230  177.1290  147.7400 C   0  0  0  0  0  3  0  0  0  0  0  0
  189.3320  177.7420  140.4570 N   0  0  0  0  0  0  0  0  0  0  0  0
  190.1880  177.5210  139.3030 C   0  0  0  0  0  1  0  0  0  0  0  0
  187.6290  178.1810  142.6700 C   0  0  0  0  0  3  0  0  0  0  0  0
  187.2570  177.9490  147.2810 C   0  0  0  0  0  3  0  0  0  0  0  0
  190.6290  177.0070  144.4240 N   0  0  0  0  0  0  0  0  0  0  0  0
  190.8810  176.8190  145.7150 N   0  0  0  0  0  0  0  0  0  0  0  0
  187.9940  178.2190  140.2490 C   0  0  0  0  0  3  0  0  0  0  0  0
  187.5140  177.9690  145.8980 C   0  0  0  0  0  3  0  0  0  0  0  0
  187.1750  178.4390  141.2870 C   0  0  0  0  0  0  0  0  0  0  0  0
  189.7940  177.4900  141.7950 C   0  0  0  0  0  0  0  0  0  0  0  0
  185.7840  178.9190  141.0440 C   0  0  0  0  0  2  0  0  0  0  0  0
  184.8550  178.4870  142.1670 C   0  0  1  0  0  3  0  0  0  0  0  0
  184.7080  179.5710  143.1260 N   0  0  0  0  0  1  0  0  0  0  0  0
  183.4990  178.1280  141.5800 C   0  0  0  0  0  2  0  0  0  0  0  0
  183.0600  176.9360  139.4340 C   0  0  0  0  0  1  0  0  0  0  0  0
  182.6050  179.3010  139.6560 N   0  0  0  0  0  1  0  0  0  0  0  0
  183.5090  178.2400  140.0640 C   0  0  1  0  0  3  0  0  0  0  0  0
  1  2  1  0  0  0  0
  2 13  1  0  0  0  0
  2  4  2  0  0  0  0
  3 13  1  0  0  0  0
  4 16  1  0  0  0  0
  4  7  1  0  0  0  0
  6  3  1  0  0  0  0
  7  8  1  0  0  0  0
  8  5  2  0  0  0  0
  9 18  1  0  0  0  0
 10  9  1  0  0  0  0
 11  1  2  0  0  0  0
 12  5  1  0  0  0  0
 13 14  1  0  0  0  0
 14  7  2  0  0  0  0
 15  9  1  0  0  0  0
 15 17  2  0  0  0  0
 16 12  2  0  0  0  0
 17 11  1  0  0  0  0
 18  6  2  0  0  0  0
 18  1  1  0  0  0  0
 19 17  1  0  0  0  0
 19 20  1  0  0  0  0
 20 21  1  1  0  0  0
 22 20  1  0  0  0  0
 24 25  1  0  0  0  0
 25 23  1  6  0  0  0
 25 22  1  0  0  0  0
M  END
>  <MODEL>
8

>  <REMARK>
 VINA RESULT:      -8.3      2.199      5.471
  Name = 
  4 active torsions:
  status: ('A' for Active; 'I' for Inactive)
    1  A    between atoms: C_6  and  C_15
    2  A    between atoms: C_6  and  C_23
    3  A    between atoms: C_12  and  C_21
    4  A    between atoms: C_15  and  C_21
                            x       y       z     vdW  Elec       q    Type
                         _______ _______ _______ _____ _____    ______ ____

>  <TORSDO>
F 4

$$$$
=
 OpenBabel10272400463D

 25 28  0  0  1  0  0  0  0  0999 V2000
  185.8840  178.2530  144.2740 C   0  0  0  0  0  0  0  0  0  0  0  0
  186.8500  177.9880  145.3320 C   0  0  0  0  0  0  0  0  0  0  0  0
  185.1490  178.4130  147.0960 C   0  0  0  0  0  2  0  0  0  0  0  0
  188.1800  177.6420  145.2790 C   0  0  0  0  0  0  0  0  0  0  0  0
  190.7820  176.9590  145.9130 C   0  0  0  0  0  3  0  0  0  0  0  0
  184.2210  178.6800  145.9790 N   0  0  0  0  0  0  0  0  0  0  0  0
  188.5600  177.5300  146.5940 C   0  0  0  0  0  0  0  0  0  0  0  0
  189.8610  177.1880  146.9530 C   0  0  0  0  0  3  0  0  0  0  0  0
  183.5400  178.8920  143.6990 N   0  0  0  0  0  0  0  0  0  0  0  0
  182.1770  179.2590  144.0480 C   0  0  0  0  0  1  0  0  0  0  0  0
  186.1790  178.1880  142.9730 C   0  0  0  0  0  3  0  0  0  0  0  0
  190.3860  177.0740  144.5600 C   0  0  0  0  0  3  0  0  0  0  0  0
  186.4920  178.0700  146.6260 N   0  0  0  0  0  0  0  0  0  0  0  0
  187.5240  177.7920  147.4160 N   0  0  0  0  0  0  0  0  0  0  0  0
  183.9050  178.8120  142.3130 C   0  0  0  0  0  3  0  0  0  0  0  0
  189.0640  177.4230  144.2250 C   0  0  0  0  0  3  0  0  0  0  0  0
  185.1500  178.4740  141.9510 C   0  0  0  0  0  0  0  0  0  0  0  0
  184.5240  178.6130  144.7090 C   0  0  0  0  0  0  0  0  0  0  0  0
  185.5100  178.4140  140.5050 C   0  0  0  0  0  2  0  0  0  0  0  0
  184.3080  178.7370  139.6310 C   0  0  1  0  0  3  0  0  0  0  0  0
  184.4820  180.0460  139.0220 N   0  0  0  0  0  1  0  0  0  0  0  0
  184.1810  177.6760  138.5490 C   0  0  0  0  0  2  0  0  0  0  0  0
  181.7470  177.3420  138.1150 C   0  0  0  0  0  1  0  0  0  0  0  0
  183.2530  175.4550  138.2670 N   0  0  0  0  0  1  0  0  0  0  0  0
  182.9790  176.7790  138.7980 C   0  0  1  0  0  3  0  0  0  0  0  0
  1 18  1  0  0  0  0
  1  2  1  0  0  0  0
  2 13  1  0  0  0  0
  4  2  2  0  0  0  0
  4  7  1  0  0  0  0
  5  8  2  0  0  0  0
  6  3  1  0  0  0  0
  7  8  1  0  0  0  0
  7 14  2  0  0  0  0
  9 10  1  0  0  0  0
  9 18  1  0  0  0  0
 11  1  2  0  0  0  0
 12  5  1  0  0  0  0
 13  3  1  0  0  0  0
 13 14  1  0  0  0  0
 15  9  1  0  0  0  0
 16 12  2  0  0  0  0
 16  4  1  0  0  0  0
 17 15  2  0  0  0  0
 17 11  1  0  0  0  0
 18  6  2  0  0  0  0
 19 17  1  0  0  0  0
 20 21  1  6  0  0  0
 20 19  1  0  0  0  0
 22 25  1  0  0  0  0
 22 20  1  0  0  0  0
 24 25  1  0  0  0  0
 25 23  1  6  0  0  0
M  END
>  <MODEL>
9

>  <REMARK>
 VINA RESULT:      -8.3      2.798      5.748
  Name = 
  4 active torsions:
  status: ('A' for Active; 'I' for Inactive)
    1  A    between atoms: C_6  and  C_15
    2  A    between atoms: C_6  and  C_23
    3  A    between atoms: C_12  and  C_21
    4  A    between atoms: C_15  and  C_21
                            x       y       z     vdW  Elec       q    Type
                         _______ _______ _______ _____ _____    ______ ____

>  <TORSDO>
F 4

$$$$
