=
 OpenBabel10272401023D

 27 31  0  0  1  0  0  0  0  0999 V2000
  186.9460  178.2030  146.2240 N   0  0  0  0  0  0  0  0  0  0  0  0
  187.9000  177.5930  144.1290 N   0  0  0  0  0  2  0  0  0  0  0  0
  183.1460  178.8080  144.5330 C   0  0  0  0  0  3  0  0  0  0  0  0
  181.6590  178.9930  142.5290 C   0  0  0  0  0  1  0  0  0  0  0  0
  185.9140  178.7660  147.1030 C   0  0  0  0  0  2  0  0  0  0  0  0
  185.3750  178.3760  142.8930 C   0  0  0  0  0  3  0  0  0  0  0  0
  184.1130  178.5810  142.3220 C   0  0  0  0  0  3  0  0  0  0  0  0
  186.8200  178.0910  144.9300 C   0  0  0  0  0  0  0  0  0  0  0  0
  182.9980  178.7900  143.1410 C   0  0  0  0  0  0  0  0  0  0  0  0
  184.4110  178.6250  145.1020 C   0  0  0  0  0  0  0  0  0  0  0  0
  189.3640  176.9820  145.8560 O   0  0  0  0  0  0  0  0  0  0  0  0
  185.5260  178.3990  144.2860 C   0  0  0  0  0  0  0  0  0  0  0  0
  184.5790  178.6210  146.5210 N   0  0  0  0  0  2  0  0  0  0  0  0
  189.1510  177.0860  144.6160 C   0  0  0  0  0  0  0  0  0  0  0  0
  190.1520  175.2200  143.2410 C   0  0  0  0  0  1  0  0  0  0  0  0
  190.2370  176.6890  143.6550 C   0  0  1  0  0  3  0  0  0  0  0  0
  191.5930  178.1730  142.3350 O   0  0  0  0  0  1  0  0  0  0  0  0
  190.3070  177.6360  142.4460 C   0  0  1  0  0  3  0  0  0  0  0  0
  190.8680  177.3860  140.0300 C   0  0  0  0  0  2  0  0  0  0  0  0
  189.5050  178.0500  140.1280 C   0  0  2  0  0  3  0  0  0  0  0  0
  189.9050  176.9670  141.1310 C   0  0  2  0  0  3  0  0  0  0  0  0
  187.3740  179.3350  136.9120 O   0  0  0  0  0  0  0  0  0  0  0  0
  188.6200  177.5570  138.9730 C   0  0  2  0  0  3  0  0  0  0  0  0
  189.2170  177.9940  137.6540 C   0  0  0  0  0  2  0  0  0  0  0  0
  188.0540  178.1190  136.6820 C   0  0  1  0  0  3  0  0  0  0  0  0
  186.8030  178.1800  137.4840 C   0  0  1  0  0  3  0  0  0  0  0  0
  187.1940  178.0920  138.9510 C   0  0  0  0  0  2  0  0  0  0  0  0
  1  5  1  0  0  0  0
  2 14  1  0  0  0  0
  2  8  1  0  0  0  0
  3 10  1  0  0  0  0
  4  9  1  0  0  0  0
  6 12  1  0  0  0  0
  7  6  2  0  0  0  0
  7  9  1  0  0  0  0
  8  1  2  0  0  0  0
  9  3  2  0  0  0  0
 10 13  1  0  0  0  0
 12  8  1  0  0  0  0
 12 10  2  0  0  0  0
 13  5  1  0  0  0  0
 14 11  2  0  0  0  0
 16 15  1  6  0  0  0
 16 14  1  0  0  0  0
 18 17  1  6  0  0  0
 18 16  1  0  0  0  0
 19 21  1  0  0  0  0
 20 19  1  6  0  0  0
 20 21  1  0  0  0  0
 21 18  1  1  0  0  0
 22 26  1  0  0  0  0
 23 24  1  6  0  0  0
 23 20  1  0  0  0  0
 25 22  1  0  0  0  0
 25 26  1  0  0  0  0
 25 24  1  1  0  0  0
 26 27  1  1  0  0  0
 27 23  1  0  0  0  0
M  END
>  <MODEL>
1

>  <REMARK>
 VINA RESULT:      -9.0      0.000      0.000
  Name = 
  4 active torsions:
  status: ('A' for Active; 'I' for Inactive)
    1  A    between atoms: C_9  and  C_15
    2  A    between atoms: C_20  and  C_22
    3  A    between atoms: C_20  and  C_26
    4  A    between atoms: C_22  and  C_24
                            x       y       z     vdW  Elec       q    Type
                         _______ _______ _______ _____ _____    ______ ____

>  <TORSDO>
F 4

$$$$
=
 OpenBabel10272401023D

 27 31  0  0  1  0  0  0  0  0999 V2000
  189.9580  177.1010  139.6190 N   0  0  0  0  0  0  0  0  0  0  0  0
  189.7920  177.8400  141.8770 N   0  0  0  0  0  2  0  0  0  0  0  0
  186.1030  178.4880  138.6810 C   0  0  0  0  0  3  0  0  0  0  0  0
  183.9000  179.4400  139.3880 C   0  0  0  0  0  1  0  0  0  0  0  0
  189.4400  176.7620  138.2880 C   0  0  0  0  0  2  0  0  0  0  0  0
  186.9910  178.4560  141.3370 C   0  0  0  0  0  3  0  0  0  0  0  0
  185.7040  178.9160  141.0330 C   0  0  0  0  0  3  0  0  0  0  0  0
  189.2290  177.5990  140.5790 C   0  0  0  0  0  0  0  0  0  0  0  0
  185.2620  178.9390  139.7050 C   0  0  0  0  0  0  0  0  0  0  0  0
  187.3810  178.0080  138.9880 C   0  0  0  0  0  0  0  0  0  0  0  0
  192.0310  177.3470  141.3830 O   0  0  0  0  0  0  0  0  0  0  0  0
  187.8320  178.0000  140.3130 C   0  0  0  0  0  0  0  0  0  0  0  0
  188.2600  177.5620  137.9540 N   0  0  0  0  0  2  0  0  0  0  0  0
  191.1690  177.6740  142.2460 C   0  0  0  0  0  0  0  0  0  0  0  0
  191.6840  179.3410  144.0700 C   0  0  0  0  0  1  0  0  0  0  0  0
  191.6020  177.8670  143.6720 C   0  0  1  0  0  3  0  0  0  0  0  0
  191.5750  176.3130  145.5070 O   0  0  0  0  0  1  0  0  0  0  0  0
  190.7480  177.0420  144.6480 C   0  0  1  0  0  3  0  0  0  0  0  0
  189.0610  177.0170  146.4840 C   0  0  0  0  0  2  0  0  0  0  0  0
  188.3480  177.3970  145.1970 C   0  0  2  0  0  3  0  0  0  0  0  0
  189.7700  177.8920  145.4610 C   0  0  2  0  0  3  0  0  0  0  0  0
  184.5980  177.7330  146.7330 O   0  0  0  0  0  0  0  0  0  0  0  0
  187.2450  178.4180  145.5140 C   0  0  2  0  0  3  0  0  0  0  0  0
  186.9000  178.3510  146.9860 C   0  0  0  0  0  2  0  0  0  0  0  0
  185.4500  178.7960  147.1020 C   0  0  1  0  0  3  0  0  0  0  0  0
  184.8440  178.7100  145.7470 C   0  0  1  0  0  3  0  0  0  0  0  0
  185.9190  178.2120  144.7940 C   0  0  0  0  0  2  0  0  0  0  0  0
  1  8  2  0  0  0  0
  2 14  1  0  0  0  0
  3 10  2  0  0  0  0
  3  9  1  0  0  0  0
  4  9  1  0  0  0  0
  5  1  1  0  0  0  0
  7  6  1  0  0  0  0
  8  2  1  0  0  0  0
  9  7  2  0  0  0  0
 10 12  1  0  0  0  0
 11 14  2  0  0  0  0
 12  8  1  0  0  0  0
 12  6  2  0  0  0  0
 13  5  1  0  0  0  0
 13 10  1  0  0  0  0
 14 16  1  0  0  0  0
 16 15  1  1  0  0  0
 16 18  1  0  0  0  0
 18 17  1  1  0  0  0
 20 21  1  0  0  0  0
 20 23  1  0  0  0  0
 20 19  1  1  0  0  0
 21 18  1  6  0  0  0
 21 19  1  0  0  0  0
 22 25  1  0  0  0  0
 23 27  1  6  0  0  0
 23 24  1  0  0  0  0
 25 24  1  6  0  0  0
 26 27  1  6  0  0  0
 26 22  1  0  0  0  0
 26 25  1  0  0  0  0
M  END
>  <MODEL>
2

>  <REMARK>
 VINA RESULT:      -9.0      2.741      6.273
  Name = 
  4 active torsions:
  status: ('A' for Active; 'I' for Inactive)
    1  A    between atoms: C_9  and  C_15
    2  A    between atoms: C_20  and  C_22
    3  A    between atoms: C_20  and  C_26
    4  A    between atoms: C_22  and  C_24
                            x       y       z     vdW  Elec       q    Type
                         _______ _______ _______ _____ _____    ______ ____

>  <TORSDO>
F 4

$$$$
=
 OpenBabel10272401023D

 27 31  0  0  1  0  0  0  0  0999 V2000
  187.1300  178.3680  139.9450 N   0  0  0  0  0  0  0  0  0  0  0  0
  188.4690  177.5610  141.7420 N   0  0  0  0  0  2  0  0  0  0  0  0
  183.9090  179.2590  142.4940 C   0  0  0  0  0  3  0  0  0  0  0  0
  182.8160  179.1490  144.7430 C   0  0  0  0  0  1  0  0  0  0  0  0
  185.8810  178.8010  139.3060 C   0  0  0  0  0  2  0  0  0  0  0  0
  186.1140  177.8180  143.4460 C   0  0  0  0  0  3  0  0  0  0  0  0
  185.0430  178.1080  144.3010 C   0  0  0  0  0  3  0  0  0  0  0  0
  187.2270  178.0400  141.2040 C   0  0  0  0  0  0  0  0  0  0  0  0
  183.9440  178.8340  143.8270 C   0  0  0  0  0  0  0  0  0  0  0  0
  184.9700  178.9510  141.6360 C   0  0  0  0  0  0  0  0  0  0  0  0
  189.8230  177.9080  139.8590 O   0  0  0  0  0  0  0  0  0  0  0  0
  186.0780  178.2390  142.1100 C   0  0  0  0  0  0  0  0  0  0  0  0
  184.9600  179.3930  140.2770 N   0  0  0  0  0  2  0  0  0  0  0  0
  189.7190  177.4790  141.0410 C   0  0  0  0  0  0  0  0  0  0  0  0
  192.1300  177.7930  141.7180 C   0  0  0  0  0  1  0  0  0  0  0  0
  190.9200  176.8610  141.7010 C   0  0  1  0  0  3  0  0  0  0  0  0
  191.5230  175.3320  143.4570 O   0  0  0  0  0  1  0  0  0  0  0  0
  190.5870  176.3050  143.0950 C   0  0  1  0  0  3  0  0  0  0  0  0
  191.3080  176.9440  145.3940 C   0  0  0  0  0  2  0  0  0  0  0  0
  189.7930  176.8160  145.3960 C   0  0  2  0  0  3  0  0  0  0  0  0
  190.5140  177.3860  144.1740 C   0  0  2  0  0  3  0  0  0  0  0  0
  187.8050  177.2540  148.9160 O   0  0  0  0  0  0  0  0  0  0  0  0
  189.1990  177.8720  146.3400 C   0  0  2  0  0  3  0  0  0  0  0  0
  189.8210  177.7330  147.7120 C   0  0  0  0  0  2  0  0  0  0  0  0
  188.7860  178.2470  148.7010 C   0  0  1  0  0  3  0  0  0  0  0  0
  187.4730  178.2750  148.0020 C   0  0  1  0  0  3  0  0  0  0  0  0
  187.6990  177.7810  146.5820 C   0  0  0  0  0  2  0  0  0  0  0  0
  1  8  2  0  0  0  0
  3  9  1  0  0  0  0
  5  1  1  0  0  0  0
  5 13  1  0  0  0  0
  6  7  1  0  0  0  0
  8  2  1  0  0  0  0
  8 12  1  0  0  0  0
  9  7  2  0  0  0  0
  9  4  1  0  0  0  0
 10 12  1  0  0  0  0
 10  3  2  0  0  0  0
 11 14  2  0  0  0  0
 12  6  2  0  0  0  0
 13 10  1  0  0  0  0
 14 16  1  0  0  0  0
 14  2  1  0  0  0  0
 16 15  1  1  0  0  0
 16 18  1  0  0  0  0
 18 17  1  1  0  0  0
 20 19  1  1  0  0  0
 20 23  1  0  0  0  0
 21 18  1  6  0  0  0
 21 19  1  0  0  0  0
 21 20  1  0  0  0  0
 23 27  1  1  0  0  0
 23 24  1  0  0  0  0
 25 24  1  6  0  0  0
 25 22  1  0  0  0  0
 26 27  1  6  0  0  0
 26 25  1  0  0  0  0
 26 22  1  0  0  0  0
M  END
>  <MODEL>
3

>  <REMARK>
 VINA RESULT:      -8.8      2.487      5.973
  Name = 
  4 active torsions:
  status: ('A' for Active; 'I' for Inactive)
    1  A    between atoms: C_9  and  C_15
    2  A    between atoms: C_20  and  C_22
    3  A    between atoms: C_20  and  C_26
    4  A    between atoms: C_22  and  C_24
                            x       y       z     vdW  Elec       q    Type
                         _______ _______ _______ _____ _____    ______ ____

>  <TORSDO>
F 4

$$$$
=
 OpenBabel10272401023D

 27 31  0  0  1  0  0  0  0  0999 V2000
  185.8260  178.2960  142.5340 N   0  0  0  0  0  0  0  0  0  0  0  0
  188.1160  178.0100  141.9490 N   0  0  0  0  0  2  0  0  0  0  0  0
  186.6460  178.0420  146.6480 C   0  0  0  0  0  3  0  0  0  0  0  0
  188.2310  177.5780  148.5280 C   0  0  0  0  0  1  0  0  0  0  0  0
  184.6690  178.2690  143.4380 C   0  0  0  0  0  2  0  0  0  0  0  0
  188.6360  177.4530  144.7670 C   0  0  0  0  0  3  0  0  0  0  0  0
  188.9150  177.3630  146.1350 C   0  0  0  0  0  3  0  0  0  0  0  0
  187.0470  178.0290  142.9060 C   0  0  0  0  0  0  0  0  0  0  0  0
  187.9240  177.6630  147.0760 C   0  0  0  0  0  0  0  0  0  0  0  0
  186.3610  178.1120  145.2800 C   0  0  0  0  0  0  0  0  0  0  0  0
  186.9300  178.7890  140.0830 O   0  0  0  0  0  0  0  0  0  0  0  0
  187.3560  177.8280  144.3370 C   0  0  0  0  0  0  0  0  0  0  0  0
  185.0690  178.5150  144.8240 N   0  0  0  0  0  2  0  0  0  0  0  0
  188.0160  178.3570  140.5610 C   0  0  0  0  0  0  0  0  0  0  0  0
  190.0170  176.9400  139.9610 C   0  0  0  0  0  1  0  0  0  0  0  0
  189.1990  178.1930  139.6490 C   0  0  1  0  0  3  0  0  0  0  0  0
  188.9820  179.5830  137.6990 O   0  0  0  0  0  1  0  0  0  0  0  0
  188.7990  178.2790  138.1670 C   0  0  1  0  0  3  0  0  0  0  0  0
  189.1680  177.5110  135.8240 C   0  0  0  0  0  2  0  0  0  0  0  0
  188.5540  176.3600  136.6040 C   0  0  2  0  0  3  0  0  0  0  0  0
  189.5590  177.2940  137.2790 C   0  0  2  0  0  3  0  0  0  0  0  0
  187.5300  172.6740  135.2260 O   0  0  0  0  0  0  0  0  0  0  0  0
  189.1470  175.0360  136.1000 C   0  0  2  0  0  3  0  0  0  0  0  0
  188.6250  174.7420  134.7110 C   0  0  0  0  0  2  0  0  0  0  0  0
  188.6450  173.2290  134.5620 C   0  0  1  0  0  3  0  0  0  0  0  0
  188.7530  172.6450  135.9250 C   0  0  1  0  0  3  0  0  0  0  0  0
  188.8020  173.7980  136.9150 C   0  0  0  0  0  2  0  0  0  0  0  0
  1  8  2  0  0  0  0
  1  5  1  0  0  0  0
  2  8  1  0  0  0  0
  3  9  1  0  0  0  0
  5 13  1  0  0  0  0
  6  7  1  0  0  0  0
  7  9  2  0  0  0  0
  8 12  1  0  0  0  0
  9  4  1  0  0  0  0
 10  3  2  0  0  0  0
 11 14  2  0  0  0  0
 12  6  2  0  0  0  0
 12 10  1  0  0  0  0
 13 10  1  0  0  0  0
 14  2  1  0  0  0  0
 16 15  1  6  0  0  0
 16 14  1  0  0  0  0
 18 17  1  6  0  0  0
 18 16  1  0  0  0  0
 19 21  1  0  0  0  0
 20 19  1  6  0  0  0
 20 21  1  0  0  0  0
 21 18  1  1  0  0  0
 22 26  1  0  0  0  0
 23 24  1  6  0  0  0
 23 20  1  0  0  0  0
 23 27  1  0  0  0  0
 25 24  1  1  0  0  0
 25 22  1  0  0  0  0
 25 26  1  0  0  0  0
 26 27  1  1  0  0  0
M  END
>  <MODEL>
4

>  <REMARK>
 VINA RESULT:      -8.5      2.822      4.770
  Name = 
  4 active torsions:
  status: ('A' for Active; 'I' for Inactive)
    1  A    between atoms: C_9  and  C_15
    2  A    between atoms: C_20  and  C_22
    3  A    between atoms: C_20  and  C_26
    4  A    between atoms: C_22  and  C_24
                            x       y       z     vdW  Elec       q    Type
                         _______ _______ _______ _____ _____    ______ ____

>  <TORSDO>
F 4

$$$$
=
 OpenBabel10272401023D

 27 31  0  0  1  0  0  0  0  0999 V2000
  187.3340  177.8180  143.1290 N   0  0  0  0  0  0  0  0  0  0  0  0
  189.1890  177.5880  141.6530 N   0  0  0  0  0  2  0  0  0  0  0  0
  189.6970  177.0610  146.5220 C   0  0  0  0  0  3  0  0  0  0  0  0
  191.8680  176.3620  147.5520 C   0  0  0  0  0  1  0  0  0  0  0  0
  186.6290  177.6890  144.4100 C   0  0  0  0  0  2  0  0  0  0  0  0
  190.7470  176.6910  143.9520 C   0  0  0  0  0  3  0  0  0  0  0  0
  191.5390  176.4330  145.0770 C   0  0  0  0  0  3  0  0  0  0  0  0
  188.5870  177.4990  142.9530 C   0  0  0  0  0  0  0  0  0  0  0  0
  191.0180  176.6250  146.3610 C   0  0  0  0  0  0  0  0  0  0  0  0
  188.9000  177.2980  145.3980 C   0  0  0  0  0  0  0  0  0  0  0  0
  187.4060  178.5960  140.5100 O   0  0  0  0  0  0  0  0  0  0  0  0
  189.4240  177.1230  144.1110 C   0  0  0  0  0  0  0  0  0  0  0  0
  187.5560  177.7620  145.5410 N   0  0  0  0  0  2  0  0  0  0  0  0
  188.5670  178.1020  140.4660 C   0  0  0  0  0  0  0  0  0  0  0  0
  189.9660  176.6960  138.9060 C   0  0  0  0  0  1  0  0  0  0  0  0
  189.2840  178.0420  139.1460 C   0  0  1  0  0  3  0  0  0  0  0  0
  188.8880  179.5940  137.3530 O   0  0  0  0  0  1  0  0  0  0  0  0
  188.3730  178.4560  137.9790 C   0  0  1  0  0  3  0  0  0  0  0  0
  187.0720  177.7460  135.9740 C   0  0  0  0  0  2  0  0  0  0  0  0
  186.7510  176.7840  137.1060 C   0  0  2  0  0  3  0  0  0  0  0  0
  188.1670  177.3430  136.9510 C   0  0  2  0  0  3  0  0  0  0  0  0
  185.5970  173.0140  138.1010 O   0  0  0  0  0  0  0  0  0  0  0  0
  186.5520  175.3750  136.5280 C   0  0  2  0  0  3  0  0  0  0  0  0
  185.1220  174.9340  136.7480 C   0  0  0  0  0  2  0  0  0  0  0  0
  185.1530  173.4150  136.8230 C   0  0  1  0  0  3  0  0  0  0  0  0
  186.5610  173.0070  137.0730 C   0  0  1  0  0  3  0  0  0  0  0  0
  187.3990  174.2730  137.1510 C   0  0  0  0  0  2  0  0  0  0  0  0
  1  5  1  0  0  0  0
  2  8  1  0  0  0  0
  5 13  1  0  0  0  0
  6 12  2  0  0  0  0
  6  7  1  0  0  0  0
  7  9  2  0  0  0  0
  8  1  2  0  0  0  0
  8 12  1  0  0  0  0
  9  3  1  0  0  0  0
  9  4  1  0  0  0  0
 10 13  1  0  0  0  0
 10  3  2  0  0  0  0
 12 10  1  0  0  0  0
 14 11  2  0  0  0  0
 14  2  1  0  0  0  0
 16 15  1  6  0  0  0
 16 14  1  0  0  0  0
 18 17  1  6  0  0  0
 18 16  1  0  0  0  0
 19 21  1  0  0  0  0
 20 19  1  6  0  0  0
 21 20  1  0  0  0  0
 21 18  1  1  0  0  0
 23 24  1  1  0  0  0
 23 20  1  0  0  0  0
 23 27  1  0  0  0  0
 25 24  1  1  0  0  0
 25 26  1  0  0  0  0
 25 22  1  0  0  0  0
 26 27  1  1  0  0  0
 26 22  1  0  0  0  0
M  END
>  <MODEL>
5

>  <REMARK>
 VINA RESULT:      -8.3      2.773      5.569
  Name = 
  4 active torsions:
  status: ('A' for Active; 'I' for Inactive)
    1  A    between atoms: C_9  and  C_15
    2  A    between atoms: C_20  and  C_22
    3  A    between atoms: C_20  and  C_26
    4  A    between atoms: C_22  and  C_24
                            x       y       z     vdW  Elec       q    Type
                         _______ _______ _______ _____ _____    ______ ____

>  <TORSDO>
F 4

$$$$
=
 OpenBabel10272401023D

 27 31  0  0  1  0  0  0  0  0999 V2000
  184.2960  178.6500  140.2940 N   0  0  0  0  0  0  0  0  0  0  0  0
  186.6300  178.1770  140.2500 N   0  0  0  0  0  2  0  0  0  0  0  0
  184.2150  178.8120  144.4930 C   0  0  0  0  0  3  0  0  0  0  0  0
  185.3300  178.4760  146.7070 C   0  0  0  0  0  1  0  0  0  0  0  0
  182.9770  178.7860  140.9240 C   0  0  0  0  0  2  0  0  0  0  0  0
  186.5030  177.9100  143.1530 C   0  0  0  0  0  3  0  0  0  0  0  0
  186.4820  177.9580  144.5520 C   0  0  0  0  0  3  0  0  0  0  0  0
  185.3880  178.3610  140.9460 C   0  0  0  0  0  0  0  0  0  0  0  0
  185.3410  178.4150  145.2220 C   0  0  0  0  0  0  0  0  0  0  0  0
  184.2280  178.7440  143.0960 C   0  0  0  0  0  0  0  0  0  0  0  0
  185.9240  178.8050  138.1040 O   0  0  0  0  0  0  0  0  0  0  0  0
  185.3740  178.3030  142.4220 C   0  0  0  0  0  0  0  0  0  0  0  0
  183.0950  179.1630  142.3340 N   0  0  0  0  0  2  0  0  0  0  0  0
  186.8490  178.3720  138.8450 C   0  0  0  0  0  0  0  0  0  0  0  0
  188.9820  179.2900  137.8540 C   0  0  0  0  0  1  0  0  0  0  0  0
  188.1810  178.0440  138.2320 C   0  0  1  0  0  3  0  0  0  0  0  0
  189.6130  176.1120  138.2950 O   0  0  0  0  0  1  0  0  0  0  0  0
  188.9900  177.0680  139.1020 C   0  0  1  0  0  3  0  0  0  0  0  0
  191.2870  176.9130  140.0580 C   0  0  0  0  0  2  0  0  0  0  0  0
  190.2970  176.8930  141.2110 C   0  0  2  0  0  3  0  0  0  0  0  0
  190.0280  177.7640  139.9830 C   0  0  2  0  0  3  0  0  0  0  0  0
  190.2020  177.1150  145.2700 O   0  0  0  0  0  0  0  0  0  0  0  0
  190.9020  177.6420  142.4080 C   0  0  2  0  0  3  0  0  0  0  0  0
  191.5570  176.6530  143.3470 C   0  0  0  0  0  2  0  0  0  0  0  0
  191.4960  177.2810  144.7320 C   0  0  1  0  0  3  0  0  0  0  0  0
  190.4830  178.3680  144.6890 C   0  0  1  0  0  3  0  0  0  0  0  0
  189.9180  178.4130  143.2780 C   0  0  0  0  0  2  0  0  0  0  0  0
  1  5  1  0  0  0  0
  1  8  2  0  0  0  0
  2  8  1  0  0  0  0
  3  9  1  0  0  0  0
  5 13  1  0  0  0  0
  6  7  1  0  0  0  0
  7  9  2  0  0  0  0
  8 12  1  0  0  0  0
  9  4  1  0  0  0  0
 10  3  2  0  0  0  0
 11 14  2  0  0  0  0
 12 10  1  0  0  0  0
 12  6  2  0  0  0  0
 13 10  1  0  0  0  0
 14  2  1  0  0  0  0
 16 15  1  1  0  0  0
 16 14  1  0  0  0  0
 16 18  1  0  0  0  0
 18 17  1  6  0  0  0
 20 19  1  6  0  0  0
 20 23  1  0  0  0  0
 21 18  1  6  0  0  0
 21 19  1  0  0  0  0
 21 20  1  0  0  0  0
 23 27  1  1  0  0  0
 23 24  1  0  0  0  0
 25 24  1  6  0  0  0
 25 22  1  0  0  0  0
 26 27  1  6  0  0  0
 26 25  1  0  0  0  0
 26 22  1  0  0  0  0
M  END
>  <MODEL>
6

>  <REMARK>
 VINA RESULT:      -8.2      2.054      5.293
  Name = 
  4 active torsions:
  status: ('A' for Active; 'I' for Inactive)
    1  A    between atoms: C_9  and  C_15
    2  A    between atoms: C_20  and  C_22
    3  A    between atoms: C_20  and  C_26
    4  A    between atoms: C_22  and  C_24
                            x       y       z     vdW  Elec       q    Type
                         _______ _______ _______ _____ _____    ______ ____

>  <TORSDO>
F 4

$$$$
=
 OpenBabel10272401023D

 27 31  0  0  1  0  0  0  0  0999 V2000
  189.3290  177.3970  143.0230 N   0  0  0  0  0  0  0  0  0  0  0  0
  188.6010  177.8590  140.8040 N   0  0  0  0  0  2  0  0  0  0  0  0
  185.4980  178.0510  144.6210 C   0  0  0  0  0  3  0  0  0  0  0  0
  183.1290  178.8140  144.3570 C   0  0  0  0  0  1  0  0  0  0  0  0
  189.2130  177.3810  144.4860 C   0  0  0  0  0  2  0  0  0  0  0  0
  186.0460  178.6820  141.9480 C   0  0  0  0  0  3  0  0  0  0  0  0
  184.7680  178.9070  142.4740 C   0  0  0  0  0  3  0  0  0  0  0  0
  188.3870  177.8100  142.2220 C   0  0  0  0  0  0  0  0  0  0  0  0
  184.4920  178.5850  143.8080 C   0  0  0  0  0  0  0  0  0  0  0  0
  186.7800  177.8470  144.1010 C   0  0  0  0  0  0  0  0  0  0  0  0
  190.7040  176.8240  140.7310 O   0  0  0  0  0  0  0  0  0  0  0  0
  187.0560  178.1520  142.7620 C   0  0  0  0  0  0  0  0  0  0  0  0
  187.8150  177.2850  144.9100 N   0  0  0  0  0  2  0  0  0  0  0  0
  189.7670  177.3950  140.1070 C   0  0  0  0  0  0  0  0  0  0  0  0
  190.3600  176.3430  137.8910 C   0  0  0  0  0  1  0  0  0  0  0  0
  189.8980  177.6020  138.6240 C   0  0  1  0  0  3  0  0  0  0  0  0
  188.8910  179.4780  137.5070 O   0  0  0  0  0  1  0  0  0  0  0  0
  188.6220  178.2030  138.0130 C   0  0  1  0  0  3  0  0  0  0  0  0
  186.6790  177.9250  136.4770 C   0  0  0  0  0  2  0  0  0  0  0  0
  186.6880  176.7490  137.4390 C   0  0  2  0  0  3  0  0  0  0  0  0
  188.0060  177.3280  136.9220 C   0  0  2  0  0  3  0  0  0  0  0  0
  185.0670  173.0690  138.0410 O   0  0  0  0  0  0  0  0  0  0  0  0
  186.2070  175.4900  136.7010 C   0  0  2  0  0  3  0  0  0  0  0  0
  184.7570  175.2250  137.0420 C   0  0  0  0  0  2  0  0  0  0  0  0
  184.5570  173.7240  136.9000 C   0  0  1  0  0  3  0  0  0  0  0  0
  185.9010  173.0890  136.9050 C   0  0  1  0  0  3  0  0  0  0  0  0
  186.9320  174.1970  137.0490 C   0  0  0  0  0  2  0  0  0  0  0  0
  1  5  1  0  0  0  0
  2  8  1  0  0  0  0
  5 13  1  0  0  0  0
  6  7  2  0  0  0  0
  6 12  1  0  0  0  0
  7  9  1  0  0  0  0
  8 12  1  0  0  0  0
  8  1  2  0  0  0  0
  9  4  1  0  0  0  0
  9  3  2  0  0  0  0
 10  3  1  0  0  0  0
 10 13  1  0  0  0  0
 12 10  2  0  0  0  0
 14 11  2  0  0  0  0
 14  2  1  0  0  0  0
 16 15  1  6  0  0  0
 16 14  1  0  0  0  0
 18 17  1  6  0  0  0
 18 16  1  0  0  0  0
 19 21  1  0  0  0  0
 20 19  1  6  0  0  0
 21 20  1  0  0  0  0
 21 18  1  1  0  0  0
 23 24  1  1  0  0  0
 23 27  1  0  0  0  0
 23 20  1  0  0  0  0
 25 26  1  0  0  0  0
 25 24  1  1  0  0  0
 25 22  1  0  0  0  0
 26 27  1  1  0  0  0
 26 22  1  0  0  0  0
M  END
>  <MODEL>
7

>  <REMARK>
 VINA RESULT:      -8.1      2.587      4.288
  Name = 
  4 active torsions:
  status: ('A' for Active; 'I' for Inactive)
    1  A    between atoms: C_9  and  C_15
    2  A    between atoms: C_20  and  C_22
    3  A    between atoms: C_20  and  C_26
    4  A    between atoms: C_22  and  C_24
                            x       y       z     vdW  Elec       q    Type
                         _______ _______ _______ _____ _____    ______ ____

>  <TORSDO>
F 4

$$$$
=
 OpenBabel10272401023D

 27 31  0  0  1  0  0  0  0  0999 V2000
  185.8780  178.3010  142.4130 N   0  0  0  0  0  0  0  0  0  0  0  0
  188.1730  178.0070  141.8520 N   0  0  0  0  0  2  0  0  0  0  0  0
  186.6550  178.0460  146.5360 C   0  0  0  0  0  3  0  0  0  0  0  0
  188.2190  177.5780  148.4320 C   0  0  0  0  0  1  0  0  0  0  0  0
  184.7120  178.2780  143.3050 C   0  0  0  0  0  2  0  0  0  0  0  0
  188.6620  177.4500  144.6750 C   0  0  0  0  0  3  0  0  0  0  0  0
  188.9270  177.3590  146.0470 C   0  0  0  0  0  3  0  0  0  0  0  0
  187.0940  178.0300  142.7980 C   0  0  0  0  0  0  0  0  0  0  0  0
  187.9270  177.6640  146.9770 C   0  0  0  0  0  0  0  0  0  0  0  0
  186.3840  178.1160  145.1650 C   0  0  0  0  0  0  0  0  0  0  0  0
  187.0090  178.7880  139.9730 O   0  0  0  0  0  0  0  0  0  0  0  0
  187.3870  177.8280  144.2310 C   0  0  0  0  0  0  0  0  0  0  0  0
  185.0980  178.5230  144.6950 N   0  0  0  0  0  2  0  0  0  0  0  0
  188.0880  178.3540  140.4620 C   0  0  0  0  0  0  0  0  0  0  0  0
  190.0700  176.9110  139.8600 C   0  0  0  0  0  1  0  0  0  0  0  0
  189.2800  178.1860  139.5630 C   0  0  1  0  0  3  0  0  0  0  0  0
  188.9690  179.6460  137.6780 O   0  0  0  0  0  1  0  0  0  0  0  0
  188.9010  178.3090  138.0780 C   0  0  1  0  0  3  0  0  0  0  0  0
  189.3560  177.6660  135.7130 C   0  0  0  0  0  2  0  0  0  0  0  0
  188.8740  176.4280  136.4500 C   0  0  2  0  0  3  0  0  0  0  0  0
  189.7680  177.4460  137.1610 C   0  0  2  0  0  3  0  0  0  0  0  0
  192.3720  174.3730  136.7210 O   0  0  0  0  0  0  0  0  0  0  0  0
  189.6130  175.1970  135.9050 C   0  0  2  0  0  3  0  0  0  0  0  0
  190.0000  174.2880  137.0520 C   0  0  0  0  0  2  0  0  0  0  0  0
  191.2420  173.5370  136.5960 C   0  0  1  0  0  3  0  0  0  0  0  0
  191.8090  174.2700  135.4330 C   0  0  1  0  0  3  0  0  0  0  0  0
  190.9170  175.4730  135.1700 C   0  0  0  0  0  2  0  0  0  0  0  0
  1  8  2  0  0  0  0
  1  5  1  0  0  0  0
  2  8  1  0  0  0  0
  3  9  1  0  0  0  0
  5 13  1  0  0  0  0
  6  7  1  0  0  0  0
  7  9  2  0  0  0  0
  8 12  1  0  0  0  0
  9  4  1  0  0  0  0
 10  3  2  0  0  0  0
 11 14  2  0  0  0  0
 12  6  2  0  0  0  0
 12 10  1  0  0  0  0
 13 10  1  0  0  0  0
 14  2  1  0  0  0  0
 16 15  1  6  0  0  0
 16 14  1  0  0  0  0
 18 17  1  6  0  0  0
 18 16  1  0  0  0  0
 19 21  1  0  0  0  0
 20 19  1  6  0  0  0
 20 21  1  0  0  0  0
 21 18  1  1  0  0  0
 23 27  1  1  0  0  0
 23 20  1  0  0  0  0
 23 24  1  0  0  0  0
 25 22  1  0  0  0  0
 25 24  1  1  0  0  0
 26 27  1  1  0  0  0
 26 25  1  0  0  0  0
 26 22  1  0  0  0  0
M  END
>  <MODEL>
8

>  <REMARK>
 VINA RESULT:      -8.1      2.733      4.862
  Name = 
  4 active torsions:
  status: ('A' for Active; 'I' for Inactive)
    1  A    between atoms: C_9  and  C_15
    2  A    between atoms: C_20  and  C_22
    3  A    between atoms: C_20  and  C_26
    4  A    between atoms: C_22  and  C_24
                            x       y       z     vdW  Elec       q    Type
                         _______ _______ _______ _____ _____    ______ ____

>  <TORSDO>
F 4

$$$$
=
 OpenBabel10272401023D

 27 31  0  0  1  0  0  0  0  0999 V2000
  185.4380  178.7040  140.0000 N   0  0  0  0  0  0  0  0  0  0  0  0
  183.9410  178.5600  141.8460 N   0  0  0  0  0  2  0  0  0  0  0  0
  182.6780  176.9190  137.3790 C   0  0  0  0  0  3  0  0  0  0  0  0
  180.5130  175.7310  136.9750 C   0  0  0  0  0  1  0  0  0  0  0  0
  185.9170  178.3920  138.6470 C   0  0  0  0  0  2  0  0  0  0  0  0
  182.1790  176.9840  140.1340 C   0  0  0  0  0  3  0  0  0  0  0  0
  181.2570  176.3840  139.2680 C   0  0  0  0  0  3  0  0  0  0  0  0
  184.3100  178.2690  140.4900 C   0  0  0  0  0  0  0  0  0  0  0  0
  181.5030  176.3580  137.8900 C   0  0  0  0  0  0  0  0  0  0  0  0
  183.6090  177.4990  138.2470 C   0  0  0  0  0  0  0  0  0  0  0  0
  185.6970  180.0190  142.3810 O   0  0  0  0  0  0  0  0  0  0  0  0
  183.3590  177.5420  139.6240 C   0  0  0  0  0  0  0  0  0  0  0  0
  184.8060  178.0940  137.7420 N   0  0  0  0  0  2  0  0  0  0  0  0
  184.6650  179.3980  142.7590 C   0  0  0  0  0  0  0  0  0  0  0  0
  182.9100  178.7870  144.4680 C   0  0  0  0  0  1  0  0  0  0  0  0
  184.2140  179.5340  144.1860 C   0  0  1  0  0  3  0  0  0  0  0  0
  184.8240  179.1550  146.4810 O   0  0  0  0  0  1  0  0  0  0  0  0
  185.3280  179.1640  145.1780 C   0  0  1  0  0  3  0  0  0  0  0  0
  186.8120  177.3670  146.0650 C   0  0  0  0  0  2  0  0  0  0  0  0
  187.5110  178.0090  144.8780 C   0  0  2  0  0  3  0  0  0  0  0  0
  185.9930  177.8230  144.8660 C   0  0  2  0  0  3  0  0  0  0  0  0
  190.7610  177.4550  142.4980 O   0  0  0  0  0  0  0  0  0  0  0  0
  188.2950  176.9330  144.1120 C   0  0  2  0  0  3  0  0  0  0  0  0
  189.7300  176.9120  144.5920 C   0  0  0  0  0  2  0  0  0  0  0  0
  190.5600  176.4080  143.4230 C   0  0  1  0  0  3  0  0  0  0  0  0
  189.7330  176.5400  142.1940 C   0  0  1  0  0  3  0  0  0  0  0  0
  188.3920  177.1250  142.6050 C   0  0  0  0  0  2  0  0  0  0  0  0
  1  8  2  0  0  0  0
  2 14  1  0  0  0  0
  3  9  2  0  0  0  0
  3 10  1  0  0  0  0
  4  9  1  0  0  0  0
  5  1  1  0  0  0  0
  7  6  2  0  0  0  0
  8  2  1  0  0  0  0
  9  7  1  0  0  0  0
 10 12  2  0  0  0  0
 11 14  2  0  0  0  0
 12  6  1  0  0  0  0
 12  8  1  0  0  0  0
 13 10  1  0  0  0  0
 13  5  1  0  0  0  0
 14 16  1  0  0  0  0
 16 15  1  6  0  0  0
 16 18  1  0  0  0  0
 18 17  1  1  0  0  0
 20 19  1  1  0  0  0
 21 20  1  0  0  0  0
 21 18  1  1  0  0  0
 21 19  1  0  0  0  0
 22 25  1  0  0  0  0
 23 27  1  6  0  0  0
 23 24  1  0  0  0  0
 23 20  1  0  0  0  0
 25 24  1  1  0  0  0
 26 22  1  0  0  0  0
 26 27  1  1  0  0  0
 26 25  1  0  0  0  0
M  END
>  <MODEL>
9

>  <REMARK>
 VINA RESULT:      -8.0      3.410      6.381
  Name = 
  4 active torsions:
  status: ('A' for Active; 'I' for Inactive)
    1  A    between atoms: C_9  and  C_15
    2  A    between atoms: C_20  and  C_22
    3  A    between atoms: C_20  and  C_26
    4  A    between atoms: C_22  and  C_24
                            x       y       z     vdW  Elec       q    Type
                         _______ _______ _______ _____ _____    ______ ____

>  <TORSDO>
F 4

$$$$
