=
 OpenBabel10272400013D

 34 40  0  0  1  0  0  0  0  0999 V2000
  189.6540  176.8950  136.9650 C   0  0  2  0  0  3  0  0  0  0  0  0
  187.9630  178.3960  137.5660 C   0  0  2  0  0  3  0  0  0  0  0  0
  189.4490  177.5270  139.3680 C   0  0  1  0  0  3  0  0  0  0  0  0
  188.4770  178.0350  141.7780 C   0  0  2  0  0  0  0  0  0  0  0  0
  187.5360  177.5490  136.4610 N   0  0  0  0  0  0  0  0  0  0  0  0
  187.1570  178.4300  135.3670 C   0  0  0  0  0  1  0  0  0  0  0  0
  187.2550  178.4990  139.9120 C   0  0  0  0  0  0  0  0  0  0  0  0
  189.1530  177.7110  138.0670 C   0  0  1  0  0  3  0  0  0  0  0  0
  187.1010  178.5050  142.2410 C   0  0  0  0  0  2  0  0  0  0  0  0
  188.6050  176.7960  136.0200 O   0  0  0  0  0  0  0  0  0  0  0  0
  191.0960  175.7270  138.6000 C   0  0  0  0  0  2  0  0  0  0  0  0
  190.0810  175.5220  137.4740 C   0  0  0  0  0  2  0  0  0  0  0  0
  186.9270  178.5150  138.5540 O   0  0  0  0  0  0  0  0  0  0  0  0
  188.9070  176.7160  142.3690 C   0  0  0  0  0  2  0  0  0  0  0  0
  189.7540  177.9740  142.5930 C   0  0  2  0  0  3  0  0  0  0  0  0
  186.4280  178.7450  140.9180 C   0  0  0  0  0  0  0  0  0  0  0  0
  188.5470  178.1060  140.3280 N   0  0  0  0  0  0  0  0  0  0  0  0
  190.4820  176.5030  139.7790 C   0  0  0  0  0  2  0  0  0  0  0  0
  189.5270  178.4850  144.0060 C   0  0  0  0  0  2  0  0  0  0  0  0
  191.4490  176.8280  147.4320 N   0  0  0  0  0  2  0  0  0  0  0  0
  191.9170  176.3650  146.1270 C   0  0  0  0  0  2  0  0  0  0  0  0
  191.4780  177.3380  145.0350 C   0  0  0  0  0  2  0  0  0  0  0  0
  189.4460  177.8100  146.4180 C   0  0  0  0  0  2  0  0  0  0  0  0
  189.9560  177.4420  145.0240 C   0  0  0  0  0  3  0  0  0  0  0  0
  189.9870  176.8120  147.4400 C   0  0  0  0  0  2  0  0  0  0  0  0
  184.9870  179.0920  140.7570 C   0  0  0  0  0  2  0  0  0  0  0  0
  183.9400  177.7350  141.3730 S   0  0  0  0  0  0  0  0  0  0  0  0
  182.7080  178.8800  142.0510 C   0  0  0  0  0  2  0  0  0  0  0  0
  182.8120  178.9000  143.5630 C   0  0  0  0  0  2  0  0  0  0  0  0
  184.0790  178.4640  143.9480 O   0  0  0  0  0  0  0  0  0  0  0  0
  186.0290  177.4440  145.4800 C   0  0  0  0  0  1  0  0  0  0  0  0
  185.5970  178.8730  145.7810 C   0  0  1  0  0  3  0  0  0  0  0  0
  184.4970  179.3920  144.9100 C   0  0  2  0  0  3  0  0  0  0  0  0
  184.2500  178.8730  146.1950 O   0  0  0  0  0  0  0  0  0  0  0  0
  1 12  1  1  0  0  0
  1  8  1  0  0  0  0
  2  8  1  0  0  0  0
  2 13  1  1  0  0  0
  3 18  1  1  0  0  0
  3 17  1  0  0  0  0
  4  9  1  1  0  0  0
  4 14  1  0  0  0  0
  4 15  1  0  0  0  0
  5  2  1  0  0  0  0
  6  5  1  0  0  0  0
  7 17  1  0  0  0  0
  7 16  2  0  0  0  0
  8  3  1  0  0  0  0
 10  5  1  0  0  0  0
 10  1  1  0  0  0  0
 11 18  1  0  0  0  0
 12 11  1  0  0  0  0
 13  7  1  0  0  0  0
 14 15  1  0  0  0  0
 15 19  1  0  0  0  0
 16  9  1  0  0  0  0
 17  4  1  0  0  0  0
 19 24  1  0  0  0  0
 20 25  1  0  0  0  0
 21 20  1  0  0  0  0
 22 21  1  0  0  0  0
 23 25  1  0  0  0  0
 24 22  1  0  0  0  0
 24 23  1  0  0  0  0
 26 16  1  0  0  0  0
 26 27  1  0  0  0  0
 27 28  1  0  0  0  0
 28 29  1  0  0  0  0
 29 30  1  0  0  0  0
 30 33  1  0  0  0  0
 31 32  1  0  0  0  0
 32 34  1  0  0  0  0
 33 32  1  0  0  0  0
 33 34  1  0  0  0  0
M  END
>  <MODEL>
1

>  <REMARK>
 VINA RESULT:      -8.5      0.000      0.000
  Name = 
  8 active torsions:
  status: ('A' for Active; 'I' for Inactive)
    1  A    between atoms: S_3  and  C_13
    2  A    between atoms: S_3  and  C_17
    3  A    between atoms: C_12  and  C_27
    4  A    between atoms: C_12  and  C_28
    5  A    between atoms: C_13  and  C_33
    6  A    between atoms: C_17  and  C_29
    7  A    between atoms: C_20  and  O_34
    8  A    between atoms: C_33  and  O_34
                            x       y       z     vdW  Elec       q    Type
                         _______ _______ _______ _____ _____    ______ ____

>  <TORSDO>
F 8

$$$$
=
 OpenBabel10272400013D

 34 40  0  0  1  0  0  0  0  0999 V2000
  189.5920  176.9380  136.9750 C   0  0  2  0  0  3  0  0  0  0  0  0
  190.6760  176.1190  138.8790 C   0  0  2  0  0  3  0  0  0  0  0  0
  188.5110  177.3120  139.1900 C   0  0  1  0  0  3  0  0  0  0  0  0
  188.0890  177.9460  141.7260 C   0  0  2  0  0  0  0  0  0  0  0  0
  191.6410  176.5480  137.8770 N   0  0  0  0  0  0  0  0  0  0  0  0
  192.4950  175.4060  137.5850 C   0  0  0  0  0  1  0  0  0  0  0  0
  190.0770  177.0460  141.0690 C   0  0  0  0  0  0  0  0  0  0  0  0
  189.4250  176.7080  138.4070 C   0  0  1  0  0  3  0  0  0  0  0  0
  189.0140  177.9520  142.9400 C   0  0  0  0  0  2  0  0  0  0  0  0
  190.9800  176.8650  136.7070 O   0  0  0  0  0  0  0  0  0  0  0  0
  187.5610  178.3470  137.0520 C   0  0  0  0  0  2  0  0  0  0  0  0
  189.0170  178.2950  136.5850 C   0  0  0  0  0  2  0  0  0  0  0  0
  191.0540  176.5790  140.1870 O   0  0  0  0  0  0  0  0  0  0  0  0
  187.4670  179.2850  141.4200 C   0  0  0  0  0  2  0  0  0  0  0  0
  186.5780  178.0710  141.7160 C   0  0  2  0  0  3  0  0  0  0  0  0
  190.2600  177.3590  142.3440 C   0  0  0  0  0  0  0  0  0  0  0  0
  188.7700  177.3190  140.6040 N   0  0  0  0  0  0  0  0  0  0  0  0
  187.4530  178.2040  138.5800 C   0  0  0  0  0  2  0  0  0  0  0  0
  186.0290  178.1860  143.1290 C   0  0  0  0  0  2  0  0  0  0  0  0
  181.9400  179.3690  142.8920 N   0  0  0  0  0  2  0  0  0  0  0  0
  182.4030  178.8560  144.1800 C   0  0  0  0  0  2  0  0  0  0  0  0
  183.9270  178.9030  144.2470 C   0  0  0  0  0  2  0  0  0  0  0  0
  183.9450  178.5060  141.7760 C   0  0  0  0  0  2  0  0  0  0  0  0
  184.5150  178.0570  143.1220 C   0  0  0  0  0  3  0  0  0  0  0  0
  182.4190  178.4790  141.8340 C   0  0  0  0  0  2  0  0  0  0  0  0
  191.5670  177.2520  143.0560 C   0  0  0  0  0  2  0  0  0  0  0  0
  191.4830  178.1130  144.6580 S   0  0  0  0  0  0  0  0  0  0  0  0
  191.6860  176.5730  145.5930 C   0  0  0  0  0  2  0  0  0  0  0  0
  190.9810  176.6930  146.9290 C   0  0  0  0  0  2  0  0  0  0  0  0
  189.6030  176.7370  146.7260 O   0  0  0  0  0  0  0  0  0  0  0  0
  187.2530  178.0050  146.4820 C   0  0  0  0  0  1  0  0  0  0  0  0
  187.7460  177.7420  147.8990 C   0  0  1  0  0  3  0  0  0  0  0  0
  189.0670  177.0460  147.9820 C   0  0  2  0  0  3  0  0  0  0  0  0
  188.9510  178.4430  148.1070 O   0  0  0  0  0  0  0  0  0  0  0  0
  1 12  1  1  0  0  0
  1  8  1  0  0  0  0
  2 13  1  1  0  0  0
  3 18  1  6  0  0  0
  3 17  1  0  0  0  0
  4 14  1  6  0  0  0
  4  9  1  0  0  0  0
  5  2  1  0  0  0  0
  6  5  1  0  0  0  0
  7 16  2  0  0  0  0
  8  2  1  0  0  0  0
  8  3  1  0  0  0  0
 10  1  1  0  0  0  0
 10  5  1  0  0  0  0
 11 18  1  0  0  0  0
 12 11  1  0  0  0  0
 13  7  1  0  0  0  0
 14 15  1  0  0  0  0
 15  4  1  0  0  0  0
 15 19  1  0  0  0  0
 16  9  1  0  0  0  0
 16 26  1  0  0  0  0
 17  7  1  0  0  0  0
 17  4  1  0  0  0  0
 20 21  1  0  0  0  0
 21 22  1  0  0  0  0
 23 25  1  0  0  0  0
 23 24  1  0  0  0  0
 24 19  1  0  0  0  0
 24 22  1  0  0  0  0
 25 20  1  0  0  0  0
 26 27  1  0  0  0  0
 27 28  1  0  0  0  0
 28 29  1  0  0  0  0
 30 29  1  0  0  0  0
 30 33  1  0  0  0  0
 31 32  1  0  0  0  0
 32 33  1  0  0  0  0
 32 34  1  0  0  0  0
 33 34  1  0  0  0  0
M  END
>  <MODEL>
2

>  <REMARK>
 VINA RESULT:      -8.3      2.847      5.675
  Name = 
  8 active torsions:
  status: ('A' for Active; 'I' for Inactive)
    1  A    between atoms: S_3  and  C_13
    2  A    between atoms: S_3  and  C_17
    3  A    between atoms: C_12  and  C_27
    4  A    between atoms: C_12  and  C_28
    5  A    between atoms: C_13  and  C_33
    6  A    between atoms: C_17  and  C_29
    7  A    between atoms: C_20  and  O_34
    8  A    between atoms: C_33  and  O_34
                            x       y       z     vdW  Elec       q    Type
                         _______ _______ _______ _____ _____    ______ ____

>  <TORSDO>
F 8

$$$$
=
 OpenBabel10272400013D

 34 40  0  0  1  0  0  0  0  0999 V2000
  191.6890  177.1110  141.8500 C   0  0  2  0  0  3  0  0  0  0  0  0
  189.4540  177.3430  142.5010 C   0  0  2  0  0  3  0  0  0  0  0  0
  189.9380  177.0170  140.0780 C   0  0  1  0  0  3  0  0  0  0  0  0
  187.8320  177.5620  138.5690 C   0  0  2  0  0  0  0  0  0  0  0  0
  190.3260  178.1440  143.3470 N   0  0  0  0  0  0  0  0  0  0  0  0
  190.0980  177.7220  144.7210 C   0  0  0  0  0  1  0  0  0  0  0  0
  187.7920  177.9710  140.8100 C   0  0  0  0  0  0  0  0  0  0  0  0
  190.3150  176.9980  141.3710 C   0  0  1  0  0  3  0  0  0  0  0  0
  186.5150  178.2670  138.8790 C   0  0  0  0  0  2  0  0  0  0  0  0
  191.6440  177.8580  143.0510 O   0  0  0  0  0  0  0  0  0  0  0  0
  192.4290  177.0090  139.4920 C   0  0  0  0  0  2  0  0  0  0  0  0
  192.5630  177.7900  140.8010 C   0  0  0  0  0  2  0  0  0  0  0  0
  188.2890  178.0870  142.1110 O   0  0  0  0  0  0  0  0  0  0  0  0
  188.6310  178.2090  137.4650 C   0  0  0  0  0  2  0  0  0  0  0  0
  188.1770  176.7500  137.3360 C   0  0  2  0  0  3  0  0  0  0  0  0
  186.6530  178.4790  140.3610 C   0  0  0  0  0  0  0  0  0  0  0  0
  188.5650  177.3450  139.8060 N   0  0  0  0  0  0  0  0  0  0  0  0
  190.9780  177.0120  138.9800 C   0  0  0  0  0  2  0  0  0  0  0  0
  186.9960  176.6760  136.3820 C   0  0  0  0  0  2  0  0  0  0  0  0
  185.5450  172.9970  137.9740 N   0  0  0  0  0  2  0  0  0  0  0  0
  186.7280  172.9220  137.1190 C   0  0  0  0  0  2  0  0  0  0  0  0
  187.3790  174.2980  137.0010 C   0  0  0  0  0  2  0  0  0  0  0  0
  185.0890  175.2850  137.2230 C   0  0  0  0  0  2  0  0  0  0  0  0
  186.3810  175.2860  136.4040 C   0  0  0  0  0  3  0  0  0  0  0  0
  184.5540  173.8590  137.3300 C   0  0  0  0  0  2  0  0  0  0  0  0
  185.6970  179.2650  141.1930 C   0  0  0  0  0  2  0  0  0  0  0  0
  184.0190  178.5740  141.0460 S   0  0  0  0  0  0  0  0  0  0  0  0
  183.7760  178.5590  142.8430 C   0  0  0  0  0  2  0  0  0  0  0  0
  184.9260  179.2800  143.5160 C   0  0  0  0  0  2  0  0  0  0  0  0
  185.4160  178.5000  144.5630 O   0  0  0  0  0  0  0  0  0  0  0  0
  186.8850  177.6140  146.6230 C   0  0  0  0  0  1  0  0  0  0  0  0
  185.9820  178.8100  146.8910 C   0  0  1  0  0  3  0  0  0  0  0  0
  185.1720  179.2580  145.7160 C   0  0  2  0  0  3  0  0  0  0  0  0
  184.6380  178.4250  146.7160 O   0  0  0  0  0  0  0  0  0  0  0  0
  1 12  1  6  0  0  0
  1 10  1  0  0  0  0
  2 13  1  6  0  0  0
  2  5  1  0  0  0  0
  3 18  1  6  0  0  0
  3  8  1  0  0  0  0
  4 14  1  6  0  0  0
  4  9  1  0  0  0  0
  4 17  1  0  0  0  0
  5  6  1  0  0  0  0
  7 13  1  0  0  0  0
  8  1  1  0  0  0  0
  8  2  1  0  0  0  0
  9 16  1  0  0  0  0
 10  5  1  0  0  0  0
 11 12  1  0  0  0  0
 15 14  1  0  0  0  0
 15  4  1  0  0  0  0
 16  7  2  0  0  0  0
 16 26  1  0  0  0  0
 17  3  1  0  0  0  0
 17  7  1  0  0  0  0
 18 11  1  0  0  0  0
 19 24  1  0  0  0  0
 19 15  1  0  0  0  0
 21 20  1  0  0  0  0
 22 21  1  0  0  0  0
 23 25  1  0  0  0  0
 24 22  1  0  0  0  0
 24 23  1  0  0  0  0
 25 20  1  0  0  0  0
 27 26  1  0  0  0  0
 27 28  1  0  0  0  0
 28 29  1  0  0  0  0
 29 30  1  0  0  0  0
 30 33  1  0  0  0  0
 31 32  1  0  0  0  0
 33 34  1  0  0  0  0
 33 32  1  0  0  0  0
 34 32  1  0  0  0  0
M  END
>  <MODEL>
3

>  <REMARK>
 VINA RESULT:      -7.7      2.606      5.896
  Name = 
  8 active torsions:
  status: ('A' for Active; 'I' for Inactive)
    1  A    between atoms: S_3  and  C_13
    2  A    between atoms: S_3  and  C_17
    3  A    between atoms: C_12  and  C_27
    4  A    between atoms: C_12  and  C_28
    5  A    between atoms: C_13  and  C_33
    6  A    between atoms: C_17  and  C_29
    7  A    between atoms: C_20  and  O_34
    8  A    between atoms: C_33  and  O_34
                            x       y       z     vdW  Elec       q    Type
                         _______ _______ _______ _____ _____    ______ ____

>  <TORSDO>
F 8

$$$$
=
 OpenBabel10272400013D

 34 40  0  0  1  0  0  0  0  0999 V2000
  189.3430  176.9230  146.1110 C   0  0  2  0  0  3  0  0  0  0  0  0
  187.3320  177.2930  144.9730 C   0  0  2  0  0  3  0  0  0  0  0  0
  189.3760  176.8460  143.6190 C   0  0  1  0  0  3  0  0  0  0  0  0
  189.0140  177.4360  141.0640 C   0  0  2  0  0  0  0  0  0  0  0  0
  187.3890  178.0820  146.1950 N   0  0  0  0  0  0  0  0  0  0  0  0
  186.2240  177.7280  146.9910 C   0  0  0  0  0  1  0  0  0  0  0  0
  187.4150  177.9360  142.6080 C   0  0  0  0  0  0  0  0  0  0  0  0
  188.7160  176.8600  144.7940 C   0  0  1  0  0  3  0  0  0  0  0  0
  187.9170  178.2180  140.3460 C   0  0  0  0  0  2  0  0  0  0  0  0
  188.5020  177.7190  146.9260 O   0  0  0  0  0  0  0  0  0  0  0  0
  191.5330  176.6900  144.9860 C   0  0  0  0  0  2  0  0  0  0  0  0
  190.7440  177.5150  146.0050 C   0  0  0  0  0  2  0  0  0  0  0  0
  186.8430  178.0780  143.8740 O   0  0  0  0  0  0  0  0  0  0  0  0
  190.3990  177.9970  140.8660 C   0  0  0  0  0  2  0  0  0  0  0  0
  190.0820  176.5590  140.4400 C   0  0  2  0  0  3  0  0  0  0  0  0
  186.9720  178.4810  141.4850 C   0  0  0  0  0  0  0  0  0  0  0  0
  188.6310  177.2320  142.4510 N   0  0  0  0  0  0  0  0  0  0  0  0
  190.8840  176.7450  143.5920 C   0  0  0  0  0  2  0  0  0  0  0  0
  189.9320  176.5060  138.9280 C   0  0  0  0  0  2  0  0  0  0  0  0
  192.4830  174.8190  135.9580 N   0  0  0  0  0  2  0  0  0  0  0  0
  191.4740  173.9340  136.5370 C   0  0  0  0  0  2  0  0  0  0  0  0
  190.3830  174.7570  137.2190 C   0  0  0  0  0  2  0  0  0  0  0  0
  192.1420  176.4580  137.7480 C   0  0  0  0  0  2  0  0  0  0  0  0
  191.0010  175.6140  138.3190 C   0  0  0  0  0  3  0  0  0  0  0  0
  193.1440  175.5480  137.0390 C   0  0  0  0  0  2  0  0  0  0  0  0
  185.7610  179.3480  141.3910 C   0  0  0  0  0  2  0  0  0  0  0  0
  184.2890  178.3360  141.0350 S   0  0  0  0  0  0  0  0  0  0  0  0
  183.9320  179.2410  139.5050 C   0  0  0  0  0  2  0  0  0  0  0  0
  184.2100  178.3500  138.3120 C   0  0  0  0  0  2  0  0  0  0  0  0
  185.5790  178.3370  138.0490 O   0  0  0  0  0  0  0  0  0  0  0  0
  187.8520  178.5330  136.6410 C   0  0  0  0  0  1  0  0  0  0  0  0
  187.0450  177.2540  136.4640 C   0  0  1  0  0  3  0  0  0  0  0  0
  185.7790  177.1980  137.2590 C   0  0  2  0  0  3  0  0  0  0  0  0
  185.7920  177.5710  135.9020 O   0  0  0  0  0  0  0  0  0  0  0  0
  1 12  1  6  0  0  0
  1 10  1  0  0  0  0
  2 13  1  6  0  0  0
  2  5  1  0  0  0  0
  3 18  1  1  0  0  0
  3  8  1  0  0  0  0
  4  9  1  6  0  0  0
  4 17  1  0  0  0  0
  5 10  1  0  0  0  0
  5  6  1  0  0  0  0
  7 13  1  0  0  0  0
  8  2  1  0  0  0  0
  8  1  1  0  0  0  0
  9 16  1  0  0  0  0
 11 12  1  0  0  0  0
 14  4  1  0  0  0  0
 15 14  1  0  0  0  0
 15  4  1  0  0  0  0
 16  7  2  0  0  0  0
 17  7  1  0  0  0  0
 17  3  1  0  0  0  0
 18 11  1  0  0  0  0
 19 15  1  0  0  0  0
 20 21  1  0  0  0  0
 20 25  1  0  0  0  0
 21 22  1  0  0  0  0
 22 24  1  0  0  0  0
 23 24  1  0  0  0  0
 24 19  1  0  0  0  0
 25 23  1  0  0  0  0
 26 16  1  0  0  0  0
 27 26  1  0  0  0  0
 28 27  1  0  0  0  0
 29 28  1  0  0  0  0
 30 29  1  0  0  0  0
 32 31  1  0  0  0  0
 32 33  1  0  0  0  0
 33 30  1  0  0  0  0
 34 32  1  0  0  0  0
 34 33  1  0  0  0  0
M  END
>  <MODEL>
4

>  <REMARK>
 VINA RESULT:      -7.6      2.146      7.202
  Name = 
  8 active torsions:
  status: ('A' for Active; 'I' for Inactive)
    1  A    between atoms: S_3  and  C_13
    2  A    between atoms: S_3  and  C_17
    3  A    between atoms: C_12  and  C_27
    4  A    between atoms: C_12  and  C_28
    5  A    between atoms: C_13  and  C_33
    6  A    between atoms: C_17  and  C_29
    7  A    between atoms: C_20  and  O_34
    8  A    between atoms: C_33  and  O_34
                            x       y       z     vdW  Elec       q    Type
                         _______ _______ _______ _____ _____    ______ ____

>  <TORSDO>
F 8

$$$$
=
 OpenBabel10272400013D

 34 40  0  0  1  0  0  0  0  0999 V2000
  189.7800  176.9050  136.8840 C   0  0  2  0  0  3  0  0  0  0  0  0
  188.0580  178.3410  137.5500 C   0  0  2  0  0  3  0  0  0  0  0  0
  189.6380  177.5250  139.2950 C   0  0  1  0  0  3  0  0  0  0  0  0
  188.7340  177.9910  141.7390 C   0  0  2  0  0  0  0  0  0  0  0  0
  187.6240  177.4820  136.4580 N   0  0  0  0  0  0  0  0  0  0  0  0
  187.1730  178.3500  135.3810 C   0  0  0  0  0  1  0  0  0  0  0  0
  187.4300  178.4130  139.9190 C   0  0  0  0  0  0  0  0  0  0  0  0
  189.2890  177.7000  138.0060 C   0  0  1  0  0  3  0  0  0  0  0  0
  187.3590  178.4070  142.2530 C   0  0  0  0  0  2  0  0  0  0  0  0
  188.7030  176.7690  135.9760 O   0  0  0  0  0  0  0  0  0  0  0  0
  191.3230  175.7890  138.4620 C   0  0  0  0  0  2  0  0  0  0  0  0
  190.2770  175.5490  137.3720 C   0  0  0  0  0  2  0  0  0  0  0  0
  187.0540  178.4190  138.5750 O   0  0  0  0  0  0  0  0  0  0  0  0
  189.2350  176.6870  142.3100 C   0  0  0  0  0  2  0  0  0  0  0  0
  190.0410  177.9760  142.5080 C   0  0  2  0  0  3  0  0  0  0  0  0
  186.6310  178.6250  140.9560 C   0  0  0  0  0  0  0  0  0  0  0  0
  188.7500  178.0670  140.2880 N   0  0  0  0  0  0  0  0  0  0  0  0
  190.7230  176.5380  139.6650 C   0  0  0  0  0  2  0  0  0  0  0  0
  189.8450  178.4750  143.9310 C   0  0  0  0  0  2  0  0  0  0  0  0
  191.2060  176.5490  147.4830 N   0  0  0  0  0  2  0  0  0  0  0  0
  191.8600  176.1630  146.2330 C   0  0  0  0  0  2  0  0  0  0  0  0
  191.6030  177.2160  145.1590 C   0  0  0  0  0  2  0  0  0  0  0  0
  189.3920  177.6420  146.2500 C   0  0  0  0  0  2  0  0  0  0  0  0
  190.1020  177.3560  144.9260 C   0  0  0  0  0  3  0  0  0  0  0  0
  189.7600  176.5660  147.2700 C   0  0  0  0  0  2  0  0  0  0  0  0
  185.1730  178.9180  140.8470 C   0  0  0  0  0  2  0  0  0  0  0  0
  184.3150  178.4210  142.3740 S   0  0  0  0  0  0  0  0  0  0  0  0
  182.6940  178.4130  141.5610 C   0  0  0  0  0  2  0  0  0  0  0  0
  182.8720  178.6260  140.0720 C   0  0  0  0  0  2  0  0  0  0  0  0
  182.4100  177.5040  139.3830 O   0  0  0  0  0  0  0  0  0  0  0  0
  183.1520  175.2730  138.0950 C   0  0  0  0  0  1  0  0  0  0  0  0
  183.0960  176.5530  137.2720 C   0  0  1  0  0  3  0  0  0  0  0  0
  182.6910  177.7730  138.0380 C   0  0  2  0  0  3  0  0  0  0  0  0
  184.0400  177.4700  137.7750 O   0  0  0  0  0  0  0  0  0  0  0  0
  1 12  1  1  0  0  0
  1  8  1  0  0  0  0
  2  8  1  0  0  0  0
  2 13  1  1  0  0  0
  3 18  1  1  0  0  0
  3 17  1  0  0  0  0
  4  9  1  1  0  0  0
  4 14  1  0  0  0  0
  4 15  1  0  0  0  0
  5  2  1  0  0  0  0
  6  5  1  0  0  0  0
  7 17  1  0  0  0  0
  7 16  2  0  0  0  0
  8  3  1  0  0  0  0
 10  5  1  0  0  0  0
 10  1  1  0  0  0  0
 11 18  1  0  0  0  0
 12 11  1  0  0  0  0
 13  7  1  0  0  0  0
 14 15  1  0  0  0  0
 15 19  1  0  0  0  0
 16  9  1  0  0  0  0
 17  4  1  0  0  0  0
 19 24  1  0  0  0  0
 21 20  1  0  0  0  0
 22 21  1  0  0  0  0
 23 25  1  0  0  0  0
 24 22  1  0  0  0  0
 24 23  1  0  0  0  0
 25 20  1  0  0  0  0
 26 16  1  0  0  0  0
 26 27  1  0  0  0  0
 28 27  1  0  0  0  0
 29 28  1  0  0  0  0
 30 29  1  0  0  0  0
 32 34  1  0  0  0  0
 32 33  1  0  0  0  0
 32 31  1  0  0  0  0
 33 30  1  0  0  0  0
 34 33  1  0  0  0  0
M  END
>  <MODEL>
5

>  <REMARK>
 VINA RESULT:      -7.4      1.934      3.058
  Name = 
  8 active torsions:
  status: ('A' for Active; 'I' for Inactive)
    1  A    between atoms: S_3  and  C_13
    2  A    between atoms: S_3  and  C_17
    3  A    between atoms: C_12  and  C_27
    4  A    between atoms: C_12  and  C_28
    5  A    between atoms: C_13  and  C_33
    6  A    between atoms: C_17  and  C_29
    7  A    between atoms: C_20  and  O_34
    8  A    between atoms: C_33  and  O_34
                            x       y       z     vdW  Elec       q    Type
                         _______ _______ _______ _____ _____    ______ ____

>  <TORSDO>
F 8

$$$$
=
 OpenBabel10272400013D

 34 40  0  0  1  0  0  0  0  0999 V2000
  189.3320  176.9710  145.7190 C   0  0  2  0  0  3  0  0  0  0  0  0
  187.3970  177.2360  144.4300 C   0  0  2  0  0  3  0  0  0  0  0  0
  189.5520  176.8520  143.2380 C   0  0  1  0  0  3  0  0  0  0  0  0
  189.3560  177.3810  140.6520 C   0  0  2  0  0  0  0  0  0  0  0  0
  187.3320  178.0490  145.6360 N   0  0  0  0  0  0  0  0  0  0  0  0
  186.1270  177.6600  146.3520 C   0  0  0  0  0  1  0  0  0  0  0  0
  187.6290  177.8410  142.0650 C   0  0  0  0  0  0  0  0  0  0  0  0
  188.8080  176.8590  144.3610 C   0  0  1  0  0  3  0  0  0  0  0  0
  188.2860  178.1050  139.8400 C   0  0  0  0  0  2  0  0  0  0  0  0
  188.4020  177.7450  146.4540 O   0  0  0  0  0  0  0  0  0  0  0  0
  191.6060  176.8100  144.7620 C   0  0  0  0  0  2  0  0  0  0  0  0
  190.7120  177.6190  145.7040 C   0  0  0  0  0  2  0  0  0  0  0  0
  186.9590  177.9810  143.2820 O   0  0  0  0  0  0  0  0  0  0  0  0
  190.7290  177.9970  140.5440 C   0  0  0  0  0  2  0  0  0  0  0  0
  190.5020  176.5390  140.1250 C   0  0  2  0  0  3  0  0  0  0  0  0
  187.2480  178.3480  140.9010 C   0  0  0  0  0  0  0  0  0  0  0  0
  188.8810  177.1860  142.0110 N   0  0  0  0  0  0  0  0  0  0  0  0
  191.0610  176.8140  143.3230 C   0  0  0  0  0  2  0  0  0  0  0  0
  190.4670  176.4540  138.6080 C   0  0  0  0  0  2  0  0  0  0  0  0
  193.3080  174.6960  135.9600 N   0  0  0  0  0  2  0  0  0  0  0  0
  192.1260  173.8980  136.2800 C   0  0  0  0  0  2  0  0  0  0  0  0
  191.0250  174.7920  136.8450 C   0  0  0  0  0  2  0  0  0  0  0  0
  192.8320  176.2300  137.8110 C   0  0  0  0  0  2  0  0  0  0  0  0
  191.5270  175.4880  138.1060 C   0  0  0  0  0  3  0  0  0  0  0  0
  193.8420  175.2620  137.1980 C   0  0  0  0  0  2  0  0  0  0  0  0
  186.0140  179.1610  140.7010 C   0  0  0  0  0  2  0  0  0  0  0  0
  185.2290  178.7350  139.1150 S   0  0  0  0  0  0  0  0  0  0  0  0
  183.6810  178.2360  139.9170 C   0  0  0  0  0  2  0  0  0  0  0  0
  183.9300  177.9930  141.3920 C   0  0  0  0  0  2  0  0  0  0  0  0
  183.0690  178.7890  142.1470 O   0  0  0  0  0  0  0  0  0  0  0  0
  181.1650  178.7830  144.0340 C   0  0  0  0  0  1  0  0  0  0  0  0
  182.6090  178.7900  144.5180 C   0  0  1  0  0  3  0  0  0  0  0  0
  183.6340  178.8080  143.4280 C   0  0  2  0  0  3  0  0  0  0  0  0
  183.2330  179.9800  144.0960 O   0  0  0  0  0  0  0  0  0  0  0  0
  1 12  1  6  0  0  0
  1 10  1  0  0  0  0
  2 13  1  6  0  0  0
  2  5  1  0  0  0  0
  3 18  1  1  0  0  0
  3  8  1  0  0  0  0
  4  9  1  6  0  0  0
  4 17  1  0  0  0  0
  5  6  1  0  0  0  0
  5 10  1  0  0  0  0
  7 13  1  0  0  0  0
  8  2  1  0  0  0  0
  8  1  1  0  0  0  0
  9 16  1  0  0  0  0
 11 12  1  0  0  0  0
 14  4  1  0  0  0  0
 15 14  1  0  0  0  0
 15  4  1  0  0  0  0
 16  7  2  0  0  0  0
 17  7  1  0  0  0  0
 17  3  1  0  0  0  0
 18 11  1  0  0  0  0
 19 15  1  0  0  0  0
 20 21  1  0  0  0  0
 20 25  1  0  0  0  0
 21 22  1  0  0  0  0
 22 24  1  0  0  0  0
 23 24  1  0  0  0  0
 24 19  1  0  0  0  0
 25 23  1  0  0  0  0
 26 16  1  0  0  0  0
 27 28  1  0  0  0  0
 27 26  1  0  0  0  0
 28 29  1  0  0  0  0
 29 30  1  0  0  0  0
 30 33  1  0  0  0  0
 31 32  1  0  0  0  0
 33 34  1  0  0  0  0
 33 32  1  0  0  0  0
 34 32  1  0  0  0  0
M  END
>  <MODEL>
6

>  <REMARK>
 VINA RESULT:      -7.4      2.551      6.350
  Name = 
  8 active torsions:
  status: ('A' for Active; 'I' for Inactive)
    1  A    between atoms: S_3  and  C_13
    2  A    between atoms: S_3  and  C_17
    3  A    between atoms: C_12  and  C_27
    4  A    between atoms: C_12  and  C_28
    5  A    between atoms: C_13  and  C_33
    6  A    between atoms: C_17  and  C_29
    7  A    between atoms: C_20  and  O_34
    8  A    between atoms: C_33  and  O_34
                            x       y       z     vdW  Elec       q    Type
                         _______ _______ _______ _____ _____    ______ ____

>  <TORSDO>
F 8

$$$$
=
 OpenBabel10272400013D

 34 40  0  0  1  0  0  0  0  0999 V2000
  189.6010  177.7130  138.6220 C   0  0  2  0  0  3  0  0  0  0  0  0
  187.5390  178.8120  138.7340 C   0  0  2  0  0  3  0  0  0  0  0  0
  188.5210  177.9500  140.8570 C   0  0  1  0  0  3  0  0  0  0  0  0
  186.7530  177.9380  142.8270 C   0  0  2  0  0  0  0  0  0  0  0  0
  187.6660  178.0740  137.4860 N   0  0  0  0  0  0  0  0  0  0  0  0
  187.4820  179.0280  136.4030 C   0  0  0  0  0  1  0  0  0  0  0  0
  186.1190  178.4570  140.7020 C   0  0  0  0  0  0  0  0  0  0  0  0
  188.6220  178.2680  139.5520 C   0  0  1  0  0  3  0  0  0  0  0  0
  185.2360  178.1020  142.8340 C   0  0  0  0  0  2  0  0  0  0  0  0
  188.9500  177.5790  137.3730 O   0  0  0  0  0  0  0  0  0  0  0  0
  190.6570  176.5770  140.5480 C   0  0  0  0  0  2  0  0  0  0  0  0
  190.1160  176.3710  139.1320 C   0  0  0  0  0  2  0  0  0  0  0  0
  186.2420  178.6140  139.3200 O   0  0  0  0  0  0  0  0  0  0  0  0
  187.2340  176.6370  143.4200 C   0  0  0  0  0  2  0  0  0  0  0  0
  187.6910  177.9730  144.0190 C   0  0  2  0  0  3  0  0  0  0  0  0
  184.9840  178.4150  141.3850 C   0  0  0  0  0  0  0  0  0  0  0  0
  187.2640  178.2270  141.4980 N   0  0  0  0  0  0  0  0  0  0  0  0
  189.5570  177.0620  141.5080 C   0  0  0  0  0  2  0  0  0  0  0  0
  186.9280  178.2300  145.3080 C   0  0  0  0  0  2  0  0  0  0  0  0
  189.6490  178.0420  148.5850 N   0  0  0  0  0  2  0  0  0  0  0  0
  189.9400  177.1840  147.4380 C   0  0  0  0  0  2  0  0  0  0  0  0
  189.1770  177.6720  146.2090 C   0  0  0  0  0  2  0  0  0  0  0  0
  187.3750  178.4470  147.7640 C   0  0  0  0  0  2  0  0  0  0  0  0
  187.6790  177.6490  146.4950 C   0  0  0  0  0  3  0  0  0  0  0  0
  188.2300  177.9190  148.9150 C   0  0  0  0  0  2  0  0  0  0  0  0
  183.6280  178.5380  140.7740 C   0  0  0  0  0  2  0  0  0  0  0  0
  183.1690  176.9840  139.9440 S   0  0  0  0  0  0  0  0  0  0  0  0
  181.6490  177.7000  139.2610 C   0  0  0  0  0  2  0  0  0  0  0  0
  181.5590  179.1620  139.6450 C   0  0  0  0  0  2  0  0  0  0  0  0
  180.8430  179.8570  138.6710 O   0  0  0  0  0  0  0  0  0  0  0  0
  180.7200  181.4690  136.5330 C   0  0  0  0  0  1  0  0  0  0  0  0
  180.8570  182.1420  137.8920 C   0  0  1  0  0  3  0  0  0  0  0  0
  180.9360  181.2010  139.0510 C   0  0  2  0  0  3  0  0  0  0  0  0
  182.0860  181.7690  138.4720 O   0  0  0  0  0  0  0  0  0  0  0  0
  1 12  1  1  0  0  0
  1  8  1  0  0  0  0
  2 13  1  1  0  0  0
  2  8  1  0  0  0  0
  3 17  1  0  0  0  0
  3 18  1  6  0  0  0
  4  9  1  1  0  0  0
  4 14  1  0  0  0  0
  4 15  1  0  0  0  0
  5  2  1  0  0  0  0
  6  5  1  0  0  0  0
  7 16  2  0  0  0  0
  7 17  1  0  0  0  0
  8  3  1  0  0  0  0
 10  5  1  0  0  0  0
 10  1  1  0  0  0  0
 11 18  1  0  0  0  0
 12 11  1  0  0  0  0
 13  7  1  0  0  0  0
 14 15  1  0  0  0  0
 15 19  1  0  0  0  0
 16  9  1  0  0  0  0
 17  4  1  0  0  0  0
 19 24  1  0  0  0  0
 20 25  1  0  0  0  0
 21 20  1  0  0  0  0
 22 24  1  0  0  0  0
 22 21  1  0  0  0  0
 23 25  1  0  0  0  0
 24 23  1  0  0  0  0
 26 16  1  0  0  0  0
 27 26  1  0  0  0  0
 28 29  1  0  0  0  0
 28 27  1  0  0  0  0
 30 33  1  0  0  0  0
 30 29  1  0  0  0  0
 31 32  1  0  0  0  0
 32 34  1  0  0  0  0
 32 33  1  0  0  0  0
 34 33  1  0  0  0  0
M  END
>  <MODEL>
7

>  <REMARK>
 VINA RESULT:      -7.3      2.653      3.909
  Name = 
  8 active torsions:
  status: ('A' for Active; 'I' for Inactive)
    1  A    between atoms: S_3  and  C_13
    2  A    between atoms: S_3  and  C_17
    3  A    between atoms: C_12  and  C_27
    4  A    between atoms: C_12  and  C_28
    5  A    between atoms: C_13  and  C_33
    6  A    between atoms: C_17  and  C_29
    7  A    between atoms: C_20  and  O_34
    8  A    between atoms: C_33  and  O_34
                            x       y       z     vdW  Elec       q    Type
                         _______ _______ _______ _____ _____    ______ ____

>  <TORSDO>
F 8

$$$$
=
 OpenBabel10272400013D

 34 40  0  0  1  0  0  0  0  0999 V2000
  180.7950  178.3690  139.4500 C   0  0  2  0  0  3  0  0  0  0  0  0
  182.6750  177.6480  138.2600 C   0  0  2  0  0  3  0  0  0  0  0  0
  182.9570  178.1820  140.6770 C   0  0  1  0  0  3  0  0  0  0  0  0
  185.5090  178.3800  141.3530 C   0  0  2  0  0  0  0  0  0  0  0  0
  181.7910  178.4310  137.4080 N   0  0  0  0  0  0  0  0  0  0  0  0
  181.4440  177.5970  136.2670 C   0  0  0  0  0  1  0  0  0  0  0  0
  184.9020  178.1200  139.1720 C   0  0  0  0  0  0  0  0  0  0  0  0
  182.1810  177.9370  139.6040 C   0  0  1  0  0  3  0  0  0  0  0  0
  186.7780  178.4880  140.5130 C   0  0  0  0  0  2  0  0  0  0  0  0
  180.6180  178.6970  138.0840 O   0  0  0  0  0  0  0  0  0  0  0  0
  180.8750  179.1720  141.7870 C   0  0  0  0  0  2  0  0  0  0  0  0
  180.5070  179.5620  140.3550 C   0  0  0  0  0  2  0  0  0  0  0  0
  184.0460  178.0340  138.0720 O   0  0  0  0  0  0  0  0  0  0  0  0
  185.3000  179.5340  142.3020 C   0  0  0  0  0  2  0  0  0  0  0  0
  185.4070  178.1020  142.8400 C   0  0  2  0  0  3  0  0  0  0  0  0
  186.2120  178.3190  139.1300 C   0  0  0  0  0  0  0  0  0  0  0  0
  184.3790  178.0920  140.4850 N   0  0  0  0  0  0  0  0  0  0  0  0
  182.3700  178.8280  141.9120 C   0  0  0  0  0  2  0  0  0  0  0  0
  186.7830  177.9010  143.4550 C   0  0  0  0  0  2  0  0  0  0  0  0
  187.0880  178.4980  147.6650 N   0  0  0  0  0  2  0  0  0  0  0  0
  187.9200  177.4430  147.0880 C   0  0  0  0  0  2  0  0  0  0  0  0
  188.0480  177.6400  145.5800 C   0  0  0  0  0  2  0  0  0  0  0  0
  185.7460  178.6230  145.6180 C   0  0  0  0  0  2  0  0  0  0  0  0
  186.6630  177.6040  144.9400 C   0  0  0  0  0  3  0  0  0  0  0  0
  185.7350  178.3760  147.1260 C   0  0  0  0  0  2  0  0  0  0  0  0
  186.9980  178.4780  137.8720 C   0  0  0  0  0  2  0  0  0  0  0  0
  188.7630  178.7070  138.2580 S   0  0  0  0  0  0  0  0  0  0  0  0
  189.0020  176.9440  138.6080 C   0  0  0  0  0  2  0  0  0  0  0  0
  190.4300  176.7050  139.0550 C   0  0  0  0  0  2  0  0  0  0  0  0
  190.4330  176.2050  140.3560 O   0  0  0  0  0  0  0  0  0  0  0  0
  189.9590  175.7780  142.9600 C   0  0  0  0  0  1  0  0  0  0  0  0
  190.7220  177.0460  142.6020 C   0  0  1  0  0  3  0  0  0  0  0  0
  190.9490  177.2470  141.1370 C   0  0  2  0  0  3  0  0  0  0  0  0
  189.8950  177.8790  141.8230 O   0  0  0  0  0  0  0  0  0  0  0  0
  1  8  1  0  0  0  0
  1 12  1  1  0  0  0
  2 13  1  1  0  0  0
  2  8  1  0  0  0  0
  3 18  1  6  0  0  0
  4  9  1  6  0  0  0
  4 14  1  0  0  0  0
  4 15  1  0  0  0  0
  5 10  1  0  0  0  0
  5  2  1  0  0  0  0
  6  5  1  0  0  0  0
  7 17  1  0  0  0  0
  8  3  1  0  0  0  0
 10  1  1  0  0  0  0
 11 18  1  0  0  0  0
 12 11  1  0  0  0  0
 13  7  1  0  0  0  0
 14 15  1  0  0  0  0
 15 19  1  0  0  0  0
 16  7  2  0  0  0  0
 16  9  1  0  0  0  0
 17  3  1  0  0  0  0
 17  4  1  0  0  0  0
 19 24  1  0  0  0  0
 21 20  1  0  0  0  0
 22 21  1  0  0  0  0
 23 25  1  0  0  0  0
 24 22  1  0  0  0  0
 24 23  1  0  0  0  0
 25 20  1  0  0  0  0
 26 27  1  0  0  0  0
 26 16  1  0  0  0  0
 27 28  1  0  0  0  0
 28 29  1  0  0  0  0
 29 30  1  0  0  0  0
 30 33  1  0  0  0  0
 32 31  1  0  0  0  0
 33 34  1  0  0  0  0
 33 32  1  0  0  0  0
 34 32  1  0  0  0  0
M  END
>  <MODEL>
8

>  <REMARK>
 VINA RESULT:      -7.3      3.019      6.148
  Name = 
  8 active torsions:
  status: ('A' for Active; 'I' for Inactive)
    1  A    between atoms: S_3  and  C_13
    2  A    between atoms: S_3  and  C_17
    3  A    between atoms: C_12  and  C_27
    4  A    between atoms: C_12  and  C_28
    5  A    between atoms: C_13  and  C_33
    6  A    between atoms: C_17  and  C_29
    7  A    between atoms: C_20  and  O_34
    8  A    between atoms: C_33  and  O_34
                            x       y       z     vdW  Elec       q    Type
                         _______ _______ _______ _____ _____    ______ ____

>  <TORSDO>
F 8

$$$$
=
 OpenBabel10272400013D

 34 40  0  0  1  0  0  0  0  0999 V2000
  184.0560  179.0390  142.6890 C   0  0  2  0  0  3  0  0  0  0  0  0
  186.1800  178.7350  143.6200 C   0  0  2  0  0  3  0  0  0  0  0  0
  185.9940  178.8100  141.1370 C   0  0  1  0  0  3  0  0  0  0  0  0
  188.2020  177.9540  139.9550 C   0  0  2  0  0  0  0  0  0  0  0  0
  185.1590  178.0980  144.4390 N   0  0  0  0  0  0  0  0  0  0  0  0
  185.2680  178.6590  145.7770 C   0  0  0  0  0  1  0  0  0  0  0  0
  187.9630  177.8050  142.2160 C   0  0  0  0  0  0  0  0  0  0  0  0
  185.4790  179.0040  142.3670 C   0  0  1  0  0  3  0  0  0  0  0  0
  189.4170  177.2020  140.4920 C   0  0  0  0  0  2  0  0  0  0  0  0
  183.9090  178.4350  143.9610 O   0  0  0  0  0  0  0  0  0  0  0  0
  183.5910  178.9170  140.2630 C   0  0  0  0  0  2  0  0  0  0  0  0
  183.2520  178.3040  141.6230 C   0  0  0  0  0  2  0  0  0  0  0  0
  187.3180  177.8740  143.4530 O   0  0  0  0  0  0  0  0  0  0  0  0
  187.4810  177.2380  138.8400 C   0  0  0  0  0  2  0  0  0  0  0  0
  188.0620  178.6390  138.6100 C   0  0  2  0  0  3  0  0  0  0  0  0
  189.1000  177.1730  141.9620 C   0  0  0  0  0  0  0  0  0  0  0  0
  187.3580  178.3610  141.0660 N   0  0  0  0  0  0  0  0  0  0  0  0
  185.0850  178.7570  139.9290 C   0  0  0  0  0  2  0  0  0  0  0  0
  189.3420  178.5220  137.7990 C   0  0  0  0  0  2  0  0  0  0  0  0
  187.6010  176.6430  134.3910 N   0  0  0  0  0  2  0  0  0  0  0  0
  189.0520  176.5290  134.5360 C   0  0  0  0  0  2  0  0  0  0  0  0
  189.4620  176.8380  135.9730 C   0  0  0  0  0  2  0  0  0  0  0  0
  187.5260  178.4210  136.0770 C   0  0  0  0  0  2  0  0  0  0  0  0
  189.0230  178.2530  136.3380 C   0  0  0  0  0  3  0  0  0  0  0  0
  187.2130  178.0320  134.6330 C   0  0  0  0  0  2  0  0  0  0  0  0
  189.8930  176.4260  142.9800 C   0  0  0  0  0  2  0  0  0  0  0  0
  191.6030  177.0480  143.0280 S   0  0  0  0  0  0  0  0  0  0  0  0
  191.3490  177.8750  144.6210 C   0  0  0  0  0  2  0  0  0  0  0  0
  191.5960  176.8920  145.7470 C   0  0  0  0  0  2  0  0  0  0  0  0
  190.6930  177.1330  146.7820 O   0  0  0  0  0  0  0  0  0  0  0  0
  188.9200  178.0280  148.5830 C   0  0  0  0  0  1  0  0  0  0  0  0
  188.5460  178.1880  147.1150 C   0  0  1  0  0  3  0  0  0  0  0  0
  189.5600  177.6610  146.1500 C   0  0  2  0  0  3  0  0  0  0  0  0
  188.4280  176.9140  146.5260 O   0  0  0  0  0  0  0  0  0  0  0  0
  1 12  1  6  0  0  0
  1 10  1  0  0  0  0
  2 13  1  6  0  0  0
  2  5  1  0  0  0  0
  3 18  1  1  0  0  0
  3  8  1  0  0  0  0
  4 14  1  6  0  0  0
  4  9  1  0  0  0  0
  4 17  1  0  0  0  0
  5  6  1  0  0  0  0
  7 13  1  0  0  0  0
  8  1  1  0  0  0  0
  8  2  1  0  0  0  0
  9 16  1  0  0  0  0
 10  5  1  0  0  0  0
 11 12  1  0  0  0  0
 15 14  1  0  0  0  0
 15  4  1  0  0  0  0
 16  7  2  0  0  0  0
 16 26  1  0  0  0  0
 17  3  1  0  0  0  0
 17  7  1  0  0  0  0
 18 11  1  0  0  0  0
 19 15  1  0  0  0  0
 20 21  1  0  0  0  0
 20 25  1  0  0  0  0
 21 22  1  0  0  0  0
 22 24  1  0  0  0  0
 23 24  1  0  0  0  0
 24 19  1  0  0  0  0
 25 23  1  0  0  0  0
 26 27  1  0  0  0  0
 27 28  1  0  0  0  0
 28 29  1  0  0  0  0
 29 30  1  0  0  0  0
 32 31  1  0  0  0  0
 33 34  1  0  0  0  0
 33 30  1  0  0  0  0
 33 32  1  0  0  0  0
 34 32  1  0  0  0  0
M  END
>  <MODEL>
9

>  <REMARK>
 VINA RESULT:      -7.2      2.710      7.493
  Name = 
  8 active torsions:
  status: ('A' for Active; 'I' for Inactive)
    1  A    between atoms: S_3  and  C_13
    2  A    between atoms: S_3  and  C_17
    3  A    between atoms: C_12  and  C_27
    4  A    between atoms: C_12  and  C_28
    5  A    between atoms: C_13  and  C_33
    6  A    between atoms: C_17  and  C_29
    7  A    between atoms: C_20  and  O_34
    8  A    between atoms: C_33  and  O_34
                            x       y       z     vdW  Elec       q    Type
                         _______ _______ _______ _____ _____    ______ ____

>  <TORSDO>
F 8

$$$$
