=
 OpenBabel10272413453D

 30 32  0  0  1  0  0  0  0  0999 V2000
  185.1130  178.7170  142.7260 C   0  0  0  0  0  0  0  0  0  0  0  0
  183.8620  179.1230  143.2870 N   0  0  0  0  0  0  0  0  0  0  0  0
  185.2530  178.6970  141.4730 O   0  0  0  0  0  0  0  0  0  0  0  0
  185.7750  177.8890  144.9990 C   0  0  2  0  0  3  0  0  0  0  0  0
  183.6740  179.1660  144.7040 C   0  0  0  0  0  3  0  0  0  0  0  0
  186.2750  178.4160  143.6410 C   0  0  1  0  0  3  0  0  0  0  0  0
  184.5770  178.6340  145.5270 C   0  0  0  0  0  2  0  0  0  0  0  0
  187.6940  178.2000  148.4060 C   0  0  0  0  0  3  0  0  0  0  0  0
  188.8810  177.6950  148.0730 C   0  0  0  0  0  3  0  0  0  0  0  0
  186.5650  178.3570  147.4190 C   0  0  0  0  0  0  0  0  0  0  0  0
  190.2960  176.7560  146.3230 N   0  0  0  0  0  2  0  0  0  0  0  0
  188.0650  177.3320  145.7100 C   0  0  0  0  0  3  0  0  0  0  0  0
  186.1960  179.7010  147.3530 O   0  0  0  0  0  1  0  0  0  0  0  0
  189.1480  177.2440  146.6960 C   0  0  0  0  0  0  0  0  0  0  0  0
  186.8660  177.8360  146.0300 C   0  0  0  0  0  0  0  0  0  0  0  0
  191.7640  177.3710  148.0580 O   0  0  0  0  0  0  0  0  0  0  0  0
  191.4760  176.5780  147.1220 C   0  0  0  0  0  0  0  0  0  0  0  0
  192.3390  175.4820  146.8500 N   0  0  0  0  0  1  0  0  0  0  0  0
  187.2250  177.4020  143.0160 C   0  0  0  0  0  2  0  0  0  0  0  0
  188.3230  178.1220  142.2610 C   0  0  0  0  0  2  0  0  0  0  0  0
  189.5480  176.9170  141.6860 S   0  0  0  0  0  0  0  0  0  0  0  0
  189.3950  177.4550  139.9790 C   0  0  0  0  0  0  0  0  0  0  0  0
  188.2610  178.0140  139.5650 C   0  0  0  0  0  2  0  0  0  0  0  0
  190.6990  176.3980  136.7970 C   0  0  0  0  0  2  0  0  0  0  0  0
  190.4960  177.2070  138.9960 C   0  0  1  0  0  3  0  0  0  0  0  0
  190.9530  175.3170  137.8180 C   0  0  2  0  0  0  0  0  0  0  0  0
  190.9660  175.8830  139.1070 O   0  0  0  0  0  0  0  0  0  0  0  0
  190.0210  177.4670  137.5850 C   0  0  0  0  0  2  0  0  0  0  0  0
  192.2880  174.6600  137.5350 C   0  0  0  0  0  1  0  0  0  0  0  0
  189.9420  174.3590  137.7430 O   0  0  0  0  0  1  0  0  0  0  0  0
  1  2  1  0  0  0  0
  1  6  1  0  0  0  0
  2  5  2  0  0  0  0
  3  1  2  0  0  0  0
  4  7  1  0  0  0  0
  4 15  1  1  0  0  0
  5  7  1  0  0  0  0
  6 19  1  6  0  0  0
  6  4  1  0  0  0  0
  9  8  1  0  0  0  0
 10  8  2  0  0  0  0
 11 14  1  0  0  0  0
 11 17  1  0  0  0  0
 12 15  2  0  0  0  0
 12 14  1  0  0  0  0
 13 10  1  0  0  0  0
 14  9  2  0  0  0  0
 15 10  1  0  0  0  0
 17 16  2  0  0  0  0
 18 17  1  0  0  0  0
 20 19  1  0  0  0  0
 21 20  1  0  0  0  0
 22 21  1  0  0  0  0
 23 22  2  0  0  0  0
 24 28  1  0  0  0  0
 24 26  1  0  0  0  0
 25 27  1  0  0  0  0
 25 22  1  1  0  0  0
 26 29  1  6  0  0  0
 26 27  1  0  0  0  0
 28 25  1  0  0  0  0
 30 26  1  0  0  0  0
M  END
>  <MODEL>
1

>  <REMARK>
 VINA RESULT:      -9.5      0.000      0.000
  Name = 
  7 active torsions:
  status: ('A' for Active; 'I' for Inactive)
    1  A    between atoms: C_1  and  S_4
    2  A    between atoms: C_1  and  C_5
    3  A    between atoms: S_4  and  C_27
    4  A    between atoms: C_5  and  C_22
    5  A    between atoms: C_8  and  C_27
    6  A    between atoms: C_15  and  N_16
    7  A    between atoms: C_19  and  C_29
                            x       y       z     vdW  Elec       q    Type
                         _______ _______ _______ _____ _____    ______ ____

>  <TORSDO>
F 7

$$$$
=
 OpenBabel10272413453D

 30 32  0  0  1  0  0  0  0  0999 V2000
  185.4970  178.5920  142.5990 C   0  0  0  0  0  0  0  0  0  0  0  0
  184.2660  179.1570  143.0570 N   0  0  0  0  0  0  0  0  0  0  0  0
  185.6950  178.4600  141.3610 O   0  0  0  0  0  0  0  0  0  0  0  0
  185.9630  177.8880  144.9610 C   0  0  2  0  0  3  0  0  0  0  0  0
  184.0140  179.3290  144.4550 C   0  0  0  0  0  3  0  0  0  0  0  0
  186.5780  178.2570  143.5970 C   0  0  1  0  0  3  0  0  0  0  0  0
  184.8190  178.7820  145.3640 C   0  0  0  0  0  2  0  0  0  0  0  0
  187.6700  178.0990  148.4870 C   0  0  0  0  0  3  0  0  0  0  0  0
  188.8870  177.6320  148.2060 C   0  0  0  0  0  3  0  0  0  0  0  0
  186.5990  178.2730  147.4400 C   0  0  0  0  0  0  0  0  0  0  0  0
  190.4230  176.7930  146.5070 N   0  0  0  0  0  2  0  0  0  0  0  0
  188.2200  177.3490  145.7850 C   0  0  0  0  0  3  0  0  0  0  0  0
  186.2040  179.6110  147.4060 O   0  0  0  0  0  1  0  0  0  0  0  0
  189.2440  177.2430  146.8300 C   0  0  0  0  0  0  0  0  0  0  0  0
  186.9930  177.8160  146.0530 C   0  0  0  0  0  0  0  0  0  0  0  0
  191.8650  177.4560  148.2470 O   0  0  0  0  0  0  0  0  0  0  0  0
  191.5570  176.6070  147.3680 C   0  0  0  0  0  0  0  0  0  0  0  0
  192.3520  175.4370  147.2240 N   0  0  0  0  0  1  0  0  0  0  0  0
  187.4540  177.1120  143.1040 C   0  0  0  0  0  2  0  0  0  0  0  0
  188.8100  177.6430  142.6910 C   0  0  0  0  0  2  0  0  0  0  0  0
  189.9790  176.2640  142.5490 S   0  0  0  0  0  0  0  0  0  0  0  0
  190.6140  176.8600  140.9780 C   0  0  0  0  0  0  0  0  0  0  0  0
  191.6880  177.6450  140.9580 C   0  0  0  0  0  2  0  0  0  0  0  0
  189.8970  177.3550  137.4880 C   0  0  0  0  0  2  0  0  0  0  0  0
  189.9030  176.5500  139.6970 C   0  0  1  0  0  3  0  0  0  0  0  0
  188.7900  177.9670  138.3110 C   0  0  2  0  0  0  0  0  0  0  0  0
  188.7460  177.3450  139.5730 O   0  0  0  0  0  0  0  0  0  0  0  0
  190.8130  176.7780  138.5130 C   0  0  0  0  0  2  0  0  0  0  0  0
  187.4670  177.7740  137.6000 C   0  0  0  0  0  1  0  0  0  0  0  0
  189.0310  179.3310  138.4750 O   0  0  0  0  0  1  0  0  0  0  0  0
  1  2  1  0  0  0  0
  1  6  1  0  0  0  0
  2  5  2  0  0  0  0
  3  1  2  0  0  0  0
  4  7  1  0  0  0  0
  4 15  1  1  0  0  0
  5  7  1  0  0  0  0
  6 19  1  6  0  0  0
  6  4  1  0  0  0  0
  9  8  1  0  0  0  0
 10  8  2  0  0  0  0
 11 14  1  0  0  0  0
 11 17  1  0  0  0  0
 12 15  2  0  0  0  0
 12 14  1  0  0  0  0
 13 10  1  0  0  0  0
 14  9  2  0  0  0  0
 15 10  1  0  0  0  0
 17 16  2  0  0  0  0
 18 17  1  0  0  0  0
 20 19  1  0  0  0  0
 21 20  1  0  0  0  0
 22 21  1  0  0  0  0
 23 22  2  0  0  0  0
 24 26  1  0  0  0  0
 24 28  1  0  0  0  0
 25 22  1  1  0  0  0
 26 29  1  6  0  0  0
 26 30  1  0  0  0  0
 26 27  1  0  0  0  0
 27 25  1  0  0  0  0
 28 25  1  0  0  0  0
M  END
>  <MODEL>
2

>  <REMARK>
 VINA RESULT:      -9.4      1.204      1.861
  Name = 
  7 active torsions:
  status: ('A' for Active; 'I' for Inactive)
    1  A    between atoms: C_1  and  S_4
    2  A    between atoms: C_1  and  C_5
    3  A    between atoms: S_4  and  C_27
    4  A    between atoms: C_5  and  C_22
    5  A    between atoms: C_8  and  C_27
    6  A    between atoms: C_15  and  N_16
    7  A    between atoms: C_19  and  C_29
                            x       y       z     vdW  Elec       q    Type
                         _______ _______ _______ _____ _____    ______ ____

>  <TORSDO>
F 7

$$$$
=
 OpenBabel10272413453D

 30 32  0  0  1  0  0  0  0  0999 V2000
  186.9960  177.7260  146.1410 C   0  0  0  0  0  0  0  0  0  0  0  0
  187.7700  177.5880  147.3350 N   0  0  0  0  0  2  0  0  0  0  0  0
  185.7530  177.9150  146.2270 O   0  0  0  0  0  0  0  0  0  0  0  0
  188.9840  176.9030  144.8520 C   0  0  2  0  0  3  0  0  0  0  0  0
  189.1840  177.3810  147.2730 C   0  0  0  0  0  3  0  0  0  0  0  0
  187.6920  177.7410  144.8020 C   0  0  1  0  0  3  0  0  0  0  0  0
  189.7810  177.1030  146.1140 C   0  0  0  0  0  3  0  0  0  0  0  0
  191.9500  178.0260  142.5410 C   0  0  0  0  0  3  0  0  0  0  0  0
  191.5860  177.4790  141.3810 C   0  0  0  0  0  3  0  0  0  0  0  0
  191.1100  177.9310  143.7900 C   0  0  0  0  0  0  0  0  0  0  0  0
  189.9220  176.1880  140.1510 N   0  0  0  0  0  2  0  0  0  0  0  0
  189.4940  176.5660  142.4660 C   0  0  0  0  0  3  0  0  0  0  0  0
  190.7920  179.2160  144.2280 O   0  0  0  0  0  1  0  0  0  0  0  0
  190.3230  176.7280  141.2660 C   0  0  0  0  0  0  0  0  0  0  0  0
  189.8480  177.1090  143.6390 C   0  0  0  0  0  0  0  0  0  0  0  0
  191.3160  175.2760  138.4870 O   0  0  0  0  0  0  0  0  0  0  0  0
  190.5780  176.2210  138.8750 C   0  0  0  0  0  0  0  0  0  0  0  0
  190.3920  177.3480  138.0280 N   0  0  0  0  0  1  0  0  0  0  0  0
  186.7840  177.2170  143.6970 C   0  0  0  0  0  2  0  0  0  0  0  0
  186.0440  178.3680  143.0490 C   0  0  0  0  0  2  0  0  0  0  0  0
  186.7920  178.7340  141.4380 S   0  0  0  0  0  0  0  0  0  0  0  0
  185.2010  178.7120  140.6050 C   0  0  0  0  0  0  0  0  0  0  0  0
  184.0930  178.5020  141.3090 C   0  0  0  0  0  2  0  0  0  0  0  0
  184.9180  177.4150  137.2620 C   0  0  0  0  0  2  0  0  0  0  0  0
  185.1150  178.8470  139.1170 C   0  0  1  0  0  3  0  0  0  0  0  0
  186.3530  177.8040  137.5200 C   0  0  2  0  0  0  0  0  0  0  0  0
  186.3990  178.7720  138.5410 O   0  0  0  0  0  0  0  0  0  0  0  0
  184.2270  177.7720  138.5340 C   0  0  0  0  0  2  0  0  0  0  0  0
  186.9580  178.3690  136.2520 C   0  0  0  0  0  1  0  0  0  0  0  0
  187.0760  176.6780  137.9160 O   0  0  0  0  0  1  0  0  0  0  0  0
  1  3  2  0  0  0  0
  1  2  1  0  0  0  0
  4 15  1  6  0  0  0
  4  7  1  0  0  0  0
  5  2  1  0  0  0  0
  6 19  1  6  0  0  0
  6  4  1  0  0  0  0
  6  1  1  0  0  0  0
  7  5  2  0  0  0  0
  8 10  1  0  0  0  0
  9  8  2  0  0  0  0
 10 13  1  0  0  0  0
 11 14  1  0  0  0  0
 12 15  1  0  0  0  0
 14  9  1  0  0  0  0
 14 12  2  0  0  0  0
 15 10  2  0  0  0  0
 16 17  2  0  0  0  0
 17 11  1  0  0  0  0
 18 17  1  0  0  0  0
 20 19  1  0  0  0  0
 21 20  1  0  0  0  0
 22 23  2  0  0  0  0
 22 21  1  0  0  0  0
 24 26  1  0  0  0  0
 24 28  1  0  0  0  0
 25 22  1  1  0  0  0
 26 29  1  6  0  0  0
 26 30  1  0  0  0  0
 26 27  1  0  0  0  0
 27 25  1  0  0  0  0
 28 25  1  0  0  0  0
M  END
>  <MODEL>
3

>  <REMARK>
 VINA RESULT:      -9.3      3.140      5.627
  Name = 
  7 active torsions:
  status: ('A' for Active; 'I' for Inactive)
    1  A    between atoms: C_1  and  S_4
    2  A    between atoms: C_1  and  C_5
    3  A    between atoms: S_4  and  C_27
    4  A    between atoms: C_5  and  C_22
    5  A    between atoms: C_8  and  C_27
    6  A    between atoms: C_15  and  N_16
    7  A    between atoms: C_19  and  C_29
                            x       y       z     vdW  Elec       q    Type
                         _______ _______ _______ _____ _____    ______ ____

>  <TORSDO>
F 7

$$$$
=
 OpenBabel10272413453D

 30 32  0  0  1  0  0  0  0  0999 V2000
  189.3720  176.9750  146.2940 C   0  0  0  0  0  0  0  0  0  0  0  0
  189.1620  177.1120  147.7010 N   0  0  0  0  0  2  0  0  0  0  0  0
  190.4720  176.5260  145.8730 O   0  0  0  0  0  0  0  0  0  0  0  0
  187.3030  178.3460  145.9300 C   0  0  2  0  0  3  0  0  0  0  0  0
  187.9220  177.6100  148.2120 C   0  0  0  0  0  3  0  0  0  0  0  0
  188.2410  177.2750  145.3400 C   0  0  1  0  0  3  0  0  0  0  0  0
  187.0180  178.1520  147.3960 C   0  0  0  0  0  3  0  0  0  0  0  0
  183.5670  179.1130  145.0130 C   0  0  0  0  0  3  0  0  0  0  0  0
  183.5640  178.8300  143.7110 C   0  0  0  0  0  3  0  0  0  0  0  0
  184.7850  178.9400  145.8860 C   0  0  0  0  0  0  0  0  0  0  0  0
  184.8230  178.0360  141.7790 N   0  0  0  0  0  2  0  0  0  0  0  0
  186.0070  178.1970  143.8420 C   0  0  0  0  0  3  0  0  0  0  0  0
  184.4860  178.0530  146.9200 O   0  0  0  0  0  1  0  0  0  0  0  0
  184.7820  178.3360  143.0450 C   0  0  0  0  0  0  0  0  0  0  0  0
  186.0250  178.4790  145.1520 C   0  0  0  0  0  0  0  0  0  0  0  0
  182.9470  177.1480  140.6670 O   0  0  0  0  0  0  0  0  0  0  0  0
  183.7500  178.1050  140.8260 C   0  0  0  0  0  0  0  0  0  0  0  0
  183.5930  179.2810  140.0430 N   0  0  0  0  0  1  0  0  0  0  0  0
  188.7640  177.7400  143.9870 C   0  0  0  0  0  2  0  0  0  0  0  0
  188.7650  176.5840  143.0110 C   0  0  0  0  0  2  0  0  0  0  0  0
  190.0630  176.8440  141.7710 S   0  0  0  0  0  0  0  0  0  0  0  0
  188.9540  177.7450  140.6820 C   0  0  0  0  0  0  0  0  0  0  0  0
  188.2760  178.7880  141.1520 C   0  0  0  0  0  2  0  0  0  0  0  0
  189.7100  177.6200  137.1680 C   0  0  0  0  0  2  0  0  0  0  0  0
  188.7230  177.2880  139.2760 C   0  0  1  0  0  3  0  0  0  0  0  0
  188.5330  178.5390  137.3870 C   0  0  2  0  0  0  0  0  0  0  0  0
  187.8920  178.1990  138.5930 O   0  0  0  0  0  0  0  0  0  0  0  0
  190.0340  177.1380  138.5410 C   0  0  0  0  0  2  0  0  0  0  0  0
  187.5610  178.3970  136.2340 C   0  0  0  0  0  1  0  0  0  0  0  0
  188.9790  179.8590  137.4560 O   0  0  0  0  0  1  0  0  0  0  0  0
  1  2  1  0  0  0  0
  2  5  1  0  0  0  0
  3  1  2  0  0  0  0
  4 15  1  6  0  0  0
  4  7  1  0  0  0  0
  6 19  1  6  0  0  0
  6  4  1  0  0  0  0
  6  1  1  0  0  0  0
  7  5  2  0  0  0  0
  8 10  1  0  0  0  0
  9  8  2  0  0  0  0
 10 13  1  0  0  0  0
 11 14  1  0  0  0  0
 12 15  1  0  0  0  0
 14  9  1  0  0  0  0
 14 12  2  0  0  0  0
 15 10  2  0  0  0  0
 16 17  2  0  0  0  0
 17 11  1  0  0  0  0
 18 17  1  0  0  0  0
 20 19  1  0  0  0  0
 21 20  1  0  0  0  0
 22 23  2  0  0  0  0
 22 21  1  0  0  0  0
 24 26  1  0  0  0  0
 24 28  1  0  0  0  0
 25 22  1  1  0  0  0
 26 29  1  6  0  0  0
 26 30  1  0  0  0  0
 26 27  1  0  0  0  0
 27 25  1  0  0  0  0
 28 25  1  0  0  0  0
M  END
>  <MODEL>
4

>  <REMARK>
 VINA RESULT:      -9.2      1.941      5.374
  Name = 
  7 active torsions:
  status: ('A' for Active; 'I' for Inactive)
    1  A    between atoms: C_1  and  S_4
    2  A    between atoms: C_1  and  C_5
    3  A    between atoms: S_4  and  C_27
    4  A    between atoms: C_5  and  C_22
    5  A    between atoms: C_8  and  C_27
    6  A    between atoms: C_15  and  N_16
    7  A    between atoms: C_19  and  C_29
                            x       y       z     vdW  Elec       q    Type
                         _______ _______ _______ _____ _____    ______ ____

>  <TORSDO>
F 7

$$$$
=
 OpenBabel10272413453D

 30 32  0  0  1  0  0  0  0  0999 V2000
  188.4280  178.1380  139.6210 C   0  0  0  0  0  0  0  0  0  0  0  0
  187.6670  178.4880  138.4620 N   0  0  0  0  0  2  0  0  0  0  0  0
  188.0640  178.5610  140.7510 O   0  0  0  0  0  0  0  0  0  0  0  0
  190.2320  177.3080  138.0890 C   0  0  2  0  0  3  0  0  0  0  0  0
  188.0460  178.0170  137.1660 C   0  0  0  0  0  3  0  0  0  0  0  0
  189.5930  177.1890  139.4860 C   0  0  1  0  0  3  0  0  0  0  0  0
  189.2230  177.4220  136.9760 C   0  0  0  0  0  3  0  0  0  0  0  0
  191.8020  173.9880  136.7100 C   0  0  0  0  0  3  0  0  0  0  0  0
  193.0480  174.0880  137.1730 C   0  0  0  0  0  3  0  0  0  0  0  0
  190.7360  175.0140  137.0020 C   0  0  0  0  0  0  0  0  0  0  0  0
  194.6570  175.3720  138.4820 N   0  0  0  0  0  2  0  0  0  0  0  0
  192.4660  176.2890  138.2700 C   0  0  0  0  0  3  0  0  0  0  0  0
  189.6670  174.3940  137.6480 O   0  0  0  0  0  1  0  0  0  0  0  0
  193.4550  175.2390  137.9990 C   0  0  0  0  0  0  0  0  0  0  0  0
  191.2100  176.2020  137.8100 C   0  0  0  0  0  0  0  0  0  0  0  0
  195.9120  173.4740  139.0860 O   0  0  0  0  0  0  0  0  0  0  0  0
  195.7670  174.4730  138.3330 C   0  0  0  0  0  0  0  0  0  0  0  0
  196.7240  174.7180  137.3110 N   0  0  0  0  0  1  0  0  0  0  0  0
  190.6470  177.4480  140.5560 C   0  0  0  0  0  2  0  0  0  0  0  0
  190.4930  176.4480  141.6820 C   0  0  0  0  0  2  0  0  0  0  0  0
  190.9460  177.2340  143.2510 S   0  0  0  0  0  0  0  0  0  0  0  0
  189.2790  177.0790  143.9020 C   0  0  0  0  0  0  0  0  0  0  0  0
  188.4080  176.2780  143.2950 C   0  0  0  0  0  2  0  0  0  0  0  0
  187.7680  177.5350  147.1350 C   0  0  0  0  0  2  0  0  0  0  0  0
  188.8330  177.9020  145.0710 C   0  0  1  0  0  3  0  0  0  0  0  0
  186.7910  177.9650  146.0690 C   0  0  2  0  0  0  0  0  0  0  0  0
  187.4960  178.3130  144.9010 O   0  0  0  0  0  0  0  0  0  0  0  0
  188.9710  177.1210  146.3570 C   0  0  0  0  0  2  0  0  0  0  0  0
  186.0000  179.1590  146.5620 C   0  0  0  0  0  1  0  0  0  0  0  0
  185.9170  176.9160  145.7870 O   0  0  0  0  0  1  0  0  0  0  0  0
  1  3  2  0  0  0  0
  2  1  1  0  0  0  0
  4 15  1  6  0  0  0
  4  6  1  0  0  0  0
  5  2  1  0  0  0  0
  6  1  1  0  0  0  0
  6 19  1  1  0  0  0
  7  5  2  0  0  0  0
  7  4  1  0  0  0  0
  8 10  2  0  0  0  0
  8  9  1  0  0  0  0
  9 14  2  0  0  0  0
 10 13  1  0  0  0  0
 10 15  1  0  0  0  0
 14 12  1  0  0  0  0
 14 11  1  0  0  0  0
 15 12  2  0  0  0  0
 17 11  1  0  0  0  0
 17 16  2  0  0  0  0
 18 17  1  0  0  0  0
 19 20  1  0  0  0  0
 20 21  1  0  0  0  0
 21 22  1  0  0  0  0
 23 22  2  0  0  0  0
 25 22  1  6  0  0  0
 25 28  1  0  0  0  0
 26 29  1  1  0  0  0
 26 24  1  0  0  0  0
 27 25  1  0  0  0  0
 27 26  1  0  0  0  0
 28 24  1  0  0  0  0
 30 26  1  0  0  0  0
M  END
>  <MODEL>
5

>  <REMARK>
 VINA RESULT:      -9.2      3.344      8.699
  Name = 
  7 active torsions:
  status: ('A' for Active; 'I' for Inactive)
    1  A    between atoms: C_1  and  S_4
    2  A    between atoms: C_1  and  C_5
    3  A    between atoms: S_4  and  C_27
    4  A    between atoms: C_5  and  C_22
    5  A    between atoms: C_8  and  C_27
    6  A    between atoms: C_15  and  N_16
    7  A    between atoms: C_19  and  C_29
                            x       y       z     vdW  Elec       q    Type
                         _______ _______ _______ _____ _____    ______ ____

>  <TORSDO>
F 7

$$$$
=
 OpenBabel10272413453D

 30 32  0  0  1  0  0  0  0  0999 V2000
  189.3570  177.0490  146.3360 C   0  0  0  0  0  0  0  0  0  0  0  0
  189.1160  177.1820  147.7390 N   0  0  0  0  0  2  0  0  0  0  0  0
  190.4710  176.6180  145.9360 O   0  0  0  0  0  0  0  0  0  0  0  0
  187.2740  178.3880  145.9320 C   0  0  2  0  0  3  0  0  0  0  0  0
  187.8590  177.6600  148.2260 C   0  0  0  0  0  3  0  0  0  0  0  0
  188.2400  177.3320  145.3600 C   0  0  1  0  0  3  0  0  0  0  0  0
  186.9630  178.1870  147.3930 C   0  0  0  0  0  3  0  0  0  0  0  0
  183.5520  179.1260  144.9350 C   0  0  0  0  0  3  0  0  0  0  0  0
  183.5740  178.8170  143.6380 C   0  0  0  0  0  3  0  0  0  0  0  0
  184.7550  178.9740  145.8320 C   0  0  0  0  0  0  0  0  0  0  0  0
  184.8690  177.9890  141.7450 N   0  0  0  0  0  2  0  0  0  0  0  0
  186.0160  178.1940  143.8250 C   0  0  0  0  0  3  0  0  0  0  0  0
  184.4400  178.1060  146.8780 O   0  0  0  0  0  1  0  0  0  0  0  0
  184.8050  178.3140  143.0040 C   0  0  0  0  0  0  0  0  0  0  0  0
  186.0100  178.5020  145.1300 C   0  0  0  0  0  0  0  0  0  0  0  0
  183.0630  177.0460  140.5640 O   0  0  0  0  0  0  0  0  0  0  0  0
  183.8130  178.0360  140.7720 C   0  0  0  0  0  0  0  0  0  0  0  0
  183.6120  179.2290  140.0250 N   0  0  0  0  0  1  0  0  0  0  0  0
  188.7820  177.8080  144.0180 C   0  0  0  0  0  2  0  0  0  0  0  0
  188.7560  176.6690  143.0210 C   0  0  0  0  0  2  0  0  0  0  0  0
  190.3240  176.6320  142.1090 S   0  0  0  0  0  0  0  0  0  0  0  0
  189.6000  177.4320  140.6730 C   0  0  0  0  0  0  0  0  0  0  0  0
  188.3130  177.7670  140.6860 C   0  0  0  0  0  2  0  0  0  0  0  0
  190.4280  176.8530  137.2210 C   0  0  0  0  0  2  0  0  0  0  0  0
  190.4070  177.6520  139.4320 C   0  0  1  0  0  3  0  0  0  0  0  0
  191.4090  176.1110  138.0950 C   0  0  2  0  0  0  0  0  0  0  0  0
  191.4640  176.7230  139.3610 O   0  0  0  0  0  0  0  0  0  0  0  0
  189.5380  177.5360  138.2020 C   0  0  0  0  0  2  0  0  0  0  0  0
  192.7800  176.1420  137.4520 C   0  0  0  0  0  1  0  0  0  0  0  0
  190.9960  174.7860  138.2380 O   0  0  0  0  0  1  0  0  0  0  0  0
  1  2  1  0  0  0  0
  2  5  1  0  0  0  0
  3  1  2  0  0  0  0
  4 15  1  6  0  0  0
  4  7  1  0  0  0  0
  6 19  1  6  0  0  0
  6  4  1  0  0  0  0
  6  1  1  0  0  0  0
  7  5  2  0  0  0  0
  8 10  1  0  0  0  0
  9  8  2  0  0  0  0
 10 13  1  0  0  0  0
 11 14  1  0  0  0  0
 12 15  1  0  0  0  0
 14  9  1  0  0  0  0
 14 12  2  0  0  0  0
 15 10  2  0  0  0  0
 16 17  2  0  0  0  0
 17 11  1  0  0  0  0
 18 17  1  0  0  0  0
 20 19  1  0  0  0  0
 21 20  1  0  0  0  0
 22 23  2  0  0  0  0
 22 21  1  0  0  0  0
 24 26  1  0  0  0  0
 24 28  1  0  0  0  0
 25 22  1  1  0  0  0
 26 29  1  6  0  0  0
 26 30  1  0  0  0  0
 26 27  1  0  0  0  0
 27 25  1  0  0  0  0
 28 25  1  0  0  0  0
M  END
>  <MODEL>
6

>  <REMARK>
 VINA RESULT:      -9.1      1.503      5.044
  Name = 
  7 active torsions:
  status: ('A' for Active; 'I' for Inactive)
    1  A    between atoms: C_1  and  S_4
    2  A    between atoms: C_1  and  C_5
    3  A    between atoms: S_4  and  C_27
    4  A    between atoms: C_5  and  C_22
    5  A    between atoms: C_8  and  C_27
    6  A    between atoms: C_15  and  N_16
    7  A    between atoms: C_19  and  C_29
                            x       y       z     vdW  Elec       q    Type
                         _______ _______ _______ _____ _____    ______ ____

>  <TORSDO>
F 7

$$$$
=
 OpenBabel10272413453D

 30 32  0  0  1  0  0  0  0  0999 V2000
  186.6620  178.4060  147.1310 C   0  0  0  0  0  0  0  0  0  0  0  0
  187.6120  178.3270  148.1970 N   0  0  0  0  0  2  0  0  0  0  0  0
  185.4660  178.7080  147.3890 O   0  0  0  0  0  0  0  0  0  0  0  0
  188.3490  177.2880  145.6490 C   0  0  2  0  0  3  0  0  0  0  0  0
  188.9790  177.9950  147.9370 C   0  0  0  0  0  3  0  0  0  0  0  0
  187.1260  178.2230  145.7060 C   0  0  1  0  0  3  0  0  0  0  0  0
  189.3550  177.5490  146.7400 C   0  0  0  0  0  3  0  0  0  0  0  0
  191.0270  176.8460  142.8160 C   0  0  0  0  0  3  0  0  0  0  0  0
  190.3210  177.2060  141.7440 C   0  0  0  0  0  3  0  0  0  0  0  0
  190.4650  176.8790  144.2150 C   0  0  0  0  0  0  0  0  0  0  0  0
  188.1980  178.0220  140.8620 N   0  0  0  0  0  2  0  0  0  0  0  0
  188.3150  177.6530  143.2140 C   0  0  0  0  0  3  0  0  0  0  0  0
  191.2480  177.7220  145.0040 O   0  0  0  0  0  1  0  0  0  0  0  0
  188.9220  177.6500  141.8790 C   0  0  0  0  0  0  0  0  0  0  0  0
  189.0120  177.2930  144.3010 C   0  0  0  0  0  0  0  0  0  0  0  0
  188.9820  179.1630  138.9570 O   0  0  0  0  0  0  0  0  0  0  0  0
  188.5920  178.0870  139.4820 C   0  0  0  0  0  0  0  0  0  0  0  0
  188.5380  176.9070  138.6900 N   0  0  0  0  0  1  0  0  0  0  0  0
  186.0140  177.6660  144.8270 C   0  0  0  0  0  2  0  0  0  0  0  0
  185.0690  178.7790  144.4270 C   0  0  0  0  0  2  0  0  0  0  0  0
  185.0920  178.9700  142.6240 S   0  0  0  0  0  0  0  0  0  0  0  0
  183.3090  178.7880  142.5010 C   0  0  0  0  0  0  0  0  0  0  0  0
  182.5600  178.8980  143.5950 C   0  0  0  0  0  2  0  0  0  0  0  0
  183.3500  178.0070  138.9900 C   0  0  0  0  0  2  0  0  0  0  0  0
  182.6630  178.4340  141.1980 C   0  0  1  0  0  3  0  0  0  0  0  0
  182.9040  179.4370  139.1720 C   0  0  2  0  0  0  0  0  0  0  0  0
  182.3670  179.5990  140.4630 O   0  0  0  0  0  0  0  0  0  0  0  0
  183.5590  177.5280  140.3860 C   0  0  0  0  0  2  0  0  0  0  0  0
  181.8530  179.7740  138.1360 C   0  0  0  0  0  1  0  0  0  0  0  0
  183.9980  180.2890  139.0150 O   0  0  0  0  0  1  0  0  0  0  0  0
  1  3  2  0  0  0  0
  1  2  1  0  0  0  0
  4 15  1  6  0  0  0
  4  6  1  0  0  0  0
  4  7  1  0  0  0  0
  5  2  1  0  0  0  0
  6 19  1  6  0  0  0
  6  1  1  0  0  0  0
  7  5  2  0  0  0  0
  8 10  1  0  0  0  0
  9 14  1  0  0  0  0
  9  8  2  0  0  0  0
 10 15  2  0  0  0  0
 10 13  1  0  0  0  0
 11 14  1  0  0  0  0
 12 15  1  0  0  0  0
 14 12  2  0  0  0  0
 16 17  2  0  0  0  0
 17 11  1  0  0  0  0
 18 17  1  0  0  0  0
 20 19  1  0  0  0  0
 21 20  1  0  0  0  0
 22 21  1  0  0  0  0
 22 23  2  0  0  0  0
 24 26  1  0  0  0  0
 24 28  1  0  0  0  0
 25 22  1  1  0  0  0
 26 29  1  6  0  0  0
 26 27  1  0  0  0  0
 27 25  1  0  0  0  0
 28 25  1  0  0  0  0
 30 26  1  0  0  0  0
M  END
>  <MODEL>
7

>  <REMARK>
 VINA RESULT:      -9.1      3.048      6.688
  Name = 
  7 active torsions:
  status: ('A' for Active; 'I' for Inactive)
    1  A    between atoms: C_1  and  S_4
    2  A    between atoms: C_1  and  C_5
    3  A    between atoms: S_4  and  C_27
    4  A    between atoms: C_5  and  C_22
    5  A    between atoms: C_8  and  C_27
    6  A    between atoms: C_15  and  N_16
    7  A    between atoms: C_19  and  C_29
                            x       y       z     vdW  Elec       q    Type
                         _______ _______ _______ _____ _____    ______ ____

>  <TORSDO>
F 7

$$$$
=
 OpenBabel10272413453D

 30 32  0  0  1  0  0  0  0  0999 V2000
  191.3520  176.4070  144.6260 C   0  0  0  0  0  0  0  0  0  0  0  0
  191.9600  176.0790  145.8780 N   0  0  0  0  0  0  0  0  0  0  0  0
  191.9820  176.1910  143.5560 O   0  0  0  0  0  0  0  0  0  0  0  0
  189.6010  177.6750  145.8980 C   0  0  2  0  0  3  0  0  0  0  0  0
  191.2690  176.3030  147.1100 C   0  0  0  0  0  3  0  0  0  0  0  0
  189.9300  176.9120  144.6000 C   0  0  1  0  0  3  0  0  0  0  0  0
  190.1390  177.0100  147.1370 C   0  0  0  0  0  2  0  0  0  0  0  0
  186.1050  178.5000  147.4750 C   0  0  0  0  0  3  0  0  0  0  0  0
  185.3470  178.5770  146.3810 C   0  0  0  0  0  3  0  0  0  0  0  0
  187.5720  178.1520  147.4320 C   0  0  0  0  0  0  0  0  0  0  0  0
  185.2200  178.3830  143.9520 N   0  0  0  0  0  2  0  0  0  0  0  0
  187.3580  178.0360  144.9490 C   0  0  0  0  0  3  0  0  0  0  0  0
  187.7940  177.0080  148.1990 O   0  0  0  0  0  1  0  0  0  0  0  0
  185.9240  178.3310  145.0470 C   0  0  0  0  0  0  0  0  0  0  0  0
  188.1320  177.9570  146.0400 C   0  0  0  0  0  0  0  0  0  0  0  0
  183.0750  178.7890  144.8350 O   0  0  0  0  0  0  0  0  0  0  0  0
  183.8160  178.6590  143.8250 C   0  0  0  0  0  0  0  0  0  0  0  0
  183.2510  178.7880  142.5270 N   0  0  0  0  0  1  0  0  0  0  0  0
  189.6840  177.8160  143.3980 C   0  0  0  0  0  2  0  0  0  0  0  0
  189.1790  176.9930  142.2320 C   0  0  0  0  0  2  0  0  0  0  0  0
  188.3760  178.0860  141.0280 S   0  0  0  0  0  0  0  0  0  0  0  0
  189.3760  177.4600  139.6730 C   0  0  0  0  0  0  0  0  0  0  0  0
  190.6340  177.0940  139.8990 C   0  0  0  0  0  2  0  0  0  0  0  0
  187.7490  178.8990  136.8060 C   0  0  0  0  0  2  0  0  0  0  0  0
  188.8360  177.4220  138.2770 C   0  0  1  0  0  3  0  0  0  0  0  0
  186.7700  178.0120  137.5350 C   0  0  2  0  0  0  0  0  0  0  0  0
  187.4760  177.0530  138.2860 O   0  0  0  0  0  0  0  0  0  0  0  0
  189.0000  178.7650  137.6050 C   0  0  0  0  0  2  0  0  0  0  0  0
  185.8750  177.3160  136.5310 C   0  0  0  0  0  1  0  0  0  0  0  0
  185.9880  178.7870  138.3920 O   0  0  0  0  0  1  0  0  0  0  0  0
  1  2  1  0  0  0  0
  2  5  2  0  0  0  0
  3  1  2  0  0  0  0
  4 15  1  1  0  0  0
  4  7  1  0  0  0  0
  5  7  1  0  0  0  0
  6 19  1  6  0  0  0
  6  1  1  0  0  0  0
  6  4  1  0  0  0  0
  9  8  2  0  0  0  0
 10  8  1  0  0  0  0
 10 13  1  0  0  0  0
 11 14  1  0  0  0  0
 12 14  2  0  0  0  0
 12 15  1  0  0  0  0
 14  9  1  0  0  0  0
 15 10  2  0  0  0  0
 17 11  1  0  0  0  0
 17 16  2  0  0  0  0
 18 17  1  0  0  0  0
 20 19  1  0  0  0  0
 21 20  1  0  0  0  0
 22 23  2  0  0  0  0
 22 21  1  0  0  0  0
 24 26  1  0  0  0  0
 24 28  1  0  0  0  0
 25 27  1  0  0  0  0
 25 22  1  1  0  0  0
 26 29  1  6  0  0  0
 26 27  1  0  0  0  0
 26 30  1  0  0  0  0
 28 25  1  0  0  0  0
M  END
>  <MODEL>
8

>  <REMARK>
 VINA RESULT:      -9.1      2.155      5.307
  Name = 
  7 active torsions:
  status: ('A' for Active; 'I' for Inactive)
    1  A    between atoms: C_1  and  S_4
    2  A    between atoms: C_1  and  C_5
    3  A    between atoms: S_4  and  C_27
    4  A    between atoms: C_5  and  C_22
    5  A    between atoms: C_8  and  C_27
    6  A    between atoms: C_15  and  N_16
    7  A    between atoms: C_19  and  C_29
                            x       y       z     vdW  Elec       q    Type
                         _______ _______ _______ _____ _____    ______ ____

>  <TORSDO>
F 7

$$$$
=
 OpenBabel10272413453D

 30 32  0  0  1  0  0  0  0  0999 V2000
  182.7790  178.9540  144.1050 C   0  0  0  0  0  0  0  0  0  0  0  0
  181.3520  179.0250  144.0530 N   0  0  0  0  0  2  0  0  0  0  0  0
  183.3700  179.1630  145.1990 O   0  0  0  0  0  0  0  0  0  0  0  0
  182.7930  178.9390  141.5970 C   0  0  2  0  0  3  0  0  0  0  0  0
  180.6510  178.7840  142.8300 C   0  0  0  0  0  3  0  0  0  0  0  0
  183.5480  178.5320  142.8770 C   0  0  1  0  0  3  0  0  0  0  0  0
  181.3080  178.6960  141.6750 C   0  0  0  0  0  3  0  0  0  0  0  0
  185.0490  178.2970  138.4530 C   0  0  0  0  0  3  0  0  0  0  0  0
  184.5800  177.1180  138.0430 C   0  0  0  0  0  3  0  0  0  0  0  0
  184.4800  179.0370  139.6370 C   0  0  0  0  0  0  0  0  0  0  0  0
  182.9690  175.3180  138.3810 N   0  0  0  0  0  2  0  0  0  0  0  0
  182.9100  177.1210  139.9400 C   0  0  0  0  0  3  0  0  0  0  0  0
  184.0290  180.2900  139.2210 O   0  0  0  0  0  1  0  0  0  0  0  0
  183.4670  176.4630  138.7520 C   0  0  0  0  0  0  0  0  0  0  0  0
  183.3720  178.3060  140.3640 C   0  0  0  0  0  0  0  0  0  0  0  0
  182.7680  174.5750  136.1560 O   0  0  0  0  0  0  0  0  0  0  0  0
  183.3660  174.5100  137.2630 C   0  0  0  0  0  0  0  0  0  0  0  0
  184.4610  173.6150  137.4090 N   0  0  0  0  0  1  0  0  0  0  0  0
  184.9460  179.1380  142.8610 C   0  0  0  0  0  2  0  0  0  0  0  0
  185.9840  178.0390  142.9350 C   0  0  0  0  0  2  0  0  0  0  0  0
  186.4440  177.7600  144.6670 S   0  0  0  0  0  0  0  0  0  0  0  0
  188.1220  177.2920  144.2300 C   0  0  0  0  0  0  0  0  0  0  0  0
  188.3370  176.5470  143.1490 C   0  0  0  0  0  2  0  0  0  0  0  0
  191.6010  177.9230  144.8940 C   0  0  0  0  0  2  0  0  0  0  0  0
  189.2740  177.6620  145.1120 C   0  0  1  0  0  3  0  0  0  0  0  0
  191.2370  176.5580  145.4230 C   0  0  2  0  0  0  0  0  0  0  0  0
  189.8530  176.5060  145.6740 O   0  0  0  0  0  0  0  0  0  0  0  0
  190.3160  178.4320  144.3350 C   0  0  0  0  0  2  0  0  0  0  0  0
  191.9990  176.2950  146.7050 C   0  0  0  0  0  1  0  0  0  0  0  0
  191.5730  175.5880  144.4790 O   0  0  0  0  0  1  0  0  0  0  0  0
  1  3  2  0  0  0  0
  2  1  1  0  0  0  0
  4 15  1  6  0  0  0
  4  7  1  0  0  0  0
  4  6  1  0  0  0  0
  5  2  1  0  0  0  0
  6 19  1  6  0  0  0
  6  1  1  0  0  0  0
  7  5  2  0  0  0  0
  8 10  1  0  0  0  0
  9  8  2  0  0  0  0
  9 14  1  0  0  0  0
 10 15  2  0  0  0  0
 11 14  1  0  0  0  0
 12 15  1  0  0  0  0
 13 10  1  0  0  0  0
 14 12  2  0  0  0  0
 16 17  2  0  0  0  0
 17 18  1  0  0  0  0
 17 11  1  0  0  0  0
 19 20  1  0  0  0  0
 20 21  1  0  0  0  0
 22 21  1  0  0  0  0
 23 22  2  0  0  0  0
 24 26  1  0  0  0  0
 25 22  1  6  0  0  0
 25 27  1  0  0  0  0
 26 27  1  0  0  0  0
 26 29  1  1  0  0  0
 28 24  1  0  0  0  0
 28 25  1  0  0  0  0
 30 26  1  0  0  0  0
M  END
>  <MODEL>
9

>  <REMARK>
 VINA RESULT:      -9.1      4.580      7.739
  Name = 
  7 active torsions:
  status: ('A' for Active; 'I' for Inactive)
    1  A    between atoms: C_1  and  S_4
    2  A    between atoms: C_1  and  C_5
    3  A    between atoms: S_4  and  C_27
    4  A    between atoms: C_5  and  C_22
    5  A    between atoms: C_8  and  C_27
    6  A    between atoms: C_15  and  N_16
    7  A    between atoms: C_19  and  C_29
                            x       y       z     vdW  Elec       q    Type
                         _______ _______ _______ _____ _____    ______ ____

>  <TORSDO>
F 7

$$$$
