=
 OpenBabel10262423513D

 34 39  0  0  1  0  0  0  0  0999 V2000
  186.9130  177.8600  144.9230 C   0  0  0  0  0  0  0  0  0  0  0  0
  184.7400  178.9330  144.7760 C   0  0  0  0  0  0  0  0  0  0  0  0
  186.0870  178.4430  142.6880 C   0  0  0  0  0  0  0  0  0  0  0  0
  185.3780  178.7410  140.3880 C   0  0  0  0  0  0  0  0  0  0  0  0
  185.5350  178.0680  146.8980 C   0  0  0  0  0  3  0  0  0  0  0  0
  184.5630  178.7210  146.1470 C   0  0  0  0  0  3  0  0  0  0  0  0
  183.5980  178.4580  141.8720 C   0  0  0  0  0  2  0  0  0  0  0  0
  185.8760  178.3970  144.1060 C   0  0  0  0  0  0  0  0  0  0  0  0
  184.1950  178.8200  139.5090 C   0  0  0  0  0  2  0  0  0  0  0  0
  186.7210  177.6670  146.2920 C   0  0  0  0  0  3  0  0  0  0  0  0
  187.4020  178.2100  142.1810 C   0  0  0  0  0  0  0  0  0  0  0  0
  188.1610  177.5610  144.3870 C   0  0  0  0  0  3  0  0  0  0  0  0
  183.8300  179.7670  144.1440 O   0  0  0  0  0  1  0  0  0  0  0  0
  186.6470  178.6170  139.9380 N   0  0  0  0  0  0  0  0  0  0  0  0
  187.6690  178.3590  140.7990 C   0  0  0  0  0  0  0  0  0  0  0  0
  183.0190  178.7560  140.4870 C   0  0  1  0  0  3  0  0  0  0  0  0
  185.0670  178.6320  141.7210 C   0  0  0  0  0  0  0  0  0  0  0  0
  188.4130  177.7660  143.0390 C   0  0  0  0  0  3  0  0  0  0  0  0
  190.4190  177.4560  138.2790 C   0  0  2  0  0  3  0  0  0  0  0  0
  191.2250  176.5260  139.1820 C   0  0  0  0  0  2  0  0  0  0  0  0
  189.0550  178.1770  140.2530 C   0  0  2  0  0  3  0  0  0  0  0  0
  191.2830  177.0880  140.5990 C   0  0  0  0  0  2  0  0  0  0  0  0
  189.0050  177.6280  138.8270 C   0  0  0  0  0  2  0  0  0  0  0  0
  189.8740  177.2560  141.1580 C   0  0  0  0  0  2  0  0  0  0  0  0
  190.3520  176.8740  136.8840 C   0  0  0  0  0  1  0  0  0  0  0  0
  182.4280  176.7220  139.2400 C   0  0  0  0  0  3  0  0  0  0  0  0
  182.0650  177.6760  140.0970 C   0  0  0  0  0  3  0  0  0  0  0  0
  182.9460  174.0980  137.7660 O   0  0  0  0  0  0  0  0  0  0  0  0
  181.4720  175.6380  138.8480 C   0  0  2  0  0  3  0  0  0  0  0  0
  181.9930  174.9110  137.6400 C   0  0  0  0  0  0  0  0  0  0  0  0
  180.2020  175.8860  136.1480 C   0  0  0  0  0  2  0  0  0  0  0  0
  179.9820  176.9120  137.2520 C   0  0  0  0  0  2  0  0  0  0  0  0
  180.0690  176.2090  138.6040 C   0  0  0  0  0  2  0  0  0  0  0  0
  181.4710  175.1910  136.3370 N   0  0  0  0  0  2  0  0  0  0  0  0
  1 10  2  0  0  0  0
  2  6  1  0  0  0  0
  3  8  1  0  0  0  0
  4 17  1  0  0  0  0
  6  5  2  0  0  0  0
  8  2  2  0  0  0  0
  8  1  1  0  0  0  0
  9  4  1  0  0  0  0
  9 16  1  0  0  0  0
 10  5  1  0  0  0  0
 11  3  1  0  0  0  0
 11 18  1  0  0  0  0
 12  1  1  0  0  0  0
 13  2  1  0  0  0  0
 14  4  2  0  0  0  0
 14 15  1  0  0  0  0
 15 11  2  0  0  0  0
 16 27  1  6  0  0  0
 16  7  1  0  0  0  0
 17  7  1  0  0  0  0
 17  3  2  0  0  0  0
 18 12  2  0  0  0  0
 19 25  1  6  0  0  0
 19 23  1  0  0  0  0
 19 20  1  0  0  0  0
 20 22  1  0  0  0  0
 21 15  1  1  0  0  0
 21 24  1  0  0  0  0
 22 24  1  0  0  0  0
 23 21  1  0  0  0  0
 26 27  2  0  0  0  0
 29 26  1  6  0  0  0
 30 28  2  0  0  0  0
 30 29  1  0  0  0  0
 31 34  1  0  0  0  0
 31 32  1  0  0  0  0
 32 33  1  0  0  0  0
 33 29  1  0  0  0  0
 34 30  1  0  0  0  0
M  END
>  <MODEL>
1

>  <REMARK>
 VINA RESULT:     -10.2      0.000      0.000
  Name = 
  3 active torsions:
  status: ('A' for Active; 'I' for Inactive)
    1  A    between atoms: C_3  and  C_13
    2  A    between atoms: C_12  and  C_28
    3  A    between atoms: C_17  and  C_29
                            x       y       z     vdW  Elec       q    Type
                         _______ _______ _______ _____ _____    ______ ____

>  <TORSDO>
F 3

$$$$
=
 OpenBabel10262423513D

 34 39  0  0  1  0  0  0  0  0999 V2000
  183.6710  178.6150  142.1300 C   0  0  0  0  0  0  0  0  0  0  0  0
  184.0420  179.2880  139.8270 C   0  0  0  0  0  0  0  0  0  0  0  0
  185.9740  178.5470  141.2880 C   0  0  0  0  0  0  0  0  0  0  0  0
  188.2760  178.2070  140.6050 C   0  0  0  0  0  0  0  0  0  0  0  0
  181.7850  179.0550  140.6840 C   0  0  0  0  0  3  0  0  0  0  0  0
  182.6570  179.3670  139.6470 C   0  0  0  0  0  3  0  0  0  0  0  0
  186.7530  178.0030  138.8470 C   0  0  0  0  0  2  0  0  0  0  0  0
  184.5810  178.7920  141.0480 C   0  0  0  0  0  0  0  0  0  0  0  0
  189.1410  177.9070  139.4480 C   0  0  0  0  0  2  0  0  0  0  0  0
  182.2930  178.7100  141.9320 C   0  0  0  0  0  3  0  0  0  0  0  0
  186.4240  178.4060  142.6360 C   0  0  0  0  0  0  0  0  0  0  0  0
  184.1340  178.3940  143.4230 C   0  0  0  0  0  3  0  0  0  0  0  0
  184.8400  179.8110  138.8210 O   0  0  0  0  0  1  0  0  0  0  0  0
  188.6950  178.1780  141.8900 N   0  0  0  0  0  0  0  0  0  0  0  0
  187.8060  178.2770  142.9150 C   0  0  0  0  0  0  0  0  0  0  0  0
  188.1660  177.8900  138.2680 C   0  0  1  0  0  3  0  0  0  0  0  0
  186.9510  178.3570  140.2780 C   0  0  0  0  0  0  0  0  0  0  0  0
  185.4950  178.3250  143.6780 C   0  0  0  0  0  3  0  0  0  0  0  0
  190.2080  177.4930  145.8040 C   0  0  2  0  0  3  0  0  0  0  0  0
  189.2410  176.6760  146.6570 C   0  0  0  0  0  2  0  0  0  0  0  0
  188.3060  178.1870  144.3270 C   0  0  2  0  0  3  0  0  0  0  0  0
  187.8510  177.3050  146.6260 C   0  0  0  0  0  2  0  0  0  0  0  0
  189.7060  177.5720  144.3650 C   0  0  0  0  0  2  0  0  0  0  0  0
  187.3380  177.3800  145.1920 C   0  0  0  0  0  2  0  0  0  0  0  0
  191.5760  176.8450  145.8260 C   0  0  0  0  0  1  0  0  0  0  0  0
  187.2560  175.7930  137.3660 C   0  0  0  0  0  3  0  0  0  0  0  0
  188.2930  176.6190  137.4950 C   0  0  0  0  0  3  0  0  0  0  0  0
  187.3020  175.3370  134.3460 O   0  0  0  0  0  0  0  0  0  0  0  0
  187.3810  174.5180  136.5910 C   0  0  2  0  0  3  0  0  0  0  0  0
  186.7260  174.6710  135.2460 C   0  0  0  0  0  0  0  0  0  0  0  0
  184.8260  173.1300  135.8770 C   0  0  0  0  0  2  0  0  0  0  0  0
  185.2650  173.3420  137.3200 C   0  0  0  0  0  2  0  0  0  0  0  0
  186.7900  173.3400  137.3770 C   0  0  0  0  0  2  0  0  0  0  0  0
  185.4210  174.1360  135.0040 N   0  0  0  0  0  2  0  0  0  0  0  0
  1 12  1  0  0  0  0
  2  8  1  0  0  0  0
  3 11  1  0  0  0  0
  4 14  2  0  0  0  0
  5 10  2  0  0  0  0
  6  2  2  0  0  0  0
  6  5  1  0  0  0  0
  7 17  1  0  0  0  0
  8  3  1  0  0  0  0
  8  1  2  0  0  0  0
  9  4  1  0  0  0  0
 10  1  1  0  0  0  0
 11 15  2  0  0  0  0
 11 18  1  0  0  0  0
 12 18  2  0  0  0  0
 13  2  1  0  0  0  0
 14 15  1  0  0  0  0
 16 27  1  1  0  0  0
 16  7  1  0  0  0  0
 16  9  1  0  0  0  0
 17  4  1  0  0  0  0
 17  3  2  0  0  0  0
 19 25  1  6  0  0  0
 19 20  1  0  0  0  0
 21 15  1  6  0  0  0
 21 23  1  0  0  0  0
 21 24  1  0  0  0  0
 22 20  1  0  0  0  0
 23 19  1  0  0  0  0
 24 22  1  0  0  0  0
 26 27  2  0  0  0  0
 28 30  2  0  0  0  0
 29 26  1  1  0  0  0
 29 33  1  0  0  0  0
 30 29  1  0  0  0  0
 31 32  1  0  0  0  0
 32 33  1  0  0  0  0
 34 30  1  0  0  0  0
 34 31  1  0  0  0  0
M  END
>  <MODEL>
2

>  <REMARK>
 VINA RESULT:     -10.2      2.650      5.409
  Name = 
  3 active torsions:
  status: ('A' for Active; 'I' for Inactive)
    1  A    between atoms: C_3  and  C_13
    2  A    between atoms: C_12  and  C_28
    3  A    between atoms: C_17  and  C_29
                            x       y       z     vdW  Elec       q    Type
                         _______ _______ _______ _____ _____    ______ ____

>  <TORSDO>
F 3

$$$$
=
 OpenBabel10262423513D

 34 39  0  0  1  0  0  0  0  0999 V2000
  185.6970  177.8760  142.9440 C   0  0  0  0  0  0  0  0  0  0  0  0
  186.3410  178.7490  140.7710 C   0  0  0  0  0  0  0  0  0  0  0  0
  188.0390  177.6070  142.2640 C   0  0  0  0  0  0  0  0  0  0  0  0
  190.3330  177.0520  141.7090 C   0  0  0  0  0  0  0  0  0  0  0  0
  184.0070  178.7140  141.4320 C   0  0  0  0  0  3  0  0  0  0  0  0
  184.9960  179.0250  140.5040 C   0  0  0  0  0  3  0  0  0  0  0  0
  188.9530  177.2430  139.8360 C   0  0  0  0  0  2  0  0  0  0  0  0
  186.7110  178.0540  141.9580 C   0  0  0  0  0  0  0  0  0  0  0  0
  191.2520  176.7740  140.5880 C   0  0  0  0  0  2  0  0  0  0  0  0
  184.3620  178.1690  142.6620 C   0  0  0  0  0  3  0  0  0  0  0  0
  188.3530  177.2590  143.6130 C   0  0  0  0  0  0  0  0  0  0  0  0
  186.0180  177.4550  144.2290 C   0  0  0  0  0  3  0  0  0  0  0  0
  187.2790  179.2730  139.8950 O   0  0  0  0  0  1  0  0  0  0  0  0
  190.6350  176.8260  143.0080 N   0  0  0  0  0  0  0  0  0  0  0  0
  189.6800  176.9240  143.9720 C   0  0  0  0  0  0  0  0  0  0  0  0
  190.3860  177.0140  139.3490 C   0  0  1  0  0  3  0  0  0  0  0  0
  189.0690  177.4070  141.3100 C   0  0  0  0  0  0  0  0  0  0  0  0
  187.3350  177.1830  144.5690 C   0  0  0  0  0  3  0  0  0  0  0  0
  189.7920  177.3050  147.7890 C   0  0  2  0  0  3  0  0  0  0  0  0
  191.3090  177.2740  147.9530 C   0  0  0  0  0  2  0  0  0  0  0  0
  190.0440  176.6130  145.3940 C   0  0  2  0  0  3  0  0  0  0  0  0
  191.9190  176.2400  147.0110 C   0  0  0  0  0  2  0  0  0  0  0  0
  189.4230  177.6360  146.3460 C   0  0  0  0  0  2  0  0  0  0  0  0
  191.5620  176.5680  145.5650 C   0  0  0  0  0  2  0  0  0  0  0  0
  189.2040  178.3500  148.7130 C   0  0  0  0  0  1  0  0  0  0  0  0
  189.6290  175.7650  137.3720 C   0  0  0  0  0  3  0  0  0  0  0  0
  190.4250  175.8310  138.4390 C   0  0  0  0  0  3  0  0  0  0  0  0
  190.0350  175.6400  134.3480 O   0  0  0  0  0  0  0  0  0  0  0  0
  189.6680  174.5790  136.4580 C   0  0  2  0  0  3  0  0  0  0  0  0
  189.2420  174.9870  135.0750 C   0  0  0  0  0  0  0  0  0  0  0  0
  187.0590  173.7290  135.2610 C   0  0  0  0  0  2  0  0  0  0  0  0
  187.3150  173.7050  136.7620 C   0  0  0  0  0  2  0  0  0  0  0  0
  188.7980  173.4390  137.0050 C   0  0  0  0  0  2  0  0  0  0  0  0
  187.9180  174.7100  134.6070 N   0  0  0  0  0  2  0  0  0  0  0  0
  1 12  1  0  0  0  0
  2  8  1  0  0  0  0
  3 11  1  0  0  0  0
  4 14  2  0  0  0  0
  5 10  2  0  0  0  0
  6  2  2  0  0  0  0
  6  5  1  0  0  0  0
  7 17  1  0  0  0  0
  8  3  1  0  0  0  0
  8  1  2  0  0  0  0
  9  4  1  0  0  0  0
 10  1  1  0  0  0  0
 11 15  2  0  0  0  0
 11 18  1  0  0  0  0
 12 18  2  0  0  0  0
 13  2  1  0  0  0  0
 14 15  1  0  0  0  0
 16 27  1  6  0  0  0
 16  7  1  0  0  0  0
 16  9  1  0  0  0  0
 17  4  1  0  0  0  0
 17  3  2  0  0  0  0
 19 20  1  0  0  0  0
 19 25  1  1  0  0  0
 21 15  1  6  0  0  0
 21 24  1  0  0  0  0
 21 23  1  0  0  0  0
 22 20  1  0  0  0  0
 23 19  1  0  0  0  0
 24 22  1  0  0  0  0
 26 27  2  0  0  0  0
 28 30  2  0  0  0  0
 29 33  1  0  0  0  0
 29 26  1  1  0  0  0
 30 29  1  0  0  0  0
 31 32  1  0  0  0  0
 32 33  1  0  0  0  0
 34 30  1  0  0  0  0
 34 31  1  0  0  0  0
M  END
>  <MODEL>
3

>  <REMARK>
 VINA RESULT:     -10.2      3.357      6.510
  Name = 
  3 active torsions:
  status: ('A' for Active; 'I' for Inactive)
    1  A    between atoms: C_3  and  C_13
    2  A    between atoms: C_12  and  C_28
    3  A    between atoms: C_17  and  C_29
                            x       y       z     vdW  Elec       q    Type
                         _______ _______ _______ _____ _____    ______ ____

>  <TORSDO>
F 3

$$$$
=
 OpenBabel10262423513D

 34 39  0  0  1  0  0  0  0  0999 V2000
  184.1520  178.4100  143.2100 C   0  0  0  0  0  0  0  0  0  0  0  0
  184.3550  179.1710  140.9140 C   0  0  0  0  0  0  0  0  0  0  0  0
  186.3960  178.4310  142.2180 C   0  0  0  0  0  0  0  0  0  0  0  0
  188.6550  178.1750  141.3760 C   0  0  0  0  0  0  0  0  0  0  0  0
  182.1650  178.8500  141.9060 C   0  0  0  0  0  3  0  0  0  0  0  0
  182.9590  179.2200  140.8260 C   0  0  0  0  0  3  0  0  0  0  0  0
  187.0250  177.9910  139.7140 C   0  0  0  0  0  2  0  0  0  0  0  0
  184.9840  178.6480  142.0780 C   0  0  0  0  0  0  0  0  0  0  0  0
  189.4490  177.9370  140.1550 C   0  0  0  0  0  2  0  0  0  0  0  0
  182.7620  178.4760  143.1060 C   0  0  0  0  0  3  0  0  0  0  0  0
  186.9370  178.2560  143.5280 C   0  0  0  0  0  0  0  0  0  0  0  0
  184.7040  178.1570  144.4610 C   0  0  0  0  0  3  0  0  0  0  0  0
  185.0720  179.7480  139.8770 O   0  0  0  0  0  1  0  0  0  0  0  0
  189.1580  178.1130  142.6290 N   0  0  0  0  0  0  0  0  0  0  0  0
  188.3360  178.1540  143.7120 C   0  0  0  0  0  0  0  0  0  0  0  0
  188.3990  177.9350  139.0400 C   0  0  1  0  0  3  0  0  0  0  0  0
  187.3080  178.3010  141.1410 C   0  0  0  0  0  0  0  0  0  0  0  0
  186.0810  178.1150  144.6240 C   0  0  0  0  0  3  0  0  0  0  0  0
  190.7800  177.0350  146.4510 C   0  0  2  0  0  3  0  0  0  0  0  0
  189.7510  176.4670  147.4240 C   0  0  0  0  0  2  0  0  0  0  0  0
  188.9300  178.0290  145.0850 C   0  0  2  0  0  3  0  0  0  0  0  0
  188.5140  177.3600  147.4620 C   0  0  0  0  0  2  0  0  0  0  0  0
  190.1800  177.1470  145.0530 C   0  0  0  0  0  2  0  0  0  0  0  0
  187.9020  177.4720  146.0690 C   0  0  0  0  0  2  0  0  0  0  0  0
  191.9910  176.1270  146.4090 C   0  0  0  0  0  1  0  0  0  0  0  0
  189.4210  176.5910  137.2550 C   0  0  0  0  0  3  0  0  0  0  0  0
  188.5050  176.6940  138.2160 C   0  0  0  0  0  3  0  0  0  0  0  0
  191.0040  174.0300  137.7710 O   0  0  0  0  0  0  0  0  0  0  0  0
  189.5290  175.3470  136.4270 C   0  0  2  0  0  3  0  0  0  0  0  0
  190.8420  174.6670  136.6970 C   0  0  0  0  0  0  0  0  0  0  0  0
  191.7440  175.2690  134.4150 C   0  0  0  0  0  2  0  0  0  0  0  0
  190.6150  176.2880  134.3470 C   0  0  0  0  0  2  0  0  0  0  0  0
  189.3520  175.6660  134.9370 C   0  0  0  0  0  2  0  0  0  0  0  0
  191.9360  174.8020  135.7840 N   0  0  0  0  0  2  0  0  0  0  0  0
  1 12  1  0  0  0  0
  2  8  1  0  0  0  0
  3 11  1  0  0  0  0
  4 14  2  0  0  0  0
  5 10  2  0  0  0  0
  6  2  2  0  0  0  0
  6  5  1  0  0  0  0
  7 17  1  0  0  0  0
  8  3  1  0  0  0  0
  8  1  2  0  0  0  0
  9  4  1  0  0  0  0
 10  1  1  0  0  0  0
 11 15  2  0  0  0  0
 11 18  1  0  0  0  0
 12 18  2  0  0  0  0
 13  2  1  0  0  0  0
 14 15  1  0  0  0  0
 16 27  1  1  0  0  0
 16  7  1  0  0  0  0
 16  9  1  0  0  0  0
 17  4  1  0  0  0  0
 17  3  2  0  0  0  0
 19 25  1  6  0  0  0
 19 20  1  0  0  0  0
 20 22  1  0  0  0  0
 21 15  1  6  0  0  0
 21 24  1  0  0  0  0
 23 21  1  0  0  0  0
 23 19  1  0  0  0  0
 24 22  1  0  0  0  0
 26 27  2  0  0  0  0
 29 30  1  0  0  0  0
 29 26  1  1  0  0  0
 30 28  2  0  0  0  0
 31 34  1  0  0  0  0
 32 31  1  0  0  0  0
 32 33  1  0  0  0  0
 33 29  1  0  0  0  0
 34 30  1  0  0  0  0
M  END
>  <MODEL>
4

>  <REMARK>
 VINA RESULT:     -10.1      3.302      6.520
  Name = 
  3 active torsions:
  status: ('A' for Active; 'I' for Inactive)
    1  A    between atoms: C_3  and  C_13
    2  A    between atoms: C_12  and  C_28
    3  A    between atoms: C_17  and  C_29
                            x       y       z     vdW  Elec       q    Type
                         _______ _______ _______ _____ _____    ______ ____

>  <TORSDO>
F 3

$$$$
=
 OpenBabel10262423513D

 34 39  0  0  1  0  0  0  0  0999 V2000
  183.0980  178.7080  142.3330 C   0  0  0  0  0  0  0  0  0  0  0  0
  182.9340  179.3760  140.0050 C   0  0  0  0  0  0  0  0  0  0  0  0
  185.1510  178.6510  140.9910 C   0  0  0  0  0  0  0  0  0  0  0  0
  187.2400  178.3230  139.8050 C   0  0  0  0  0  0  0  0  0  0  0  0
  180.9310  179.1310  141.3520 C   0  0  0  0  0  3  0  0  0  0  0  0
  181.5430  179.4450  140.1430 C   0  0  0  0  0  3  0  0  0  0  0  0
  185.3600  178.1040  138.4370 C   0  0  0  0  0  2  0  0  0  0  0  0
  183.7380  178.8870  141.0730 C   0  0  0  0  0  0  0  0  0  0  0  0
  187.8220  178.0240  138.4820 C   0  0  0  0  0  2  0  0  0  0  0  0
  181.7100  178.7940  142.4530 C   0  0  0  0  0  3  0  0  0  0  0  0
  185.8960  178.5170  142.2020 C   0  0  0  0  0  0  0  0  0  0  0  0
  183.8440  178.4940  143.4870 C   0  0  0  0  0  3  0  0  0  0  0  0
  183.4790  179.8990  138.8430 O   0  0  0  0  0  1  0  0  0  0  0  0
  187.9400  178.3000  140.9610 N   0  0  0  0  0  0  0  0  0  0  0  0
  187.3060  178.3980  142.1610 C   0  0  0  0  0  0  0  0  0  0  0  0
  186.6050  177.9970  137.5530 C   0  0  1  0  0  3  0  0  0  0  0  0
  185.8750  178.4640  139.7860 C   0  0  0  0  0  0  0  0  0  0  0  0
  185.2280  178.4340  143.4270 C   0  0  0  0  0  3  0  0  0  0  0  0
  190.4110  178.4350  144.4150 C   0  0  2  0  0  3  0  0  0  0  0  0
  190.1770  177.0950  145.1070 C   0  0  0  0  0  2  0  0  0  0  0  0
  188.1140  178.3150  143.4230 C   0  0  2  0  0  3  0  0  0  0  0  0
  188.6940  176.9130  145.4150 C   0  0  0  0  0  2  0  0  0  0  0  0
  189.6010  178.5110  143.1250 C   0  0  0  0  0  2  0  0  0  0  0  0
  187.8760  176.9810  144.1290 C   0  0  0  0  0  2  0  0  0  0  0  0
  191.8830  178.5900  144.0970 C   0  0  0  0  0  1  0  0  0  0  0  0
  185.4180  176.0600  136.6160 C   0  0  0  0  0  3  0  0  0  0  0  0
  186.5620  176.7240  136.7750 C   0  0  0  0  0  3  0  0  0  0  0  0
  183.2060  174.9330  134.8370 O   0  0  0  0  0  0  0  0  0  0  0  0
  185.3730  174.7830  135.8350 C   0  0  2  0  0  3  0  0  0  0  0  0
  183.9470  174.3400  135.6640 C   0  0  0  0  0  0  0  0  0  0  0  0
  184.2500  172.3920  137.2450 C   0  0  0  0  0  2  0  0  0  0  0  0
  185.5110  173.1020  137.7180 C   0  0  0  0  0  2  0  0  0  0  0  0
  186.2250  173.7000  136.5090 C   0  0  0  0  0  2  0  0  0  0  0  0
  183.4010  173.3030  136.4860 N   0  0  0  0  0  2  0  0  0  0  0  0
  1 10  1  0  0  0  0
  1 12  1  0  0  0  0
  2  6  2  0  0  0  0
  2  8  1  0  0  0  0
  3  8  1  0  0  0  0
  3 11  1  0  0  0  0
  4 14  2  0  0  0  0
  5 10  2  0  0  0  0
  6  5  1  0  0  0  0
  7 17  1  0  0  0  0
  8  1  2  0  0  0  0
  9  4  1  0  0  0  0
 11 18  1  0  0  0  0
 13  2  1  0  0  0  0
 14 15  1  0  0  0  0
 15 11  2  0  0  0  0
 16 27  1  1  0  0  0
 16  7  1  0  0  0  0
 16  9  1  0  0  0  0
 17  4  1  0  0  0  0
 17  3  2  0  0  0  0
 18 12  2  0  0  0  0
 19 25  1  6  0  0  0
 19 20  1  0  0  0  0
 20 22  1  0  0  0  0
 21 15  1  6  0  0  0
 21 24  1  0  0  0  0
 23 21  1  0  0  0  0
 23 19  1  0  0  0  0
 24 22  1  0  0  0  0
 26 27  2  0  0  0  0
 28 30  2  0  0  0  0
 29 33  1  0  0  0  0
 29 26  1  1  0  0  0
 30 29  1  0  0  0  0
 30 34  1  0  0  0  0
 31 32  1  0  0  0  0
 33 32  1  0  0  0  0
 34 31  1  0  0  0  0
M  END
>  <MODEL>
5

>  <REMARK>
 VINA RESULT:     -10.0      2.562      4.729
  Name = 
  3 active torsions:
  status: ('A' for Active; 'I' for Inactive)
    1  A    between atoms: C_3  and  C_13
    2  A    between atoms: C_12  and  C_28
    3  A    between atoms: C_17  and  C_29
                            x       y       z     vdW  Elec       q    Type
                         _______ _______ _______ _____ _____    ______ ____

>  <TORSDO>
F 3

$$$$
=
 OpenBabel10262423513D

 34 39  0  0  1  0  0  0  0  0999 V2000
  185.3990  178.1660  142.4540 C   0  0  0  0  0  0  0  0  0  0  0  0
  185.9910  178.6820  140.1570 C   0  0  0  0  0  0  0  0  0  0  0  0
  187.7710  178.0390  141.8400 C   0  0  0  0  0  0  0  0  0  0  0  0
  190.1240  177.6520  141.4030 C   0  0  0  0  0  0  0  0  0  0  0  0
  183.6620  178.5090  140.8100 C   0  0  0  0  0  3  0  0  0  0  0  0
  184.6300  178.7500  139.8410 C   0  0  0  0  0  3  0  0  0  0  0  0
  188.7730  177.3310  139.5260 C   0  0  0  0  0  2  0  0  0  0  0  0
  186.4090  178.2680  141.4540 C   0  0  0  0  0  0  0  0  0  0  0  0
  191.0920  177.2730  140.3550 C   0  0  0  0  0  2  0  0  0  0  0  0
  184.0460  178.2490  142.1210 C   0  0  0  0  0  3  0  0  0  0  0  0
  188.0910  177.9880  143.2310 C   0  0  0  0  0  0  0  0  0  0  0  0
  185.7370  178.0320  143.7970 C   0  0  0  0  0  3  0  0  0  0  0  0
  186.8840  179.1350  139.1980 O   0  0  0  0  0  1  0  0  0  0  0  0
  190.4200  177.7080  142.7210 N   0  0  0  0  0  0  0  0  0  0  0  0
  189.4390  177.8780  143.6480 C   0  0  0  0  0  0  0  0  0  0  0  0
  190.2330  177.1770  139.0920 C   0  0  1  0  0  3  0  0  0  0  0  0
  188.8380  177.7800  140.9420 C   0  0  0  0  0  0  0  0  0  0  0  0
  187.0670  177.9790  144.1830 C   0  0  0  0  0  3  0  0  0  0  0  0
  191.2400  176.8470  146.8760 C   0  0  2  0  0  3  0  0  0  0  0  0
  190.0010  176.6050  147.7330 C   0  0  0  0  0  2  0  0  0  0  0  0
  189.8030  177.8820  145.1040 C   0  0  2  0  0  3  0  0  0  0  0  0
  188.9460  177.6700  147.4470 C   0  0  0  0  0  2  0  0  0  0  0  0
  190.8710  176.8270  145.3960 C   0  0  0  0  0  2  0  0  0  0  0  0
  188.5650  177.6520  145.9700 C   0  0  0  0  0  2  0  0  0  0  0  0
  192.2670  175.7700  147.1550 C   0  0  0  0  0  1  0  0  0  0  0  0
  191.6060  175.5140  137.9140 C   0  0  0  0  0  3  0  0  0  0  0  0
  190.4230  175.8570  138.4220 C   0  0  0  0  0  3  0  0  0  0  0  0
  194.0960  173.7550  137.7350 O   0  0  0  0  0  0  0  0  0  0  0  0
  191.7980  174.1890  137.2410 C   0  0  2  0  0  3  0  0  0  0  0  0
  193.2400  174.0200  136.8520 C   0  0  0  0  0  0  0  0  0  0  0  0
  192.7130  174.2570  134.3910 C   0  0  0  0  0  2  0  0  0  0  0  0
  191.3810  174.8450  134.8360 C   0  0  0  0  0  2  0  0  0  0  0  0
  190.8640  174.0510  136.0320 C   0  0  0  0  0  2  0  0  0  0  0  0
  193.6610  174.2340  135.5000 N   0  0  0  0  0  2  0  0  0  0  0  0
  1 12  1  0  0  0  0
  2  8  1  0  0  0  0
  3 11  1  0  0  0  0
  4 14  2  0  0  0  0
  5 10  2  0  0  0  0
  6  2  2  0  0  0  0
  6  5  1  0  0  0  0
  7 17  1  0  0  0  0
  8  3  1  0  0  0  0
  8  1  2  0  0  0  0
  9  4  1  0  0  0  0
 10  1  1  0  0  0  0
 11 15  2  0  0  0  0
 11 18  1  0  0  0  0
 12 18  2  0  0  0  0
 13  2  1  0  0  0  0
 14 15  1  0  0  0  0
 16 27  1  1  0  0  0
 16  7  1  0  0  0  0
 16  9  1  0  0  0  0
 17  4  1  0  0  0  0
 17  3  2  0  0  0  0
 19 25  1  6  0  0  0
 19 20  1  0  0  0  0
 21 15  1  6  0  0  0
 21 23  1  0  0  0  0
 21 24  1  0  0  0  0
 22 20  1  0  0  0  0
 23 19  1  0  0  0  0
 24 22  1  0  0  0  0
 26 27  2  0  0  0  0
 29 26  1  6  0  0  0
 30 29  1  0  0  0  0
 30 28  2  0  0  0  0
 31 32  1  0  0  0  0
 31 34  1  0  0  0  0
 32 33  1  0  0  0  0
 33 29  1  0  0  0  0
 34 30  1  0  0  0  0
M  END
>  <MODEL>
6

>  <REMARK>
 VINA RESULT:      -9.9      3.532      7.525
  Name = 
  3 active torsions:
  status: ('A' for Active; 'I' for Inactive)
    1  A    between atoms: C_3  and  C_13
    2  A    between atoms: C_12  and  C_28
    3  A    between atoms: C_17  and  C_29
                            x       y       z     vdW  Elec       q    Type
                         _______ _______ _______ _____ _____    ______ ____

>  <TORSDO>
F 3

$$$$
=
 OpenBabel10262423513D

 34 39  0  0  1  0  0  0  0  0999 V2000
  185.4810  178.2390  142.7410 C   0  0  0  0  0  0  0  0  0  0  0  0
  184.7550  179.0890  140.5860 C   0  0  0  0  0  0  0  0  0  0  0  0
  187.1290  178.2730  140.9240 C   0  0  0  0  0  0  0  0  0  0  0  0
  188.8440  178.0250  139.2280 C   0  0  0  0  0  0  0  0  0  0  0  0
  183.1490  178.7530  142.3730 C   0  0  0  0  0  3  0  0  0  0  0  0
  183.4460  179.1570  141.0750 C   0  0  0  0  0  3  0  0  0  0  0  0
  186.6750  177.9270  138.3670 C   0  0  0  0  0  2  0  0  0  0  0  0
  185.7880  178.5120  141.3770 C   0  0  0  0  0  0  0  0  0  0  0  0
  189.0670  177.8270  137.7830 C   0  0  0  0  0  2  0  0  0  0  0  0
  184.1700  178.3250  143.2130 C   0  0  0  0  0  3  0  0  0  0  0  0
  188.1500  178.0390  141.8940 C   0  0  0  0  0  0  0  0  0  0  0  0
  186.4860  177.9290  143.6510 C   0  0  0  0  0  3  0  0  0  0  0  0
  185.0050  179.6990  139.3660 O   0  0  0  0  0  1  0  0  0  0  0  0
  189.8110  177.9070  140.1650 N   0  0  0  0  0  0  0  0  0  0  0  0
  189.5000  177.9140  141.4900 C   0  0  0  0  0  0  0  0  0  0  0  0
  187.6560  177.8810  137.1920 C   0  0  1  0  0  3  0  0  0  0  0  0
  187.5220  178.1760  139.5650 C   0  0  0  0  0  0  0  0  0  0  0  0
  187.8090  177.8650  143.2390 C   0  0  0  0  0  3  0  0  0  0  0  0
  191.8340  176.0770  143.9210 C   0  0  2  0  0  3  0  0  0  0  0  0
  191.5840  176.9530  145.1460 C   0  0  0  0  0  2  0  0  0  0  0  0
  190.5970  177.7270  142.4980 C   0  0  2  0  0  3  0  0  0  0  0  0
  191.4860  178.4190  144.7340 C   0  0  0  0  0  2  0  0  0  0  0  0
  190.7110  176.2570  142.9050 C   0  0  0  0  0  2  0  0  0  0  0  0
  190.3600  178.6090  143.7230 C   0  0  0  0  0  2  0  0  0  0  0  0
  191.9050  174.6250  144.3430 C   0  0  0  0  0  1  0  0  0  0  0  0
  186.6480  175.6700  136.8290 C   0  0  0  0  0  3  0  0  0  0  0  0
  187.3850  176.6740  136.3570 C   0  0  0  0  0  3  0  0  0  0  0  0
  184.8590  175.3510  134.3740 O   0  0  0  0  0  0  0  0  0  0  0  0
  186.3750  174.4580  135.9920 C   0  0  2  0  0  3  0  0  0  0  0  0
  185.0200  174.5750  135.3520 C   0  0  0  0  0  0  0  0  0  0  0  0
  184.0520  172.7590  136.8180 C   0  0  0  0  0  2  0  0  0  0  0  0
  185.2680  172.9700  137.7100 C   0  0  0  0  0  2  0  0  0  0  0  0
  186.4970  173.1780  136.8290 C   0  0  0  0  0  2  0  0  0  0  0  0
  183.8940  173.8740  135.8910 N   0  0  0  0  0  2  0  0  0  0  0  0
  1 10  1  0  0  0  0
  1 12  1  0  0  0  0
  2  6  2  0  0  0  0
  2  8  1  0  0  0  0
  3  8  1  0  0  0  0
  3 11  1  0  0  0  0
  4 17  1  0  0  0  0
  4 14  2  0  0  0  0
  5 10  2  0  0  0  0
  6  5  1  0  0  0  0
  7 17  1  0  0  0  0
  8  1  2  0  0  0  0
  9  4  1  0  0  0  0
 11 18  1  0  0  0  0
 13  2  1  0  0  0  0
 14 15  1  0  0  0  0
 15 11  2  0  0  0  0
 16 27  1  1  0  0  0
 16  9  1  0  0  0  0
 16  7  1  0  0  0  0
 17  3  2  0  0  0  0
 18 12  2  0  0  0  0
 19 25  1  1  0  0  0
 19 20  1  0  0  0  0
 21 15  1  6  0  0  0
 21 23  1  0  0  0  0
 21 24  1  0  0  0  0
 22 20  1  0  0  0  0
 23 19  1  0  0  0  0
 24 22  1  0  0  0  0
 27 26  2  0  0  0  0
 28 30  2  0  0  0  0
 29 33  1  0  0  0  0
 29 26  1  1  0  0  0
 30 34  1  0  0  0  0
 30 29  1  0  0  0  0
 31 32  1  0  0  0  0
 33 32  1  0  0  0  0
 34 31  1  0  0  0  0
M  END
>  <MODEL>
7

>  <REMARK>
 VINA RESULT:      -9.9      2.751      4.576
  Name = 
  3 active torsions:
  status: ('A' for Active; 'I' for Inactive)
    1  A    between atoms: C_3  and  C_13
    2  A    between atoms: C_12  and  C_28
    3  A    between atoms: C_17  and  C_29
                            x       y       z     vdW  Elec       q    Type
                         _______ _______ _______ _____ _____    ______ ____

>  <TORSDO>
F 3

$$$$
=
 OpenBabel10262423513D

 34 39  0  0  1  0  0  0  0  0999 V2000
  183.4860  178.5190  141.7970 C   0  0  0  0  0  0  0  0  0  0  0  0
  183.9890  179.5680  139.6660 C   0  0  0  0  0  0  0  0  0  0  0  0
  185.8120  178.4460  141.0190 C   0  0  0  0  0  0  0  0  0  0  0  0
  188.1130  178.0770  140.3490 C   0  0  0  0  0  0  0  0  0  0  0  0
  181.6900  179.3400  140.4040 C   0  0  0  0  0  3  0  0  0  0  0  0
  182.6200  179.7730  139.4650 C   0  0  0  0  0  3  0  0  0  0  0  0
  186.6500  178.2970  138.5420 C   0  0  0  0  0  2  0  0  0  0  0  0
  184.4470  178.8250  140.7900 C   0  0  0  0  0  0  0  0  0  0  0  0
  189.0020  177.9310  139.1800 C   0  0  0  0  0  2  0  0  0  0  0  0
  182.1250  178.7430  141.5820 C   0  0  0  0  0  3  0  0  0  0  0  0
  186.1990  178.0340  142.3310 C   0  0  0  0  0  0  0  0  0  0  0  0
  183.8830  178.0380  143.0400 C   0  0  0  0  0  3  0  0  0  0  0  0
  184.8570  180.2070  138.7930 O   0  0  0  0  0  1  0  0  0  0  0  0
  188.4790  177.7890  141.6180 N   0  0  0  0  0  0  0  0  0  0  0  0
  187.5570  177.7630  142.6200 C   0  0  0  0  0  0  0  0  0  0  0  0
  188.0750  178.1930  137.9910 C   0  0  1  0  0  3  0  0  0  0  0  0
  186.8140  178.3740  140.0190 C   0  0  0  0  0  0  0  0  0  0  0  0
  185.2270  177.8310  143.3150 C   0  0  0  0  0  3  0  0  0  0  0  0
  187.5750  177.6850  146.4570 C   0  0  2  0  0  3  0  0  0  0  0  0
  189.0460  178.0380  146.6610 C   0  0  0  0  0  2  0  0  0  0  0  0
  187.9960  177.3860  144.0050 C   0  0  2  0  0  3  0  0  0  0  0  0
  189.9070  177.3290  145.6210 C   0  0  0  0  0  2  0  0  0  0  0  0
  187.1270  178.0820  145.0530 C   0  0  0  0  0  2  0  0  0  0  0  0
  189.4710  177.7260  144.2150 C   0  0  0  0  0  2  0  0  0  0  0  0
  186.7320  178.4130  147.4810 C   0  0  0  0  0  1  0  0  0  0  0  0
  187.1680  176.1830  136.9060 C   0  0  0  0  0  3  0  0  0  0  0  0
  188.1520  177.0760  137.0040 C   0  0  0  0  0  3  0  0  0  0  0  0
  185.0570  174.1190  136.1240 O   0  0  0  0  0  0  0  0  0  0  0  0
  187.2440  175.0620  135.9160 C   0  0  2  0  0  3  0  0  0  0  0  0
  186.2920  173.9670  136.3110 C   0  0  0  0  0  0  0  0  0  0  0  0
  188.1790  172.4160  136.9610 C   0  0  0  0  0  2  0  0  0  0  0  0
  189.0620  173.6570  136.9710 C   0  0  0  0  0  2  0  0  0  0  0  0
  188.6820  174.5430  135.7870 C   0  0  0  0  0  2  0  0  0  0  0  0
  186.7680  172.7880  136.9690 N   0  0  0  0  0  2  0  0  0  0  0  0
  1 12  1  0  0  0  0
  2  8  1  0  0  0  0
  3 11  1  0  0  0  0
  4 14  2  0  0  0  0
  5 10  2  0  0  0  0
  6  2  2  0  0  0  0
  6  5  1  0  0  0  0
  7 17  1  0  0  0  0
  8  3  1  0  0  0  0
  8  1  2  0  0  0  0
  9  4  1  0  0  0  0
 10  1  1  0  0  0  0
 11 15  2  0  0  0  0
 11 18  1  0  0  0  0
 12 18  2  0  0  0  0
 13  2  1  0  0  0  0
 14 15  1  0  0  0  0
 16 27  1  6  0  0  0
 16  7  1  0  0  0  0
 16  9  1  0  0  0  0
 17  4  1  0  0  0  0
 17  3  2  0  0  0  0
 19 20  1  0  0  0  0
 19 25  1  1  0  0  0
 21 15  1  6  0  0  0
 21 24  1  0  0  0  0
 21 23  1  0  0  0  0
 22 20  1  0  0  0  0
 23 19  1  0  0  0  0
 24 22  1  0  0  0  0
 26 27  2  0  0  0  0
 28 30  2  0  0  0  0
 29 30  1  0  0  0  0
 29 26  1  1  0  0  0
 30 34  1  0  0  0  0
 31 34  1  0  0  0  0
 31 32  1  0  0  0  0
 33 29  1  0  0  0  0
 33 32  1  0  0  0  0
M  END
>  <MODEL>
8

>  <REMARK>
 VINA RESULT:      -9.6      2.673      5.881
  Name = 
  3 active torsions:
  status: ('A' for Active; 'I' for Inactive)
    1  A    between atoms: C_3  and  C_13
    2  A    between atoms: C_12  and  C_28
    3  A    between atoms: C_17  and  C_29
                            x       y       z     vdW  Elec       q    Type
                         _______ _______ _______ _____ _____    ______ ____

>  <TORSDO>
F 3

$$$$
=
 OpenBabel10262423513D

 34 39  0  0  1  0  0  0  0  0999 V2000
  188.6070  177.2510  144.9510 C   0  0  0  0  0  0  0  0  0  0  0  0
  186.5030  178.4030  145.3310 C   0  0  0  0  0  0  0  0  0  0  0  0
  187.4080  178.0980  142.9850 C   0  0  0  0  0  0  0  0  0  0  0  0
  186.2960  178.6640  140.9050 C   0  0  0  0  0  0  0  0  0  0  0  0
  187.6370  177.2900  147.1640 C   0  0  0  0  0  3  0  0  0  0  0  0
  186.5760  178.0500  146.6820 C   0  0  0  0  0  3  0  0  0  0  0  0
  184.8140  178.2800  142.6680 C   0  0  0  0  0  2  0  0  0  0  0  0
  187.4650  177.9060  144.4050 C   0  0  0  0  0  0  0  0  0  0  0  0
  184.9750  178.8750  140.2820 C   0  0  0  0  0  2  0  0  0  0  0  0
  188.6650  176.9180  146.3050 C   0  0  0  0  0  3  0  0  0  0  0  0
  188.5900  177.8790  142.2140 C   0  0  0  0  0  0  0  0  0  0  0  0
  189.7150  176.9720  144.1580 C   0  0  0  0  0  3  0  0  0  0  0  0
  185.5350  179.3280  144.9720 O   0  0  0  0  0  1  0  0  0  0  0  0
  187.4500  178.5490  140.2100 N   0  0  0  0  0  0  0  0  0  0  0  0
  188.6010  178.1670  140.8290 C   0  0  0  0  0  0  0  0  0  0  0  0
  184.0010  178.7440  141.4560 C   0  0  1  0  0  3  0  0  0  0  0  0
  186.2360  178.4220  142.2550 C   0  0  0  0  0  0  0  0  0  0  0  0
  189.7200  177.3140  142.8140 C   0  0  0  0  0  3  0  0  0  0  0  0
  190.8690  176.9130  137.9990 C   0  0  2  0  0  3  0  0  0  0  0  0
  192.0040  176.3800  138.8680 C   0  0  0  0  0  2  0  0  0  0  0  0
  189.8480  178.0010  140.0120 C   0  0  2  0  0  3  0  0  0  0  0  0
  192.2590  177.3250  140.0390 C   0  0  0  0  0  2  0  0  0  0  0  0
  189.5970  177.0670  138.8270 C   0  0  0  0  0  2  0  0  0  0  0  0
  190.9940  177.4780  140.8780 C   0  0  0  0  0  2  0  0  0  0  0  0
  190.6130  175.9540  136.8560 C   0  0  0  0  0  1  0  0  0  0  0  0
  182.7710  177.2790  139.9130 C   0  0  0  0  0  3  0  0  0  0  0  0
  182.9370  177.7430  141.1510 C   0  0  0  0  0  3  0  0  0  0  0  0
  182.8760  174.7970  138.1360 O   0  0  0  0  0  0  0  0  0  0  0  0
  181.7040  176.2740  139.6050 C   0  0  2  0  0  3  0  0  0  0  0  0
  181.9610  175.6530  138.2610 C   0  0  0  0  0  0  0  0  0  0  0  0
  179.9880  176.8370  137.2170 C   0  0  0  0  0  2  0  0  0  0  0  0
  180.0240  177.7550  138.4320 C   0  0  0  0  0  2  0  0  0  0  0  0
  180.3130  176.9180  139.6740 C   0  0  0  0  0  2  0  0  0  0  0  0
  181.2300  176.0800  137.1060 N   0  0  0  0  0  2  0  0  0  0  0  0
  1 10  2  0  0  0  0
  2  6  1  0  0  0  0
  3  8  1  0  0  0  0
  4 17  2  0  0  0  0
  6  5  2  0  0  0  0
  8  1  1  0  0  0  0
  8  2  2  0  0  0  0
  9  4  1  0  0  0  0
  9 16  1  0  0  0  0
 10  5  1  0  0  0  0
 11 18  1  0  0  0  0
 11  3  2  0  0  0  0
 12  1  1  0  0  0  0
 13  2  1  0  0  0  0
 14 15  2  0  0  0  0
 14  4  1  0  0  0  0
 15 11  1  0  0  0  0
 16 27  1  6  0  0  0
 16  7  1  0  0  0  0
 17  7  1  0  0  0  0
 17  3  1  0  0  0  0
 18 12  2  0  0  0  0
 19 25  1  6  0  0  0
 19 23  1  0  0  0  0
 19 20  1  0  0  0  0
 20 22  1  0  0  0  0
 21 15  1  1  0  0  0
 21 24  1  0  0  0  0
 22 24  1  0  0  0  0
 23 21  1  0  0  0  0
 26 27  2  0  0  0  0
 28 30  2  0  0  0  0
 29 33  1  0  0  0  0
 29 26  1  6  0  0  0
 30 29  1  0  0  0  0
 31 32  1  0  0  0  0
 32 33  1  0  0  0  0
 34 31  1  0  0  0  0
 34 30  1  0  0  0  0
M  END
>  <MODEL>
9

>  <REMARK>
 VINA RESULT:      -9.6      1.060      1.380
  Name = 
  3 active torsions:
  status: ('A' for Active; 'I' for Inactive)
    1  A    between atoms: C_3  and  C_13
    2  A    between atoms: C_12  and  C_28
    3  A    between atoms: C_17  and  C_29
                            x       y       z     vdW  Elec       q    Type
                         _______ _______ _______ _____ _____    ______ ____

>  <TORSDO>
F 3

$$$$
