=
 OpenBabel10272400273D

 31 34  0  0  1  0  0  0  0  0999 V2000
  188.3710  177.5550  146.9730 C   0  0  0  0  0  0  0  0  0  0  0  0
  186.9530  178.1720  143.4230 C   0  0  0  0  0  0  0  0  0  0  0  0
  185.4930  178.3960  143.6730 C   0  0  0  0  0  0  0  0  0  0  0  0
  183.6030  178.7290  145.1720 C   0  0  0  0  0  3  0  0  0  0  0  0
  187.8840  177.7760  144.5280 C   0  0  0  0  0  0  0  0  0  0  0  0
  189.4500  176.8130  146.6960 C   0  0  0  0  0  3  0  0  0  0  0  0
  184.9720  178.5360  144.9680 C   0  0  0  0  0  3  0  0  0  0  0  0
  188.8600  177.9080  141.8460 C   0  0  2  0  0  3  0  0  0  0  0  0
  187.8160  177.5690  148.3550 C   0  0  0  0  0  1  0  0  0  0  0  0
  185.1080  178.1990  141.1900 C   0  0  0  0  0  2  0  0  0  0  0  0
  182.7340  178.7740  144.0820 C   0  0  0  0  0  0  0  0  0  0  0  0
  189.2410  176.3180  142.6400 S   0  0  0  0  0  0  0  0  0  0  0  0
  187.4190  178.2600  142.1500 C   0  0  0  0  0  0  0  0  0  0  0  0
  187.7330  178.3980  145.9000 C   0  0  0  0  0  2  0  0  0  0  0  0
  181.2770  178.9740  144.2990 C   0  0  0  0  0  1  0  0  0  0  0  0
  188.9740  177.0190  144.2690 C   0  0  0  0  0  0  0  0  0  0  0  0
  190.0420  176.8270  145.3130 C   0  0  0  0  0  2  0  0  0  0  0  0
  186.5150  178.7660  141.0500 C   0  0  0  0  0  2  0  0  0  0  0  0
  184.6010  178.4390  142.5770 C   0  0  0  0  0  0  0  0  0  0  0  0
  183.2310  178.6210  142.7860 C   0  0  0  0  0  3  0  0  0  0  0  0
  189.1520  177.8230  140.3530 C   0  0  0  0  0  2  0  0  0  0  0  0
  191.6440  175.5190  138.6120 N   0  0  0  0  0  2  0  0  0  0  0  0
  191.8900  175.7170  136.2880 O   0  0  0  0  0  0  0  0  0  0  0  0
  190.2960  177.2630  137.8200 O   0  0  0  0  0  0  0  0  0  0  0  0
  190.1480  176.7950  140.0990 N   0  0  0  0  0  2  0  0  0  0  0  0
  192.2200  175.1400  137.3580 C   0  0  0  0  0  0  0  0  0  0  0  0
  190.6770  176.5590  138.7940 C   0  0  0  0  0  0  0  0  0  0  0  0
  193.2440  174.0580  137.3230 C   0  0  0  0  0  2  0  0  0  0  0  0
  194.5060  174.4900  138.0500 C   0  0  2  0  0  3  0  0  0  0  0  0
  195.2980  175.2710  137.2050 O   0  0  0  0  0  1  0  0  0  0  0  0
  195.2860  173.2620  138.4680 C   0  0  0  0  0  1  0  0  0  0  0  0
  1  9  1  0  0  0  0
  2  3  1  0  0  0  0
  2  5  1  0  0  0  0
  3  7  1  0  0  0  0
  5 14  1  0  0  0  0
  6  1  2  0  0  0  0
  7  4  2  0  0  0  0
  8 21  1  6  0  0  0
  8 13  1  0  0  0  0
  8 12  1  0  0  0  0
 10 19  1  0  0  0  0
 11 15  1  0  0  0  0
 11  4  1  0  0  0  0
 12 16  1  0  0  0  0
 13  2  2  0  0  0  0
 14  1  1  0  0  0  0
 16  5  2  0  0  0  0
 16 17  1  0  0  0  0
 17  6  1  0  0  0  0
 18 10  1  0  0  0  0
 18 13  1  0  0  0  0
 19 20  1  0  0  0  0
 19  3  2  0  0  0  0
 20 11  2  0  0  0  0
 22 27  1  0  0  0  0
 23 26  2  0  0  0  0
 24 27  2  0  0  0  0
 25 21  1  0  0  0  0
 26 22  1  0  0  0  0
 27 25  1  0  0  0  0
 28 26  1  0  0  0  0
 28 29  1  0  0  0  0
 29 31  1  6  0  0  0
 30 29  1  0  0  0  0
M  END
>  <MODEL>
1

>  <REMARK>
 VINA RESULT:     -10.2      0.000      0.000
  Name = 
  4 active torsions:
  status: ('A' for Active; 'I' for Inactive)
    1  A    between atoms: C_1  and  C_24
    2  A    between atoms: N_9  and  C_23
    3  A    between atoms: C_15  and  C_23
    4  A    between atoms: C_19  and  C_24
                            x       y       z     vdW  Elec       q    Type
                         _______ _______ _______ _____ _____    ______ ____

>  <TORSDO>
F 4

$$$$
=
 OpenBabel10272400273D

 31 34  0  0  1  0  0  0  0  0999 V2000
  184.3800  178.6820  142.5570 C   0  0  0  0  0  0  0  0  0  0  0  0
  187.9780  177.5340  143.4150 C   0  0  0  0  0  0  0  0  0  0  0  0
  188.0280  177.6530  144.9070 C   0  0  0  0  0  0  0  0  0  0  0  0
  186.9600  178.0400  147.0610 C   0  0  0  0  0  3  0  0  0  0  0  0
  186.7860  177.9940  142.6320 C   0  0  0  0  0  0  0  0  0  0  0  0
  184.5410  179.1220  141.3030 C   0  0  0  0  0  3  0  0  0  0  0  0
  186.8810  177.9180  145.6720 C   0  0  0  0  0  3  0  0  0  0  0  0
  189.1030  177.0590  141.2450 C   0  0  2  0  0  3  0  0  0  0  0  0
  183.1830  179.0950  143.3400 C   0  0  0  0  0  1  0  0  0  0  0  0
  190.5250  177.3350  144.7800 C   0  0  0  0  0  2  0  0  0  0  0  0
  188.1910  177.9060  147.7050 C   0  0  0  0  0  0  0  0  0  0  0  0
  188.5580  178.6900  140.6550 S   0  0  0  0  0  0  0  0  0  0  0  0
  189.0720  177.0660  142.7590 C   0  0  0  0  0  0  0  0  0  0  0  0
  185.3920  177.7480  143.1680 C   0  0  0  0  0  2  0  0  0  0  0  0
  188.2760  178.0400  149.1830 C   0  0  0  0  0  1  0  0  0  0  0  0
  186.9290  178.4510  141.3670 C   0  0  0  0  0  0  0  0  0  0  0  0
  185.7260  178.6760  140.4910 C   0  0  0  0  0  2  0  0  0  0  0  0
  190.2330  176.4970  143.5420 C   0  0  0  0  0  2  0  0  0  0  0  0
  189.2690  177.5240  145.5710 C   0  0  0  0  0  0  0  0  0  0  0  0
  189.3450  177.6570  146.9610 C   0  0  0  0  0  3  0  0  0  0  0  0
  190.4800  176.7390  140.6770 C   0  0  0  0  0  2  0  0  0  0  0  0
  191.2100  175.5560  137.1260 N   0  0  0  0  0  2  0  0  0  0  0  0
  193.3040  176.0700  136.2010 O   0  0  0  0  0  0  0  0  0  0  0  0
  192.5230  176.6690  138.7140 O   0  0  0  0  0  0  0  0  0  0  0  0
  190.3460  176.1410  139.3590 N   0  0  0  0  0  2  0  0  0  0  0  0
  192.1710  175.5350  136.0650 C   0  0  0  0  0  0  0  0  0  0  0  0
  191.4150  176.1490  138.4130 C   0  0  0  0  0  0  0  0  0  0  0  0
  191.8320  174.8500  134.7860 C   0  0  0  0  0  2  0  0  0  0  0  0
  191.7370  173.3480  134.9900 C   0  0  2  0  0  3  0  0  0  0  0  0
  192.8370  172.7180  134.4040 O   0  0  0  0  0  1  0  0  0  0  0  0
  190.4680  172.8350  134.3460 C   0  0  0  0  0  1  0  0  0  0  0  0
  1 14  1  0  0  0  0
  1  9  1  0  0  0  0
  2  3  1  0  0  0  0
  3 19  2  0  0  0  0
  3  7  1  0  0  0  0
  4 11  1  0  0  0  0
  5 14  1  0  0  0  0
  5  2  1  0  0  0  0
  6  1  2  0  0  0  0
  7  4  2  0  0  0  0
  8 21  1  1  0  0  0
  8 13  1  0  0  0  0
 10 19  1  0  0  0  0
 11 15  1  0  0  0  0
 12  8  1  0  0  0  0
 12 16  1  0  0  0  0
 13  2  2  0  0  0  0
 13 18  1  0  0  0  0
 16  5  2  0  0  0  0
 17  6  1  0  0  0  0
 17 16  1  0  0  0  0
 18 10  1  0  0  0  0
 19 20  1  0  0  0  0
 20 11  2  0  0  0  0
 22 27  1  0  0  0  0
 25 21  1  0  0  0  0
 26 23  2  0  0  0  0
 26 22  1  0  0  0  0
 27 24  2  0  0  0  0
 27 25  1  0  0  0  0
 28 29  1  0  0  0  0
 28 26  1  0  0  0  0
 29 31  1  6  0  0  0
 30 29  1  0  0  0  0
M  END
>  <MODEL>
2

>  <REMARK>
 VINA RESULT:      -9.6      1.724      4.566
  Name = 
  4 active torsions:
  status: ('A' for Active; 'I' for Inactive)
    1  A    between atoms: C_1  and  C_24
    2  A    between atoms: N_9  and  C_23
    3  A    between atoms: C_15  and  C_23
    4  A    between atoms: C_19  and  C_24
                            x       y       z     vdW  Elec       q    Type
                         _______ _______ _______ _____ _____    ______ ____

>  <TORSDO>
F 4

$$$$
=
 OpenBabel10272400273D

 31 34  0  0  1  0  0  0  0  0999 V2000
  185.3860  178.2690  145.2040 C   0  0  0  0  0  0  0  0  0  0  0  0
  188.7480  177.1660  143.6310 C   0  0  0  0  0  0  0  0  0  0  0  0
  189.6280  176.9460  144.8240 C   0  0  0  0  0  0  0  0  0  0  0  0
  189.9710  176.7720  147.2290 C   0  0  0  0  0  3  0  0  0  0  0  0
  187.3640  177.7220  143.7710 C   0  0  0  0  0  0  0  0  0  0  0  0
  184.8580  178.9910  144.2080 C   0  0  0  0  0  3  0  0  0  0  0  0
  189.1240  176.9650  146.1340 C   0  0  0  0  0  3  0  0  0  0  0  0
  188.4380  177.2620  141.1630 C   0  0  2  0  0  3  0  0  0  0  0  0
  184.8630  178.4230  146.5890 C   0  0  0  0  0  1  0  0  0  0  0  0
  191.5990  176.8100  143.2600 C   0  0  0  0  0  2  0  0  0  0  0  0
  191.3360  176.5670  147.0280 C   0  0  0  0  0  0  0  0  0  0  0  0
  187.7890  178.9500  141.3530 S   0  0  0  0  0  0  0  0  0  0  0  0
  189.2530  176.9230  142.3930 C   0  0  0  0  0  0  0  0  0  0  0  0
  186.4880  177.2810  144.9240 C   0  0  0  0  0  2  0  0  0  0  0  0
  192.2370  176.3670  148.1930 C   0  0  0  0  0  1  0  0  0  0  0  0
  186.8170  178.4610  142.7800 C   0  0  0  0  0  0  0  0  0  0  0  0
  185.3530  178.8090  142.7990 C   0  0  0  0  0  2  0  0  0  0  0  0
  190.6020  176.2590  142.2470 C   0  0  0  0  0  2  0  0  0  0  0  0
  191.0130  176.7420  144.6350 C   0  0  0  0  0  0  0  0  0  0  0  0
  191.8580  176.5600  145.7330 C   0  0  0  0  0  3  0  0  0  0  0  0
  189.2360  177.1580  139.8690 C   0  0  0  0  0  2  0  0  0  0  0  0
  187.2030  176.8100  136.6620 N   0  0  0  0  0  2  0  0  0  0  0  0
  187.0330  178.6800  135.2560 O   0  0  0  0  0  0  0  0  0  0  0  0
  188.4780  178.5710  137.5320 O   0  0  0  0  0  0  0  0  0  0  0  0
  188.3980  176.6230  138.8100 N   0  0  0  0  0  2  0  0  0  0  0  0
  186.7310  177.4780  135.4880 C   0  0  0  0  0  0  0  0  0  0  0  0
  188.0460  177.3940  137.6610 C   0  0  0  0  0  0  0  0  0  0  0  0
  185.8850  176.7330  134.5140 C   0  0  0  0  0  2  0  0  0  0  0  0
  184.7810  175.9760  135.2310 C   0  0  2  0  0  3  0  0  0  0  0  0
  184.5660  174.7440  134.6080 O   0  0  0  0  0  1  0  0  0  0  0  0
  183.5050  176.7880  135.1830 C   0  0  0  0  0  1  0  0  0  0  0  0
  1  9  1  0  0  0  0
  2  5  1  0  0  0  0
  2  3  1  0  0  0  0
  3  7  1  0  0  0  0
  5 14  1  0  0  0  0
  6  1  2  0  0  0  0
  7  4  2  0  0  0  0
  8 21  1  6  0  0  0
  8 12  1  0  0  0  0
  8 13  1  0  0  0  0
 10 19  1  0  0  0  0
 11  4  1  0  0  0  0
 11 15  1  0  0  0  0
 12 16  1  0  0  0  0
 13  2  2  0  0  0  0
 14  1  1  0  0  0  0
 16 17  1  0  0  0  0
 16  5  2  0  0  0  0
 17  6  1  0  0  0  0
 18 13  1  0  0  0  0
 18 10  1  0  0  0  0
 19  3  2  0  0  0  0
 19 20  1  0  0  0  0
 20 11  2  0  0  0  0
 22 27  1  0  0  0  0
 23 26  2  0  0  0  0
 24 27  2  0  0  0  0
 25 21  1  0  0  0  0
 26 22  1  0  0  0  0
 27 25  1  0  0  0  0
 28 29  1  0  0  0  0
 28 26  1  0  0  0  0
 29 31  1  6  0  0  0
 30 29  1  0  0  0  0
M  END
>  <MODEL>
3

>  <REMARK>
 VINA RESULT:      -9.4      3.176      6.293
  Name = 
  4 active torsions:
  status: ('A' for Active; 'I' for Inactive)
    1  A    between atoms: C_1  and  C_24
    2  A    between atoms: N_9  and  C_23
    3  A    between atoms: C_15  and  C_23
    4  A    between atoms: C_19  and  C_24
                            x       y       z     vdW  Elec       q    Type
                         _______ _______ _______ _____ _____    ______ ____

>  <TORSDO>
F 4

$$$$
=
 OpenBabel10272400273D

 31 34  0  0  1  0  0  0  0  0999 V2000
  189.0730  177.2900  147.3660 C   0  0  0  0  0  0  0  0  0  0  0  0
  188.4520  177.9700  143.6040 C   0  0  0  0  0  0  0  0  0  0  0  0
  186.9730  178.1980  143.5380 C   0  0  0  0  0  0  0  0  0  0  0  0
  184.8050  178.5170  144.6020 C   0  0  0  0  0  3  0  0  0  0  0  0
  189.1230  177.5520  144.8770 C   0  0  0  0  0  0  0  0  0  0  0  0
  190.1850  176.5460  147.3140 C   0  0  0  0  0  3  0  0  0  0  0  0
  186.1850  178.3210  144.6930 C   0  0  0  0  0  3  0  0  0  0  0  0
  190.6530  177.7210  142.4690 C   0  0  2  0  0  3  0  0  0  0  0  0
  188.2340  177.2850  148.5960 C   0  0  0  0  0  1  0  0  0  0  0  0
  187.1300  178.0420  141.0280 C   0  0  0  0  0  2  0  0  0  0  0  0
  184.1910  178.5850  143.3500 C   0  0  0  0  0  0  0  0  0  0  0  0
  190.8520  176.1160  143.3010 S   0  0  0  0  0  0  0  0  0  0  0  0
  189.1810  178.0750  142.4630 C   0  0  0  0  0  0  0  0  0  0  0  0
  188.6820  178.1520  146.1950 C   0  0  0  0  0  2  0  0  0  0  0  0
  182.7220  178.7890  143.2520 C   0  0  0  0  0  1  0  0  0  0  0  0
  190.2420  176.7930  144.8460 C   0  0  0  0  0  0  0  0  0  0  0  0
  191.0600  176.5790  146.0920 C   0  0  0  0  0  2  0  0  0  0  0  0
  188.5360  178.6030  141.2030 C   0  0  0  0  0  2  0  0  0  0  0  0
  186.3380  178.2630  142.2770 C   0  0  0  0  0  0  0  0  0  0  0  0
  184.9550  178.4490  142.1900 C   0  0  0  0  0  3  0  0  0  0  0  0
  191.2590  177.6570  141.0730 C   0  0  0  0  0  2  0  0  0  0  0  0
  190.4820  175.1270  138.3270 N   0  0  0  0  0  2  0  0  0  0  0  0
  191.5850  175.3600  136.2700 O   0  0  0  0  0  0  0  0  0  0  0  0
  191.9920  176.9140  138.4380 O   0  0  0  0  0  0  0  0  0  0  0  0
  190.6880  176.5430  140.3340 N   0  0  0  0  0  2  0  0  0  0  0  0
  190.7560  174.7300  136.9790 C   0  0  0  0  0  0  0  0  0  0  0  0
  191.0970  176.2290  139.0030 C   0  0  0  0  0  0  0  0  0  0  0  0
  190.0620  173.5380  136.4150 C   0  0  0  0  0  2  0  0  0  0  0  0
  188.9480  173.9610  135.4730 C   0  0  2  0  0  3  0  0  0  0  0  0
  187.8260  174.3490  136.2080 O   0  0  0  0  0  1  0  0  0  0  0  0
  188.5810  172.7970  134.5790 C   0  0  0  0  0  1  0  0  0  0  0  0
  1  9  1  0  0  0  0
  2  5  1  0  0  0  0
  3  2  1  0  0  0  0
  3  7  1  0  0  0  0
  4  7  2  0  0  0  0
  5 14  1  0  0  0  0
  6  1  2  0  0  0  0
  8 21  1  6  0  0  0
  8 12  1  0  0  0  0
 10 18  1  0  0  0  0
 10 19  1  0  0  0  0
 11  4  1  0  0  0  0
 12 16  1  0  0  0  0
 13  8  1  0  0  0  0
 13  2  2  0  0  0  0
 14  1  1  0  0  0  0
 15 11  1  0  0  0  0
 16  5  2  0  0  0  0
 16 17  1  0  0  0  0
 17  6  1  0  0  0  0
 18 13  1  0  0  0  0
 19  3  2  0  0  0  0
 20 19  1  0  0  0  0
 20 11  2  0  0  0  0
 22 27  1  0  0  0  0
 23 26  2  0  0  0  0
 24 27  2  0  0  0  0
 25 21  1  0  0  0  0
 26 22  1  0  0  0  0
 27 25  1  0  0  0  0
 28 26  1  0  0  0  0
 29 31  1  6  0  0  0
 29 30  1  0  0  0  0
 29 28  1  0  0  0  0
M  END
>  <MODEL>
4

>  <REMARK>
 VINA RESULT:      -9.3      1.808      2.709
  Name = 
  4 active torsions:
  status: ('A' for Active; 'I' for Inactive)
    1  A    between atoms: C_1  and  C_24
    2  A    between atoms: N_9  and  C_23
    3  A    between atoms: C_15  and  C_23
    4  A    between atoms: C_19  and  C_24
                            x       y       z     vdW  Elec       q    Type
                         _______ _______ _______ _____ _____    ______ ____

>  <TORSDO>
F 4

$$$$
=
 OpenBabel10272400273D

 31 34  0  0  1  0  0  0  0  0999 V2000
  185.3580  178.2690  145.0160 C   0  0  0  0  0  0  0  0  0  0  0  0
  188.7690  177.1710  143.5490 C   0  0  0  0  0  0  0  0  0  0  0  0
  189.6080  176.9390  144.7680 C   0  0  0  0  0  0  0  0  0  0  0  0
  189.8690  176.7450  147.1820 C   0  0  0  0  0  3  0  0  0  0  0  0
  187.3820  177.7290  143.6460 C   0  0  0  0  0  0  0  0  0  0  0  0
  184.8660  179.0000  144.0080 C   0  0  0  0  0  3  0  0  0  0  0  0
  189.0600  176.9480  146.0610 C   0  0  0  0  0  3  0  0  0  0  0  0
  188.5420  177.2870  141.0720 C   0  0  2  0  0  3  0  0  0  0  0  0
  184.7890  178.4130  146.3840 C   0  0  0  0  0  1  0  0  0  0  0  0
  191.6300  176.8110  143.2710 C   0  0  0  0  0  2  0  0  0  0  0  0
  191.2400  176.5380  147.0260 C   0  0  0  0  0  0  0  0  0  0  0  0
  187.8910  178.9750  141.2540 S   0  0  0  0  0  0  0  0  0  0  0  0
  189.3150  176.9370  142.3270 C   0  0  0  0  0  0  0  0  0  0  0  0
  186.4670  177.2800  144.7660 C   0  0  0  0  0  2  0  0  0  0  0  0
  192.1010  176.3260  148.2180 C   0  0  0  0  0  1  0  0  0  0  0  0
  186.8710  178.4780  142.6430 C   0  0  0  0  0  0  0  0  0  0  0  0
  185.4070  178.8290  142.6160 C   0  0  0  0  0  2  0  0  0  0  0  0
  190.6670  176.2710  142.2210 C   0  0  0  0  0  2  0  0  0  0  0  0
  190.9980  176.7330  144.6250 C   0  0  0  0  0  0  0  0  0  0  0  0
  191.8050  176.5410  145.7500 C   0  0  0  0  0  3  0  0  0  0  0  0
  189.3840  177.1930  139.8060 C   0  0  0  0  0  2  0  0  0  0  0  0
  188.1450  175.2780  136.7490 N   0  0  0  0  0  2  0  0  0  0  0  0
  189.5710  173.6750  135.8000 O   0  0  0  0  0  0  0  0  0  0  0  0
  190.1060  175.1150  138.0180 O   0  0  0  0  0  0  0  0  0  0  0  0
  188.5650  176.7260  138.6990 N   0  0  0  0  0  2  0  0  0  0  0  0
  188.4660  174.2820  135.7730 C   0  0  0  0  0  0  0  0  0  0  0  0
  188.9950  175.6790  137.8290 C   0  0  0  0  0  0  0  0  0  0  0  0
  187.4680  173.9430  134.7200 C   0  0  0  0  0  2  0  0  0  0  0  0
  186.7260  172.6660  135.0750 C   0  0  2  0  0  3  0  0  0  0  0  0
  186.7550  172.4680  136.4570 O   0  0  0  0  0  1  0  0  0  0  0  0
  187.3930  171.4940  134.3900 C   0  0  0  0  0  1  0  0  0  0  0  0
  1  9  1  0  0  0  0
  2  5  1  0  0  0  0
  2  3  1  0  0  0  0
  3  7  1  0  0  0  0
  5 14  1  0  0  0  0
  6  1  2  0  0  0  0
  7  4  2  0  0  0  0
  8 21  1  6  0  0  0
  8 12  1  0  0  0  0
  8 13  1  0  0  0  0
 10 19  1  0  0  0  0
 11  4  1  0  0  0  0
 11 15  1  0  0  0  0
 12 16  1  0  0  0  0
 13  2  2  0  0  0  0
 14  1  1  0  0  0  0
 16  5  2  0  0  0  0
 17 16  1  0  0  0  0
 17  6  1  0  0  0  0
 18 13  1  0  0  0  0
 18 10  1  0  0  0  0
 19  3  2  0  0  0  0
 19 20  1  0  0  0  0
 20 11  2  0  0  0  0
 22 27  1  0  0  0  0
 25 21  1  0  0  0  0
 26 23  2  0  0  0  0
 26 22  1  0  0  0  0
 27 24  2  0  0  0  0
 27 25  1  0  0  0  0
 28 29  1  0  0  0  0
 28 26  1  0  0  0  0
 29 31  1  6  0  0  0
 29 30  1  0  0  0  0
M  END
>  <MODEL>
5

>  <REMARK>
 VINA RESULT:      -9.1      2.926      5.635
  Name = 
  4 active torsions:
  status: ('A' for Active; 'I' for Inactive)
    1  A    between atoms: C_1  and  C_24
    2  A    between atoms: N_9  and  C_23
    3  A    between atoms: C_15  and  C_23
    4  A    between atoms: C_19  and  C_24
                            x       y       z     vdW  Elec       q    Type
                         _______ _______ _______ _____ _____    ______ ____

>  <TORSDO>
F 4

$$$$
=
 OpenBabel10272400273D

 31 34  0  0  1  0  0  0  0  0999 V2000
  188.6290  177.3670  147.2220 C   0  0  0  0  0  0  0  0  0  0  0  0
  187.5210  178.0950  143.5830 C   0  0  0  0  0  0  0  0  0  0  0  0
  186.0500  178.3390  143.7160 C   0  0  0  0  0  0  0  0  0  0  0  0
  184.0470  178.6700  145.0620 C   0  0  0  0  0  3  0  0  0  0  0  0
  188.3510  177.6560  144.7510 C   0  0  0  0  0  0  0  0  0  0  0  0
  189.7160  176.6120  147.0160 C   0  0  0  0  0  3  0  0  0  0  0  0
  185.4250  178.4580  144.9670 C   0  0  0  0  0  3  0  0  0  0  0  0
  189.5490  177.8340  142.1630 C   0  0  2  0  0  3  0  0  0  0  0  0
  187.9610  177.3580  148.5520 C   0  0  0  0  0  1  0  0  0  0  0  0
  185.8700  178.2090  141.2060 C   0  0  0  0  0  2  0  0  0  0  0  0
  183.2730  178.7580  143.9040 C   0  0  0  0  0  0  0  0  0  0  0  0
  189.8370  176.2190  142.9450 S   0  0  0  0  0  0  0  0  0  0  0  0
  188.0940  178.2040  142.3560 C   0  0  0  0  0  0  0  0  0  0  0  0
  188.0960  178.2470  146.1210 C   0  0  0  0  0  2  0  0  0  0  0  0
  181.8070  178.9790  144.0050 C   0  0  0  0  0  1  0  0  0  0  0  0
  189.4460  176.8850  144.5640 C   0  0  0  0  0  0  0  0  0  0  0  0
  190.4200  176.6490  145.6880 C   0  0  0  0  0  2  0  0  0  0  0  0
  187.2930  178.7540  141.1980 C   0  0  0  0  0  2  0  0  0  0  0  0
  185.2530  178.4250  142.5520 C   0  0  0  0  0  0  0  0  0  0  0  0
  183.8740  178.6270  142.6510 C   0  0  0  0  0  3  0  0  0  0  0  0
  189.9630  177.7790  140.6980 C   0  0  0  0  0  2  0  0  0  0  0  0
  187.9820  176.1420  137.8800 N   0  0  0  0  0  2  0  0  0  0  0  0
  188.2300  177.0040  135.7130 O   0  0  0  0  0  0  0  0  0  0  0  0
  189.5660  177.8670  137.8930 O   0  0  0  0  0  0  0  0  0  0  0  0
  189.0600  176.9130  139.9580 N   0  0  0  0  0  2  0  0  0  0  0  0
  187.6840  176.1670  136.4800 C   0  0  0  0  0  0  0  0  0  0  0  0
  188.9010  177.0170  138.5440 C   0  0  0  0  0  0  0  0  0  0  0  0
  186.7280  175.1700  135.9200 C   0  0  0  0  0  2  0  0  0  0  0  0
  185.2940  175.6040  136.1690 C   0  0  2  0  0  3  0  0  0  0  0  0
  184.8020  174.9810  137.3180 O   0  0  0  0  0  1  0  0  0  0  0  0
  184.4400  175.2080  134.9840 C   0  0  0  0  0  1  0  0  0  0  0  0
  1  9  1  0  0  0  0
  2  3  1  0  0  0  0
  2  5  1  0  0  0  0
  3  7  1  0  0  0  0
  5 14  1  0  0  0  0
  6  1  2  0  0  0  0
  7  4  2  0  0  0  0
  8 21  1  6  0  0  0
  8 13  1  0  0  0  0
  8 12  1  0  0  0  0
 10 19  1  0  0  0  0
 11 15  1  0  0  0  0
 11  4  1  0  0  0  0
 12 16  1  0  0  0  0
 13  2  2  0  0  0  0
 14  1  1  0  0  0  0
 16  5  2  0  0  0  0
 16 17  1  0  0  0  0
 17  6  1  0  0  0  0
 18 10  1  0  0  0  0
 18 13  1  0  0  0  0
 19 20  1  0  0  0  0
 19  3  2  0  0  0  0
 20 11  2  0  0  0  0
 22 27  1  0  0  0  0
 23 26  2  0  0  0  0
 24 27  2  0  0  0  0
 25 21  1  0  0  0  0
 26 22  1  0  0  0  0
 27 25  1  0  0  0  0
 28 29  1  0  0  0  0
 28 26  1  0  0  0  0
 29 31  1  6  0  0  0
 29 30  1  0  0  0  0
M  END
>  <MODEL>
6

>  <REMARK>
 VINA RESULT:      -9.0      2.623      3.787
  Name = 
  4 active torsions:
  status: ('A' for Active; 'I' for Inactive)
    1  A    between atoms: C_1  and  C_24
    2  A    between atoms: N_9  and  C_23
    3  A    between atoms: C_15  and  C_23
    4  A    between atoms: C_19  and  C_24
                            x       y       z     vdW  Elec       q    Type
                         _______ _______ _______ _____ _____    ______ ____

>  <TORSDO>
F 4

$$$$
=
 OpenBabel10272400273D

 31 34  0  0  1  0  0  0  0  0999 V2000
  190.1420  177.1950  146.2640 C   0  0  0  0  0  0  0  0  0  0  0  0
  188.2320  178.0830  143.0140 C   0  0  0  0  0  0  0  0  0  0  0  0
  186.8260  178.2870  143.4890 C   0  0  0  0  0  0  0  0  0  0  0  0
  185.1760  178.5030  145.2680 C   0  0  0  0  0  3  0  0  0  0  0  0
  189.3080  177.6040  143.9400 C   0  0  0  0  0  0  0  0  0  0  0  0
  191.1610  176.4760  145.7770 C   0  0  0  0  0  3  0  0  0  0  0  0
  186.4990  178.3270  144.8530 C   0  0  0  0  0  3  0  0  0  0  0  0
  189.8880  177.9420  141.1620 C   0  0  2  0  0  3  0  0  0  0  0  0
  189.7920  177.1020  147.7080 C   0  0  0  0  0  1  0  0  0  0  0  0
  186.0840  178.2820  141.0810 C   0  0  0  0  0  2  0  0  0  0  0  0
  184.1590  178.6320  144.3210 C   0  0  0  0  0  0  0  0  0  0  0  0
  190.3630  176.2950  141.7680 S   0  0  0  0  0  0  0  0  0  0  0  0
  188.5100  178.2690  141.6980 C   0  0  0  0  0  0  0  0  0  0  0  0
  189.3640  178.1180  145.3620 C   0  0  0  0  0  2  0  0  0  0  0  0
  182.7510  178.8140  144.7610 C   0  0  0  0  0  1  0  0  0  0  0  0
  190.3410  176.8690  143.4680 C   0  0  0  0  0  0  0  0  0  0  0  0
  191.5470  176.5970  144.3290 C   0  0  0  0  0  2  0  0  0  0  0  0
  187.4630  178.8580  140.7820 C   0  0  0  0  0  2  0  0  0  0  0  0
  185.7860  178.4150  142.5410 C   0  0  0  0  0  0  0  0  0  0  0  0
  184.4620  178.5800  142.9590 C   0  0  0  0  0  3  0  0  0  0  0  0
  189.9600  177.9720  139.6400 C   0  0  0  0  0  2  0  0  0  0  0  0
  188.2900  175.4230  137.3470 N   0  0  0  0  0  2  0  0  0  0  0  0
  187.3490  176.1950  135.3420 O   0  0  0  0  0  0  0  0  0  0  0  0
  188.6880  177.7200  137.1200 O   0  0  0  0  0  0  0  0  0  0  0  0
  189.4370  176.7310  139.0930 N   0  0  0  0  0  2  0  0  0  0  0  0
  187.5860  175.2290  136.1160 C   0  0  0  0  0  0  0  0  0  0  0  0
  188.7980  176.6760  137.8180 C   0  0  0  0  0  0  0  0  0  0  0  0
  187.1440  173.8580  135.7360 C   0  0  0  0  0  2  0  0  0  0  0  0
  186.6820  173.0850  136.9590 C   0  0  2  0  0  3  0  0  0  0  0  0
  187.6870  172.2090  137.3760 O   0  0  0  0  0  1  0  0  0  0  0  0
  185.4430  172.2900  136.6090 C   0  0  0  0  0  1  0  0  0  0  0  0
  1  9  1  0  0  0  0
  2  3  1  0  0  0  0
  2  5  1  0  0  0  0
  3  7  1  0  0  0  0
  5 14  1  0  0  0  0
  6  1  2  0  0  0  0
  7  4  2  0  0  0  0
  8 21  1  6  0  0  0
  8 13  1  0  0  0  0
  8 12  1  0  0  0  0
 10 19  1  0  0  0  0
 11 15  1  0  0  0  0
 11  4  1  0  0  0  0
 12 16  1  0  0  0  0
 13  2  2  0  0  0  0
 14  1  1  0  0  0  0
 16  5  2  0  0  0  0
 16 17  1  0  0  0  0
 17  6  1  0  0  0  0
 18 10  1  0  0  0  0
 18 13  1  0  0  0  0
 19 20  1  0  0  0  0
 19  3  2  0  0  0  0
 20 11  2  0  0  0  0
 22 27  1  0  0  0  0
 23 26  2  0  0  0  0
 24 27  2  0  0  0  0
 25 21  1  0  0  0  0
 26 22  1  0  0  0  0
 27 25  1  0  0  0  0
 28 26  1  0  0  0  0
 28 29  1  0  0  0  0
 29 31  1  6  0  0  0
 29 30  1  0  0  0  0
M  END
>  <MODEL>
7

>  <REMARK>
 VINA RESULT:      -8.6      2.757      3.534
  Name = 
  4 active torsions:
  status: ('A' for Active; 'I' for Inactive)
    1  A    between atoms: C_1  and  C_24
    2  A    between atoms: N_9  and  C_23
    3  A    between atoms: C_15  and  C_23
    4  A    between atoms: C_19  and  C_24
                            x       y       z     vdW  Elec       q    Type
                         _______ _______ _______ _____ _____    ______ ____

>  <TORSDO>
F 4

$$$$
=
 OpenBabel10272400273D

 31 34  0  0  1  0  0  0  0  0999 V2000
  185.2240  178.1060  144.6640 C   0  0  0  0  0  0  0  0  0  0  0  0
  188.7910  177.3640  143.3510 C   0  0  0  0  0  0  0  0  0  0  0  0
  189.5810  177.1560  144.6070 C   0  0  0  0  0  0  0  0  0  0  0  0
  189.7310  176.8880  147.0230 C   0  0  0  0  0  3  0  0  0  0  0  0
  187.3570  177.7970  143.3910 C   0  0  0  0  0  0  0  0  0  0  0  0
  184.7240  178.8330  143.6570 C   0  0  0  0  0  3  0  0  0  0  0  0
  188.9680  177.0660  145.8660 C   0  0  0  0  0  3  0  0  0  0  0  0
  188.6860  177.5600  140.8720 C   0  0  2  0  0  3  0  0  0  0  0  0
  184.5740  178.1460  146.0020 C   0  0  0  0  0  1  0  0  0  0  0  0
  191.6830  177.2620  143.2210 C   0  0  0  0  0  2  0  0  0  0  0  0
  191.1210  176.8050  146.9370 C   0  0  0  0  0  0  0  0  0  0  0  0
  187.8810  179.1780  141.0770 S   0  0  0  0  0  0  0  0  0  0  0  0
  189.4190  177.2270  142.1540 C   0  0  0  0  0  0  0  0  0  0  0  0
  186.4270  177.2270  144.4410 C   0  0  0  0  0  2  0  0  0  0  0  0
  191.9330  176.6200  148.1670 C   0  0  0  0  0  1  0  0  0  0  0  0
  186.8360  178.5390  142.3880 C   0  0  0  0  0  0  0  0  0  0  0  0
  185.3510  178.7650  142.2910 C   0  0  0  0  0  2  0  0  0  0  0  0
  190.8280  176.6840  142.1010 C   0  0  0  0  0  2  0  0  0  0  0  0
  190.9900  177.0760  144.5340 C   0  0  0  0  0  0  0  0  0  0  0  0
  191.7510  176.9080  145.6950 C   0  0  0  0  0  3  0  0  0  0  0  0
  189.5980  177.5890  139.6520 C   0  0  0  0  0  2  0  0  0  0  0  0
  190.9050  174.6020  137.6740 N   0  0  0  0  0  2  0  0  0  0  0  0
  192.0690  175.0230  135.6810 O   0  0  0  0  0  0  0  0  0  0  0  0
  191.1150  176.9120  137.3550 O   0  0  0  0  0  0  0  0  0  0  0  0
  189.8970  176.2330  139.2230 N   0  0  0  0  0  2  0  0  0  0  0  0
  191.6080  174.1830  136.5000 C   0  0  0  0  0  0  0  0  0  0  0  0
  190.6610  175.9620  138.0480 C   0  0  0  0  0  0  0  0  0  0  0  0
  191.8170  172.7280  136.2550 C   0  0  0  0  0  2  0  0  0  0  0  0
  193.2990  172.4010  136.1950 C   0  0  2  0  0  3  0  0  0  0  0  0
  193.8510  172.9080  135.0160 O   0  0  0  0  0  1  0  0  0  0  0  0
  193.4810  170.8990  136.2240 C   0  0  0  0  0  1  0  0  0  0  0  0
  1  9  1  0  0  0  0
  2  5  1  0  0  0  0
  2  3  1  0  0  0  0
  3  7  1  0  0  0  0
  5 14  1  0  0  0  0
  6  1  2  0  0  0  0
  7  4  2  0  0  0  0
  8 21  1  6  0  0  0
  8 12  1  0  0  0  0
  8 13  1  0  0  0  0
 10 19  1  0  0  0  0
 11  4  1  0  0  0  0
 11 15  1  0  0  0  0
 12 16  1  0  0  0  0
 13  2  2  0  0  0  0
 14  1  1  0  0  0  0
 16  5  2  0  0  0  0
 17 16  1  0  0  0  0
 17  6  1  0  0  0  0
 18 13  1  0  0  0  0
 18 10  1  0  0  0  0
 19  3  2  0  0  0  0
 19 20  1  0  0  0  0
 20 11  2  0  0  0  0
 22 27  1  0  0  0  0
 23 26  2  0  0  0  0
 24 27  2  0  0  0  0
 25 21  1  0  0  0  0
 26 22  1  0  0  0  0
 27 25  1  0  0  0  0
 28 26  1  0  0  0  0
 29 31  1  6  0  0  0
 29 28  1  0  0  0  0
 30 29  1  0  0  0  0
M  END
>  <MODEL>
8

>  <REMARK>
 VINA RESULT:      -8.2      1.786      4.730
  Name = 
  4 active torsions:
  status: ('A' for Active; 'I' for Inactive)
    1  A    between atoms: C_1  and  C_24
    2  A    between atoms: N_9  and  C_23
    3  A    between atoms: C_15  and  C_23
    4  A    between atoms: C_19  and  C_24
                            x       y       z     vdW  Elec       q    Type
                         _______ _______ _______ _____ _____    ______ ____

>  <TORSDO>
F 4

$$$$
=
 OpenBabel10272400273D

 31 34  0  0  1  0  0  0  0  0999 V2000
  189.6760  176.9930  147.3080 C   0  0  0  0  0  0  0  0  0  0  0  0
  187.3460  177.7540  144.3100 C   0  0  0  0  0  0  0  0  0  0  0  0
  188.2540  177.6140  143.1270 C   0  0  0  0  0  0  0  0  0  0  0  0
  190.3870  176.9990  142.1260 C   0  0  0  0  0  3  0  0  0  0  0  0
  187.8660  177.6560  145.7120 C   0  0  0  0  0  0  0  0  0  0  0  0
  189.0640  177.6680  148.2890 C   0  0  0  0  0  3  0  0  0  0  0  0
  189.5560  177.1030  143.2440 C   0  0  0  0  0  3  0  0  0  0  0  0
  185.1230  178.3280  145.2720 C   0  0  2  0  0  3  0  0  0  0  0  0
  191.0960  176.5760  147.4680 C   0  0  0  0  0  1  0  0  0  0  0  0
  186.4580  178.6700  141.7090 C   0  0  0  0  0  2  0  0  0  0  0  0
  189.9290  177.4130  140.8740 C   0  0  0  0  0  0  0  0  0  0  0  0
  185.9530  179.5120  146.3750 S   0  0  0  0  0  0  0  0  0  0  0  0
  186.0370  178.0490  144.0970 C   0  0  0  0  0  0  0  0  0  0  0  0
  188.9250  176.6310  146.0530 C   0  0  0  0  0  2  0  0  0  0  0  0
  190.8150  177.3070  139.6860 C   0  0  0  0  0  1  0  0  0  0  0  0
  187.2670  178.3380  146.7150 C   0  0  0  0  0  0  0  0  0  0  0  0
  187.6170  178.0550  148.1520 C   0  0  0  0  0  2  0  0  0  0  0  0
  185.4810  178.0380  142.6930 C   0  0  0  0  0  2  0  0  0  0  0  0
  187.8050  178.0340  141.8550 C   0  0  0  0  0  0  0  0  0  0  0  0
  188.6430  177.9380  140.7400 C   0  0  0  0  0  3  0  0  0  0  0  0
  183.7640  178.8780  144.8550 C   0  0  0  0  0  2  0  0  0  0  0  0
  182.0730  178.5180  141.4560 N   0  0  0  0  0  2  0  0  0  0  0  0
  180.0580  179.6640  141.1000 O   0  0  0  0  0  0  0  0  0  0  0  0
  181.5480  179.7960  143.3460 O   0  0  0  0  0  0  0  0  0  0  0  0
  183.4620  178.4740  143.4920 N   0  0  0  0  0  2  0  0  0  0  0  0
  180.9470  178.8890  140.6550 C   0  0  0  0  0  0  0  0  0  0  0  0
  182.3210  178.9690  142.7920 C   0  0  0  0  0  0  0  0  0  0  0  0
  180.8360  178.3660  139.2640 C   0  0  0  0  0  2  0  0  0  0  0  0
  182.0450  178.7740  138.4400 C   0  0  2  0  0  3  0  0  0  0  0  0
  182.1830  180.1630  138.4520 O   0  0  0  0  0  1  0  0  0  0  0  0
  181.8570  178.3040  137.0130 C   0  0  0  0  0  1  0  0  0  0  0  0
  1  9  1  0  0  0  0
  1  6  2  0  0  0  0
  2  5  1  0  0  0  0
  3  7  1  0  0  0  0
  3  2  1  0  0  0  0
  4  7  2  0  0  0  0
  5 14  1  0  0  0  0
  5 16  2  0  0  0  0
  8 21  1  6  0  0  0
  8 12  1  0  0  0  0
 10 19  1  0  0  0  0
 10 18  1  0  0  0  0
 11  4  1  0  0  0  0
 12 16  1  0  0  0  0
 13  2  2  0  0  0  0
 13  8  1  0  0  0  0
 14  1  1  0  0  0  0
 15 11  1  0  0  0  0
 16 17  1  0  0  0  0
 17  6  1  0  0  0  0
 18 13  1  0  0  0  0
 19  3  2  0  0  0  0
 20 11  2  0  0  0  0
 20 19  1  0  0  0  0
 22 27  1  0  0  0  0
 25 21  1  0  0  0  0
 26 23  2  0  0  0  0
 26 22  1  0  0  0  0
 27 24  2  0  0  0  0
 27 25  1  0  0  0  0
 28 26  1  0  0  0  0
 29 31  1  6  0  0  0
 29 30  1  0  0  0  0
 29 28  1  0  0  0  0
M  END
>  <MODEL>
9

>  <REMARK>
 VINA RESULT:      -8.0      4.759      7.932
  Name = 
  4 active torsions:
  status: ('A' for Active; 'I' for Inactive)
    1  A    between atoms: C_1  and  C_24
    2  A    between atoms: N_9  and  C_23
    3  A    between atoms: C_15  and  C_23
    4  A    between atoms: C_19  and  C_24
                            x       y       z     vdW  Elec       q    Type
                         _______ _______ _______ _____ _____    ______ ____

>  <TORSDO>
F 4

$$$$
