=
 OpenBabel10272414203D

 43 48  0  0  1  0  0  0  0  0999 V2000
  184.5920  178.2970  143.7860 C   0  0  0  0  0  3  0  0  0  0  0  0
  191.1640  176.2840  146.7810 C   0  0  1  0  0  3  0  0  0  0  0  0
  186.8980  177.8070  144.4290 C   0  0  0  0  0  0  0  0  0  0  0  0
  187.6780  178.1380  141.7120 C   0  0  0  0  0  0  0  0  0  0  0  0
  188.8490  177.1330  146.2910 C   0  0  0  0  0  0  0  0  0  0  0  0
  191.6370  177.1570  145.6290 C   0  0  0  0  0  2  0  0  0  0  0  0
  192.2230  176.2490  147.8620 C   0  0  0  0  0  1  0  0  0  0  0  0
  189.2170  177.3250  144.9410 C   0  0  0  0  0  0  0  0  0  0  0  0
  189.8690  176.8500  147.3570 C   0  0  0  0  0  2  0  0  0  0  0  0
  190.6330  177.0780  144.4830 C   0  0  0  0  0  2  0  0  0  0  0  0
  188.5630  177.8250  142.6130 N   0  0  0  0  0  0  0  0  0  0  0  0
  188.2270  177.6520  144.0010 C   0  0  0  0  0  0  0  0  0  0  0  0
  186.5770  177.6360  145.7410 N   0  0  0  0  0  0  0  0  0  0  0  0
  185.8750  178.1500  143.4260 C   0  0  0  0  0  0  0  0  0  0  0  0
  186.3010  178.3100  142.0700 N   0  0  0  0  0  2  0  0  0  0  0  0
  187.5170  177.3120  146.6680 C   0  0  0  0  0  3  0  0  0  0  0  0
  181.1510  179.3860  142.7270 C   0  0  0  0  0  3  0  0  0  0  0  0
  181.2120  179.2620  141.3360 C   0  0  0  0  0  0  0  0  0  0  0  0
  183.5070  178.5110  141.5090 C   0  0  0  0  0  3  0  0  0  0  0  0
  182.2660  179.0660  143.5080 C   0  0  0  0  0  3  0  0  0  0  0  0
  183.4510  178.6270  142.9070 C   0  0  0  0  0  0  0  0  0  0  0  0
  182.3940  178.8310  140.7260 C   0  0  0  0  0  3  0  0  0  0  0  0
  180.0210  181.0000  140.2740 O   0  0  0  0  0  1  0  0  0  0  0  0
  180.0330  179.6240  140.5040 C   0  0  0  0  0  2  0  0  0  0  0  0
  188.0880  178.2820  140.2910 C   0  0  0  0  0  2  0  0  0  0  0  0
  186.8540  178.3870  139.4060 C   0  0  0  0  0  2  0  0  0  0  0  0
  187.0630  177.7070  138.0450 C   0  0  2  0  0  3  0  0  0  0  0  0
  185.8290  177.0420  137.5730 N   0  0  0  0  0  0  0  0  0  0  0  0
  184.2420  177.0120  135.7680 C   0  0  0  0  0  2  0  0  0  0  0  0
  184.6730  177.8360  137.9780 C   0  0  0  0  0  2  0  0  0  0  0  0
  185.7220  176.9550  136.1030 C   0  0  1  0  0  0  0  0  0  0  0  0
  186.3640  178.0350  135.4780 O   0  0  0  0  0  1  0  0  0  0  0  0
  183.5590  177.5460  137.0020 C   0  0  0  0  0  2  0  0  0  0  0  0
  186.3140  175.6260  135.6220 C   0  0  0  0  0  2  0  0  0  0  0  0
  185.7550  174.4400  136.3420 C   0  0  0  0  0  0  0  0  0  0  0  0
  185.6020  172.8400  137.7780 N   0  0  0  0  0  0  0  0  0  0  0  0
  184.5600  172.7580  136.9330 C   0  0  0  0  0  0  0  0  0  0  0  0
  183.5060  171.7150  137.0240 C   0  0  0  0  0  1  0  0  0  0  0  0
  184.6060  173.7610  135.9840 C   0  0  0  0  0  3  0  0  0  0  0  0
  186.3400  173.8740  137.4130 N   0  0  0  0  0  2  0  0  0  0  0  0
  188.2340  176.7290  138.1400 C   0  0  0  0  0  2  0  0  0  0  0  0
  190.3670  177.0770  137.7020 C   0  0  0  0  0  1  0  0  0  0  0  0
  189.1240  176.9430  137.0870 O   0  0  0  0  0  0  0  0  0  0  0  0
  2  9  1  0  0  0  0
  2  7  1  1  0  0  0
  3 13  1  0  0  0  0
  4 15  1  0  0  0  0
  4 11  2  0  0  0  0
  5 16  1  0  0  0  0
  5  9  1  0  0  0  0
  6  2  1  0  0  0  0
  8  5  2  0  0  0  0
 10  8  1  0  0  0  0
 10  6  1  0  0  0  0
 11 12  1  0  0  0  0
 12  3  2  0  0  0  0
 12  8  1  0  0  0  0
 13 16  2  0  0  0  0
 14  1  2  0  0  0  0
 14  3  1  0  0  0  0
 15 14  1  0  0  0  0
 17 20  1  0  0  0  0
 18 17  2  0  0  0  0
 19 21  1  0  0  0  0
 21 20  2  0  0  0  0
 21  1  1  0  0  0  0
 22 18  1  0  0  0  0
 22 19  2  0  0  0  0
 23 24  1  0  0  0  0
 24 18  1  0  0  0  0
 25  4  1  0  0  0  0
 26 25  1  0  0  0  0
 27 41  1  1  0  0  0
 27 26  1  0  0  0  0
 28 30  1  0  0  0  0
 28 27  1  0  0  0  0
 29 31  1  0  0  0  0
 29 33  1  0  0  0  0
 31 32  1  6  0  0  0
 31 28  1  0  0  0  0
 33 30  1  0  0  0  0
 34 31  1  0  0  0  0
 34 35  1  0  0  0  0
 35 40  1  0  0  0  0
 37 38  1  0  0  0  0
 37 36  2  0  0  0  0
 39 35  2  0  0  0  0
 39 37  1  0  0  0  0
 40 36  1  0  0  0  0
 43 42  1  0  0  0  0
 43 41  1  0  0  0  0
M  END
>  <MODEL>
1

>  <REMARK>
 VINA RESULT:      -9.3      0.000      0.000
  Name = 
  10 active torsions:
  status: ('A' for Active; 'I' for Inactive)
    1  A    between atoms: C_1  and  C_35
    2  A    between atoms: C_2  and  C_6
    3  A    between atoms: C_2  and  C_13
    4  A    between atoms: C_3  and  N_4
    5  A    between atoms: C_3  and  C_6
    6  A    between atoms: C_3  and  C_12
    7  A    between atoms: C_11  and  C_14
    8  A    between atoms: C_12  and  O_17
    9  A    between atoms: C_14  and  C_22
   10  A    between atoms: C_19  and  C_37
                            x       y       z     vdW  Elec       q    Type
                         _______ _______ _______ _____ _____    ______ ____

>  <TORSDO>
F 10

$$$$
=
 OpenBabel10272414203D

 43 48  0  0  1  0  0  0  0  0999 V2000
  187.0640  177.7220  144.3860 C   0  0  0  0  0  3  0  0  0  0  0  0
  182.0350  179.7450  139.2060 C   0  0  1  0  0  3  0  0  0  0  0  0
  185.7050  178.2600  142.4280 C   0  0  0  0  0  0  0  0  0  0  0  0
  188.0680  178.2560  140.8430 C   0  0  0  0  0  0  0  0  0  0  0  0
  183.2840  178.8340  141.1890 C   0  0  0  0  0  0  0  0  0  0  0  0
  183.0560  179.0230  138.3380 C   0  0  0  0  0  2  0  0  0  0  0  0
  180.6820  179.7200  138.5270 C   0  0  0  0  0  1  0  0  0  0  0  0
  184.4660  178.8040  140.4180 C   0  0  0  0  0  0  0  0  0  0  0  0
  181.9350  179.0550  140.5630 C   0  0  0  0  0  2  0  0  0  0  0  0
  184.4440  179.1710  138.9540 C   0  0  0  0  0  2  0  0  0  0  0  0
  186.9160  178.5180  140.2980 N   0  0  0  0  0  0  0  0  0  0  0  0
  185.6890  178.5270  141.0490 C   0  0  0  0  0  0  0  0  0  0  0  0
  184.5450  178.2750  143.1410 N   0  0  0  0  0  0  0  0  0  0  0  0
  186.9980  177.9720  143.0700 C   0  0  0  0  0  0  0  0  0  0  0  0
  188.1670  177.9780  142.2450 N   0  0  0  0  0  2  0  0  0  0  0  0
  183.3500  178.5480  142.5540 C   0  0  0  0  0  3  0  0  0  0  0  0
  189.2750  177.1550  147.3760 C   0  0  0  0  0  3  0  0  0  0  0  0
  190.5170  176.9010  146.7870 C   0  0  0  0  0  0  0  0  0  0  0  0
  189.5240  177.1660  144.5950 C   0  0  0  0  0  3  0  0  0  0  0  0
  188.1600  177.4200  146.5730 C   0  0  0  0  0  3  0  0  0  0  0  0
  188.2760  177.4280  145.1790 C   0  0  0  0  0  0  0  0  0  0  0  0
  190.6400  176.9010  145.3940 C   0  0  0  0  0  3  0  0  0  0  0  0
  192.4450  175.5720  147.0630 O   0  0  0  0  0  1  0  0  0  0  0  0
  191.6970  176.5980  147.6400 C   0  0  0  0  0  2  0  0  0  0  0  0
  189.3010  178.2840  140.0130 C   0  0  0  0  0  2  0  0  0  0  0  0
  188.9580  178.7160  138.5950 C   0  0  0  0  0  2  0  0  0  0  0  0
  189.3740  177.6650  137.5570 C   0  0  2  0  0  3  0  0  0  0  0  0
  188.2070  177.1310  136.8220 N   0  0  0  0  0  0  0  0  0  0  0  0
  187.2730  176.9060  134.6180 C   0  0  0  0  0  2  0  0  0  0  0  0
  187.2290  178.2000  136.6360 C   0  0  0  0  0  2  0  0  0  0  0  0
  188.5200  176.6740  135.4530 C   0  0  1  0  0  0  0  0  0  0  0  0
  189.5750  177.4140  134.8950 O   0  0  0  0  0  1  0  0  0  0  0  0
  186.4180  177.8650  135.4080 C   0  0  0  0  0  2  0  0  0  0  0  0
  188.8620  175.1800  135.4750 C   0  0  0  0  0  2  0  0  0  0  0  0
  187.6830  174.3130  135.7800 C   0  0  0  0  0  0  0  0  0  0  0  0
  186.0590  172.9310  135.4650 N   0  0  0  0  0  0  0  0  0  0  0  0
  186.0340  173.3360  136.7460 C   0  0  0  0  0  0  0  0  0  0  0  0
  185.0290  172.8720  137.7380 C   0  0  0  0  0  1  0  0  0  0  0  0
  187.0540  174.2300  137.0090 C   0  0  0  0  0  2  0  0  0  0  0  0
  187.0730  173.5340  134.8690 N   0  0  0  0  0  0  0  0  0  0  0  0
  190.1650  176.5530  138.2470 C   0  0  0  0  0  2  0  0  0  0  0  0
  192.3380  176.6100  138.6240 C   0  0  0  0  0  1  0  0  0  0  0  0
  191.3990  176.3820  137.6190 O   0  0  0  0  0  0  0  0  0  0  0  0
  1 21  1  0  0  0  0
  2  7  1  6  0  0  0
  2  9  1  0  0  0  0
  3 14  1  0  0  0  0
  3 13  1  0  0  0  0
  4 15  1  0  0  0  0
  5 16  1  0  0  0  0
  6 10  1  0  0  0  0
  6  2  1  0  0  0  0
  8 12  1  0  0  0  0
  8  5  2  0  0  0  0
  9  5  1  0  0  0  0
 10  8  1  0  0  0  0
 11  4  2  0  0  0  0
 11 12  1  0  0  0  0
 12  3  2  0  0  0  0
 14  1  2  0  0  0  0
 15 14  1  0  0  0  0
 16 13  2  0  0  0  0
 18 17  1  0  0  0  0
 18 24  1  0  0  0  0
 19 21  2  0  0  0  0
 19 22  1  0  0  0  0
 20 17  2  0  0  0  0
 21 20  1  0  0  0  0
 22 18  2  0  0  0  0
 23 24  1  0  0  0  0
 25  4  1  0  0  0  0
 26 25  1  0  0  0  0
 27 41  1  1  0  0  0
 27 26  1  0  0  0  0
 28 27  1  0  0  0  0
 29 33  1  0  0  0  0
 29 31  1  0  0  0  0
 30 28  1  0  0  0  0
 31 32  1  6  0  0  0
 31 34  1  0  0  0  0
 31 28  1  0  0  0  0
 33 30  1  0  0  0  0
 34 35  1  0  0  0  0
 35 39  1  0  0  0  0
 36 37  2  0  0  0  0
 37 39  1  0  0  0  0
 37 38  1  0  0  0  0
 40 36  1  0  0  0  0
 40 35  2  0  0  0  0
 43 41  1  0  0  0  0
 43 42  1  0  0  0  0
M  END
>  <MODEL>
2

>  <REMARK>
 VINA RESULT:      -9.2      2.375      6.604
  Name = 
  10 active torsions:
  status: ('A' for Active; 'I' for Inactive)
    1  A    between atoms: C_1  and  C_35
    2  A    between atoms: C_2  and  C_6
    3  A    between atoms: C_2  and  C_13
    4  A    between atoms: C_3  and  N_4
    5  A    between atoms: C_3  and  C_6
    6  A    between atoms: C_3  and  C_12
    7  A    between atoms: C_11  and  C_14
    8  A    between atoms: C_12  and  O_17
    9  A    between atoms: C_14  and  C_22
   10  A    between atoms: C_19  and  C_37
                            x       y       z     vdW  Elec       q    Type
                         _______ _______ _______ _____ _____    ______ ____

>  <TORSDO>
F 10

$$$$
=
 OpenBabel10272414203D

 43 48  0  0  1  0  0  0  0  0999 V2000
  184.5890  178.3040  143.9840 C   0  0  0  0  0  3  0  0  0  0  0  0
  191.2060  176.2860  146.8760 C   0  0  1  0  0  3  0  0  0  0  0  0
  186.9040  177.8100  144.5900 C   0  0  0  0  0  0  0  0  0  0  0  0
  187.6380  178.1270  141.8580 C   0  0  0  0  0  0  0  0  0  0  0  0
  188.8850  177.1400  146.4210 C   0  0  0  0  0  0  0  0  0  0  0  0
  191.6620  177.1530  145.7110 C   0  0  0  0  0  2  0  0  0  0  0  0
  192.2840  176.2540  147.9390 C   0  0  0  0  0  1  0  0  0  0  0  0
  189.2310  177.3240  145.0640 C   0  0  0  0  0  0  0  0  0  0  0  0
  189.9240  176.8590  147.4710 C   0  0  0  0  0  2  0  0  0  0  0  0
  190.6380  177.0710  144.5840 C   0  0  0  0  0  2  0  0  0  0  0  0
  188.5380  177.8160  142.7450 N   0  0  0  0  0  0  0  0  0  0  0  0
  188.2260  177.6500  144.1390 C   0  0  0  0  0  0  0  0  0  0  0  0
  186.6060  177.6460  145.9080 N   0  0  0  0  0  0  0  0  0  0  0  0
  185.8660  178.1510  143.6030 C   0  0  0  0  0  0  0  0  0  0  0  0
  186.2690  178.3040  142.2390 N   0  0  0  0  0  2  0  0  0  0  0  0
  187.5610  177.3230  146.8200 C   0  0  0  0  0  3  0  0  0  0  0  0
  181.1590  179.4700  142.9720 C   0  0  0  0  0  3  0  0  0  0  0  0
  181.1720  179.2740  141.5880 C   0  0  0  0  0  0  0  0  0  0  0  0
  183.4420  178.4450  141.7330 C   0  0  0  0  0  3  0  0  0  0  0  0
  182.2860  179.1460  143.7350 C   0  0  0  0  0  3  0  0  0  0  0  0
  183.4340  178.6320  143.1240 C   0  0  0  0  0  0  0  0  0  0  0  0
  182.3180  178.7670  140.9670 C   0  0  0  0  0  3  0  0  0  0  0  0
  180.0420  180.9880  140.4270 O   0  0  0  0  0  1  0  0  0  0  0  0
  179.9820  179.6380  140.7740 C   0  0  0  0  0  2  0  0  0  0  0  0
  188.0250  178.2640  140.4300 C   0  0  0  0  0  2  0  0  0  0  0  0
  189.1770  177.3200  140.1160 C   0  0  0  0  0  2  0  0  0  0  0  0
  189.2410  176.9650  138.6240 C   0  0  2  0  0  3  0  0  0  0  0  0
  190.6230  177.0370  138.1040 N   0  0  0  0  0  0  0  0  0  0  0  0
  192.5860  175.7100  137.6990 C   0  0  0  0  0  2  0  0  0  0  0  0
  191.5430  177.2440  139.2190 C   0  0  0  0  0  2  0  0  0  0  0  0
  191.0870  175.7880  137.4670 C   0  0  1  0  0  0  0  0  0  0  0  0
  190.4860  174.6620  138.0490 O   0  0  0  0  0  1  0  0  0  0  0  0
  192.8850  176.6860  138.8100 C   0  0  0  0  0  2  0  0  0  0  0  0
  190.7960  175.8380  135.9630 C   0  0  0  0  0  2  0  0  0  0  0  0
  190.1300  174.6000  135.4540 C   0  0  0  0  0  0  0  0  0  0  0  0
  188.5570  173.2720  134.8130 N   0  0  0  0  0  0  0  0  0  0  0  0
  189.7220  172.6020  134.7830 C   0  0  0  0  0  0  0  0  0  0  0  0
  189.8440  171.1810  134.3670 C   0  0  0  0  0  1  0  0  0  0  0  0
  190.7710  173.4040  135.1880 C   0  0  0  0  0  3  0  0  0  0  0  0
  188.8080  174.5020  135.2280 N   0  0  0  0  0  2  0  0  0  0  0  0
  188.2940  177.8770  137.8440 C   0  0  0  0  0  2  0  0  0  0  0  0
  187.2480  177.8580  135.9020 C   0  0  0  0  0  1  0  0  0  0  0  0
  187.4230  177.1130  137.0670 O   0  0  0  0  0  0  0  0  0  0  0  0
  2  9  1  0  0  0  0
  2  7  1  1  0  0  0
  3 13  1  0  0  0  0
  4 15  1  0  0  0  0
  4 11  2  0  0  0  0
  5 16  1  0  0  0  0
  5  9  1  0  0  0  0
  6  2  1  0  0  0  0
  8  5  2  0  0  0  0
 10  8  1  0  0  0  0
 10  6  1  0  0  0  0
 11 12  1  0  0  0  0
 12  3  2  0  0  0  0
 12  8  1  0  0  0  0
 13 16  2  0  0  0  0
 14  1  2  0  0  0  0
 14  3  1  0  0  0  0
 15 14  1  0  0  0  0
 17 20  1  0  0  0  0
 18 17  2  0  0  0  0
 19 21  1  0  0  0  0
 21 20  2  0  0  0  0
 21  1  1  0  0  0  0
 22 18  1  0  0  0  0
 22 19  2  0  0  0  0
 23 24  1  0  0  0  0
 24 18  1  0  0  0  0
 25  4  1  0  0  0  0
 26 25  1  0  0  0  0
 27 41  1  6  0  0  0
 27 26  1  0  0  0  0
 28 27  1  0  0  0  0
 28 30  1  0  0  0  0
 29 33  1  0  0  0  0
 31 29  1  0  0  0  0
 31 32  1  1  0  0  0
 31 28  1  0  0  0  0
 33 30  1  0  0  0  0
 34 31  1  0  0  0  0
 35 34  1  0  0  0  0
 36 40  1  0  0  0  0
 37 36  2  0  0  0  0
 37 39  1  0  0  0  0
 38 37  1  0  0  0  0
 39 35  2  0  0  0  0
 40 35  1  0  0  0  0
 42 43  1  0  0  0  0
 43 41  1  0  0  0  0
M  END
>  <MODEL>
3

>  <REMARK>
 VINA RESULT:      -9.2      2.282      3.489
  Name = 
  10 active torsions:
  status: ('A' for Active; 'I' for Inactive)
    1  A    between atoms: C_1  and  C_35
    2  A    between atoms: C_2  and  C_6
    3  A    between atoms: C_2  and  C_13
    4  A    between atoms: C_3  and  N_4
    5  A    between atoms: C_3  and  C_6
    6  A    between atoms: C_3  and  C_12
    7  A    between atoms: C_11  and  C_14
    8  A    between atoms: C_12  and  O_17
    9  A    between atoms: C_14  and  C_22
   10  A    between atoms: C_19  and  C_37
                            x       y       z     vdW  Elec       q    Type
                         _______ _______ _______ _____ _____    ______ ____

>  <TORSDO>
F 10

$$$$
=
 OpenBabel10272414203D

 43 48  0  0  1  0  0  0  0  0999 V2000
  186.7710  177.7620  144.3010 C   0  0  0  0  0  3  0  0  0  0  0  0
  181.6870  179.8940  139.2190 C   0  0  1  0  0  3  0  0  0  0  0  0
  185.3910  178.3430  142.3700 C   0  0  0  0  0  0  0  0  0  0  0  0
  187.7400  178.3860  140.7630 C   0  0  0  0  0  0  0  0  0  0  0  0
  182.9570  178.9390  141.1670 C   0  0  0  0  0  0  0  0  0  0  0  0
  182.7020  179.1970  138.3250 C   0  0  0  0  0  2  0  0  0  0  0  0
  180.3280  179.8810  138.5520 C   0  0  0  0  0  1  0  0  0  0  0  0
  184.1320  178.9320  140.3850 C   0  0  0  0  0  0  0  0  0  0  0  0
  181.6020  179.1710  140.5590 C   0  0  0  0  0  2  0  0  0  0  0  0
  184.0950  179.3340  138.9310 C   0  0  0  0  0  2  0  0  0  0  0  0
  186.5820  178.6570  140.2360 N   0  0  0  0  0  0  0  0  0  0  0  0
  185.3620  178.6440  140.9980 C   0  0  0  0  0  0  0  0  0  0  0  0
  184.2380  178.3370  143.0940 N   0  0  0  0  0  0  0  0  0  0  0  0
  186.6910  178.0440  142.9930 C   0  0  0  0  0  0  0  0  0  0  0  0
  187.8520  178.0740  142.1570 N   0  0  0  0  0  2  0  0  0  0  0  0
  183.0370  178.6200  142.5240 C   0  0  0  0  0  3  0  0  0  0  0  0
  189.0720  177.3520  147.2480 C   0  0  0  0  0  3  0  0  0  0  0  0
  190.2550  176.9150  146.6460 C   0  0  0  0  0  0  0  0  0  0  0  0
  189.1800  177.0080  144.4790 C   0  0  0  0  0  3  0  0  0  0  0  0
  187.9460  177.6230  146.4640 C   0  0  0  0  0  3  0  0  0  0  0  0
  187.9900  177.4530  145.0760 C   0  0  0  0  0  0  0  0  0  0  0  0
  190.3070  176.7360  145.2600 C   0  0  0  0  0  3  0  0  0  0  0  0
  192.3620  175.8590  146.7410 O   0  0  0  0  0  1  0  0  0  0  0  0
  191.4460  176.6060  147.4820 C   0  0  0  0  0  2  0  0  0  0  0  0
  188.9650  178.4390  139.9230 C   0  0  0  0  0  2  0  0  0  0  0  0
  189.1350  177.1220  139.1780 C   0  0  0  0  0  2  0  0  0  0  0  0
  188.7840  177.2540  137.6890 C   0  0  2  0  0  3  0  0  0  0  0  0
  189.3810  176.1630  136.8890 N   0  0  0  0  0  0  0  0  0  0  0  0
  189.1500  173.8290  136.3620 C   0  0  0  0  0  2  0  0  0  0  0  0
  190.3220  175.4200  137.7220 C   0  0  0  0  0  2  0  0  0  0  0  0
  188.4060  175.1510  136.4370 C   0  0  1  0  0  0  0  0  0  0  0  0
  187.3480  175.0170  137.3480 O   0  0  0  0  0  1  0  0  0  0  0  0
  190.4140  174.0200  137.1640 C   0  0  0  0  0  2  0  0  0  0  0  0
  187.8780  175.5300  135.0490 C   0  0  0  0  0  2  0  0  0  0  0  0
  186.4410  175.1680  134.8500 C   0  0  0  0  0  0  0  0  0  0  0  0
  184.7020  173.9610  134.4410 N   0  0  0  0  0  0  0  0  0  0  0  0
  184.3090  175.2350  134.6110 C   0  0  0  0  0  0  0  0  0  0  0  0
  182.8940  175.6800  134.5210 C   0  0  0  0  0  1  0  0  0  0  0  0
  185.3850  176.0600  134.8740 C   0  0  0  0  0  2  0  0  0  0  0  0
  186.0150  173.9190  134.5860 N   0  0  0  0  0  0  0  0  0  0  0  0
  189.2180  178.6310  137.1850 C   0  0  0  0  0  2  0  0  0  0  0  0
  187.1120  178.7940  136.5510 C   0  0  0  0  0  1  0  0  0  0  0  0
  188.1310  179.5050  137.1820 O   0  0  0  0  0  0  0  0  0  0  0  0
  1 21  1  0  0  0  0
  2  7  1  6  0  0  0
  2  9  1  0  0  0  0
  3 14  1  0  0  0  0
  3 13  1  0  0  0  0
  4 15  1  0  0  0  0
  5 16  1  0  0  0  0
  6 10  1  0  0  0  0
  6  2  1  0  0  0  0
  8 12  1  0  0  0  0
  8  5  2  0  0  0  0
  9  5  1  0  0  0  0
 10  8  1  0  0  0  0
 11  4  2  0  0  0  0
 11 12  1  0  0  0  0
 12  3  2  0  0  0  0
 14  1  2  0  0  0  0
 15 14  1  0  0  0  0
 16 13  2  0  0  0  0
 18 17  1  0  0  0  0
 18 24  1  0  0  0  0
 19 21  2  0  0  0  0
 19 22  1  0  0  0  0
 20 17  2  0  0  0  0
 21 20  1  0  0  0  0
 22 18  2  0  0  0  0
 23 24  1  0  0  0  0
 25  4  1  0  0  0  0
 26 25  1  0  0  0  0
 27 41  1  6  0  0  0
 27 26  1  0  0  0  0
 28 27  1  0  0  0  0
 28 30  1  0  0  0  0
 29 31  1  0  0  0  0
 29 33  1  0  0  0  0
 31 28  1  0  0  0  0
 31 32  1  1  0  0  0
 33 30  1  0  0  0  0
 34 31  1  0  0  0  0
 35 39  1  0  0  0  0
 35 34  1  0  0  0  0
 36 40  1  0  0  0  0
 36 37  2  0  0  0  0
 37 39  1  0  0  0  0
 38 37  1  0  0  0  0
 40 35  2  0  0  0  0
 42 43  1  0  0  0  0
 43 41  1  0  0  0  0
M  END
>  <MODEL>
4

>  <REMARK>
 VINA RESULT:      -8.9      2.406      6.882
  Name = 
  10 active torsions:
  status: ('A' for Active; 'I' for Inactive)
    1  A    between atoms: C_1  and  C_35
    2  A    between atoms: C_2  and  C_6
    3  A    between atoms: C_2  and  C_13
    4  A    between atoms: C_3  and  N_4
    5  A    between atoms: C_3  and  C_6
    6  A    between atoms: C_3  and  C_12
    7  A    between atoms: C_11  and  C_14
    8  A    between atoms: C_12  and  O_17
    9  A    between atoms: C_14  and  C_22
   10  A    between atoms: C_19  and  C_37
                            x       y       z     vdW  Elec       q    Type
                         _______ _______ _______ _____ _____    ______ ____

>  <TORSDO>
F 10

$$$$
=
 OpenBabel10272414203D

 43 48  0  0  1  0  0  0  0  0999 V2000
  186.5750  177.8560  144.4350 C   0  0  0  0  0  3  0  0  0  0  0  0
  181.3580  179.9140  139.4580 C   0  0  1  0  0  3  0  0  0  0  0  0
  185.1440  178.4080  142.5330 C   0  0  0  0  0  0  0  0  0  0  0  0
  187.4490  178.4220  140.8630 C   0  0  0  0  0  0  0  0  0  0  0  0
  182.6790  178.9890  141.3870 C   0  0  0  0  0  0  0  0  0  0  0  0
  182.3480  179.2010  138.5480 C   0  0  0  0  0  2  0  0  0  0  0  0
  179.9820  179.8930  138.8290 C   0  0  0  0  0  1  0  0  0  0  0  0
  183.8330  178.9670  140.5730 C   0  0  0  0  0  0  0  0  0  0  0  0
  181.3080  179.2130  140.8120 C   0  0  0  0  0  2  0  0  0  0  0  0
  183.7570  179.3460  139.1150 C   0  0  0  0  0  2  0  0  0  0  0  0
  186.2770  178.6870  140.3630 N   0  0  0  0  0  0  0  0  0  0  0  0
  185.0780  178.6870  141.1570 C   0  0  0  0  0  0  0  0  0  0  0  0
  184.0110  178.4150  143.2880 N   0  0  0  0  0  0  0  0  0  0  0  0
  186.4610  178.1170  143.1250 C   0  0  0  0  0  0  0  0  0  0  0  0
  187.5980  178.1320  142.2580 N   0  0  0  0  0  2  0  0  0  0  0  0
  182.7960  178.6920  142.7460 C   0  0  0  0  0  3  0  0  0  0  0  0
  188.9260  177.3960  147.3350 C   0  0  0  0  0  3  0  0  0  0  0  0
  190.1170  177.0330  146.7000 C   0  0  0  0  0  0  0  0  0  0  0  0
  189.0130  177.1870  144.5520 C   0  0  0  0  0  3  0  0  0  0  0  0
  187.7810  177.6600  146.5760 C   0  0  0  0  0  3  0  0  0  0  0  0
  187.8150  177.5580  145.1810 C   0  0  0  0  0  0  0  0  0  0  0  0
  190.1590  176.9220  145.3070 C   0  0  0  0  0  3  0  0  0  0  0  0
  192.2570  176.0400  146.7280 O   0  0  0  0  0  1  0  0  0  0  0  0
  191.3290  176.7310  147.5090 C   0  0  0  0  0  2  0  0  0  0  0  0
  188.6510  178.4590  139.9890 C   0  0  0  0  0  2  0  0  0  0  0  0
  189.2700  177.0710  139.9060 C   0  0  0  0  0  2  0  0  0  0  0  0
  189.6130  176.6800  138.4620 C   0  0  2  0  0  3  0  0  0  0  0  0
  191.0330  176.9490  138.1470 N   0  0  0  0  0  0  0  0  0  0  0  0
  193.1990  175.9120  138.0430 C   0  0  0  0  0  2  0  0  0  0  0  0
  191.7440  177.2700  139.3810 C   0  0  0  0  0  2  0  0  0  0  0  0
  191.7540  175.7840  137.5960 C   0  0  1  0  0  0  0  0  0  0  0  0
  191.2370  174.5790  138.0960 O   0  0  0  0  0  1  0  0  0  0  0  0
  193.1960  176.9080  139.1760 C   0  0  0  0  0  2  0  0  0  0  0  0
  191.6790  175.8080  136.0660 C   0  0  0  0  0  2  0  0  0  0  0  0
  191.0220  174.5940  135.4910 C   0  0  0  0  0  0  0  0  0  0  0  0
  189.4740  173.3250  134.6890 N   0  0  0  0  0  0  0  0  0  0  0  0
  190.6070  172.6090  134.7870 C   0  0  0  0  0  0  0  0  0  0  0  0
  190.7160  171.1810  134.3910 C   0  0  0  0  0  1  0  0  0  0  0  0
  191.6390  173.3720  135.3000 C   0  0  0  0  0  2  0  0  0  0  0  0
  189.7290  174.5470  135.1250 N   0  0  0  0  0  0  0  0  0  0  0  0
  188.6720  177.4070  137.5010 C   0  0  0  0  0  2  0  0  0  0  0  0
  186.5210  177.0780  137.1450 C   0  0  0  0  0  1  0  0  0  0  0  0
  187.7730  176.5030  136.9350 O   0  0  0  0  0  0  0  0  0  0  0  0
  1 21  1  0  0  0  0
  2  7  1  6  0  0  0
  2  9  1  0  0  0  0
  3 14  1  0  0  0  0
  3 13  1  0  0  0  0
  4 15  1  0  0  0  0
  5 16  1  0  0  0  0
  6 10  1  0  0  0  0
  6  2  1  0  0  0  0
  8 12  1  0  0  0  0
  8  5  2  0  0  0  0
  9  5  1  0  0  0  0
 10  8  1  0  0  0  0
 11  4  2  0  0  0  0
 11 12  1  0  0  0  0
 12  3  2  0  0  0  0
 14  1  2  0  0  0  0
 15 14  1  0  0  0  0
 16 13  2  0  0  0  0
 18 17  1  0  0  0  0
 18 24  1  0  0  0  0
 19 21  2  0  0  0  0
 19 22  1  0  0  0  0
 20 17  2  0  0  0  0
 21 20  1  0  0  0  0
 22 18  2  0  0  0  0
 23 24  1  0  0  0  0
 25  4  1  0  0  0  0
 26 25  1  0  0  0  0
 27 41  1  6  0  0  0
 27 26  1  0  0  0  0
 28 27  1  0  0  0  0
 28 30  1  0  0  0  0
 29 33  1  0  0  0  0
 31 29  1  0  0  0  0
 31 32  1  1  0  0  0
 31 28  1  0  0  0  0
 33 30  1  0  0  0  0
 34 31  1  0  0  0  0
 35 34  1  0  0  0  0
 36 37  2  0  0  0  0
 36 40  1  0  0  0  0
 37 39  1  0  0  0  0
 38 37  1  0  0  0  0
 39 35  1  0  0  0  0
 40 35  2  0  0  0  0
 43 42  1  0  0  0  0
 43 41  1  0  0  0  0
M  END
>  <MODEL>
5

>  <REMARK>
 VINA RESULT:      -8.8      2.888      7.454
  Name = 
  10 active torsions:
  status: ('A' for Active; 'I' for Inactive)
    1  A    between atoms: C_1  and  C_35
    2  A    between atoms: C_2  and  C_6
    3  A    between atoms: C_2  and  C_13
    4  A    between atoms: C_3  and  N_4
    5  A    between atoms: C_3  and  C_6
    6  A    between atoms: C_3  and  C_12
    7  A    between atoms: C_11  and  C_14
    8  A    between atoms: C_12  and  O_17
    9  A    between atoms: C_14  and  C_22
   10  A    between atoms: C_19  and  C_37
                            x       y       z     vdW  Elec       q    Type
                         _______ _______ _______ _____ _____    ______ ____

>  <TORSDO>
F 10

$$$$
=
 OpenBabel10272414203D

 43 48  0  0  1  0  0  0  0  0999 V2000
  184.9990  178.3990  142.4610 C   0  0  0  0  0  3  0  0  0  0  0  0
  190.9790  176.3850  146.5100 C   0  0  1  0  0  3  0  0  0  0  0  0
  187.1650  177.9030  143.4760 C   0  0  0  0  0  0  0  0  0  0  0  0
  188.3780  178.1900  140.9180 C   0  0  0  0  0  0  0  0  0  0  0  0
  188.7820  177.2430  145.6380 C   0  0  0  0  0  0  0  0  0  0  0  0
  191.6410  177.2390  145.4380 C   0  0  0  0  0  2  0  0  0  0  0  0
  191.8490  176.3590  147.7480 C   0  0  0  0  0  1  0  0  0  0  0  0
  189.3660  177.4130  144.3640 C   0  0  0  0  0  0  0  0  0  0  0  0
  189.6140  176.9680  146.8600 C   0  0  0  0  0  2  0  0  0  0  0  0
  190.8350  177.1490  144.1460 C   0  0  0  0  0  2  0  0  0  0  0  0
  189.1030  177.8840  141.9540 N   0  0  0  0  0  0  0  0  0  0  0  0
  188.5450  177.7330  143.2710 C   0  0  0  0  0  0  0  0  0  0  0  0
  186.6340  177.7530  144.7210 N   0  0  0  0  0  0  0  0  0  0  0  0
  186.3220  178.2380  142.3170 C   0  0  0  0  0  0  0  0  0  0  0  0
  186.9630  178.3750  141.0450 N   0  0  0  0  0  2  0  0  0  0  0  0
  187.4090  177.4360  145.7920 C   0  0  0  0  0  3  0  0  0  0  0  0
  181.6860  178.8590  140.7390 C   0  0  0  0  0  3  0  0  0  0  0  0
  182.0680  179.2930  139.4670 C   0  0  0  0  0  0  0  0  0  0  0  0
  184.3930  179.1660  140.1260 C   0  0  0  0  0  3  0  0  0  0  0  0
  182.6600  178.5730  141.7020 C   0  0  0  0  0  3  0  0  0  0  0  0
  184.0180  178.7240  141.4040 C   0  0  0  0  0  0  0  0  0  0  0  0
  183.4230  179.4530  139.1620 C   0  0  0  0  0  3  0  0  0  0  0  0
  181.4860  179.2580  137.1810 O   0  0  0  0  0  1  0  0  0  0  0  0
  181.0320  179.6180  138.4500 C   0  0  0  0  0  2  0  0  0  0  0  0
  189.0150  178.3100  139.5800 C   0  0  0  0  0  2  0  0  0  0  0  0
  189.8290  177.0590  139.2830 C   0  0  0  0  0  2  0  0  0  0  0  0
  189.2640  176.2760  138.0890 C   0  0  2  0  0  3  0  0  0  0  0  0
  190.2630  176.1310  137.0080 N   0  0  0  0  0  0  0  0  0  0  0  0
  191.9070  174.6240  136.1120 C   0  0  0  0  0  2  0  0  0  0  0  0
  191.5720  176.5440  137.5100 C   0  0  0  0  0  2  0  0  0  0  0  0
  190.4600  174.7390  136.5590 C   0  0  1  0  0  0  0  0  0  0  0  0
  190.2430  173.8280  137.6040 O   0  0  0  0  0  1  0  0  0  0  0  0
  192.6170  175.8200  136.6970 C   0  0  0  0  0  2  0  0  0  0  0  0
  189.5260  174.4410  135.3810 C   0  0  0  0  0  2  0  0  0  0  0  0
  188.4430  173.4690  135.7230 C   0  0  0  0  0  0  0  0  0  0  0  0
  187.4160  171.5860  135.9390 N   0  0  0  0  0  0  0  0  0  0  0  0
  186.5850  172.5730  136.3150 C   0  0  0  0  0  0  0  0  0  0  0  0
  185.1970  172.3430  136.7940 C   0  0  0  0  0  1  0  0  0  0  0  0
  187.1900  173.8090  136.1960 C   0  0  0  0  0  2  0  0  0  0  0  0
  188.5600  172.1370  135.5720 N   0  0  0  0  0  0  0  0  0  0  0  0
  187.9870  176.9550  137.5940 C   0  0  0  0  0  2  0  0  0  0  0  0
  187.4010  178.6080  136.2560 C   0  0  0  0  0  1  0  0  0  0  0  0
  188.1780  177.4510  136.3040 O   0  0  0  0  0  0  0  0  0  0  0  0
  2  9  1  0  0  0  0
  2  7  1  1  0  0  0
  3 13  1  0  0  0  0
  4 15  1  0  0  0  0
  4 11  2  0  0  0  0
  5 16  1  0  0  0  0
  5  9  1  0  0  0  0
  6  2  1  0  0  0  0
  8  5  2  0  0  0  0
 10  8  1  0  0  0  0
 10  6  1  0  0  0  0
 11 12  1  0  0  0  0
 12  3  2  0  0  0  0
 12  8  1  0  0  0  0
 13 16  2  0  0  0  0
 14  1  2  0  0  0  0
 14  3  1  0  0  0  0
 15 14  1  0  0  0  0
 17 20  1  0  0  0  0
 18 17  2  0  0  0  0
 19 21  1  0  0  0  0
 21 20  2  0  0  0  0
 21  1  1  0  0  0  0
 22 18  1  0  0  0  0
 22 19  2  0  0  0  0
 23 24  1  0  0  0  0
 24 18  1  0  0  0  0
 25  4  1  0  0  0  0
 26 25  1  0  0  0  0
 27 41  1  6  0  0  0
 27 26  1  0  0  0  0
 28 30  1  0  0  0  0
 28 27  1  0  0  0  0
 29 31  1  0  0  0  0
 29 33  1  0  0  0  0
 31 28  1  0  0  0  0
 31 32  1  1  0  0  0
 33 30  1  0  0  0  0
 34 35  1  0  0  0  0
 34 31  1  0  0  0  0
 35 39  1  0  0  0  0
 36 37  2  0  0  0  0
 37 38  1  0  0  0  0
 39 37  1  0  0  0  0
 40 35  2  0  0  0  0
 40 36  1  0  0  0  0
 42 43  1  0  0  0  0
 43 41  1  0  0  0  0
M  END
>  <MODEL>
6

>  <REMARK>
 VINA RESULT:      -8.8      1.925      3.153
  Name = 
  10 active torsions:
  status: ('A' for Active; 'I' for Inactive)
    1  A    between atoms: C_1  and  C_35
    2  A    between atoms: C_2  and  C_6
    3  A    between atoms: C_2  and  C_13
    4  A    between atoms: C_3  and  N_4
    5  A    between atoms: C_3  and  C_6
    6  A    between atoms: C_3  and  C_12
    7  A    between atoms: C_11  and  C_14
    8  A    between atoms: C_12  and  O_17
    9  A    between atoms: C_14  and  C_22
   10  A    between atoms: C_19  and  C_37
                            x       y       z     vdW  Elec       q    Type
                         _______ _______ _______ _____ _____    ______ ____

>  <TORSDO>
F 10

$$$$
=
 OpenBabel10272414203D

 43 48  0  0  1  0  0  0  0  0999 V2000
  184.5800  178.3040  143.3110 C   0  0  0  0  0  3  0  0  0  0  0  0
  191.0110  176.4510  146.6910 C   0  0  1  0  0  3  0  0  0  0  0  0
  186.8550  177.8910  144.1020 C   0  0  0  0  0  0  0  0  0  0  0  0
  187.8120  178.3980  141.4700 C   0  0  0  0  0  0  0  0  0  0  0  0
  188.6970  177.2140  146.0700 C   0  0  0  0  0  0  0  0  0  0  0  0
  191.5220  177.4040  145.6210 C   0  0  0  0  0  2  0  0  0  0  0  0
  191.9890  176.4110  147.8460 C   0  0  0  0  0  1  0  0  0  0  0  0
  189.1520  177.4930  144.7620 C   0  0  0  0  0  0  0  0  0  0  0  0
  189.6510  176.9250  147.1950 C   0  0  0  0  0  2  0  0  0  0  0  0
  190.6080  177.3360  144.4010 C   0  0  0  0  0  2  0  0  0  0  0  0
  188.6440  178.0810  142.4180 N   0  0  0  0  0  0  0  0  0  0  0  0
  188.2180  177.8210  143.7670 C   0  0  0  0  0  0  0  0  0  0  0  0
  186.4490  177.6380  145.3760 N   0  0  0  0  0  0  0  0  0  0  0  0
  185.8920  178.2360  143.0430 C   0  0  0  0  0  0  0  0  0  0  0  0
  186.4060  178.4850  141.7310 N   0  0  0  0  0  2  0  0  0  0  0  0
  187.3340  177.3100  146.3540 C   0  0  0  0  0  3  0  0  0  0  0  0
  182.8020  178.9510  140.0610 C   0  0  0  0  0  3  0  0  0  0  0  0
  181.5010  179.2400  140.4830 C   0  0  0  0  0  0  0  0  0  0  0  0
  182.1800  178.9090  142.7830 C   0  0  0  0  0  3  0  0  0  0  0  0
  183.7920  178.6480  141.0010 C   0  0  0  0  0  3  0  0  0  0  0  0
  183.4900  178.6240  142.3670 C   0  0  0  0  0  0  0  0  0  0  0  0
  181.1880  179.2120  141.8450 C   0  0  0  0  0  3  0  0  0  0  0  0
  180.9280  180.4500  138.5410 O   0  0  0  0  0  1  0  0  0  0  0  0
  180.4430  179.5410  139.4810 C   0  0  0  0  0  2  0  0  0  0  0  0
  188.3170  178.6340  140.0920 C   0  0  0  0  0  2  0  0  0  0  0  0
  188.0830  177.3960  139.2380 C   0  0  0  0  0  2  0  0  0  0  0  0
  189.3860  176.8640  138.6260 C   0  0  2  0  0  3  0  0  0  0  0  0
  189.1420  175.6990  137.7480 N   0  0  0  0  0  0  0  0  0  0  0  0
  189.2220  174.9810  135.4560 C   0  0  0  0  0  2  0  0  0  0  0  0
  187.7900  175.7880  137.2020 C   0  0  0  0  0  2  0  0  0  0  0  0
  190.0190  175.6510  136.5620 C   0  0  1  0  0  0  0  0  0  0  0  0
  190.3760  176.9390  136.1360 O   0  0  0  0  0  1  0  0  0  0  0  0
  187.7800  175.0350  135.8940 C   0  0  0  0  0  2  0  0  0  0  0  0
  191.2680  174.8220  136.8780 C   0  0  0  0  0  2  0  0  0  0  0  0
  192.5400  175.5060  136.4910 C   0  0  0  0  0  0  0  0  0  0  0  0
  194.2950  176.7470  136.6550 N   0  0  0  0  0  0  0  0  0  0  0  0
  194.2270  176.2650  135.4020 C   0  0  0  0  0  0  0  0  0  0  0  0
  195.2270  176.5700  134.3470 C   0  0  0  0  0  1  0  0  0  0  0  0
  193.1160  175.4610  135.2350 C   0  0  0  0  0  3  0  0  0  0  0  0
  193.2550  176.2820  137.3250 N   0  0  0  0  0  2  0  0  0  0  0  0
  190.3760  176.5340  139.7440 C   0  0  0  0  0  2  0  0  0  0  0  0
  191.8640  177.6220  140.9550 C   0  0  0  0  0  1  0  0  0  0  0  0
  191.5080  177.3420  139.6360 O   0  0  0  0  0  0  0  0  0  0  0  0
  2  9  1  0  0  0  0
  2  7  1  1  0  0  0
  3 13  1  0  0  0  0
  4 15  1  0  0  0  0
  4 11  2  0  0  0  0
  5 16  1  0  0  0  0
  5  9  1  0  0  0  0
  6  2  1  0  0  0  0
  8  5  2  0  0  0  0
 10  8  1  0  0  0  0
 10  6  1  0  0  0  0
 11 12  1  0  0  0  0
 12  3  2  0  0  0  0
 12  8  1  0  0  0  0
 13 16  2  0  0  0  0
 14  1  2  0  0  0  0
 14  3  1  0  0  0  0
 15 14  1  0  0  0  0
 17 18  2  0  0  0  0
 17 20  1  0  0  0  0
 18 22  1  0  0  0  0
 20 21  2  0  0  0  0
 21 19  1  0  0  0  0
 21  1  1  0  0  0  0
 22 19  2  0  0  0  0
 23 24  1  0  0  0  0
 24 18  1  0  0  0  0
 25  4  1  0  0  0  0
 26 25  1  0  0  0  0
 27 26  1  1  0  0  0
 27 41  1  0  0  0  0
 28 27  1  0  0  0  0
 29 33  1  0  0  0  0
 29 31  1  0  0  0  0
 30 28  1  0  0  0  0
 31 32  1  6  0  0  0
 31 34  1  0  0  0  0
 31 28  1  0  0  0  0
 33 30  1  0  0  0  0
 35 34  1  0  0  0  0
 35 40  1  0  0  0  0
 36 40  1  0  0  0  0
 37 36  2  0  0  0  0
 38 37  1  0  0  0  0
 39 37  1  0  0  0  0
 39 35  2  0  0  0  0
 43 41  1  0  0  0  0
 43 42  1  0  0  0  0
M  END
>  <MODEL>
7

>  <REMARK>
 VINA RESULT:      -8.7      2.568      4.223
  Name = 
  10 active torsions:
  status: ('A' for Active; 'I' for Inactive)
    1  A    between atoms: C_1  and  C_35
    2  A    between atoms: C_2  and  C_6
    3  A    between atoms: C_2  and  C_13
    4  A    between atoms: C_3  and  N_4
    5  A    between atoms: C_3  and  C_6
    6  A    between atoms: C_3  and  C_12
    7  A    between atoms: C_11  and  C_14
    8  A    between atoms: C_12  and  O_17
    9  A    between atoms: C_14  and  C_22
   10  A    between atoms: C_19  and  C_37
                            x       y       z     vdW  Elec       q    Type
                         _______ _______ _______ _____ _____    ______ ____

>  <TORSDO>
F 10

$$$$
=
 OpenBabel10272414203D

 43 48  0  0  1  0  0  0  0  0999 V2000
  184.8670  178.4630  142.0970 C   0  0  0  0  0  3  0  0  0  0  0  0
  190.7780  176.5430  146.2900 C   0  0  1  0  0  3  0  0  0  0  0  0
  187.0150  177.9990  143.1640 C   0  0  0  0  0  0  0  0  0  0  0  0
  188.2830  178.2940  140.6330 C   0  0  0  0  0  0  0  0  0  0  0  0
  188.5910  177.3680  145.3650 C   0  0  0  0  0  0  0  0  0  0  0  0
  191.4530  177.4020  145.2300 C   0  0  0  0  0  2  0  0  0  0  0  0
  191.6190  176.5330  147.5480 C   0  0  0  0  0  1  0  0  0  0  0  0
  189.2010  177.5410  144.1040 C   0  0  0  0  0  0  0  0  0  0  0  0
  189.3970  177.1080  146.6070 C   0  0  0  0  0  2  0  0  0  0  0  0
  190.6790  177.2970  143.9200 C   0  0  0  0  0  2  0  0  0  0  0  0
  188.9880  178.0010  141.6870 N   0  0  0  0  0  0  0  0  0  0  0  0
  188.4010  177.8470  142.9910 C   0  0  0  0  0  0  0  0  0  0  0  0
  186.4580  177.8460  144.3960 N   0  0  0  0  0  0  0  0  0  0  0  0
  186.1950  178.3190  141.9840 C   0  0  0  0  0  0  0  0  0  0  0  0
  186.8640  178.4610  140.7270 N   0  0  0  0  0  2  0  0  0  0  0  0
  187.2110  177.5430  145.4860 C   0  0  0  0  0  3  0  0  0  0  0  0
  181.6540  178.5290  140.1420 C   0  0  0  0  0  3  0  0  0  0  0  0
  182.0040  179.2780  139.0150 C   0  0  0  0  0  0  0  0  0  0  0  0
  184.2490  179.5270  139.8850 C   0  0  0  0  0  3  0  0  0  0  0  0
  182.6040  178.2750  141.1360 C   0  0  0  0  0  3  0  0  0  0  0  0
  183.9060  178.7710  141.0170 C   0  0  0  0  0  0  0  0  0  0  0  0
  183.3010  179.7830  138.8900 C   0  0  0  0  0  3  0  0  0  0  0  0
  181.4640  179.1570  136.7220 O   0  0  0  0  0  1  0  0  0  0  0  0
  180.9870  179.5660  137.9680 C   0  0  0  0  0  2  0  0  0  0  0  0
  188.9500  178.4190  139.3100 C   0  0  0  0  0  2  0  0  0  0  0  0
  189.9320  177.2720  139.1180 C   0  0  0  0  0  2  0  0  0  0  0  0
  189.6640  176.4950  137.8220 C   0  0  2  0  0  3  0  0  0  0  0  0
  190.9160  176.2040  137.0910 N   0  0  0  0  0  0  0  0  0  0  0  0
  192.5900  174.5100  136.7620 C   0  0  0  0  0  2  0  0  0  0  0  0
  192.0550  176.5260  137.9470 C   0  0  0  0  0  2  0  0  0  0  0  0
  191.0950  174.7770  136.7570 C   0  0  1  0  0  0  0  0  0  0  0  0
  190.4900  173.9470  137.7140 O   0  0  0  0  0  1  0  0  0  0  0  0
  193.2140  175.6680  137.5000 C   0  0  0  0  0  2  0  0  0  0  0  0
  190.5220  174.4990  135.3630 C   0  0  0  0  0  2  0  0  0  0  0  0
  189.3510  173.5690  135.3850 C   0  0  0  0  0  0  0  0  0  0  0  0
  187.3200  172.8880  135.6240 N   0  0  0  0  0  0  0  0  0  0  0  0
  188.0940  171.8300  135.3250 C   0  0  0  0  0  0  0  0  0  0  0  0
  187.5790  170.4430  135.1940 C   0  0  0  0  0  1  0  0  0  0  0  0
  189.4140  172.2070  135.1620 C   0  0  0  0  0  3  0  0  0  0  0  0
  188.0940  173.9580  135.6630 N   0  0  0  0  0  2  0  0  0  0  0  0
  188.6720  177.2740  136.9580 C   0  0  0  0  0  2  0  0  0  0  0  0
  188.2580  177.6570  134.8260 C   0  0  0  0  0  1  0  0  0  0  0  0
  189.2830  177.6770  135.7710 O   0  0  0  0  0  0  0  0  0  0  0  0
  2  9  1  0  0  0  0
  2  7  1  1  0  0  0
  3 13  1  0  0  0  0
  4 15  1  0  0  0  0
  4 11  2  0  0  0  0
  5 16  1  0  0  0  0
  5  9  1  0  0  0  0
  6  2  1  0  0  0  0
  8  5  2  0  0  0  0
 10  8  1  0  0  0  0
 10  6  1  0  0  0  0
 11 12  1  0  0  0  0
 12  3  2  0  0  0  0
 12  8  1  0  0  0  0
 13 16  2  0  0  0  0
 14  1  2  0  0  0  0
 14  3  1  0  0  0  0
 15 14  1  0  0  0  0
 17 20  1  0  0  0  0
 18 17  2  0  0  0  0
 19 21  1  0  0  0  0
 21 20  2  0  0  0  0
 21  1  1  0  0  0  0
 22 18  1  0  0  0  0
 22 19  2  0  0  0  0
 23 24  1  0  0  0  0
 24 18  1  0  0  0  0
 25  4  1  0  0  0  0
 26 25  1  0  0  0  0
 27 41  1  6  0  0  0
 27 26  1  0  0  0  0
 28 27  1  0  0  0  0
 28 30  1  0  0  0  0
 29 33  1  0  0  0  0
 31 29  1  0  0  0  0
 31 28  1  0  0  0  0
 31 32  1  1  0  0  0
 33 30  1  0  0  0  0
 34 35  1  0  0  0  0
 34 31  1  0  0  0  0
 35 40  1  0  0  0  0
 36 40  1  0  0  0  0
 37 36  2  0  0  0  0
 38 37  1  0  0  0  0
 39 37  1  0  0  0  0
 39 35  2  0  0  0  0
 42 43  1  0  0  0  0
 43 41  1  0  0  0  0
M  END
>  <MODEL>
8

>  <REMARK>
 VINA RESULT:      -8.6      2.323      3.602
  Name = 
  10 active torsions:
  status: ('A' for Active; 'I' for Inactive)
    1  A    between atoms: C_1  and  C_35
    2  A    between atoms: C_2  and  C_6
    3  A    between atoms: C_2  and  C_13
    4  A    between atoms: C_3  and  N_4
    5  A    between atoms: C_3  and  C_6
    6  A    between atoms: C_3  and  C_12
    7  A    between atoms: C_11  and  C_14
    8  A    between atoms: C_12  and  O_17
    9  A    between atoms: C_14  and  C_22
   10  A    between atoms: C_19  and  C_37
                            x       y       z     vdW  Elec       q    Type
                         _______ _______ _______ _____ _____    ______ ____

>  <TORSDO>
F 10

$$$$
=
 OpenBabel10272414203D

 43 48  0  0  1  0  0  0  0  0999 V2000
  183.5580  178.7660  140.9280 C   0  0  0  0  0  3  0  0  0  0  0  0
  188.5490  177.2880  146.3240 C   0  0  1  0  0  3  0  0  0  0  0  0
  185.4620  178.4060  142.4150 C   0  0  0  0  0  0  0  0  0  0  0  0
  187.1730  178.3730  140.1410 C   0  0  0  0  0  0  0  0  0  0  0  0
  186.5930  178.0250  144.9260 C   0  0  0  0  0  0  0  0  0  0  0  0
  189.4330  178.0030  145.3130 C   0  0  0  0  0  2  0  0  0  0  0  0
  189.1490  177.4200  147.7080 C   0  0  0  0  0  1  0  0  0  0  0  0
  187.4260  178.0360  143.7860 C   0  0  0  0  0  0  0  0  0  0  0  0
  187.1540  177.9080  146.3160 C   0  0  0  0  0  2  0  0  0  0  0  0
  188.9030  177.7500  143.9050 C   0  0  0  0  0  2  0  0  0  0  0  0
  187.6660  178.2010  141.3330 N   0  0  0  0  0  0  0  0  0  0  0  0
  186.8500  178.2150  142.5180 C   0  0  0  0  0  0  0  0  0  0  0  0
  184.6880  178.4120  143.5350 N   0  0  0  0  0  0  0  0  0  0  0  0
  184.8780  178.5910  141.0760 C   0  0  0  0  0  0  0  0  0  0  0  0
  185.7670  178.5700  139.9550 N   0  0  0  0  0  2  0  0  0  0  0  0
  185.2220  178.2330  144.7720 C   0  0  0  0  0  3  0  0  0  0  0  0
  181.7870  177.9300  137.7160 C   0  0  0  0  0  3  0  0  0  0  0  0
  181.4310  179.1920  137.2330 C   0  0  0  0  0  0  0  0  0  0  0  0
  182.4510  180.2170  139.1740 C   0  0  0  0  0  3  0  0  0  0  0  0
  182.4810  177.8130  138.9250 C   0  0  0  0  0  3  0  0  0  0  0  0
  182.8190  178.9530  139.6620 C   0  0  0  0  0  0  0  0  0  0  0  0
  181.7570  180.3360  137.9660 C   0  0  0  0  0  3  0  0  0  0  0  0
  180.4850  180.6610  135.6490 O   0  0  0  0  0  1  0  0  0  0  0  0
  180.6730  179.3140  135.9580 C   0  0  0  0  0  2  0  0  0  0  0  0
  188.0700  178.3270  138.9570 C   0  0  0  0  0  2  0  0  0  0  0  0
  188.4760  176.8870  138.6740 C   0  0  0  0  0  2  0  0  0  0  0  0
  189.9560  176.7720  138.2850 C   0  0  2  0  0  3  0  0  0  0  0  0
  190.3390  175.3710  138.0030 N   0  0  0  0  0  0  0  0  0  0  0  0
  191.1780  173.9290  136.2730 C   0  0  0  0  0  2  0  0  0  0  0  0
  189.2010  174.6760  137.4080 C   0  0  0  0  0  2  0  0  0  0  0  0
  191.4190  175.2370  137.0060 C   0  0  1  0  0  0  0  0  0  0  0  0
  191.3880  176.2840  136.0720 O   0  0  0  0  0  1  0  0  0  0  0  0
  189.7490  173.5460  136.5690 C   0  0  0  0  0  2  0  0  0  0  0  0
  192.7750  175.1910  137.7180 C   0  0  0  0  0  2  0  0  0  0  0  0
  193.9310  175.4150  136.7960 C   0  0  0  0  0  0  0  0  0  0  0  0
  195.4750  176.4590  135.7130 N   0  0  0  0  0  0  0  0  0  0  0  0
  195.4900  175.1670  135.3420 C   0  0  0  0  0  0  0  0  0  0  0  0
  196.4400  174.6070  134.3460 C   0  0  0  0  0  1  0  0  0  0  0  0
  194.5160  174.4450  136.0050 C   0  0  0  0  0  3  0  0  0  0  0  0
  194.5130  176.6130  136.6060 N   0  0  0  0  0  2  0  0  0  0  0  0
  190.8210  177.3850  139.3880 C   0  0  0  0  0  2  0  0  0  0  0  0
  191.5390  177.2800  141.4700 C   0  0  0  0  0  1  0  0  0  0  0  0
  190.6690  176.6650  140.5720 O   0  0  0  0  0  0  0  0  0  0  0  0
  1 14  2  0  0  0  0
  2  7  1  1  0  0  0
  3 12  2  0  0  0  0
  3 13  1  0  0  0  0
  4 11  2  0  0  0  0
  5  9  1  0  0  0  0
  6  2  1  0  0  0  0
  8 10  1  0  0  0  0
  8  5  2  0  0  0  0
  9  2  1  0  0  0  0
 10  6  1  0  0  0  0
 11 12  1  0  0  0  0
 12  8  1  0  0  0  0
 13 16  2  0  0  0  0
 14  3  1  0  0  0  0
 15  4  1  0  0  0  0
 15 14  1  0  0  0  0
 16  5  1  0  0  0  0
 17 20  1  0  0  0  0
 18 17  2  0  0  0  0
 18 22  1  0  0  0  0
 19 21  1  0  0  0  0
 20 21  2  0  0  0  0
 21  1  1  0  0  0  0
 22 19  2  0  0  0  0
 23 24  1  0  0  0  0
 24 18  1  0  0  0  0
 25  4  1  0  0  0  0
 26 25  1  0  0  0  0
 27 26  1  1  0  0  0
 27 41  1  0  0  0  0
 28 27  1  0  0  0  0
 29 33  1  0  0  0  0
 29 31  1  0  0  0  0
 30 28  1  0  0  0  0
 31 32  1  6  0  0  0
 31 34  1  0  0  0  0
 31 28  1  0  0  0  0
 33 30  1  0  0  0  0
 35 34  1  0  0  0  0
 36 40  1  0  0  0  0
 37 36  2  0  0  0  0
 37 39  1  0  0  0  0
 38 37  1  0  0  0  0
 39 35  2  0  0  0  0
 40 35  1  0  0  0  0
 41 43  1  0  0  0  0
 43 42  1  0  0  0  0
M  END
>  <MODEL>
9

>  <REMARK>
 VINA RESULT:      -8.5      3.374      5.387
  Name = 
  10 active torsions:
  status: ('A' for Active; 'I' for Inactive)
    1  A    between atoms: C_1  and  C_35
    2  A    between atoms: C_2  and  C_6
    3  A    between atoms: C_2  and  C_13
    4  A    between atoms: C_3  and  N_4
    5  A    between atoms: C_3  and  C_6
    6  A    between atoms: C_3  and  C_12
    7  A    between atoms: C_11  and  C_14
    8  A    between atoms: C_12  and  O_17
    9  A    between atoms: C_14  and  C_22
   10  A    between atoms: C_19  and  C_37
                            x       y       z     vdW  Elec       q    Type
                         _______ _______ _______ _____ _____    ______ ____

>  <TORSDO>
F 10

$$$$
