=
 OpenBabel10272401033D

 27 32  0  0  1  0  0  0  0  0999 V2000
  188.4340  177.1460  145.9420 C   0  0  1  0  0  3  0  0  0  0  0  0
  190.0920  178.4120  144.8110 N   0  0  0  0  0  0  0  0  0  0  0  0
  188.1220  177.1390  144.4190 C   0  0  2  0  0  3  0  0  0  0  0  0
  191.8530  177.7690  141.0530 C   0  0  0  0  0  2  0  0  0  0  0  0
  190.2740  176.4380  139.5570 C   0  0  0  0  0  2  0  0  0  0  0  0
  191.3930  178.8540  144.5040 N   0  0  0  0  0  0  0  0  0  0  0  0
  188.9510  177.1290  141.5250 N   0  0  0  0  0  2  0  0  0  0  0  0
  184.7160  178.6140  143.4660 C   0  0  0  0  0  3  0  0  0  0  0  0
  189.5010  175.9910  140.8000 C   0  0  0  0  0  2  0  0  0  0  0  0
  184.3260  179.0130  144.7600 C   0  0  0  0  0  3  0  0  0  0  0  0
  189.8800  177.4170  142.6130 C   0  0  1  0  0  3  0  0  0  0  0  0
  189.7270  177.9300  146.1310 C   0  0  2  0  0  3  0  0  0  0  0  0
  191.0920  177.7220  139.7330 C   0  0  0  0  0  2  0  0  0  0  0  0
  190.9770  178.3860  142.1380 C   0  0  1  0  0  3  0  0  0  0  0  0
  187.3460  177.8330  146.5630 O   0  0  0  0  0  0  0  0  0  0  0  0
  189.1380  178.0710  143.7710 C   0  0  2  0  0  3  0  0  0  0  0  0
  185.9530  177.9810  143.2620 C   0  0  0  0  0  3  0  0  0  0  0  0
  191.8400  178.8420  143.2830 C   0  0  0  0  0  3  0  0  0  0  0  0
  185.1700  178.7810  145.8580 C   0  0  0  0  0  3  0  0  0  0  0  0
  186.3900  178.1500  145.6230 C   0  0  0  0  0  0  0  0  0  0  0  0
  186.7730  177.7630  144.3700 C   0  0  0  0  0  0  0  0  0  0  0  0
  192.7760  175.4010  147.8090 C   0  0  0  0  0  3  0  0  0  0  0  0
  190.7900  177.0380  146.7010 C   0  0  0  0  0  0  0  0  0  0  0  0
  191.3300  175.9770  145.9550 C   0  0  0  0  0  3  0  0  0  0  0  0
  192.3200  175.1620  146.5090 C   0  0  0  0  0  3  0  0  0  0  0  0
  192.2400  176.4550  148.5550 C   0  0  0  0  0  3  0  0  0  0  0  0
  191.2490  177.2710  148.0020 C   0  0  0  0  0  3  0  0  0  0  0  0
  1 12  1  0  0  0  0
  1 15  1  1  0  0  0
  2 12  1  0  0  0  0
  3 21  1  1  0  0  0
  3  1  1  0  0  0  0
  5 13  1  0  0  0  0
  5  9  1  0  0  0  0
  6  2  1  0  0  0  0
  8 10  1  0  0  0  0
  9  7  1  0  0  0  0
 10 19  2  0  0  0  0
 11  7  1  6  0  0  0
 11 16  1  0  0  0  0
 12 23  1  6  0  0  0
 13  4  1  0  0  0  0
 14  4  1  6  0  0  0
 14 11  1  0  0  0  0
 14 18  1  0  0  0  0
 16  3  1  0  0  0  0
 16  2  1  1  0  0  0
 17  8  2  0  0  0  0
 17 21  1  0  0  0  0
 18  6  2  0  0  0  0
 20 19  1  0  0  0  0
 20 15  1  0  0  0  0
 21 20  2  0  0  0  0
 22 26  1  0  0  0  0
 23 27  1  0  0  0  0
 24 25  1  0  0  0  0
 24 23  2  0  0  0  0
 25 22  2  0  0  0  0
 27 26  2  0  0  0  0
M  END
>  <MODEL>
1

>  <REMARK>
 VINA RESULT:      -7.3      0.000      0.000
  Name = 
  1 active torsions:
  status: ('A' for Active; 'I' for Inactive)
    1  A    between atoms: C_9  and  C_15
                            x       y       z     vdW  Elec       q    Type
                         _______ _______ _______ _____ _____    ______ ____

>  <TORSDO>
F 1

$$$$
=
 OpenBabel10272401033D

 27 32  0  0  1  0  0  0  0  0999 V2000
  188.7560  177.7560  138.7650 C   0  0  1  0  0  3  0  0  0  0  0  0
  189.0650  175.5420  137.9700 N   0  0  0  0  0  0  0  0  0  0  0  0
  190.2590  177.3800  138.8920 C   0  0  2  0  0  3  0  0  0  0  0  0
  192.2770  173.8880  135.8290 C   0  0  0  0  0  2  0  0  0  0  0  0
  194.4150  175.1970  136.2990 C   0  0  0  0  0  2  0  0  0  0  0  0
  188.9040  174.4500  137.0970 N   0  0  0  0  0  0  0  0  0  0  0  0
  192.7470  175.9730  137.9470 N   0  0  0  0  0  2  0  0  0  0  0  0
  191.6570  177.5150  142.4570 C   0  0  0  0  0  3  0  0  0  0  0  0
  193.5670  176.3650  136.8090 C   0  0  0  0  0  2  0  0  0  0  0  0
  190.4510  177.8370  143.1110 C   0  0  0  0  0  3  0  0  0  0  0  0
  191.4200  175.6730  137.4200 C   0  0  1  0  0  3  0  0  0  0  0  0
  188.0490  176.5680  138.1260 C   0  0  2  0  0  3  0  0  0  0  0  0
  193.7160  173.8330  136.3260 C   0  0  0  0  0  2  0  0  0  0  0  0
  191.3360  174.1980  136.9880 C   0  0  1  0  0  3  0  0  0  0  0  0
  188.2860  177.9510  140.1000 O   0  0  0  0  0  0  0  0  0  0  0  0
  190.3670  175.9140  138.4940 C   0  0  2  0  0  3  0  0  0  0  0  0
  191.6870  177.3510  141.0630 C   0  0  0  0  0  3  0  0  0  0  0  0
  189.9310  173.8150  136.6120 C   0  0  0  0  0  3  0  0  0  0  0  0
  189.2660  177.9980  142.3730 C   0  0  0  0  0  3  0  0  0  0  0  0
  189.3290  177.8310  140.9910 C   0  0  0  0  0  0  0  0  0  0  0  0
  190.4970  177.5170  140.3540 C   0  0  0  0  0  0  0  0  0  0  0  0
  186.3320  177.6970  134.3460 C   0  0  0  0  0  3  0  0  0  0  0  0
  187.4660  176.9670  136.8030 C   0  0  0  0  0  0  0  0  0  0  0  0
  188.2780  177.4610  135.7670 C   0  0  0  0  0  3  0  0  0  0  0  0
  187.7110  177.8240  134.5430 C   0  0  0  0  0  3  0  0  0  0  0  0
  185.5210  177.2070  135.3750 C   0  0  0  0  0  3  0  0  0  0  0  0
  186.0880  176.8440  136.6000 C   0  0  0  0  0  3  0  0  0  0  0  0
  1  3  1  0  0  0  0
  1 15  1  1  0  0  0
  2 12  1  0  0  0  0
  3 21  1  1  0  0  0
  4 13  1  0  0  0  0
  5 13  1  0  0  0  0
  5  9  1  0  0  0  0
  6  2  1  0  0  0  0
  8 10  1  0  0  0  0
  9  7  1  0  0  0  0
 11  7  1  1  0  0  0
 11 16  1  0  0  0  0
 12 23  1  6  0  0  0
 12  1  1  0  0  0  0
 14  4  1  6  0  0  0
 14 11  1  0  0  0  0
 15 20  1  0  0  0  0
 16  2  1  6  0  0  0
 16  3  1  0  0  0  0
 17  8  2  0  0  0  0
 18 14  1  0  0  0  0
 18  6  2  0  0  0  0
 19 10  2  0  0  0  0
 20 19  1  0  0  0  0
 21 20  2  0  0  0  0
 21 17  1  0  0  0  0
 22 25  2  0  0  0  0
 22 26  1  0  0  0  0
 24 23  2  0  0  0  0
 25 24  1  0  0  0  0
 26 27  2  0  0  0  0
 27 23  1  0  0  0  0
M  END
>  <MODEL>
2

>  <REMARK>
 VINA RESULT:      -6.7      4.185      8.402
  Name = 
  1 active torsions:
  status: ('A' for Active; 'I' for Inactive)
    1  A    between atoms: C_9  and  C_15
                            x       y       z     vdW  Elec       q    Type
                         _______ _______ _______ _____ _____    ______ ____

>  <TORSDO>
F 1

$$$$
=
 OpenBabel10272401033D

 27 32  0  0  1  0  0  0  0  0999 V2000
  189.3140  175.0820  136.8880 C   0  0  1  0  0  3  0  0  0  0  0  0
  188.3600  177.0410  137.8290 N   0  0  0  0  0  0  0  0  0  0  0  0
  190.1930  175.5470  138.0840 C   0  0  2  0  0  3  0  0  0  0  0  0
  188.1500  178.2570  141.8430 C   0  0  0  0  0  2  0  0  0  0  0  0
  190.0500  177.2060  143.1810 C   0  0  0  0  0  2  0  0  0  0  0  0
  187.3320  177.8730  138.3100 N   0  0  0  0  0  0  0  0  0  0  0  0
  190.5610  176.7880  140.8010 N   0  0  0  0  0  2  0  0  0  0  0  0
  193.8270  176.3680  137.1860 C   0  0  0  0  0  3  0  0  0  0  0  0
  190.2300  176.1630  142.0750 C   0  0  0  0  0  2  0  0  0  0  0  0
  193.7190  176.1640  135.7960 C   0  0  0  0  0  3  0  0  0  0  0  0
  189.3150  176.8860  140.0490 C   0  0  1  0  0  3  0  0  0  0  0  0
  188.1330  176.0400  136.8000 C   0  0  2  0  0  3  0  0  0  0  0  0
  189.3560  178.5000  142.7420 C   0  0  0  0  0  2  0  0  0  0  0  0
  188.5890  178.2020  140.3840 C   0  0  1  0  0  3  0  0  0  0  0  0
  190.1350  175.2040  135.7260 O   0  0  0  0  0  0  0  0  0  0  0  0
  189.6060  176.8720  138.5540 C   0  0  2  0  0  3  0  0  0  0  0  0
  192.7120  176.1810  138.0200 C   0  0  0  0  0  3  0  0  0  0  0  0
  187.3970  178.4130  139.4910 C   0  0  0  0  0  3  0  0  0  0  0  0
  192.4950  175.7690  135.2310 C   0  0  0  0  0  3  0  0  0  0  0  0
  191.4080  175.5900  136.0840 C   0  0  0  0  0  0  0  0  0  0  0  0
  191.5090  175.7900  137.4330 C   0  0  0  0  0  0  0  0  0  0  0  0
  184.4820  173.8670  137.4750 C   0  0  0  0  0  3  0  0  0  0  0  0
  186.8510  175.2980  137.0340 C   0  0  0  0  0  0  0  0  0  0  0  0
  185.6060  175.9440  136.9450 C   0  0  0  0  0  3  0  0  0  0  0  0
  184.4260  175.2300  137.1650 C   0  0  0  0  0  3  0  0  0  0  0  0
  185.7180  173.2210  137.5660 C   0  0  0  0  0  3  0  0  0  0  0  0
  186.9000  173.9350  137.3460 C   0  0  0  0  0  3  0  0  0  0  0  0
  1 15  1  6  0  0  0
  1  3  1  0  0  0  0
  2  6  1  0  0  0  0
  3 21  1  6  0  0  0
  3 16  1  0  0  0  0
  4 13  1  0  0  0  0
  6 18  2  0  0  0  0
  7  9  1  0  0  0  0
  8 17  1  0  0  0  0
  9  5  1  0  0  0  0
 10  8  2  0  0  0  0
 11 14  1  0  0  0  0
 11  7  1  1  0  0  0
 12  1  1  0  0  0  0
 12 23  1  1  0  0  0
 12  2  1  0  0  0  0
 13  5  1  0  0  0  0
 14 18  1  6  0  0  0
 14  4  1  0  0  0  0
 15 20  1  0  0  0  0
 16  2  1  6  0  0  0
 16 11  1  0  0  0  0
 19 10  1  0  0  0  0
 19 20  2  0  0  0  0
 20 21  1  0  0  0  0
 21 17  2  0  0  0  0
 22 26  1  0  0  0  0
 23 27  1  0  0  0  0
 24 23  2  0  0  0  0
 24 25  1  0  0  0  0
 25 22  2  0  0  0  0
 27 26  2  0  0  0  0
M  END
>  <MODEL>
3

>  <REMARK>
 VINA RESULT:      -6.2      4.276      9.065
  Name = 
  1 active torsions:
  status: ('A' for Active; 'I' for Inactive)
    1  A    between atoms: C_9  and  C_15
                            x       y       z     vdW  Elec       q    Type
                         _______ _______ _______ _____ _____    ______ ____

>  <TORSDO>
F 1

$$$$
=
 OpenBabel10272401033D

 27 32  0  0  1  0  0  0  0  0999 V2000
  184.2610  179.2180  141.2930 C   0  0  1  0  0  3  0  0  0  0  0  0
  184.0130  177.6060  139.5690 N   0  0  0  0  0  0  0  0  0  0  0  0
  185.6560  178.9230  140.6740 C   0  0  2  0  0  3  0  0  0  0  0  0
  186.0260  177.2790  135.8980 C   0  0  0  0  0  2  0  0  0  0  0  0
  188.3200  178.3830  136.0510 C   0  0  0  0  0  2  0  0  0  0  0  0
  183.4260  177.0030  138.4400 N   0  0  0  0  0  0  0  0  0  0  0  0
  187.4600  178.2430  138.3620 N   0  0  0  0  0  2  0  0  0  0  0  0
  188.2560  177.5630  143.1380 C   0  0  0  0  0  3  0  0  0  0  0  0
  187.8500  179.1490  137.2900 C   0  0  0  0  0  2  0  0  0  0  0  0
  187.4120  177.4850  144.2640 C   0  0  0  0  0  3  0  0  0  0  0  0
  186.0080  178.1190  138.2950 C   0  0  1  0  0  3  0  0  0  0  0  0
  183.2420  178.3890  140.5190 C   0  0  2  0  0  3  0  0  0  0  0  0
  187.5320  177.1050  135.7450 C   0  0  0  0  0  2  0  0  0  0  0  0
  185.6100  176.9840  137.3350 C   0  0  1  0  0  3  0  0  0  0  0  0
  184.3300  178.7730  142.6480 O   0  0  0  0  0  0  0  0  0  0  0  0
  185.4480  177.7930  139.6740 C   0  0  2  0  0  3  0  0  0  0  0  0
  187.7610  178.0330  141.9110 C   0  0  0  0  0  3  0  0  0  0  0  0
  184.1300  176.7160  137.3850 C   0  0  0  0  0  3  0  0  0  0  0  0
  186.0660  177.8770  144.1700 C   0  0  0  0  0  3  0  0  0  0  0  0
  185.6050  178.3410  142.9390 C   0  0  0  0  0  0  0  0  0  0  0  0
  186.4200  178.4160  141.8450 C   0  0  0  0  0  0  0  0  0  0  0  0
  180.4100  180.9560  138.5450 C   0  0  0  0  0  3  0  0  0  0  0  0
  182.2680  179.2920  139.8220 C   0  0  0  0  0  0  0  0  0  0  0  0
  182.6940  180.2120  138.8470 C   0  0  0  0  0  3  0  0  0  0  0  0
  181.7660  181.0400  138.2120 C   0  0  0  0  0  3  0  0  0  0  0  0
  179.9840  180.0440  139.5140 C   0  0  0  0  0  3  0  0  0  0  0  0
  180.9110  179.2140  140.1510 C   0  0  0  0  0  3  0  0  0  0  0  0
  1 15  1  1  0  0  0
  2 12  1  0  0  0  0
  3  1  1  0  0  0  0
  3 21  1  1  0  0  0
  5  9  1  0  0  0  0
  6  2  1  0  0  0  0
  8 10  1  0  0  0  0
  9  7  1  0  0  0  0
 11  7  1  1  0  0  0
 11 16  1  0  0  0  0
 12 23  1  6  0  0  0
 12  1  1  0  0  0  0
 13  4  1  0  0  0  0
 13  5  1  0  0  0  0
 14  4  1  6  0  0  0
 14 18  1  0  0  0  0
 14 11  1  0  0  0  0
 15 20  1  0  0  0  0
 16  2  1  6  0  0  0
 16  3  1  0  0  0  0
 17  8  2  0  0  0  0
 18  6  2  0  0  0  0
 19 10  2  0  0  0  0
 20 19  1  0  0  0  0
 21 17  1  0  0  0  0
 21 20  2  0  0  0  0
 22 26  1  0  0  0  0
 23 27  1  0  0  0  0
 24 23  2  0  0  0  0
 25 22  2  0  0  0  0
 25 24  1  0  0  0  0
 26 27  2  0  0  0  0
M  END
>  <MODEL>
4

>  <REMARK>
 VINA RESULT:      -6.2      4.475      8.432
  Name = 
  1 active torsions:
  status: ('A' for Active; 'I' for Inactive)
    1  A    between atoms: C_9  and  C_15
                            x       y       z     vdW  Elec       q    Type
                         _______ _______ _______ _____ _____    ______ ____

>  <TORSDO>
F 1

$$$$
=
 OpenBabel10272401033D

 27 32  0  0  1  0  0  0  0  0999 V2000
  183.3890  179.4840  140.0540 C   0  0  1  0  0  3  0  0  0  0  0  0
  183.6150  177.7330  138.4680 N   0  0  0  0  0  0  0  0  0  0  0  0
  184.8990  179.1630  139.8680 C   0  0  2  0  0  3  0  0  0  0  0  0
  186.5580  177.1420  135.5310 C   0  0  0  0  0  2  0  0  0  0  0  0
  188.7280  178.2930  136.2160 C   0  0  0  0  0  2  0  0  0  0  0  0
  183.3580  177.0300  137.2760 N   0  0  0  0  0  0  0  0  0  0  0  0
  187.2650  178.3280  138.2050 N   0  0  0  0  0  2  0  0  0  0  0  0
  186.7130  178.0530  143.0560 C   0  0  0  0  0  3  0  0  0  0  0  0
  187.9400  179.1500  137.2100 C   0  0  0  0  0  2  0  0  0  0  0  0
  185.5910  178.0530  143.9090 C   0  0  0  0  0  3  0  0  0  0  0  0
  185.8860  178.1750  137.7520 C   0  0  1  0  0  3  0  0  0  0  0  0
  182.6180  178.5780  139.1020 C   0  0  2  0  0  3  0  0  0  0  0  0
  188.0470  176.9820  135.8130 C   0  0  0  0  0  2  0  0  0  0  0  0
  185.7610  176.9580  136.8170 C   0  0  1  0  0  3  0  0  0  0  0  0
  183.0800  179.1520  141.4080 O   0  0  0  0  0  0  0  0  0  0  0  0
  184.9680  177.9520  138.9470 C   0  0  2  0  0  3  0  0  0  0  0  0
  186.5770  178.4130  141.7050 C   0  0  0  0  0  3  0  0  0  0  0  0
  184.3230  176.6700  136.4820 C   0  0  0  0  0  3  0  0  0  0  0  0
  184.3260  178.4130  143.4160 C   0  0  0  0  0  3  0  0  0  0  0  0
  184.2240  178.7670  142.0730 C   0  0  0  0  0  0  0  0  0  0  0  0
  185.3090  178.7670  141.2420 C   0  0  0  0  0  0  0  0  0  0  0  0
  180.5060  180.9900  136.2330 C   0  0  0  0  0  3  0  0  0  0  0  0
  181.8790  179.4040  138.0910 C   0  0  0  0  0  0  0  0  0  0  0  0
  181.2740  178.8160  136.9670 C   0  0  0  0  0  3  0  0  0  0  0  0
  180.5910  179.6080  136.0420 C   0  0  0  0  0  3  0  0  0  0  0  0
  181.1070  181.5800  137.3490 C   0  0  0  0  0  3  0  0  0  0  0  0
  181.7920  180.7890  138.2760 C   0  0  0  0  0  3  0  0  0  0  0  0
  1 15  1  1  0  0  0
  2 12  1  0  0  0  0
  3  1  1  0  0  0  0
  3 21  1  1  0  0  0
  4 13  1  0  0  0  0
  5  9  1  0  0  0  0
  6  2  1  0  0  0  0
  8 10  1  0  0  0  0
  9  7  1  0  0  0  0
 11  7  1  1  0  0  0
 11 16  1  0  0  0  0
 12 23  1  6  0  0  0
 12  1  1  0  0  0  0
 13  5  1  0  0  0  0
 14  4  1  6  0  0  0
 14 11  1  0  0  0  0
 15 20  1  0  0  0  0
 16  2  1  6  0  0  0
 16  3  1  0  0  0  0
 17  8  2  0  0  0  0
 18 14  1  0  0  0  0
 18  6  2  0  0  0  0
 19 10  2  0  0  0  0
 20 19  1  0  0  0  0
 21 17  1  0  0  0  0
 21 20  2  0  0  0  0
 22 26  1  0  0  0  0
 23 27  1  0  0  0  0
 24 23  2  0  0  0  0
 25 22  2  0  0  0  0
 25 24  1  0  0  0  0
 26 27  2  0  0  0  0
M  END
>  <MODEL>
5

>  <REMARK>
 VINA RESULT:      -6.1      5.289      9.210
  Name = 
  1 active torsions:
  status: ('A' for Active; 'I' for Inactive)
    1  A    between atoms: C_9  and  C_15
                            x       y       z     vdW  Elec       q    Type
                         _______ _______ _______ _____ _____    ______ ____

>  <TORSDO>
F 1

$$$$
=
 OpenBabel10272401033D

 27 32  0  0  1  0  0  0  0  0999 V2000
  188.5550  177.2480  139.2750 C   0  0  1  0  0  3  0  0  0  0  0  0
  190.8890  177.6720  139.2700 N   0  0  0  0  0  0  0  0  0  0  0  0
  189.2060  176.4730  138.0950 C   0  0  2  0  0  3  0  0  0  0  0  0
  194.0770  175.1070  138.3260 C   0  0  0  0  0  2  0  0  0  0  0  0
  193.2900  173.2720  136.7400 C   0  0  0  0  0  2  0  0  0  0  0  0
  192.1730  177.8330  139.8250 N   0  0  0  0  0  0  0  0  0  0  0  0
  191.4680  174.9370  136.8360 N   0  0  0  0  0  2  0  0  0  0  0  0
  187.8720  177.4050  134.6250 C   0  0  0  0  0  3  0  0  0  0  0  0
  191.8430  173.5640  137.1470 C   0  0  0  0  0  2  0  0  0  0  0  0
  186.9990  178.4310  135.0390 C   0  0  0  0  0  3  0  0  0  0  0  0
  191.6210  175.7000  138.0700 C   0  0  1  0  0  3  0  0  0  0  0  0
  189.6780  177.9560  140.0210 C   0  0  2  0  0  3  0  0  0  0  0  0
  194.2720  174.4230  136.9780 C   0  0  0  0  0  2  0  0  0  0  0  0
  193.0590  176.2340  138.1960 C   0  0  1  0  0  3  0  0  0  0  0  0
  187.6780  178.2050  138.6800 O   0  0  0  0  0  0  0  0  0  0  0  0
  190.6700  176.8910  138.0670 C   0  0  2  0  0  3  0  0  0  0  0  0
  188.6370  176.7000  135.5700 C   0  0  0  0  0  3  0  0  0  0  0  0
  193.1950  177.1730  139.3640 C   0  0  0  0  0  3  0  0  0  0  0  0
  186.8840  178.7570  136.4000 C   0  0  0  0  0  3  0  0  0  0  0  0
  187.6540  178.0390  137.3120 C   0  0  0  0  0  0  0  0  0  0  0  0
  188.5030  177.0450  136.9150 C   0  0  0  0  0  0  0  0  0  0  0  0
  189.9250  176.5090  144.0650 C   0  0  0  0  0  3  0  0  0  0  0  0
  189.7710  177.4360  141.4250 C   0  0  0  0  0  0  0  0  0  0  0  0
  190.3180  176.1710  141.7010 C   0  0  0  0  0  3  0  0  0  0  0  0
  190.3940  175.7100  143.0170 C   0  0  0  0  0  3  0  0  0  0  0  0
  189.3780  177.7670  143.7950 C   0  0  0  0  0  3  0  0  0  0  0  0
  189.3010  178.2290  142.4770 C   0  0  0  0  0  3  0  0  0  0  0  0
  1 15  1  6  0  0  0
  1 12  1  0  0  0  0
  2  6  1  0  0  0  0
  2 12  1  0  0  0  0
  3 21  1  6  0  0  0
  3  1  1  0  0  0  0
  5 13  1  0  0  0  0
  5  9  1  0  0  0  0
  7  9  1  0  0  0  0
  8 10  2  0  0  0  0
  8 17  1  0  0  0  0
 10 19  1  0  0  0  0
 11  7  1  6  0  0  0
 11 14  1  0  0  0  0
 12 23  1  1  0  0  0
 13  4  1  0  0  0  0
 14  4  1  1  0  0  0
 14 18  1  0  0  0  0
 16 11  1  0  0  0  0
 16  3  1  0  0  0  0
 16  2  1  1  0  0  0
 17 21  2  0  0  0  0
 18  6  2  0  0  0  0
 19 20  2  0  0  0  0
 20 15  1  0  0  0  0
 21 20  1  0  0  0  0
 23 24  2  0  0  0  0
 23 27  1  0  0  0  0
 24 25  1  0  0  0  0
 25 22  2  0  0  0  0
 26 22  1  0  0  0  0
 27 26  2  0  0  0  0
M  END
>  <MODEL>
6

>  <REMARK>
 VINA RESULT:      -6.1      3.766      6.438
  Name = 
  1 active torsions:
  status: ('A' for Active; 'I' for Inactive)
    1  A    between atoms: C_9  and  C_15
                            x       y       z     vdW  Elec       q    Type
                         _______ _______ _______ _____ _____    ______ ____

>  <TORSDO>
F 1

$$$$
=
 OpenBabel10272401033D

 27 32  0  0  1  0  0  0  0  0999 V2000
  183.1770  178.9740  139.5780 C   0  0  1  0  0  3  0  0  0  0  0  0
  185.2700  178.5780  138.5340 N   0  0  0  0  0  0  0  0  0  0  0  0
  182.9750  177.9670  138.4100 C   0  0  2  0  0  3  0  0  0  0  0  0
  186.8140  175.0380  136.8830 C   0  0  0  0  0  2  0  0  0  0  0  0
  184.9110  173.5060  136.1500 C   0  0  0  0  0  2  0  0  0  0  0  0
  186.6520  178.3170  138.4700 N   0  0  0  0  0  0  0  0  0  0  0  0
  183.8860  175.6950  136.6590 N   0  0  0  0  0  2  0  0  0  0  0  0
  180.5460  179.1300  135.6850 C   0  0  0  0  0  3  0  0  0  0  0  0
  183.9540  174.2930  137.0490 C   0  0  0  0  0  2  0  0  0  0  0  0
  180.2840  180.4110  136.2120 C   0  0  0  0  0  3  0  0  0  0  0  0
  184.7880  176.4190  137.5480 C   0  0  1  0  0  3  0  0  0  0  0  0
  184.6650  179.2920  139.6440 C   0  0  2  0  0  3  0  0  0  0  0  0
  186.1770  174.2640  135.7350 C   0  0  0  0  0  2  0  0  0  0  0  0
  186.2130  176.4370  136.9660 C   0  0  1  0  0  3  0  0  0  0  0  0
  182.4380  180.1430  139.2210 O   0  0  0  0  0  0  0  0  0  0  0  0
  184.3200  177.8600  137.7030 C   0  0  2  0  0  3  0  0  0  0  0  0
  181.4190  178.2530  136.3490 C   0  0  0  0  0  3  0  0  0  0  0  0
  187.1220  177.3280  137.7680 C   0  0  0  0  0  3  0  0  0  0  0  0
  180.8940  180.8220  137.4090 C   0  0  0  0  0  3  0  0  0  0  0  0
  181.7530  179.9290  138.0450 C   0  0  0  0  0  0  0  0  0  0  0  0
  182.0110  178.6880  137.5360 C   0  0  0  0  0  0  0  0  0  0  0  0
  186.2350  177.9900  143.4320 C   0  0  0  0  0  3  0  0  0  0  0  0
  185.2290  178.8400  140.9590 C   0  0  0  0  0  0  0  0  0  0  0  0
  186.6170  178.7880  141.1790 C   0  0  0  0  0  3  0  0  0  0  0  0
  187.1160  178.3640  142.4130 C   0  0  0  0  0  3  0  0  0  0  0  0
  184.8550  178.0390  143.2160 C   0  0  0  0  0  3  0  0  0  0  0  0
  184.3540  178.4620  141.9820 C   0  0  0  0  0  3  0  0  0  0  0  0
  1 15  1  6  0  0  0
  1 12  1  0  0  0  0
  2 12  1  0  0  0  0
  3 21  1  6  0  0  0
  3  1  1  0  0  0  0
  5  9  1  0  0  0  0
  6  2  1  0  0  0  0
  7  9  1  0  0  0  0
  8 10  2  0  0  0  0
  8 17  1  0  0  0  0
 10 19  1  0  0  0  0
 11  7  1  6  0  0  0
 11 16  1  0  0  0  0
 12 23  1  1  0  0  0
 13  5  1  0  0  0  0
 13  4  1  0  0  0  0
 14  4  1  1  0  0  0
 14 11  1  0  0  0  0
 14 18  1  0  0  0  0
 16  3  1  0  0  0  0
 16  2  1  1  0  0  0
 17 21  2  0  0  0  0
 18  6  2  0  0  0  0
 19 20  2  0  0  0  0
 20 15  1  0  0  0  0
 21 20  1  0  0  0  0
 23 24  2  0  0  0  0
 23 27  1  0  0  0  0
 24 25  1  0  0  0  0
 25 22  2  0  0  0  0
 26 22  1  0  0  0  0
 27 26  2  0  0  0  0
M  END
>  <MODEL>
7

>  <REMARK>
 VINA RESULT:      -6.1      5.662      8.116
  Name = 
  1 active torsions:
  status: ('A' for Active; 'I' for Inactive)
    1  A    between atoms: C_9  and  C_15
                            x       y       z     vdW  Elec       q    Type
                         _______ _______ _______ _____ _____    ______ ____

>  <TORSDO>
F 1

$$$$
=
 OpenBabel10272401033D

 27 32  0  0  1  0  0  0  0  0999 V2000
  184.3800  178.9270  139.9020 C   0  0  1  0  0  3  0  0  0  0  0  0
  183.1020  176.9350  139.7430 N   0  0  0  0  0  0  0  0  0  0  0  0
  184.4720  178.3840  138.4480 C   0  0  2  0  0  3  0  0  0  0  0  0
  180.7550  175.5040  136.5670 C   0  0  0  0  0  2  0  0  0  0  0  0
  181.5980  176.4500  134.3540 C   0  0  0  0  0  2  0  0  0  0  0  0
  181.9910  176.0940  139.9470 N   0  0  0  0  0  0  0  0  0  0  0  0
  183.3180  176.9910  136.0420 N   0  0  0  0  0  2  0  0  0  0  0  0
  188.0200  177.5580  137.2590 C   0  0  0  0  0  3  0  0  0  0  0  0
  182.3340  177.5490  135.1240 C   0  0  0  0  0  2  0  0  0  0  0  0
  188.6850  177.8400  138.4690 C   0  0  0  0  0  3  0  0  0  0  0  0
  182.6860  176.9530  137.3570 C   0  0  1  0  0  3  0  0  0  0  0  0
  183.4550  177.9940  140.6720 C   0  0  2  0  0  3  0  0  0  0  0  0
  181.2790  175.1930  135.1710 C   0  0  0  0  0  2  0  0  0  0  0  0
  181.9180  175.6320  137.5450 C   0  0  1  0  0  3  0  0  0  0  0  0
  185.7050  178.8570  140.4320 O   0  0  0  0  0  0  0  0  0  0  0  0
  183.7460  177.0450  138.4470 C   0  0  2  0  0  3  0  0  0  0  0  0
  186.6280  177.7160  137.1600 C   0  0  0  0  0  3  0  0  0  0  0  0
  181.4110  175.4880  138.9540 C   0  0  0  0  0  3  0  0  0  0  0  0
  187.9610  178.2840  139.5880 C   0  0  0  0  0  3  0  0  0  0  0  0
  186.5820  178.4320  139.4580 C   0  0  0  0  0  0  0  0  0  0  0  0
  185.9330  178.1570  138.2870 C   0  0  0  0  0  0  0  0  0  0  0  0
  179.9820  180.1240  142.0530 C   0  0  0  0  0  3  0  0  0  0  0  0
  182.2410  178.7420  141.1370 C   0  0  0  0  0  0  0  0  0  0  0  0
  181.3920  179.3950  140.2260 C   0  0  0  0  0  3  0  0  0  0  0  0
  180.2670  180.0840  140.6850 C   0  0  0  0  0  3  0  0  0  0  0  0
  180.8250  179.4780  142.9630 C   0  0  0  0  0  3  0  0  0  0  0  0
  181.9520  178.7890  142.5050 C   0  0  0  0  0  3  0  0  0  0  0  0
  1 15  1  1  0  0  0
  1 12  1  0  0  0  0
  2  6  1  0  0  0  0
  2 12  1  0  0  0  0
  3 21  1  1  0  0  0
  3  1  1  0  0  0  0
  5  9  1  0  0  0  0
  5 13  1  0  0  0  0
  8 10  1  0  0  0  0
  9  7  1  0  0  0  0
 10 19  2  0  0  0  0
 11  7  1  6  0  0  0
 11 14  1  0  0  0  0
 11 16  1  0  0  0  0
 12 23  1  6  0  0  0
 13  4  1  0  0  0  0
 14  4  1  6  0  0  0
 14 18  1  0  0  0  0
 16  3  1  0  0  0  0
 16  2  1  1  0  0  0
 17  8  2  0  0  0  0
 17 21  1  0  0  0  0
 18  6  2  0  0  0  0
 20 19  1  0  0  0  0
 20 15  1  0  0  0  0
 21 20  2  0  0  0  0
 22 26  1  0  0  0  0
 23 27  1  0  0  0  0
 24 25  1  0  0  0  0
 24 23  2  0  0  0  0
 25 22  2  0  0  0  0
 27 26  2  0  0  0  0
M  END
>  <MODEL>
8

>  <REMARK>
 VINA RESULT:      -5.8      6.281      9.726
  Name = 
  1 active torsions:
  status: ('A' for Active; 'I' for Inactive)
    1  A    between atoms: C_9  and  C_15
                            x       y       z     vdW  Elec       q    Type
                         _______ _______ _______ _____ _____    ______ ____

>  <TORSDO>
F 1

$$$$
=
 OpenBabel10272401033D

 27 32  0  0  1  0  0  0  0  0999 V2000
  184.5620  178.1370  142.2890 C   0  0  1  0  0  3  0  0  0  0  0  0
  185.3690  178.7700  140.1490 N   0  0  0  0  0  0  0  0  0  0  0  0
  183.6030  177.5760  141.2020 C   0  0  2  0  0  3  0  0  0  0  0  0
  185.3170  176.6410  136.5290 C   0  0  0  0  0  2  0  0  0  0  0  0
  183.4070  174.9510  136.5300 C   0  0  0  0  0  2  0  0  0  0  0  0
  186.3300  178.9760  139.1410 N   0  0  0  0  0  0  0  0  0  0  0  0
  183.0370  176.4190  138.4820 N   0  0  0  0  0  2  0  0  0  0  0  0
  179.9820  178.8030  141.4630 C   0  0  0  0  0  3  0  0  0  0  0  0
  183.3350  175.0580  138.0560 C   0  0  0  0  0  2  0  0  0  0  0  0
  180.1700  179.6870  142.5450 C   0  0  0  0  0  3  0  0  0  0  0  0
  184.3130  177.0350  138.8290 C   0  0  1  0  0  3  0  0  0  0  0  0
  185.6970  178.8470  141.5620 C   0  0  2  0  0  3  0  0  0  0  0  0
  184.0570  176.1490  135.8290 C   0  0  0  0  0  2  0  0  0  0  0  0
  184.9550  177.6780  137.5870 C   0  0  1  0  0  3  0  0  0  0  0  0
  183.7950  179.0770  143.0430 O   0  0  0  0  0  0  0  0  0  0  0  0
  184.0980  178.1260  139.8710 C   0  0  2  0  0  3  0  0  0  0  0  0
  181.0610  178.0600  140.9580 C   0  0  0  0  0  3  0  0  0  0  0  0
  186.1790  178.4750  137.9510 C   0  0  0  0  0  3  0  0  0  0  0  0
  181.4390  179.8310  143.1300 C   0  0  0  0  0  3  0  0  0  0  0  0
  182.4890  179.0790  142.6080 C   0  0  0  0  0  0  0  0  0  0  0  0
  182.3110  178.2230  141.5570 C   0  0  0  0  0  0  0  0  0  0  0  0
  189.4170  176.8800  142.4550 C   0  0  0  0  0  3  0  0  0  0  0  0
  187.0020  178.1690  141.8590 C   0  0  0  0  0  0  0  0  0  0  0  0
  188.1370  178.3880  141.0600 C   0  0  0  0  0  3  0  0  0  0  0  0
  189.3410  177.7440  141.3580 C   0  0  0  0  0  3  0  0  0  0  0  0
  188.2900  176.6580  143.2520 C   0  0  0  0  0  3  0  0  0  0  0  0
  187.0850  177.3010  142.9530 C   0  0  0  0  0  3  0  0  0  0  0  0
  1 15  1  1  0  0  0
  2 12  1  0  0  0  0
  3 21  1  1  0  0  0
  3  1  1  0  0  0  0
  5  9  1  0  0  0  0
  6  2  1  0  0  0  0
  8 10  1  0  0  0  0
  9  7  1  0  0  0  0
 10 19  2  0  0  0  0
 11  7  1  6  0  0  0
 11 16  1  0  0  0  0
 12 23  1  6  0  0  0
 12  1  1  0  0  0  0
 13  4  1  0  0  0  0
 13  5  1  0  0  0  0
 14  4  1  6  0  0  0
 14 18  1  0  0  0  0
 14 11  1  0  0  0  0
 16  2  1  1  0  0  0
 16  3  1  0  0  0  0
 17  8  2  0  0  0  0
 17 21  1  0  0  0  0
 18  6  2  0  0  0  0
 20 15  1  0  0  0  0
 20 19  1  0  0  0  0
 21 20  2  0  0  0  0
 22 26  1  0  0  0  0
 23 27  1  0  0  0  0
 24 25  1  0  0  0  0
 24 23  2  0  0  0  0
 25 22  2  0  0  0  0
 27 26  2  0  0  0  0
M  END
>  <MODEL>
9

>  <REMARK>
 VINA RESULT:      -5.5      4.338      6.420
  Name = 
  1 active torsions:
  status: ('A' for Active; 'I' for Inactive)
    1  A    between atoms: C_9  and  C_15
                            x       y       z     vdW  Elec       q    Type
                         _______ _______ _______ _____ _____    ______ ____

>  <TORSDO>
F 1

$$$$
