=
 OpenBabel10272414583D

 37 36  0  0  1  0  0  0  0  0999 V2000
  189.8230  177.3360  144.0710 N   0  0  0  0  0  0  0  0  0  0  0  0
  190.7060  178.0070  143.0970 C   0  0  1  0  0  3  0  0  0  0  0  0
  191.0010  180.0930  144.2430 O   0  0  0  0  0  1  0  0  0  0  0  0
  191.6960  179.0190  143.6880 C   0  0  0  0  0  2  0  0  0  0  0  0
  191.4730  176.9760  142.2600 C   0  0  0  0  0  2  0  0  0  0  0  0
  191.6880  177.3850  140.8280 C   0  0  0  0  0  0  0  0  0  0  0  0
  192.7850  177.7600  140.4430 O   0  0  0  0  0  0  0  0  0  0  0  0
  190.5180  177.4300  139.8950 C   0  0  0  0  0  2  0  0  0  0  0  0
  190.5560  176.3000  138.8760 C   0  0  1  0  0  3  0  0  0  0  0  0
  189.2110  176.2270  138.1760 C   0  0  0  0  0  2  0  0  0  0  0  0
  189.3240  176.7260  136.8780 O   0  0  0  0  0  1  0  0  0  0  0  0
  191.5680  176.5150  137.9370 O   0  0  0  0  0  0  0  0  0  0  0  0
  192.1910  175.2730  137.7980 C   0  0  0  0  0  2  0  0  0  0  0  0
  193.6960  175.4470  137.8030 C   0  0  0  0  0  2  0  0  0  0  0  0
  195.4010  173.9390  138.7720 C   0  0  0  0  0  1  0  0  0  0  0  0
  194.3500  174.0870  137.6900 C   0  0  0  0  0  2  0  0  0  0  0  0
  190.6380  176.3180  144.7250 C   0  0  0  0  0  2  0  0  0  0  0  0
  189.9820  176.9260  146.9370 O   0  0  0  0  0  1  0  0  0  0  0  0
  191.0900  176.7940  146.0980 C   0  0  1  0  0  3  0  0  0  0  0  0
  192.4150  174.8110  145.8050 O   0  0  0  0  0  1  0  0  0  0  0  0
  192.0890  175.8230  146.7090 C   0  0  0  0  0  2  0  0  0  0  0  0
  188.7270  176.6100  143.4300 C   0  0  0  0  0  2  0  0  0  0  0  0
  187.4080  176.9840  144.0870 C   0  0  1  0  0  3  0  0  0  0  0  0
  187.5920  177.9820  145.2360 C   0  0  0  0  0  2  0  0  0  0  0  0
  186.4870  177.9250  146.2870 C   0  0  0  0  0  2  0  0  0  0  0  0
  185.5830  179.1380  146.1790 C   0  0  0  0  0  2  0  0  0  0  0  0
  184.1530  178.7170  145.8670 C   0  0  0  0  0  2  0  0  0  0  0  0
  183.5960  179.4830  144.6740 C   0  0  0  0  0  2  0  0  0  0  0  0
  183.3570  178.5450  143.5010 C   0  0  0  0  0  2  0  0  0  0  0  0
  182.1090  178.9630  142.7470 C   0  0  0  0  0  2  0  0  0  0  0  0
  182.2890  178.7700  141.3750 O   0  0  0  0  0  1  0  0  0  0  0  0
  186.4070  177.4670  143.0450 C   0  0  0  0  0  2  0  0  0  0  0  0
  187.0950  178.2920  141.9610 C   0  0  0  0  0  2  0  0  0  0  0  0
  185.4510  179.6630  140.8670 O   0  0  0  0  0  1  0  0  0  0  0  0
  186.2100  178.4980  140.7320 C   0  0  1  0  0  3  0  0  0  0  0  0
  186.9820  178.5600  139.5680 O   0  0  0  0  0  0  0  0  0  0  0  0
  186.0970  178.2550  138.5350 C   0  0  0  0  0  1  0  0  0  0  0  0
  1 17  1  0  0  0  0
  2  5  1  1  0  0  0
  2  4  1  0  0  0  0
  2  1  1  0  0  0  0
  4  3  1  0  0  0  0
  6  5  1  0  0  0  0
  7  6  2  0  0  0  0
  8  6  1  0  0  0  0
  9 10  1  6  0  0  0
  9  8  1  0  0  0  0
 11 10  1  0  0  0  0
 12  9  1  0  0  0  0
 13 14  1  0  0  0  0
 13 12  1  0  0  0  0
 16 14  1  0  0  0  0
 16 15  1  0  0  0  0
 17 19  1  0  0  0  0
 19 21  1  0  0  0  0
 19 18  1  1  0  0  0
 20 21  1  0  0  0  0
 22  1  1  0  0  0  0
 22 23  1  0  0  0  0
 23 32  1  6  0  0  0
 23 24  1  0  0  0  0
 24 25  1  0  0  0  0
 26 25  1  0  0  0  0
 27 26  1  0  0  0  0
 28 27  1  0  0  0  0
 29 28  1  0  0  0  0
 30 29  1  0  0  0  0
 31 30  1  0  0  0  0
 33 32  1  0  0  0  0
 35 34  1  1  0  0  0
 35 33  1  0  0  0  0
 36 35  1  0  0  0  0
 37 36  1  0  0  0  0
M  END
>  <MODEL>
1

>  <REMARK>
 VINA RESULT:      -5.6      0.000      0.000
  Name = 
  27 active torsions:
  status: ('A' for Active; 'I' for Inactive)
    1  A    between atoms: O_1  and  C_23
    2  A    between atoms: C_2  and  C_8
    3  A    between atoms: C_3  and  C_15
    4  A    between atoms: C_3  and  C_30
    5  A    between atoms: C_4  and  N_10
    6  A    between atoms: C_4  and  C_24
    7  A    between atoms: O_6  and  C_8
    8  A    between atoms: O_6  and  C_31
    9  A    between atoms: C_7  and  C_33
   10  A    between atoms: C_7  and  C_36
   11  A    between atoms: C_8  and  C_19
   12  A    between atoms: N_10  and  C_13
   13  A    between atoms: N_10  and  C_30
   14  A    between atoms: C_11  and  C_26
   15  A    between atoms: C_13  and  C_20
   16  A    between atoms: C_14  and  C_31
   17  A    between atoms: C_14  and  C_37
   18  A    between atoms: C_15  and  C_19
   19  A    between atoms: C_17  and  C_26
   20  A    between atoms: C_17  and  C_33
   21  A    between atoms: C_20  and  C_21
   22  A    between atoms: C_20  and  C_29
   23  A    between atoms: C_21  and  C_25
   24  A    between atoms: C_23  and  C_25
   25  A    between atoms: C_24  and  C_28
   26  A    between atoms: C_29  and  C_36
   27  A    between atoms: C_30  and  C_32
                            x       y       z     vdW  Elec       q    Type
                         _______ _______ _______ _____ _____    ______ ____

>  <TORSDO>
F 27

$$$$
=
 OpenBabel10272414583D

 37 36  0  0  1  0  0  0  0  0999 V2000
  187.7820  178.0900  141.5220 N   0  0  0  0  0  0  0  0  0  0  0  0
  188.4770  177.7210  142.7710 C   0  0  1  0  0  3  0  0  0  0  0  0
  189.0180  175.3870  142.8790 O   0  0  0  0  0  1  0  0  0  0  0  0
  188.1190  176.3450  143.3460 C   0  0  0  0  0  2  0  0  0  0  0  0
  189.9970  177.8170  142.5940 C   0  0  0  0  0  2  0  0  0  0  0  0
  190.6970  178.5620  143.6990 C   0  0  0  0  0  0  0  0  0  0  0  0
  190.5210  179.7610  143.8540 O   0  0  0  0  0  0  0  0  0  0  0  0
  191.6970  177.8430  144.5490 C   0  0  0  0  0  2  0  0  0  0  0  0
  191.0390  176.8150  145.4590 C   0  0  1  0  0  3  0  0  0  0  0  0
  191.7870  175.4990  145.3310 C   0  0  0  0  0  2  0  0  0  0  0  0
  192.0410  175.2270  143.9860 O   0  0  0  0  0  1  0  0  0  0  0  0
  191.0600  177.2450  146.7880 O   0  0  0  0  0  0  0  0  0  0  0  0
  189.8300  177.8780  146.9730 C   0  0  0  0  0  2  0  0  0  0  0  0
  188.9630  177.0580  147.9060 C   0  0  0  0  0  2  0  0  0  0  0  0
  186.9420  177.7740  146.6720 C   0  0  0  0  0  1  0  0  0  0  0  0
  187.6080  177.7210  148.0320 C   0  0  0  0  0  2  0  0  0  0  0  0
  188.8240  178.3050  140.5250 C   0  0  0  0  0  2  0  0  0  0  0  0
  188.0110  178.4880  138.2890 O   0  0  0  0  0  1  0  0  0  0  0  0
  188.4870  177.5760  139.2330 C   0  0  1  0  0  3  0  0  0  0  0  0
  190.3800  176.1700  139.6980 O   0  0  0  0  0  1  0  0  0  0  0  0
  189.7070  176.8510  138.6830 C   0  0  0  0  0  2  0  0  0  0  0  0
  187.0710  179.3640  141.6300 C   0  0  0  0  0  2  0  0  0  0  0  0
  185.5750  179.1330  141.4870 C   0  0  1  0  0  3  0  0  0  0  0  0
  185.1780  178.7640  140.0530 C   0  0  0  0  0  2  0  0  0  0  0  0
  183.8080  179.2930  139.6360 C   0  0  0  0  0  2  0  0  0  0  0  0
  183.2520  178.4850  138.4790 C   0  0  0  0  0  2  0  0  0  0  0  0
  183.1840  177.0070  138.8400 C   0  0  0  0  0  2  0  0  0  0  0  0
  183.0810  176.1350  137.5950 C   0  0  0  0  0  2  0  0  0  0  0  0
  183.7190  174.7760  137.8400 C   0  0  0  0  0  2  0  0  0  0  0  0
  185.0650  174.7010  137.1460 C   0  0  0  0  0  2  0  0  0  0  0  0
  184.9580  173.9620  135.9660 O   0  0  0  0  0  1  0  0  0  0  0  0
  185.0890  178.1160  142.5110 C   0  0  0  0  0  2  0  0  0  0  0  0
  185.0510  178.7190  143.9120 C   0  0  0  0  0  2  0  0  0  0  0  0
  183.6870  179.0950  145.8560 O   0  0  0  0  0  1  0  0  0  0  0  0
  183.6440  178.7280  144.5080 C   0  0  1  0  0  3  0  0  0  0  0  0
  182.8100  179.5990  143.8010 O   0  0  0  0  0  0  0  0  0  0  0  0
  181.6240  178.8890  143.6170 C   0  0  0  0  0  1  0  0  0  0  0  0
  1 22  1  0  0  0  0
  1  2  1  0  0  0  0
  2  5  1  6  0  0  0
  2  4  1  0  0  0  0
  3  4  1  0  0  0  0
  5  6  1  0  0  0  0
  6  7  2  0  0  0  0
  6  8  1  0  0  0  0
  9  8  1  6  0  0  0
  9 12  1  0  0  0  0
 10  9  1  0  0  0  0
 11 10  1  0  0  0  0
 12 13  1  0  0  0  0
 13 14  1  0  0  0  0
 14 16  1  0  0  0  0
 15 16  1  0  0  0  0
 17  1  1  0  0  0  0
 19 18  1  6  0  0  0
 19 17  1  0  0  0  0
 21 19  1  0  0  0  0
 21 20  1  0  0  0  0
 23 24  1  6  0  0  0
 23 22  1  0  0  0  0
 23 32  1  0  0  0  0
 25 24  1  0  0  0  0
 26 27  1  0  0  0  0
 26 25  1  0  0  0  0
 28 29  1  0  0  0  0
 28 27  1  0  0  0  0
 30 29  1  0  0  0  0
 31 30  1  0  0  0  0
 32 33  1  0  0  0  0
 33 35  1  0  0  0  0
 35 34  1  1  0  0  0
 36 35  1  0  0  0  0
 37 36  1  0  0  0  0
M  END
>  <MODEL>
2

>  <REMARK>
 VINA RESULT:      -5.2      2.430      6.932
  Name = 
  27 active torsions:
  status: ('A' for Active; 'I' for Inactive)
    1  A    between atoms: O_1  and  C_23
    2  A    between atoms: C_2  and  C_8
    3  A    between atoms: C_3  and  C_15
    4  A    between atoms: C_3  and  C_30
    5  A    between atoms: C_4  and  N_10
    6  A    between atoms: C_4  and  C_24
    7  A    between atoms: O_6  and  C_8
    8  A    between atoms: O_6  and  C_31
    9  A    between atoms: C_7  and  C_33
   10  A    between atoms: C_7  and  C_36
   11  A    between atoms: C_8  and  C_19
   12  A    between atoms: N_10  and  C_13
   13  A    between atoms: N_10  and  C_30
   14  A    between atoms: C_11  and  C_26
   15  A    between atoms: C_13  and  C_20
   16  A    between atoms: C_14  and  C_31
   17  A    between atoms: C_14  and  C_37
   18  A    between atoms: C_15  and  C_19
   19  A    between atoms: C_17  and  C_26
   20  A    between atoms: C_17  and  C_33
   21  A    between atoms: C_20  and  C_21
   22  A    between atoms: C_20  and  C_29
   23  A    between atoms: C_21  and  C_25
   24  A    between atoms: C_23  and  C_25
   25  A    between atoms: C_24  and  C_28
   26  A    between atoms: C_29  and  C_36
   27  A    between atoms: C_30  and  C_32
                            x       y       z     vdW  Elec       q    Type
                         _______ _______ _______ _____ _____    ______ ____

>  <TORSDO>
F 27

$$$$
=
 OpenBabel10272414583D

 37 36  0  0  1  0  0  0  0  0999 V2000
  183.8890  178.0930  141.1030 N   0  0  0  0  0  0  0  0  0  0  0  0
  184.0640  177.5810  139.7300 C   0  0  1  0  0  3  0  0  0  0  0  0
  182.5410  175.7310  139.6240 O   0  0  0  0  0  1  0  0  0  0  0  0
  182.8090  176.9860  139.0800 C   0  0  0  0  0  2  0  0  0  0  0  0
  184.6440  178.6660  138.8150 C   0  0  0  0  0  2  0  0  0  0  0  0
  185.9400  178.2830  138.1530 C   0  0  0  0  0  0  0  0  0  0  0  0
  187.0120  178.5950  138.6500 O   0  0  0  0  0  0  0  0  0  0  0  0
  185.9090  177.6020  136.8210 C   0  0  0  0  0  2  0  0  0  0  0  0
  186.2130  176.1140  136.9330 C   0  0  1  0  0  3  0  0  0  0  0  0
  185.0450  175.3330  136.3550 C   0  0  0  0  0  2  0  0  0  0  0  0
  184.0580  176.2140  135.9130 O   0  0  0  0  0  1  0  0  0  0  0  0
  187.3850  175.7950  136.2420 O   0  0  0  0  0  0  0  0  0  0  0  0
  188.3570  175.6730  137.2360 C   0  0  0  0  0  2  0  0  0  0  0  0
  189.7280  175.5390  136.6040 C   0  0  0  0  0  2  0  0  0  0  0  0
  191.0180  176.2130  138.6040 C   0  0  0  0  0  1  0  0  0  0  0  0
  190.6450  176.5920  137.1850 C   0  0  0  0  0  2  0  0  0  0  0  0
  182.8320  179.0960  141.0300 C   0  0  0  0  0  2  0  0  0  0  0  0
  181.9110  179.1030  143.2310 O   0  0  0  0  0  1  0  0  0  0  0  0
  181.6600  178.7030  141.9180 C   0  0  1  0  0  3  0  0  0  0  0  0
  180.2640  179.2310  140.0340 O   0  0  0  0  0  1  0  0  0  0  0  0
  180.3670  179.3340  141.4220 C   0  0  0  0  0  2  0  0  0  0  0  0
  185.0710  178.8020  141.5930 C   0  0  0  0  0  2  0  0  0  0  0  0
  185.5920  178.1260  142.8510 C   0  0  1  0  0  3  0  0  0  0  0  0
  187.1140  177.9420  142.8260 C   0  0  0  0  0  2  0  0  0  0  0  0
  187.5750  176.5490  143.2440 C   0  0  0  0  0  2  0  0  0  0  0  0
  189.0310  176.5720  143.6710 C   0  0  0  0  0  2  0  0  0  0  0  0
  189.5020  178.0030  143.8920 C   0  0  0  0  0  2  0  0  0  0  0  0
  190.4790  178.0920  145.0580 C   0  0  0  0  0  2  0  0  0  0  0  0
  191.2640  176.7970  145.1980 C   0  0  0  0  0  2  0  0  0  0  0  0
  191.6300  176.5650  146.6510 C   0  0  0  0  0  2  0  0  0  0  0  0
  192.3160  175.3560  146.7870 O   0  0  0  0  0  1  0  0  0  0  0  0
  185.1090  178.8610  144.0950 C   0  0  0  0  0  2  0  0  0  0  0  0
  185.4170  178.0660  145.3600 C   0  0  0  0  0  2  0  0  0  0  0  0
  185.7060  179.3570  147.3670 O   0  0  0  0  0  1  0  0  0  0  0  0
  186.3890  178.7930  146.2870 C   0  0  1  0  0  3  0  0  0  0  0  0
  187.3820  177.9230  146.7490 O   0  0  0  0  0  0  0  0  0  0  0  0
  187.4870  178.1910  148.1130 C   0  0  0  0  0  1  0  0  0  0  0  0
  1 22  1  0  0  0  0
  2  5  1  6  0  0  0
  2  1  1  0  0  0  0
  4  3  1  0  0  0  0
  4  2  1  0  0  0  0
  6  7  2  0  0  0  0
  6  5  1  0  0  0  0
  8  9  1  0  0  0  0
  8  6  1  0  0  0  0
  9 10  1  6  0  0  0
 11 10  1  0  0  0  0
 12  9  1  0  0  0  0
 12 13  1  0  0  0  0
 14 16  1  0  0  0  0
 14 13  1  0  0  0  0
 16 15  1  0  0  0  0
 17  1  1  0  0  0  0
 17 19  1  0  0  0  0
 19 18  1  1  0  0  0
 20 21  1  0  0  0  0
 21 19  1  0  0  0  0
 23 22  1  6  0  0  0
 23 32  1  0  0  0  0
 24 23  1  0  0  0  0
 24 25  1  0  0  0  0
 25 26  1  0  0  0  0
 26 27  1  0  0  0  0
 27 28  1  0  0  0  0
 28 29  1  0  0  0  0
 29 30  1  0  0  0  0
 30 31  1  0  0  0  0
 32 33  1  0  0  0  0
 33 35  1  0  0  0  0
 35 36  1  0  0  0  0
 35 34  1  1  0  0  0
 36 37  1  0  0  0  0
M  END
>  <MODEL>
3

>  <REMARK>
 VINA RESULT:      -5.1      2.621      7.398
  Name = 
  27 active torsions:
  status: ('A' for Active; 'I' for Inactive)
    1  A    between atoms: O_1  and  C_23
    2  A    between atoms: C_2  and  C_8
    3  A    between atoms: C_3  and  C_15
    4  A    between atoms: C_3  and  C_30
    5  A    between atoms: C_4  and  N_10
    6  A    between atoms: C_4  and  C_24
    7  A    between atoms: O_6  and  C_8
    8  A    between atoms: O_6  and  C_31
    9  A    between atoms: C_7  and  C_33
   10  A    between atoms: C_7  and  C_36
   11  A    between atoms: C_8  and  C_19
   12  A    between atoms: N_10  and  C_13
   13  A    between atoms: N_10  and  C_30
   14  A    between atoms: C_11  and  C_26
   15  A    between atoms: C_13  and  C_20
   16  A    between atoms: C_14  and  C_31
   17  A    between atoms: C_14  and  C_37
   18  A    between atoms: C_15  and  C_19
   19  A    between atoms: C_17  and  C_26
   20  A    between atoms: C_17  and  C_33
   21  A    between atoms: C_20  and  C_21
   22  A    between atoms: C_20  and  C_29
   23  A    between atoms: C_21  and  C_25
   24  A    between atoms: C_23  and  C_25
   25  A    between atoms: C_24  and  C_28
   26  A    between atoms: C_29  and  C_36
   27  A    between atoms: C_30  and  C_32
                            x       y       z     vdW  Elec       q    Type
                         _______ _______ _______ _____ _____    ______ ____

>  <TORSDO>
F 27

$$$$
=
 OpenBabel10272414583D

 37 36  0  0  1  0  0  0  0  0999 V2000
  185.0690  178.2350  141.6470 N   0  0  0  0  0  0  0  0  0  0  0  0
  184.0290  178.6500  140.6870 C   0  0  1  0  0  3  0  0  0  0  0  0
  185.0710  178.1770  138.5790 O   0  0  0  0  0  1  0  0  0  0  0  0
  184.5430  179.2090  139.3540 C   0  0  0  0  0  2  0  0  0  0  0  0
  183.0540  177.4980  140.4110 C   0  0  0  0  0  2  0  0  0  0  0  0
  181.6380  177.9400  140.1600 C   0  0  0  0  0  0  0  0  0  0  0  0
  181.0700  178.6920  140.9380 O   0  0  0  0  0  0  0  0  0  0  0  0
  180.8860  177.3690  138.9980 C   0  0  0  0  0  2  0  0  0  0  0  0
  181.8110  177.0020  137.8450 C   0  0  1  0  0  3  0  0  0  0  0  0
  181.1640  175.8920  137.0350 C   0  0  0  0  0  2  0  0  0  0  0  0
  181.2550  174.6850  137.7280 O   0  0  0  0  0  1  0  0  0  0  0  0
  182.0440  178.1110  137.0270 O   0  0  0  0  0  0  0  0  0  0  0  0
  180.7710  178.5840  136.7040 C   0  0  0  0  0  2  0  0  0  0  0  0
  180.8250  180.0760  136.4440 C   0  0  0  0  0  2  0  0  0  0  0  0
  181.5660  181.3070  138.4580 C   0  0  0  0  0  1  0  0  0  0  0  0
  180.3620  180.8110  137.6830 C   0  0  0  0  0  2  0  0  0  0  0  0
  184.3940  178.0600  142.9280 C   0  0  0  0  0  2  0  0  0  0  0  0
  182.6520  179.5040  143.6830 O   0  0  0  0  0  1  0  0  0  0  0  0
  184.0360  179.4090  143.5330 C   0  0  1  0  0  3  0  0  0  0  0  0
  184.0220  178.9260  145.8870 O   0  0  0  0  0  1  0  0  0  0  0  0
  184.7160  179.5980  144.8820 C   0  0  0  0  0  2  0  0  0  0  0  0
  186.0740  179.2740  141.8710 C   0  0  0  0  0  2  0  0  0  0  0  0
  187.4590  178.6470  141.9250 C   0  0  1  0  0  3  0  0  0  0  0  0
  187.4980  177.3970  142.8120 C   0  0  0  0  0  2  0  0  0  0  0  0
  188.1560  177.6230  144.1700 C   0  0  0  0  0  2  0  0  0  0  0  0
  187.2940  177.0570  145.2830 C   0  0  0  0  0  2  0  0  0  0  0  0
  187.4450  177.8850  146.5520 C   0  0  0  0  0  2  0  0  0  0  0  0
  188.2230  177.1270  147.6210 C   0  0  0  0  0  2  0  0  0  0  0  0
  189.6710  177.5900  147.6570 C   0  0  0  0  0  2  0  0  0  0  0  0
  190.5840  176.4810  147.1700 C   0  0  0  0  0  2  0  0  0  0  0  0
  191.8170  177.0090  146.7800 O   0  0  0  0  0  1  0  0  0  0  0  0
  187.9860  178.3870  140.5190 C   0  0  0  0  0  2  0  0  0  0  0  0
  189.1370  177.3860  140.5380 C   0  0  0  0  0  2  0  0  0  0  0  0
  189.6430  177.8370  138.2320 O   0  0  0  0  0  1  0  0  0  0  0  0
  189.4340  176.8090  139.1550 C   0  0  1  0  0  3  0  0  0  0  0  0
  190.5490  175.9670  139.1950 O   0  0  0  0  0  0  0  0  0  0  0  0
  191.6470  176.8220  139.1110 C   0  0  0  0  0  1  0  0  0  0  0  0
  1 22  1  0  0  0  0
  1 17  1  0  0  0  0
  2  4  1  6  0  0  0
  2  1  1  0  0  0  0
  3  4  1  0  0  0  0
  5  2  1  0  0  0  0
  6  5  1  0  0  0  0
  6  7  2  0  0  0  0
  8  6  1  0  0  0  0
  9 10  1  6  0  0  0
  9  8  1  0  0  0  0
 10 11  1  0  0  0  0
 12  9  1  0  0  0  0
 13 12  1  0  0  0  0
 14 13  1  0  0  0  0
 14 16  1  0  0  0  0
 16 15  1  0  0  0  0
 17 19  1  0  0  0  0
 19 18  1  1  0  0  0
 19 21  1  0  0  0  0
 21 20  1  0  0  0  0
 22 23  1  0  0  0  0
 23 32  1  6  0  0  0
 23 24  1  0  0  0  0
 24 25  1  0  0  0  0
 25 26  1  0  0  0  0
 26 27  1  0  0  0  0
 27 28  1  0  0  0  0
 28 29  1  0  0  0  0
 30 29  1  0  0  0  0
 31 30  1  0  0  0  0
 32 33  1  0  0  0  0
 35 34  1  6  0  0  0
 35 36  1  0  0  0  0
 35 33  1  0  0  0  0
 37 36  1  0  0  0  0
M  END
>  <MODEL>
4

>  <REMARK>
 VINA RESULT:      -5.0      3.184      8.350
  Name = 
  27 active torsions:
  status: ('A' for Active; 'I' for Inactive)
    1  A    between atoms: O_1  and  C_23
    2  A    between atoms: C_2  and  C_8
    3  A    between atoms: C_3  and  C_15
    4  A    between atoms: C_3  and  C_30
    5  A    between atoms: C_4  and  N_10
    6  A    between atoms: C_4  and  C_24
    7  A    between atoms: O_6  and  C_8
    8  A    between atoms: O_6  and  C_31
    9  A    between atoms: C_7  and  C_33
   10  A    between atoms: C_7  and  C_36
   11  A    between atoms: C_8  and  C_19
   12  A    between atoms: N_10  and  C_13
   13  A    between atoms: N_10  and  C_30
   14  A    between atoms: C_11  and  C_26
   15  A    between atoms: C_13  and  C_20
   16  A    between atoms: C_14  and  C_31
   17  A    between atoms: C_14  and  C_37
   18  A    between atoms: C_15  and  C_19
   19  A    between atoms: C_17  and  C_26
   20  A    between atoms: C_17  and  C_33
   21  A    between atoms: C_20  and  C_21
   22  A    between atoms: C_20  and  C_29
   23  A    between atoms: C_21  and  C_25
   24  A    between atoms: C_23  and  C_25
   25  A    between atoms: C_24  and  C_28
   26  A    between atoms: C_29  and  C_36
   27  A    between atoms: C_30  and  C_32
                            x       y       z     vdW  Elec       q    Type
                         _______ _______ _______ _____ _____    ______ ____

>  <TORSDO>
F 27

$$$$
=
 OpenBabel10272414583D

 37 36  0  0  1  0  0  0  0  0999 V2000
  187.3150  178.7280  139.5330 N   0  0  0  0  0  0  0  0  0  0  0  0
  187.3890  178.1910  140.9060 C   0  0  1  0  0  3  0  0  0  0  0  0
  189.0270  176.7910  141.9610 O   0  0  0  0  0  1  0  0  0  0  0  0
  188.7990  178.0880  141.5010 C   0  0  0  0  0  2  0  0  0  0  0  0
  186.4960  179.0000  141.8540 C   0  0  0  0  0  2  0  0  0  0  0  0
  185.5300  178.1640  142.6500 C   0  0  0  0  0  0  0  0  0  0  0  0
  184.3610  178.0650  142.3100 O   0  0  0  0  0  0  0  0  0  0  0  0
  185.9870  177.5340  143.9280 C   0  0  0  0  0  2  0  0  0  0  0  0
  186.1810  178.5620  145.0350 C   0  0  1  0  0  3  0  0  0  0  0  0
  184.8360  178.8370  145.6860 C   0  0  0  0  0  2  0  0  0  0  0  0
  184.9000  178.5440  147.0480 O   0  0  0  0  0  1  0  0  0  0  0  0
  187.0840  178.0920  145.9930 O   0  0  0  0  0  0  0  0  0  0  0  0
  188.2000  177.6920  145.2570 C   0  0  0  0  0  2  0  0  0  0  0  0
  189.4380  177.7420  146.1290 C   0  0  0  0  0  2  0  0  0  0  0  0
  191.6020  176.5640  146.3580 C   0  0  0  0  0  1  0  0  0  0  0  0
  190.6000  177.1330  145.3740 C   0  0  0  0  0  2  0  0  0  0  0  0
  186.4380  177.8280  138.7920 C   0  0  0  0  0  2  0  0  0  0  0  0
  184.9740  179.7100  138.8480 O   0  0  0  0  0  1  0  0  0  0  0  0
  184.9980  178.3150  138.8490 C   0  0  1  0  0  3  0  0  0  0  0  0
  184.9170  176.8070  136.9790 O   0  0  0  0  0  1  0  0  0  0  0  0
  184.1970  177.7820  137.6700 C   0  0  0  0  0  2  0  0  0  0  0  0
  188.6030  178.6810  138.8420 C   0  0  0  0  0  2  0  0  0  0  0  0
  188.5830  177.5830  137.7890 C   0  0  1  0  0  3  0  0  0  0  0  0
  188.9390  178.1080  136.3930 C   0  0  0  0  0  2  0  0  0  0  0  0
  188.2940  177.3220  135.2550 C   0  0  0  0  0  2  0  0  0  0  0  0
  189.3150  176.4290  134.5760 C   0  0  0  0  0  2  0  0  0  0  0  0
  188.9380  174.9620  134.7390 C   0  0  0  0  0  2  0  0  0  0  0  0
  187.5680  174.8090  135.3860 C   0  0  0  0  0  2  0  0  0  0  0  0
  187.2030  173.3400  135.5250 C   0  0  0  0  0  2  0  0  0  0  0  0
  185.7760  173.2020  136.0200 C   0  0  0  0  0  2  0  0  0  0  0  0
  185.3920  171.8600  136.0120 O   0  0  0  0  0  1  0  0  0  0  0  0
  189.4590  176.4130  138.2180 C   0  0  0  0  0  2  0  0  0  0  0  0
  190.9320  176.6980  137.9430 C   0  0  0  0  0  2  0  0  0  0  0  0
  191.0450  174.3060  137.7270 O   0  0  0  0  0  1  0  0  0  0  0  0
  191.7980  175.4420  138.0350 C   0  0  1  0  0  3  0  0  0  0  0  0
  192.9000  175.5340  137.1780 O   0  0  0  0  0  0  0  0  0  0  0  0
  192.4830  174.9310  135.9920 C   0  0  0  0  0  1  0  0  0  0  0  0
  1  2  1  0  0  0  0
  2  4  1  1  0  0  0
  2  5  1  0  0  0  0
  4  3  1  0  0  0  0
  5  6  1  0  0  0  0
  6  8  1  0  0  0  0
  7  6  2  0  0  0  0
  9  8  1  6  0  0  0
  9 10  1  0  0  0  0
  9 12  1  0  0  0  0
 10 11  1  0  0  0  0
 13 12  1  0  0  0  0
 13 14  1  0  0  0  0
 16 14  1  0  0  0  0
 16 15  1  0  0  0  0
 17 19  1  0  0  0  0
 17  1  1  0  0  0  0
 19 18  1  6  0  0  0
 20 21  1  0  0  0  0
 21 19  1  0  0  0  0
 22  1  1  0  0  0  0
 23 24  1  6  0  0  0
 23 32  1  0  0  0  0
 23 22  1  0  0  0  0
 25 24  1  0  0  0  0
 26 27  1  0  0  0  0
 26 25  1  0  0  0  0
 27 28  1  0  0  0  0
 28 29  1  0  0  0  0
 29 30  1  0  0  0  0
 31 30  1  0  0  0  0
 33 35  1  0  0  0  0
 33 32  1  0  0  0  0
 35 34  1  6  0  0  0
 36 35  1  0  0  0  0
 37 36  1  0  0  0  0
M  END
>  <MODEL>
5

>  <REMARK>
 VINA RESULT:      -4.8      2.800      8.654
  Name = 
  27 active torsions:
  status: ('A' for Active; 'I' for Inactive)
    1  A    between atoms: O_1  and  C_23
    2  A    between atoms: C_2  and  C_8
    3  A    between atoms: C_3  and  C_15
    4  A    between atoms: C_3  and  C_30
    5  A    between atoms: C_4  and  N_10
    6  A    between atoms: C_4  and  C_24
    7  A    between atoms: O_6  and  C_8
    8  A    between atoms: O_6  and  C_31
    9  A    between atoms: C_7  and  C_33
   10  A    between atoms: C_7  and  C_36
   11  A    between atoms: C_8  and  C_19
   12  A    between atoms: N_10  and  C_13
   13  A    between atoms: N_10  and  C_30
   14  A    between atoms: C_11  and  C_26
   15  A    between atoms: C_13  and  C_20
   16  A    between atoms: C_14  and  C_31
   17  A    between atoms: C_14  and  C_37
   18  A    between atoms: C_15  and  C_19
   19  A    between atoms: C_17  and  C_26
   20  A    between atoms: C_17  and  C_33
   21  A    between atoms: C_20  and  C_21
   22  A    between atoms: C_20  and  C_29
   23  A    between atoms: C_21  and  C_25
   24  A    between atoms: C_23  and  C_25
   25  A    between atoms: C_24  and  C_28
   26  A    between atoms: C_29  and  C_36
   27  A    between atoms: C_30  and  C_32
                            x       y       z     vdW  Elec       q    Type
                         _______ _______ _______ _____ _____    ______ ____

>  <TORSDO>
F 27

$$$$
=
 OpenBabel10272414583D

 37 36  0  0  1  0  0  0  0  0999 V2000
  188.6750  177.5060  142.1460 N   0  0  0  0  0  0  0  0  0  0  0  0
  187.3570  177.3710  142.7970 C   0  0  1  0  0  3  0  0  0  0  0  0
  186.9510  178.0420  145.0640 O   0  0  0  0  0  1  0  0  0  0  0  0
  187.3880  176.9760  144.2790 C   0  0  0  0  0  2  0  0  0  0  0  0
  186.5360  178.6560  142.6320 C   0  0  0  0  0  2  0  0  0  0  0  0
  185.0940  178.4200  142.2740 C   0  0  0  0  0  0  0  0  0  0  0  0
  184.2960  178.0300  143.1140 O   0  0  0  0  0  0  0  0  0  0  0  0
  184.6590  178.5670  140.8490 C   0  0  0  0  0  2  0  0  0  0  0  0
  183.3410  177.8540  140.5780 C   0  0  1  0  0  3  0  0  0  0  0  0
  182.2200  178.8780  140.5910 C   0  0  0  0  0  2  0  0  0  0  0  0
  181.3810  178.6480  141.6820 O   0  0  0  0  0  1  0  0  0  0  0  0
  183.3760  177.2060  139.3400 O   0  0  0  0  0  0  0  0  0  0  0  0
  183.1790  178.2230  138.4040 C   0  0  0  0  0  2  0  0  0  0  0  0
  182.9790  177.6250  137.0270 C   0  0  0  0  0  2  0  0  0  0  0  0
  183.9000  175.4350  136.3400 C   0  0  0  0  0  1  0  0  0  0  0  0
  184.2350  176.8850  136.6220 C   0  0  0  0  0  2  0  0  0  0  0  0
  189.5710  178.0630  143.1530 C   0  0  0  0  0  2  0  0  0  0  0  0
  191.7770  177.9410  144.0540 O   0  0  0  0  0  1  0  0  0  0  0  0
  190.9420  177.4090  143.0700 C   0  0  1  0  0  3  0  0  0  0  0  0
  191.9130  175.4070  143.9800 O   0  0  0  0  0  1  0  0  0  0  0  0
  190.8360  175.9000  143.2420 C   0  0  0  0  0  2  0  0  0  0  0  0
  188.6630  178.4750  141.0510 C   0  0  0  0  0  2  0  0  0  0  0  0
  188.7480  177.7460  139.7180 C   0  0  1  0  0  3  0  0  0  0  0  0
  188.9340  178.7090  138.5390 C   0  0  0  0  0  2  0  0  0  0  0  0
  188.2220  178.2680  137.2640 C   0  0  0  0  0  2  0  0  0  0  0  0
  189.2270  177.8530  136.2060 C   0  0  0  0  0  2  0  0  0  0  0  0
  188.8250  176.5280  135.5730 C   0  0  0  0  0  2  0  0  0  0  0  0
  187.7560  175.8200  136.3960 C   0  0  0  0  0  2  0  0  0  0  0  0
  187.4320  174.4610  135.7970 C   0  0  0  0  0  2  0  0  0  0  0  0
  187.3890  173.4080  136.8880 C   0  0  0  0  0  2  0  0  0  0  0  0
  188.6520  172.8370  137.0550 O   0  0  0  0  0  1  0  0  0  0  0  0
  189.8180  176.6630  139.7670 C   0  0  0  0  0  2  0  0  0  0  0  0
  191.1920  177.2290  139.4180 C   0  0  0  0  0  2  0  0  0  0  0  0
  193.2840  176.4670  138.5120 O   0  0  0  0  0  1  0  0  0  0  0  0
  191.9000  176.4200  138.3320 C   0  0  1  0  0  3  0  0  0  0  0  0
  191.4610  175.0930  138.3350 O   0  0  0  0  0  0  0  0  0  0  0  0
  191.6990  174.6340  137.0400 C   0  0  0  0  0  1  0  0  0  0  0  0
  1  2  1  0  0  0  0
  1 17  1  0  0  0  0
  2  5  1  1  0  0  0
  2  4  1  0  0  0  0
  4  3  1  0  0  0  0
  6  5  1  0  0  0  0
  6  7  2  0  0  0  0
  8  6  1  0  0  0  0
  9 10  1  6  0  0  0
  9  8  1  0  0  0  0
 10 11  1  0  0  0  0
 12  9  1  0  0  0  0
 13 12  1  0  0  0  0
 14 13  1  0  0  0  0
 15 16  1  0  0  0  0
 16 14  1  0  0  0  0
 19 17  1  0  0  0  0
 19 21  1  0  0  0  0
 19 18  1  1  0  0  0
 21 20  1  0  0  0  0
 22  1  1  0  0  0  0
 23 24  1  6  0  0  0
 23 32  1  0  0  0  0
 23 22  1  0  0  0  0
 25 24  1  0  0  0  0
 26 25  1  0  0  0  0
 27 26  1  0  0  0  0
 27 28  1  0  0  0  0
 29 28  1  0  0  0  0
 29 30  1  0  0  0  0
 30 31  1  0  0  0  0
 33 32  1  0  0  0  0
 35 36  1  0  0  0  0
 35 34  1  1  0  0  0
 35 33  1  0  0  0  0
 37 36  1  0  0  0  0
M  END
>  <MODEL>
6

>  <REMARK>
 VINA RESULT:      -4.7      2.348      7.487
  Name = 
  27 active torsions:
  status: ('A' for Active; 'I' for Inactive)
    1  A    between atoms: O_1  and  C_23
    2  A    between atoms: C_2  and  C_8
    3  A    between atoms: C_3  and  C_15
    4  A    between atoms: C_3  and  C_30
    5  A    between atoms: C_4  and  N_10
    6  A    between atoms: C_4  and  C_24
    7  A    between atoms: O_6  and  C_8
    8  A    between atoms: O_6  and  C_31
    9  A    between atoms: C_7  and  C_33
   10  A    between atoms: C_7  and  C_36
   11  A    between atoms: C_8  and  C_19
   12  A    between atoms: N_10  and  C_13
   13  A    between atoms: N_10  and  C_30
   14  A    between atoms: C_11  and  C_26
   15  A    between atoms: C_13  and  C_20
   16  A    between atoms: C_14  and  C_31
   17  A    between atoms: C_14  and  C_37
   18  A    between atoms: C_15  and  C_19
   19  A    between atoms: C_17  and  C_26
   20  A    between atoms: C_17  and  C_33
   21  A    between atoms: C_20  and  C_21
   22  A    between atoms: C_20  and  C_29
   23  A    between atoms: C_21  and  C_25
   24  A    between atoms: C_23  and  C_25
   25  A    between atoms: C_24  and  C_28
   26  A    between atoms: C_29  and  C_36
   27  A    between atoms: C_30  and  C_32
                            x       y       z     vdW  Elec       q    Type
                         _______ _______ _______ _____ _____    ______ ____

>  <TORSDO>
F 27

$$$$
=
 OpenBabel10272414583D

 37 36  0  0  1  0  0  0  0  0999 V2000
  189.5960  176.4610  137.8850 N   0  0  0  0  0  0  0  0  0  0  0  0
  189.4500  177.6260  138.7790 C   0  0  1  0  0  3  0  0  0  0  0  0
  188.9860  179.6940  137.6540 O   0  0  0  0  0  1  0  0  0  0  0  0
  188.3880  178.6520  138.3620 C   0  0  0  0  0  2  0  0  0  0  0  0
  189.1810  177.1750  140.2200 C   0  0  0  0  0  2  0  0  0  0  0  0
  190.4270  176.9380  141.0310 C   0  0  0  0  0  0  0  0  0  0  0  0
  191.5190  177.3030  140.6210 O   0  0  0  0  0  0  0  0  0  0  0  0
  190.3360  176.1550  142.3030 C   0  0  0  0  0  2  0  0  0  0  0  0
  190.4000  177.0530  143.5310 C   0  0  1  0  0  3  0  0  0  0  0  0
  191.7400  177.7690  143.5440 C   0  0  0  0  0  2  0  0  0  0  0  0
  191.5500  179.1260  143.8060 O   0  0  0  0  0  1  0  0  0  0  0  0
  189.3630  177.9890  143.5140 O   0  0  0  0  0  0  0  0  0  0  0  0
  188.6630  177.7610  144.7000 C   0  0  0  0  0  2  0  0  0  0  0  0
  187.2210  177.4130  144.3890 C   0  0  0  0  0  2  0  0  0  0  0  0
  185.3840  178.7560  145.3590 C   0  0  0  0  0  1  0  0  0  0  0  0
  186.3790  177.6450  145.6250 C   0  0  0  0  0  2  0  0  0  0  0  0
  190.8600  176.6440  137.1810 C   0  0  0  0  0  2  0  0  0  0  0  0
  191.0980  174.4670  138.1260 O   0  0  0  0  0  1  0  0  0  0  0  0
  191.7150  175.3900  137.2800 C   0  0  1  0  0  3  0  0  0  0  0  0
  191.3560  175.5580  134.9090 O   0  0  0  0  0  1  0  0  0  0  0  0
  191.9300  174.7690  135.9070 C   0  0  0  0  0  2  0  0  0  0  0  0
  188.5680  176.4190  136.8460 C   0  0  0  0  0  2  0  0  0  0  0  0
  187.8180  175.0970  136.9170 C   0  0  1  0  0  3  0  0  0  0  0  0
  186.3160  175.2930  137.1540 C   0  0  0  0  0  2  0  0  0  0  0  0
  185.5640  175.8300  135.9400 C   0  0  0  0  0  2  0  0  0  0  0  0
  184.9920  177.2060  136.2300 C   0  0  0  0  0  2  0  0  0  0  0  0
  183.4930  177.1210  136.4830 C   0  0  0  0  0  2  0  0  0  0  0  0
  183.0740  178.0120  137.6460 C   0  0  0  0  0  2  0  0  0  0  0  0
  184.0040  177.8140  138.8330 C   0  0  0  0  0  2  0  0  0  0  0  0
  183.9610  179.0310  139.7370 C   0  0  0  0  0  2  0  0  0  0  0  0
  184.4410  180.1520  139.0580 O   0  0  0  0  0  1  0  0  0  0  0  0
  188.1130  174.2460  135.6890 C   0  0  0  0  0  2  0  0  0  0  0  0
  188.4790  172.8180  136.0830 C   0  0  0  0  0  2  0  0  0  0  0  0
  187.9540  170.4960  135.7460 O   0  0  0  0  0  1  0  0  0  0  0  0
  187.4640  171.7930  135.5770 C   0  0  1  0  0  3  0  0  0  0  0  0
  186.2420  171.9340  136.2420 O   0  0  0  0  0  0  0  0  0  0  0  0
  185.2750  171.6560  135.2760 C   0  0  0  0  0  1  0  0  0  0  0  0
  1  2  1  0  0  0  0
  2  4  1  6  0  0  0
  2  5  1  0  0  0  0
  3  4  1  0  0  0  0
  5  6  1  0  0  0  0
  6  8  1  0  0  0  0
  7  6  2  0  0  0  0
  9  8  1  6  0  0  0
  9 10  1  0  0  0  0
 10 11  1  0  0  0  0
 12  9  1  0  0  0  0
 12 13  1  0  0  0  0
 14 13  1  0  0  0  0
 14 16  1  0  0  0  0
 15 16  1  0  0  0  0
 17 19  1  0  0  0  0
 17  1  1  0  0  0  0
 19 18  1  1  0  0  0
 20 21  1  0  0  0  0
 21 19  1  0  0  0  0
 22 23  1  0  0  0  0
 22  1  1  0  0  0  0
 23 32  1  6  0  0  0
 23 24  1  0  0  0  0
 25 26  1  0  0  0  0
 25 24  1  0  0  0  0
 26 27  1  0  0  0  0
 27 28  1  0  0  0  0
 28 29  1  0  0  0  0
 29 30  1  0  0  0  0
 31 30  1  0  0  0  0
 32 33  1  0  0  0  0
 35 34  1  1  0  0  0
 35 33  1  0  0  0  0
 35 36  1  0  0  0  0
 37 36  1  0  0  0  0
M  END
>  <MODEL>
7

>  <REMARK>
 VINA RESULT:      -4.7      3.084      7.811
  Name = 
  27 active torsions:
  status: ('A' for Active; 'I' for Inactive)
    1  A    between atoms: O_1  and  C_23
    2  A    between atoms: C_2  and  C_8
    3  A    between atoms: C_3  and  C_15
    4  A    between atoms: C_3  and  C_30
    5  A    between atoms: C_4  and  N_10
    6  A    between atoms: C_4  and  C_24
    7  A    between atoms: O_6  and  C_8
    8  A    between atoms: O_6  and  C_31
    9  A    between atoms: C_7  and  C_33
   10  A    between atoms: C_7  and  C_36
   11  A    between atoms: C_8  and  C_19
   12  A    between atoms: N_10  and  C_13
   13  A    between atoms: N_10  and  C_30
   14  A    between atoms: C_11  and  C_26
   15  A    between atoms: C_13  and  C_20
   16  A    between atoms: C_14  and  C_31
   17  A    between atoms: C_14  and  C_37
   18  A    between atoms: C_15  and  C_19
   19  A    between atoms: C_17  and  C_26
   20  A    between atoms: C_17  and  C_33
   21  A    between atoms: C_20  and  C_21
   22  A    between atoms: C_20  and  C_29
   23  A    between atoms: C_21  and  C_25
   24  A    between atoms: C_23  and  C_25
   25  A    between atoms: C_24  and  C_28
   26  A    between atoms: C_29  and  C_36
   27  A    between atoms: C_30  and  C_32
                            x       y       z     vdW  Elec       q    Type
                         _______ _______ _______ _____ _____    ______ ____

>  <TORSDO>
F 27

$$$$
=
 OpenBabel10272414583D

 37 36  0  0  1  0  0  0  0  0999 V2000
  182.6460  178.5520  140.6520 N   0  0  0  0  0  0  0  0  0  0  0  0
  183.3610  178.8880  141.8990 C   0  0  1  0  0  3  0  0  0  0  0  0
  183.1390  179.6330  144.1680 O   0  0  0  0  0  1  0  0  0  0  0  0
  182.5070  178.8890  143.1730 C   0  0  0  0  0  2  0  0  0  0  0  0
  184.5690  177.9640  142.0980 C   0  0  0  0  0  2  0  0  0  0  0  0
  185.8980  178.6670  142.0270 C   0  0  0  0  0  0  0  0  0  0  0  0
  185.9570  179.8830  141.9200 O   0  0  0  0  0  0  0  0  0  0  0  0
  187.1550  177.8560  141.9840 C   0  0  0  0  0  2  0  0  0  0  0  0
  187.3970  177.1090  143.2880 C   0  0  1  0  0  3  0  0  0  0  0  0
  188.7100  176.3530  143.1810 C   0  0  0  0  0  2  0  0  0  0  0  0
  189.5250  176.9530  142.2210 O   0  0  0  0  0  1  0  0  0  0  0  0
  187.4490  177.9990  144.3640 O   0  0  0  0  0  0  0  0  0  0  0  0
  186.9420  177.2740  145.4450 C   0  0  0  0  0  2  0  0  0  0  0  0
  187.1190  178.0640  146.7250 C   0  0  0  0  0  2  0  0  0  0  0  0
  189.3120  176.9460  146.9690 C   0  0  0  0  0  1  0  0  0  0  0  0
  188.0110  177.2860  147.6670 C   0  0  0  0  0  2  0  0  0  0  0  0
  181.2270  178.5330  140.9900 C   0  0  0  0  0  2  0  0  0  0  0  0
  180.1680  180.6580  141.2210 O   0  0  0  0  0  1  0  0  0  0  0  0
  180.4950  179.6690  140.2920 C   0  0  1  0  0  3  0  0  0  0  0  0
  180.9080  179.8310  137.9300 O   0  0  0  0  0  1  0  0  0  0  0  0
  181.3480  180.2640  139.1810 C   0  0  0  0  0  2  0  0  0  0  0  0
  182.9550  177.2050  140.1730 C   0  0  0  0  0  2  0  0  0  0  0  0
  183.2920  177.2510  138.6910 C   0  0  1  0  0  3  0  0  0  0  0  0
  184.4730  178.1820  138.3910 C   0  0  0  0  0  2  0  0  0  0  0  0
  185.4320  177.6420  137.3340 C   0  0  0  0  0  2  0  0  0  0  0  0
  186.8340  178.1760  137.5600 C   0  0  0  0  0  2  0  0  0  0  0  0
  187.6420  177.2150  138.4210 C   0  0  0  0  0  2  0  0  0  0  0  0
  189.0660  177.7160  138.6280 C   0  0  0  0  0  2  0  0  0  0  0  0
  189.9290  177.3870  137.4200 C   0  0  0  0  0  2  0  0  0  0  0  0
  191.1700  176.6320  137.8580 C   0  0  0  0  0  2  0  0  0  0  0  0
  190.8520  175.7350  138.8790 O   0  0  0  0  0  1  0  0  0  0  0  0
  183.4990  175.8450  138.1440 C   0  0  0  0  0  2  0  0  0  0  0  0
  182.3380  175.4260  137.2460 C   0  0  0  0  0  2  0  0  0  0  0  0
  180.8790  173.5350  137.5150 O   0  0  0  0  0  1  0  0  0  0  0  0
  182.1780  173.9090  137.1640 C   0  0  1  0  0  3  0  0  0  0  0  0
  182.4810  173.4450  135.8810 O   0  0  0  0  0  0  0  0  0  0  0  0
  181.9230  174.3880  135.0180 C   0  0  0  0  0  1  0  0  0  0  0  0
  1 17  1  0  0  0  0
  1  2  1  0  0  0  0
  2  5  1  1  0  0  0
  2  4  1  0  0  0  0
  4  3  1  0  0  0  0
  6  5  1  0  0  0  0
  7  6  2  0  0  0  0
  8  6  1  0  0  0  0
  9  8  1  6  0  0  0
  9 12  1  0  0  0  0
 10  9  1  0  0  0  0
 11 10  1  0  0  0  0
 12 13  1  0  0  0  0
 13 14  1  0  0  0  0
 14 16  1  0  0  0  0
 15 16  1  0  0  0  0
 19 17  1  0  0  0  0
 19 18  1  1  0  0  0
 20 21  1  0  0  0  0
 21 19  1  0  0  0  0
 22  1  1  0  0  0  0
 23 32  1  1  0  0  0
 23 22  1  0  0  0  0
 24 23  1  0  0  0  0
 25 26  1  0  0  0  0
 25 24  1  0  0  0  0
 26 27  1  0  0  0  0
 27 28  1  0  0  0  0
 29 30  1  0  0  0  0
 29 28  1  0  0  0  0
 30 31  1  0  0  0  0
 33 32  1  0  0  0  0
 35 33  1  0  0  0  0
 35 34  1  6  0  0  0
 36 35  1  0  0  0  0
 37 36  1  0  0  0  0
M  END
>  <MODEL>
8

>  <REMARK>
 VINA RESULT:      -4.6      3.418      8.860
  Name = 
  27 active torsions:
  status: ('A' for Active; 'I' for Inactive)
    1  A    between atoms: O_1  and  C_23
    2  A    between atoms: C_2  and  C_8
    3  A    between atoms: C_3  and  C_15
    4  A    between atoms: C_3  and  C_30
    5  A    between atoms: C_4  and  N_10
    6  A    between atoms: C_4  and  C_24
    7  A    between atoms: O_6  and  C_8
    8  A    between atoms: O_6  and  C_31
    9  A    between atoms: C_7  and  C_33
   10  A    between atoms: C_7  and  C_36
   11  A    between atoms: C_8  and  C_19
   12  A    between atoms: N_10  and  C_13
   13  A    between atoms: N_10  and  C_30
   14  A    between atoms: C_11  and  C_26
   15  A    between atoms: C_13  and  C_20
   16  A    between atoms: C_14  and  C_31
   17  A    between atoms: C_14  and  C_37
   18  A    between atoms: C_15  and  C_19
   19  A    between atoms: C_17  and  C_26
   20  A    between atoms: C_17  and  C_33
   21  A    between atoms: C_20  and  C_21
   22  A    between atoms: C_20  and  C_29
   23  A    between atoms: C_21  and  C_25
   24  A    between atoms: C_23  and  C_25
   25  A    between atoms: C_24  and  C_28
   26  A    between atoms: C_29  and  C_36
   27  A    between atoms: C_30  and  C_32
                            x       y       z     vdW  Elec       q    Type
                         _______ _______ _______ _____ _____    ______ ____

>  <TORSDO>
F 27

$$$$
=
 OpenBabel10272414583D

 37 36  0  0  1  0  0  0  0  0999 V2000
  189.6050  176.9470  140.5840 N   0  0  0  0  0  0  0  0  0  0  0  0
  189.6990  177.5590  141.9240 C   0  0  1  0  0  3  0  0  0  0  0  0
  187.8060  176.6270  143.0660 O   0  0  0  0  0  1  0  0  0  0  0  0
  188.3610  177.8280  142.6240 C   0  0  0  0  0  2  0  0  0  0  0  0
  190.5920  176.7170  142.8440 C   0  0  0  0  0  2  0  0  0  0  0  0
  191.2930  177.5120  143.9130 C   0  0  0  0  0  0  0  0  0  0  0  0
  191.6740  178.6520  143.6960 O   0  0  0  0  0  0  0  0  0  0  0  0
  191.6140  176.8570  145.2210 C   0  0  0  0  0  2  0  0  0  0  0  0
  190.4500  176.9340  146.1990 C   0  0  1  0  0  3  0  0  0  0  0  0
  191.0020  177.0920  147.6040 C   0  0  0  0  0  2  0  0  0  0  0  0
  192.0960  176.2430  147.7820 O   0  0  0  0  0  1  0  0  0  0  0  0
  189.6180  178.0140  145.8920 O   0  0  0  0  0  0  0  0  0  0  0  0
  188.6340  177.9930  146.8830 C   0  0  0  0  0  2  0  0  0  0  0  0
  187.3500  177.4140  146.3240 C   0  0  0  0  0  2  0  0  0  0  0  0
  185.4160  178.5650  145.2980 C   0  0  0  0  0  1  0  0  0  0  0  0
  186.2200  178.3890  146.5700 C   0  0  0  0  0  2  0  0  0  0  0  0
  190.8860  176.2900  140.3460 C   0  0  0  0  0  2  0  0  0  0  0  0
  192.5710  177.9660  140.1360 O   0  0  0  0  0  1  0  0  0  0  0  0
  191.7430  177.1170  139.3990 C   0  0  1  0  0  3  0  0  0  0  0  0
  192.4950  176.6150  137.1720 O   0  0  0  0  0  1  0  0  0  0  0  0
  192.5870  176.2180  138.5060 C   0  0  0  0  0  2  0  0  0  0  0  0
  189.4700  177.9420  139.5210 C   0  0  0  0  0  2  0  0  0  0  0  0
  188.2350  177.6370  138.6860 C   0  0  1  0  0  3  0  0  0  0  0  0
  187.0150  178.4520  139.1310 C   0  0  0  0  0  2  0  0  0  0  0  0
  185.7310  178.0980  138.3870 C   0  0  0  0  0  2  0  0  0  0  0  0
  184.5230  178.2760  139.2890 C   0  0  0  0  0  2  0  0  0  0  0  0
  184.9080  179.0160  140.5620 C   0  0  0  0  0  2  0  0  0  0  0  0
  184.1230  178.5030  141.7630 C   0  0  0  0  0  2  0  0  0  0  0  0
  182.6280  178.5980  141.5030 C   0  0  0  0  0  2  0  0  0  0  0  0
  181.8770  178.6910  142.8170 C   0  0  0  0  0  2  0  0  0  0  0  0
  181.2850  179.9490  142.9450 O   0  0  0  0  0  1  0  0  0  0  0  0
  188.5390  177.7980  137.2020 C   0  0  0  0  0  2  0  0  0  0  0  0
  187.9010  176.6780  136.3840 C   0  0  0  0  0  2  0  0  0  0  0  0
  190.1160  176.4970  135.4670 O   0  0  0  0  0  1  0  0  0  0  0  0
  188.9390  175.7840  135.7070 C   0  0  1  0  0  3  0  0  0  0  0  0
  189.2110  174.6580  136.4890 O   0  0  0  0  0  0  0  0  0  0  0  0
  189.9140  173.7970  135.6460 C   0  0  0  0  0  1  0  0  0  0  0  0
  1  2  1  0  0  0  0
  2  4  1  1  0  0  0
  2  5  1  0  0  0  0
  4  3  1  0  0  0  0
  5  6  1  0  0  0  0
  6  8  1  0  0  0  0
  7  6  2  0  0  0  0
  9  8  1  6  0  0  0
  9 10  1  0  0  0  0
 10 11  1  0  0  0  0
 12  9  1  0  0  0  0
 12 13  1  0  0  0  0
 14 16  1  0  0  0  0
 14 13  1  0  0  0  0
 15 16  1  0  0  0  0
 17  1  1  0  0  0  0
 19 18  1  1  0  0  0
 19 17  1  0  0  0  0
 20 21  1  0  0  0  0
 21 19  1  0  0  0  0
 22  1  1  0  0  0  0
 23 32  1  6  0  0  0
 23 24  1  0  0  0  0
 23 22  1  0  0  0  0
 25 24  1  0  0  0  0
 25 26  1  0  0  0  0
 26 27  1  0  0  0  0
 27 28  1  0  0  0  0
 29 28  1  0  0  0  0
 29 30  1  0  0  0  0
 30 31  1  0  0  0  0
 33 32  1  0  0  0  0
 35 34  1  1  0  0  0
 35 33  1  0  0  0  0
 35 36  1  0  0  0  0
 37 36  1  0  0  0  0
M  END
>  <MODEL>
9

>  <REMARK>
 VINA RESULT:      -4.6      1.951      6.881
  Name = 
  27 active torsions:
  status: ('A' for Active; 'I' for Inactive)
    1  A    between atoms: O_1  and  C_23
    2  A    between atoms: C_2  and  C_8
    3  A    between atoms: C_3  and  C_15
    4  A    between atoms: C_3  and  C_30
    5  A    between atoms: C_4  and  N_10
    6  A    between atoms: C_4  and  C_24
    7  A    between atoms: O_6  and  C_8
    8  A    between atoms: O_6  and  C_31
    9  A    between atoms: C_7  and  C_33
   10  A    between atoms: C_7  and  C_36
   11  A    between atoms: C_8  and  C_19
   12  A    between atoms: N_10  and  C_13
   13  A    between atoms: N_10  and  C_30
   14  A    between atoms: C_11  and  C_26
   15  A    between atoms: C_13  and  C_20
   16  A    between atoms: C_14  and  C_31
   17  A    between atoms: C_14  and  C_37
   18  A    between atoms: C_15  and  C_19
   19  A    between atoms: C_17  and  C_26
   20  A    between atoms: C_17  and  C_33
   21  A    between atoms: C_20  and  C_21
   22  A    between atoms: C_20  and  C_29
   23  A    between atoms: C_21  and  C_25
   24  A    between atoms: C_23  and  C_25
   25  A    between atoms: C_24  and  C_28
   26  A    between atoms: C_29  and  C_36
   27  A    between atoms: C_30  and  C_32
                            x       y       z     vdW  Elec       q    Type
                         _______ _______ _______ _____ _____    ______ ____

>  <TORSDO>
F 27

$$$$
