=
 OpenBabel10272413583D

 30 33  0  0  1  0  0  0  0  0999 V2000
  189.8130  176.6900  136.2330 C   0  0  0  0  0  0  0  0  0  0  0  0
  191.4340  174.9230  136.5160 C   0  0  0  0  0  3  0  0  0  0  0  0
  192.8890  177.4130  140.0650 C   0  0  0  0  0  2  0  0  0  0  0  0
  188.8070  176.4700  139.0710 C   0  0  0  0  0  2  0  0  0  0  0  0
  189.2570  177.8920  136.6760 O   0  0  0  0  0  0  0  0  0  0  0  0
  187.0220  177.5930  137.6670 C   0  0  2  0  0  3  0  0  0  0  0  0
  187.6930  179.6970  136.5210 C   0  0  0  0  0  1  0  0  0  0  0  0
  189.3870  177.7580  141.6030 C   0  0  2  0  0  3  0  0  0  0  0  0
  191.8000  177.4110  141.0780 C   0  0  0  0  0  0  0  0  0  0  0  0
  187.8710  178.1930  136.5270 C   0  0  1  0  0  3  0  0  0  0  0  0
  187.7410  177.4560  138.9400 N   0  0  0  0  0  0  0  0  0  0  0  0
  192.4760  174.1210  137.2120 C   0  0  0  0  0  2  0  0  0  0  0  0
  188.4190  178.8100  141.0310 C   0  0  0  0  0  2  0  0  0  0  0  0
  189.3780  176.1520  135.1790 O   0  0  0  0  0  0  0  0  0  0  0  0
  192.5280  176.6080  138.8510 C   0  0  0  0  0  0  0  0  0  0  0  0
  193.6960  174.9510  137.3910 C   0  0  0  0  0  3  0  0  0  0  0  0
  190.8840  176.0310  137.0290 C   0  0  0  0  0  0  0  0  0  0  0  0
  190.1320  177.2010  139.2230 C   0  0  1  0  0  3  0  0  0  0  0  0
  192.0900  177.4990  142.3010 O   0  0  0  0  0  0  0  0  0  0  0  0
  190.4370  177.3750  140.6500 N   0  0  0  0  0  0  0  0  0  0  0  0
  186.2110  178.7280  140.1560 O   0  0  0  0  0  0  0  0  0  0  0  0
  193.6990  176.0520  138.1380 C   0  0  0  0  0  3  0  0  0  0  0  0
  191.2410  176.5460  138.4030 C   0  0  0  0  0  0  0  0  0  0  0  0
  187.3920  178.3050  140.0480 C   0  0  0  0  0  0  0  0  0  0  0  0
  186.2740  176.3230  137.2680 C   0  0  0  0  0  2  0  0  0  0  0  0
  184.3340  177.3330  137.5560 C   0  0  0  0  0  1  0  0  0  0  0  0
  185.0760  176.6210  136.6160 O   0  0  0  0  0  0  0  0  0  0  0  0
  188.6910  176.5330  142.1940 C   0  0  0  0  0  2  0  0  0  0  0  0
  189.1160  177.3930  144.4950 C   0  0  0  0  0  1  0  0  0  0  0  0
  188.0680  176.8490  143.5440 C   0  0  0  0  0  2  0  0  0  0  0  0
  1  5  1  0  0  0  0
  1 17  1  0  0  0  0
  2 17  2  0  0  0  0
  2 12  1  0  0  0  0
  3  9  1  0  0  0  0
  6 25  1  6  0  0  0
  6 11  1  0  0  0  0
  8 28  1  6  0  0  0
  9 19  2  0  0  0  0
 10  7  1  1  0  0  0
 10  5  1  0  0  0  0
 10  6  1  0  0  0  0
 11  4  1  0  0  0  0
 11 24  1  0  0  0  0
 12 16  1  0  0  0  0
 13  8  1  0  0  0  0
 14  1  2  0  0  0  0
 15  3  1  0  0  0  0
 16 22  2  0  0  0  0
 17 23  1  0  0  0  0
 18  4  1  1  0  0  0
 18 20  1  0  0  0  0
 20  9  1  0  0  0  0
 20  8  1  0  0  0  0
 22 15  1  0  0  0  0
 23 15  2  0  0  0  0
 23 18  1  0  0  0  0
 24 21  2  0  0  0  0
 24 13  1  0  0  0  0
 27 25  1  0  0  0  0
 27 26  1  0  0  0  0
 28 30  1  0  0  0  0
 30 29  1  0  0  0  0
M  END
>  <MODEL>
1

>  <REMARK>
 VINA RESULT:      -6.1      0.000      0.000
  Name = 
  4 active torsions:
  status: ('A' for Active; 'I' for Inactive)
    1  A    between atoms: C_6  and  C_8
    2  A    between atoms: C_6  and  O_21
    3  A    between atoms: C_7  and  C_10
    4  A    between atoms: C_7  and  C_26
                            x       y       z     vdW  Elec       q    Type
                         _______ _______ _______ _____ _____    ______ ____

>  <TORSDO>
F 4

$$$$
=
 OpenBabel10272413583D

 30 33  0  0  1  0  0  0  0  0999 V2000
  192.4900  176.8770  138.7360 C   0  0  0  0  0  0  0  0  0  0  0  0
  191.0990  177.1070  140.6950 C   0  0  0  0  0  3  0  0  0  0  0  0
  187.6430  177.1900  137.7020 C   0  0  0  0  0  2  0  0  0  0  0  0
  190.9790  174.4690  137.7200 C   0  0  0  0  0  2  0  0  0  0  0  0
  192.6010  176.7470  137.3500 O   0  0  0  0  0  0  0  0  0  0  0  0
  193.2810  174.4830  136.6620 C   0  0  2  0  0  3  0  0  0  0  0  0
  193.8610  176.5020  135.3300 C   0  0  0  0  0  1  0  0  0  0  0  0
  188.7760  173.9960  135.8960 C   0  0  2  0  0  3  0  0  0  0  0  0
  187.5820  175.8480  137.0640 C   0  0  0  0  0  0  0  0  0  0  0  0
  193.6350  175.9820  136.7350 C   0  0  1  0  0  3  0  0  0  0  0  0
  191.8400  174.2120  136.5720 N   0  0  0  0  0  0  0  0  0  0  0  0
  189.8390  177.1060  141.4860 C   0  0  0  0  0  2  0  0  0  0  0  0
  189.9120  174.0860  134.8600 C   0  0  0  0  0  2  0  0  0  0  0  0
  193.5340  176.9370  139.4420 O   0  0  0  0  0  0  0  0  0  0  0  0
  188.7390  177.2780  138.7230 C   0  0  0  0  0  0  0  0  0  0  0  0
  188.9690  178.2200  141.0250 C   0  0  0  0  0  3  0  0  0  0  0  0
  191.1460  176.9020  139.3730 C   0  0  0  0  0  0  0  0  0  0  0  0
  190.0550  175.6300  137.3880 C   0  0  1  0  0  3  0  0  0  0  0  0
  186.4740  175.3990  136.6670 O   0  0  0  0  0  0  0  0  0  0  0  0
  188.7890  175.1130  136.8500 N   0  0  0  0  0  0  0  0  0  0  0  0
  192.0030  172.9870  134.5940 O   0  0  0  0  0  0  0  0  0  0  0  0
  188.4800  178.2700  139.7890 C   0  0  0  0  0  3  0  0  0  0  0  0
  189.9100  176.5970  138.5600 C   0  0  0  0  0  0  0  0  0  0  0  0
  191.2880  173.7020  135.3460 C   0  0  0  0  0  0  0  0  0  0  0  0
  193.9790  173.6380  137.7250 C   0  0  0  0  0  2  0  0  0  0  0  0
  196.0450  173.4090  138.4650 C   0  0  0  0  0  1  0  0  0  0  0  0
  195.0190  174.3420  138.3340 O   0  0  0  0  0  0  0  0  0  0  0  0
  188.6940  172.6480  136.6100 C   0  0  0  0  0  2  0  0  0  0  0  0
  186.4150  171.9390  135.8900 C   0  0  0  0  0  1  0  0  0  0  0  0
  187.8990  171.6400  135.7960 C   0  0  0  0  0  2  0  0  0  0  0  0
  1 17  1  0  0  0  0
  1 14  2  0  0  0  0
  2 12  1  0  0  0  0
  3 15  1  0  0  0  0
  5  1  1  0  0  0  0
  6 10  1  0  0  0  0
  6 25  1  1  0  0  0
  8 28  1  1  0  0  0
  8 20  1  0  0  0  0
  9  3  1  0  0  0  0
 10  7  1  6  0  0  0
 10  5  1  0  0  0  0
 11  6  1  0  0  0  0
 11  4  1  0  0  0  0
 13 24  1  0  0  0  0
 13  8  1  0  0  0  0
 15 22  1  0  0  0  0
 16 12  1  0  0  0  0
 17  2  2  0  0  0  0
 18  4  1  1  0  0  0
 18 23  1  0  0  0  0
 19  9  2  0  0  0  0
 20  9  1  0  0  0  0
 20 18  1  0  0  0  0
 21 24  2  0  0  0  0
 22 16  2  0  0  0  0
 23 15  2  0  0  0  0
 23 17  1  0  0  0  0
 24 11  1  0  0  0  0
 25 27  1  0  0  0  0
 27 26  1  0  0  0  0
 30 29  1  0  0  0  0
 30 28  1  0  0  0  0
M  END
>  <MODEL>
2

>  <REMARK>
 VINA RESULT:      -5.7      2.733      6.848
  Name = 
  4 active torsions:
  status: ('A' for Active; 'I' for Inactive)
    1  A    between atoms: C_6  and  C_8
    2  A    between atoms: C_6  and  O_21
    3  A    between atoms: C_7  and  C_10
    4  A    between atoms: C_7  and  C_26
                            x       y       z     vdW  Elec       q    Type
                         _______ _______ _______ _____ _____    ______ ____

>  <TORSDO>
F 4

$$$$
=
 OpenBabel10272413583D

 30 33  0  0  1  0  0  0  0  0999 V2000
  183.4170  178.4130  142.1750 C   0  0  0  0  0  0  0  0  0  0  0  0
  184.3530  179.4880  144.1230 C   0  0  0  0  0  3  0  0  0  0  0  0
  187.9120  176.7040  143.4140 C   0  0  0  0  0  2  0  0  0  0  0  0
  185.8200  179.0280  140.4540 C   0  0  0  0  0  2  0  0  0  0  0  0
  183.5470  177.4980  141.1280 O   0  0  0  0  0  0  0  0  0  0  0  0
  183.8350  178.5940  138.9410 C   0  0  2  0  0  3  0  0  0  0  0  0
  182.7450  176.3700  139.1750 C   0  0  0  0  0  1  0  0  0  0  0  0
  188.2680  177.6630  139.7130 C   0  0  2  0  0  3  0  0  0  0  0  0
  188.5400  177.1140  142.1300 C   0  0  0  0  0  0  0  0  0  0  0  0
  182.9540  177.7110  139.8490 C   0  0  1  0  0  3  0  0  0  0  0  0
  185.2730  178.4870  139.2160 N   0  0  0  0  0  0  0  0  0  0  0  0
  185.4090  179.8760  145.0960 C   0  0  0  0  0  2  0  0  0  0  0  0
  187.3270  177.0170  138.6790 C   0  0  0  0  0  2  0  0  0  0  0  0
  182.3380  179.0530  142.3130 O   0  0  0  0  0  0  0  0  0  0  0  0
  186.7320  177.5640  143.7610 C   0  0  0  0  0  0  0  0  0  0  0  0
  185.8690  178.6670  145.8300 C   0  0  0  0  0  3  0  0  0  0  0  0
  184.5620  178.6590  143.0920 C   0  0  0  0  0  0  0  0  0  0  0  0
  186.2950  177.8750  141.3240 C   0  0  1  0  0  3  0  0  0  0  0  0
  189.7780  176.9500  141.9650 O   0  0  0  0  0  0  0  0  0  0  0  0
  187.7220  177.6280  141.0760 N   0  0  0  0  0  0  0  0  0  0  0  0
  185.8330  177.8690  137.0380 O   0  0  0  0  0  0  0  0  0  0  0  0
  186.4680  177.6520  145.2140 C   0  0  0  0  0  3  0  0  0  0  0  0
  185.9210  178.0750  142.7900 C   0  0  0  0  0  0  0  0  0  0  0  0
  186.1320  177.8390  138.2610 C   0  0  0  0  0  0  0  0  0  0  0  0
  183.3540  180.0410  138.8460 C   0  0  0  0  0  2  0  0  0  0  0  0
  181.5930  181.3150  138.4710 C   0  0  0  0  0  1  0  0  0  0  0  0
  181.9880  180.1430  139.1130 O   0  0  0  0  0  0  0  0  0  0  0  0
  188.7360  179.0660  139.3310 C   0  0  0  0  0  2  0  0  0  0  0  0
  190.1070  177.7900  137.6850 C   0  0  0  0  0  1  0  0  0  0  0  0
  189.3570  179.0830  137.9430 C   0  0  0  0  0  2  0  0  0  0  0  0
  1 14  2  0  0  0  0
  1 17  1  0  0  0  0
  2 12  1  0  0  0  0
  3 15  1  0  0  0  0
  5  1  1  0  0  0  0
  6 25  1  1  0  0  0
  6 11  1  0  0  0  0
  6 10  1  0  0  0  0
  8 28  1  6  0  0  0
  8 20  1  0  0  0  0
  9  3  1  0  0  0  0
 10  7  1  6  0  0  0
 10  5  1  0  0  0  0
 11  4  1  0  0  0  0
 12 16  1  0  0  0  0
 13  8  1  0  0  0  0
 15 22  1  0  0  0  0
 17  2  2  0  0  0  0
 18  4  1  6  0  0  0
 18 23  1  0  0  0  0
 19  9  2  0  0  0  0
 20 18  1  0  0  0  0
 20  9  1  0  0  0  0
 21 24  2  0  0  0  0
 22 16  2  0  0  0  0
 23 17  1  0  0  0  0
 23 15  2  0  0  0  0
 24 13  1  0  0  0  0
 24 11  1  0  0  0  0
 25 27  1  0  0  0  0
 26 27  1  0  0  0  0
 29 30  1  0  0  0  0
 30 28  1  0  0  0  0
M  END
>  <MODEL>
3

>  <REMARK>
 VINA RESULT:      -5.7      2.868      6.739
  Name = 
  4 active torsions:
  status: ('A' for Active; 'I' for Inactive)
    1  A    between atoms: C_6  and  C_8
    2  A    between atoms: C_6  and  O_21
    3  A    between atoms: C_7  and  C_10
    4  A    between atoms: C_7  and  C_26
                            x       y       z     vdW  Elec       q    Type
                         _______ _______ _______ _____ _____    ______ ____

>  <TORSDO>
F 4

$$$$
=
 OpenBabel10272413583D

 30 33  0  0  1  0  0  0  0  0999 V2000
  189.3130  174.9720  135.0230 C   0  0  0  0  0  0  0  0  0  0  0  0
  190.9640  173.2390  135.3330 C   0  0  0  0  0  3  0  0  0  0  0  0
  193.3840  176.5150  137.4110 C   0  0  0  0  0  2  0  0  0  0  0  0
  189.2030  175.6490  137.9630 C   0  0  0  0  0  2  0  0  0  0  0  0
  188.9000  176.2900  135.2320 O   0  0  0  0  0  0  0  0  0  0  0  0
  187.0670  176.4600  136.8680 C   0  0  2  0  0  3  0  0  0  0  0  0
  187.3410  178.0920  135.0100 C   0  0  0  0  0  1  0  0  0  0  0  0
  190.4980  177.5540  139.7220 C   0  0  2  0  0  3  0  0  0  0  0  0
  192.6480  176.8860  138.6490 C   0  0  0  0  0  0  0  0  0  0  0  0
  187.5300  176.6430  135.4080 C   0  0  1  0  0  3  0  0  0  0  0  0
  188.1350  176.6360  137.8600 N   0  0  0  0  0  0  0  0  0  0  0  0
  192.1750  172.5890  135.9020 C   0  0  0  0  0  2  0  0  0  0  0  0
  189.3920  178.4720  139.1700 C   0  0  0  0  0  2  0  0  0  0  0  0
  188.5880  174.1920  134.3460 O   0  0  0  0  0  0  0  0  0  0  0  0
  192.6860  175.4280  136.6480 C   0  0  0  0  0  0  0  0  0  0  0  0
  193.3830  173.3390  135.4690 C   0  0  0  0  0  3  0  0  0  0  0  0
  190.5800  174.4860  135.6320 C   0  0  0  0  0  0  0  0  0  0  0  0
  190.5040  176.2870  137.5030 C   0  0  1  0  0  3  0  0  0  0  0  0
  193.2890  177.2950  139.6540 O   0  0  0  0  0  0  0  0  0  0  0  0
  191.2200  176.8360  138.6630 N   0  0  0  0  0  0  0  0  0  0  0  0
  187.0240  178.3160  139.0350 O   0  0  0  0  0  0  0  0  0  0  0  0
  193.5970  174.6030  135.8240 C   0  0  0  0  0  3  0  0  0  0  0  0
  191.3250  175.3410  136.6290 C   0  0  0  0  0  0  0  0  0  0  0  0
  188.1240  177.7890  138.7200 C   0  0  0  0  0  0  0  0  0  0  0  0
  186.2480  175.1910  137.0950 C   0  0  0  0  0  2  0  0  0  0  0  0
  185.5680  173.3950  136.0110 C   0  0  0  0  0  1  0  0  0  0  0  0
  185.6040  174.7850  135.9260 O   0  0  0  0  0  0  0  0  0  0  0  0
  190.0240  176.6060  140.8220 C   0  0  0  0  0  2  0  0  0  0  0  0
  188.3820  177.2180  142.5960 C   0  0  0  0  0  1  0  0  0  0  0  0
  189.8220  177.3420  142.1370 C   0  0  0  0  0  2  0  0  0  0  0  0
  1  5  1  0  0  0  0
  1 17  1  0  0  0  0
  2 17  2  0  0  0  0
  2 12  1  0  0  0  0
  3  9  1  0  0  0  0
  5 10  1  0  0  0  0
  6 25  1  6  0  0  0
  6 11  1  0  0  0  0
  8 28  1  1  0  0  0
  9 20  1  0  0  0  0
  9 19  2  0  0  0  0
 10  7  1  1  0  0  0
 10  6  1  0  0  0  0
 11  4  1  0  0  0  0
 11 24  1  0  0  0  0
 13  8  1  0  0  0  0
 14  1  2  0  0  0  0
 15  3  1  0  0  0  0
 16 22  2  0  0  0  0
 16 12  1  0  0  0  0
 17 23  1  0  0  0  0
 18  4  1  1  0  0  0
 18 20  1  0  0  0  0
 20  8  1  0  0  0  0
 22 15  1  0  0  0  0
 23 15  2  0  0  0  0
 23 18  1  0  0  0  0
 24 21  2  0  0  0  0
 24 13  1  0  0  0  0
 27 26  1  0  0  0  0
 27 25  1  0  0  0  0
 28 30  1  0  0  0  0
 30 29  1  0  0  0  0
M  END
>  <MODEL>
4

>  <REMARK>
 VINA RESULT:      -5.7      1.656      2.246
  Name = 
  4 active torsions:
  status: ('A' for Active; 'I' for Inactive)
    1  A    between atoms: C_6  and  C_8
    2  A    between atoms: C_6  and  O_21
    3  A    between atoms: C_7  and  C_10
    4  A    between atoms: C_7  and  C_26
                            x       y       z     vdW  Elec       q    Type
                         _______ _______ _______ _____ _____    ______ ____

>  <TORSDO>
F 4

$$$$
=
 OpenBabel10272413583D

 30 33  0  0  1  0  0  0  0  0999 V2000
  188.9860  177.8500  145.3670 C   0  0  0  0  0  0  0  0  0  0  0  0
  186.7320  177.1370  145.8540 C   0  0  0  0  0  3  0  0  0  0  0  0
  185.6070  179.6660  142.2140 C   0  0  0  0  0  2  0  0  0  0  0  0
  188.8740  176.8770  142.5120 C   0  0  0  0  0  2  0  0  0  0  0  0
  189.8740  178.5530  144.5490 O   0  0  0  0  0  0  0  0  0  0  0  0
  191.3030  177.0640  143.2050 C   0  0  2  0  0  3  0  0  0  0  0  0
  192.0610  179.3160  143.9450 C   0  0  0  0  0  1  0  0  0  0  0  0
  188.2270  178.0300  139.9320 C   0  0  2  0  0  3  0  0  0  0  0  0
  186.2100  179.0120  141.0220 C   0  0  0  0  0  0  0  0  0  0  0  0
  191.2140  178.1190  144.3270 C   0  0  1  0  0  3  0  0  0  0  0  0
  190.2590  177.1910  142.1810 N   0  0  0  0  0  0  0  0  0  0  0  0
  185.2830  176.9140  145.6010 C   0  0  0  0  0  2  0  0  0  0  0  0
  189.6930  178.4930  140.0250 C   0  0  0  0  0  2  0  0  0  0  0  0
  189.4170  177.2700  146.4010 O   0  0  0  0  0  0  0  0  0  0  0  0
  185.8990  178.9100  143.4760 C   0  0  0  0  0  0  0  0  0  0  0  0
  184.5960  178.2280  145.4960 C   0  0  0  0  0  3  0  0  0  0  0  0
  187.5500  177.7560  144.9930 C   0  0  0  0  0  0  0  0  0  0  0  0
  188.0610  178.1620  142.4780 C   0  0  1  0  0  3  0  0  0  0  0  0
  185.6420  179.1180  139.9020 O   0  0  0  0  0  0  0  0  0  0  0  0
  187.4600  178.3290  141.1480 N   0  0  0  0  0  0  0  0  0  0  0  0
  191.7590  177.3830  140.4060 O   0  0  0  0  0  0  0  0  0  0  0  0
  184.8790  179.0990  144.5310 C   0  0  0  0  0  3  0  0  0  0  0  0
  187.0790  178.2450  143.6440 C   0  0  0  0  0  0  0  0  0  0  0  0
  190.6100  177.6320  140.8580 C   0  0  0  0  0  0  0  0  0  0  0  0
  191.4600  175.6350  143.7210 C   0  0  0  0  0  2  0  0  0  0  0  0
  192.3570  174.2890  145.2210 C   0  0  0  0  0  1  0  0  0  0  0  0
  191.9820  175.6150  145.0150 O   0  0  0  0  0  0  0  0  0  0  0  0
  188.0640  176.5710  139.5090 C   0  0  0  0  0  2  0  0  0  0  0  0
  187.3030  177.3500  137.2650 C   0  0  0  0  0  1  0  0  0  0  0  0
  188.2330  176.4090  138.0070 C   0  0  0  0  0  2  0  0  0  0  0  0
  1 14  2  0  0  0  0
  3 15  1  0  0  0  0
  5  1  1  0  0  0  0
  6 25  1  1  0  0  0
  6 10  1  0  0  0  0
  8 28  1  1  0  0  0
  8 13  1  0  0  0  0
  8 20  1  0  0  0  0
  9 20  1  0  0  0  0
  9  3  1  0  0  0  0
 10  7  1  6  0  0  0
 10  5  1  0  0  0  0
 11  4  1  0  0  0  0
 11  6  1  0  0  0  0
 12  2  1  0  0  0  0
 13 24  1  0  0  0  0
 15 23  2  0  0  0  0
 15 22  1  0  0  0  0
 16 12  1  0  0  0  0
 17  1  1  0  0  0  0
 17  2  2  0  0  0  0
 18  4  1  6  0  0  0
 18 23  1  0  0  0  0
 19  9  2  0  0  0  0
 20 18  1  0  0  0  0
 21 24  2  0  0  0  0
 22 16  2  0  0  0  0
 23 17  1  0  0  0  0
 24 11  1  0  0  0  0
 25 27  1  0  0  0  0
 27 26  1  0  0  0  0
 29 30  1  0  0  0  0
 30 28  1  0  0  0  0
M  END
>  <MODEL>
5

>  <REMARK>
 VINA RESULT:      -5.3      2.821      7.885
  Name = 
  4 active torsions:
  status: ('A' for Active; 'I' for Inactive)
    1  A    between atoms: C_6  and  C_8
    2  A    between atoms: C_6  and  O_21
    3  A    between atoms: C_7  and  C_10
    4  A    between atoms: C_7  and  C_26
                            x       y       z     vdW  Elec       q    Type
                         _______ _______ _______ _____ _____    ______ ____

>  <TORSDO>
F 4

$$$$
=
 OpenBabel10272413583D

 30 33  0  0  1  0  0  0  0  0999 V2000
  187.0430  178.1860  137.3860 C   0  0  0  0  0  0  0  0  0  0  0  0
  185.2920  178.4700  139.0240 C   0  0  0  0  0  3  0  0  0  0  0  0
  182.6110  176.5480  135.8570 C   0  0  0  0  0  2  0  0  0  0  0  0
  186.5240  175.2280  137.0750 C   0  0  0  0  0  2  0  0  0  0  0  0
  187.4540  177.7200  136.1350 O   0  0  0  0  0  0  0  0  0  0  0  0
  188.8820  175.7200  136.2910 C   0  0  2  0  0  3  0  0  0  0  0  0
  189.0980  177.3610  134.4330 C   0  0  0  0  0  1  0  0  0  0  0  0
  184.9510  173.5530  135.3060 C   0  0  2  0  0  3  0  0  0  0  0  0
  183.0680  175.1430  135.6890 C   0  0  0  0  0  0  0  0  0  0  0  0
  188.7640  177.2090  135.9030 C   0  0  1  0  0  3  0  0  0  0  0  0
  187.6280  174.9670  136.1600 N   0  0  0  0  0  0  0  0  0  0  0  0
  183.9580  178.2650  139.6500 C   0  0  0  0  0  2  0  0  0  0  0  0
  186.1910  173.7280  134.4090 C   0  0  0  0  0  2  0  0  0  0  0  0
  187.8660  178.7870  138.1290 O   0  0  0  0  0  0  0  0  0  0  0  0
  183.4140  177.2800  136.8910 C   0  0  0  0  0  0  0  0  0  0  0  0
  182.9090  178.8460  138.7710 C   0  0  0  0  0  3  0  0  0  0  0  0
  185.6520  177.9330  137.8510 C   0  0  0  0  0  0  0  0  0  0  0  0
  185.3860  175.8690  136.2970 C   0  0  1  0  0  3  0  0  0  0  0  0
  182.2370  174.2550  135.3580 O   0  0  0  0  0  0  0  0  0  0  0  0
  184.4540  174.8280  135.8410 N   0  0  0  0  0  0  0  0  0  0  0  0
  188.5200  173.3690  134.7140 O   0  0  0  0  0  0  0  0  0  0  0  0
  182.6760  178.3820  137.5460 C   0  0  0  0  0  3  0  0  0  0  0  0
  184.7410  177.0160  137.0710 C   0  0  0  0  0  0  0  0  0  0  0  0
  187.4970  173.9810  135.1210 C   0  0  0  0  0  0  0  0  0  0  0  0
  189.5750  175.4910  137.6320 C   0  0  0  0  0  2  0  0  0  0  0  0
  191.2380  174.2290  136.9180 C   0  0  0  0  0  1  0  0  0  0  0  0
  190.0990  174.2010  137.7210 O   0  0  0  0  0  0  0  0  0  0  0  0
  185.1280  172.5120  136.4100 C   0  0  0  0  0  2  0  0  0  0  0  0
  183.0200  171.3020  136.9690 C   0  0  0  0  0  1  0  0  0  0  0  0
  184.2890  171.2730  136.1390 C   0  0  0  0  0  2  0  0  0  0  0  0
  1 17  1  0  0  0  0
  1 14  2  0  0  0  0
  2 12  1  0  0  0  0
  3 15  1  0  0  0  0
  5  1  1  0  0  0  0
  6 25  1  1  0  0  0
  8 20  1  0  0  0  0
  8 28  1  1  0  0  0
  9 20  1  0  0  0  0
  9  3  1  0  0  0  0
 10  7  1  6  0  0  0
 10  5  1  0  0  0  0
 10  6  1  0  0  0  0
 11  6  1  0  0  0  0
 11  4  1  0  0  0  0
 13 24  1  0  0  0  0
 13  8  1  0  0  0  0
 15 23  2  0  0  0  0
 15 22  1  0  0  0  0
 16 12  1  0  0  0  0
 17  2  2  0  0  0  0
 18 23  1  0  0  0  0
 18  4  1  1  0  0  0
 19  9  2  0  0  0  0
 20 18  1  0  0  0  0
 21 24  2  0  0  0  0
 22 16  2  0  0  0  0
 23 17  1  0  0  0  0
 24 11  1  0  0  0  0
 25 27  1  0  0  0  0
 26 27  1  0  0  0  0
 30 28  1  0  0  0  0
 30 29  1  0  0  0  0
M  END
>  <MODEL>
6

>  <REMARK>
 VINA RESULT:      -5.3      3.390      7.743
  Name = 
  4 active torsions:
  status: ('A' for Active; 'I' for Inactive)
    1  A    between atoms: C_6  and  C_8
    2  A    between atoms: C_6  and  O_21
    3  A    between atoms: C_7  and  C_10
    4  A    between atoms: C_7  and  C_26
                            x       y       z     vdW  Elec       q    Type
                         _______ _______ _______ _____ _____    ______ ____

>  <TORSDO>
F 4

$$$$
=
 OpenBabel10272413583D

 30 33  0  0  1  0  0  0  0  0999 V2000
  183.1910  175.4150  135.8350 C   0  0  0  0  0  0  0  0  0  0  0  0
  184.8090  173.7450  136.4840 C   0  0  0  0  0  3  0  0  0  0  0  0
  187.4990  177.3280  137.3990 C   0  0  0  0  0  2  0  0  0  0  0  0
  183.3560  176.8670  138.4770 C   0  0  0  0  0  2  0  0  0  0  0  0
  182.8390  176.7600  135.7060 O   0  0  0  0  0  0  0  0  0  0  0  0
  181.1600  177.4640  137.3640 C   0  0  2  0  0  3  0  0  0  0  0  0
  181.3220  178.5150  135.1160 C   0  0  0  0  0  1  0  0  0  0  0  0
  184.8560  179.1050  139.5450 C   0  0  2  0  0  3  0  0  0  0  0  0
  186.8840  178.0590  138.5390 C   0  0  0  0  0  0  0  0  0  0  0  0
  181.5000  177.2190  135.8800 C   0  0  1  0  0  3  0  0  0  0  0  0
  182.3150  177.8450  138.1880 N   0  0  0  0  0  0  0  0  0  0  0  0
  186.0440  173.2100  137.1180 C   0  0  0  0  0  2  0  0  0  0  0  0
  183.7350  179.8970  138.8470 C   0  0  0  0  0  2  0  0  0  0  0  0
  182.3870  174.5210  135.4540 O   0  0  0  0  0  0  0  0  0  0  0  0
  186.7050  176.1140  137.0160 C   0  0  0  0  0  0  0  0  0  0  0  0
  187.2330  173.7490  136.4070 C   0  0  0  0  0  3  0  0  0  0  0  0
  184.4910  175.0450  136.4580 C   0  0  0  0  0  0  0  0  0  0  0  0
  184.6320  177.2860  137.7640 C   0  0  1  0  0  3  0  0  0  0  0  0
  187.6220  178.6900  139.3420 O   0  0  0  0  0  0  0  0  0  0  0  0
  185.4610  178.0900  138.6720 N   0  0  0  0  0  0  0  0  0  0  0  0
  181.3610  179.8370  138.9370 O   0  0  0  0  0  0  0  0  0  0  0  0
  187.5150  175.0500  136.3840 C   0  0  0  0  0  3  0  0  0  0  0  0
  185.3440  176.0980  137.1240 C   0  0  0  0  0  0  0  0  0  0  0  0
  182.4130  179.1860  138.6970 C   0  0  0  0  0  0  0  0  0  0  0  0
  180.3250  176.3490  137.9910 C   0  0  0  0  0  2  0  0  0  0  0  0
  180.1490  175.4500  139.9980 C   0  0  0  0  0  1  0  0  0  0  0  0
  179.9820  176.6500  139.3100 O   0  0  0  0  0  0  0  0  0  0  0  0
  184.4510  178.5170  140.8950 C   0  0  0  0  0  2  0  0  0  0  0  0
  185.1060  178.3220  143.2930 C   0  0  0  0  0  1  0  0  0  0  0  0
  185.2290  179.1570  142.0330 C   0  0  0  0  0  2  0  0  0  0  0  0
  1 17  1  0  0  0  0
  2 12  1  0  0  0  0
  3  9  1  0  0  0  0
  5  1  1  0  0  0  0
  5 10  1  0  0  0  0
  6 25  1  1  0  0  0
  6 11  1  0  0  0  0
  8 28  1  1  0  0  0
  9 20  1  0  0  0  0
  9 19  2  0  0  0  0
 10  7  1  6  0  0  0
 10  6  1  0  0  0  0
 11  4  1  0  0  0  0
 11 24  1  0  0  0  0
 13  8  1  0  0  0  0
 14  1  2  0  0  0  0
 15 23  2  0  0  0  0
 15  3  1  0  0  0  0
 16 12  1  0  0  0  0
 17  2  2  0  0  0  0
 17 23  1  0  0  0  0
 18  4  1  1  0  0  0
 18 20  1  0  0  0  0
 20  8  1  0  0  0  0
 22 16  2  0  0  0  0
 22 15  1  0  0  0  0
 23 18  1  0  0  0  0
 24 13  1  0  0  0  0
 24 21  2  0  0  0  0
 25 27  1  0  0  0  0
 27 26  1  0  0  0  0
 28 30  1  0  0  0  0
 30 29  1  0  0  0  0
M  END
>  <MODEL>
7

>  <REMARK>
 VINA RESULT:      -5.1      3.921      5.867
  Name = 
  4 active torsions:
  status: ('A' for Active; 'I' for Inactive)
    1  A    between atoms: C_6  and  C_8
    2  A    between atoms: C_6  and  O_21
    3  A    between atoms: C_7  and  C_10
    4  A    between atoms: C_7  and  C_26
                            x       y       z     vdW  Elec       q    Type
                         _______ _______ _______ _____ _____    ______ ____

>  <TORSDO>
F 4

$$$$
=
 OpenBabel10272413583D

 30 33  0  0  1  0  0  0  0  0999 V2000
  190.0130  177.4040  140.0850 C   0  0  0  0  0  0  0  0  0  0  0  0
  189.4830  178.8600  138.2340 C   0  0  0  0  0  3  0  0  0  0  0  0
  185.1550  177.6520  139.0820 C   0  0  0  0  0  2  0  0  0  0  0  0
  188.1270  178.8150  141.9730 C   0  0  0  0  0  2  0  0  0  0  0  0
  189.5820  176.5580  141.1090 O   0  0  0  0  0  0  0  0  0  0  0  0
  189.8510  177.5610  143.3420 C   0  0  2  0  0  3  0  0  0  0  0  0
  189.9680  175.1040  142.9710 C   0  0  0  0  0  1  0  0  0  0  0  0
  185.3770  178.4750  142.8270 C   0  0  2  0  0  3  0  0  0  0  0  0
  184.7990  178.2050  140.4160 C   0  0  0  0  0  0  0  0  0  0  0  0
  190.2700  176.4540  142.3530 C   0  0  1  0  0  3  0  0  0  0  0  0
  188.4740  178.0380  143.1570 N   0  0  0  0  0  0  0  0  0  0  0  0
  188.6210  179.6810  137.3420 C   0  0  0  0  0  2  0  0  0  0  0  0
  186.0360  177.4590  143.7780 C   0  0  0  0  0  2  0  0  0  0  0  0
  191.2480  177.5780  139.8980 O   0  0  0  0  0  0  0  0  0  0  0  0
  186.5600  178.0010  138.6870 C   0  0  0  0  0  0  0  0  0  0  0  0
  187.6900  178.7890  136.6030 C   0  0  0  0  0  3  0  0  0  0  0  0
  189.0150  178.1250  139.2500 C   0  0  0  0  0  0  0  0  0  0  0  0
  187.1970  177.9860  141.1010 C   0  0  1  0  0  3  0  0  0  0  0  0
  183.6050  178.5280  140.6550 O   0  0  0  0  0  0  0  0  0  0  0  0
  185.8010  178.3020  141.4310 N   0  0  0  0  0  0  0  0  0  0  0  0
  187.8190  177.5720  145.3460 O   0  0  0  0  0  0  0  0  0  0  0  0
  186.7690  178.0560  137.2240 C   0  0  0  0  0  3  0  0  0  0  0  0
  187.5510  178.1020  139.6200 C   0  0  0  0  0  0  0  0  0  0  0  0
  187.4750  177.7270  144.1440 C   0  0  0  0  0  0  0  0  0  0  0  0
  190.8640  178.6990  143.4510 C   0  0  0  0  0  2  0  0  0  0  0  0
  191.4010  177.6640  145.3240 C   0  0  0  0  0  1  0  0  0  0  0  0
  191.9580  178.3320  144.2360 O   0  0  0  0  0  0  0  0  0  0  0  0
  185.5150  179.9270  143.2800 C   0  0  0  0  0  2  0  0  0  0  0  0
  183.1960  179.5080  144.0960 C   0  0  0  0  0  1  0  0  0  0  0  0
  184.4820  180.2750  144.3400 C   0  0  0  0  0  2  0  0  0  0  0  0
  1  5  1  0  0  0  0
  2 17  2  0  0  0  0
  3  9  1  0  0  0  0
  4 11  1  0  0  0  0
  5 10  1  0  0  0  0
  6 25  1  6  0  0  0
  8 28  1  1  0  0  0
  8 13  1  0  0  0  0
  9 19  2  0  0  0  0
  9 20  1  0  0  0  0
 10  7  1  1  0  0  0
 10  6  1  0  0  0  0
 11  6  1  0  0  0  0
 11 24  1  0  0  0  0
 12  2  1  0  0  0  0
 13 24  1  0  0  0  0
 14  1  2  0  0  0  0
 15  3  1  0  0  0  0
 15 23  2  0  0  0  0
 16 22  2  0  0  0  0
 16 12  1  0  0  0  0
 17 23  1  0  0  0  0
 17  1  1  0  0  0  0
 18 20  1  0  0  0  0
 18  4  1  1  0  0  0
 20  8  1  0  0  0  0
 22 15  1  0  0  0  0
 23 18  1  0  0  0  0
 24 21  2  0  0  0  0
 25 27  1  0  0  0  0
 27 26  1  0  0  0  0
 28 30  1  0  0  0  0
 29 30  1  0  0  0  0
M  END
>  <MODEL>
8

>  <REMARK>
 VINA RESULT:      -5.1      2.927      6.228
  Name = 
  4 active torsions:
  status: ('A' for Active; 'I' for Inactive)
    1  A    between atoms: C_6  and  C_8
    2  A    between atoms: C_6  and  O_21
    3  A    between atoms: C_7  and  C_10
    4  A    between atoms: C_7  and  C_26
                            x       y       z     vdW  Elec       q    Type
                         _______ _______ _______ _____ _____    ______ ____

>  <TORSDO>
F 4

$$$$
=
 OpenBabel10272413583D

 30 33  0  0  1  0  0  0  0  0999 V2000
  194.3640  175.2320  136.5340 C   0  0  0  0  0  0  0  0  0  0  0  0
  192.0620  174.9340  137.1960 C   0  0  0  0  0  3  0  0  0  0  0  0
  192.3610  170.9940  134.8950 C   0  0  0  0  0  2  0  0  0  0  0  0
  195.2310  172.5790  137.6860 C   0  0  0  0  0  2  0  0  0  0  0  0
  195.5030  174.7400  135.8930 O   0  0  0  0  0  0  0  0  0  0  0  0
  197.2670  174.0710  137.4750 C   0  0  2  0  0  3  0  0  0  0  0  0
  197.7850  174.9010  135.1880 C   0  0  0  0  0  1  0  0  0  0  0  0
  195.5640  169.8760  136.6950 C   0  0  2  0  0  3  0  0  0  0  0  0
  193.3240  170.1300  135.6280 C   0  0  0  0  0  0  0  0  0  0  0  0
  196.8220  175.0290  136.3500 C   0  0  1  0  0  3  0  0  0  0  0  0
  196.6520  172.7400  137.4050 N   0  0  0  0  0  0  0  0  0  0  0  0
  190.7880  174.2010  137.4230 C   0  0  0  0  0  2  0  0  0  0  0  0
  196.9180  170.4520  136.2390 C   0  0  0  0  0  2  0  0  0  0  0  0
  194.3870  176.3830  137.0500 O   0  0  0  0  0  0  0  0  0  0  0  0
  192.1690  172.3190  135.5710 C   0  0  0  0  0  0  0  0  0  0  0  0
  190.2210  173.7860  136.1120 C   0  0  0  0  0  3  0  0  0  0  0  0
  193.1480  174.3820  136.6400 C   0  0  0  0  0  0  0  0  0  0  0  0
  194.5200  172.1890  136.3990 C   0  0  1  0  0  3  0  0  0  0  0  0
  193.1880  168.8770  135.5900 O   0  0  0  0  0  0  0  0  0  0  0  0
  194.4290  170.7260  136.3120 N   0  0  0  0  0  0  0  0  0  0  0  0
  198.6850  171.5990  137.3400 O   0  0  0  0  0  0  0  0  0  0  0  0
  190.8500  172.9350  135.3070 C   0  0  0  0  0  3  0  0  0  0  0  0
  193.1950  172.9290  136.2340 C   0  0  0  0  0  0  0  0  0  0  0  0
  197.4590  171.6020  137.0520 C   0  0  0  0  0  0  0  0  0  0  0  0
  197.1900  174.6890  138.8700 C   0  0  0  0  0  2  0  0  0  0  0  0
  199.3880  174.7710  139.0390 C   0  0  0  0  0  1  0  0  0  0  0  0
  198.2480  175.5710  139.0960 O   0  0  0  0  0  0  0  0  0  0  0  0
  195.5160  169.5060  138.1760 C   0  0  0  0  0  2  0  0  0  0  0  0
  197.3040  167.9150  138.8750 C   0  0  0  0  0  1  0  0  0  0  0  0
  195.8720  168.0440  138.3920 C   0  0  0  0  0  2  0  0  0  0  0  0
  1 17  1  0  0  0  0
  1 14  2  0  0  0  0
  2 12  1  0  0  0  0
  3 15  1  0  0  0  0
  3  9  1  0  0  0  0
  5 10  1  0  0  0  0
  5  1  1  0  0  0  0
  6 25  1  1  0  0  0
  8 28  1  1  0  0  0
  9 20  1  0  0  0  0
 10  7  1  6  0  0  0
 10  6  1  0  0  0  0
 11  6  1  0  0  0  0
 11  4  1  0  0  0  0
 13  8  1  0  0  0  0
 13 24  1  0  0  0  0
 15 23  2  0  0  0  0
 16 12  1  0  0  0  0
 17  2  2  0  0  0  0
 18  4  1  1  0  0  0
 19  9  2  0  0  0  0
 20 18  1  0  0  0  0
 20  8  1  0  0  0  0
 22 15  1  0  0  0  0
 22 16  2  0  0  0  0
 23 18  1  0  0  0  0
 23 17  1  0  0  0  0
 24 21  2  0  0  0  0
 24 11  1  0  0  0  0
 25 27  1  0  0  0  0
 26 27  1  0  0  0  0
 28 30  1  0  0  0  0
 30 29  1  0  0  0  0
M  END
>  <MODEL>
9

>  <REMARK>
 VINA RESULT:      -4.8      5.585      9.612
  Name = 
  4 active torsions:
  status: ('A' for Active; 'I' for Inactive)
    1  A    between atoms: C_6  and  C_8
    2  A    between atoms: C_6  and  O_21
    3  A    between atoms: C_7  and  C_10
    4  A    between atoms: C_7  and  C_26
                            x       y       z     vdW  Elec       q    Type
                         _______ _______ _______ _____ _____    ______ ____

>  <TORSDO>
F 4

$$$$
