=
 OpenBabel10262423413D

 34 39  0  0  1  0  0  0  0  0999 V2000
  189.5460  177.2020  146.4120 C   0  0  0  0  0  0  0  0  0  0  0  0
  191.0850  176.2820  144.7880 C   0  0  0  0  0  0  0  0  0  0  0  0
  188.9170  177.3470  144.0450 C   0  0  0  0  0  0  0  0  0  0  0  0
  188.2320  177.7750  141.7650 C   0  0  0  0  0  0  0  0  0  0  0  0
  191.6550  176.3830  147.1280 C   0  0  0  0  0  3  0  0  0  0  0  0
  191.9800  176.0220  145.8250 C   0  0  0  0  0  3  0  0  0  0  0  0
  190.4720  177.4420  142.0410 N   0  0  0  0  0  2  0  0  0  0  0  0
  189.8640  176.9590  145.0470 C   0  0  0  0  0  0  0  0  0  0  0  0
  188.7780  177.9290  140.3970 C   0  0  0  0  0  2  0  0  0  0  0  0
  190.4490  176.9400  147.3930 N   0  0  0  0  0  0  0  0  0  0  0  0
  187.6010  177.7420  144.4470 C   0  0  0  0  0  0  0  0  0  0  0  0
  188.2900  177.6740  146.7740 C   0  0  0  0  0  3  0  0  0  0  0  0
  191.3700  175.7230  143.5890 F   0  0  0  0  0  0  0  0  0  0  0  0
  186.9680  178.0620  142.1460 N   0  0  0  0  0  0  0  0  0  0  0  0
  186.6100  178.0420  143.4620 C   0  0  0  0  0  0  0  0  0  0  0  0
  190.2880  177.7130  140.6160 C   0  0  2  0  0  3  0  0  0  0  0  0
  189.2020  177.4450  142.6650 C   0  0  0  0  0  0  0  0  0  0  0  0
  187.3250  177.9150  145.8070 C   0  0  0  0  0  3  0  0  0  0  0  0
  182.8930  178.7800  143.1560 C   0  0  0  0  0  0  0  0  0  0  0  0
  182.5970  179.0920  144.4830 C   0  0  0  0  0  3  0  0  0  0  0  0
  185.1990  178.3750  143.7930 C   0  0  0  0  0  0  0  0  0  0  0  0
  183.5750  179.0530  145.4250 N   0  0  0  0  0  0  0  0  0  0  0  0
  184.1990  178.4270  142.8130 C   0  0  0  0  0  3  0  0  0  0  0  0
  184.8540  178.7110  145.1110 C   0  0  0  0  0  3  0  0  0  0  0  0
  181.9010  178.8230  142.1870 O   0  0  0  0  0  1  0  0  0  0  0  0
  190.8210  176.5580  139.7680 C   0  0  0  0  0  2  0  0  0  0  0  0
  191.0190  176.9540  138.3080 C   0  0  0  0  0  2  0  0  0  0  0  0
  189.1070  178.6930  136.9390 C   0  0  0  0  0  1  0  0  0  0  0  0
  189.9460  176.3550  137.4510 C   0  0  0  0  0  0  0  0  0  0  0  0
  189.0000  177.2100  136.6290 C   0  0  1  0  0  3  0  0  0  0  0  0
  187.3650  175.2170  136.8480 C   0  0  0  0  0  2  0  0  0  0  0  0
  188.6640  174.4350  136.6240 C   0  0  0  0  0  2  0  0  0  0  0  0
  189.7670  175.0280  137.4490 C   0  0  0  0  0  3  0  0  0  0  0  0
  187.5440  176.7480  136.7910 C   0  0  0  0  0  2  0  0  0  0  0  0
  1 12  1  0  0  0  0
  1 10  2  0  0  0  0
  2  8  2  0  0  0  0
  2  6  1  0  0  0  0
  3 11  1  0  0  0  0
  3  8  1  0  0  0  0
  4 14  2  0  0  0  0
  4 17  1  0  0  0  0
  5 10  1  0  0  0  0
  6  5  2  0  0  0  0
  7 17  1  0  0  0  0
  8  1  1  0  0  0  0
  9 16  1  0  0  0  0
  9  4  1  0  0  0  0
 11 18  1  0  0  0  0
 13  2  1  0  0  0  0
 14 15  1  0  0  0  0
 15 21  1  0  0  0  0
 15 11  2  0  0  0  0
 16 26  1  6  0  0  0
 16  7  1  0  0  0  0
 17  3  2  0  0  0  0
 18 12  2  0  0  0  0
 19 20  1  0  0  0  0
 20 22  2  0  0  0  0
 21 24  2  0  0  0  0
 23 19  2  0  0  0  0
 23 21  1  0  0  0  0
 24 22  1  0  0  0  0
 25 19  1  0  0  0  0
 27 26  1  0  0  0  0
 29 27  1  0  0  0  0
 30 34  1  0  0  0  0
 30 28  1  1  0  0  0
 30 29  1  0  0  0  0
 32 31  1  0  0  0  0
 32 33  1  0  0  0  0
 33 29  2  0  0  0  0
 34 31  1  0  0  0  0
M  END
>  <MODEL>
1

>  <REMARK>
 VINA RESULT:     -11.1      0.000      0.000
  Name = 
  4 active torsions:
  status: ('A' for Active; 'I' for Inactive)
    1  A    between atoms: C_3  and  C_13
    2  A    between atoms: C_3  and  C_17
    3  A    between atoms: C_12  and  C_28
    4  A    between atoms: C_17  and  C_29
                            x       y       z     vdW  Elec       q    Type
                         _______ _______ _______ _____ _____    ______ ____

>  <TORSDO>
F 4

$$$$
=
 OpenBabel10262423413D

 34 39  0  0  1  0  0  0  0  0999 V2000
  189.5450  177.2040  146.4720 C   0  0  0  0  0  0  0  0  0  0  0  0
  191.1170  176.2880  144.8770 C   0  0  0  0  0  0  0  0  0  0  0  0
  188.9590  177.3450  144.0940 C   0  0  0  0  0  0  0  0  0  0  0  0
  188.3140  177.7690  141.8020 C   0  0  0  0  0  0  0  0  0  0  0  0
  191.6440  176.3910  147.2260 C   0  0  0  0  0  3  0  0  0  0  0  0
  191.9940  176.0310  145.9300 C   0  0  0  0  0  3  0  0  0  0  0  0
  190.5490  177.4430  142.1180 N   0  0  0  0  0  2  0  0  0  0  0  0
  189.8890  176.9600  145.1130 C   0  0  0  0  0  0  0  0  0  0  0  0
  188.8840  177.9240  140.4430 C   0  0  0  0  0  2  0  0  0  0  0  0
  190.4310  176.9450  147.4700 N   0  0  0  0  0  0  0  0  0  0  0  0
  187.6350  177.7360  144.4720 C   0  0  0  0  0  0  0  0  0  0  0  0
  188.2820  177.6720  146.8110 C   0  0  0  0  0  3  0  0  0  0  0  0
  191.4250  175.7280  143.6840 F   0  0  0  0  0  0  0  0  0  0  0  0
  187.0430  178.0530  142.1590 N   0  0  0  0  0  0  0  0  0  0  0  0
  186.6610  178.0320  143.4690 C   0  0  0  0  0  0  0  0  0  0  0  0
  190.3900  177.7120  140.6900 C   0  0  2  0  0  3  0  0  0  0  0  0
  189.2690  177.4430  142.7200 C   0  0  0  0  0  0  0  0  0  0  0  0
  187.3330  177.9100  145.8270 C   0  0  0  0  0  3  0  0  0  0  0  0
  182.9480  178.7560  143.0960 C   0  0  0  0  0  0  0  0  0  0  0  0
  182.6270  179.0710  144.4160 C   0  0  0  0  0  3  0  0  0  0  0  0
  185.2430  178.3610  143.7750 C   0  0  0  0  0  0  0  0  0  0  0  0
  183.5890  179.0390  145.3750 N   0  0  0  0  0  0  0  0  0  0  0  0
  184.2600  178.4070  142.7760 C   0  0  0  0  0  3  0  0  0  0  0  0
  184.8740  178.7010  145.0850 C   0  0  0  0  0  3  0  0  0  0  0  0
  181.9720  178.7930  142.1090 O   0  0  0  0  0  1  0  0  0  0  0  0
  190.9430  176.5590  139.8530 C   0  0  0  0  0  2  0  0  0  0  0  0
  190.6710  176.7420  138.3630 C   0  0  0  0  0  2  0  0  0  0  0  0
  190.0110  174.2070  137.0620 C   0  0  0  0  0  1  0  0  0  0  0  0
  191.7070  176.0290  137.5480 C   0  0  0  0  0  0  0  0  0  0  0  0
  191.3880  174.7730  136.7600 C   0  0  1  0  0  3  0  0  0  0  0  0
  193.9010  174.2250  137.0440 C   0  0  0  0  0  2  0  0  0  0  0  0
  194.0150  175.7300  136.7740 C   0  0  0  0  0  2  0  0  0  0  0  0
  192.9720  176.4710  137.5570 C   0  0  0  0  0  3  0  0  0  0  0  0
  192.4550  173.6890  136.9760 C   0  0  0  0  0  2  0  0  0  0  0  0
  1 12  1  0  0  0  0
  1 10  2  0  0  0  0
  2  8  2  0  0  0  0
  2  6  1  0  0  0  0
  3 11  1  0  0  0  0
  3  8  1  0  0  0  0
  4 14  2  0  0  0  0
  4 17  1  0  0  0  0
  5 10  1  0  0  0  0
  6  5  2  0  0  0  0
  7 17  1  0  0  0  0
  8  1  1  0  0  0  0
  9 16  1  0  0  0  0
  9  4  1  0  0  0  0
 11 18  1  0  0  0  0
 13  2  1  0  0  0  0
 14 15  1  0  0  0  0
 15 21  1  0  0  0  0
 15 11  2  0  0  0  0
 16 26  1  6  0  0  0
 16  7  1  0  0  0  0
 17  3  2  0  0  0  0
 18 12  2  0  0  0  0
 19 20  1  0  0  0  0
 20 22  2  0  0  0  0
 21 24  2  0  0  0  0
 23 19  2  0  0  0  0
 23 21  1  0  0  0  0
 24 22  1  0  0  0  0
 25 19  1  0  0  0  0
 27 26  1  0  0  0  0
 29 33  2  0  0  0  0
 29 27  1  0  0  0  0
 30 34  1  0  0  0  0
 30 28  1  1  0  0  0
 30 29  1  0  0  0  0
 32 31  1  0  0  0  0
 32 33  1  0  0  0  0
 34 31  1  0  0  0  0
M  END
>  <MODEL>
2

>  <REMARK>
 VINA RESULT:     -10.9      1.217      2.143
  Name = 
  4 active torsions:
  status: ('A' for Active; 'I' for Inactive)
    1  A    between atoms: C_3  and  C_13
    2  A    between atoms: C_3  and  C_17
    3  A    between atoms: C_12  and  C_28
    4  A    between atoms: C_17  and  C_29
                            x       y       z     vdW  Elec       q    Type
                         _______ _______ _______ _____ _____    ______ ____

>  <TORSDO>
F 4

$$$$
=
 OpenBabel10262423413D

 34 39  0  0  1  0  0  0  0  0999 V2000
  187.2400  178.1760  138.4500 C   0  0  0  0  0  0  0  0  0  0  0  0
  186.7910  178.3050  140.8240 C   0  0  0  0  0  0  0  0  0  0  0  0
  189.0770  177.6340  139.9830 C   0  0  0  0  0  0  0  0  0  0  0  0
  191.0570  177.2780  141.3270 C   0  0  0  0  0  0  0  0  0  0  0  0
  185.1430  178.9920  139.2050 C   0  0  0  0  0  3  0  0  0  0  0  0
  185.5190  178.7930  140.5280 C   0  0  0  0  0  3  0  0  0  0  0  0
  189.4210  178.5010  142.3440 N   0  0  0  0  0  2  0  0  0  0  0  0
  187.7230  178.0560  139.7830 C   0  0  0  0  0  0  0  0  0  0  0  0
  191.6380  177.6050  142.6500 C   0  0  0  0  0  2  0  0  0  0  0  0
  185.9950  178.6620  138.2040 N   0  0  0  0  0  0  0  0  0  0  0  0
  189.8200  177.1250  138.8700 C   0  0  0  0  0  0  0  0  0  0  0  0
  188.0160  177.7600  137.3750 C   0  0  0  0  0  3  0  0  0  0  0  0
  187.0150  177.9410  142.1080 F   0  0  0  0  0  0  0  0  0  0  0  0
  191.7210  176.7200  140.2910 N   0  0  0  0  0  0  0  0  0  0  0  0
  191.1390  176.6100  139.0630 C   0  0  0  0  0  0  0  0  0  0  0  0
  190.5200  178.4390  143.3060 C   0  0  2  0  0  3  0  0  0  0  0  0
  189.7830  177.7490  141.2010 C   0  0  0  0  0  0  0  0  0  0  0  0
  189.2760  177.2190  137.5840 C   0  0  0  0  0  3  0  0  0  0  0  0
  193.7760  176.0170  136.3890 C   0  0  0  0  0  0  0  0  0  0  0  0
  193.3420  174.7900  135.8870 C   0  0  0  0  0  3  0  0  0  0  0  0
  191.9420  175.9860  137.9780 C   0  0  0  0  0  0  0  0  0  0  0  0
  192.2400  174.1920  136.4110 N   0  0  0  0  0  0  0  0  0  0  0  0
  193.0690  176.6160  137.4320 C   0  0  0  0  0  3  0  0  0  0  0  0
  191.5370  174.7600  137.4280 C   0  0  0  0  0  3  0  0  0  0  0  0
  194.8970  176.6360  135.8550 O   0  0  0  0  0  1  0  0  0  0  0  0
  190.0560  177.8220  144.6250 C   0  0  0  0  0  2  0  0  0  0  0  0
  188.5940  177.3880  144.5790 C   0  0  0  0  0  2  0  0  0  0  0  0
  185.7860  178.1380  144.9050 C   0  0  0  0  0  1  0  0  0  0  0  0
  187.9880  177.4350  145.9490 C   0  0  0  0  0  0  0  0  0  0  0  0
  186.5120  177.7060  146.1670 C   0  0  1  0  0  3  0  0  0  0  0  0
  187.2480  178.6090  148.4780 C   0  0  0  0  0  2  0  0  0  0  0  0
  188.1730  177.3880  148.3940 C   0  0  0  0  0  2  0  0  0  0  0  0
  188.7760  177.2970  147.0240 C   0  0  0  0  0  3  0  0  0  0  0  0
  186.2910  178.7480  147.2760 C   0  0  0  0  0  2  0  0  0  0  0  0
  1  8  1  0  0  0  0
  2 13  1  0  0  0  0
  3 17  1  0  0  0  0
  4  9  1  0  0  0  0
  5  6  2  0  0  0  0
  6  2  1  0  0  0  0
  7 16  1  0  0  0  0
  8  3  1  0  0  0  0
  8  2  2  0  0  0  0
  9 16  1  0  0  0  0
 10  1  2  0  0  0  0
 10  5  1  0  0  0  0
 11 15  1  0  0  0  0
 11  3  2  0  0  0  0
 12 18  2  0  0  0  0
 12  1  1  0  0  0  0
 14  4  1  0  0  0  0
 15 14  2  0  0  0  0
 16 26  1  1  0  0  0
 17  4  2  0  0  0  0
 17  7  1  0  0  0  0
 18 11  1  0  0  0  0
 19 23  1  0  0  0  0
 20 19  2  0  0  0  0
 20 22  1  0  0  0  0
 21 15  1  0  0  0  0
 22 24  2  0  0  0  0
 23 21  2  0  0  0  0
 24 21  1  0  0  0  0
 25 19  1  0  0  0  0
 27 26  1  0  0  0  0
 27 29  1  0  0  0  0
 29 30  1  0  0  0  0
 29 33  2  0  0  0  0
 30 28  1  6  0  0  0
 30 34  1  0  0  0  0
 32 31  1  0  0  0  0
 33 32  1  0  0  0  0
 34 31  1  0  0  0  0
M  END
>  <MODEL>
3

>  <REMARK>
 VINA RESULT:     -10.7      3.496      8.909
  Name = 
  4 active torsions:
  status: ('A' for Active; 'I' for Inactive)
    1  A    between atoms: C_3  and  C_13
    2  A    between atoms: C_3  and  C_17
    3  A    between atoms: C_12  and  C_28
    4  A    between atoms: C_17  and  C_29
                            x       y       z     vdW  Elec       q    Type
                         _______ _______ _______ _____ _____    ______ ____

>  <TORSDO>
F 4

$$$$
=
 OpenBabel10262423413D

 34 39  0  0  1  0  0  0  0  0999 V2000
  186.8970  178.2570  138.6150 C   0  0  0  0  0  0  0  0  0  0  0  0
  186.6120  178.4150  141.0120 C   0  0  0  0  0  0  0  0  0  0  0  0
  188.8060  177.6410  140.0260 C   0  0  0  0  0  0  0  0  0  0  0  0
  190.8540  177.2040  141.2380 C   0  0  0  0  0  0  0  0  0  0  0  0
  184.8920  179.1670  139.5020 C   0  0  0  0  0  3  0  0  0  0  0  0
  185.3460  178.9580  140.7980 C   0  0  0  0  0  3  0  0  0  0  0  0
  189.3440  178.5020  142.3530 N   0  0  0  0  0  2  0  0  0  0  0  0
  187.4610  178.1210  139.9140 C   0  0  0  0  0  0  0  0  0  0  0  0
  191.5350  177.5110  142.5180 C   0  0  0  0  0  2  0  0  0  0  0  0
  185.6600  178.7960  138.4490 N   0  0  0  0  0  0  0  0  0  0  0  0
  189.4510  177.0950  138.8700 C   0  0  0  0  0  0  0  0  0  0  0  0
  187.5800  177.8030  137.4940 C   0  0  0  0  0  3  0  0  0  0  0  0
  186.9050  178.0460  142.2810 F   0  0  0  0  0  0  0  0  0  0  0  0
  191.4220  176.6130  140.1650 N   0  0  0  0  0  0  0  0  0  0  0  0
  190.7550  176.5240  138.9790 C   0  0  0  0  0  0  0  0  0  0  0  0
  190.5010  178.3950  143.2410 C   0  0  2  0  0  3  0  0  0  0  0  0
  189.5960  177.7300  141.1940 C   0  0  0  0  0  0  0  0  0  0  0  0
  188.8260  177.2090  137.6230 C   0  0  0  0  0  3  0  0  0  0  0  0
  191.7670  173.9990  136.3220 C   0  0  0  0  0  0  0  0  0  0  0  0
  192.8770  174.6470  135.7800 C   0  0  0  0  0  3  0  0  0  0  0  0
  191.4570  175.8610  137.8470 C   0  0  0  0  0  0  0  0  0  0  0  0
  193.2630  175.8550  136.2660 N   0  0  0  0  0  0  0  0  0  0  0  0
  191.0610  174.6070  137.3610 C   0  0  0  0  0  3  0  0  0  0  0  0
  192.5880  176.4650  137.2790 C   0  0  0  0  0  3  0  0  0  0  0  0
  191.3690  172.7620  135.8350 O   0  0  0  0  0  1  0  0  0  0  0  0
  190.0990  177.8040  144.5920 C   0  0  0  0  0  2  0  0  0  0  0  0
  188.6550  177.3120  144.6030 C   0  0  0  0  0  2  0  0  0  0  0  0
  185.8790  178.1320  145.0180 C   0  0  0  0  0  1  0  0  0  0  0  0
  188.0920  177.3660  145.9910 C   0  0  0  0  0  0  0  0  0  0  0  0
  186.6310  177.6730  146.2550 C   0  0  1  0  0  3  0  0  0  0  0  0
  187.4590  178.5400  148.5480 C   0  0  0  0  0  2  0  0  0  0  0  0
  188.3480  177.2970  148.4280 C   0  0  0  0  0  2  0  0  0  0  0  0
  188.9080  177.2000  147.0400 C   0  0  0  0  0  3  0  0  0  0  0  0
  186.4700  178.7120  147.3760 C   0  0  0  0  0  2  0  0  0  0  0  0
  1  8  1  0  0  0  0
  2 13  1  0  0  0  0
  3 17  1  0  0  0  0
  4  9  1  0  0  0  0
  5  6  2  0  0  0  0
  6  2  1  0  0  0  0
  7 16  1  0  0  0  0
  8  3  1  0  0  0  0
  8  2  2  0  0  0  0
  9 16  1  0  0  0  0
 10  1  2  0  0  0  0
 10  5  1  0  0  0  0
 11 15  1  0  0  0  0
 11  3  2  0  0  0  0
 12 18  2  0  0  0  0
 12  1  1  0  0  0  0
 14  4  1  0  0  0  0
 15 14  2  0  0  0  0
 16 26  1  1  0  0  0
 17  4  2  0  0  0  0
 17  7  1  0  0  0  0
 18 11  1  0  0  0  0
 19 23  1  0  0  0  0
 20 22  1  0  0  0  0
 20 19  2  0  0  0  0
 21 15  1  0  0  0  0
 22 24  2  0  0  0  0
 23 21  2  0  0  0  0
 24 21  1  0  0  0  0
 25 19  1  0  0  0  0
 26 27  1  0  0  0  0
 27 29  1  0  0  0  0
 29 30  1  0  0  0  0
 29 33  2  0  0  0  0
 30 28  1  6  0  0  0
 30 34  1  0  0  0  0
 32 31  1  0  0  0  0
 33 32  1  0  0  0  0
 34 31  1  0  0  0  0
M  END
>  <MODEL>
4

>  <REMARK>
 VINA RESULT:     -10.6      3.271      8.752
  Name = 
  4 active torsions:
  status: ('A' for Active; 'I' for Inactive)
    1  A    between atoms: C_3  and  C_13
    2  A    between atoms: C_3  and  C_17
    3  A    between atoms: C_12  and  C_28
    4  A    between atoms: C_17  and  C_29
                            x       y       z     vdW  Elec       q    Type
                         _______ _______ _______ _____ _____    ______ ____

>  <TORSDO>
F 4

$$$$
=
 OpenBabel10262423413D

 34 39  0  0  1  0  0  0  0  0999 V2000
  186.6960  178.0830  146.6240 C   0  0  0  0  0  0  0  0  0  0  0  0
  188.6770  177.2430  145.5180 C   0  0  0  0  0  0  0  0  0  0  0  0
  186.6910  178.0370  144.1710 C   0  0  0  0  0  0  0  0  0  0  0  0
  186.5840  178.2690  141.7660 C   0  0  0  0  0  0  0  0  0  0  0  0
  188.6110  177.5260  147.9100 C   0  0  0  0  0  3  0  0  0  0  0  0
  189.2920  177.1330  146.7640 C   0  0  0  0  0  3  0  0  0  0  0  0
  188.6970  178.1860  142.6230 N   0  0  0  0  0  2  0  0  0  0  0  0
  187.3760  177.8020  145.4070 C   0  0  0  0  0  0  0  0  0  0  0  0
  187.4510  178.4060  140.5720 C   0  0  0  0  0  2  0  0  0  0  0  0
  187.3330  177.9680  147.8180 N   0  0  0  0  0  0  0  0  0  0  0  0
  185.2860  178.3130  144.1950 C   0  0  0  0  0  0  0  0  0  0  0  0
  185.3530  178.4410  146.6190 C   0  0  0  0  0  3  0  0  0  0  0  0
  189.3090  176.6530  144.4770 F   0  0  0  0  0  0  0  0  0  0  0  0
  185.2450  178.4440  141.7920 N   0  0  0  0  0  0  0  0  0  0  0  0
  184.5620  178.4560  142.9720 C   0  0  0  0  0  0  0  0  0  0  0  0
  188.8650  178.3600  141.1810 C   0  0  2  0  0  3  0  0  0  0  0  0
  187.3130  178.0900  142.9040 C   0  0  0  0  0  0  0  0  0  0  0  0
  184.6540  178.5290  145.4250 C   0  0  0  0  0  3  0  0  0  0  0  0
  181.0330  179.0150  141.6740 C   0  0  0  0  0  0  0  0  0  0  0  0
  180.3430  179.1220  142.8810 C   0  0  0  0  0  3  0  0  0  0  0  0
  183.0900  178.6580  142.9100 C   0  0  0  0  0  0  0  0  0  0  0  0
  181.0120  179.0100  144.0580 N   0  0  0  0  0  0  0  0  0  0  0  0
  182.4090  178.7880  141.6910 C   0  0  0  0  0  3  0  0  0  0  0  0
  182.3540  178.7890  144.0970 C   0  0  0  0  0  3  0  0  0  0  0  0
  180.3580  179.1340  140.4670 O   0  0  0  0  0  1  0  0  0  0  0  0
  189.6980  177.2240  140.5880 C   0  0  0  0  0  2  0  0  0  0  0  0
  190.4880  177.6640  139.3600 C   0  0  0  0  0  2  0  0  0  0  0  0
  188.9820  179.1610  137.3490 C   0  0  0  0  0  1  0  0  0  0  0  0
  189.9860  176.9680  138.1320 C   0  0  0  0  0  0  0  0  0  0  0  0
  189.2990  177.7160  137.0060 C   0  0  1  0  0  3  0  0  0  0  0  0
  188.1360  175.4570  136.5150 C   0  0  0  0  0  2  0  0  0  0  0  0
  189.5420  174.9360  136.8320 C   0  0  0  0  0  2  0  0  0  0  0  0
  190.0850  175.6350  138.0430 C   0  0  0  0  0  3  0  0  0  0  0  0
  188.0200  176.9950  136.5520 C   0  0  0  0  0  2  0  0  0  0  0  0
  1 10  2  0  0  0  0
  2  6  1  0  0  0  0
  3 11  1  0  0  0  0
  3  8  1  0  0  0  0
  4 14  2  0  0  0  0
  4 17  1  0  0  0  0
  6  5  2  0  0  0  0
  7 17  1  0  0  0  0
  8  2  2  0  0  0  0
  8  1  1  0  0  0  0
  9 16  1  0  0  0  0
  9  4  1  0  0  0  0
 10  5  1  0  0  0  0
 11 18  1  0  0  0  0
 12  1  1  0  0  0  0
 13  2  1  0  0  0  0
 14 15  1  0  0  0  0
 15 11  2  0  0  0  0
 16 26  1  6  0  0  0
 16  7  1  0  0  0  0
 17  3  2  0  0  0  0
 18 12  2  0  0  0  0
 19 23  2  0  0  0  0
 19 20  1  0  0  0  0
 20 22  2  0  0  0  0
 21 15  1  0  0  0  0
 21 24  2  0  0  0  0
 22 24  1  0  0  0  0
 23 21  1  0  0  0  0
 25 19  1  0  0  0  0
 27 26  1  0  0  0  0
 29 27  1  0  0  0  0
 30 28  1  1  0  0  0
 30 29  1  0  0  0  0
 31 34  1  0  0  0  0
 31 32  1  0  0  0  0
 32 33  1  0  0  0  0
 33 29  2  0  0  0  0
 34 30  1  0  0  0  0
M  END
>  <MODEL>
5

>  <REMARK>
 VINA RESULT:     -10.5      1.548      2.208
  Name = 
  4 active torsions:
  status: ('A' for Active; 'I' for Inactive)
    1  A    between atoms: C_3  and  C_13
    2  A    between atoms: C_3  and  C_17
    3  A    between atoms: C_12  and  C_28
    4  A    between atoms: C_17  and  C_29
                            x       y       z     vdW  Elec       q    Type
                         _______ _______ _______ _____ _____    ______ ____

>  <TORSDO>
F 4

$$$$
=
 OpenBabel10262423413D

 34 39  0  0  1  0  0  0  0  0999 V2000
  184.3590  178.7510  144.8970 C   0  0  0  0  0  0  0  0  0  0  0  0
  186.5750  177.8190  145.1730 C   0  0  0  0  0  0  0  0  0  0  0  0
  185.7080  178.4150  142.8760 C   0  0  0  0  0  0  0  0  0  0  0  0
  186.9590  178.3600  140.8070 C   0  0  0  0  0  0  0  0  0  0  0  0
  185.2130  178.3820  147.0810 C   0  0  0  0  0  3  0  0  0  0  0  0
  186.3920  177.8670  146.5550 C   0  0  0  0  0  3  0  0  0  0  0  0
  188.2390  178.4130  142.6950 N   0  0  0  0  0  2  0  0  0  0  0  0
  185.5830  178.3400  144.3010 C   0  0  0  0  0  0  0  0  0  0  0  0
  188.3470  178.3690  140.2870 C   0  0  0  0  0  2  0  0  0  0  0  0
  184.2240  178.7890  146.2490 N   0  0  0  0  0  0  0  0  0  0  0  0
  184.5400  178.6700  142.0870 C   0  0  0  0  0  0  0  0  0  0  0  0
  183.2630  179.0840  144.1100 C   0  0  0  0  0  3  0  0  0  0  0  0
  187.6450  177.1210  144.7290 F   0  0  0  0  0  0  0  0  0  0  0  0
  185.8400  178.5150  140.0670 N   0  0  0  0  0  0  0  0  0  0  0  0
  184.6210  178.6550  140.6610 C   0  0  0  0  0  0  0  0  0  0  0  0
  189.1850  178.4180  141.5790 C   0  0  2  0  0  3  0  0  0  0  0  0
  186.9280  178.3290  142.1700 C   0  0  0  0  0  0  0  0  0  0  0  0
  183.3460  179.0190  142.7270 C   0  0  0  0  0  3  0  0  0  0  0  0
  181.9590  180.1960  138.4260 C   0  0  0  0  0  0  0  0  0  0  0  0
  181.1650  179.0750  138.1840 C   0  0  0  0  0  3  0  0  0  0  0  0
  183.4410  178.8250  139.7710 C   0  0  0  0  0  0  0  0  0  0  0  0
  181.4980  177.8760  138.7290 N   0  0  0  0  0  0  0  0  0  0  0  0
  183.0950  180.0690  139.2260 C   0  0  0  0  0  3  0  0  0  0  0  0
  182.6020  177.7310  139.5110 C   0  0  0  0  0  3  0  0  0  0  0  0
  181.6220  181.4260  137.8780 O   0  0  0  0  0  1  0  0  0  0  0  0
  190.1460  177.2340  141.6740 C   0  0  0  0  0  2  0  0  0  0  0  0
  191.3420  177.5290  142.5740 C   0  0  0  0  0  2  0  0  0  0  0  0
  190.2660  178.5110  145.1100 C   0  0  0  0  0  1  0  0  0  0  0  0
  191.3290  176.6340  143.7760 C   0  0  0  0  0  0  0  0  0  0  0  0
  190.6820  177.0500  145.0830 C   0  0  1  0  0  3  0  0  0  0  0  0
  192.3570  175.4090  146.1770 C   0  0  0  0  0  2  0  0  0  0  0  0
  191.9810  174.5790  144.9440 C   0  0  0  0  0  2  0  0  0  0  0  0
  191.9590  175.4530  143.7260 C   0  0  0  0  0  3  0  0  0  0  0  0
  191.5930  176.7460  146.2820 C   0  0  0  0  0  2  0  0  0  0  0  0
  1 10  2  0  0  0  0
  2  6  1  0  0  0  0
  3  8  1  0  0  0  0
  4 17  2  0  0  0  0
  6  5  2  0  0  0  0
  8  1  1  0  0  0  0
  8  2  2  0  0  0  0
  9  4  1  0  0  0  0
  9 16  1  0  0  0  0
 10  5  1  0  0  0  0
 11 18  1  0  0  0  0
 11  3  2  0  0  0  0
 12  1  1  0  0  0  0
 13  2  1  0  0  0  0
 14 15  2  0  0  0  0
 14  4  1  0  0  0  0
 15 11  1  0  0  0  0
 16 26  1  1  0  0  0
 16  7  1  0  0  0  0
 17  7  1  0  0  0  0
 17  3  1  0  0  0  0
 18 12  2  0  0  0  0
 19 23  1  0  0  0  0
 20 19  2  0  0  0  0
 20 22  1  0  0  0  0
 21 15  1  0  0  0  0
 22 24  2  0  0  0  0
 23 21  2  0  0  0  0
 24 21  1  0  0  0  0
 25 19  1  0  0  0  0
 26 27  1  0  0  0  0
 27 29  1  0  0  0  0
 29 30  1  0  0  0  0
 30 28  1  6  0  0  0
 30 34  1  0  0  0  0
 31 34  1  0  0  0  0
 32 31  1  0  0  0  0
 33 29  2  0  0  0  0
 33 32  1  0  0  0  0
M  END
>  <MODEL>
6

>  <REMARK>
 VINA RESULT:     -10.4      2.731      5.713
  Name = 
  4 active torsions:
  status: ('A' for Active; 'I' for Inactive)
    1  A    between atoms: C_3  and  C_13
    2  A    between atoms: C_3  and  C_17
    3  A    between atoms: C_12  and  C_28
    4  A    between atoms: C_17  and  C_29
                            x       y       z     vdW  Elec       q    Type
                         _______ _______ _______ _____ _____    ______ ____

>  <TORSDO>
F 4

$$$$
=
 OpenBabel10262423413D

 34 39  0  0  1  0  0  0  0  0999 V2000
  185.4270  178.1440  143.3870 C   0  0  0  0  0  0  0  0  0  0  0  0
  185.7750  178.7490  141.0700 C   0  0  0  0  0  0  0  0  0  0  0  0
  187.6790  177.8430  142.4620 C   0  0  0  0  0  0  0  0  0  0  0  0
  189.8950  177.2760  141.6740 C   0  0  0  0  0  0  0  0  0  0  0  0
  183.5770  178.8100  142.0570 C   0  0  0  0  0  3  0  0  0  0  0  0
  184.4100  179.0130  140.9640 C   0  0  0  0  0  3  0  0  0  0  0  0
  188.3060  177.4070  140.0420 N   0  0  0  0  0  2  0  0  0  0  0  0
  186.3120  178.2260  142.2760 C   0  0  0  0  0  0  0  0  0  0  0  0
  190.6380  176.9420  140.4360 C   0  0  0  0  0  2  0  0  0  0  0  0
  184.1020  178.4040  143.2390 N   0  0  0  0  0  0  0  0  0  0  0  0
  188.1660  177.6210  143.7910 C   0  0  0  0  0  0  0  0  0  0  0  0
  185.9070  177.8360  144.6540 C   0  0  0  0  0  3  0  0  0  0  0  0
  186.5530  179.1630  140.0440 F   0  0  0  0  0  0  0  0  0  0  0  0
  190.3670  177.1530  142.9330 N   0  0  0  0  0  0  0  0  0  0  0  0
  189.5480  177.3320  144.0090 C   0  0  0  0  0  0  0  0  0  0  0  0
  189.5410  177.0250  139.3580 C   0  0  2  0  0  3  0  0  0  0  0  0
  188.5930  177.5890  141.4150 C   0  0  0  0  0  0  0  0  0  0  0  0
  187.2590  177.6030  144.8560 C   0  0  0  0  0  3  0  0  0  0  0  0
  190.1400  177.5460  147.7590 C   0  0  0  0  0  0  0  0  0  0  0  0
  191.3810  176.9140  147.8460 C   0  0  0  0  0  3  0  0  0  0  0  0
  190.1480  177.1740  145.3610 C   0  0  0  0  0  0  0  0  0  0  0  0
  191.9820  176.4390  146.7240 N   0  0  0  0  0  0  0  0  0  0  0  0
  189.5280  177.6800  146.5120 C   0  0  0  0  0  3  0  0  0  0  0  0
  191.4020  176.5600  145.4990 C   0  0  0  0  0  3  0  0  0  0  0  0
  189.5220  178.0380  148.8990 O   0  0  0  0  0  1  0  0  0  0  0  0
  189.8960  178.0350  138.2680 C   0  0  0  0  0  2  0  0  0  0  0  0
  188.6610  178.5780  137.5560 C   0  0  0  0  0  2  0  0  0  0  0  0
  185.9360  177.5550  137.2700 C   0  0  0  0  0  1  0  0  0  0  0  0
  188.3070  177.7130  136.3840 C   0  0  0  0  0  0  0  0  0  0  0  0
  186.8870  177.2500  136.1250 C   0  0  1  0  0  3  0  0  0  0  0  0
  187.9980  175.2570  134.9030 C   0  0  0  0  0  2  0  0  0  0  0  0
  188.9260  176.3790  134.4210 C   0  0  0  0  0  2  0  0  0  0  0  0
  189.2770  177.2790  135.5680 C   0  0  0  0  0  3  0  0  0  0  0  0
  186.8380  175.7500  135.7940 C   0  0  0  0  0  2  0  0  0  0  0  0
  1 12  1  0  0  0  0
  2  8  1  0  0  0  0
  3 11  1  0  0  0  0
  4 14  2  0  0  0  0
  5 10  2  0  0  0  0
  6  2  2  0  0  0  0
  6  5  1  0  0  0  0
  7 17  1  0  0  0  0
  8  3  1  0  0  0  0
  8  1  2  0  0  0  0
  9  4  1  0  0  0  0
 10  1  1  0  0  0  0
 11 15  2  0  0  0  0
 11 18  1  0  0  0  0
 12 18  2  0  0  0  0
 13  2  1  0  0  0  0
 14 15  1  0  0  0  0
 15 21  1  0  0  0  0
 16 26  1  6  0  0  0
 16  7  1  0  0  0  0
 16  9  1  0  0  0  0
 17  4  1  0  0  0  0
 17  3  2  0  0  0  0
 19 20  1  0  0  0  0
 19 25  1  0  0  0  0
 21 24  2  0  0  0  0
 21 23  1  0  0  0  0
 22 20  2  0  0  0  0
 23 19  2  0  0  0  0
 24 22  1  0  0  0  0
 27 26  1  0  0  0  0
 29 27  1  0  0  0  0
 30 29  1  0  0  0  0
 30 28  1  1  0  0  0
 31 34  1  0  0  0  0
 32 31  1  0  0  0  0
 32 33  1  0  0  0  0
 33 29  2  0  0  0  0
 34 30  1  0  0  0  0
M  END
>  <MODEL>
7

>  <REMARK>
 VINA RESULT:     -10.1      2.504      5.370
  Name = 
  4 active torsions:
  status: ('A' for Active; 'I' for Inactive)
    1  A    between atoms: C_3  and  C_13
    2  A    between atoms: C_3  and  C_17
    3  A    between atoms: C_12  and  C_28
    4  A    between atoms: C_17  and  C_29
                            x       y       z     vdW  Elec       q    Type
                         _______ _______ _______ _____ _____    ______ ____

>  <TORSDO>
F 4

$$$$
=
 OpenBabel10262423413D

 34 39  0  0  1  0  0  0  0  0999 V2000
  189.4250  177.2100  146.0250 C   0  0  0  0  0  0  0  0  0  0  0  0
  191.1570  176.3660  144.5630 C   0  0  0  0  0  0  0  0  0  0  0  0
  189.0490  177.3820  143.6070 C   0  0  0  0  0  0  0  0  0  0  0  0
  188.5990  177.8320  141.2740 C   0  0  0  0  0  0  0  0  0  0  0  0
  191.4690  176.4380  146.9510 C   0  0  0  0  0  3  0  0  0  0  0  0
  191.9430  176.1120  145.6860 C   0  0  0  0  0  3  0  0  0  0  0  0
  190.8060  177.5580  141.7840 N   0  0  0  0  0  2  0  0  0  0  0  0
  189.8950  177.0020  144.6990 C   0  0  0  0  0  0  0  0  0  0  0  0
  189.2840  178.0270  139.9740 C   0  0  0  0  0  2  0  0  0  0  0  0
  190.2250  176.9550  147.0940 N   0  0  0  0  0  0  0  0  0  0  0  0
  187.6860  177.7310  143.8710 C   0  0  0  0  0  0  0  0  0  0  0  0
  188.1230  177.6390  146.2570 C   0  0  0  0  0  3  0  0  0  0  0  0
  191.5850  175.8370  143.3930 F   0  0  0  0  0  0  0  0  0  0  0  0
  187.2940  178.0760  141.5200 N   0  0  0  0  0  0  0  0  0  0  0  0
  186.7980  178.0200  142.7890 C   0  0  0  0  0  0  0  0  0  0  0  0
  190.7670  177.8500  140.3510 C   0  0  2  0  0  3  0  0  0  0  0  0
  189.4770  177.5140  142.2670 C   0  0  0  0  0  0  0  0  0  0  0  0
  187.2600  177.8710  145.1960 C   0  0  0  0  0  3  0  0  0  0  0  0
  183.4380  178.8460  144.3660 C   0  0  0  0  0  0  0  0  0  0  0  0
  182.6120  178.7450  143.2470 C   0  0  0  0  0  3  0  0  0  0  0  0
  185.3500  178.3070  142.9720 C   0  0  0  0  0  0  0  0  0  0  0  0
  183.1430  178.4260  142.0370 N   0  0  0  0  0  0  0  0  0  0  0  0
  184.8080  178.6200  144.2270 C   0  0  0  0  0  3  0  0  0  0  0  0
  184.4760  178.2030  141.8800 C   0  0  0  0  0  3  0  0  0  0  0  0
  182.9030  179.1640  145.6060 O   0  0  0  0  0  1  0  0  0  0  0  0
  191.4240  176.7280  139.5480 C   0  0  0  0  0  2  0  0  0  0  0  0
  190.5170  176.2010  138.4400 C   0  0  0  0  0  2  0  0  0  0  0  0
  189.0390  177.1750  136.1130 C   0  0  0  0  0  1  0  0  0  0  0  0
  191.2000  176.2990  137.1100 C   0  0  0  0  0  0  0  0  0  0  0  0
  190.5180  176.9030  135.8980 C   0  0  1  0  0  3  0  0  0  0  0  0
  192.1110  175.3930  134.5270 C   0  0  0  0  0  2  0  0  0  0  0  0
  193.0910  175.8470  135.6160 C   0  0  0  0  0  2  0  0  0  0  0  0
  192.4280  175.7860  136.9590 C   0  0  0  0  0  3  0  0  0  0  0  0
  190.7080  176.0240  134.6520 C   0  0  0  0  0  2  0  0  0  0  0  0
  1 12  1  0  0  0  0
  1 10  2  0  0  0  0
  2  8  2  0  0  0  0
  2  6  1  0  0  0  0
  3 11  1  0  0  0  0
  3  8  1  0  0  0  0
  4 14  2  0  0  0  0
  4 17  1  0  0  0  0
  5 10  1  0  0  0  0
  6  5  2  0  0  0  0
  7 17  1  0  0  0  0
  8  1  1  0  0  0  0
  9 16  1  0  0  0  0
  9  4  1  0  0  0  0
 11 18  1  0  0  0  0
 13  2  1  0  0  0  0
 14 15  1  0  0  0  0
 15 21  1  0  0  0  0
 15 11  2  0  0  0  0
 16 26  1  6  0  0  0
 16  7  1  0  0  0  0
 17  3  2  0  0  0  0
 18 12  2  0  0  0  0
 19 25  1  0  0  0  0
 20 19  2  0  0  0  0
 21 23  2  0  0  0  0
 22 20  1  0  0  0  0
 23 19  1  0  0  0  0
 24 22  2  0  0  0  0
 24 21  1  0  0  0  0
 27 26  1  0  0  0  0
 29 27  1  0  0  0  0
 30 28  1  1  0  0  0
 30 29  1  0  0  0  0
 31 34  1  0  0  0  0
 31 32  1  0  0  0  0
 32 33  1  0  0  0  0
 33 29  2  0  0  0  0
 34 30  1  0  0  0  0
M  END
>  <MODEL>
8

>  <REMARK>
 VINA RESULT:     -10.0      1.523      1.949
  Name = 
  4 active torsions:
  status: ('A' for Active; 'I' for Inactive)
    1  A    between atoms: C_3  and  C_13
    2  A    between atoms: C_3  and  C_17
    3  A    between atoms: C_12  and  C_28
    4  A    between atoms: C_17  and  C_29
                            x       y       z     vdW  Elec       q    Type
                         _______ _______ _______ _____ _____    ______ ____

>  <TORSDO>
F 4

$$$$
=
 OpenBabel10262423413D

 34 39  0  0  1  0  0  0  0  0999 V2000
  187.3750  178.0060  138.5980 C   0  0  0  0  0  0  0  0  0  0  0  0
  188.3050  178.2900  140.8140 C   0  0  0  0  0  0  0  0  0  0  0  0
  185.8210  178.5430  140.4190 C   0  0  0  0  0  0  0  0  0  0  0  0
  184.1200  178.8520  142.1110 C   0  0  0  0  0  0  0  0  0  0  0  0
  189.6790  177.5740  138.9680 C   0  0  0  0  0  3  0  0  0  0  0  0
  189.5500  177.9220  140.3080 C   0  0  0  0  0  3  0  0  0  0  0  0
  186.0920  178.0050  142.8850 N   0  0  0  0  0  2  0  0  0  0  0  0
  187.1560  178.2650  139.9800 C   0  0  0  0  0  0  0  0  0  0  0  0
  183.8720  178.6590  143.5590 C   0  0  0  0  0  2  0  0  0  0  0  0
  188.6040  177.6430  138.1460 N   0  0  0  0  0  0  0  0  0  0  0  0
  184.8020  178.7850  139.4430 C   0  0  0  0  0  0  0  0  0  0  0  0
  186.3460  178.1580  137.6770 C   0  0  0  0  0  3  0  0  0  0  0  0
  188.2900  178.8130  142.0620 F   0  0  0  0  0  0  0  0  0  0  0  0
  183.1860  179.1630  141.1870 N   0  0  0  0  0  0  0  0  0  0  0  0
  183.4870  179.1580  139.8560 C   0  0  0  0  0  0  0  0  0  0  0  0
  185.2110  178.0760  144.0500 C   0  0  2  0  0  3  0  0  0  0  0  0
  185.3990  178.5270  141.7670 C   0  0  0  0  0  0  0  0  0  0  0  0
  185.0860  178.5660  138.0900 C   0  0  0  0  0  3  0  0  0  0  0  0
  181.1100  181.1270  137.6360 C   0  0  0  0  0  0  0  0  0  0  0  0
  180.2820  180.0960  137.1910 C   0  0  0  0  0  3  0  0  0  0  0  0
  182.3980  179.5090  138.9060 C   0  0  0  0  0  0  0  0  0  0  0  0
  180.5050  178.8200  137.6010 N   0  0  0  0  0  0  0  0  0  0  0  0
  182.1650  180.8310  138.5000 C   0  0  0  0  0  3  0  0  0  0  0  0
  181.5290  178.5110  138.4420 C   0  0  0  0  0  3  0  0  0  0  0  0
  180.8850  182.4340  137.2270 O   0  0  0  0  0  1  0  0  0  0  0  0
  185.8310  178.9360  145.1510 C   0  0  0  0  0  2  0  0  0  0  0  0
  186.2110  178.1180  146.3810 C   0  0  0  0  0  2  0  0  0  0  0  0
  187.8570  177.6640  148.7560 C   0  0  0  0  0  1  0  0  0  0  0  0
  187.5950  177.5600  146.2360 C   0  0  0  0  0  0  0  0  0  0  0  0
  188.4480  177.2000  147.4360 C   0  0  1  0  0  3  0  0  0  0  0  0
  190.4540  177.6350  145.8610 C   0  0  0  0  0  2  0  0  0  0  0  0
  189.5290  176.9130  144.8740 C   0  0  0  0  0  2  0  0  0  0  0  0
  188.1280  177.4300  145.0140 C   0  0  0  0  0  3  0  0  0  0  0  0
  189.8800  177.7390  147.2890 C   0  0  0  0  0  2  0  0  0  0  0  0
  1  8  1  0  0  0  0
  2 13  1  0  0  0  0
  3 17  1  0  0  0  0
  4  9  1  0  0  0  0
  5  6  2  0  0  0  0
  6  2  1  0  0  0  0
  7 16  1  0  0  0  0
  8  3  1  0  0  0  0
  8  2  2  0  0  0  0
  9 16  1  0  0  0  0
 10  1  2  0  0  0  0
 10  5  1  0  0  0  0
 11 15  1  0  0  0  0
 11  3  2  0  0  0  0
 12 18  2  0  0  0  0
 12  1  1  0  0  0  0
 14  4  1  0  0  0  0
 15 14  2  0  0  0  0
 16 26  1  1  0  0  0
 17  4  2  0  0  0  0
 17  7  1  0  0  0  0
 18 11  1  0  0  0  0
 19 23  1  0  0  0  0
 20 22  1  0  0  0  0
 20 19  2  0  0  0  0
 21 15  1  0  0  0  0
 22 24  2  0  0  0  0
 23 21  2  0  0  0  0
 24 21  1  0  0  0  0
 25 19  1  0  0  0  0
 26 27  1  0  0  0  0
 29 27  1  0  0  0  0
 29 30  1  0  0  0  0
 30 28  1  1  0  0  0
 31 34  1  0  0  0  0
 32 33  1  0  0  0  0
 32 31  1  0  0  0  0
 33 29  2  0  0  0  0
 34 30  1  0  0  0  0
M  END
>  <MODEL>
9

>  <REMARK>
 VINA RESULT:     -10.0      3.361      7.476
  Name = 
  4 active torsions:
  status: ('A' for Active; 'I' for Inactive)
    1  A    between atoms: C_3  and  C_13
    2  A    between atoms: C_3  and  C_17
    3  A    between atoms: C_12  and  C_28
    4  A    between atoms: C_17  and  C_29
                            x       y       z     vdW  Elec       q    Type
                         _______ _______ _______ _____ _____    ______ ____

>  <TORSDO>
F 4

$$$$
