=
 OpenBabel10272414313D

 43 47  0  0  1  0  0  0  0  0999 V2000
  190.3280  177.2720  141.4110 C   0  0  0  0  0  2  0  0  0  0  0  0
  188.1010  177.8060  142.3260 C   0  0  0  0  0  2  0  0  0  0  0  0
  187.6720  178.3730  141.0540 N   0  0  0  0  0  0  0  0  0  0  0  0
  188.1140  178.7300  138.7930 O   0  0  0  0  0  0  0  0  0  0  0  0
  189.5900  178.0400  142.5020 C   0  0  1  0  0  3  0  0  0  0  0  0
  189.9350  177.7590  140.0030 C   0  0  2  0  0  3  0  0  0  0  0  0
  188.5190  178.2800  139.8950 C   0  0  0  0  0  0  0  0  0  0  0  0
  192.1100  173.2030  135.9200 C   0  0  0  0  0  0  0  0  0  0  0  0
  190.2060  176.6950  138.9850 C   0  0  0  0  0  0  0  0  0  0  0  0
  190.6160  174.6770  137.1230 C   0  0  0  0  0  0  0  0  0  0  0  0
  193.2070  173.7630  136.5860 C   0  0  0  0  0  3  0  0  0  0  0  0
  192.2980  172.2140  135.0190 F   0  0  0  0  0  0  0  0  0  0  0  0
  191.7240  175.2400  137.7950 C   0  0  0  0  0  0  0  0  0  0  0  0
  190.8140  173.6580  136.1890 C   0  0  0  0  0  3  0  0  0  0  0  0
  193.0140  174.7820  137.5230 C   0  0  0  0  0  3  0  0  0  0  0  0
  191.5090  176.2480  138.7300 C   0  0  0  0  0  3  0  0  0  0  0  0
  189.1380  176.1120  138.2960 C   0  0  0  0  0  3  0  0  0  0  0  0
  189.3620  175.1280  137.3860 N   0  0  0  0  0  0  0  0  0  0  0  0
  191.6760  176.6650  145.3810 C   0  0  0  0  0  3  0  0  0  0  0  0
  189.5670  177.4760  146.2430 C   0  0  0  0  0  3  0  0  0  0  0  0
  190.8180  176.8910  146.4580 C   0  0  0  0  0  0  0  0  0  0  0  0
  191.2900  177.0340  144.0870 C   0  0  0  0  0  3  0  0  0  0  0  0
  190.0410  177.6380  143.8710 C   0  0  0  0  0  0  0  0  0  0  0  0
  191.2010  176.5280  147.7430 O   0  0  0  0  0  1  0  0  0  0  0  0
  189.1820  177.8500  144.9520 C   0  0  0  0  0  3  0  0  0  0  0  0
  186.5670  179.1600  141.0330 O   0  0  0  0  0  0  0  0  0  0  0  0
  185.6630  178.5780  141.9320 C   0  0  0  0  0  2  0  0  0  0  0  0
  184.2120  178.8850  141.5590 C   0  0  1  0  0  3  0  0  0  0  0  0
  183.7600  178.0430  140.3700 C   0  0  0  0  0  2  0  0  0  0  0  0
  183.8750  178.8250  139.0640 C   0  0  0  0  0  3  0  0  0  0  0  0
  181.8720  177.7900  137.9110 C   0  0  0  0  0  2  0  0  0  0  0  0
  184.1510  176.8380  137.5230 C   0  0  0  0  0  2  0  0  0  0  0  0
  182.7980  177.1490  136.8870 C   0  0  0  0  0  2  0  0  0  0  0  0
  184.7900  178.1200  138.0550 C   0  0  0  0  0  2  0  0  0  0  0  0
  182.4910  179.0770  138.4560 C   0  0  0  0  0  2  0  0  0  0  0  0
  183.2570  178.7320  142.7520 C   0  0  1  0  0  3  0  0  0  0  0  0
  183.5660  179.6620  143.9360 C   0  0  0  0  0  2  0  0  0  0  0  0
  184.0680  178.9230  145.1350 C   0  0  0  0  0  3  0  0  0  0  0  0
  185.2630  179.1140  145.5510 N   0  0  0  0  0  0  0  0  0  0  0  0
  185.7450  178.3900  146.6930 C   0  0  0  0  0  1  0  0  0  0  0  0
  181.7920  178.7640  142.3180 C   0  0  0  0  0  2  0  0  0  0  0  0
  180.0450  178.1700  144.0020 C   0  0  0  0  0  1  0  0  0  0  0  0
  180.9040  179.2870  143.4370 C   0  0  0  0  0  2  0  0  0  0  0  0
  1  5  1  0  0  0  0
  2  5  1  0  0  0  0
  3  2  1  0  0  0  0
  4  7  2  0  0  0  0
  5 23  1  1  0  0  0
  6  9  1  6  0  0  0
  6  1  1  0  0  0  0
  7  6  1  0  0  0  0
  7  3  1  0  0  0  0
  8 14  2  0  0  0  0
  8 11  1  0  0  0  0
 10 18  2  0  0  0  0
 10 13  1  0  0  0  0
 11 15  2  0  0  0  0
 12  8  1  0  0  0  0
 13 16  2  0  0  0  0
 14 10  1  0  0  0  0
 15 13  1  0  0  0  0
 16  9  1  0  0  0  0
 17  9  2  0  0  0  0
 18 17  1  0  0  0  0
 19 21  1  0  0  0  0
 20 21  2  0  0  0  0
 21 24  1  0  0  0  0
 22 19  2  0  0  0  0
 23 22  1  0  0  0  0
 23 25  2  0  0  0  0
 25 20  1  0  0  0  0
 26  3  1  0  0  0  0
 26 27  1  0  0  0  0
 28 29  1  6  0  0  0
 28 27  1  0  0  0  0
 28 36  1  0  0  0  0
 30 29  1  0  0  0  0
 31 35  1  0  0  0  0
 32 34  1  0  0  0  0
 33 32  1  0  0  0  0
 33 31  1  0  0  0  0
 34 30  1  0  0  0  0
 35 30  1  0  0  0  0
 36 41  1  6  0  0  0
 36 37  1  0  0  0  0
 37 38  1  0  0  0  0
 38 39  2  0  0  0  0
 39 40  1  0  0  0  0
 41 43  1  0  0  0  0
 43 42  1  0  0  0  0
M  END
>  <MODEL>
1

>  <REMARK>
 VINA RESULT:      -9.1      0.000      0.000
  Name = 
  12 active torsions:
  status: ('A' for Active; 'I' for Inactive)
    1  A    between atoms: O_2  and  C_6
    2  A    between atoms: O_2  and  N_13
    3  A    between atoms: C_3  and  C_4
    4  A    between atoms: C_4  and  C_22
    5  A    between atoms: C_6  and  C_41
    6  A    between atoms: C_8  and  C_34
    7  A    between atoms: C_11  and  C_14
    8  A    between atoms: C_14  and  C_41
    9  A    between atoms: C_15  and  C_22
   10  A    between atoms: C_15  and  C_42
   11  A    between atoms: C_22  and  C_41
   12  A    between atoms: C_28  and  C_35
                            x       y       z     vdW  Elec       q    Type
                         _______ _______ _______ _____ _____    ______ ____

>  <TORSDO>
F 12

$$$$
=
 OpenBabel10272414313D

 43 47  0  0  1  0  0  0  0  0999 V2000
  189.1970  176.2940  137.2100 C   0  0  0  0  0  2  0  0  0  0  0  0
  189.8100  176.5840  139.5810 C   0  0  0  0  0  2  0  0  0  0  0  0
  188.6980  177.5020  139.7960 N   0  0  0  0  0  0  0  0  0  0  0  0
  186.7520  178.4860  138.9710 O   0  0  0  0  0  0  0  0  0  0  0  0
  190.3110  176.7290  138.1560 C   0  0  1  0  0  3  0  0  0  0  0  0
  187.9410  177.1730  137.3620 C   0  0  2  0  0  3  0  0  0  0  0  0
  187.7330  177.7300  138.7540 C   0  0  0  0  0  0  0  0  0  0  0  0
  182.9600  173.2540  135.9520 C   0  0  0  0  0  0  0  0  0  0  0  0
  186.7270  176.4430  136.8790 C   0  0  0  0  0  0  0  0  0  0  0  0
  184.4240  175.1800  135.9790 C   0  0  0  0  0  0  0  0  0  0  0  0
  183.8190  172.5830  136.8300 C   0  0  0  0  0  3  0  0  0  0  0  0
  181.8320  172.6510  135.5150 F   0  0  0  0  0  0  0  0  0  0  0  0
  185.2880  174.5010  136.8670 C   0  0  0  0  0  0  0  0  0  0  0  0
  183.2610  174.5520  135.5260 C   0  0  0  0  0  3  0  0  0  0  0  0
  184.9830  173.2060  137.2870 C   0  0  0  0  0  3  0  0  0  0  0  0
  186.4380  175.1430  137.3170 C   0  0  0  0  0  3  0  0  0  0  0  0
  185.8460  177.0770  135.9980 C   0  0  0  0  0  3  0  0  0  0  0  0
  184.7250  176.4380  135.5670 N   0  0  0  0  0  0  0  0  0  0  0  0
  193.9780  175.6920  138.0690 C   0  0  0  0  0  3  0  0  0  0  0  0
  192.6260  173.9180  137.1330 C   0  0  0  0  0  3  0  0  0  0  0  0
  193.8780  174.4230  137.4960 C   0  0  0  0  0  0  0  0  0  0  0  0
  192.8250  176.4540  138.2900 C   0  0  0  0  0  3  0  0  0  0  0  0
  191.5650  175.9420  137.9420 C   0  0  0  0  0  0  0  0  0  0  0  0
  195.0210  173.6640  137.2790 O   0  0  0  0  0  1  0  0  0  0  0  0
  191.4730  174.6760  137.3560 C   0  0  0  0  0  3  0  0  0  0  0  0
  188.7040  178.2820  140.9060 O   0  0  0  0  0  0  0  0  0  0  0  0
  188.6230  177.4030  141.9940 C   0  0  0  0  0  2  0  0  0  0  0  0
  187.7580  177.9720  143.1200 C   0  0  1  0  0  3  0  0  0  0  0  0
  186.2730  177.7850  142.8230 C   0  0  0  0  0  2  0  0  0  0  0  0
  185.6040  179.1170  142.4980 C   0  0  0  0  0  3  0  0  0  0  0  0
  183.6580  178.8790  144.1010 C   0  0  0  0  0  2  0  0  0  0  0  0
  183.3880  178.1810  141.7160 C   0  0  0  0  0  2  0  0  0  0  0  0
  182.6980  178.8170  142.9200 C   0  0  0  0  0  2  0  0  0  0  0  0
  184.6220  178.9920  141.3250 C   0  0  0  0  0  2  0  0  0  0  0  0
  184.9010  179.6900  143.7330 C   0  0  0  0  0  2  0  0  0  0  0  0
  188.1330  177.3940  144.4930 C   0  0  1  0  0  3  0  0  0  0  0  0
  189.3070  178.1070  145.1830 C   0  0  0  0  0  2  0  0  0  0  0  0
  190.4290  177.1780  145.5210 C   0  0  0  0  0  3  0  0  0  0  0  0
  190.7040  176.9250  146.7440 N   0  0  0  0  0  0  0  0  0  0  0  0
  191.7920  176.0440  147.0640 C   0  0  0  0  0  1  0  0  0  0  0  0
  186.9100  177.2240  145.3940 C   0  0  0  0  0  2  0  0  0  0  0  0
  185.9230  178.7910  147.0700 C   0  0  0  0  0  1  0  0  0  0  0  0
  187.1180  177.9190  146.7310 C   0  0  0  0  0  2  0  0  0  0  0  0
  1  6  1  0  0  0  0
  1  5  1  0  0  0  0
  2  3  1  0  0  0  0
  3 26  1  0  0  0  0
  5 23  1  1  0  0  0
  5  2  1  0  0  0  0
  6  9  1  1  0  0  0
  6  7  1  0  0  0  0
  7  4  2  0  0  0  0
  7  3  1  0  0  0  0
  8 11  1  0  0  0  0
  9 16  1  0  0  0  0
 10 13  1  0  0  0  0
 11 15  2  0  0  0  0
 12  8  1  0  0  0  0
 13 15  1  0  0  0  0
 13 16  2  0  0  0  0
 14  8  2  0  0  0  0
 14 10  1  0  0  0  0
 17  9  2  0  0  0  0
 18 10  2  0  0  0  0
 18 17  1  0  0  0  0
 19 22  1  0  0  0  0
 20 25  2  0  0  0  0
 20 21  1  0  0  0  0
 21 19  2  0  0  0  0
 23 22  2  0  0  0  0
 24 21  1  0  0  0  0
 25 23  1  0  0  0  0
 26 27  1  0  0  0  0
 28 27  1  6  0  0  0
 28 36  1  0  0  0  0
 29 28  1  0  0  0  0
 30 29  1  0  0  0  0
 30 35  1  0  0  0  0
 32 33  1  0  0  0  0
 33 31  1  0  0  0  0
 34 32  1  0  0  0  0
 34 30  1  0  0  0  0
 35 31  1  0  0  0  0
 36 37  1  1  0  0  0
 36 41  1  0  0  0  0
 37 38  1  0  0  0  0
 38 39  2  0  0  0  0
 39 40  1  0  0  0  0
 41 43  1  0  0  0  0
 43 42  1  0  0  0  0
M  END
>  <MODEL>
2

>  <REMARK>
 VINA RESULT:      -9.1      2.986      6.327
  Name = 
  12 active torsions:
  status: ('A' for Active; 'I' for Inactive)
    1  A    between atoms: O_2  and  C_6
    2  A    between atoms: O_2  and  N_13
    3  A    between atoms: C_3  and  C_4
    4  A    between atoms: C_4  and  C_22
    5  A    between atoms: C_6  and  C_41
    6  A    between atoms: C_8  and  C_34
    7  A    between atoms: C_11  and  C_14
    8  A    between atoms: C_14  and  C_41
    9  A    between atoms: C_15  and  C_22
   10  A    between atoms: C_15  and  C_42
   11  A    between atoms: C_22  and  C_41
   12  A    between atoms: C_28  and  C_35
                            x       y       z     vdW  Elec       q    Type
                         _______ _______ _______ _____ _____    ______ ____

>  <TORSDO>
F 12

$$$$
=
 OpenBabel10272414313D

 43 47  0  0  1  0  0  0  0  0999 V2000
  190.4710  177.3480  141.3420 C   0  0  0  0  0  2  0  0  0  0  0  0
  188.1470  177.7050  142.0850 C   0  0  0  0  0  2  0  0  0  0  0  0
  187.7680  178.2230  140.7770 N   0  0  0  0  0  0  0  0  0  0  0  0
  188.3440  178.5950  138.5480 O   0  0  0  0  0  0  0  0  0  0  0  0
  189.5950  178.0620  142.3650 C   0  0  1  0  0  3  0  0  0  0  0  0
  190.1450  177.7890  139.9020 C   0  0  2  0  0  3  0  0  0  0  0  0
  188.7030  178.1890  139.6840 C   0  0  0  0  0  0  0  0  0  0  0  0
  190.9830  173.0460  135.5470 C   0  0  0  0  0  0  0  0  0  0  0  0
  190.5760  176.7420  138.9230 C   0  0  0  0  0  0  0  0  0  0  0  0
  191.4480  174.8670  137.0700 C   0  0  0  0  0  0  0  0  0  0  0  0
  189.6270  173.0990  135.8910 C   0  0  0  0  0  3  0  0  0  0  0  0
  191.4150  172.1430  134.6400 F   0  0  0  0  0  0  0  0  0  0  0  0
  190.0800  174.9200  137.4140 C   0  0  0  0  0  0  0  0  0  0  0  0
  191.8940  173.9300  136.1350 C   0  0  0  0  0  3  0  0  0  0  0  0
  189.1750  174.0360  136.8250 C   0  0  0  0  0  3  0  0  0  0  0  0
  189.6500  175.8660  138.3400 C   0  0  0  0  0  3  0  0  0  0  0  0
  191.9220  176.6540  138.5550 C   0  0  0  0  0  3  0  0  0  0  0  0
  192.3280  175.7250  137.6480 N   0  0  0  0  0  0  0  0  0  0  0  0
  191.5510  176.8420  145.4010 C   0  0  0  0  0  3  0  0  0  0  0  0
  189.3600  177.5840  146.1100 C   0  0  0  0  0  3  0  0  0  0  0  0
  190.6180  177.0560  146.4170 C   0  0  0  0  0  0  0  0  0  0  0  0
  191.2320  177.1650  144.0770 C   0  0  0  0  0  3  0  0  0  0  0  0
  189.9760  177.7110  143.7690 C   0  0  0  0  0  0  0  0  0  0  0  0
  190.9350  176.7390  147.7320 O   0  0  0  0  0  1  0  0  0  0  0  0
  189.0420  177.9110  144.7890 C   0  0  0  0  0  3  0  0  0  0  0  0
  186.6070  178.9150  140.6630 O   0  0  0  0  0  0  0  0  0  0  0  0
  186.0970  179.0260  141.9630 C   0  0  0  0  0  2  0  0  0  0  0  0
  184.5700  179.1220  141.9690 C   0  0  1  0  0  3  0  0  0  0  0  0
  183.9390  177.8890  141.3280 C   0  0  0  0  0  2  0  0  0  0  0  0
  182.9070  178.2820  140.2750 C   0  0  0  0  0  3  0  0  0  0  0  0
  182.7360  176.0180  139.1560 C   0  0  0  0  0  2  0  0  0  0  0  0
  184.3030  177.7340  138.2380 C   0  0  0  0  0  2  0  0  0  0  0  0
  183.3410  176.6030  137.8870 C   0  0  0  0  0  2  0  0  0  0  0  0
  183.5680  178.8330  139.0050 C   0  0  0  0  0  2  0  0  0  0  0  0
  181.9930  177.1000  139.9400 C   0  0  0  0  0  2  0  0  0  0  0  0
  184.0060  179.3760  143.3750 C   0  0  1  0  0  3  0  0  0  0  0  0
  182.9630  178.3440  143.8350 C   0  0  0  0  0  2  0  0  0  0  0  0
  181.5580  178.7990  143.5990 C   0  0  0  0  0  3  0  0  0  0  0  0
  181.3350  179.9390  143.0630 N   0  0  0  0  0  0  0  0  0  0  0  0
  179.9840  180.3770  142.8520 C   0  0  0  0  0  1  0  0  0  0  0  0
  185.1130  179.6200  144.3980 C   0  0  0  0  0  2  0  0  0  0  0  0
  185.7750  178.9400  146.7100 C   0  0  0  0  0  1  0  0  0  0  0  0
  185.2090  178.4650  145.3830 C   0  0  0  0  0  2  0  0  0  0  0  0
  1  5  1  0  0  0  0
  2  5  1  0  0  0  0
  3  2  1  0  0  0  0
  4  7  2  0  0  0  0
  5 23  1  1  0  0  0
  6  9  1  6  0  0  0
  6  1  1  0  0  0  0
  7  6  1  0  0  0  0
  7  3  1  0  0  0  0
  8 11  2  0  0  0  0
  8 14  1  0  0  0  0
 10 13  1  0  0  0  0
 10 18  1  0  0  0  0
 11 15  1  0  0  0  0
 12  8  1  0  0  0  0
 13 16  1  0  0  0  0
 14 10  2  0  0  0  0
 15 13  2  0  0  0  0
 16  9  2  0  0  0  0
 17  9  1  0  0  0  0
 18 17  2  0  0  0  0
 19 21  1  0  0  0  0
 20 21  2  0  0  0  0
 21 24  1  0  0  0  0
 22 19  2  0  0  0  0
 23 22  1  0  0  0  0
 23 25  2  0  0  0  0
 25 20  1  0  0  0  0
 26  3  1  0  0  0  0
 26 27  1  0  0  0  0
 27 28  1  0  0  0  0
 28 29  1  1  0  0  0
 28 36  1  0  0  0  0
 30 29  1  0  0  0  0
 31 35  1  0  0  0  0
 32 34  1  0  0  0  0
 33 32  1  0  0  0  0
 33 31  1  0  0  0  0
 34 30  1  0  0  0  0
 35 30  1  0  0  0  0
 36 37  1  1  0  0  0
 36 41  1  0  0  0  0
 38 37  1  0  0  0  0
 39 38  2  0  0  0  0
 40 39  1  0  0  0  0
 41 43  1  0  0  0  0
 43 42  1  0  0  0  0
M  END
>  <MODEL>
3

>  <REMARK>
 VINA RESULT:      -9.1      1.218      2.398
  Name = 
  12 active torsions:
  status: ('A' for Active; 'I' for Inactive)
    1  A    between atoms: O_2  and  C_6
    2  A    between atoms: O_2  and  N_13
    3  A    between atoms: C_3  and  C_4
    4  A    between atoms: C_4  and  C_22
    5  A    between atoms: C_6  and  C_41
    6  A    between atoms: C_8  and  C_34
    7  A    between atoms: C_11  and  C_14
    8  A    between atoms: C_14  and  C_41
    9  A    between atoms: C_15  and  C_22
   10  A    between atoms: C_15  and  C_42
   11  A    between atoms: C_22  and  C_41
   12  A    between atoms: C_28  and  C_35
                            x       y       z     vdW  Elec       q    Type
                         _______ _______ _______ _____ _____    ______ ____

>  <TORSDO>
F 12

$$$$
=
 OpenBabel10272414313D

 43 47  0  0  1  0  0  0  0  0999 V2000
  189.3450  177.0730  137.8270 C   0  0  0  0  0  2  0  0  0  0  0  0
  190.0740  176.4150  140.0900 C   0  0  0  0  0  2  0  0  0  0  0  0
  189.1860  177.3940  140.7020 N   0  0  0  0  0  0  0  0  0  0  0  0
  187.4660  178.9470  140.4430 O   0  0  0  0  0  0  0  0  0  0  0  0
  190.5520  176.9420  138.7490 C   0  0  1  0  0  3  0  0  0  0  0  0
  188.3060  178.0670  138.3830 C   0  0  2  0  0  3  0  0  0  0  0  0
  188.2610  178.1420  139.8940 C   0  0  0  0  0  0  0  0  0  0  0  0
  182.0710  177.4560  136.6790 C   0  0  0  0  0  0  0  0  0  0  0  0
  186.9520  177.7870  137.8090 C   0  0  0  0  0  0  0  0  0  0  0  0
  184.4830  177.2780  136.6460 C   0  0  0  0  0  0  0  0  0  0  0  0
  182.1330  178.1460  137.8950 C   0  0  0  0  0  3  0  0  0  0  0  0
  180.8740  177.2110  136.1000 F   0  0  0  0  0  0  0  0  0  0  0  0
  184.5440  177.9760  137.8720 C   0  0  0  0  0  0  0  0  0  0  0  0
  183.2450  177.0220  136.0530 C   0  0  0  0  0  3  0  0  0  0  0  0
  183.3700  178.4060  138.4920 C   0  0  0  0  0  3  0  0  0  0  0  0
  185.7860  178.2310  138.4460 C   0  0  0  0  0  3  0  0  0  0  0  0
  186.8470  177.0970  136.5970 C   0  0  0  0  0  3  0  0  0  0  0  0
  185.6270  176.8550  136.0470 N   0  0  0  0  0  0  0  0  0  0  0  0
  192.2940  174.0500  136.9790 C   0  0  0  0  0  3  0  0  0  0  0  0
  193.9590  175.6100  137.7830 C   0  0  0  0  0  3  0  0  0  0  0  0
  193.6310  174.4280  137.1120 C   0  0  0  0  0  0  0  0  0  0  0  0
  191.2810  174.8590  137.5060 C   0  0  0  0  0  3  0  0  0  0  0  0
  191.6060  176.0550  138.1650 C   0  0  0  0  0  0  0  0  0  0  0  0
  194.6380  173.6280  136.5860 O   0  0  0  0  0  1  0  0  0  0  0  0
  192.9480  176.4210  138.3070 C   0  0  0  0  0  3  0  0  0  0  0  0
  189.3880  177.7310  142.0010 O   0  0  0  0  0  0  0  0  0  0  0  0
  188.4820  176.9620  142.7430 C   0  0  0  0  0  2  0  0  0  0  0  0
  187.9110  177.7430  143.9280 C   0  0  1  0  0  3  0  0  0  0  0  0
  186.3870  177.6900  143.9390 C   0  0  0  0  0  2  0  0  0  0  0  0
  185.7850  179.0780  143.7420 C   0  0  0  0  0  3  0  0  0  0  0  0
  183.7320  178.7290  145.1820 C   0  0  0  0  0  2  0  0  0  0  0  0
  183.5940  178.3370  142.7170 C   0  0  0  0  0  2  0  0  0  0  0  0
  182.8500  178.8500  143.9470 C   0  0  0  0  0  2  0  0  0  0  0  0
  184.8790  179.1390  142.5060 C   0  0  0  0  0  2  0  0  0  0  0  0
  185.0230  179.5250  144.9940 C   0  0  0  0  0  2  0  0  0  0  0  0
  188.4990  177.2800  145.2700 C   0  0  1  0  0  3  0  0  0  0  0  0
  189.8230  177.9600  145.6520 C   0  0  0  0  0  2  0  0  0  0  0  0
  190.9200  176.9800  145.9180 C   0  0  0  0  0  3  0  0  0  0  0  0
  191.1920  176.6330  147.1190 N   0  0  0  0  0  0  0  0  0  0  0  0
  192.2570  175.7030  147.3700 C   0  0  0  0  0  1  0  0  0  0  0  0
  187.4570  177.3040  146.3880 C   0  0  0  0  0  2  0  0  0  0  0  0
  188.0240  177.7190  148.7860 C   0  0  0  0  0  1  0  0  0  0  0  0
  187.8000  178.3600  147.4280 C   0  0  0  0  0  2  0  0  0  0  0  0
  1  6  1  0  0  0  0
  1  5  1  0  0  0  0
  2  3  1  0  0  0  0
  3 26  1  0  0  0  0
  5 23  1  6  0  0  0
  5  2  1  0  0  0  0
  6  9  1  1  0  0  0
  6  7  1  0  0  0  0
  7  4  2  0  0  0  0
  7  3  1  0  0  0  0
  8 11  1  0  0  0  0
  9 16  1  0  0  0  0
 10 13  1  0  0  0  0
 11 15  2  0  0  0  0
 12  8  1  0  0  0  0
 13 16  2  0  0  0  0
 13 15  1  0  0  0  0
 14 10  1  0  0  0  0
 14  8  2  0  0  0  0
 17  9  2  0  0  0  0
 18 17  1  0  0  0  0
 18 10  2  0  0  0  0
 19 21  2  0  0  0  0
 19 22  1  0  0  0  0
 20 25  2  0  0  0  0
 21 20  1  0  0  0  0
 22 23  2  0  0  0  0
 23 25  1  0  0  0  0
 24 21  1  0  0  0  0
 26 27  1  0  0  0  0
 28 27  1  6  0  0  0
 28 29  1  0  0  0  0
 28 36  1  0  0  0  0
 30 29  1  0  0  0  0
 30 35  1  0  0  0  0
 32 33  1  0  0  0  0
 33 31  1  0  0  0  0
 34 32  1  0  0  0  0
 34 30  1  0  0  0  0
 35 31  1  0  0  0  0
 36 37  1  1  0  0  0
 36 41  1  0  0  0  0
 37 38  1  0  0  0  0
 38 39  2  0  0  0  0
 39 40  1  0  0  0  0
 41 43  1  0  0  0  0
 43 42  1  0  0  0  0
M  END
>  <MODEL>
4

>  <REMARK>
 VINA RESULT:      -9.0      2.963      7.021
  Name = 
  12 active torsions:
  status: ('A' for Active; 'I' for Inactive)
    1  A    between atoms: O_2  and  C_6
    2  A    between atoms: O_2  and  N_13
    3  A    between atoms: C_3  and  C_4
    4  A    between atoms: C_4  and  C_22
    5  A    between atoms: C_6  and  C_41
    6  A    between atoms: C_8  and  C_34
    7  A    between atoms: C_11  and  C_14
    8  A    between atoms: C_14  and  C_41
    9  A    between atoms: C_15  and  C_22
   10  A    between atoms: C_15  and  C_42
   11  A    between atoms: C_22  and  C_41
   12  A    between atoms: C_28  and  C_35
                            x       y       z     vdW  Elec       q    Type
                         _______ _______ _______ _____ _____    ______ ____

>  <TORSDO>
F 12

$$$$
=
 OpenBabel10272414313D

 43 47  0  0  1  0  0  0  0  0999 V2000
  188.5030  176.6800  136.9430 C   0  0  0  0  0  2  0  0  0  0  0  0
  189.0510  177.3200  139.2610 C   0  0  0  0  0  2  0  0  0  0  0  0
  187.7820  178.0220  139.4080 N   0  0  0  0  0  0  0  0  0  0  0  0
  185.6810  178.5240  138.5310 O   0  0  0  0  0  0  0  0  0  0  0  0
  189.5120  177.4150  137.8180 C   0  0  1  0  0  3  0  0  0  0  0  0
  187.1010  177.3120  137.0340 C   0  0  2  0  0  3  0  0  0  0  0  0
  186.7900  177.9540  138.3690 C   0  0  0  0  0  0  0  0  0  0  0  0
  182.9470  172.4010  136.1450 C   0  0  0  0  0  0  0  0  0  0  0  0
  186.0510  176.3160  136.6500 C   0  0  0  0  0  0  0  0  0  0  0  0
  184.0370  174.5490  135.9220 C   0  0  0  0  0  0  0  0  0  0  0  0
  183.8920  172.0150  137.1030 C   0  0  0  0  0  3  0  0  0  0  0  0
  181.9580  171.5510  135.7910 F   0  0  0  0  0  0  0  0  0  0  0  0
  184.9880  174.1590  136.8900 C   0  0  0  0  0  0  0  0  0  0  0  0
  183.0180  173.6670  135.5550 C   0  0  0  0  0  3  0  0  0  0  0  0
  184.9130  172.8940  137.4760 C   0  0  0  0  0  3  0  0  0  0  0  0
  185.9920  175.0520  137.2530 C   0  0  0  0  0  3  0  0  0  0  0  0
  185.0900  176.6600  135.6940 C   0  0  0  0  0  3  0  0  0  0  0  0
  184.1150  175.7780  135.3500 N   0  0  0  0  0  0  0  0  0  0  0  0
  192.6060  175.7370  136.3550 C   0  0  0  0  0  3  0  0  0  0  0  0
  193.0810  176.4480  138.6170 C   0  0  0  0  0  3  0  0  0  0  0  0
  193.4940  175.8430  137.4260 C   0  0  0  0  0  0  0  0  0  0  0  0
  191.3060  176.2440  136.4680 C   0  0  0  0  0  3  0  0  0  0  0  0
  190.8950  176.8670  137.6570 C   0  0  0  0  0  0  0  0  0  0  0  0
  194.7850  175.3430  137.3140 O   0  0  0  0  0  1  0  0  0  0  0  0
  191.7850  176.9590  138.7300 C   0  0  0  0  0  3  0  0  0  0  0  0
  187.6380  178.8950  140.4360 O   0  0  0  0  0  0  0  0  0  0  0  0
  188.4990  178.4460  141.4460 C   0  0  0  0  0  2  0  0  0  0  0  0
  187.8080  177.4510  142.3800 C   0  0  1  0  0  3  0  0  0  0  0  0
  188.8120  176.7880  143.3180 C   0  0  0  0  0  2  0  0  0  0  0  0
  190.0450  177.6660  143.5160 C   0  0  0  0  0  3  0  0  0  0  0  0
  191.6270  175.8180  144.2160 C   0  0  0  0  0  2  0  0  0  0  0  0
  190.4240  177.1430  145.9610 C   0  0  0  0  0  2  0  0  0  0  0  0
  191.7290  176.4360  145.6040 C   0  0  0  0  0  2  0  0  0  0  0  0
  190.1190  178.2360  144.9380 C   0  0  0  0  0  2  0  0  0  0  0  0
  191.3240  176.8950  143.1740 C   0  0  0  0  0  2  0  0  0  0  0  0
  186.6490  178.0910  143.1600 C   0  0  1  0  0  3  0  0  0  0  0  0
  185.3780  178.3250  142.3290 C   0  0  0  0  0  2  0  0  0  0  0  0
  184.2200  178.7800  143.1590 C   0  0  0  0  0  3  0  0  0  0  0  0
  183.0250  178.6240  142.7330 N   0  0  0  0  0  0  0  0  0  0  0  0
  181.9170  179.0760  143.5270 C   0  0  0  0  0  1  0  0  0  0  0  0
  186.3870  177.3740  144.4840 C   0  0  0  0  0  2  0  0  0  0  0  0
  185.3300  178.3640  146.5200 C   0  0  0  0  0  1  0  0  0  0  0  0
  186.5820  178.3170  145.6610 C   0  0  0  0  0  2  0  0  0  0  0  0
  1  6  1  0  0  0  0
  1  5  1  0  0  0  0
  2  3  1  0  0  0  0
  3 26  1  0  0  0  0
  5 23  1  1  0  0  0
  5  2  1  0  0  0  0
  6  9  1  1  0  0  0
  6  7  1  0  0  0  0
  7  4  2  0  0  0  0
  7  3  1  0  0  0  0
  8 11  1  0  0  0  0
  9 16  1  0  0  0  0
 10 13  1  0  0  0  0
 11 15  2  0  0  0  0
 12  8  1  0  0  0  0
 13 16  2  0  0  0  0
 13 15  1  0  0  0  0
 14 10  1  0  0  0  0
 14  8  2  0  0  0  0
 17  9  2  0  0  0  0
 18 17  1  0  0  0  0
 18 10  2  0  0  0  0
 19 22  2  0  0  0  0
 19 21  1  0  0  0  0
 20 25  1  0  0  0  0
 21 20  2  0  0  0  0
 22 23  1  0  0  0  0
 23 25  2  0  0  0  0
 24 21  1  0  0  0  0
 26 27  1  0  0  0  0
 28 27  1  1  0  0  0
 28 36  1  0  0  0  0
 28 29  1  0  0  0  0
 29 30  1  0  0  0  0
 30 34  1  0  0  0  0
 31 33  1  0  0  0  0
 33 32  1  0  0  0  0
 34 32  1  0  0  0  0
 35 30  1  0  0  0  0
 35 31  1  0  0  0  0
 36 37  1  6  0  0  0
 36 41  1  0  0  0  0
 37 38  1  0  0  0  0
 39 38  2  0  0  0  0
 39 40  1  0  0  0  0
 41 43  1  0  0  0  0
 43 42  1  0  0  0  0
M  END
>  <MODEL>
5

>  <REMARK>
 VINA RESULT:      -8.9      2.977      6.967
  Name = 
  12 active torsions:
  status: ('A' for Active; 'I' for Inactive)
    1  A    between atoms: O_2  and  C_6
    2  A    between atoms: O_2  and  N_13
    3  A    between atoms: C_3  and  C_4
    4  A    between atoms: C_4  and  C_22
    5  A    between atoms: C_6  and  C_41
    6  A    between atoms: C_8  and  C_34
    7  A    between atoms: C_11  and  C_14
    8  A    between atoms: C_14  and  C_41
    9  A    between atoms: C_15  and  C_22
   10  A    between atoms: C_15  and  C_42
   11  A    between atoms: C_22  and  C_41
   12  A    between atoms: C_28  and  C_35
                            x       y       z     vdW  Elec       q    Type
                         _______ _______ _______ _____ _____    ______ ____

>  <TORSDO>
F 12

$$$$
=
 OpenBabel10272414313D

 43 47  0  0  1  0  0  0  0  0999 V2000
  182.4890  176.9570  139.7100 C   0  0  0  0  0  2  0  0  0  0  0  0
  184.1840  176.5370  137.9690 C   0  0  0  0  0  2  0  0  0  0  0  0
  184.7690  177.8570  138.1660 N   0  0  0  0  0  0  0  0  0  0  0  0
  184.8560  179.8200  139.4220 O   0  0  0  0  0  0  0  0  0  0  0  0
  182.6920  176.6050  138.2410 C   0  0  1  0  0  3  0  0  0  0  0  0
  183.0960  178.3300  140.0590 C   0  0  2  0  0  3  0  0  0  0  0  0
  184.3080  178.7040  139.2340 C   0  0  0  0  0  0  0  0  0  0  0  0
  185.3500  178.5380  146.1440 C   0  0  0  0  0  0  0  0  0  0  0  0
  183.3840  178.4190  141.5250 C   0  0  0  0  0  0  0  0  0  0  0  0
  183.8490  178.6640  144.2510 C   0  0  0  0  0  0  0  0  0  0  0  0
  186.3950  178.1540  145.2960 C   0  0  0  0  0  3  0  0  0  0  0  0
  185.5690  178.6690  147.4720 F   0  0  0  0  0  0  0  0  0  0  0  0
  184.9060  178.2780  143.3970 C   0  0  0  0  0  0  0  0  0  0  0  0
  184.0770  178.7940  145.6230 C   0  0  0  0  0  3  0  0  0  0  0  0
  186.1740  178.0240  143.9220 C   0  0  0  0  0  3  0  0  0  0  0  0
  184.6660  178.1620  142.0310 C   0  0  0  0  0  3  0  0  0  0  0  0
  182.3660  178.7960  142.4060 C   0  0  0  0  0  3  0  0  0  0  0  0
  182.6150  178.9060  143.7390 N   0  0  0  0  0  0  0  0  0  0  0  0
  181.8550  173.2980  136.5390 C   0  0  0  0  0  3  0  0  0  0  0  0
  180.1910  173.7670  138.2310 C   0  0  0  0  0  3  0  0  0  0  0  0
  180.6970  172.9340  137.2280 C   0  0  0  0  0  0  0  0  0  0  0  0
  182.5150  174.4900  136.8580 C   0  0  0  0  0  3  0  0  0  0  0  0
  182.0180  175.3200  137.8760 C   0  0  0  0  0  0  0  0  0  0  0  0
  180.0420  171.7500  136.9150 O   0  0  0  0  0  1  0  0  0  0  0  0
  180.8510  174.9560  138.5530 C   0  0  0  0  0  3  0  0  0  0  0  0
  185.6000  178.3490  137.2130 O   0  0  0  0  0  0  0  0  0  0  0  0
  186.1910  177.2330  136.6060 C   0  0  0  0  0  2  0  0  0  0  0  0
  187.6770  177.1180  136.9540 C   0  0  1  0  0  3  0  0  0  0  0  0
  187.8780  176.9380  138.4550 C   0  0  0  0  0  2  0  0  0  0  0  0
  188.5520  178.1610  139.0720 C   0  0  0  0  0  3  0  0  0  0  0  0
  190.5960  176.9630  139.9670 C   0  0  0  0  0  2  0  0  0  0  0  0
  188.6210  177.3210  141.4570 C   0  0  0  0  0  2  0  0  0  0  0  0
  190.1450  177.2660  141.3900 C   0  0  0  0  0  2  0  0  0  0  0  0
  188.0910  178.4010  140.5150 C   0  0  0  0  0  2  0  0  0  0  0  0
  190.0780  178.0340  139.0060 C   0  0  0  0  0  2  0  0  0  0  0  0
  188.3790  176.0090  136.1560 C   0  0  1  0  0  3  0  0  0  0  0  0
  187.4390  175.1640  135.2820 C   0  0  0  0  0  2  0  0  0  0  0  0
  187.2850  173.7640  135.7870 C   0  0  0  0  0  3  0  0  0  0  0  0
  188.0620  172.8410  135.3630 N   0  0  0  0  0  0  0  0  0  0  0  0
  187.9000  171.4960  135.8400 C   0  0  0  0  0  1  0  0  0  0  0  0
  189.6020  176.5340  135.4040 C   0  0  0  0  0  2  0  0  0  0  0  0
  190.7090  174.9000  136.9360 C   0  0  0  0  0  1  0  0  0  0  0  0
  190.8860  176.1810  136.1400 C   0  0  0  0  0  2  0  0  0  0  0  0
  1  6  1  0  0  0  0
  2  3  1  0  0  0  0
  2  5  1  0  0  0  0
  3  7  1  0  0  0  0
  5 23  1  1  0  0  0
  5  1  1  0  0  0  0
  6  9  1  1  0  0  0
  7  4  2  0  0  0  0
  7  6  1  0  0  0  0
  8 12  1  0  0  0  0
  9 16  2  0  0  0  0
  9 17  1  0  0  0  0
 10 14  2  0  0  0  0
 11  8  2  0  0  0  0
 13 15  2  0  0  0  0
 13 10  1  0  0  0  0
 14  8  1  0  0  0  0
 15 11  1  0  0  0  0
 16 13  1  0  0  0  0
 17 18  2  0  0  0  0
 18 10  1  0  0  0  0
 19 22  2  0  0  0  0
 19 21  1  0  0  0  0
 20 25  1  0  0  0  0
 21 20  2  0  0  0  0
 22 23  1  0  0  0  0
 23 25  2  0  0  0  0
 24 21  1  0  0  0  0
 26  3  1  0  0  0  0
 27 26  1  0  0  0  0
 28 27  1  1  0  0  0
 28 29  1  0  0  0  0
 29 30  1  0  0  0  0
 30 34  1  0  0  0  0
 31 33  1  0  0  0  0
 33 32  1  0  0  0  0
 34 32  1  0  0  0  0
 35 30  1  0  0  0  0
 35 31  1  0  0  0  0
 36 37  1  6  0  0  0
 36 28  1  0  0  0  0
 37 38  1  0  0  0  0
 39 38  2  0  0  0  0
 39 40  1  0  0  0  0
 41 43  1  0  0  0  0
 41 36  1  0  0  0  0
 43 42  1  0  0  0  0
M  END
>  <MODEL>
6

>  <REMARK>
 VINA RESULT:      -8.4      3.673      9.916
  Name = 
  12 active torsions:
  status: ('A' for Active; 'I' for Inactive)
    1  A    between atoms: O_2  and  C_6
    2  A    between atoms: O_2  and  N_13
    3  A    between atoms: C_3  and  C_4
    4  A    between atoms: C_4  and  C_22
    5  A    between atoms: C_6  and  C_41
    6  A    between atoms: C_8  and  C_34
    7  A    between atoms: C_11  and  C_14
    8  A    between atoms: C_14  and  C_41
    9  A    between atoms: C_15  and  C_22
   10  A    between atoms: C_15  and  C_42
   11  A    between atoms: C_22  and  C_41
   12  A    between atoms: C_28  and  C_35
                            x       y       z     vdW  Elec       q    Type
                         _______ _______ _______ _____ _____    ______ ____

>  <TORSDO>
F 12

$$$$
=
 OpenBabel10272414313D

 43 47  0  0  1  0  0  0  0  0999 V2000
  190.2540  176.2940  140.2160 C   0  0  0  0  0  2  0  0  0  0  0  0
  190.4480  178.0290  138.4730 C   0  0  0  0  0  2  0  0  0  0  0  0
  189.2080  178.6590  138.9080 N   0  0  0  0  0  0  0  0  0  0  0  0
  187.4930  178.7830  140.4820 O   0  0  0  0  0  0  0  0  0  0  0  0
  190.3610  176.5320  138.7130 C   0  0  1  0  0  3  0  0  0  0  0  0
  188.9890  176.9440  140.8090 C   0  0  2  0  0  3  0  0  0  0  0  0
  188.5350  178.1970  140.0920 C   0  0  0  0  0  0  0  0  0  0  0  0
  188.7110  177.7690  147.2430 C   0  0  0  0  0  0  0  0  0  0  0  0
  189.1620  177.1870  142.2760 C   0  0  0  0  0  0  0  0  0  0  0  0
  189.5770  177.5880  144.9920 C   0  0  0  0  0  0  0  0  0  0  0  0
  187.4130  177.5540  146.7670 C   0  0  0  0  0  3  0  0  0  0  0  0
  188.9240  177.9570  148.5650 F   0  0  0  0  0  0  0  0  0  0  0  0
  188.2670  177.3690  144.5130 C   0  0  0  0  0  0  0  0  0  0  0  0
  189.7940  177.7860  146.3570 C   0  0  0  0  0  3  0  0  0  0  0  0
  187.1900  177.3540  145.4010 C   0  0  0  0  0  3  0  0  0  0  0  0
  188.0670  177.1640  143.1510 C   0  0  0  0  0  3  0  0  0  0  0  0
  190.4420  177.4090  142.7920 C   0  0  0  0  0  3  0  0  0  0  0  0
  190.6230  177.6070  144.1250 N   0  0  0  0  0  0  0  0  0  0  0  0
  193.8780  175.7230  137.4860 C   0  0  0  0  0  3  0  0  0  0  0  0
  192.4190  173.8520  137.0130 C   0  0  0  0  0  3  0  0  0  0  0  0
  193.6860  174.4400  136.9690 C   0  0  0  0  0  0  0  0  0  0  0  0
  192.8040  176.4160  138.0560 C   0  0  0  0  0  3  0  0  0  0  0  0
  191.5340  175.8200  138.1180 C   0  0  0  0  0  0  0  0  0  0  0  0
  194.7510  173.7490  136.4050 O   0  0  0  0  0  1  0  0  0  0  0  0
  191.3470  174.5410  137.5870 C   0  0  0  0  0  3  0  0  0  0  0  0
  188.6010  179.5400  138.0740 O   0  0  0  0  0  0  0  0  0  0  0  0
  188.2270  178.8040  136.9420 C   0  0  0  0  0  2  0  0  0  0  0  0
  187.1510  177.7660  137.2690 C   0  0  1  0  0  3  0  0  0  0  0  0
  185.7700  178.4100  137.3460 C   0  0  0  0  0  2  0  0  0  0  0  0
  184.8670  177.6640  138.3240 C   0  0  0  0  0  3  0  0  0  0  0  0
  182.7140  177.9360  137.0210 C   0  0  0  0  0  2  0  0  0  0  0  0
  183.2840  179.5740  138.8210 C   0  0  0  0  0  2  0  0  0  0  0  0
  182.1550  178.8110  138.1340 C   0  0  0  0  0  2  0  0  0  0  0  0
  184.3030  178.5950  139.4050 C   0  0  0  0  0  2  0  0  0  0  0  0
  183.7350  176.9470  137.5820 C   0  0  0  0  0  2  0  0  0  0  0  0
  187.1650  176.5820  136.2900 C   0  0  1  0  0  3  0  0  0  0  0  0
  187.7250  176.9170  134.8990 C   0  0  0  0  0  2  0  0  0  0  0  0
  189.0160  176.2170  134.6120 C   0  0  0  0  0  3  0  0  0  0  0  0
  190.1170  176.8660  134.6420 N   0  0  0  0  0  0  0  0  0  0  0  0
  191.3510  176.1920  134.3510 C   0  0  0  0  0  1  0  0  0  0  0  0
  187.7880  175.3340  136.9140 C   0  0  0  0  0  2  0  0  0  0  0  0
  187.4490  172.8590  136.9070 C   0  0  0  0  0  1  0  0  0  0  0  0
  186.7670  174.2110  137.0180 C   0  0  0  0  0  2  0  0  0  0  0  0
  1  6  1  0  0  0  0
  2  5  1  0  0  0  0
  2  3  1  0  0  0  0
  3  7  1  0  0  0  0
  5 23  1  1  0  0  0
  5  1  1  0  0  0  0
  6  9  1  1  0  0  0
  7  4  2  0  0  0  0
  7  6  1  0  0  0  0
  8 12  1  0  0  0  0
  9 17  2  0  0  0  0
  9 16  1  0  0  0  0
 10 14  1  0  0  0  0
 11  8  1  0  0  0  0
 13 10  1  0  0  0  0
 13 15  1  0  0  0  0
 14  8  2  0  0  0  0
 15 11  2  0  0  0  0
 16 13  2  0  0  0  0
 17 18  1  0  0  0  0
 18 10  2  0  0  0  0
 19 22  1  0  0  0  0
 20 25  2  0  0  0  0
 21 20  1  0  0  0  0
 21 19  2  0  0  0  0
 22 23  2  0  0  0  0
 24 21  1  0  0  0  0
 25 23  1  0  0  0  0
 26  3  1  0  0  0  0
 27 26  1  0  0  0  0
 28 27  1  6  0  0  0
 28 29  1  0  0  0  0
 29 30  1  0  0  0  0
 30 34  1  0  0  0  0
 31 35  1  0  0  0  0
 31 33  1  0  0  0  0
 32 34  1  0  0  0  0
 33 32  1  0  0  0  0
 35 30  1  0  0  0  0
 36 37  1  6  0  0  0
 36 41  1  0  0  0  0
 36 28  1  0  0  0  0
 38 39  2  0  0  0  0
 38 37  1  0  0  0  0
 40 39  1  0  0  0  0
 41 43  1  0  0  0  0
 42 43  1  0  0  0  0
M  END
>  <MODEL>
7

>  <REMARK>
 VINA RESULT:      -8.2      3.506      7.952
  Name = 
  12 active torsions:
  status: ('A' for Active; 'I' for Inactive)
    1  A    between atoms: O_2  and  C_6
    2  A    between atoms: O_2  and  N_13
    3  A    between atoms: C_3  and  C_4
    4  A    between atoms: C_4  and  C_22
    5  A    between atoms: C_6  and  C_41
    6  A    between atoms: C_8  and  C_34
    7  A    between atoms: C_11  and  C_14
    8  A    between atoms: C_14  and  C_41
    9  A    between atoms: C_15  and  C_22
   10  A    between atoms: C_15  and  C_42
   11  A    between atoms: C_22  and  C_41
   12  A    between atoms: C_28  and  C_35
                            x       y       z     vdW  Elec       q    Type
                         _______ _______ _______ _____ _____    ______ ____

>  <TORSDO>
F 12

$$$$
=
 OpenBabel10272414313D

 43 47  0  0  1  0  0  0  0  0999 V2000
  189.6200  176.7640  141.6000 C   0  0  0  0  0  2  0  0  0  0  0  0
  188.7990  178.4310  139.9780 C   0  0  0  0  0  2  0  0  0  0  0  0
  187.5190  178.5280  140.6690 N   0  0  0  0  0  0  0  0  0  0  0  0
  186.2200  177.9770  142.5250 O   0  0  0  0  0  0  0  0  0  0  0  0
  189.3400  177.0200  140.1230 C   0  0  1  0  0  3  0  0  0  0  0  0
  188.3400  176.8690  142.4510 C   0  0  2  0  0  3  0  0  0  0  0  0
  187.3130  177.8430  141.9160 C   0  0  0  0  0  0  0  0  0  0  0  0
  188.7790  178.1920  148.7930 C   0  0  0  0  0  0  0  0  0  0  0  0
  188.6820  177.1640  143.8780 C   0  0  0  0  0  0  0  0  0  0  0  0
  189.3940  177.6410  146.5190 C   0  0  0  0  0  0  0  0  0  0  0  0
  187.4340  178.2750  148.4140 C   0  0  0  0  0  3  0  0  0  0  0  0
  189.1340  178.4140  150.0780 F   0  0  0  0  0  0  0  0  0  0  0  0
  188.0370  177.7230  146.1390 C   0  0  0  0  0  0  0  0  0  0  0  0
  189.7600  177.8750  147.8470 C   0  0  0  0  0  3  0  0  0  0  0  0
  187.0620  178.0400  147.0870 C   0  0  0  0  0  3  0  0  0  0  0  0
  187.6870  177.4780  144.8150 C   0  0  0  0  0  3  0  0  0  0  0  0
  190.0140  177.0960  144.2970 C   0  0  0  0  0  3  0  0  0  0  0  0
  190.3420  177.3370  145.5940 N   0  0  0  0  0  0  0  0  0  0  0  0
  191.6410  176.1550  137.2090 C   0  0  0  0  0  3  0  0  0  0  0  0
  192.9740  176.9200  139.0770 C   0  0  0  0  0  3  0  0  0  0  0  0
  192.8880  176.4520  137.7630 C   0  0  0  0  0  0  0  0  0  0  0  0
  190.4770  176.3350  137.9660 C   0  0  0  0  0  3  0  0  0  0  0  0
  190.5600  176.8210  139.2810 C   0  0  0  0  0  0  0  0  0  0  0  0
  194.0430  176.2770  137.0120 O   0  0  0  0  0  1  0  0  0  0  0  0
  191.8130  177.1040  139.8330 C   0  0  0  0  0  3  0  0  0  0  0  0
  186.4730  179.1000  140.0210 O   0  0  0  0  0  0  0  0  0  0  0  0
  185.6850  178.0400  139.5530 C   0  0  0  0  0  2  0  0  0  0  0  0
  184.9100  178.4220  138.2910 C   0  0  1  0  0  3  0  0  0  0  0  0
  185.3760  177.6020  137.0910 C   0  0  0  0  0  2  0  0  0  0  0  0
  186.8280  177.1620  137.2540 C   0  0  0  0  0  3  0  0  0  0  0  0
  187.5630  177.6480  134.8800 C   0  0  0  0  0  2  0  0  0  0  0  0
  186.8130  175.3440  135.4950 C   0  0  0  0  0  2  0  0  0  0  0  0
  187.7870  176.1600  134.6490 C   0  0  0  0  0  2  0  0  0  0  0  0
  187.0060  175.6640  136.9770 C   0  0  0  0  0  2  0  0  0  0  0  0
  187.7530  177.9920  136.3570 C   0  0  0  0  0  2  0  0  0  0  0  0
  183.3900  178.3190  138.4840 C   0  0  1  0  0  3  0  0  0  0  0  0
  182.7040  179.6500  138.8310 C   0  0  0  0  0  2  0  0  0  0  0  0
  181.7150  179.5160  139.9460 C   0  0  0  0  0  3  0  0  0  0  0  0
  182.0430  178.9130  141.0250 N   0  0  0  0  0  0  0  0  0  0  0  0
  181.0860  178.7740  142.0850 C   0  0  0  0  0  1  0  0  0  0  0  0
  182.7180  177.5690  137.3350 C   0  0  0  0  0  2  0  0  0  0  0  0
  182.5890  175.8810  139.1730 C   0  0  0  0  0  1  0  0  0  0  0  0
  182.0080  176.3220  137.8410 C   0  0  0  0  0  2  0  0  0  0  0  0
  1  6  1  0  0  0  0
  2  5  1  0  0  0  0
  2  3  1  0  0  0  0
  3  7  1  0  0  0  0
  5 23  1  6  0  0  0
  5  1  1  0  0  0  0
  6  9  1  1  0  0  0
  7  6  1  0  0  0  0
  7  4  2  0  0  0  0
  8 12  1  0  0  0  0
  9 17  2  0  0  0  0
  9 16  1  0  0  0  0
 10 14  1  0  0  0  0
 11  8  1  0  0  0  0
 13 10  1  0  0  0  0
 13 15  1  0  0  0  0
 14  8  2  0  0  0  0
 15 11  2  0  0  0  0
 16 13  2  0  0  0  0
 17 18  1  0  0  0  0
 18 10  2  0  0  0  0
 19 21  2  0  0  0  0
 19 22  1  0  0  0  0
 20 25  2  0  0  0  0
 21 20  1  0  0  0  0
 22 23  2  0  0  0  0
 23 25  1  0  0  0  0
 24 21  1  0  0  0  0
 26  3  1  0  0  0  0
 27 26  1  0  0  0  0
 28 29  1  6  0  0  0
 28 36  1  0  0  0  0
 28 27  1  0  0  0  0
 29 30  1  0  0  0  0
 31 35  1  0  0  0  0
 32 34  1  0  0  0  0
 33 31  1  0  0  0  0
 33 32  1  0  0  0  0
 34 30  1  0  0  0  0
 35 30  1  0  0  0  0
 36 41  1  6  0  0  0
 36 37  1  0  0  0  0
 37 38  1  0  0  0  0
 38 39  2  0  0  0  0
 39 40  1  0  0  0  0
 41 43  1  0  0  0  0
 43 42  1  0  0  0  0
M  END
>  <MODEL>
8

>  <REMARK>
 VINA RESULT:      -8.1      3.437      7.234
  Name = 
  12 active torsions:
  status: ('A' for Active; 'I' for Inactive)
    1  A    between atoms: O_2  and  C_6
    2  A    between atoms: O_2  and  N_13
    3  A    between atoms: C_3  and  C_4
    4  A    between atoms: C_4  and  C_22
    5  A    between atoms: C_6  and  C_41
    6  A    between atoms: C_8  and  C_34
    7  A    between atoms: C_11  and  C_14
    8  A    between atoms: C_14  and  C_41
    9  A    between atoms: C_15  and  C_22
   10  A    between atoms: C_15  and  C_42
   11  A    between atoms: C_22  and  C_41
   12  A    between atoms: C_28  and  C_35
                            x       y       z     vdW  Elec       q    Type
                         _______ _______ _______ _____ _____    ______ ____

>  <TORSDO>
F 12

$$$$
=
 OpenBabel10272414313D

 43 47  0  0  1  0  0  0  0  0999 V2000
  190.2780  176.3240  140.5730 C   0  0  0  0  0  2  0  0  0  0  0  0
  190.1970  178.0020  138.7670 C   0  0  0  0  0  2  0  0  0  0  0  0
  188.9280  178.5240  139.2570 N   0  0  0  0  0  0  0  0  0  0  0  0
  187.3030  178.5390  140.9290 O   0  0  0  0  0  0  0  0  0  0  0  0
  190.2740  176.5150  139.0600 C   0  0  1  0  0  3  0  0  0  0  0  0
  188.9910  176.8690  141.2210 C   0  0  2  0  0  3  0  0  0  0  0  0
  188.3740  178.0430  140.4940 C   0  0  0  0  0  0  0  0  0  0  0  0
  188.9860  177.9680  147.6210 C   0  0  0  0  0  0  0  0  0  0  0  0
  189.2240  177.1830  142.6670 C   0  0  0  0  0  0  0  0  0  0  0  0
  189.7510  177.7190  145.3390 C   0  0  0  0  0  0  0  0  0  0  0  0
  187.6760  177.6840  147.2180 C   0  0  0  0  0  3  0  0  0  0  0  0
  189.2540  178.2210  148.9210 F   0  0  0  0  0  0  0  0  0  0  0  0
  188.4290  177.4310  144.9350 C   0  0  0  0  0  0  0  0  0  0  0  0
  190.0240  177.9850  146.6830 C   0  0  0  0  0  3  0  0  0  0  0  0
  187.3970  177.4160  145.8750 C   0  0  0  0  0  3  0  0  0  0  0  0
  188.1740  177.1590  143.5940 C   0  0  0  0  0  3  0  0  0  0  0  0
  190.5180  177.4740  143.1090 C   0  0  0  0  0  3  0  0  0  0  0  0
  190.7530  177.7370  144.4220 N   0  0  0  0  0  0  0  0  0  0  0  0
  192.5420  174.1340  137.1330 C   0  0  0  0  0  3  0  0  0  0  0  0
  193.8550  175.9900  137.9590 C   0  0  0  0  0  3  0  0  0  0  0  0
  193.7700  174.7890  137.2500 C   0  0  0  0  0  0  0  0  0  0  0  0
  191.3960  174.6840  137.7170 C   0  0  0  0  0  3  0  0  0  0  0  0
  191.4750  175.8990  138.4160 C   0  0  0  0  0  0  0  0  0  0  0  0
  194.9080  174.2460  136.6670 O   0  0  0  0  0  1  0  0  0  0  0  0
  192.7100  176.5430  138.5400 C   0  0  0  0  0  3  0  0  0  0  0  0
  188.1880  179.3100  138.4350 O   0  0  0  0  0  0  0  0  0  0  0  0
  187.9090  178.5300  137.3050 C   0  0  0  0  0  2  0  0  0  0  0  0
  186.8400  177.4740  137.5940 C   0  0  1  0  0  3  0  0  0  0  0  0
  185.4400  178.0740  137.5230 C   0  0  0  0  0  2  0  0  0  0  0  0
  184.6630  177.8160  138.8110 C   0  0  0  0  0  3  0  0  0  0  0  0
  182.3450  177.9520  137.8020 C   0  0  0  0  0  2  0  0  0  0  0  0
  183.3610  179.9840  138.8420 C   0  0  0  0  0  2  0  0  0  0  0  0
  182.0670  179.2060  138.6190 C   0  0  0  0  0  2  0  0  0  0  0  0
  184.3800  179.1130  139.5780 C   0  0  0  0  0  2  0  0  0  0  0  0
  183.3600  177.0630  138.5200 C   0  0  0  0  0  2  0  0  0  0  0  0
  186.9710  176.2450  136.6800 C   0  0  1  0  0  3  0  0  0  0  0  0
  185.7080  175.9220  135.8660 C   0  0  0  0  0  2  0  0  0  0  0  0
  185.0700  174.6340  136.2780 C   0  0  0  0  0  3  0  0  0  0  0  0
  185.4630  174.0340  137.3370 N   0  0  0  0  0  0  0  0  0  0  0  0
  184.8570  172.7890  137.7200 C   0  0  0  0  0  1  0  0  0  0  0  0
  188.2440  176.2960  135.8360 C   0  0  0  0  0  2  0  0  0  0  0  0
  189.8180  174.9170  134.4700 C   0  0  0  0  0  1  0  0  0  0  0  0
  188.4060  175.0230  135.0190 C   0  0  0  0  0  2  0  0  0  0  0  0
  1  6  1  0  0  0  0
  2  5  1  0  0  0  0
  2  3  1  0  0  0  0
  3  7  1  0  0  0  0
  5 23  1  1  0  0  0
  5  1  1  0  0  0  0
  6  9  1  1  0  0  0
  7  4  2  0  0  0  0
  7  6  1  0  0  0  0
  8 12  1  0  0  0  0
  9 17  2  0  0  0  0
  9 16  1  0  0  0  0
 10 14  1  0  0  0  0
 11  8  1  0  0  0  0
 13 10  1  0  0  0  0
 13 15  1  0  0  0  0
 14  8  2  0  0  0  0
 15 11  2  0  0  0  0
 16 13  2  0  0  0  0
 17 18  1  0  0  0  0
 18 10  2  0  0  0  0
 19 21  2  0  0  0  0
 19 22  1  0  0  0  0
 20 25  2  0  0  0  0
 21 20  1  0  0  0  0
 22 23  2  0  0  0  0
 23 25  1  0  0  0  0
 24 21  1  0  0  0  0
 26  3  1  0  0  0  0
 27 26  1  0  0  0  0
 28 27  1  6  0  0  0
 29 28  1  0  0  0  0
 29 30  1  0  0  0  0
 30 34  1  0  0  0  0
 31 35  1  0  0  0  0
 31 33  1  0  0  0  0
 32 34  1  0  0  0  0
 33 32  1  0  0  0  0
 35 30  1  0  0  0  0
 36 41  1  6  0  0  0
 36 28  1  0  0  0  0
 37 38  1  0  0  0  0
 37 36  1  0  0  0  0
 38 39  2  0  0  0  0
 39 40  1  0  0  0  0
 42 43  1  0  0  0  0
 43 41  1  0  0  0  0
M  END
>  <MODEL>
9

>  <REMARK>
 VINA RESULT:      -8.1      3.506      7.850
  Name = 
  12 active torsions:
  status: ('A' for Active; 'I' for Inactive)
    1  A    between atoms: O_2  and  C_6
    2  A    between atoms: O_2  and  N_13
    3  A    between atoms: C_3  and  C_4
    4  A    between atoms: C_4  and  C_22
    5  A    between atoms: C_6  and  C_41
    6  A    between atoms: C_8  and  C_34
    7  A    between atoms: C_11  and  C_14
    8  A    between atoms: C_14  and  C_41
    9  A    between atoms: C_15  and  C_22
   10  A    between atoms: C_15  and  C_42
   11  A    between atoms: C_22  and  C_41
   12  A    between atoms: C_28  and  C_35
                            x       y       z     vdW  Elec       q    Type
                         _______ _______ _______ _____ _____    ______ ____

>  <TORSDO>
F 12

$$$$
