=
 OpenBabel10272400123D

 34 39  0  0  1  0  0  0  0  0999 V2000
  190.5120  177.1200  146.4520 C   0  0  0  0  0  0  0  0  0  0  0  0
  191.6690  175.7930  144.8040 C   0  0  0  0  0  0  0  0  0  0  0  0
  189.9750  177.6550  144.0690 C   0  0  2  0  0  3  0  0  0  0  0  0
  188.9100  177.1620  141.8320 C   0  0  0  0  0  0  0  0  0  0  0  0
  191.2600  176.5280  147.4170 N   0  0  0  0  0  0  0  0  0  0  0  0
  192.4000  175.2450  145.8110 N   0  0  0  0  0  2  0  0  0  0  0  0
  191.3550  177.5410  141.9850 C   0  0  0  0  0  2  0  0  0  0  0  0
  190.7180  176.7960  145.0920 C   0  0  0  0  0  0  0  0  0  0  0  0
  191.4160  176.8090  140.6470 C   0  0  0  0  0  2  0  0  0  0  0  0
  189.0470  176.7130  140.4070 C   0  0  0  0  0  2  0  0  0  0  0  0
  192.2070  175.6080  147.1050 C   0  0  0  0  0  3  0  0  0  0  0  0
  188.5700  177.9580  144.5460 C   0  0  0  0  0  0  0  0  0  0  0  0
  189.3880  177.9960  146.8480 C   0  0  0  0  0  3  0  0  0  0  0  0
  191.8430  175.3670  143.6330 O   0  0  0  0  0  0  0  0  0  0  0  0
  187.7020  177.4330  142.3230 C   0  0  0  0  0  3  0  0  0  0  0  0
  187.5010  177.8630  143.7200 C   0  0  0  0  0  0  0  0  0  0  0  0
  190.2860  177.2410  139.8240 N   0  0  2  0  0  0  0  0  0  0  0  0
  190.0850  177.2640  142.6570 N   0  0  0  0  0  0  0  0  0  0  0  0
  188.4590  178.3730  145.9610 C   0  0  0  0  0  3  0  0  0  0  0  0
  184.4810  178.3330  145.9620 C   0  0  0  0  0  0  0  0  0  0  0  0
  183.4920  178.6840  145.0380 C   0  0  0  0  0  3  0  0  0  0  0  0
  186.1010  178.1030  144.1590 C   0  0  0  0  0  0  0  0  0  0  0  0
  183.8020  178.7560  143.6790 C   0  0  0  0  0  3  0  0  0  0  0  0
  185.7780  178.0490  145.5250 C   0  0  0  0  0  3  0  0  0  0  0  0
  185.1010  178.4750  143.2450 C   0  0  0  0  0  3  0  0  0  0  0  0
  184.1820  178.2850  147.2840 F   0  0  0  0  0  0  0  0  0  0  0  0
  190.4460  176.6970  138.4720 C   0  0  1  0  0  0  0  0  0  0  0  0
  189.1990  175.7570  136.5500 O   0  0  0  0  0  1  0  0  0  0  0  0
  190.3010  177.7620  137.3900 C   0  0  0  0  0  2  0  0  0  0  0  0
  191.7690  175.4710  138.1460 S   0  0  0  0  0  1  0  0  0  0  0  0
  189.2190  176.7100  137.5740 C   0  0  2  0  0  0  0  0  0  0  0  0
  187.5860  178.6010  137.6960 C   0  0  0  0  0  1  0  0  0  0  0  0
  187.8900  177.1850  138.1510 C   0  0  1  0  0  3  0  0  0  0  0  0
  186.8660  176.3370  137.7250 O   0  0  0  0  0  1  0  0  0  0  0  0
  1 13  1  0  0  0  0
  1  5  1  0  0  0  0
  2  8  1  0  0  0  0
  2  6  1  0  0  0  0
  3 12  1  1  0  0  0
  3  8  1  0  0  0  0
  4 15  2  0  0  0  0
  4 18  1  0  0  0  0
  6 11  1  0  0  0  0
  7 18  1  0  0  0  0
  8  1  2  0  0  0  0
  9  7  1  0  0  0  0
 10  4  1  0  0  0  0
 11  5  2  0  0  0  0
 12 19  1  0  0  0  0
 14  2  2  0  0  0  0
 15 16  1  0  0  0  0
 16 22  1  0  0  0  0
 16 12  2  0  0  0  0
 17 10  1  1  0  0  0
 17  9  1  0  0  0  0
 18  3  1  0  0  0  0
 19 13  2  0  0  0  0
 20 26  1  0  0  0  0
 21 20  2  0  0  0  0
 22 24  2  0  0  0  0
 23 21  1  0  0  0  0
 24 20  1  0  0  0  0
 25 23  2  0  0  0  0
 25 22  1  0  0  0  0
 27 30  1  6  0  0  0
 27 17  1  0  0  0  0
 29 31  1  0  0  0  0
 29 27  1  0  0  0  0
 31 28  1  6  0  0  0
 31 33  1  0  0  0  0
 31 27  1  0  0  0  0
 33 32  1  6  0  0  0
 34 33  1  0  0  0  0
M  END
>  <MODEL>
1

>  <REMARK>
 VINA RESULT:      -9.6      0.000      0.000
  Name = 
  3 active torsions:
  status: ('A' for Active; 'I' for Inactive)
    1  A    between atoms: C_3  and  N_29
    2  A    between atoms: C_12  and  C_28
    3  A    between atoms: C_20  and  C_33
                            x       y       z     vdW  Elec       q    Type
                         _______ _______ _______ _____ _____    ______ ____

>  <TORSDO>
F 3

$$$$
=
 OpenBabel10272400123D

 34 39  0  0  1  0  0  0  0  0999 V2000
  186.7870  177.7550  145.2770 C   0  0  0  0  0  0  0  0  0  0  0  0
  184.8810  179.1670  144.8470 C   0  0  0  0  0  0  0  0  0  0  0  0
  185.8830  177.6620  142.9480 C   0  0  2  0  0  3  0  0  0  0  0  0
  185.4810  178.6190  140.6450 C   0  0  0  0  0  0  0  0  0  0  0  0
  186.7120  178.0960  146.5880 N   0  0  0  0  0  0  0  0  0  0  0  0
  184.8440  179.4600  146.1740 N   0  0  0  0  0  2  0  0  0  0  0  0
  183.5620  177.9250  142.0500 C   0  0  0  0  0  2  0  0  0  0  0  0
  185.8400  178.2560  144.3560 C   0  0  0  0  0  0  0  0  0  0  0  0
  182.7410  178.8400  141.1460 C   0  0  0  0  0  2  0  0  0  0  0  0
  184.5530  179.2620  139.6560 C   0  0  0  0  0  2  0  0  0  0  0  0
  185.7420  178.9290  147.0420 C   0  0  0  0  0  3  0  0  0  0  0  0
  187.3140  177.4650  142.4940 C   0  0  0  0  0  0  0  0  0  0  0  0
  187.9490  176.9730  144.8020 C   0  0  0  0  0  3  0  0  0  0  0  0
  184.0660  179.7440  144.0800 O   0  0  0  0  0  0  0  0  0  0  0  0
  186.7580  178.4270  140.3180 C   0  0  0  0  0  3  0  0  0  0  0  0
  187.7230  177.8160  141.2520 C   0  0  0  0  0  0  0  0  0  0  0  0
  183.2090  178.6820  139.7690 N   0  0  2  0  0  0  0  0  0  0  0  0
  184.9850  178.2490  141.9440 N   0  0  0  0  0  0  0  0  0  0  0  0
  188.2150  176.8540  143.4960 C   0  0  0  0  0  3  0  0  0  0  0  0
  191.4900  177.3940  141.2970 C   0  0  0  0  0  0  0  0  0  0  0  0
  191.7830  177.3000  139.9330 C   0  0  0  0  0  3  0  0  0  0  0  0
  189.1280  177.6840  140.7830 C   0  0  0  0  0  0  0  0  0  0  0  0
  190.7560  177.3880  138.9930 C   0  0  0  0  0  3  0  0  0  0  0  0
  190.1700  177.5800  141.7200 C   0  0  0  0  0  3  0  0  0  0  0  0
  189.4360  177.5700  139.4170 C   0  0  0  0  0  3  0  0  0  0  0  0
  192.4880  177.2870  142.2100 F   0  0  0  0  0  0  0  0  0  0  0  0
  182.3020  179.4040  138.8710 C   0  0  1  0  0  0  0  0  0  0  0  0
  181.4500  179.4750  136.5480 O   0  0  0  0  0  1  0  0  0  0  0  0
  180.9100  178.7820  138.8220 C   0  0  0  0  0  2  0  0  0  0  0  0
  182.3060  181.2360  138.8710 S   0  0  0  0  0  1  0  0  0  0  0  0
  181.8400  178.6690  137.6230 C   0  0  2  0  0  0  0  0  0  0  0  0
  181.4030  176.4390  136.5780 C   0  0  0  0  0  1  0  0  0  0  0  0
  182.4130  177.2880  137.3260 C   0  0  1  0  0  3  0  0  0  0  0  0
  183.5670  177.4190  136.5510 O   0  0  0  0  0  1  0  0  0  0  0  0
  1  5  1  0  0  0  0
  2  6  1  0  0  0  0
  3 12  1  6  0  0  0
  3  8  1  0  0  0  0
  4 18  1  0  0  0  0
  5 11  2  0  0  0  0
  6 11  1  0  0  0  0
  8  2  1  0  0  0  0
  8  1  2  0  0  0  0
  9  7  1  0  0  0  0
 10  4  1  0  0  0  0
 12 19  1  0  0  0  0
 13  1  1  0  0  0  0
 14  2  2  0  0  0  0
 15  4  2  0  0  0  0
 15 16  1  0  0  0  0
 16 12  2  0  0  0  0
 17 10  1  1  0  0  0
 17  9  1  0  0  0  0
 18  7  1  0  0  0  0
 18  3  1  0  0  0  0
 19 13  2  0  0  0  0
 20 24  1  0  0  0  0
 20 26  1  0  0  0  0
 21 20  2  0  0  0  0
 22 16  1  0  0  0  0
 22 24  2  0  0  0  0
 23 25  2  0  0  0  0
 23 21  1  0  0  0  0
 25 22  1  0  0  0  0
 27 30  1  6  0  0  0
 27 17  1  0  0  0  0
 29 27  1  0  0  0  0
 31 28  1  6  0  0  0
 31 29  1  0  0  0  0
 31 27  1  0  0  0  0
 33 32  1  6  0  0  0
 33 31  1  0  0  0  0
 34 33  1  0  0  0  0
M  END
>  <MODEL>
2

>  <REMARK>
 VINA RESULT:      -8.9      4.540      6.816
  Name = 
  3 active torsions:
  status: ('A' for Active; 'I' for Inactive)
    1  A    between atoms: C_3  and  N_29
    2  A    between atoms: C_12  and  C_28
    3  A    between atoms: C_20  and  C_33
                            x       y       z     vdW  Elec       q    Type
                         _______ _______ _______ _____ _____    ______ ____

>  <TORSDO>
F 3

$$$$
=
 OpenBabel10272400123D

 34 39  0  0  1  0  0  0  0  0999 V2000
  191.2770  177.1890  139.7120 C   0  0  0  0  0  0  0  0  0  0  0  0
  188.9830  177.0560  138.9800 C   0  0  0  0  0  0  0  0  0  0  0  0
  189.5750  178.0090  141.3500 C   0  0  2  0  0  3  0  0  0  0  0  0
  187.7070  177.6780  143.0170 C   0  0  0  0  0  0  0  0  0  0  0  0
  191.6690  176.7930  138.4750 N   0  0  0  0  0  0  0  0  0  0  0  0
  189.4350  176.6780  137.7550 N   0  0  0  0  0  2  0  0  0  0  0  0
  187.3530  179.1160  141.0300 C   0  0  0  0  0  2  0  0  0  0  0  0
  189.9060  177.3720  140.0010 C   0  0  0  0  0  0  0  0  0  0  0  0
  185.8690  178.8820  141.2910 C   0  0  0  0  0  2  0  0  0  0  0  0
  186.2440  177.7400  143.3490 C   0  0  0  0  0  2  0  0  0  0  0  0
  190.7610  176.5520  137.4960 C   0  0  0  0  0  3  0  0  0  0  0  0
  190.4860  177.4720  142.4330 C   0  0  0  0  0  0  0  0  0  0  0  0
  192.2850  177.2870  140.7900 C   0  0  0  0  0  3  0  0  0  0  0  0
  187.7420  177.0880  139.1810 O   0  0  0  0  0  0  0  0  0  0  0  0
  188.5650  177.2030  143.9180 C   0  0  0  0  0  3  0  0  0  0  0  0
  190.0120  177.1020  143.6460 C   0  0  0  0  0  0  0  0  0  0  0  0
  185.6330  178.9250  142.7350 N   0  0  2  0  0  0  0  0  0  0  0  0
  188.1560  178.1040  141.7180 N   0  0  0  0  0  0  0  0  0  0  0  0
  191.9190  177.3960  142.0720 C   0  0  0  0  0  3  0  0  0  0  0  0
  191.6070  176.5370  147.0380 C   0  0  0  0  0  0  0  0  0  0  0  0
  192.3570  175.3790  146.8110 C   0  0  0  0  0  3  0  0  0  0  0  0
  190.8630  176.5240  144.7200 C   0  0  0  0  0  0  0  0  0  0  0  0
  192.3570  174.7860  145.5480 C   0  0  0  0  0  3  0  0  0  0  0  0
  190.8600  177.1030  146.0000 C   0  0  0  0  0  3  0  0  0  0  0  0
  191.6070  175.3510  144.5120 C   0  0  0  0  0  3  0  0  0  0  0  0
  191.5910  177.0990  148.2720 F   0  0  0  0  0  0  0  0  0  0  0  0
  184.1890  178.8980  142.9830 C   0  0  1  0  0  0  0  0  0  0  0  0
  182.4720  178.2450  144.6420 O   0  0  0  0  0  1  0  0  0  0  0  0
  183.6990  180.1390  143.7220 C   0  0  0  0  0  2  0  0  0  0  0  0
  183.0590  178.3170  141.6630 S   0  0  0  0  0  1  0  0  0  0  0  0
  183.7400  178.7940  144.4320 C   0  0  2  0  0  0  0  0  0  0  0  0
  185.5690  179.9150  145.7190 C   0  0  0  0  0  1  0  0  0  0  0  0
  184.7960  178.6240  145.5190 C   0  0  1  0  0  3  0  0  0  0  0  0
  184.1770  178.2690  146.7190 O   0  0  0  0  0  1  0  0  0  0  0  0
  1  8  2  0  0  0  0
  1 13  1  0  0  0  0
  2 14  2  0  0  0  0
  2  8  1  0  0  0  0
  3  8  1  6  0  0  0
  3 18  1  0  0  0  0
  3 12  1  0  0  0  0
  4 10  1  0  0  0  0
  4 15  2  0  0  0  0
  5  1  1  0  0  0  0
  6  2  1  0  0  0  0
  7  9  1  0  0  0  0
  7 18  1  0  0  0  0
 11  6  1  0  0  0  0
 11  5  2  0  0  0  0
 12 16  2  0  0  0  0
 13 19  2  0  0  0  0
 16 15  1  0  0  0  0
 16 22  1  0  0  0  0
 17  9  1  6  0  0  0
 17 27  1  0  0  0  0
 17 10  1  0  0  0  0
 18  4  1  0  0  0  0
 19 12  1  0  0  0  0
 20 26  1  0  0  0  0
 21 20  1  0  0  0  0
 22 24  1  0  0  0  0
 23 21  2  0  0  0  0
 24 20  2  0  0  0  0
 25 22  2  0  0  0  0
 25 23  1  0  0  0  0
 27 30  1  6  0  0  0
 27 29  1  0  0  0  0
 27 31  1  0  0  0  0
 29 31  1  0  0  0  0
 31 28  1  1  0  0  0
 31 33  1  0  0  0  0
 33 32  1  1  0  0  0
 33 34  1  0  0  0  0
M  END
>  <MODEL>
3

>  <REMARK>
 VINA RESULT:      -8.7      3.317      7.072
  Name = 
  3 active torsions:
  status: ('A' for Active; 'I' for Inactive)
    1  A    between atoms: C_3  and  N_29
    2  A    between atoms: C_12  and  C_28
    3  A    between atoms: C_20  and  C_33
                            x       y       z     vdW  Elec       q    Type
                         _______ _______ _______ _____ _____    ______ ____

>  <TORSDO>
F 3

$$$$
=
 OpenBabel10272400123D

 34 39  0  0  1  0  0  0  0  0999 V2000
  181.2750  179.5210  141.4820 C   0  0  0  0  0  0  0  0  0  0  0  0
  182.1600  180.2380  139.3560 C   0  0  0  0  0  0  0  0  0  0  0  0
  183.4030  178.4140  140.7720 C   0  0  2  0  0  3  0  0  0  0  0  0
  185.8900  178.3810  140.3330 C   0  0  0  0  0  0  0  0  0  0  0  0
  180.1740  180.2790  141.2520 N   0  0  0  0  0  0  0  0  0  0  0  0
  181.0260  180.9660  139.1720 N   0  0  0  0  0  2  0  0  0  0  0  0
  184.3020  177.8300  138.5110 C   0  0  0  0  0  2  0  0  0  0  0  0
  182.3030  179.4440  140.5150 C   0  0  0  0  0  0  0  0  0  0  0  0
  185.4640  178.1630  137.5800 C   0  0  0  0  0  2  0  0  0  0  0  0
  187.0310  178.4140  139.3580 C   0  0  0  0  0  2  0  0  0  0  0  0
  180.0380  180.9870  140.1020 C   0  0  0  0  0  3  0  0  0  0  0  0
  183.7750  178.3860  142.2400 C   0  0  0  0  0  0  0  0  0  0  0  0
  181.4540  178.8950  142.8100 C   0  0  0  0  0  3  0  0  0  0  0  0
  183.0710  180.3130  138.4920 O   0  0  0  0  0  0  0  0  0  0  0  0
  186.1430  178.3680  141.6400 C   0  0  0  0  0  3  0  0  0  0  0  0
  185.0650  178.3540  142.6480 C   0  0  0  0  0  0  0  0  0  0  0  0
  186.6980  177.6330  138.1600 N   0  0  2  0  0  0  0  0  0  0  0  0
  184.5380  178.3970  139.8400 N   0  0  0  0  0  0  0  0  0  0  0  0
  182.6330  178.3810  143.1800 C   0  0  0  0  0  3  0  0  0  0  0  0
  187.0520  177.7210  145.8130 C   0  0  0  0  0  0  0  0  0  0  0  0
  186.3570  178.4970  146.7460 C   0  0  0  0  0  3  0  0  0  0  0  0
  185.4750  178.3740  144.0770 C   0  0  0  0  0  0  0  0  0  0  0  0
  185.2310  179.2190  146.3500 C   0  0  0  0  0  3  0  0  0  0  0  0
  186.6160  177.6630  144.4860 C   0  0  0  0  0  3  0  0  0  0  0  0
  184.7990  179.1640  145.0220 C   0  0  0  0  0  3  0  0  0  0  0  0
  188.1590  177.0370  146.1960 F   0  0  0  0  0  0  0  0  0  0  0  0
  187.7830  177.7740  137.1840 C   0  0  1  0  0  0  0  0  0  0  0  0
  189.5370  176.5170  135.9710 O   0  0  0  0  0  1  0  0  0  0  0  0
  187.3220  177.5100  135.7540 C   0  0  0  0  0  2  0  0  0  0  0  0
  188.9650  179.1650  137.3460 S   0  0  0  0  0  1  0  0  0  0  0  0
  188.2270  176.5120  136.4610 C   0  0  2  0  0  0  0  0  0  0  0  0
  186.5610  174.7540  135.8380 C   0  0  0  0  0  1  0  0  0  0  0  0
  187.6030  175.1790  136.8560 C   0  0  1  0  0  3  0  0  0  0  0  0
  188.5980  174.2020  136.9300 O   0  0  0  0  0  1  0  0  0  0  0  0
  1 13  1  0  0  0  0
  2  8  1  0  0  0  0
  3  8  1  1  0  0  0
  3 12  1  0  0  0  0
  4 15  2  0  0  0  0
  5  1  1  0  0  0  0
  6  2  1  0  0  0  0
  6 11  1  0  0  0  0
  7 18  1  0  0  0  0
  8  1  2  0  0  0  0
  9  7  1  0  0  0  0
 10  4  1  0  0  0  0
 11  5  2  0  0  0  0
 12 16  2  0  0  0  0
 12 19  1  0  0  0  0
 13 19  2  0  0  0  0
 14  2  2  0  0  0  0
 15 16  1  0  0  0  0
 16 22  1  0  0  0  0
 17  9  1  6  0  0  0
 17 10  1  0  0  0  0
 18  4  1  0  0  0  0
 18  3  1  0  0  0  0
 20 26  1  0  0  0  0
 20 21  1  0  0  0  0
 22 24  1  0  0  0  0
 22 25  2  0  0  0  0
 23 21  2  0  0  0  0
 24 20  2  0  0  0  0
 25 23  1  0  0  0  0
 27 30  1  1  0  0  0
 27 17  1  0  0  0  0
 29 31  1  0  0  0  0
 29 27  1  0  0  0  0
 31 28  1  6  0  0  0
 31 33  1  0  0  0  0
 31 27  1  0  0  0  0
 33 32  1  6  0  0  0
 33 34  1  0  0  0  0
M  END
>  <MODEL>
4

>  <REMARK>
 VINA RESULT:      -8.6      4.087      6.909
  Name = 
  3 active torsions:
  status: ('A' for Active; 'I' for Inactive)
    1  A    between atoms: C_3  and  N_29
    2  A    between atoms: C_12  and  C_28
    3  A    between atoms: C_20  and  C_33
                            x       y       z     vdW  Elec       q    Type
                         _______ _______ _______ _____ _____    ______ ____

>  <TORSDO>
F 3

$$$$
=
 OpenBabel10272400123D

 34 39  0  0  1  0  0  0  0  0999 V2000
  189.9300  177.6570  140.6550 C   0  0  0  0  0  0  0  0  0  0  0  0
  188.7230  176.7810  138.7590 C   0  0  0  0  0  0  0  0  0  0  0  0
  187.5520  178.4050  140.4530 C   0  0  2  0  0  3  0  0  0  0  0  0
  185.0560  178.0400  140.5700 C   0  0  0  0  0  0  0  0  0  0  0  0
  191.0580  177.0790  140.1720 N   0  0  0  0  0  0  0  0  0  0  0  0
  189.8880  176.2380  138.3160 N   0  0  0  0  0  2  0  0  0  0  0  0
  186.0970  178.8100  138.4570 C   0  0  0  0  0  2  0  0  0  0  0  0
  188.7160  177.5580  139.9380 C   0  0  0  0  0  0  0  0  0  0  0  0
  184.8260  178.2850  137.7960 C   0  0  0  0  0  2  0  0  0  0  0  0
  183.7480  177.8150  139.8690 C   0  0  0  0  0  2  0  0  0  0  0  0
  191.0470  176.3860  139.0050 C   0  0  0  0  0  3  0  0  0  0  0  0
  187.5120  178.3940  141.9670 C   0  0  0  0  0  0  0  0  0  0  0  0
  189.9520  178.2650  142.0030 C   0  0  0  0  0  3  0  0  0  0  0  0
  187.6680  176.5510  138.1150 O   0  0  0  0  0  0  0  0  0  0  0  0
  185.0970  178.0300  141.9020 C   0  0  0  0  0  3  0  0  0  0  0  0
  186.3550  178.2280  142.6480 C   0  0  0  0  0  0  0  0  0  0  0  0
  183.6820  178.6220  138.6450 N   0  0  2  0  0  0  0  0  0  0  0  0
  186.2510  178.2300  139.7930 N   0  0  0  0  0  0  0  0  0  0  0  0
  188.8180  178.5920  142.6340 C   0  0  0  0  0  3  0  0  0  0  0  0
  187.2780  177.5170  146.2550 C   0  0  0  0  0  0  0  0  0  0  0  0
  186.2320  178.1370  146.9450 C   0  0  0  0  0  3  0  0  0  0  0  0
  186.2770  178.1630  144.1320 C   0  0  0  0  0  0  0  0  0  0  0  0
  185.2150  178.7790  146.2370 C   0  0  0  0  0  3  0  0  0  0  0  0
  187.3030  177.5340  144.8570 C   0  0  0  0  0  3  0  0  0  0  0  0
  185.2430  178.7980  144.8390 C   0  0  0  0  0  3  0  0  0  0  0  0
  188.2770  176.9130  146.9460 F   0  0  0  0  0  0  0  0  0  0  0  0
  182.4460  178.2980  137.9270 C   0  0  1  0  0  0  0  0  0  0  0  0
  179.9820  178.2190  138.1550 O   0  0  0  0  0  1  0  0  0  0  0  0
  181.8320  179.5140  137.2400 C   0  0  0  0  0  2  0  0  0  0  0  0
  182.3520  176.7550  136.9440 S   0  0  0  0  0  1  0  0  0  0  0  0
  181.1590  178.9080  138.4620 C   0  0  2  0  0  0  0  0  0  0  0  0
  180.4410  181.0210  139.5900 C   0  0  0  0  0  1  0  0  0  0  0  0
  181.2110  179.7230  139.7490 C   0  0  1  0  0  3  0  0  0  0  0  0
  180.6520  178.9830  140.7930 O   0  0  0  0  0  1  0  0  0  0  0  0
  1 13  1  0  0  0  0
  2  8  1  0  0  0  0
  3  8  1  6  0  0  0
  3 12  1  0  0  0  0
  4 15  2  0  0  0  0
  5  1  1  0  0  0  0
  6  2  1  0  0  0  0
  6 11  1  0  0  0  0
  7 18  1  0  0  0  0
  8  1  2  0  0  0  0
  9  7  1  0  0  0  0
 10  4  1  0  0  0  0
 11  5  2  0  0  0  0
 12 19  1  0  0  0  0
 12 16  2  0  0  0  0
 13 19  2  0  0  0  0
 14  2  2  0  0  0  0
 15 16  1  0  0  0  0
 16 22  1  0  0  0  0
 17  9  1  6  0  0  0
 17 10  1  0  0  0  0
 18  3  1  0  0  0  0
 18  4  1  0  0  0  0
 20 21  1  0  0  0  0
 20 26  1  0  0  0  0
 22 25  2  0  0  0  0
 22 24  1  0  0  0  0
 23 21  2  0  0  0  0
 24 20  2  0  0  0  0
 25 23  1  0  0  0  0
 27 30  1  6  0  0  0
 27 31  1  0  0  0  0
 27 17  1  0  0  0  0
 29 27  1  0  0  0  0
 29 31  1  0  0  0  0
 31 28  1  6  0  0  0
 31 33  1  0  0  0  0
 33 32  1  6  0  0  0
 33 34  1  0  0  0  0
M  END
>  <MODEL>
5

>  <REMARK>
 VINA RESULT:      -8.5      3.819      6.063
  Name = 
  3 active torsions:
  status: ('A' for Active; 'I' for Inactive)
    1  A    between atoms: C_3  and  N_29
    2  A    between atoms: C_12  and  C_28
    3  A    between atoms: C_20  and  C_33
                            x       y       z     vdW  Elec       q    Type
                         _______ _______ _______ _____ _____    ______ ____

>  <TORSDO>
F 3

$$$$
=
 OpenBabel10272400123D

 34 39  0  0  1  0  0  0  0  0999 V2000
  190.6370  177.8750  141.3180 C   0  0  0  0  0  0  0  0  0  0  0  0
  189.0270  177.1450  139.6780 C   0  0  0  0  0  0  0  0  0  0  0  0
  188.2570  178.4620  141.8120 C   0  0  2  0  0  3  0  0  0  0  0  0
  185.8900  177.8990  142.4900 C   0  0  0  0  0  0  0  0  0  0  0  0
  191.6290  177.4450  140.4990 N   0  0  0  0  0  0  0  0  0  0  0  0
  190.0620  176.7480  138.8920 N   0  0  0  0  0  2  0  0  0  0  0  0
  186.3270  178.9930  140.3100 C   0  0  0  0  0  2  0  0  0  0  0  0
  189.2860  177.7720  140.9160 C   0  0  0  0  0  0  0  0  0  0  0  0
  184.9530  178.4580  139.9180 C   0  0  0  0  0  2  0  0  0  0  0  0
  184.4580  177.6630  142.1100 C   0  0  0  0  0  2  0  0  0  0  0  0
  191.3520  176.8980  139.2880 C   0  0  0  0  0  3  0  0  0  0  0  0
  188.6040  178.2660  143.2730 C   0  0  0  0  0  0  0  0  0  0  0  0
  190.9760  178.3170  142.6890 C   0  0  0  0  0  3  0  0  0  0  0  0
  187.8530  176.9160  139.2890 O   0  0  0  0  0  0  0  0  0  0  0  0
  186.2690  177.7330  143.7560 C   0  0  0  0  0  3  0  0  0  0  0  0
  187.6650  177.9330  144.1900 C   0  0  0  0  0  0  0  0  0  0  0  0
  184.0490  178.6040  141.0600 N   0  0  2  0  0  0  0  0  0  0  0  0
  186.8400  178.2710  141.4760 N   0  0  0  0  0  0  0  0  0  0  0  0
  190.0270  178.4790  143.6180 C   0  0  0  0  0  3  0  0  0  0  0  0
  189.5230  176.9090  147.3310 C   0  0  0  0  0  0  0  0  0  0  0  0
  188.6390  177.3220  148.3320 C   0  0  0  0  0  3  0  0  0  0  0  0
  187.9710  177.6850  145.6240 C   0  0  0  0  0  0  0  0  0  0  0  0
  187.4280  177.9230  147.9880 C   0  0  0  0  0  3  0  0  0  0  0  0
  189.1930  177.0940  145.9850 C   0  0  0  0  0  3  0  0  0  0  0  0
  187.1010  178.1110  146.6420 C   0  0  0  0  0  3  0  0  0  0  0  0
  190.7090  176.3450  147.6700 F   0  0  0  0  0  0  0  0  0  0  0  0
  182.6850  178.2780  140.6320 C   0  0  1  0  0  0  0  0  0  0  0  0
  180.3640  177.9970  141.4460 O   0  0  0  0  0  1  0  0  0  0  0  0
  181.8700  179.5170  140.2790 C   0  0  0  0  0  2  0  0  0  0  0  0
  182.4090  176.8540  139.5120 S   0  0  0  0  0  1  0  0  0  0  0  0
  181.5520  178.7290  141.5410 C   0  0  2  0  0  0  0  0  0  0  0  0
  180.7430  180.2600  143.3450 C   0  0  0  0  0  1  0  0  0  0  0  0
  181.8940  179.3930  142.8690 C   0  0  1  0  0  3  0  0  0  0  0  0
  182.1570  178.4120  143.8270 O   0  0  0  0  0  1  0  0  0  0  0  0
  1 13  1  0  0  0  0
  2  8  1  0  0  0  0
  3  8  1  6  0  0  0
  3 12  1  0  0  0  0
  4 15  2  0  0  0  0
  5  1  1  0  0  0  0
  6 11  1  0  0  0  0
  6  2  1  0  0  0  0
  7 18  1  0  0  0  0
  8  1  2  0  0  0  0
  9  7  1  0  0  0  0
 10  4  1  0  0  0  0
 11  5  2  0  0  0  0
 12 19  1  0  0  0  0
 12 16  2  0  0  0  0
 13 19  2  0  0  0  0
 14  2  2  0  0  0  0
 15 16  1  0  0  0  0
 16 22  1  0  0  0  0
 17  9  1  6  0  0  0
 17 10  1  0  0  0  0
 18  3  1  0  0  0  0
 18  4  1  0  0  0  0
 20 26  1  0  0  0  0
 20 21  1  0  0  0  0
 22 24  1  0  0  0  0
 22 25  2  0  0  0  0
 23 21  2  0  0  0  0
 24 20  2  0  0  0  0
 25 23  1  0  0  0  0
 27 30  1  6  0  0  0
 27 17  1  0  0  0  0
 27 31  1  0  0  0  0
 29 27  1  0  0  0  0
 29 31  1  0  0  0  0
 31 28  1  6  0  0  0
 31 33  1  0  0  0  0
 33 32  1  1  0  0  0
 33 34  1  0  0  0  0
M  END
>  <MODEL>
6

>  <REMARK>
 VINA RESULT:      -8.5      3.526      6.214
  Name = 
  3 active torsions:
  status: ('A' for Active; 'I' for Inactive)
    1  A    between atoms: C_3  and  N_29
    2  A    between atoms: C_12  and  C_28
    3  A    between atoms: C_20  and  C_33
                            x       y       z     vdW  Elec       q    Type
                         _______ _______ _______ _____ _____    ______ ____

>  <TORSDO>
F 3

$$$$
=
 OpenBabel10272400123D

 34 39  0  0  1  0  0  0  0  0999 V2000
  187.3230  178.0710  139.1590 C   0  0  0  0  0  0  0  0  0  0  0  0
  188.5300  178.3220  137.0870 C   0  0  0  0  0  0  0  0  0  0  0  0
  189.5080  176.8610  139.0330 C   0  0  2  0  0  3  0  0  0  0  0  0
  192.0310  176.7630  138.9910 C   0  0  0  0  0  0  0  0  0  0  0  0
  186.2850  178.7490  138.6080 N   0  0  0  0  0  0  0  0  0  0  0  0
  187.4530  178.9800  136.5820 N   0  0  0  0  0  2  0  0  0  0  0  0
  190.7230  175.8130  137.1130 C   0  0  0  0  0  2  0  0  0  0  0  0
  188.4810  177.7990  138.3970 C   0  0  0  0  0  0  0  0  0  0  0  0
  192.0170  175.9510  136.3170 C   0  0  0  0  0  2  0  0  0  0  0  0
  193.3060  176.5970  138.2160 C   0  0  0  0  0  2  0  0  0  0  0  0
  186.3380  179.1900  137.3260 C   0  0  0  0  0  3  0  0  0  0  0  0
  189.6550  177.1540  140.5110 C   0  0  0  0  0  0  0  0  0  0  0  0
  187.2870  177.7480  140.6020 C   0  0  0  0  0  3  0  0  0  0  0  0
  189.5620  178.2190  136.3750 O   0  0  0  0  0  0  0  0  0  0  0  0
  192.0860  177.0350  140.2940 C   0  0  0  0  0  3  0  0  0  0  0  0
  190.8690  177.2260  141.1070 C   0  0  0  0  0  0  0  0  0  0  0  0
  193.1390  175.5720  137.1770 N   0  0  2  0  0  0  0  0  0  0  0  0
  190.7690  176.6560  138.3080 N   0  0  0  0  0  0  0  0  0  0  0  0
  188.3860  177.3400  141.2480 C   0  0  0  0  0  3  0  0  0  0  0  0
  191.5810  176.8360  144.8090 C   0  0  0  0  0  0  0  0  0  0  0  0
  191.5620  178.1640  145.2440 C   0  0  0  0  0  3  0  0  0  0  0  0
  191.0610  177.5580  142.5430 C   0  0  0  0  0  0  0  0  0  0  0  0
  191.3040  179.1910  144.3360 C   0  0  0  0  0  3  0  0  0  0  0  0
  191.3370  176.5350  143.4660 C   0  0  0  0  0  3  0  0  0  0  0  0
  191.0640  178.8890  142.9920 C   0  0  0  0  0  3  0  0  0  0  0  0
  191.8530  175.8410  145.6900 F   0  0  0  0  0  0  0  0  0  0  0  0
  194.3600  175.5120  136.3690 C   0  0  1  0  0  0  0  0  0  0  0  0
  196.8150  175.2160  136.4990 O   0  0  0  0  0  1  0  0  0  0  0  0
  194.7230  174.0870  135.9610 C   0  0  0  0  0  2  0  0  0  0  0  0
  194.6330  176.7600  135.0550 S   0  0  0  0  0  1  0  0  0  0  0  0
  195.5660  174.8250  136.9910 C   0  0  2  0  0  0  0  0  0  0  0  0
  195.3570  172.8230  138.4770 C   0  0  0  0  0  1  0  0  0  0  0  0
  195.4710  174.3360  138.4320 C   0  0  1  0  0  3  0  0  0  0  0  0
  196.6120  174.7310  139.1340 O   0  0  0  0  0  1  0  0  0  0  0  0
  1 13  1  0  0  0  0
  2  8  1  0  0  0  0
  3  8  1  6  0  0  0
  3 12  1  0  0  0  0
  4 15  2  0  0  0  0
  5  1  1  0  0  0  0
  6  2  1  0  0  0  0
  6 11  1  0  0  0  0
  7 18  1  0  0  0  0
  8  1  2  0  0  0  0
  9  7  1  0  0  0  0
 10  4  1  0  0  0  0
 11  5  2  0  0  0  0
 12 16  2  0  0  0  0
 12 19  1  0  0  0  0
 13 19  2  0  0  0  0
 14  2  2  0  0  0  0
 15 16  1  0  0  0  0
 16 22  1  0  0  0  0
 17  9  1  6  0  0  0
 17 10  1  0  0  0  0
 18  4  1  0  0  0  0
 18  3  1  0  0  0  0
 20 21  1  0  0  0  0
 20 26  1  0  0  0  0
 22 25  2  0  0  0  0
 22 24  1  0  0  0  0
 23 21  2  0  0  0  0
 24 20  2  0  0  0  0
 25 23  1  0  0  0  0
 27 30  1  6  0  0  0
 27 31  1  0  0  0  0
 27 17  1  0  0  0  0
 29 27  1  0  0  0  0
 29 31  1  0  0  0  0
 31 28  1  6  0  0  0
 31 33  1  0  0  0  0
 33 32  1  6  0  0  0
 33 34  1  0  0  0  0
M  END
>  <MODEL>
7

>  <REMARK>
 VINA RESULT:      -8.4      3.931      7.054
  Name = 
  3 active torsions:
  status: ('A' for Active; 'I' for Inactive)
    1  A    between atoms: C_3  and  N_29
    2  A    between atoms: C_12  and  C_28
    3  A    between atoms: C_20  and  C_33
                            x       y       z     vdW  Elec       q    Type
                         _______ _______ _______ _____ _____    ______ ____

>  <TORSDO>
F 3

$$$$
=
 OpenBabel10272400123D

 34 39  0  0  1  0  0  0  0  0999 V2000
  187.0830  178.2200  146.5990 C   0  0  0  0  0  0  0  0  0  0  0  0
  188.8230  176.9740  145.4880 C   0  0  0  0  0  0  0  0  0  0  0  0
  187.2920  178.6210  144.1400 C   0  0  2  0  0  3  0  0  0  0  0  0
  187.0520  177.9500  141.7170 C   0  0  0  0  0  0  0  0  0  0  0  0
  187.5320  177.7400  147.7860 N   0  0  0  0  0  0  0  0  0  0  0  0
  189.2390  176.5380  146.7070 N   0  0  0  0  0  2  0  0  0  0  0  0
  189.2730  178.5910  142.6100 C   0  0  0  0  0  2  0  0  0  0  0  0
  187.7430  177.8780  145.3970 C   0  0  0  0  0  0  0  0  0  0  0  0
  189.8260  177.8300  141.4090 C   0  0  0  0  0  2  0  0  0  0  0  0
  187.6790  177.4740  140.4390 C   0  0  0  0  0  2  0  0  0  0  0  0
  188.6090  176.9180  147.8480 C   0  0  0  0  0  3  0  0  0  0  0  0
  185.7870  178.7860  144.1270 C   0  0  0  0  0  0  0  0  0  0  0  0
  185.8160  178.9820  146.5630 C   0  0  0  0  0  3  0  0  0  0  0  0
  189.4020  176.5330  144.4620 O   0  0  0  0  0  0  0  0  0  0  0  0
  185.7300  178.1050  141.7820 C   0  0  0  0  0  3  0  0  0  0  0  0
  185.0530  178.5530  143.0140 C   0  0  0  0  0  0  0  0  0  0  0  0
  188.9860  178.1130  140.2450 N   0  0  2  0  0  0  0  0  0  0  0  0
  187.8850  178.2010  142.8620 N   0  0  0  0  0  0  0  0  0  0  0  0
  185.1900  179.2310  145.4060 C   0  0  0  0  0  3  0  0  0  0  0  0
  181.5030  178.5980  141.6870 C   0  0  0  0  0  0  0  0  0  0  0  0
  180.7600  178.7120  142.8650 C   0  0  0  0  0  3  0  0  0  0  0  0
  183.5700  178.6560  142.9710 C   0  0  0  0  0  0  0  0  0  0  0  0
  181.4120  178.7880  144.0960 C   0  0  0  0  0  3  0  0  0  0  0  0
  182.9000  178.5650  141.7400 C   0  0  0  0  0  3  0  0  0  0  0  0
  182.8090  178.7510  144.1480 C   0  0  0  0  0  3  0  0  0  0  0  0
  180.8650  178.5030  140.4940 F   0  0  0  0  0  0  0  0  0  0  0  0
  189.6200  177.5480  139.0510 C   0  0  1  0  0  0  0  0  0  0  0  0
  189.1550  176.3450  136.9380 O   0  0  0  0  0  1  0  0  0  0  0  0
  189.6590  178.5330  137.8870 C   0  0  0  0  0  2  0  0  0  0  0  0
  191.1390  176.5380  139.2300 S   0  0  0  0  0  1  0  0  0  0  0  0
  188.7310  177.3280  137.8370 C   0  0  2  0  0  0  0  0  0  0  0  0
  186.8420  178.7890  137.0920 C   0  0  0  0  0  1  0  0  0  0  0  0
  187.2370  177.6080  137.9590 C   0  0  1  0  0  3  0  0  0  0  0  0
  186.5180  176.4810  137.5550 O   0  0  0  0  0  1  0  0  0  0  0  0
  1  5  1  0  0  0  0
  2  6  1  0  0  0  0
  3 12  1  6  0  0  0
  3  8  1  0  0  0  0
  4 15  2  0  0  0  0
  4 18  1  0  0  0  0
  5 11  2  0  0  0  0
  6 11  1  0  0  0  0
  7 18  1  0  0  0  0
  8  2  1  0  0  0  0
  8  1  2  0  0  0  0
  9  7  1  0  0  0  0
 10  4  1  0  0  0  0
 12 19  1  0  0  0  0
 13  1  1  0  0  0  0
 14  2  2  0  0  0  0
 15 16  1  0  0  0  0
 16 12  2  0  0  0  0
 17 10  1  1  0  0  0
 17  9  1  0  0  0  0
 18  3  1  0  0  0  0
 19 13  2  0  0  0  0
 20 24  2  0  0  0  0
 20 21  1  0  0  0  0
 21 23  2  0  0  0  0
 22 16  1  0  0  0  0
 22 25  2  0  0  0  0
 23 25  1  0  0  0  0
 24 22  1  0  0  0  0
 26 20  1  0  0  0  0
 27 30  1  1  0  0  0
 27 17  1  0  0  0  0
 29 27  1  0  0  0  0
 31 28  1  6  0  0  0
 31 29  1  0  0  0  0
 31 33  1  0  0  0  0
 31 27  1  0  0  0  0
 33 32  1  6  0  0  0
 34 33  1  0  0  0  0
M  END
>  <MODEL>
8

>  <REMARK>
 VINA RESULT:      -8.3      2.164      3.026
  Name = 
  3 active torsions:
  status: ('A' for Active; 'I' for Inactive)
    1  A    between atoms: C_3  and  N_29
    2  A    between atoms: C_12  and  C_28
    3  A    between atoms: C_20  and  C_33
                            x       y       z     vdW  Elec       q    Type
                         _______ _______ _______ _____ _____    ______ ____

>  <TORSDO>
F 3

$$$$
=
 OpenBabel10272400123D

 34 39  0  0  1  0  0  0  0  0999 V2000
  190.9840  176.3680  145.6670 C   0  0  0  0  0  0  0  0  0  0  0  0
  189.1420  177.7810  146.3200 C   0  0  0  0  0  0  0  0  0  0  0  0
  189.1240  176.5480  144.0050 C   0  0  0  0  0  0  0  0  0  0  0  0
  187.7630  177.7770  142.2680 C   0  0  0  0  0  0  0  0  0  0  0  0
  191.5200  176.5400  146.9010 N   0  0  0  0  0  2  0  0  0  0  0  0
  189.7180  177.9040  147.5450 N   0  0  0  0  0  0  0  0  0  0  0  0
  186.6580  176.8700  144.2930 C   0  0  0  0  0  2  0  0  0  0  0  0
  189.7420  176.9600  145.3410 C   0  0  0  0  0  0  0  0  0  0  0  0
  185.5530  177.8730  143.9760 C   0  0  0  0  0  2  0  0  0  0  0  0
  186.5130  178.5180  141.8920 C   0  0  0  0  0  2  0  0  0  0  0  0
  190.8910  177.2880  147.8420 C   0  0  0  0  0  3  0  0  0  0  0  0
  190.1880  176.4410  142.9340 C   0  0  0  0  0  0  0  0  0  0  0  0
  191.7770  175.6780  144.6260 C   0  0  0  0  0  3  0  0  0  0  0  0
  188.0910  178.4310  146.0800 O   0  0  0  0  0  0  0  0  0  0  0  0
  188.7470  177.6560  141.3790 C   0  0  0  0  0  3  0  0  0  0  0  0
  190.0060  176.9540  141.6940 C   0  0  0  0  0  0  0  0  0  0  0  0
  185.3440  177.8990  142.5280 N   0  0  2  0  0  0  0  0  0  0  0  0
  187.8920  177.2370  143.5950 N   0  0  0  0  0  0  0  0  0  0  0  0
  191.4210  175.7290  143.3370 C   0  0  0  0  0  2  0  0  0  0  0  0
  191.6360  176.5390  138.2970 C   0  0  0  0  0  0  0  0  0  0  0  0
  192.9460  176.9530  138.5570 C   0  0  0  0  0  3  0  0  0  0  0  0
  191.0420  176.9130  140.6280 C   0  0  0  0  0  0  0  0  0  0  0  0
  193.3070  177.3570  139.8430 C   0  0  0  0  0  3  0  0  0  0  0  0
  190.6890  176.5240  139.3250 C   0  0  0  0  0  3  0  0  0  0  0  0
  192.3570  177.3450  140.8690 C   0  0  0  0  0  3  0  0  0  0  0  0
  191.2830  176.1670  137.0410 F   0  0  0  0  0  0  0  0  0  0  0  0
  184.1570  178.7070  142.2330 C   0  0  1  0  0  0  0  0  0  0  0  0
  183.0790  180.0840  140.4800 O   0  0  0  0  0  1  0  0  0  0  0  0
  183.0510  177.9000  141.5620 C   0  0  0  0  0  2  0  0  0  0  0  0
  183.5570  179.9130  143.4750 S   0  0  0  0  0  1  0  0  0  0  0  0
  183.8280  178.9380  140.7660 C   0  0  2  0  0  0  0  0  0  0  0  0
  184.1010  177.3840  138.8260 C   0  0  0  0  0  1  0  0  0  0  0  0
  184.7880  178.4120  139.7050 C   0  0  1  0  0  3  0  0  0  0  0  0
  185.2320  179.4720  138.9120 O   0  0  0  0  0  1  0  0  0  0  0  0
  1  5  1  0  0  0  0
  2  6  1  0  0  0  0
  3  8  2  0  0  0  0
  4 18  1  0  0  0  0
  5 11  1  0  0  0  0
  6 11  2  0  0  0  0
  8  1  1  0  0  0  0
  8  2  1  0  0  0  0
  9  7  1  0  0  0  0
 10  4  1  0  0  0  0
 12 19  1  0  0  0  0
 12  3  1  0  0  0  0
 13  1  2  0  0  0  0
 14  2  2  0  0  0  0
 15 16  1  0  0  0  0
 15  4  2  0  0  0  0
 16 12  2  0  0  0  0
 17 10  1  6  0  0  0
 17  9  1  0  0  0  0
 18  3  1  0  0  0  0
 18  7  1  0  0  0  0
 19 13  1  0  0  0  0
 20 21  2  0  0  0  0
 20 24  1  0  0  0  0
 21 23  1  0  0  0  0
 22 25  1  0  0  0  0
 22 16  1  0  0  0  0
 23 25  2  0  0  0  0
 24 22  2  0  0  0  0
 26 20  1  0  0  0  0
 27 17  1  0  0  0  0
 27 30  1  1  0  0  0
 29 27  1  0  0  0  0
 31 28  1  6  0  0  0
 31 29  1  0  0  0  0
 31 27  1  0  0  0  0
 33 32  1  6  0  0  0
 33 31  1  0  0  0  0
 34 33  1  0  0  0  0
M  END
>  <MODEL>
9

>  <REMARK>
 VINA RESULT:      -8.2      3.690      6.262
  Name = 
  3 active torsions:
  status: ('A' for Active; 'I' for Inactive)
    1  A    between atoms: C_3  and  N_29
    2  A    between atoms: C_12  and  C_28
    3  A    between atoms: C_20  and  C_33
                            x       y       z     vdW  Elec       q    Type
                         _______ _______ _______ _____ _____    ______ ____

>  <TORSDO>
F 3

$$$$
