=
 OpenBabel10272413523D

 30 34  0  0  1  0  0  0  0  0999 V2000
  188.3680  177.8620  140.4910 C   0  0  0  0  0  2  0  0  0  0  0  0
  188.7610  178.7080  139.3720 N   0  0  0  0  0  2  0  0  0  0  0  0
  188.5700  179.3950  137.1620 O   0  0  0  0  0  0  0  0  0  0  0  0
  188.1640  178.6260  138.0750 C   0  0  0  0  0  0  0  0  0  0  0  0
  187.0750  177.6270  137.7850 C   0  0  1  0  0  3  0  0  0  0  0  0
  183.4540  177.7740  137.2960 O   0  0  0  0  0  1  0  0  0  0  0  0
  185.7170  178.3330  137.7630 C   0  0  2  0  0  3  0  0  0  0  0  0
  185.0280  178.1950  139.1140 C   0  0  2  0  0  3  0  0  0  0  0  0
  184.6080  177.3110  137.9350 C   0  0  1  0  0  3  0  0  0  0  0  0
  184.4000  180.4910  138.9000 O   0  0  0  0  0  0  0  0  0  0  0  0
  184.1200  179.3590  139.3740 C   0  0  0  0  0  0  0  0  0  0  0  0
  182.9080  179.1800  140.1000 N   0  0  0  0  0  1  0  0  0  0  0  0
  187.0460  175.1010  136.6420 S   0  0  0  0  0  1  0  0  0  0  0  0
  187.3490  176.8880  136.4650 C   0  0  1  0  0  3  0  0  0  0  0  0
  186.4640  177.4030  135.3420 C   0  0  0  0  0  1  0  0  0  0  0  0
  187.7930  178.7050  141.6190 C   0  0  0  0  0  2  0  0  0  0  0  0
  186.5750  178.0330  142.2300 C   0  0  0  0  0  2  0  0  0  0  0  0
  185.7840  179.0190  142.9570 N   0  0  0  0  0  0  0  0  0  0  0  0
  185.6180  178.6960  144.3990 C   0  0  1  0  0  0  0  0  0  0  0  0
  184.1710  178.8470  144.7980 C   0  0  0  0  0  2  0  0  0  0  0  0
  184.5730  178.3330  143.4340 C   0  0  1  0  0  3  0  0  0  0  0  0
  186.2170  177.3790  144.9130 C   0  0  0  0  0  2  0  0  0  0  0  0
  189.9950  177.0400  147.4800 C   0  0  1  0  0  3  0  0  0  0  0  0
  187.8600  177.9720  148.3970 C   0  0  0  0  0  2  0  0  0  0  0  0
  190.8510  177.4250  146.4320 O   0  0  0  0  0  0  0  0  0  0  0  0
  187.3070  177.6180  145.9100 C   0  0  0  0  0  0  0  0  0  0  0  0
  189.3170  178.2750  148.0700 C   0  0  0  0  0  2  0  0  0  0  0  0
  189.6600  176.7770  146.0480 C   0  0  2  0  0  3  0  0  0  0  0  0
  186.9560  177.7510  147.2040 C   0  0  0  0  0  3  0  0  0  0  0  0
  188.7160  177.7990  145.4180 C   0  0  0  0  0  2  0  0  0  0  0  0
  1 16  1  0  0  0  0
  2  1  1  0  0  0  0
  3  4  2  0  0  0  0
  4  2  1  0  0  0  0
  5  4  1  6  0  0  0
  7  5  1  1  0  0  0
  7  9  1  0  0  0  0
  7  8  1  0  0  0  0
  8 11  1  6  0  0  0
  9  6  1  6  0  0  0
  9  8  1  0  0  0  0
 10 11  2  0  0  0  0
 11 12  1  0  0  0  0
 14 15  1  6  0  0  0
 14 13  1  0  0  0  0
 14  5  1  0  0  0  0
 16 17  1  0  0  0  0
 17 18  1  0  0  0  0
 18 21  1  0  0  0  0
 18 19  1  0  0  0  0
 19 20  1  0  0  0  0
 19 22  1  1  0  0  0
 21 19  1  0  0  0  0
 21 20  1  1  0  0  0
 22 26  1  0  0  0  0
 23 27  1  6  0  0  0
 25 23  1  0  0  0  0
 26 29  2  0  0  0  0
 27 24  1  0  0  0  0
 28 30  1  6  0  0  0
 28 25  1  0  0  0  0
 28 23  1  0  0  0  0
 29 24  1  0  0  0  0
 30 26  1  0  0  0  0
M  END
>  <MODEL>
1

>  <REMARK>
 VINA RESULT:      -7.6      0.000      0.000
  Name = 
  10 active torsions:
  status: ('A' for Active; 'I' for Inactive)
    1  A    between atoms: C_3  and  C_11
    2  A    between atoms: C_3  and  C_19
    3  A    between atoms: C_4  and  C_13
    4  A    between atoms: N_7  and  C_16
    5  A    between atoms: C_8  and  C_13
    6  A    between atoms: C_9  and  C_17
    7  A    between atoms: N_10  and  C_15
    8  A    between atoms: C_13  and  C_30
    9  A    between atoms: C_15  and  C_26
   10  A    between atoms: C_16  and  C_26
                            x       y       z     vdW  Elec       q    Type
                         _______ _______ _______ _____ _____    ______ ____

>  <TORSDO>
F 10

$$$$
=
 OpenBabel10272413523D

 30 34  0  0  1  0  0  0  0  0999 V2000
  185.4950  178.4520  141.6490 C   0  0  0  0  0  2  0  0  0  0  0  0
  185.2690  179.5490  140.7160 N   0  0  0  0  0  2  0  0  0  0  0  0
  184.2220  180.4700  138.8590 O   0  0  0  0  0  0  0  0  0  0  0  0
  184.3520  179.4740  139.6210 C   0  0  0  0  0  0  0  0  0  0  0  0
  183.5580  178.2210  139.3590 C   0  0  1  0  0  3  0  0  0  0  0  0
  180.1200  177.4500  140.3370 O   0  0  0  0  0  1  0  0  0  0  0  0
  182.0630  178.5210  139.4810 C   0  0  2  0  0  3  0  0  0  0  0  0
  181.7650  179.1890  140.8170 C   0  0  2  0  0  3  0  0  0  0  0  0
  181.4680  177.7000  140.6100 C   0  0  1  0  0  3  0  0  0  0  0  0
  179.9820  180.4730  141.7590 O   0  0  0  0  0  0  0  0  0  0  0  0
  180.5660  180.0830  140.7140 C   0  0  0  0  0  0  0  0  0  0  0  0
  180.1210  180.5470  139.4430 N   0  0  0  0  0  1  0  0  0  0  0  0
  185.7060  177.6300  137.7080 S   0  0  0  0  0  1  0  0  0  0  0  0
  183.9060  177.6320  137.9820 C   0  0  1  0  0  3  0  0  0  0  0  0
  183.4110  176.2020  137.8450 C   0  0  0  0  0  1  0  0  0  0  0  0
  184.5790  178.5840  142.8570 C   0  0  0  0  0  2  0  0  0  0  0  0
  185.2300  177.9930  144.0960 C   0  0  0  0  0  2  0  0  0  0  0  0
  185.4800  179.0500  145.0700 N   0  0  0  0  0  0  0  0  0  0  0  0
  186.4940  178.6810  146.0930 C   0  0  1  0  0  0  0  0  0  0  0  0
  185.9880  179.0310  147.4700 C   0  0  0  0  0  2  0  0  0  0  0  0
  185.0630  178.5330  146.3820 C   0  0  1  0  0  3  0  0  0  0  0  0
  187.0800  177.2620  146.0440 C   0  0  0  0  0  2  0  0  0  0  0  0
  191.1260  176.4590  144.0530 C   0  0  1  0  0  3  0  0  0  0  0  0
  190.9330  176.9060  146.5080 C   0  0  0  0  0  2  0  0  0  0  0  0
  190.8100  177.2060  142.9020 O   0  0  0  0  0  0  0  0  0  0  0  0
  188.5290  177.2730  145.6710 C   0  0  0  0  0  0  0  0  0  0  0  0
  191.5100  177.4040  145.1890 C   0  0  0  0  0  2  0  0  0  0  0  0
  189.7190  176.6140  143.5710 C   0  0  2  0  0  3  0  0  0  0  0  0
  189.4270  176.9840  146.6320 C   0  0  0  0  0  3  0  0  0  0  0  0
  188.9200  177.7020  144.2830 C   0  0  0  0  0  2  0  0  0  0  0  0
  1 16  1  0  0  0  0
  2  1  1  0  0  0  0
  3  4  2  0  0  0  0
  4  2  1  0  0  0  0
  5  4  1  6  0  0  0
  7  5  1  1  0  0  0
  7  9  1  0  0  0  0
  7  8  1  0  0  0  0
  8 11  1  6  0  0  0
  9  6  1  6  0  0  0
  9  8  1  0  0  0  0
 11 10  2  0  0  0  0
 12 11  1  0  0  0  0
 13 14  1  0  0  0  0
 14 15  1  1  0  0  0
 14  5  1  0  0  0  0
 16 17  1  0  0  0  0
 17 18  1  0  0  0  0
 18 19  1  0  0  0  0
 18 21  1  0  0  0  0
 19 22  1  6  0  0  0
 19 21  1  0  0  0  0
 19 20  1  0  0  0  0
 21 20  1  1  0  0  0
 23 27  1  1  0  0  0
 24 29  1  0  0  0  0
 25 28  1  0  0  0  0
 25 23  1  0  0  0  0
 26 22  1  0  0  0  0
 26 29  2  0  0  0  0
 27 24  1  0  0  0  0
 28 23  1  0  0  0  0
 28 30  1  1  0  0  0
 30 26  1  0  0  0  0
M  END
>  <MODEL>
2

>  <REMARK>
 VINA RESULT:      -7.5      2.440      3.462
  Name = 
  10 active torsions:
  status: ('A' for Active; 'I' for Inactive)
    1  A    between atoms: C_3  and  C_11
    2  A    between atoms: C_3  and  C_19
    3  A    between atoms: C_4  and  C_13
    4  A    between atoms: N_7  and  C_16
    5  A    between atoms: C_8  and  C_13
    6  A    between atoms: C_9  and  C_17
    7  A    between atoms: N_10  and  C_15
    8  A    between atoms: C_13  and  C_30
    9  A    between atoms: C_15  and  C_26
   10  A    between atoms: C_16  and  C_26
                            x       y       z     vdW  Elec       q    Type
                         _______ _______ _______ _____ _____    ______ ____

>  <TORSDO>
F 10

$$$$
=
 OpenBabel10272413523D

 30 34  0  0  1  0  0  0  0  0999 V2000
  185.9590  178.5600  141.1920 C   0  0  0  0  0  2  0  0  0  0  0  0
  185.1680  179.5930  140.5370 N   0  0  0  0  0  2  0  0  0  0  0  0
  183.6640  180.2940  138.9130 O   0  0  0  0  0  0  0  0  0  0  0  0
  184.3090  179.3380  139.4220 C   0  0  0  0  0  0  0  0  0  0  0  0
  184.1820  177.9540  138.8420 C   0  0  1  0  0  3  0  0  0  0  0  0
  181.5120  175.4830  139.2070 O   0  0  0  0  0  1  0  0  0  0  0  0
  182.7200  177.5060  138.8880 C   0  0  2  0  0  3  0  0  0  0  0  0
  182.2010  177.5440  140.3190 C   0  0  2  0  0  3  0  0  0  0  0  0
  182.6080  176.2140  139.6760 C   0  0  1  0  0  3  0  0  0  0  0  0
  180.0370  177.3970  141.3240 O   0  0  0  0  0  0  0  0  0  0  0  0
  180.7230  177.7960  140.3470 C   0  0  0  0  0  0  0  0  0  0  0  0
  180.1000  178.5410  139.3060 N   0  0  0  0  0  1  0  0  0  0  0  0
  186.3170  176.9950  137.3540 S   0  0  0  0  0  1  0  0  0  0  0  0
  184.7420  177.9080  137.4100 C   0  0  1  0  0  3  0  0  0  0  0  0
  183.7760  177.2310  136.4540 C   0  0  0  0  0  1  0  0  0  0  0  0
  187.3800  178.5540  140.6490 C   0  0  0  0  0  2  0  0  0  0  0  0
  188.3840  178.3200  141.7650 C   0  0  0  0  0  2  0  0  0  0  0  0
  188.6120  176.8890  141.9290 N   0  0  0  0  0  0  0  0  0  0  0  0
  189.2510  176.5380  143.2250 C   0  0  1  0  0  0  0  0  0  0  0  0
  190.3980  175.5860  142.9920 C   0  0  0  0  0  2  0  0  0  0  0  0
  190.0660  176.6910  142.0140 C   0  0  1  0  0  3  0  0  0  0  0  0
  189.6440  177.6860  144.1660 C   0  0  0  0  0  2  0  0  0  0  0  0
  186.4880  178.6210  147.3510 C   0  0  1  0  0  3  0  0  0  0  0  0
  188.8250  177.9660  147.9660 C   0  0  0  0  0  2  0  0  0  0  0  0
  185.4540  177.9790  146.6440 O   0  0  0  0  0  0  0  0  0  0  0  0
  188.8100  177.6940  145.4080 C   0  0  0  0  0  0  0  0  0  0  0  0
  187.3530  177.5780  148.0550 C   0  0  0  0  0  2  0  0  0  0  0  0
  186.4910  178.5210  145.8600 C   0  0  2  0  0  3  0  0  0  0  0  0
  189.4370  177.8910  146.5840 C   0  0  0  0  0  3  0  0  0  0  0  0
  187.3420  177.3820  145.3010 C   0  0  0  0  0  2  0  0  0  0  0  0
  2  1  1  0  0  0  0
  3  4  2  0  0  0  0
  4  2  1  0  0  0  0
  5  4  1  6  0  0  0
  7  5  1  1  0  0  0
  7  9  1  0  0  0  0
  7  8  1  0  0  0  0
  8 11  1  6  0  0  0
  9  6  1  6  0  0  0
  9  8  1  0  0  0  0
 11 10  2  0  0  0  0
 12 11  1  0  0  0  0
 13 14  1  0  0  0  0
 14 15  1  6  0  0  0
 14  5  1  0  0  0  0
 16  1  1  0  0  0  0
 16 17  1  0  0  0  0
 17 18  1  0  0  0  0
 18 21  1  0  0  0  0
 18 19  1  0  0  0  0
 19 22  1  1  0  0  0
 20 19  1  0  0  0  0
 21 20  1  6  0  0  0
 21 19  1  0  0  0  0
 22 26  1  0  0  0  0
 23 27  1  1  0  0  0
 24 27  1  0  0  0  0
 25 23  1  0  0  0  0
 26 29  2  0  0  0  0
 28 30  1  1  0  0  0
 28 25  1  0  0  0  0
 28 23  1  0  0  0  0
 29 24  1  0  0  0  0
 30 26  1  0  0  0  0
M  END
>  <MODEL>
3

>  <REMARK>
 VINA RESULT:      -7.4      2.418      3.697
  Name = 
  10 active torsions:
  status: ('A' for Active; 'I' for Inactive)
    1  A    between atoms: C_3  and  C_11
    2  A    between atoms: C_3  and  C_19
    3  A    between atoms: C_4  and  C_13
    4  A    between atoms: N_7  and  C_16
    5  A    between atoms: C_8  and  C_13
    6  A    between atoms: C_9  and  C_17
    7  A    between atoms: N_10  and  C_15
    8  A    between atoms: C_13  and  C_30
    9  A    between atoms: C_15  and  C_26
   10  A    between atoms: C_16  and  C_26
                            x       y       z     vdW  Elec       q    Type
                         _______ _______ _______ _____ _____    ______ ____

>  <TORSDO>
F 10

$$$$
=
 OpenBabel10272413523D

 30 34  0  0  1  0  0  0  0  0999 V2000
  188.2190  177.9330  140.3660 C   0  0  0  0  0  2  0  0  0  0  0  0
  188.6060  178.7540  139.2260 N   0  0  0  0  0  2  0  0  0  0  0  0
  189.2500  178.9990  137.0080 O   0  0  0  0  0  0  0  0  0  0  0  0
  188.9210  178.2150  137.9390 C   0  0  0  0  0  0  0  0  0  0  0  0
  188.8800  176.7300  137.6890 C   0  0  1  0  0  3  0  0  0  0  0  0
  186.4090  174.6470  135.9770 O   0  0  0  0  0  1  0  0  0  0  0  0
  187.8760  176.4200  136.5760 C   0  0  2  0  0  3  0  0  0  0  0  0
  186.4800  176.8700  136.9840 C   0  0  2  0  0  3  0  0  0  0  0  0
  186.8730  175.3920  137.0660 C   0  0  1  0  0  3  0  0  0  0  0  0
  184.4040  177.2240  135.8520 O   0  0  0  0  0  0  0  0  0  0  0  0
  185.6600  177.2300  135.7810 C   0  0  0  0  0  0  0  0  0  0  0  0
  186.2950  177.6420  134.5740 N   0  0  0  0  0  1  0  0  0  0  0  0
  191.4640  176.5760  138.6820 S   0  0  0  0  0  1  0  0  0  0  0  0
  190.2810  176.1940  137.3510 C   0  0  1  0  0  3  0  0  0  0  0  0
  190.2700  174.6880  137.1540 C   0  0  0  0  0  1  0  0  0  0  0  0
  187.6690  178.8020  141.4850 C   0  0  0  0  0  2  0  0  0  0  0  0
  186.5040  178.1170  142.1790 C   0  0  0  0  0  2  0  0  0  0  0  0
  185.7370  179.1000  142.9370 N   0  0  0  0  0  0  0  0  0  0  0  0
  185.5980  178.7570  144.3770 C   0  0  1  0  0  0  0  0  0  0  0  0
  184.1610  178.9160  144.8080 C   0  0  0  0  0  2  0  0  0  0  0  0
  184.5300  178.4180  143.4290 C   0  0  1  0  0  3  0  0  0  0  0  0
  186.1950  177.4260  144.8600 C   0  0  0  0  0  2  0  0  0  0  0  0
  189.9720  177.0130  147.4170 C   0  0  1  0  0  3  0  0  0  0  0  0
  187.8450  177.9470  148.3510 C   0  0  0  0  0  2  0  0  0  0  0  0
  190.8300  177.4100  146.3740 O   0  0  0  0  0  0  0  0  0  0  0  0
  187.2870  177.6390  145.8600 C   0  0  0  0  0  0  0  0  0  0  0  0
  189.3050  178.2430  148.0280 C   0  0  0  0  0  2  0  0  0  0  0  0
  189.6340  176.7780  145.9800 C   0  0  2  0  0  3  0  0  0  0  0  0
  186.9390  177.7530  147.1550 C   0  0  0  0  0  3  0  0  0  0  0  0
  188.6980  177.8180  145.3690 C   0  0  0  0  0  2  0  0  0  0  0  0
  1 16  1  0  0  0  0
  2  1  1  0  0  0  0
  3  4  2  0  0  0  0
  4  2  1  0  0  0  0
  5  4  1  6  0  0  0
  7  8  1  0  0  0  0
  7  9  1  0  0  0  0
  7  5  1  1  0  0  0
  8 11  1  6  0  0  0
  8  9  1  0  0  0  0
  9  6  1  6  0  0  0
 11 10  2  0  0  0  0
 12 11  1  0  0  0  0
 14 15  1  1  0  0  0
 14  5  1  0  0  0  0
 14 13  1  0  0  0  0
 16 17  1  0  0  0  0
 17 18  1  0  0  0  0
 18 21  1  0  0  0  0
 18 19  1  0  0  0  0
 19 20  1  0  0  0  0
 19 22  1  1  0  0  0
 21 19  1  0  0  0  0
 21 20  1  1  0  0  0
 22 26  1  0  0  0  0
 23 27  1  6  0  0  0
 25 23  1  0  0  0  0
 26 29  2  0  0  0  0
 27 24  1  0  0  0  0
 28 30  1  6  0  0  0
 28 25  1  0  0  0  0
 28 23  1  0  0  0  0
 29 24  1  0  0  0  0
 30 26  1  0  0  0  0
M  END
>  <MODEL>
4

>  <REMARK>
 VINA RESULT:      -7.3      1.950      2.573
  Name = 
  10 active torsions:
  status: ('A' for Active; 'I' for Inactive)
    1  A    between atoms: C_3  and  C_11
    2  A    between atoms: C_3  and  C_19
    3  A    between atoms: C_4  and  C_13
    4  A    between atoms: N_7  and  C_16
    5  A    between atoms: C_8  and  C_13
    6  A    between atoms: C_9  and  C_17
    7  A    between atoms: N_10  and  C_15
    8  A    between atoms: C_13  and  C_30
    9  A    between atoms: C_15  and  C_26
   10  A    between atoms: C_16  and  C_26
                            x       y       z     vdW  Elec       q    Type
                         _______ _______ _______ _____ _____    ______ ____

>  <TORSDO>
F 10

$$$$
=
 OpenBabel10272413523D

 30 34  0  0  1  0  0  0  0  0999 V2000
  187.7810  178.2680  140.8570 C   0  0  0  0  0  2  0  0  0  0  0  0
  188.3440  179.0050  139.7330 N   0  0  0  0  0  2  0  0  0  0  0  0
  189.2470  179.0980  137.5960 O   0  0  0  0  0  0  0  0  0  0  0  0
  188.7670  178.3830  138.5170 C   0  0  0  0  0  0  0  0  0  0  0  0
  188.6630  176.8920  138.3310 C   0  0  1  0  0  3  0  0  0  0  0  0
  186.8860  174.7430  135.9660 O   0  0  0  0  0  1  0  0  0  0  0  0
  187.9850  176.5830  136.9940 C   0  0  2  0  0  3  0  0  0  0  0  0
  186.4940  176.8810  137.0760 C   0  0  2  0  0  3  0  0  0  0  0  0
  187.0040  175.4390  137.1720 C   0  0  1  0  0  3  0  0  0  0  0  0
  184.7160  177.1530  135.5010 O   0  0  0  0  0  0  0  0  0  0  0  0
  185.9490  177.2610  135.7320 C   0  0  0  0  0  0  0  0  0  0  0  0
  186.8070  177.8030  134.7340 N   0  0  0  0  0  1  0  0  0  0  0  0
  190.8590  176.1710  136.8000 S   0  0  0  0  0  1  0  0  0  0  0  0
  190.0470  176.2310  138.4290 C   0  0  1  0  0  3  0  0  0  0  0  0
  190.9610  176.9860  139.3790 C   0  0  0  0  0  1  0  0  0  0  0  0
  186.3810  178.7690  141.1750 C   0  0  0  0  0  2  0  0  0  0  0  0
  185.8290  178.0820  142.4120 C   0  0  0  0  0  2  0  0  0  0  0  0
  185.8660  179.0030  143.5430 N   0  0  0  0  0  0  0  0  0  0  0  0
  186.5280  178.4330  144.7470 C   0  0  1  0  0  0  0  0  0  0  0  0
  185.6810  178.6880  145.9690 C   0  0  0  0  0  2  0  0  0  0  0  0
  185.0660  178.3980  144.6190 C   0  0  1  0  0  3  0  0  0  0  0  0
  187.0090  176.9760  144.6790 C   0  0  0  0  0  2  0  0  0  0  0  0
  191.2970  177.9360  143.3870 C   0  0  1  0  0  3  0  0  0  0  0  0
  190.1920  175.7730  142.7810 C   0  0  0  0  0  2  0  0  0  0  0  0
  191.6250  178.5490  144.6110 O   0  0  0  0  0  0  0  0  0  0  0  0
  188.4580  176.8870  144.3190 C   0  0  0  0  0  0  0  0  0  0  0  0
  191.3430  176.4180  143.5450 C   0  0  0  0  0  2  0  0  0  0  0  0
  190.2680  178.6140  144.2330 C   0  0  2  0  0  3  0  0  0  0  0  0
  188.8110  176.0290  143.3430 C   0  0  0  0  0  3  0  0  0  0  0  0
  189.4570  177.6740  145.1230 C   0  0  0  0  0  2  0  0  0  0  0  0
  1 16  1  0  0  0  0
  2  1  1  0  0  0  0
  3  4  2  0  0  0  0
  4  2  1  0  0  0  0
  5 14  1  0  0  0  0
  5  4  1  6  0  0  0
  7  8  1  0  0  0  0
  7  9  1  0  0  0  0
  7  5  1  1  0  0  0
  8 11  1  6  0  0  0
  8  9  1  0  0  0  0
  9  6  1  6  0  0  0
 10 11  2  0  0  0  0
 12 11  1  0  0  0  0
 13 14  1  0  0  0  0
 14 15  1  1  0  0  0
 16 17  1  0  0  0  0
 17 18  1  0  0  0  0
 18 21  1  0  0  0  0
 18 19  1  0  0  0  0
 19 22  1  6  0  0  0
 19 20  1  0  0  0  0
 21 19  1  0  0  0  0
 21 20  1  1  0  0  0
 23 27  1  1  0  0  0
 23 28  1  0  0  0  0
 23 25  1  0  0  0  0
 24 29  1  0  0  0  0
 24 27  1  0  0  0  0
 26 22  1  0  0  0  0
 26 30  1  0  0  0  0
 28 25  1  0  0  0  0
 28 30  1  1  0  0  0
 29 26  2  0  0  0  0
M  END
>  <MODEL>
5

>  <REMARK>
 VINA RESULT:      -7.2      2.295      3.400
  Name = 
  10 active torsions:
  status: ('A' for Active; 'I' for Inactive)
    1  A    between atoms: C_3  and  C_11
    2  A    between atoms: C_3  and  C_19
    3  A    between atoms: C_4  and  C_13
    4  A    between atoms: N_7  and  C_16
    5  A    between atoms: C_8  and  C_13
    6  A    between atoms: C_9  and  C_17
    7  A    between atoms: N_10  and  C_15
    8  A    between atoms: C_13  and  C_30
    9  A    between atoms: C_15  and  C_26
   10  A    between atoms: C_16  and  C_26
                            x       y       z     vdW  Elec       q    Type
                         _______ _______ _______ _____ _____    ______ ____

>  <TORSDO>
F 10

$$$$
=
 OpenBabel10272413523D

 30 34  0  0  1  0  0  0  0  0999 V2000
  185.5650  178.4820  140.1210 C   0  0  0  0  0  2  0  0  0  0  0  0
  184.8710  179.6890  139.6910 N   0  0  0  0  0  2  0  0  0  0  0  0
  183.0170  180.7790  138.8160 O   0  0  0  0  0  0  0  0  0  0  0  0
  183.5390  179.6880  139.1680 C   0  0  0  0  0  0  0  0  0  0  0  0
  182.7660  178.4040  139.0200 C   0  0  1  0  0  3  0  0  0  0  0  0
  180.0050  176.9640  140.9370 O   0  0  0  0  0  1  0  0  0  0  0  0
  181.4790  178.4770  139.8450 C   0  0  2  0  0  3  0  0  0  0  0  0
  181.8080  178.5630  141.3290 C   0  0  2  0  0  3  0  0  0  0  0  0
  181.3580  177.2360  140.7100 C   0  0  1  0  0  3  0  0  0  0  0  0
  180.4370  178.9570  143.2480 O   0  0  0  0  0  0  0  0  0  0  0  0
  180.7340  179.2990  142.0740 C   0  0  0  0  0  0  0  0  0  0  0  0
  180.0900  180.4240  141.4840 N   0  0  0  0  0  1  0  0  0  0  0  0
  182.3780  176.3180  137.2350 S   0  0  0  0  0  1  0  0  0  0  0  0
  182.4720  178.1110  137.5400 C   0  0  1  0  0  3  0  0  0  0  0  0
  181.1570  178.7300  137.0980 C   0  0  0  0  0  1  0  0  0  0  0  0
  186.4260  178.7700  141.3400 C   0  0  0  0  0  2  0  0  0  0  0  0
  185.8230  178.1480  142.5880 C   0  0  0  0  0  2  0  0  0  0  0  0
  185.2440  179.1930  143.4260 N   0  0  0  0  0  0  0  0  0  0  0  0
  185.2910  178.8770  144.8780 C   0  0  1  0  0  0  0  0  0  0  0  0
  183.9460  179.1450  145.5070 C   0  0  0  0  0  2  0  0  0  0  0  0
  184.0760  178.6060  144.1010 C   0  0  1  0  0  3  0  0  0  0  0  0
  185.8560  177.5130  145.2990 C   0  0  0  0  0  2  0  0  0  0  0  0
  190.1510  177.0050  146.8080 C   0  0  1  0  0  3  0  0  0  0  0  0
  188.2760  177.6140  148.3520 C   0  0  0  0  0  2  0  0  0  0  0  0
  190.7170  177.6240  145.6780 O   0  0  0  0  0  0  0  0  0  0  0  0
  187.1480  177.6530  146.0410 C   0  0  0  0  0  0  0  0  0  0  0  0
  189.6020  178.0710  147.7550 C   0  0  0  0  0  2  0  0  0  0  0  0
  189.4860  176.9690  145.4700 C   0  0  2  0  0  3  0  0  0  0  0  0
  187.1160  177.5370  147.3820 C   0  0  0  0  0  3  0  0  0  0  0  0
  188.3910  178.0150  145.2760 C   0  0  0  0  0  2  0  0  0  0  0  0
  1 16  1  0  0  0  0
  2  1  1  0  0  0  0
  3  4  2  0  0  0  0
  4  2  1  0  0  0  0
  5  4  1  6  0  0  0
  7  5  1  6  0  0  0
  7  9  1  0  0  0  0
  7  8  1  0  0  0  0
  8 11  1  1  0  0  0
  9  6  1  1  0  0  0
  9  8  1  0  0  0  0
 11 10  2  0  0  0  0
 12 11  1  0  0  0  0
 13 14  1  0  0  0  0
 14 15  1  1  0  0  0
 14  5  1  0  0  0  0
 16 17  1  0  0  0  0
 17 18  1  0  0  0  0
 18 21  1  0  0  0  0
 18 19  1  0  0  0  0
 19 22  1  1  0  0  0
 19 20  1  0  0  0  0
 21 19  1  0  0  0  0
 21 20  1  1  0  0  0
 22 26  1  0  0  0  0
 23 27  1  1  0  0  0
 25 23  1  0  0  0  0
 26 29  2  0  0  0  0
 27 24  1  0  0  0  0
 28 30  1  1  0  0  0
 28 25  1  0  0  0  0
 28 23  1  0  0  0  0
 29 24  1  0  0  0  0
 30 26  1  0  0  0  0
M  END
>  <MODEL>
6

>  <REMARK>
 VINA RESULT:      -7.1      2.481      3.387
  Name = 
  10 active torsions:
  status: ('A' for Active; 'I' for Inactive)
    1  A    between atoms: C_3  and  C_11
    2  A    between atoms: C_3  and  C_19
    3  A    between atoms: C_4  and  C_13
    4  A    between atoms: N_7  and  C_16
    5  A    between atoms: C_8  and  C_13
    6  A    between atoms: C_9  and  C_17
    7  A    between atoms: N_10  and  C_15
    8  A    between atoms: C_13  and  C_30
    9  A    between atoms: C_15  and  C_26
   10  A    between atoms: C_16  and  C_26
                            x       y       z     vdW  Elec       q    Type
                         _______ _______ _______ _____ _____    ______ ____

>  <TORSDO>
F 10

$$$$
=
 OpenBabel10272413523D

 30 34  0  0  1  0  0  0  0  0999 V2000
  188.4440  177.8110  140.3080 C   0  0  0  0  0  2  0  0  0  0  0  0
  188.5860  178.8140  139.2600 N   0  0  0  0  0  2  0  0  0  0  0  0
  188.9440  179.4230  137.0480 O   0  0  0  0  0  0  0  0  0  0  0  0
  188.8310  178.4910  137.8890 C   0  0  0  0  0  0  0  0  0  0  0  0
  188.9710  177.0590  137.4430 C   0  0  1  0  0  3  0  0  0  0  0  0
  191.4260  174.4170  138.0470 O   0  0  0  0  0  1  0  0  0  0  0  0
  190.0980  176.3810  138.2260 C   0  0  2  0  0  3  0  0  0  0  0  0
  191.4530  176.8330  137.6990 C   0  0  2  0  0  3  0  0  0  0  0  0
  190.8820  175.4680  137.3020 C   0  0  1  0  0  3  0  0  0  0  0  0
  193.6940  176.5560  138.4840 O   0  0  0  0  0  0  0  0  0  0  0  0
  192.4920  176.7830  138.7790 C   0  0  0  0  0  0  0  0  0  0  0  0
  192.1380  177.0560  140.1320 N   0  0  0  0  0  1  0  0  0  0  0  0
  186.2430  177.3180  137.0180 S   0  0  0  0  0  1  0  0  0  0  0  0
  187.6400  176.3050  137.6010 C   0  0  1  0  0  3  0  0  0  0  0  0
  187.6370  175.0070  136.8130 C   0  0  0  0  0  1  0  0  0  0  0  0
  188.1310  178.4740  141.6400 C   0  0  0  0  0  2  0  0  0  0  0  0
  186.8630  177.8980  142.2460 C   0  0  0  0  0  2  0  0  0  0  0  0
  186.1010  178.9620  142.8910 N   0  0  0  0  0  0  0  0  0  0  0  0
  185.8300  178.7040  144.3300 C   0  0  1  0  0  0  0  0  0  0  0  0
  184.3760  178.9670  144.6360 C   0  0  0  0  0  2  0  0  0  0  0  0
  184.8200  178.3760  143.3170 C   0  0  1  0  0  3  0  0  0  0  0  0
  186.3060  177.3690  144.9230 C   0  0  0  0  0  2  0  0  0  0  0  0
  190.0840  176.9080  147.4710 C   0  0  1  0  0  3  0  0  0  0  0  0
  187.9640  177.8470  148.4160 C   0  0  0  0  0  2  0  0  0  0  0  0
  190.9430  177.3080  146.4300 O   0  0  0  0  0  0  0  0  0  0  0  0
  187.4010  177.5660  145.9230 C   0  0  0  0  0  0  0  0  0  0  0  0
  189.4260  178.1370  148.0940 C   0  0  0  0  0  2  0  0  0  0  0  0
  189.7420  176.6870  146.0320 C   0  0  2  0  0  3  0  0  0  0  0  0
  187.0550  177.6700  147.2200 C   0  0  0  0  0  3  0  0  0  0  0  0
  188.8120  177.7390  145.4320 C   0  0  0  0  0  2  0  0  0  0  0  0
  1 16  1  0  0  0  0
  2  1  1  0  0  0  0
  3  4  2  0  0  0  0
  4  2  1  0  0  0  0
  5 14  1  0  0  0  0
  5  4  1  1  0  0  0
  7  5  1  6  0  0  0
  8  7  1  0  0  0  0
  8 11  1  1  0  0  0
  9  8  1  0  0  0  0
  9  6  1  1  0  0  0
  9  7  1  0  0  0  0
 10 11  2  0  0  0  0
 11 12  1  0  0  0  0
 13 14  1  0  0  0  0
 14 15  1  6  0  0  0
 16 17  1  0  0  0  0
 17 18  1  0  0  0  0
 18 21  1  0  0  0  0
 18 19  1  0  0  0  0
 19 20  1  0  0  0  0
 19 22  1  1  0  0  0
 21 19  1  0  0  0  0
 21 20  1  1  0  0  0
 22 26  1  0  0  0  0
 23 27  1  6  0  0  0
 25 23  1  0  0  0  0
 26 29  2  0  0  0  0
 27 24  1  0  0  0  0
 28 30  1  6  0  0  0
 28 25  1  0  0  0  0
 28 23  1  0  0  0  0
 29 24  1  0  0  0  0
 30 26  1  0  0  0  0
M  END
>  <MODEL>
7

>  <REMARK>
 VINA RESULT:      -7.1      2.309      3.991
  Name = 
  10 active torsions:
  status: ('A' for Active; 'I' for Inactive)
    1  A    between atoms: C_3  and  C_11
    2  A    between atoms: C_3  and  C_19
    3  A    between atoms: C_4  and  C_13
    4  A    between atoms: N_7  and  C_16
    5  A    between atoms: C_8  and  C_13
    6  A    between atoms: C_9  and  C_17
    7  A    between atoms: N_10  and  C_15
    8  A    between atoms: C_13  and  C_30
    9  A    between atoms: C_15  and  C_26
   10  A    between atoms: C_16  and  C_26
                            x       y       z     vdW  Elec       q    Type
                         _______ _______ _______ _____ _____    ______ ____

>  <TORSDO>
F 10

$$$$
=
 OpenBabel10272413523D

 30 34  0  0  1  0  0  0  0  0999 V2000
  188.4790  177.7750  140.2800 C   0  0  0  0  0  2  0  0  0  0  0  0
  188.5970  178.7870  139.2380 N   0  0  0  0  0  2  0  0  0  0  0  0
  188.9910  179.4220  137.0400 O   0  0  0  0  0  0  0  0  0  0  0  0
  188.9040  178.4820  137.8750 C   0  0  0  0  0  0  0  0  0  0  0  0
  189.1390  177.0620  137.4320 C   0  0  1  0  0  3  0  0  0  0  0  0
  186.7060  174.7710  135.9480 O   0  0  0  0  0  1  0  0  0  0  0  0
  188.0790  176.6580  136.4050 C   0  0  2  0  0  3  0  0  0  0  0  0
  186.6880  177.0130  136.9130 C   0  0  2  0  0  3  0  0  0  0  0  0
  187.1950  175.5690  136.9860 C   0  0  1  0  0  3  0  0  0  0  0  0
  184.5160  177.1320  135.9230 O   0  0  0  0  0  0  0  0  0  0  0  0
  185.7560  177.2890  135.7720 C   0  0  0  0  0  0  0  0  0  0  0  0
  186.2570  177.7890  134.5360 N   0  0  0  0  0  1  0  0  0  0  0  0
  191.6730  176.1730  138.1240 S   0  0  0  0  0  1  0  0  0  0  0  0
  190.5610  176.8930  136.8730 C   0  0  1  0  0  3  0  0  0  0  0  0
  190.5780  175.9850  135.6550 C   0  0  0  0  0  1  0  0  0  0  0  0
  188.3220  178.4300  141.6430 C   0  0  0  0  0  2  0  0  0  0  0  0
  189.5960  178.2920  142.4590 C   0  0  0  0  0  2  0  0  0  0  0  0
  189.9180  176.8800  142.6320 N   0  0  0  0  0  0  0  0  0  0  0  0
  190.3550  176.5390  144.0120 C   0  0  1  0  0  0  0  0  0  0  0  0
  191.6050  175.6960  143.9630 C   0  0  0  0  0  2  0  0  0  0  0  0
  191.3490  176.8020  142.9650 C   0  0  1  0  0  3  0  0  0  0  0  0
  190.4780  177.6830  145.0300 C   0  0  0  0  0  2  0  0  0  0  0  0
  186.5540  178.4590  147.2610 C   0  0  1  0  0  3  0  0  0  0  0  0
  188.7000  178.0370  148.4790 C   0  0  0  0  0  2  0  0  0  0  0  0
  185.7850  177.7010  146.3580 O   0  0  0  0  0  0  0  0  0  0  0  0
  189.3570  177.6650  146.0210 C   0  0  0  0  0  0  0  0  0  0  0  0
  187.2880  177.5240  148.2200 C   0  0  0  0  0  2  0  0  0  0  0  0
  186.9440  178.3020  145.8270 C   0  0  2  0  0  3  0  0  0  0  0  0
  189.6470  177.9620  147.3020 C   0  0  0  0  0  3  0  0  0  0  0  0
  187.9930  177.2220  145.5680 C   0  0  0  0  0  2  0  0  0  0  0  0
  1 16  1  0  0  0  0
  2  1  1  0  0  0  0
  3  4  2  0  0  0  0
  4  2  1  0  0  0  0
  5  4  1  6  0  0  0
  7  8  1  0  0  0  0
  7  9  1  0  0  0  0
  7  5  1  1  0  0  0
  8 11  1  6  0  0  0
  8  9  1  0  0  0  0
  9  6  1  6  0  0  0
 11 10  2  0  0  0  0
 12 11  1  0  0  0  0
 14 15  1  6  0  0  0
 14  5  1  0  0  0  0
 14 13  1  0  0  0  0
 16 17  1  0  0  0  0
 17 18  1  0  0  0  0
 18 21  1  0  0  0  0
 18 19  1  0  0  0  0
 19 22  1  1  0  0  0
 20 19  1  0  0  0  0
 21 20  1  6  0  0  0
 21 19  1  0  0  0  0
 22 26  1  0  0  0  0
 23 27  1  1  0  0  0
 25 23  1  0  0  0  0
 26 29  2  0  0  0  0
 27 24  1  0  0  0  0
 28 30  1  1  0  0  0
 28 25  1  0  0  0  0
 28 23  1  0  0  0  0
 29 24  1  0  0  0  0
 30 26  1  0  0  0  0
M  END
>  <MODEL>
8

>  <REMARK>
 VINA RESULT:      -7.1      2.609      3.889
  Name = 
  10 active torsions:
  status: ('A' for Active; 'I' for Inactive)
    1  A    between atoms: C_3  and  C_11
    2  A    between atoms: C_3  and  C_19
    3  A    between atoms: C_4  and  C_13
    4  A    between atoms: N_7  and  C_16
    5  A    between atoms: C_8  and  C_13
    6  A    between atoms: C_9  and  C_17
    7  A    between atoms: N_10  and  C_15
    8  A    between atoms: C_13  and  C_30
    9  A    between atoms: C_15  and  C_26
   10  A    between atoms: C_16  and  C_26
                            x       y       z     vdW  Elec       q    Type
                         _______ _______ _______ _____ _____    ______ ____

>  <TORSDO>
F 10

$$$$
=
 OpenBabel10272413523D

 30 34  0  0  1  0  0  0  0  0999 V2000
  188.4460  177.7490  140.3630 C   0  0  0  0  0  2  0  0  0  0  0  0
  188.6240  178.8010  139.3710 N   0  0  0  0  0  2  0  0  0  0  0  0
  188.9800  179.5160  137.1910 O   0  0  0  0  0  0  0  0  0  0  0  0
  188.8310  178.5440  137.9790 C   0  0  0  0  0  0  0  0  0  0  0  0
  188.8900  177.1350  137.4520 C   0  0  1  0  0  3  0  0  0  0  0  0
  191.1790  174.3100  137.8470 O   0  0  0  0  0  1  0  0  0  0  0  0
  190.0360  176.3770  138.1250 C   0  0  2  0  0  3  0  0  0  0  0  0
  191.3590  176.7120  137.4500 C   0  0  2  0  0  3  0  0  0  0  0  0
  190.6430  175.3930  137.1430 C   0  0  1  0  0  3  0  0  0  0  0  0
  192.3150  176.8290  139.6380 O   0  0  0  0  0  0  0  0  0  0  0  0
  192.5000  176.5920  138.4160 C   0  0  0  0  0  0  0  0  0  0  0  0
  193.7770  176.1480  137.9700 N   0  0  0  0  0  1  0  0  0  0  0  0
  186.1630  177.4450  137.0570 S   0  0  0  0  0  1  0  0  0  0  0  0
  187.5440  176.4190  137.6550 C   0  0  1  0  0  3  0  0  0  0  0  0
  187.4970  175.0950  136.9120 C   0  0  0  0  0  1  0  0  0  0  0  0
  188.5050  178.3270  141.7690 C   0  0  0  0  0  2  0  0  0  0  0  0
  189.9020  178.1930  142.3500 C   0  0  0  0  0  2  0  0  0  0  0  0
  190.1930  176.7870  142.6080 N   0  0  0  0  0  0  0  0  0  0  0  0
  190.5090  176.5010  144.0330 C   0  0  1  0  0  0  0  0  0  0  0  0
  191.7490  175.6470  144.1240 C   0  0  0  0  0  2  0  0  0  0  0  0
  191.5900  176.7120  143.0630 C   0  0  1  0  0  3  0  0  0  0  0  0
  190.5580  177.6850  145.0090 C   0  0  0  0  0  2  0  0  0  0  0  0
  186.6000  178.4070  147.1980 C   0  0  1  0  0  3  0  0  0  0  0  0
  188.7320  177.9790  148.4390 C   0  0  0  0  0  2  0  0  0  0  0  0
  185.8490  177.6580  146.2730 O   0  0  0  0  0  0  0  0  0  0  0  0
  189.4250  177.6470  145.9840 C   0  0  0  0  0  0  0  0  0  0  0  0
  187.3270  177.4630  148.1530 C   0  0  0  0  0  2  0  0  0  0  0  0
  187.0110  178.2730  145.7670 C   0  0  2  0  0  3  0  0  0  0  0  0
  189.6960  177.9270  147.2730 C   0  0  0  0  0  3  0  0  0  0  0  0
  188.0690  177.2030  145.5070 C   0  0  0  0  0  2  0  0  0  0  0  0
  1 16  1  0  0  0  0
  2  1  1  0  0  0  0
  3  4  2  0  0  0  0
  4  2  1  0  0  0  0
  5 14  1  0  0  0  0
  5  4  1  1  0  0  0
  7  5  1  6  0  0  0
  8  7  1  0  0  0  0
  8 11  1  1  0  0  0
  9  8  1  0  0  0  0
  9  6  1  1  0  0  0
  9  7  1  0  0  0  0
 11 10  2  0  0  0  0
 12 11  1  0  0  0  0
 13 14  1  0  0  0  0
 14 15  1  6  0  0  0
 16 17  1  0  0  0  0
 17 18  1  0  0  0  0
 18 21  1  0  0  0  0
 18 19  1  0  0  0  0
 19 20  1  0  0  0  0
 19 22  1  1  0  0  0
 21 19  1  0  0  0  0
 21 20  1  6  0  0  0
 22 26  1  0  0  0  0
 23 27  1  1  0  0  0
 25 23  1  0  0  0  0
 26 29  2  0  0  0  0
 27 24  1  0  0  0  0
 28 30  1  1  0  0  0
 28 25  1  0  0  0  0
 28 23  1  0  0  0  0
 29 24  1  0  0  0  0
 30 26  1  0  0  0  0
M  END
>  <MODEL>
9

>  <REMARK>
 VINA RESULT:      -7.0      2.886      5.031
  Name = 
  10 active torsions:
  status: ('A' for Active; 'I' for Inactive)
    1  A    between atoms: C_3  and  C_11
    2  A    between atoms: C_3  and  C_19
    3  A    between atoms: C_4  and  C_13
    4  A    between atoms: N_7  and  C_16
    5  A    between atoms: C_8  and  C_13
    6  A    between atoms: C_9  and  C_17
    7  A    between atoms: N_10  and  C_15
    8  A    between atoms: C_13  and  C_30
    9  A    between atoms: C_15  and  C_26
   10  A    between atoms: C_16  and  C_26
                            x       y       z     vdW  Elec       q    Type
                         _______ _______ _______ _____ _____    ______ ____

>  <TORSDO>
F 10

$$$$
