=
 OpenBabel10272401043D

 27 31  0  0  1  0  0  0  0  0999 V2000
  191.1500  177.7270  140.8720 C   0  0  0  0  0  2  0  0  0  0  0  0
  188.6130  177.5780  141.0420 C   0  0  0  0  0  0  0  0  0  0  0  0
  189.2690  176.5440  143.2270 N   0  0  0  0  0  2  0  0  0  0  0  0
  185.0400  178.9370  142.7570 C   0  0  0  0  0  3  0  0  0  0  0  0
  183.4500  179.1140  144.6740 C   0  0  0  0  0  1  0  0  0  0  0  0
  187.6900  178.3640  140.3320 C   0  0  0  0  0  3  0  0  0  0  0  0
  186.8030  177.4050  144.3000 C   0  0  0  0  0  3  0  0  0  0  0  0
  191.4000  176.3890  145.3280 C   0  0  0  0  0  2  0  0  0  0  0  0
  185.6030  177.8640  144.8530 C   0  0  0  0  0  3  0  0  0  0  0  0
  192.1280  177.6340  145.1300 N   0  0  0  0  0  2  0  0  0  0  0  0
  187.1290  177.7030  142.9680 C   0  0  0  0  0  0  0  0  0  0  0  0
  189.8640  177.0720  140.3550 C   0  0  1  0  0  3  0  0  0  0  0  0
  184.7230  178.6280  144.0820 C   0  0  0  0  0  0  0  0  0  0  0  0
  186.2360  178.4800  142.1960 C   0  0  0  0  0  0  0  0  0  0  0  0
  191.4160  177.4710  142.3590 C   0  0  1  0  0  3  0  0  0  0  0  0
  188.3340  177.2600  142.3960 C   0  0  0  0  0  0  0  0  0  0  0  0
  191.3860  175.5570  144.0470 C   0  0  0  0  0  2  0  0  0  0  0  0
  186.5410  178.7930  140.9130 N   0  0  0  0  0  0  0  0  0  0  0  0
  191.1550  178.6100  144.6670 C   0  0  0  0  0  2  0  0  0  0  0  0
  191.2090  178.7730  143.1480 C   0  0  0  0  0  2  0  0  0  0  0  0
  190.6560  176.2370  142.8860 C   0  0  1  0  0  3  0  0  0  0  0  0
  189.6620  176.9450  136.0580 C   0  0  0  0  0  3  0  0  0  0  0  0
  189.8040  177.0490  138.8540 C   0  0  0  0  0  0  0  0  0  0  0  0
  190.0770  175.8540  138.1790 C   0  0  0  0  0  3  0  0  0  0  0  0
  190.0090  175.8030  136.7830 C   0  0  0  0  0  3  0  0  0  0  0  0
  189.3830  178.1410  136.7260 C   0  0  0  0  0  3  0  0  0  0  0  0
  189.4510  178.1930  138.1210 C   0  0  0  0  0  3  0  0  0  0  0  0
  2 16  1  0  0  0  0
  4 13  2  0  0  0  0
  6 18  1  0  0  0  0
  6  2  2  0  0  0  0
  7  9  2  0  0  0  0
 10  8  1  0  0  0  0
 11  7  1  0  0  0  0
 12 23  1  6  0  0  0
 12  1  1  0  0  0  0
 12  2  1  0  0  0  0
 13  5  1  0  0  0  0
 13  9  1  0  0  0  0
 14  4  1  0  0  0  0
 14 11  1  0  0  0  0
 15  1  1  6  0  0  0
 15 21  1  0  0  0  0
 15 20  1  0  0  0  0
 16 11  2  0  0  0  0
 16  3  1  0  0  0  0
 17  8  1  0  0  0  0
 18 14  2  0  0  0  0
 19 10  1  0  0  0  0
 20 19  1  0  0  0  0
 21  3  1  0  0  0  0
 21 17  1  1  0  0  0
 22 26  2  0  0  0  0
 22 25  1  0  0  0  0
 24 23  1  0  0  0  0
 25 24  2  0  0  0  0
 26 27  1  0  0  0  0
 27 23  2  0  0  0  0
M  END
>  <MODEL>
1

>  <REMARK>
 VINA RESULT:      -9.8      0.000      0.000
  Name = 
  1 active torsions:
  status: ('A' for Active; 'I' for Inactive)
    1  A    between atoms: C_9  and  C_15
                            x       y       z     vdW  Elec       q    Type
                         _______ _______ _______ _____ _____    ______ ____

>  <TORSDO>
F 1

$$$$
=
 OpenBabel10272401043D

 27 31  0  0  1  0  0  0  0  0999 V2000
  189.9980  176.7470  140.3330 C   0  0  0  0  0  2  0  0  0  0  0  0
  188.0690  177.8830  141.5480 C   0  0  0  0  0  0  0  0  0  0  0  0
  187.7560  178.8130  139.2430 N   0  0  0  0  0  2  0  0  0  0  0  0
  183.9500  178.2090  142.2390 C   0  0  0  0  0  3  0  0  0  0  0  0
  181.6480  178.8700  141.5320 C   0  0  0  0  0  1  0  0  0  0  0  0
  187.4710  177.4440  142.7400 C   0  0  0  0  0  3  0  0  0  0  0  0
  185.0030  179.0970  139.8020 C   0  0  0  0  0  3  0  0  0  0  0  0
  188.2560  178.3590  136.3240 C   0  0  0  0  0  2  0  0  0  0  0  0
  183.6320  179.2010  140.0530 C   0  0  0  0  0  3  0  0  0  0  0  0
  188.4330  176.9160  136.2560 N   0  0  0  0  0  2  0  0  0  0  0  0
  185.8610  178.5520  140.7690 C   0  0  0  0  0  0  0  0  0  0  0  0
  189.5710  177.7880  141.3740 C   0  0  1  0  0  3  0  0  0  0  0  0
  183.1060  178.7590  141.2700 C   0  0  0  0  0  0  0  0  0  0  0  0
  185.3220  178.1030  141.9960 C   0  0  0  0  0  0  0  0  0  0  0  0
  189.4800  177.0400  138.9210 C   0  0  1  0  0  3  0  0  0  0  0  0
  187.2420  178.4300  140.5330 C   0  0  0  0  0  0  0  0  0  0  0  0
  189.2630  178.9860  137.2860 C   0  0  0  0  0  2  0  0  0  0  0  0
  186.1330  177.5600  142.9360 N   0  0  0  0  0  0  0  0  0  0  0  0
  187.5900  176.3480  137.2950 C   0  0  0  0  0  2  0  0  0  0  0  0
  188.3990  176.0120  138.5480 C   0  0  0  0  0  2  0  0  0  0  0  0
  189.0950  178.5200  138.7340 C   0  0  1  0  0  3  0  0  0  0  0  0
  191.7780  177.4930  145.0570 C   0  0  0  0  0  3  0  0  0  0  0  0
  190.3560  177.6700  142.6490 C   0  0  0  0  0  0  0  0  0  0  0  0
  190.6130  178.8210  143.4010 C   0  0  0  0  0  3  0  0  0  0  0  0
  191.3250  178.7330  144.6010 C   0  0  0  0  0  3  0  0  0  0  0  0
  191.5200  176.3380  144.3130 C   0  0  0  0  0  3  0  0  0  0  0  0
  190.8090  176.4240  143.1130 C   0  0  0  0  0  3  0  0  0  0  0  0
  1 12  1  0  0  0  0
  2  6  1  0  0  0  0
  3 16  1  0  0  0  0
  6 18  2  0  0  0  0
  7  9  2  0  0  0  0
  7 11  1  0  0  0  0
  8 17  1  0  0  0  0
  9 13  1  0  0  0  0
 10  8  1  0  0  0  0
 10 19  1  0  0  0  0
 11 14  2  0  0  0  0
 12  2  1  0  0  0  0
 12 23  1  1  0  0  0
 13  5  1  0  0  0  0
 13  4  2  0  0  0  0
 14  4  1  0  0  0  0
 14 18  1  0  0  0  0
 15 20  1  1  0  0  0
 15  1  1  0  0  0  0
 16 11  1  0  0  0  0
 16  2  2  0  0  0  0
 19 20  1  0  0  0  0
 21 17  1  6  0  0  0
 21 15  1  0  0  0  0
 21  3  1  0  0  0  0
 23 27  2  0  0  0  0
 23 24  1  0  0  0  0
 24 25  2  0  0  0  0
 25 22  1  0  0  0  0
 26 22  2  0  0  0  0
 27 26  1  0  0  0  0
M  END
>  <MODEL>
2

>  <REMARK>
 VINA RESULT:      -8.3      1.950      5.574
  Name = 
  1 active torsions:
  status: ('A' for Active; 'I' for Inactive)
    1  A    between atoms: C_9  and  C_15
                            x       y       z     vdW  Elec       q    Type
                         _______ _______ _______ _____ _____    ______ ____

>  <TORSDO>
F 1

$$$$
=
 OpenBabel10272401043D

 27 31  0  0  1  0  0  0  0  0999 V2000
  187.0440  177.2140  143.9920 C   0  0  0  0  0  2  0  0  0  0  0  0
  186.6520  178.2470  141.6970 C   0  0  0  0  0  0  0  0  0  0  0  0
  189.1180  178.6140  141.9380 N   0  0  0  0  0  2  0  0  0  0  0  0
  187.0890  178.0310  137.5360 C   0  0  0  0  0  3  0  0  0  0  0  0
  188.4750  178.1460  135.4630 C   0  0  0  0  0  1  0  0  0  0  0  0
  185.5720  177.9730  140.8420 C   0  0  0  0  0  3  0  0  0  0  0  0
  189.3350  178.5540  139.1230 C   0  0  0  0  0  3  0  0  0  0  0  0
  191.6250  177.6520  143.2660 C   0  0  0  0  0  2  0  0  0  0  0  0
  189.4600  178.4820  137.7330 C   0  0  0  0  0  3  0  0  0  0  0  0
  191.2940  176.2750  143.6030 N   0  0  0  0  0  2  0  0  0  0  0  0
  188.0840  178.3700  139.7330 C   0  0  0  0  0  0  0  0  0  0  0  0
  186.4250  178.3640  143.1910 C   0  0  1  0  0  3  0  0  0  0  0  0
  188.3380  178.2220  136.9400 C   0  0  0  0  0  0  0  0  0  0  0  0
  186.9560  178.1030  138.9250 C   0  0  0  0  0  0  0  0  0  0  0  0
  188.5670  177.1190  143.8560 C   0  0  1  0  0  3  0  0  0  0  0  0
  187.9390  178.4280  141.1300 C   0  0  0  0  0  0  0  0  0  0  0  0
  190.6290  178.6210  143.8990 C   0  0  0  0  0  2  0  0  0  0  0  0
  185.7420  177.9070  139.4980 N   0  0  0  0  0  0  0  0  0  0  0  0
  190.3860  175.8060  142.5680 C   0  0  0  0  0  2  0  0  0  0  0  0
  188.9310  175.8740  143.0310 C   0  0  0  0  0  2  0  0  0  0  0  0
  189.1970  178.4450  143.3870 C   0  0  1  0  0  3  0  0  0  0  0  0
  182.3420  179.1200  144.3220 C   0  0  0  0  0  3  0  0  0  0  0  0
  185.0070  178.6430  143.6020 C   0  0  0  0  0  0  0  0  0  0  0  0
  184.0230  178.7680  142.6150 C   0  0  0  0  0  3  0  0  0  0  0  0
  182.6930  179.0090  142.9740 C   0  0  0  0  0  3  0  0  0  0  0  0
  183.3190  178.9900  145.3130 C   0  0  0  0  0  3  0  0  0  0  0  0
  184.6480  178.7500  144.9550 C   0  0  0  0  0  3  0  0  0  0  0  0
  2 12  1  0  0  0  0
  3 21  1  0  0  0  0
  4 14  1  0  0  0  0
  5 13  1  0  0  0  0
  6  2  2  0  0  0  0
  7 11  1  0  0  0  0
  8 10  1  0  0  0  0
  8 17  1  0  0  0  0
  9  7  2  0  0  0  0
 11 16  2  0  0  0  0
 12 23  1  6  0  0  0
 12  1  1  0  0  0  0
 13  4  2  0  0  0  0
 13  9  1  0  0  0  0
 14 18  2  0  0  0  0
 14 11  1  0  0  0  0
 15 20  1  6  0  0  0
 15  1  1  0  0  0  0
 16  2  1  0  0  0  0
 16  3  1  0  0  0  0
 18  6  1  0  0  0  0
 19 20  1  0  0  0  0
 19 10  1  0  0  0  0
 21 15  1  0  0  0  0
 21 17  1  6  0  0  0
 22 26  1  0  0  0  0
 23 27  1  0  0  0  0
 24 25  1  0  0  0  0
 24 23  2  0  0  0  0
 25 22  2  0  0  0  0
 27 26  2  0  0  0  0
M  END
>  <MODEL>
3

>  <REMARK>
 VINA RESULT:      -7.9      1.570      6.054
  Name = 
  1 active torsions:
  status: ('A' for Active; 'I' for Inactive)
    1  A    between atoms: C_9  and  C_15
                            x       y       z     vdW  Elec       q    Type
                         _______ _______ _______ _____ _____    ______ ____

>  <TORSDO>
F 1

$$$$
=
 OpenBabel10272401043D

 27 31  0  0  1  0  0  0  0  0999 V2000
  188.9820  178.3200  140.1520 C   0  0  0  0  0  2  0  0  0  0  0  0
  191.0230  176.9020  139.5960 C   0  0  0  0  0  0  0  0  0  0  0  0
  189.4610  176.1730  137.7770 N   0  0  0  0  0  2  0  0  0  0  0  0
  194.2950  176.1380  137.0930 C   0  0  0  0  0  3  0  0  0  0  0  0
  195.2760  175.3410  134.9400 C   0  0  0  0  0  1  0  0  0  0  0  0
  192.3450  177.1680  139.9870 C   0  0  0  0  0  3  0  0  0  0  0  0
  191.7090  175.5880  136.1720 C   0  0  0  0  0  3  0  0  0  0  0  0
  187.0870  176.9490  136.1230 C   0  0  0  0  0  2  0  0  0  0  0  0
  192.8140  175.3360  135.3530 C   0  0  0  0  0  3  0  0  0  0  0  0
  187.1080  178.4030  136.2060 N   0  0  0  0  0  2  0  0  0  0  0  0
  191.8870  176.1130  137.4610 C   0  0  0  0  0  0  0  0  0  0  0  0
  189.8820  177.1500  140.5620 C   0  0  1  0  0  3  0  0  0  0  0  0
  194.1050  175.6100  135.8130 C   0  0  0  0  0  0  0  0  0  0  0  0
  193.1950  176.3910  137.9180 C   0  0  0  0  0  0  0  0  0  0  0  0
  188.2850  178.1190  138.8030 C   0  0  1  0  0  3  0  0  0  0  0  0
  190.7900  176.3830  138.2960 C   0  0  0  0  0  0  0  0  0  0  0  0
  187.0040  176.3270  137.5150 C   0  0  0  0  0  2  0  0  0  0  0  0
  193.3860  176.9130  139.1540 N   0  0  0  0  0  0  0  0  0  0  0  0
  188.5050  178.7880  136.3130 C   0  0  0  0  0  2  0  0  0  0  0  0
  188.8940  179.0750  137.7640 C   0  0  0  0  0  2  0  0  0  0  0  0
  188.2190  176.6340  138.3940 C   0  0  1  0  0  3  0  0  0  0  0  0
  190.9530  177.3780  144.7240 C   0  0  0  0  0  3  0  0  0  0  0  0
  190.2750  177.2160  142.0100 C   0  0  0  0  0  0  0  0  0  0  0  0
  190.1420  178.4270  142.6980 C   0  0  0  0  0  3  0  0  0  0  0  0
  190.4830  178.5090  144.0510 C   0  0  0  0  0  3  0  0  0  0  0  0
  191.0830  176.1630  144.0440 C   0  0  0  0  0  3  0  0  0  0  0  0
  190.7430  176.0810  142.6910 C   0  0  0  0  0  3  0  0  0  0  0  0
  1 12  1  0  0  0  0
  2  6  1  0  0  0  0
  2 12  1  0  0  0  0
  3 16  1  0  0  0  0
  3 21  1  0  0  0  0
  4 14  1  0  0  0  0
  5 13  1  0  0  0  0
  7 11  1  0  0  0  0
  8 10  1  0  0  0  0
  8 17  1  0  0  0  0
  9 13  1  0  0  0  0
  9  7  2  0  0  0  0
 10 19  1  0  0  0  0
 11 14  2  0  0  0  0
 11 16  1  0  0  0  0
 12 23  1  1  0  0  0
 13  4  2  0  0  0  0
 14 18  1  0  0  0  0
 15 20  1  6  0  0  0
 15  1  1  0  0  0  0
 16  2  2  0  0  0  0
 18  6  2  0  0  0  0
 19 20  1  0  0  0  0
 21 17  1  6  0  0  0
 21 15  1  0  0  0  0
 23 27  2  0  0  0  0
 23 24  1  0  0  0  0
 24 25  2  0  0  0  0
 25 22  1  0  0  0  0
 26 22  2  0  0  0  0
 27 26  1  0  0  0  0
M  END
>  <MODEL>
4

>  <REMARK>
 VINA RESULT:      -7.8      3.236      8.043
  Name = 
  1 active torsions:
  status: ('A' for Active; 'I' for Inactive)
    1  A    between atoms: C_9  and  C_15
                            x       y       z     vdW  Elec       q    Type
                         _______ _______ _______ _____ _____    ______ ____

>  <TORSDO>
F 1

$$$$
=
 OpenBabel10272401043D

 27 31  0  0  1  0  0  0  0  0999 V2000
  182.4000  179.1920  141.2490 C   0  0  0  0  0  2  0  0  0  0  0  0
  184.5930  178.2550  140.3560 C   0  0  0  0  0  0  0  0  0  0  0  0
  182.9730  177.1970  138.7660 N   0  0  0  0  0  2  0  0  0  0  0  0
  187.5390  178.2210  137.3770 C   0  0  0  0  0  3  0  0  0  0  0  0
  188.3360  177.6530  135.0800 C   0  0  0  0  0  1  0  0  0  0  0  0
  185.8700  178.8060  140.5560 C   0  0  0  0  0  3  0  0  0  0  0  0
  185.0270  177.1150  136.8300 C   0  0  0  0  0  3  0  0  0  0  0  0
  180.2660  177.4280  137.5030 C   0  0  0  0  0  2  0  0  0  0  0  0
  186.0250  177.1090  135.8500 C   0  0  0  0  0  3  0  0  0  0  0  0
  179.9820  178.8510  137.6250 N   0  0  0  0  0  2  0  0  0  0  0  0
  185.2780  177.6690  138.0940 C   0  0  0  0  0  0  0  0  0  0  0  0
  183.5850  178.2490  141.4860 C   0  0  1  0  0  3  0  0  0  0  0  0
  187.2790  177.6600  136.1240 C   0  0  0  0  0  0  0  0  0  0  0  0
  186.5480  178.2290  138.3620 C   0  0  0  0  0  0  0  0  0  0  0  0
  181.5700  178.8400  140.0120 C   0  0  1  0  0  3  0  0  0  0  0  0
  184.2860  177.6940  139.0900 C   0  0  0  0  0  0  0  0  0  0  0  0
  180.5300  176.8060  138.8720 C   0  0  0  0  0  2  0  0  0  0  0  0
  186.8040  178.7840  139.5720 N   0  0  0  0  0  0  0  0  0  0  0  0
  181.2630  179.5340  137.5380 C   0  0  0  0  0  2  0  0  0  0  0  0
  181.7930  179.9030  138.9240 C   0  0  0  0  0  2  0  0  0  0  0  0
  181.7670  177.3750  139.5720 C   0  0  1  0  0  3  0  0  0  0  0  0
  185.1920  178.6760  145.4560 C   0  0  0  0  0  3  0  0  0  0  0  0
  184.1660  178.4040  142.8620 C   0  0  0  0  0  0  0  0  0  0  0  0
  183.4060  179.0260  143.8580 C   0  0  0  0  0  3  0  0  0  0  0  0
  183.9190  179.1650  145.1510 C   0  0  0  0  0  3  0  0  0  0  0  0
  185.9540  178.0480  144.4670 C   0  0  0  0  0  3  0  0  0  0  0  0
  185.4440  177.9090  143.1740 C   0  0  0  0  0  3  0  0  0  0  0  0
  1 12  1  0  0  0  0
  2  6  1  0  0  0  0
  2 12  1  0  0  0  0
  3 16  1  0  0  0  0
  3 21  1  0  0  0  0
  4 14  1  0  0  0  0
  5 13  1  0  0  0  0
  7 11  1  0  0  0  0
  8 10  1  0  0  0  0
  8 17  1  0  0  0  0
  9 13  1  0  0  0  0
  9  7  2  0  0  0  0
 11 14  2  0  0  0  0
 11 16  1  0  0  0  0
 12 23  1  1  0  0  0
 13  4  2  0  0  0  0
 14 18  1  0  0  0  0
 15 20  1  6  0  0  0
 15  1  1  0  0  0  0
 16  2  2  0  0  0  0
 18  6  2  0  0  0  0
 19 10  1  0  0  0  0
 19 20  1  0  0  0  0
 21 17  1  6  0  0  0
 21 15  1  0  0  0  0
 23 27  2  0  0  0  0
 23 24  1  0  0  0  0
 24 25  2  0  0  0  0
 25 22  1  0  0  0  0
 26 22  2  0  0  0  0
 27 26  1  0  0  0  0
M  END
>  <MODEL>
5

>  <REMARK>
 VINA RESULT:      -7.3      3.802      8.837
  Name = 
  1 active torsions:
  status: ('A' for Active; 'I' for Inactive)
    1  A    between atoms: C_9  and  C_15
                            x       y       z     vdW  Elec       q    Type
                         _______ _______ _______ _____ _____    ______ ____

>  <TORSDO>
F 1

$$$$
=
 OpenBabel10272401043D

 27 31  0  0  1  0  0  0  0  0999 V2000
  187.5690  177.3170  142.7510 C   0  0  0  0  0  2  0  0  0  0  0  0
  188.5320  177.6210  140.4130 C   0  0  0  0  0  0  0  0  0  0  0  0
  190.5410  178.1790  141.8010 N   0  0  0  0  0  2  0  0  0  0  0  0
  191.0330  176.2400  137.3480 C   0  0  0  0  0  3  0  0  0  0  0  0
  193.2950  175.8290  136.3740 C   0  0  0  0  0  1  0  0  0  0  0  0
  188.0290  177.0530  139.2320 C   0  0  0  0  0  3  0  0  0  0  0  0
  192.1750  177.3220  139.6640 C   0  0  0  0  0  3  0  0  0  0  0  0
  191.8820  177.7820  144.4510 C   0  0  0  0  0  2  0  0  0  0  0  0
  192.9930  176.8600  138.6280 C   0  0  0  0  0  3  0  0  0  0  0  0
  191.2790  176.5440  144.9260 N   0  0  0  0  0  2  0  0  0  0  0  0
  190.7780  177.2520  139.5480 C   0  0  0  0  0  0  0  0  0  0  0  0
  187.5800  178.1510  141.4650 C   0  0  1  0  0  3  0  0  0  0  0  0
  192.4220  176.3200  137.4720 C   0  0  0  0  0  0  0  0  0  0  0  0
  190.2090  176.7020  138.3780 C   0  0  0  0  0  0  0  0  0  0  0  0
  188.9220  177.2720  143.4670 C   0  0  1  0  0  3  0  0  0  0  0  0
  189.9380  177.7020  140.5820 C   0  0  0  0  0  0  0  0  0  0  0  0
  190.8110  178.8350  144.1730 C   0  0  0  0  0  2  0  0  0  0  0  0
  188.8620  176.6110  138.2560 N   0  0  0  0  0  0  0  0  0  0  0  0
  190.9940  175.7470  143.7440 C   0  0  0  0  0  2  0  0  0  0  0  0
  189.5260  175.8640  143.3340 C   0  0  0  0  0  2  0  0  0  0  0  0
  189.8410  178.4390  143.0570 C   0  0  1  0  0  3  0  0  0  0  0  0
  183.5960  179.0640  140.1180 C   0  0  0  0  0  3  0  0  0  0  0  0
  186.1930  178.4570  140.9760 C   0  0  0  0  0  0  0  0  0  0  0  0
  185.1310  178.4470  141.8860 C   0  0  0  0  0  3  0  0  0  0  0  0
  183.8340  178.7470  141.4580 C   0  0  0  0  0  3  0  0  0  0  0  0
  184.6530  179.0810  139.2050 C   0  0  0  0  0  3  0  0  0  0  0  0
  185.9500  178.7810  139.6310 C   0  0  0  0  0  3  0  0  0  0  0  0
  2 16  1  0  0  0  0
  2 12  1  0  0  0  0
  3 21  1  0  0  0  0
  4 13  2  0  0  0  0
  4 14  1  0  0  0  0
  5 13  1  0  0  0  0
  6  2  2  0  0  0  0
  8 10  1  0  0  0  0
  9  7  2  0  0  0  0
 11  7  1  0  0  0  0
 11 16  2  0  0  0  0
 12 23  1  6  0  0  0
 12  1  1  0  0  0  0
 13  9  1  0  0  0  0
 14 11  1  0  0  0  0
 15  1  1  6  0  0  0
 16  3  1  0  0  0  0
 17  8  1  0  0  0  0
 18 14  2  0  0  0  0
 18  6  1  0  0  0  0
 19 10  1  0  0  0  0
 20 15  1  0  0  0  0
 20 19  1  0  0  0  0
 21 15  1  0  0  0  0
 21 17  1  1  0  0  0
 22 25  1  0  0  0  0
 23 24  1  0  0  0  0
 25 24  2  0  0  0  0
 26 27  1  0  0  0  0
 26 22  2  0  0  0  0
 27 23  2  0  0  0  0
M  END
>  <MODEL>
6

>  <REMARK>
 VINA RESULT:      -7.3      1.926      5.782
  Name = 
  1 active torsions:
  status: ('A' for Active; 'I' for Inactive)
    1  A    between atoms: C_9  and  C_15
                            x       y       z     vdW  Elec       q    Type
                         _______ _______ _______ _____ _____    ______ ____

>  <TORSDO>
F 1

$$$$
=
 OpenBabel10272401043D

 27 31  0  0  1  0  0  0  0  0999 V2000
  182.7430  179.3350  141.9850 C   0  0  0  0  0  2  0  0  0  0  0  0
  184.7810  178.2960  140.8640 C   0  0  0  0  0  0  0  0  0  0  0  0
  182.9660  177.4670  139.3500 N   0  0  0  0  0  2  0  0  0  0  0  0
  187.4810  178.2360  137.6610 C   0  0  0  0  0  3  0  0  0  0  0  0
  188.0540  177.7620  135.2770 C   0  0  0  0  0  1  0  0  0  0  0  0
  186.1090  178.7360  140.9930 C   0  0  0  0  0  3  0  0  0  0  0  0
  184.8540  177.3580  137.2540 C   0  0  0  0  0  3  0  0  0  0  0  0
  180.1980  177.9820  138.3250 C   0  0  0  0  0  2  0  0  0  0  0  0
  185.7710  177.3420  136.1980 C   0  0  0  0  0  3  0  0  0  0  0  0
  180.0380  179.4110  138.5540 N   0  0  0  0  0  2  0  0  0  0  0  0
  185.2440  177.8090  138.5240 C   0  0  0  0  0  0  0  0  0  0  0  0
  183.8640  178.2920  142.0700 C   0  0  1  0  0  3  0  0  0  0  0  0
  187.0830  177.7790  136.4020 C   0  0  0  0  0  0  0  0  0  0  0  0
  186.5710  178.2540  138.7210 C   0  0  0  0  0  0  0  0  0  0  0  0
  181.7960  179.1260  140.8000 C   0  0  1  0  0  3  0  0  0  0  0  0
  184.3350  177.8430  139.5960 C   0  0  0  0  0  0  0  0  0  0  0  0
  180.5150  177.2540  139.6300 C   0  0  0  0  0  2  0  0  0  0  0  0
  186.9610  178.7080  139.9380 N   0  0  0  0  0  0  0  0  0  0  0  0
  181.3590  180.0010  138.4050 C   0  0  0  0  0  2  0  0  0  0  0  0
  182.0200  180.2380  139.7630 C   0  0  0  0  0  2  0  0  0  0  0  0
  181.8430  177.6830  140.2600 C   0  0  1  0  0  3  0  0  0  0  0  0
  185.9090  178.3780  145.8550 C   0  0  0  0  0  3  0  0  0  0  0  0
  184.5590  178.3130  143.4010 C   0  0  0  0  0  0  0  0  0  0  0  0
  185.9030  177.9310  143.4750 C   0  0  0  0  0  3  0  0  0  0  0  0
  186.5760  177.9600  144.7010 C   0  0  0  0  0  3  0  0  0  0  0  0
  184.5690  178.7670  145.7870 C   0  0  0  0  0  3  0  0  0  0  0  0
  183.8940  178.7370  144.5640 C   0  0  0  0  0  3  0  0  0  0  0  0
  1 12  1  0  0  0  0
  2  6  1  0  0  0  0
  2 12  1  0  0  0  0
  3 16  1  0  0  0  0
  3 21  1  0  0  0  0
  4 14  1  0  0  0  0
  5 13  1  0  0  0  0
  7 11  1  0  0  0  0
  8 10  1  0  0  0  0
  8 17  1  0  0  0  0
  9 13  1  0  0  0  0
  9  7  2  0  0  0  0
 11 14  2  0  0  0  0
 11 16  1  0  0  0  0
 12 23  1  1  0  0  0
 13  4  2  0  0  0  0
 14 18  1  0  0  0  0
 15 20  1  6  0  0  0
 15  1  1  0  0  0  0
 16  2  2  0  0  0  0
 18  6  2  0  0  0  0
 19 10  1  0  0  0  0
 19 20  1  0  0  0  0
 21 17  1  6  0  0  0
 21 15  1  0  0  0  0
 23 24  2  0  0  0  0
 23 27  1  0  0  0  0
 24 25  1  0  0  0  0
 25 22  2  0  0  0  0
 26 22  1  0  0  0  0
 27 26  2  0  0  0  0
M  END
>  <MODEL>
7

>  <REMARK>
 VINA RESULT:      -6.8      3.530      8.577
  Name = 
  1 active torsions:
  status: ('A' for Active; 'I' for Inactive)
    1  A    between atoms: C_9  and  C_15
                            x       y       z     vdW  Elec       q    Type
                         _______ _______ _______ _____ _____    ______ ____

>  <TORSDO>
F 1

$$$$
