=
 OpenBabel10272402033D

 32 37  0  0  1  0  0  0  0  0999 V2000
  187.1460  177.9430  144.5750 N   0  0  2  0  0  0  0  0  0  0  0  0
  186.7630  178.0480  142.1650 C   0  0  0  0  0  0  0  0  0  0  0  0
  186.4510  177.7010  145.8420 C   0  0  0  0  0  2  0  0  0  0  0  0
  186.1290  177.8860  143.5120 C   0  0  2  0  0  3  0  0  0  0  0  0
  186.0600  178.6240  141.1060 C   0  0  0  0  0  0  0  0  0  0  0  0
  190.6670  177.6420  139.2000 C   0  0  0  0  0  2  0  0  0  0  0  0
  188.0530  177.5630  141.9640 C   0  0  0  0  0  0  0  0  0  0  0  0
  188.4970  178.4430  138.2800 C   0  0  0  0  0  2  0  0  0  0  0  0
  187.8950  178.2410  139.6430 C   0  0  0  0  0  0  0  0  0  0  0  0
  185.0760  178.9450  143.7350 C   0  0  0  0  0  0  0  0  0  0  0  0
  186.6380  178.7100  139.8780 N   0  0  0  0  0  0  0  0  0  0  0  0
  184.4310  179.4780  142.7360 N   0  0  0  0  0  0  0  0  0  0  0  0
  184.7530  179.3160  145.0770 N   0  0  0  0  0  2  0  0  0  0  0  0
  188.7410  177.0060  143.0490 O   0  0  0  0  0  0  0  0  0  0  0  0
  188.1330  176.8700  144.3400 C   0  0  1  0  0  3  0  0  0  0  0  0
  188.6450  177.6700  140.7000 C   0  0  0  0  0  0  0  0  0  0  0  0
  184.6530  179.1090  141.3290 C   0  0  2  0  0  3  0  0  0  0  0  0
  185.6120  178.9310  146.1970 C   0  0  0  0  0  2  0  0  0  0  0  0
  189.6960  177.5320  138.0340 C   0  0  0  0  0  2  0  0  0  0  0  0
  190.0140  177.0880  140.4630 C   0  0  0  0  0  2  0  0  0  0  0  0
  191.4560  176.3540  146.1820 C   0  0  0  0  0  0  0  0  0  0  0  0
  192.7010  175.8600  145.9590 F   0  0  0  0  0  0  0  0  0  0  0  0
  189.8510  177.3990  147.6670 C   0  0  0  0  0  3  0  0  0  0  0  0
  189.2090  176.8560  145.3920 C   0  0  0  0  0  0  0  0  0  0  0  0
  191.1280  176.8800  147.4410 C   0  0  0  0  0  0  0  0  0  0  0  0
  188.8970  177.3830  146.6490 C   0  0  0  0  0  3  0  0  0  0  0  0
  190.5010  176.3340  145.1550 C   0  0  0  0  0  0  0  0  0  0  0  0
  190.9470  175.6580  143.5910 Cl  0  0  0  0  0  0  0  0  0  0  0  0
  192.8040  175.7050  148.6160 O   0  0  0  0  0  1  0  0  0  0  0  0
  192.1390  176.9290  148.5340 C   0  0  0  0  0  2  0  0  0  0  0  0
  183.6680  178.0270  140.9130 C   0  0  0  0  0  2  0  0  0  0  0  0
  182.3870  178.3570  141.3550 O   0  0  0  0  0  1  0  0  0  0  0  0
  1  3  1  1  0  0  0
  3 18  1  0  0  0  0
  4  2  1  6  0  0  0
  4 10  1  0  0  0  0
  4  1  1  0  0  0  0
  5 17  1  0  0  0  0
  5  2  2  0  0  0  0
  6 20  1  0  0  0  0
  7  2  1  0  0  0  0
  7 14  1  0  0  0  0
  8  9  1  0  0  0  0
  9 11  2  0  0  0  0
  9 16  1  0  0  0  0
 10 13  1  0  0  0  0
 11  5  1  0  0  0  0
 12 10  2  0  0  0  0
 13 18  1  0  0  0  0
 14 15  1  0  0  0  0
 15  1  1  0  0  0  0
 15 24  1  1  0  0  0
 16  7  2  0  0  0  0
 17 31  1  1  0  0  0
 17 12  1  0  0  0  0
 19  8  1  0  0  0  0
 19  6  1  0  0  0  0
 20 16  1  0  0  0  0
 21 25  1  0  0  0  0
 22 21  1  0  0  0  0
 24 26  2  0  0  0  0
 25 23  2  0  0  0  0
 25 30  1  0  0  0  0
 26 23  1  0  0  0  0
 27 24  1  0  0  0  0
 27 21  2  0  0  0  0
 28 27  1  0  0  0  0
 30 29  1  0  0  0  0
 31 32  1  0  0  0  0
M  END
>  <MODEL>
1

>  <REMARK>
 VINA RESULT:      -9.6      0.000      0.000
  Name = 
  3 active torsions:
  status: ('A' for Active; 'I' for Inactive)
    1  A    between atoms: C_13  and  CA_29
    2  A    between atoms: C_16  and  C_27
    3  A    between atoms: C_19  and  C_26
                            x       y       z     vdW  Elec       q    Type
                         _______ _______ _______ _____ _____    ______ ____

>  <TORSDO>
F 3

$$$$
=
 OpenBabel10272402033D

 32 37  0  0  1  0  0  0  0  0999 V2000
  187.1370  178.0140  141.7390 N   0  0  2  0  0  0  0  0  0  0  0  0
  187.5690  178.0010  144.1420 C   0  0  0  0  0  0  0  0  0  0  0  0
  186.3070  178.6650  140.7210 C   0  0  0  0  0  2  0  0  0  0  0  0
  186.7180  178.5560  143.0420 C   0  0  2  0  0  3  0  0  0  0  0  0
  187.0580  177.8420  145.4320 C   0  0  0  0  0  0  0  0  0  0  0  0
  191.8080  176.0550  145.7040 C   0  0  0  0  0  2  0  0  0  0  0  0
  188.9010  177.6950  143.8760 C   0  0  0  0  0  0  0  0  0  0  0  0
  189.9850  176.5120  147.3360 C   0  0  0  0  0  2  0  0  0  0  0  0
  189.1760  177.0840  146.2050 C   0  0  0  0  0  0  0  0  0  0  0  0
  185.2600  178.2540  143.2920 C   0  0  0  0  0  0  0  0  0  0  0  0
  187.8670  177.3880  146.4270 N   0  0  0  0  0  0  0  0  0  0  0  0
  184.7990  178.1030  144.5010 N   0  0  0  0  0  0  0  0  0  0  0  0
  184.3730  178.1940  142.1730 N   0  0  0  0  0  2  0  0  0  0  0  0
  189.3810  177.8470  142.5700 O   0  0  0  0  0  0  0  0  0  0  0  0
  188.5550  178.3630  141.5170 C   0  0  1  0  0  3  0  0  0  0  0  0
  189.7200  177.2130  144.9050 C   0  0  0  0  0  0  0  0  0  0  0  0
  185.6280  178.2130  145.7120 C   0  0  2  0  0  3  0  0  0  0  0  0
  184.8840  178.1110  140.8050 C   0  0  0  0  0  2  0  0  0  0  0  0
  191.4860  176.6090  147.0830 C   0  0  0  0  0  2  0  0  0  0  0  0
  191.1780  176.9430  144.6350 C   0  0  0  0  0  2  0  0  0  0  0  0
  190.7980  176.9510  138.7470 C   0  0  0  0  0  0  0  0  0  0  0  0
  192.0760  176.5330  138.5580 F   0  0  0  0  0  0  0  0  0  0  0  0
  188.5690  177.3340  137.8780 C   0  0  0  0  0  3  0  0  0  0  0  0
  189.0610  177.8490  140.1970 C   0  0  0  0  0  0  0  0  0  0  0  0
  189.8870  176.9150  137.6810 C   0  0  0  0  0  0  0  0  0  0  0  0
  188.1610  177.8010  139.1280 C   0  0  0  0  0  3  0  0  0  0  0  0
  190.3940  177.4210  140.0060 C   0  0  0  0  0  0  0  0  0  0  0  0
  191.5700  177.4590  141.3170 Cl  0  0  0  0  0  0  0  0  0  0  0  0
  189.7000  177.1620  135.3410 O   0  0  0  0  0  1  0  0  0  0  0  0
  190.2950  176.3980  136.3450 C   0  0  0  0  0  2  0  0  0  0  0  0
  185.5660  179.6310  146.2590 C   0  0  0  0  0  2  0  0  0  0  0  0
  185.7800  179.6180  147.6370 O   0  0  0  0  0  1  0  0  0  0  0  0
  1  3  1  6  0  0  0
  1  4  1  0  0  0  0
  2  5  1  0  0  0  0
  3 18  1  0  0  0  0
  4 10  1  1  0  0  0
  4  2  1  0  0  0  0
  5 17  1  0  0  0  0
  5 11  2  0  0  0  0
  6 19  1  0  0  0  0
  7  2  2  0  0  0  0
  7 16  1  0  0  0  0
  9 11  1  0  0  0  0
  9  8  1  0  0  0  0
 10 12  2  0  0  0  0
 12 17  1  0  0  0  0
 13 10  1  0  0  0  0
 14  7  1  0  0  0  0
 15 24  1  6  0  0  0
 15  1  1  0  0  0  0
 15 14  1  0  0  0  0
 16  9  2  0  0  0  0
 17 31  1  6  0  0  0
 18 13  1  0  0  0  0
 19  8  1  0  0  0  0
 20 16  1  0  0  0  0
 20  6  1  0  0  0  0
 21 27  1  0  0  0  0
 22 21  1  0  0  0  0
 23 26  2  0  0  0  0
 25 23  1  0  0  0  0
 25 21  2  0  0  0  0
 26 24  1  0  0  0  0
 27 24  2  0  0  0  0
 27 28  1  0  0  0  0
 29 30  1  0  0  0  0
 30 25  1  0  0  0  0
 31 32  1  0  0  0  0
M  END
>  <MODEL>
2

>  <REMARK>
 VINA RESULT:      -9.5      2.508      6.494
  Name = 
  3 active torsions:
  status: ('A' for Active; 'I' for Inactive)
    1  A    between atoms: C_13  and  CA_29
    2  A    between atoms: C_16  and  C_27
    3  A    between atoms: C_19  and  C_26
                            x       y       z     vdW  Elec       q    Type
                         _______ _______ _______ _____ _____    ______ ____

>  <TORSDO>
F 3

$$$$
=
 OpenBabel10272402033D

 32 37  0  0  1  0  0  0  0  0999 V2000
  186.7140  178.0430  144.2660 N   0  0  2  0  0  0  0  0  0  0  0  0
  188.7840  177.7310  143.0080 C   0  0  0  0  0  0  0  0  0  0  0  0
  186.2090  178.5530  145.5440 C   0  0  0  0  0  2  0  0  0  0  0  0
  188.1810  178.1610  144.3100 C   0  0  2  0  0  3  0  0  0  0  0  0
  190.0630  177.1740  142.9600 C   0  0  0  0  0  0  0  0  0  0  0  0
  188.4390  177.0730  138.1460 C   0  0  0  0  0  2  0  0  0  0  0  0
  188.0720  177.9460  141.8310 C   0  0  0  0  0  0  0  0  0  0  0  0
  190.5840  176.5790  139.3090 C   0  0  0  0  0  2  0  0  0  0  0  0
  189.9460  177.0440  140.5890 C   0  0  0  0  0  0  0  0  0  0  0  0
  188.7400  177.3450  145.4510 C   0  0  0  0  0  0  0  0  0  0  0  0
  190.6110  176.8420  141.7600 N   0  0  0  0  0  0  0  0  0  0  0  0
  189.9340  176.8260  145.3890 N   0  0  0  0  0  0  0  0  0  0  0  0
  187.9530  177.1970  146.6350 N   0  0  0  0  0  2  0  0  0  0  0  0
  186.7840  178.4910  141.9110 O   0  0  0  0  0  0  0  0  0  0  0  0
  186.2070  178.8840  143.1630 C   0  0  1  0  0  3  0  0  0  0  0  0
  188.6390  177.5870  140.6020 C   0  0  0  0  0  0  0  0  0  0  0  0
  190.8350  176.9830  144.2370 C   0  0  2  0  0  3  0  0  0  0  0  0
  186.5330  177.5460  146.6490 C   0  0  0  0  0  2  0  0  0  0  0  0
  189.9520  177.2210  138.0780 C   0  0  0  0  0  2  0  0  0  0  0  0
  187.8980  177.8790  139.3230 C   0  0  0  0  0  2  0  0  0  0  0  0
  182.6320  178.7400  141.7850 C   0  0  0  0  0  0  0  0  0  0  0  0
  181.9780  178.7090  140.5950 F   0  0  0  0  0  0  0  0  0  0  0  0
  182.5750  178.7380  144.2080 C   0  0  0  0  0  3  0  0  0  0  0  0
  184.7070  178.8230  143.0550 C   0  0  0  0  0  0  0  0  0  0  0  0
  181.9030  178.7180  142.9830 C   0  0  0  0  0  0  0  0  0  0  0  0
  183.9690  178.7940  144.2410 C   0  0  0  0  0  3  0  0  0  0  0  0
  184.0330  178.7980  141.8130 C   0  0  0  0  0  0  0  0  0  0  0  0
  184.9130  178.8340  140.2870 Cl  0  0  0  0  0  0  0  0  0  0  0  0
  179.9820  177.7750  143.9800 O   0  0  0  0  0  1  0  0  0  0  0  0
  180.4160  178.6340  142.9700 C   0  0  0  0  0  2  0  0  0  0  0  0
  191.7600  178.1700  144.4570 C   0  0  0  0  0  2  0  0  0  0  0  0
  191.2390  179.3000  143.8270 O   0  0  0  0  0  1  0  0  0  0  0  0
  1  4  1  0  0  0  0
  1  3  1  1  0  0  0
  3 18  1  0  0  0  0
  4  2  1  6  0  0  0
  4 10  1  0  0  0  0
  5  2  1  0  0  0  0
  5 17  1  0  0  0  0
  6 20  1  0  0  0  0
  7 14  1  0  0  0  0
  7  2  2  0  0  0  0
  8  9  1  0  0  0  0
  9 16  2  0  0  0  0
  9 11  1  0  0  0  0
 10 13  1  0  0  0  0
 11  5  2  0  0  0  0
 12 10  2  0  0  0  0
 13 18  1  0  0  0  0
 14 15  1  0  0  0  0
 15 24  1  6  0  0  0
 15  1  1  0  0  0  0
 16  7  1  0  0  0  0
 17 31  1  1  0  0  0
 17 12  1  0  0  0  0
 19  6  1  0  0  0  0
 19  8  1  0  0  0  0
 20 16  1  0  0  0  0
 21 27  2  0  0  0  0
 21 25  1  0  0  0  0
 22 21  1  0  0  0  0
 23 26  1  0  0  0  0
 24 26  2  0  0  0  0
 25 23  2  0  0  0  0
 27 24  1  0  0  0  0
 28 27  1  0  0  0  0
 30 25  1  0  0  0  0
 30 29  1  0  0  0  0
 32 31  1  0  0  0  0
M  END
>  <MODEL>
3

>  <REMARK>
 VINA RESULT:      -9.4      3.367      6.538
  Name = 
  3 active torsions:
  status: ('A' for Active; 'I' for Inactive)
    1  A    between atoms: C_13  and  CA_29
    2  A    between atoms: C_16  and  C_27
    3  A    between atoms: C_19  and  C_26
                            x       y       z     vdW  Elec       q    Type
                         _______ _______ _______ _____ _____    ______ ____

>  <TORSDO>
F 3

$$$$
=
 OpenBabel10272402033D

 32 37  0  0  1  0  0  0  0  0999 V2000
  189.5820  177.5210  142.6130 N   0  0  2  0  0  0  0  0  0  0  0  0
  187.9150  177.6990  144.3890 C   0  0  0  0  0  0  0  0  0  0  0  0
  190.8760  176.9050  142.3050 C   0  0  0  0  0  2  0  0  0  0  0  0
  189.2650  177.1720  144.0080 C   0  0  2  0  0  3  0  0  0  0  0  0
  187.6320  178.0530  145.7090 C   0  0  0  0  0  0  0  0  0  0  0  0
  183.3800  179.1430  143.1480 C   0  0  0  0  0  2  0  0  0  0  0  0
  186.9230  177.7800  143.4160 C   0  0  0  0  0  0  0  0  0  0  0  0
  184.0530  179.1140  145.5440 C   0  0  0  0  0  2  0  0  0  0  0  0
  185.3860  178.5620  145.1180 C   0  0  0  0  0  0  0  0  0  0  0  0
  190.3270  177.7070  144.9370 C   0  0  0  0  0  0  0  0  0  0  0  0
  186.3830  178.4760  146.0420 N   0  0  0  0  0  0  0  0  0  0  0  0
  190.0460  178.0380  146.1660 N   0  0  0  0  0  0  0  0  0  0  0  0
  191.6730  177.7900  144.4620 N   0  0  0  0  0  2  0  0  0  0  0  0
  187.2410  177.4360  142.0970 O   0  0  0  0  0  0  0  0  0  0  0  0
  188.5410  176.9490  141.7360 C   0  0  1  0  0  3  0  0  0  0  0  0
  185.6450  178.2320  143.7660 C   0  0  0  0  0  0  0  0  0  0  0  0
  188.7040  177.9230  146.7570 C   0  0  2  0  0  3  0  0  0  0  0  0
  191.9820  177.6670  143.0380 C   0  0  0  0  0  2  0  0  0  0  0  0
  182.9410  178.7750  144.5570 C   0  0  0  0  0  2  0  0  0  0  0  0
  184.5520  178.2590  142.7290 C   0  0  0  0  0  2  0  0  0  0  0  0
  188.2180  178.2880  138.1580 C   0  0  0  0  0  0  0  0  0  0  0  0
  187.3790  179.0450  137.4040 F   0  0  0  0  0  0  0  0  0  0  0  0
  190.2510  176.9850  138.3630 C   0  0  0  0  0  3  0  0  0  0  0  0
  188.7970  177.2560  140.2850 C   0  0  0  0  0  0  0  0  0  0  0  0
  189.3810  177.7540  137.5850 C   0  0  0  0  0  0  0  0  0  0  0  0
  189.9570  176.7360  139.7040 C   0  0  0  0  0  3  0  0  0  0  0  0
  187.9160  178.0390  139.5050 C   0  0  0  0  0  0  0  0  0  0  0  0
  186.4410  178.7200  140.1860 Cl  0  0  0  0  0  0  0  0  0  0  0  0
  188.9550  177.2190  135.3260 O   0  0  0  0  0  1  0  0  0  0  0  0
  189.7260  178.0280  136.1620 C   0  0  0  0  0  2  0  0  0  0  0  0
  188.5620  176.5880  147.4710 C   0  0  0  0  0  2  0  0  0  0  0  0
  187.8570  176.7600  148.6630 O   0  0  0  0  0  1  0  0  0  0  0  0
  1  3  1  6  0  0  0
  1  4  1  0  0  0  0
  2  5  1  0  0  0  0
  3 18  1  0  0  0  0
  4  2  1  1  0  0  0
  4 10  1  0  0  0  0
  5 11  2  0  0  0  0
  5 17  1  0  0  0  0
  6 19  1  0  0  0  0
  7 16  1  0  0  0  0
  7  2  2  0  0  0  0
  9  8  1  0  0  0  0
  9 11  1  0  0  0  0
 10 12  2  0  0  0  0
 12 17  1  0  0  0  0
 13 10  1  0  0  0  0
 14  7  1  0  0  0  0
 15 24  1  6  0  0  0
 15 14  1  0  0  0  0
 15  1  1  0  0  0  0
 16  9  2  0  0  0  0
 17 31  1  6  0  0  0
 18 13  1  0  0  0  0
 19  8  1  0  0  0  0
 20  6  1  0  0  0  0
 20 16  1  0  0  0  0
 21 27  1  0  0  0  0
 22 21  1  0  0  0  0
 23 26  2  0  0  0  0
 25 21  2  0  0  0  0
 25 23  1  0  0  0  0
 26 24  1  0  0  0  0
 27 28  1  0  0  0  0
 27 24  2  0  0  0  0
 29 30  1  0  0  0  0
 30 25  1  0  0  0  0
 31 32  1  0  0  0  0
M  END
>  <MODEL>
4

>  <REMARK>
 VINA RESULT:      -9.2      3.204      7.358
  Name = 
  3 active torsions:
  status: ('A' for Active; 'I' for Inactive)
    1  A    between atoms: C_13  and  CA_29
    2  A    between atoms: C_16  and  C_27
    3  A    between atoms: C_19  and  C_26
                            x       y       z     vdW  Elec       q    Type
                         _______ _______ _______ _____ _____    ______ ____

>  <TORSDO>
F 3

$$$$
=
 OpenBabel10272402033D

 32 37  0  0  1  0  0  0  0  0999 V2000
  187.2350  177.7960  142.2920 N   0  0  2  0  0  0  0  0  0  0  0  0
  188.7170  177.6080  140.3600 C   0  0  0  0  0  0  0  0  0  0  0  0
  187.2430  178.1050  143.7250 C   0  0  0  0  0  2  0  0  0  0  0  0
  188.6350  177.8390  141.8380 C   0  0  2  0  0  3  0  0  0  0  0  0
  189.8430  177.0100  139.7910 C   0  0  0  0  0  0  0  0  0  0  0  0
  186.6900  177.7940  135.8830 C   0  0  0  0  0  2  0  0  0  0  0  0
  187.6760  178.0500  139.5490 C   0  0  0  0  0  0  0  0  0  0  0  0
  189.0400  177.0160  136.1410 C   0  0  0  0  0  2  0  0  0  0  0  0
  188.9210  177.2870  137.6160 C   0  0  0  0  0  0  0  0  0  0  0  0
  189.4600  176.8180  142.5830 C   0  0  0  0  0  0  0  0  0  0  0  0
  189.9180  176.8620  138.4410 N   0  0  0  0  0  0  0  0  0  0  0  0
  190.5050  176.2640  142.0360 N   0  0  0  0  0  0  0  0  0  0  0  0
  189.1090  176.5080  143.9340 N   0  0  0  0  0  2  0  0  0  0  0  0
  186.5520  178.6300  140.1500 O   0  0  0  0  0  0  0  0  0  0  0  0
  186.4720  178.8320  141.5670 C   0  0  1  0  0  3  0  0  0  0  0  0
  187.7560  177.8780  138.1620 C   0  0  0  0  0  0  0  0  0  0  0  0
  190.9770  176.5730  140.6770 C   0  0  2  0  0  3  0  0  0  0  0  0
  187.8190  176.9130  144.4920 C   0  0  0  0  0  2  0  0  0  0  0  0
  188.0980  177.8840  135.3140 C   0  0  0  0  0  2  0  0  0  0  0  0
  186.6610  178.4140  137.2770 C   0  0  0  0  0  2  0  0  0  0  0  0
  182.6470  178.5660  141.5520 C   0  0  0  0  0  0  0  0  0  0  0  0
  181.6320  178.2380  140.7110 F   0  0  0  0  0  0  0  0  0  0  0  0
  183.4090  179.2780  143.7390 C   0  0  0  0  0  3  0  0  0  0  0  0
  185.0260  178.8580  141.9810 C   0  0  0  0  0  0  0  0  0  0  0  0
  182.3650  178.9520  142.8710 C   0  0  0  0  0  0  0  0  0  0  0  0
  184.7310  179.2340  143.2950 C   0  0  0  0  0  3  0  0  0  0  0  0
  183.9740  178.5210  141.0990 C   0  0  0  0  0  0  0  0  0  0  0  0
  184.2890  178.0410  139.4330 Cl  0  0  0  0  0  0  0  0  0  0  0  0
  180.3430  180.1660  142.9710 O   0  0  0  0  0  1  0  0  0  0  0  0
  180.9630  178.9820  143.3730 C   0  0  0  0  0  2  0  0  0  0  0  0
  192.0360  177.6630  140.7270 C   0  0  0  0  0  2  0  0  0  0  0  0
  193.1420  177.2850  139.9660 O   0  0  0  0  0  1  0  0  0  0  0  0
  1  3  1  1  0  0  0
  3 18  1  0  0  0  0
  4  2  1  6  0  0  0
  4  1  1  0  0  0  0
  4 10  1  0  0  0  0
  5  2  1  0  0  0  0
  5 17  1  0  0  0  0
  6 20  1  0  0  0  0
  7 14  1  0  0  0  0
  7  2  2  0  0  0  0
  8  9  1  0  0  0  0
  9 16  2  0  0  0  0
  9 11  1  0  0  0  0
 10 13  1  0  0  0  0
 11  5  2  0  0  0  0
 12 10  2  0  0  0  0
 13 18  1  0  0  0  0
 14 15  1  0  0  0  0
 15 24  1  1  0  0  0
 15  1  1  0  0  0  0
 16  7  1  0  0  0  0
 17 31  1  1  0  0  0
 17 12  1  0  0  0  0
 19  6  1  0  0  0  0
 19  8  1  0  0  0  0
 20 16  1  0  0  0  0
 21 25  1  0  0  0  0
 22 21  1  0  0  0  0
 24 26  2  0  0  0  0
 25 30  1  0  0  0  0
 25 23  2  0  0  0  0
 26 23  1  0  0  0  0
 27 21  2  0  0  0  0
 27 24  1  0  0  0  0
 28 27  1  0  0  0  0
 29 30  1  0  0  0  0
 32 31  1  0  0  0  0
M  END
>  <MODEL>
5

>  <REMARK>
 VINA RESULT:      -9.0      3.914      6.865
  Name = 
  3 active torsions:
  status: ('A' for Active; 'I' for Inactive)
    1  A    between atoms: C_13  and  CA_29
    2  A    between atoms: C_16  and  C_27
    3  A    between atoms: C_19  and  C_26
                            x       y       z     vdW  Elec       q    Type
                         _______ _______ _______ _____ _____    ______ ____

>  <TORSDO>
F 3

$$$$
=
 OpenBabel10272402033D

 32 37  0  0  1  0  0  0  0  0999 V2000
  185.8100  178.6370  139.1290 N   0  0  2  0  0  0  0  0  0  0  0  0
  186.6090  178.1500  141.3850 C   0  0  0  0  0  0  0  0  0  0  0  0
  186.0640  178.3140  137.7220 C   0  0  0  0  0  2  0  0  0  0  0  0
  186.8360  177.9380  139.9200 C   0  0  2  0  0  3  0  0  0  0  0  0
  187.6770  178.1490  142.2830 C   0  0  0  0  0  0  0  0  0  0  0  0
  183.5940  179.1190  145.1480 C   0  0  0  0  0  2  0  0  0  0  0  0
  185.3050  178.2950  141.8510 C   0  0  0  0  0  0  0  0  0  0  0  0
  186.0000  178.6550  145.5840 C   0  0  0  0  0  2  0  0  0  0  0  0
  186.1770  178.4250  144.1080 C   0  0  0  0  0  0  0  0  0  0  0  0
  188.2150  178.4070  139.5220 C   0  0  0  0  0  0  0  0  0  0  0  0
  187.4400  178.2880  143.6150 N   0  0  0  0  0  0  0  0  0  0  0  0
  189.2020  178.4050  140.3730 N   0  0  0  0  0  0  0  0  0  0  0  0
  188.4390  178.8020  138.1660 N   0  0  0  0  0  2  0  0  0  0  0  0
  184.2550  178.3100  140.9250 O   0  0  0  0  0  0  0  0  0  0  0  0
  184.4820  178.1240  139.5220 C   0  0  1  0  0  3  0  0  0  0  0  0
  185.0730  178.4530  143.2230 C   0  0  0  0  0  0  0  0  0  0  0  0
  189.0770  177.9530  141.7680 C   0  0  2  0  0  3  0  0  0  0  0  0
  187.3210  179.0530  137.2570 C   0  0  0  0  0  2  0  0  0  0  0  0
  184.5730  178.3790  146.0470 C   0  0  0  0  0  2  0  0  0  0  0  0
  183.6590  178.5440  143.7360 C   0  0  0  0  0  2  0  0  0  0  0  0
  181.6060  178.7920  137.0760 C   0  0  0  0  0  0  0  0  0  0  0  0
  180.8810  178.1480  136.1250 F   0  0  0  0  0  0  0  0  0  0  0  0
  182.0680  180.7940  138.3610 C   0  0  0  0  0  3  0  0  0  0  0  0
  183.3730  178.7870  138.7510 C   0  0  0  0  0  0  0  0  0  0  0  0
  181.3320  180.1350  137.3740 C   0  0  0  0  0  0  0  0  0  0  0  0
  183.0850  180.1230  139.0420 C   0  0  0  0  0  3  0  0  0  0  0  0
  182.6280  178.1130  137.7570 C   0  0  0  0  0  0  0  0  0  0  0  0
  182.9480  176.4290  137.3490 Cl  0  0  0  0  0  0  0  0  0  0  0  0
  180.7280  182.0470  136.1290 O   0  0  0  0  0  1  0  0  0  0  0  0
  180.2350  180.8620  136.6760 C   0  0  0  0  0  2  0  0  0  0  0  0
  189.4620  176.4860  141.8770 C   0  0  0  0  0  2  0  0  0  0  0  0
  190.4760  176.1920  140.9660 O   0  0  0  0  0  1  0  0  0  0  0  0
  1  3  1  6  0  0  0
  1 15  1  0  0  0  0
  1  4  1  0  0  0  0
  2  7  2  0  0  0  0
  2  5  1  0  0  0  0
  4 10  1  6  0  0  0
  4  2  1  0  0  0  0
  5 11  2  0  0  0  0
  6 19  1  0  0  0  0
  7 16  1  0  0  0  0
  8 19  1  0  0  0  0
  9  8  1  0  0  0  0
 10 12  2  0  0  0  0
 11  9  1  0  0  0  0
 12 17  1  0  0  0  0
 13 10  1  0  0  0  0
 14  7  1  0  0  0  0
 15 24  1  6  0  0  0
 15 14  1  0  0  0  0
 16 20  1  0  0  0  0
 16  9  2  0  0  0  0
 17 31  1  6  0  0  0
 17  5  1  0  0  0  0
 18  3  1  0  0  0  0
 18 13  1  0  0  0  0
 20  6  1  0  0  0  0
 21 25  2  0  0  0  0
 21 27  1  0  0  0  0
 22 21  1  0  0  0  0
 23 26  2  0  0  0  0
 24 26  1  0  0  0  0
 25 23  1  0  0  0  0
 27 24  2  0  0  0  0
 28 27  1  0  0  0  0
 29 30  1  0  0  0  0
 30 25  1  0  0  0  0
 32 31  1  0  0  0  0
M  END
>  <MODEL>
6

>  <REMARK>
 VINA RESULT:      -9.0      4.468      9.197
  Name = 
  3 active torsions:
  status: ('A' for Active; 'I' for Inactive)
    1  A    between atoms: C_13  and  CA_29
    2  A    between atoms: C_16  and  C_27
    3  A    between atoms: C_19  and  C_26
                            x       y       z     vdW  Elec       q    Type
                         _______ _______ _______ _____ _____    ______ ____

>  <TORSDO>
F 3

$$$$
=
 OpenBabel10272402033D

 32 37  0  0  1  0  0  0  0  0999 V2000
  189.0500  177.4160  141.3630 N   0  0  2  0  0  0  0  0  0  0  0  0
  187.5690  178.0120  139.5150 C   0  0  0  0  0  0  0  0  0  0  0  0
  190.4670  177.3620  141.7320 C   0  0  0  0  0  2  0  0  0  0  0  0
  188.9900  177.8550  139.9590 C   0  0  2  0  0  3  0  0  0  0  0  0
  187.2090  177.8140  138.1800 C   0  0  0  0  0  0  0  0  0  0  0  0
  182.8350  178.8590  140.5470 C   0  0  0  0  0  2  0  0  0  0  0  0
  186.6120  178.4140  140.4430 C   0  0  0  0  0  0  0  0  0  0  0  0
  183.5440  178.5420  138.1820 C   0  0  0  0  0  2  0  0  0  0  0  0
  184.9610  178.4160  138.6700 C   0  0  0  0  0  0  0  0  0  0  0  0
  189.7200  176.8760  139.0710 C   0  0  0  0  0  0  0  0  0  0  0  0
  185.9210  178.0170  137.7910 N   0  0  0  0  0  0  0  0  0  0  0  0
  189.3700  176.6980  137.8280 N   0  0  0  0  0  0  0  0  0  0  0  0
  190.8510  176.1810  139.6030 N   0  0  0  0  0  2  0  0  0  0  0  0
  186.9980  178.5870  141.7780 O   0  0  0  0  0  0  0  0  0  0  0  0
  188.3590  178.4170  142.1990 C   0  0  1  0  0  3  0  0  0  0  0  0
  185.2870  178.6040  140.0350 C   0  0  0  0  0  0  0  0  0  0  0  0
  188.2610  177.4170  137.1810 C   0  0  2  0  0  3  0  0  0  0  0  0
  191.1210  176.1640  141.0400 C   0  0  0  0  0  2  0  0  0  0  0  0
  182.6770  179.3720  139.1240 C   0  0  0  0  0  2  0  0  0  0  0  0
  184.2640  179.1020  141.0240 C   0  0  0  0  0  2  0  0  0  0  0  0
  189.4300  177.9570  145.8520 C   0  0  0  0  0  0  0  0  0  0  0  0
  190.4770  178.2380  146.6700 F   0  0  0  0  0  0  0  0  0  0  0  0
  187.2240  177.0100  145.5210 C   0  0  0  0  0  3  0  0  0  0  0  0
  188.3810  178.0440  143.6560 C   0  0  0  0  0  0  0  0  0  0  0  0
  188.3060  177.2880  146.3590 C   0  0  0  0  0  0  0  0  0  0  0  0
  187.2650  177.3830  144.1770 C   0  0  0  0  0  3  0  0  0  0  0  0
  189.4770  178.3330  144.5010 C   0  0  0  0  0  0  0  0  0  0  0  0
  190.9090  179.1640  143.8980 Cl  0  0  0  0  0  0  0  0  0  0  0  0
  187.9570  178.0270  148.5730 O   0  0  0  0  0  1  0  0  0  0  0  0
  188.2330  176.9020  147.7960 C   0  0  0  0  0  2  0  0  0  0  0  0
  188.7870  178.6560  136.4730 C   0  0  0  0  0  2  0  0  0  0  0  0
  188.7690  179.7450  137.3460 O   0  0  0  0  0  1  0  0  0  0  0  0
  1  3  1  1  0  0  0
  1 15  1  0  0  0  0
  2  4  1  0  0  0  0
  2  7  1  0  0  0  0
  4 10  1  6  0  0  0
  4  1  1  0  0  0  0
  5  2  2  0  0  0  0
  6 20  1  0  0  0  0
  7 14  1  0  0  0  0
  8  9  1  0  0  0  0
  8 19  1  0  0  0  0
  9 16  1  0  0  0  0
 10 13  1  0  0  0  0
 11  5  1  0  0  0  0
 11  9  2  0  0  0  0
 12 10  2  0  0  0  0
 13 18  1  0  0  0  0
 14 15  1  0  0  0  0
 15 24  1  1  0  0  0
 16  7  2  0  0  0  0
 16 20  1  0  0  0  0
 17 31  1  1  0  0  0
 17 12  1  0  0  0  0
 17  5  1  0  0  0  0
 18  3  1  0  0  0  0
 19  6  1  0  0  0  0
 21 25  1  0  0  0  0
 21 22  1  0  0  0  0
 23 25  2  0  0  0  0
 24 26  2  0  0  0  0
 24 27  1  0  0  0  0
 25 30  1  0  0  0  0
 26 23  1  0  0  0  0
 27 21  2  0  0  0  0
 28 27  1  0  0  0  0
 30 29  1  0  0  0  0
 31 32  1  0  0  0  0
M  END
>  <MODEL>
7

>  <REMARK>
 VINA RESULT:      -8.9      2.706      5.039
  Name = 
  3 active torsions:
  status: ('A' for Active; 'I' for Inactive)
    1  A    between atoms: C_13  and  CA_29
    2  A    between atoms: C_16  and  C_27
    3  A    between atoms: C_19  and  C_26
                            x       y       z     vdW  Elec       q    Type
                         _______ _______ _______ _____ _____    ______ ____

>  <TORSDO>
F 3

$$$$
=
 OpenBabel10272402033D

 32 37  0  0  1  0  0  0  0  0999 V2000
  189.3510  177.4420  140.7160 N   0  0  2  0  0  0  0  0  0  0  0  0
  187.3140  178.0490  139.5120 C   0  0  0  0  0  0  0  0  0  0  0  0
  190.8090  177.4070  140.5680 C   0  0  0  0  0  2  0  0  0  0  0  0
  188.8030  177.9090  139.4310 C   0  0  2  0  0  3  0  0  0  0  0  0
  186.5150  177.8730  138.3810 C   0  0  0  0  0  0  0  0  0  0  0  0
  183.2250  178.7880  142.1450 C   0  0  0  0  0  2  0  0  0  0  0  0
  186.7360  178.4140  140.7250 C   0  0  0  0  0  0  0  0  0  0  0  0
  183.0720  178.5330  139.6730 C   0  0  0  0  0  2  0  0  0  0  0  0
  184.5720  178.4230  139.6360 C   0  0  0  0  0  0  0  0  0  0  0  0
  189.1890  176.9620  138.3210 C   0  0  0  0  0  0  0  0  0  0  0  0
  185.1710  178.0600  138.4680 N   0  0  0  0  0  0  0  0  0  0  0  0
  188.4300  176.8040  137.2730 N   0  0  0  0  0  0  0  0  0  0  0  0
  190.4410  176.2770  138.4090 N   0  0  0  0  0  2  0  0  0  0  0  0
  187.5600  178.5660  141.8470 O   0  0  0  0  0  0  0  0  0  0  0  0
  188.9830  178.4130  141.7650 C   0  0  1  0  0  3  0  0  0  0  0  0
  185.3490  178.5890  140.8070 C   0  0  0  0  0  0  0  0  0  0  0  0
  187.1590  177.5160  137.0690 C   0  0  2  0  0  3  0  0  0  0  0  0
  191.1940  176.2350  139.6620 C   0  0  0  0  0  2  0  0  0  0  0  0
  182.5780  179.3280  140.8780 C   0  0  0  0  0  2  0  0  0  0  0  0
  184.7290  179.0470  142.1020 C   0  0  0  0  0  2  0  0  0  0  0  0
  189.2570  177.0890  145.3530 C   0  0  0  0  0  0  0  0  0  0  0  0
  188.4770  176.5380  146.3190 F   0  0  0  0  0  0  0  0  0  0  0  0
  191.4260  177.8610  144.5990 C   0  0  0  0  0  3  0  0  0  0  0  0
  189.5140  178.0100  143.1140 C   0  0  0  0  0  0  0  0  0  0  0  0
  190.6210  177.3060  145.5960 C   0  0  0  0  0  0  0  0  0  0  0  0
  190.8740  178.2140  143.3670 C   0  0  0  0  0  3  0  0  0  0  0  0
  188.6950  177.4430  144.1170 C   0  0  0  0  0  0  0  0  0  0  0  0
  186.9760  177.1640  143.8530 Cl  0  0  0  0  0  0  0  0  0  0  0  0
  192.3310  176.0810  146.6670 O   0  0  0  0  0  1  0  0  0  0  0  0
  191.2360  176.9140  146.8950 C   0  0  0  0  0  2  0  0  0  0  0  0
  187.3940  178.7790  136.2550 C   0  0  0  0  0  2  0  0  0  0  0  0
  187.0780  178.5460  134.9160 O   0  0  0  0  0  1  0  0  0  0  0  0
  1  3  1  6  0  0  0
  1 15  1  0  0  0  0
  2  7  1  0  0  0  0
  4 10  1  6  0  0  0
  4  2  1  0  0  0  0
  4  1  1  0  0  0  0
  5 11  1  0  0  0  0
  5  2  2  0  0  0  0
  7 16  2  0  0  0  0
  7 14  1  0  0  0  0
  8 19  1  0  0  0  0
  9  8  1  0  0  0  0
  9 16  1  0  0  0  0
 10 13  1  0  0  0  0
 11  9  2  0  0  0  0
 12 10  2  0  0  0  0
 13 18  1  0  0  0  0
 15 14  1  0  0  0  0
 15 24  1  1  0  0  0
 16 20  1  0  0  0  0
 17 31  1  1  0  0  0
 17 12  1  0  0  0  0
 17  5  1  0  0  0  0
 18  3  1  0  0  0  0
 19  6  1  0  0  0  0
 20  6  1  0  0  0  0
 21 25  1  0  0  0  0
 21 22  1  0  0  0  0
 23 25  2  0  0  0  0
 24 26  2  0  0  0  0
 24 27  1  0  0  0  0
 25 30  1  0  0  0  0
 26 23  1  0  0  0  0
 27 21  2  0  0  0  0
 28 27  1  0  0  0  0
 29 30  1  0  0  0  0
 32 31  1  0  0  0  0
M  END
>  <MODEL>
8

>  <REMARK>
 VINA RESULT:      -8.9      2.621      5.113
  Name = 
  3 active torsions:
  status: ('A' for Active; 'I' for Inactive)
    1  A    between atoms: C_13  and  CA_29
    2  A    between atoms: C_16  and  C_27
    3  A    between atoms: C_19  and  C_26
                            x       y       z     vdW  Elec       q    Type
                         _______ _______ _______ _____ _____    ______ ____

>  <TORSDO>
F 3

$$$$
=
 OpenBabel10272402033D

 32 37  0  0  1  0  0  0  0  0999 V2000
  191.5480  175.5690  136.5280 N   0  0  2  0  0  0  0  0  0  0  0  0
  190.0730  176.7280  138.0930 C   0  0  0  0  0  0  0  0  0  0  0  0
  191.7990  175.3980  135.0950 C   0  0  0  0  0  2  0  0  0  0  0  0
  190.3620  176.4340  136.6530 C   0  0  2  0  0  3  0  0  0  0  0  0
  188.7680  176.9680  138.5260 C   0  0  0  0  0  0  0  0  0  0  0  0
  191.5890  177.2140  142.7470 C   0  0  0  0  0  2  0  0  0  0  0  0
  191.1340  176.8150  138.9900 C   0  0  0  0  0  0  0  0  0  0  0  0
  189.2090  177.6660  142.1700 C   0  0  0  0  0  2  0  0  0  0  0  0
  189.5510  177.3870  140.7330 C   0  0  0  0  0  0  0  0  0  0  0  0
  189.1690  175.7870  135.9910 C   0  0  0  0  0  0  0  0  0  0  0  0
  188.5370  177.2880  139.8280 N   0  0  0  0  0  0  0  0  0  0  0  0
  187.9570  176.0170  136.4110 N   0  0  0  0  0  0  0  0  0  0  0  0
  189.3870  174.9570  134.8480 N   0  0  0  0  0  2  0  0  0  0  0  0
  192.4300  176.5520  138.5300 O   0  0  0  0  0  0  0  0  0  0  0  0
  192.6970  176.2540  137.1540 C   0  0  1  0  0  3  0  0  0  0  0  0
  190.8840  177.1290  140.3310 C   0  0  0  0  0  0  0  0  0  0  0  0
  187.6360  176.9080  137.5370 C   0  0  2  0  0  3  0  0  0  0  0  0
  190.7270  174.4810  134.5030 C   0  0  0  0  0  2  0  0  0  0  0  0
  190.4140  178.1550  142.9690 C   0  0  0  0  0  2  0  0  0  0  0  0
  192.0360  177.2880  141.2900 C   0  0  0  0  0  2  0  0  0  0  0  0
  196.1820  174.9800  136.1870 C   0  0  0  0  0  0  0  0  0  0  0  0
  197.2270  175.3180  135.3890 F   0  0  0  0  0  0  0  0  0  0  0  0
  195.1810  173.4770  137.8030 C   0  0  0  0  0  3  0  0  0  0  0  0
  193.9560  175.4340  137.0620 C   0  0  0  0  0  0  0  0  0  0  0  0
  196.2500  173.8190  136.9720 C   0  0  0  0  0  0  0  0  0  0  0  0
  194.0400  174.2790  137.8440 C   0  0  0  0  0  3  0  0  0  0  0  0
  195.0370  175.7890  136.2230 C   0  0  0  0  0  0  0  0  0  0  0  0
  194.9850  177.2340  135.2170 Cl  0  0  0  0  0  0  0  0  0  0  0  0
  198.4840  173.5750  137.6970 O   0  0  0  0  0  1  0  0  0  0  0  0
  197.4680  172.9620  136.9620 C   0  0  0  0  0  2  0  0  0  0  0  0
  187.3310  178.3060  137.0240 C   0  0  0  0  0  2  0  0  0  0  0  0
  186.2470  178.8410  137.7210 O   0  0  0  0  0  1  0  0  0  0  0  0
  1  3  1  6  0  0  0
  1  4  1  0  0  0  0
  1 15  1  0  0  0  0
  2  5  2  0  0  0  0
  2  7  1  0  0  0  0
  4 10  1  1  0  0  0
  4  2  1  0  0  0  0
  5 11  1  0  0  0  0
  6 19  1  0  0  0  0
  7 16  2  0  0  0  0
  8 19  1  0  0  0  0
  9  8  1  0  0  0  0
 10 12  2  0  0  0  0
 11  9  2  0  0  0  0
 12 17  1  0  0  0  0
 13 10  1  0  0  0  0
 14  7  1  0  0  0  0
 15 24  1  1  0  0  0
 15 14  1  0  0  0  0
 16  9  1  0  0  0  0
 16 20  1  0  0  0  0
 17 31  1  6  0  0  0
 17  5  1  0  0  0  0
 18 13  1  0  0  0  0
 18  3  1  0  0  0  0
 20  6  1  0  0  0  0
 21 27  2  0  0  0  0
 21 25  1  0  0  0  0
 22 21  1  0  0  0  0
 23 26  1  0  0  0  0
 24 26  2  0  0  0  0
 25 23  2  0  0  0  0
 27 24  1  0  0  0  0
 28 27  1  0  0  0  0
 30 25  1  0  0  0  0
 30 29  1  0  0  0  0
 31 32  1  0  0  0  0
M  END
>  <MODEL>
9

>  <REMARK>
 VINA RESULT:      -8.7      5.356      8.646
  Name = 
  3 active torsions:
  status: ('A' for Active; 'I' for Inactive)
    1  A    between atoms: C_13  and  CA_29
    2  A    between atoms: C_16  and  C_27
    3  A    between atoms: C_19  and  C_26
                            x       y       z     vdW  Elec       q    Type
                         _______ _______ _______ _____ _____    ______ ____

>  <TORSDO>
F 3

$$$$
