=
 OpenBabel10272414193D

 43 48  0  0  1  0  0  0  0  0999 V2000
  183.7440  178.7700  144.3580 C   0  0  1  0  0  3  0  0  0  0  0  0
  184.2240  178.1360  139.2920 C   0  0  0  0  0  0  0  0  0  0  0  0
  186.9560  178.3040  138.8130 C   0  0  0  0  0  0  0  0  0  0  0  0
  183.2700  178.5870  141.8960 C   0  0  0  0  0  0  0  0  0  0  0  0
  184.9840  179.5640  143.9800 C   0  0  0  0  0  2  0  0  0  0  0  0
  183.2190  179.2610  145.5520 O   0  0  0  0  0  1  0  0  0  0  0  0
  184.6560  178.6860  141.6340 C   0  0  0  0  0  0  0  0  0  0  0  0
  182.7020  178.9000  143.2520 C   0  0  0  0  0  2  0  0  0  0  0  0
  185.6390  178.9310  142.7550 C   0  0  0  0  0  2  0  0  0  0  0  0
  186.4650  178.5170  140.0610 N   0  0  0  0  0  0  0  0  0  0  0  0
  185.1320  178.4490  140.3310 C   0  0  0  0  0  0  0  0  0  0  0  0
  182.8540  178.0600  139.5670 C   0  0  0  0  0  3  0  0  0  0  0  0
  184.7120  177.8970  137.9980 C   0  0  0  0  0  0  0  0  0  0  0  0
  186.0910  177.9870  137.7650 C   0  0  0  0  0  3  0  0  0  0  0  0
  182.3820  178.2900  140.8590 C   0  0  0  0  0  3  0  0  0  0  0  0
  183.8160  177.5660  136.9640 O   0  0  0  0  0  0  0  0  0  0  0  0
  181.6020  174.5990  136.1920 C   0  0  0  0  0  2  0  0  0  0  0  0
  182.3250  173.5860  137.0770 C   0  0  2  0  0  3  0  0  0  0  0  0
  184.2190  175.1930  137.4020 C   0  0  0  0  0  2  0  0  0  0  0  0
  181.9530  176.0190  136.6220 C   0  0  0  0  0  2  0  0  0  0  0  0
  183.4680  176.2360  136.5690 C   0  0  1  0  0  3  0  0  0  0  0  0
  183.8360  173.7840  136.9570 C   0  0  0  0  0  2  0  0  0  0  0  0
  182.8370  171.2590  137.1970 O   0  0  0  0  0  1  0  0  0  0  0  0
  181.9450  172.1810  136.6480 C   0  0  0  0  0  2  0  0  0  0  0  0
  188.4240  178.3630  138.5760 C   0  0  0  0  0  2  0  0  0  0  0  0
  189.1000  177.1670  139.2220 C   0  0  0  0  0  2  0  0  0  0  0  0
  189.9390  177.6080  140.4150 C   0  0  2  0  0  3  0  0  0  0  0  0
  191.5880  176.8440  138.8680 O   0  0  0  0  0  1  0  0  0  0  0  0
  191.4090  177.3080  140.1710 C   0  0  0  0  0  2  0  0  0  0  0  0
  189.4630  176.9590  141.7150 C   0  0  0  0  0  2  0  0  0  0  0  0
  190.5600  176.8170  142.6760 N   0  0  0  0  0  0  0  0  0  0  0  0
  191.4380  176.6860  145.1520 S   0  0  0  0  0  0  0  0  0  0  0  0
  190.7780  175.4460  142.8820 N   0  0  0  0  0  2  0  0  0  0  0  0
  190.2440  177.4030  143.9870 C   0  0  1  0  0  0  0  0  0  0  0  0
  190.4600  178.9080  143.9270 C   0  0  0  0  0  1  0  0  0  0  0  0
  191.7410  175.3420  143.9690 C   0  0  0  0  0  2  0  0  0  0  0  0
  188.8060  177.0610  144.4480 C   0  0  0  0  0  2  0  0  0  0  0  0
  188.4690  177.5110  145.8380 C   0  0  0  0  0  0  0  0  0  0  0  0
  186.8590  178.3670  147.4350 C   0  0  0  0  0  3  0  0  0  0  0  0
  189.1190  177.8670  148.1480 C   0  0  0  0  0  3  0  0  0  0  0  0
  187.8290  178.3220  148.4410 C   0  0  0  0  0  3  0  0  0  0  0  0
  189.4390  177.4630  146.8480 C   0  0  0  0  0  3  0  0  0  0  0  0
  187.1770  177.9590  146.1360 C   0  0  0  0  0  3  0  0  0  0  0  0
  1  6  1  1  0  0  0
  2 12  1  0  0  0  0
  2 11  1  0  0  0  0
  3 10  1  0  0  0  0
  4  8  1  0  0  0  0
  5  1  1  0  0  0  0
  7  4  2  0  0  0  0
  7  9  1  0  0  0  0
  8  1  1  0  0  0  0
  9  5  1  0  0  0  0
 10 11  2  0  0  0  0
 11  7  1  0  0  0  0
 12 15  2  0  0  0  0
 13  2  2  0  0  0  0
 14 13  1  0  0  0  0
 14  3  2  0  0  0  0
 15  4  1  0  0  0  0
 16 13  1  0  0  0  0
 17 20  1  0  0  0  0
 17 18  1  0  0  0  0
 18 24  1  6  0  0  0
 21 20  1  0  0  0  0
 21 16  1  1  0  0  0
 21 19  1  0  0  0  0
 22 18  1  0  0  0  0
 22 19  1  0  0  0  0
 24 23  1  0  0  0  0
 25  3  1  0  0  0  0
 25 26  1  0  0  0  0
 27 26  1  6  0  0  0
 27 30  1  0  0  0  0
 28 29  1  0  0  0  0
 29 27  1  0  0  0  0
 30 31  1  0  0  0  0
 31 33  1  0  0  0  0
 31 34  1  0  0  0  0
 33 36  1  0  0  0  0
 34 35  1  6  0  0  0
 34 37  1  0  0  0  0
 34 32  1  0  0  0  0
 36 32  1  0  0  0  0
 37 38  1  0  0  0  0
 38 43  2  0  0  0  0
 38 42  1  0  0  0  0
 39 41  2  0  0  0  0
 40 41  1  0  0  0  0
 42 40  2  0  0  0  0
 43 39  1  0  0  0  0
M  END
>  <MODEL>
1

>  <REMARK>
 VINA RESULT:      -9.6      0.000      0.000
  Name = 
  11 active torsions:
  status: ('A' for Active; 'I' for Inactive)
    1  A    between atoms: O_1  and  C_34
    2  A    between atoms: O_1  and  C_35
    3  A    between atoms: C_2  and  C_6
    4  A    between atoms: C_2  and  C_13
    5  A    between atoms: C_3  and  N_4
    6  A    between atoms: C_3  and  C_12
    7  A    between atoms: C_6  and  C_12
    8  A    between atoms: C_11  and  C_14
    9  A    between atoms: C_12  and  C_17
   10  A    between atoms: C_14  and  C_22
   11  A    between atoms: C_19  and  C_37
                            x       y       z     vdW  Elec       q    Type
                         _______ _______ _______ _____ _____    ______ ____

>  <TORSDO>
F 11

$$$$
=
 OpenBabel10272414193D

 43 48  0  0  1  0  0  0  0  0999 V2000
  191.1960  176.1930  146.8940 C   0  0  1  0  0  3  0  0  0  0  0  0
  186.9590  177.9970  144.6370 C   0  0  0  0  0  0  0  0  0  0  0  0
  187.5670  178.0470  141.9260 C   0  0  0  0  0  0  0  0  0  0  0  0
  188.9610  177.2630  146.4670 C   0  0  0  0  0  0  0  0  0  0  0  0
  191.6920  176.9180  145.6530 C   0  0  0  0  0  2  0  0  0  0  0  0
  192.2230  176.1150  147.8330 O   0  0  0  0  0  1  0  0  0  0  0  0
  189.2610  177.3090  145.0850 C   0  0  0  0  0  0  0  0  0  0  0  0
  190.0180  176.9570  147.4910 C   0  0  0  0  0  2  0  0  0  0  0  0
  190.6140  176.8730  144.5730 C   0  0  0  0  0  2  0  0  0  0  0  0
  188.5140  177.6970  142.8340 N   0  0  0  0  0  0  0  0  0  0  0  0
  188.2540  177.6670  144.1700 C   0  0  0  0  0  0  0  0  0  0  0  0
  186.6860  177.9620  146.0090 C   0  0  0  0  0  3  0  0  0  0  0  0
  185.9610  178.3470  143.7140 C   0  0  0  0  0  0  0  0  0  0  0  0
  186.2780  178.3730  142.3490 C   0  0  0  0  0  3  0  0  0  0  0  0
  187.6830  177.6030  146.9150 C   0  0  0  0  0  3  0  0  0  0  0  0
  184.6670  178.6570  144.1700 O   0  0  0  0  0  0  0  0  0  0  0  0
  181.0730  179.2030  143.1230 C   0  0  0  0  0  2  0  0  0  0  0  0
  181.1510  178.4730  141.7850 C   0  0  2  0  0  3  0  0  0  0  0  0
  183.6470  178.3710  141.9640 C   0  0  0  0  0  2  0  0  0  0  0  0
  182.2280  178.7780  144.0240 C   0  0  0  0  0  2  0  0  0  0  0  0
  183.5710  179.0450  143.3360 C   0  0  1  0  0  3  0  0  0  0  0  0
  182.4720  178.8050  141.0920 C   0  0  0  0  0  2  0  0  0  0  0  0
  180.0180  178.1970  139.7030 O   0  0  0  0  0  1  0  0  0  0  0  0
  179.9820  178.8910  140.9130 C   0  0  0  0  0  2  0  0  0  0  0  0
  187.8960  178.0380  140.4740 C   0  0  0  0  0  2  0  0  0  0  0  0
  189.3960  177.8990  140.2850 C   0  0  0  0  0  2  0  0  0  0  0  0
  189.7030  176.9350  139.1450 C   0  0  2  0  0  3  0  0  0  0  0  0
  191.8930  177.3300  140.0070 O   0  0  0  0  0  1  0  0  0  0  0  0
  191.1400  176.4460  139.2360 C   0  0  0  0  0  2  0  0  0  0  0  0
  189.4320  177.5660  137.7790 C   0  0  0  0  0  2  0  0  0  0  0  0
  189.2860  176.5450  136.7380 N   0  0  0  0  0  0  0  0  0  0  0  0
  187.9480  175.4850  134.7370 S   0  0  0  0  0  0  0  0  0  0  0  0
  189.9790  176.9870  135.6000 N   0  0  0  0  0  2  0  0  0  0  0  0
  187.8860  176.3420  136.3360 C   0  0  1  0  0  0  0  0  0  0  0  0
  187.2000  175.4390  137.3510 C   0  0  0  0  0  1  0  0  0  0  0  0
  189.6640  176.0450  134.5360 C   0  0  0  0  0  2  0  0  0  0  0  0
  187.1250  177.6810  136.1740 C   0  0  0  0  0  2  0  0  0  0  0  0
  185.6830  177.6350  136.5800 C   0  0  0  0  0  0  0  0  0  0  0  0
  183.3780  177.0790  136.0780 C   0  0  0  0  0  3  0  0  0  0  0  0
  183.9520  178.0160  138.2370 C   0  0  0  0  0  3  0  0  0  0  0  0
  182.9920  177.5200  137.3470 C   0  0  0  0  0  3  0  0  0  0  0  0
  185.2960  178.0740  137.8530 C   0  0  0  0  0  3  0  0  0  0  0  0
  184.7210  177.1330  135.6960 C   0  0  0  0  0  3  0  0  0  0  0  0
  1  8  1  0  0  0  0
  1  6  1  1  0  0  0
  2 12  1  0  0  0  0
  3 14  2  0  0  0  0
  3 10  1  0  0  0  0
  4 15  1  0  0  0  0
  4  8  1  0  0  0  0
  5  1  1  0  0  0  0
  7  4  2  0  0  0  0
  9  7  1  0  0  0  0
  9  5  1  0  0  0  0
 10 11  2  0  0  0  0
 11  2  1  0  0  0  0
 11  7  1  0  0  0  0
 12 15  2  0  0  0  0
 13 16  1  0  0  0  0
 13  2  2  0  0  0  0
 14 13  1  0  0  0  0
 17 20  1  0  0  0  0
 18 24  1  6  0  0  0
 18 17  1  0  0  0  0
 19 21  1  0  0  0  0
 21 20  1  0  0  0  0
 21 16  1  1  0  0  0
 22 18  1  0  0  0  0
 22 19  1  0  0  0  0
 23 24  1  0  0  0  0
 25  3  1  0  0  0  0
 26 25  1  0  0  0  0
 27 30  1  6  0  0  0
 27 29  1  0  0  0  0
 27 26  1  0  0  0  0
 29 28  1  0  0  0  0
 31 30  1  0  0  0  0
 32 34  1  0  0  0  0
 33 31  1  0  0  0  0
 34 31  1  0  0  0  0
 34 35  1  1  0  0  0
 36 32  1  0  0  0  0
 36 33  1  0  0  0  0
 37 34  1  0  0  0  0
 37 38  1  0  0  0  0
 38 42  1  0  0  0  0
 39 41  2  0  0  0  0
 41 40  1  0  0  0  0
 42 40  2  0  0  0  0
 43 39  1  0  0  0  0
 43 38  2  0  0  0  0
M  END
>  <MODEL>
2

>  <REMARK>
 VINA RESULT:      -9.3      3.020      7.519
  Name = 
  11 active torsions:
  status: ('A' for Active; 'I' for Inactive)
    1  A    between atoms: O_1  and  C_34
    2  A    between atoms: O_1  and  C_35
    3  A    between atoms: C_2  and  C_6
    4  A    between atoms: C_2  and  C_13
    5  A    between atoms: C_3  and  N_4
    6  A    between atoms: C_3  and  C_12
    7  A    between atoms: C_6  and  C_12
    8  A    between atoms: C_11  and  C_14
    9  A    between atoms: C_12  and  C_17
   10  A    between atoms: C_14  and  C_22
   11  A    between atoms: C_19  and  C_37
                            x       y       z     vdW  Elec       q    Type
                         _______ _______ _______ _____ _____    ______ ____

>  <TORSDO>
F 11

$$$$
=
 OpenBabel10272414193D

 43 48  0  0  1  0  0  0  0  0999 V2000
  187.6420  177.2600  147.3540 C   0  0  1  0  0  3  0  0  0  0  0  0
  185.9680  178.7170  142.7300 C   0  0  0  0  0  0  0  0  0  0  0  0
  188.0030  177.9950  140.9810 C   0  0  0  0  0  0  0  0  0  0  0  0
  186.3510  178.3450  145.4890 C   0  0  0  0  0  0  0  0  0  0  0  0
  188.9010  177.5870  146.5670 C   0  0  0  0  0  2  0  0  0  0  0  0
  187.9040  177.3560  148.7200 O   0  0  0  0  0  1  0  0  0  0  0  0
  187.3850  177.9990  144.5880 C   0  0  0  0  0  0  0  0  0  0  0  0
  186.5380  178.2440  146.9770 C   0  0  0  0  0  2  0  0  0  0  0  0
  188.6510  177.3390  145.0820 C   0  0  0  0  0  2  0  0  0  0  0  0
  188.1600  177.8280  142.3200 N   0  0  0  0  0  0  0  0  0  0  0  0
  187.1860  178.1760  143.2070 C   0  0  0  0  0  0  0  0  0  0  0  0
  184.9640  179.0710  143.6390 C   0  0  0  0  0  3  0  0  0  0  0  0
  185.7800  178.8840  141.3500 C   0  0  0  0  0  0  0  0  0  0  0  0
  186.8130  178.5200  140.4750 C   0  0  0  0  0  3  0  0  0  0  0  0
  185.1590  178.8910  145.0080 C   0  0  0  0  0  3  0  0  0  0  0  0
  184.5650  179.4030  140.8690 O   0  0  0  0  0  0  0  0  0  0  0  0
  182.4180  176.5360  139.6520 C   0  0  0  0  0  2  0  0  0  0  0  0
  182.9160  176.5240  138.2100 C   0  0  2  0  0  3  0  0  0  0  0  0
  184.0810  178.7120  138.5720 C   0  0  0  0  0  2  0  0  0  0  0  0
  183.4120  177.2700  140.5470 C   0  0  0  0  0  2  0  0  0  0  0  0
  183.6390  178.6970  140.0380 C   0  0  1  0  0  3  0  0  0  0  0  0
  183.0740  177.9590  137.7060 C   0  0  0  0  0  2  0  0  0  0  0  0
  181.9870  176.2430  136.0300 O   0  0  0  0  0  1  0  0  0  0  0  0
  181.9260  175.7700  137.3410 C   0  0  0  0  0  2  0  0  0  0  0  0
  189.0870  177.5740  140.0520 C   0  0  0  0  0  2  0  0  0  0  0  0
  189.1720  178.5420  138.8850 C   0  0  0  0  0  2  0  0  0  0  0  0
  188.8100  177.8410  137.5820 C   0  0  2  0  0  3  0  0  0  0  0  0
  187.5380  179.7120  136.8220 O   0  0  0  0  0  1  0  0  0  0  0  0
  187.4700  178.3400  137.0640 C   0  0  0  0  0  2  0  0  0  0  0  0
  188.7970  176.3200  137.7380 C   0  0  0  0  0  2  0  0  0  0  0  0
  189.6890  175.6750  136.7710 N   0  0  0  0  0  0  0  0  0  0  0  0
  190.0640  174.2640  134.5840 S   0  0  0  0  0  0  0  0  0  0  0  0
  190.0510  176.6340  135.8120 N   0  0  0  0  0  2  0  0  0  0  0  0
  189.0400  174.5710  136.0500 C   0  0  1  0  0  0  0  0  0  0  0  0
  189.0510  173.3270  136.9260 C   0  0  0  0  0  1  0  0  0  0  0  0
  190.7820  175.9220  134.7740 C   0  0  0  0  0  2  0  0  0  0  0  0
  187.6000  174.9300  135.6060 C   0  0  0  0  0  2  0  0  0  0  0  0
  186.5440  173.9700  136.0640 C   0  0  0  0  0  0  0  0  0  0  0  0
  184.8320  173.3390  137.6600 C   0  0  0  0  0  3  0  0  0  0  0  0
  185.2620  171.9380  135.7310 C   0  0  0  0  0  3  0  0  0  0  0  0
  184.5500  172.1950  136.9080 C   0  0  0  0  0  3  0  0  0  0  0  0
  186.2580  172.8250  135.3110 C   0  0  0  0  0  3  0  0  0  0  0  0
  185.8250  174.2270  137.2370 C   0  0  0  0  0  3  0  0  0  0  0  0
  1  6  1  1  0  0  0
  2 11  1  0  0  0  0
  2 12  1  0  0  0  0
  3 10  1  0  0  0  0
  4  8  1  0  0  0  0
  5  1  1  0  0  0  0
  7  9  1  0  0  0  0
  7  4  2  0  0  0  0
  8  1  1  0  0  0  0
  9  5  1  0  0  0  0
 10 11  2  0  0  0  0
 11  7  1  0  0  0  0
 12 15  2  0  0  0  0
 13  2  2  0  0  0  0
 14  3  2  0  0  0  0
 14 13  1  0  0  0  0
 15  4  1  0  0  0  0
 16 13  1  0  0  0  0
 17 20  1  0  0  0  0
 18 24  1  6  0  0  0
 18 17  1  0  0  0  0
 19 21  1  0  0  0  0
 21 20  1  0  0  0  0
 21 16  1  1  0  0  0
 22 18  1  0  0  0  0
 22 19  1  0  0  0  0
 23 24  1  0  0  0  0
 25  3  1  0  0  0  0
 26 25  1  0  0  0  0
 27 29  1  1  0  0  0
 27 30  1  0  0  0  0
 27 26  1  0  0  0  0
 28 29  1  0  0  0  0
 31 30  1  0  0  0  0
 32 36  1  0  0  0  0
 32 34  1  0  0  0  0
 33 31  1  0  0  0  0
 34 31  1  0  0  0  0
 34 35  1  1  0  0  0
 36 33  1  0  0  0  0
 37 34  1  0  0  0  0
 37 38  1  0  0  0  0
 38 43  1  0  0  0  0
 40 41  2  0  0  0  0
 41 39  1  0  0  0  0
 42 40  1  0  0  0  0
 42 38  2  0  0  0  0
 43 39  2  0  0  0  0
M  END
>  <MODEL>
3

>  <REMARK>
 VINA RESULT:      -9.1      3.123      6.718
  Name = 
  11 active torsions:
  status: ('A' for Active; 'I' for Inactive)
    1  A    between atoms: O_1  and  C_34
    2  A    between atoms: O_1  and  C_35
    3  A    between atoms: C_2  and  C_6
    4  A    between atoms: C_2  and  C_13
    5  A    between atoms: C_3  and  N_4
    6  A    between atoms: C_3  and  C_12
    7  A    between atoms: C_6  and  C_12
    8  A    between atoms: C_11  and  C_14
    9  A    between atoms: C_12  and  C_17
   10  A    between atoms: C_14  and  C_22
   11  A    between atoms: C_19  and  C_37
                            x       y       z     vdW  Elec       q    Type
                         _______ _______ _______ _____ _____    ______ ____

>  <TORSDO>
F 11

$$$$
=
 OpenBabel10272414193D

 43 48  0  0  1  0  0  0  0  0999 V2000
  191.3060  175.9300  147.0830 C   0  0  1  0  0  3  0  0  0  0  0  0
  187.5010  177.9960  144.3350 C   0  0  0  0  0  0  0  0  0  0  0  0
  188.2810  177.6680  141.6880 C   0  0  0  0  0  0  0  0  0  0  0  0
  189.2670  177.2200  146.3790 C   0  0  0  0  0  0  0  0  0  0  0  0
  191.9720  176.4440  145.8170 C   0  0  0  0  0  2  0  0  0  0  0  0
  192.2520  175.8270  148.1020 O   0  0  0  0  0  1  0  0  0  0  0  0
  189.6570  177.0750  145.0260 C   0  0  0  0  0  0  0  0  0  0  0  0
  190.2060  176.8980  147.5070 C   0  0  0  0  0  2  0  0  0  0  0  0
  190.9680  176.4170  144.6680 C   0  0  0  0  0  2  0  0  0  0  0  0
  189.1130  177.3030  142.6970 N   0  0  0  0  0  0  0  0  0  0  0  0
  188.7660  177.4540  144.0060 C   0  0  0  0  0  0  0  0  0  0  0  0
  187.1400  178.1480  145.6780 C   0  0  0  0  0  3  0  0  0  0  0  0
  186.6200  178.3650  143.3070 C   0  0  0  0  0  0  0  0  0  0  0  0
  187.0220  178.1990  141.9750 C   0  0  0  0  0  3  0  0  0  0  0  0
  188.0200  177.7680  146.6910 C   0  0  0  0  0  3  0  0  0  0  0  0
  185.3520  178.8850  143.6280 O   0  0  0  0  0  0  0  0  0  0  0  0
  182.6330  178.2100  141.0870 C   0  0  0  0  0  2  0  0  0  0  0  0
  181.4730  178.7920  141.8910 C   0  0  2  0  0  3  0  0  0  0  0  0
  182.9240  178.9260  143.9270 C   0  0  0  0  0  2  0  0  0  0  0  0
  183.9600  178.7360  141.6220 C   0  0  0  0  0  2  0  0  0  0  0  0
  184.1090  178.4040  143.1100 C   0  0  1  0  0  3  0  0  0  0  0  0
  181.6120  178.3930  143.3590 C   0  0  0  0  0  2  0  0  0  0  0  0
  180.3850  177.1120  140.5920 O   0  0  0  0  0  1  0  0  0  0  0  0
  180.1610  178.2760  141.3290 C   0  0  0  0  0  2  0  0  0  0  0  0
  188.6960  177.4560  140.2740 C   0  0  0  0  0  2  0  0  0  0  0  0
  187.9830  178.4490  139.3730 C   0  0  0  0  0  2  0  0  0  0  0  0
  187.6670  177.8150  138.0240 C   0  0  2  0  0  3  0  0  0  0  0  0
  185.6000  178.8520  138.6130 O   0  0  0  0  0  1  0  0  0  0  0  0
  186.2030  178.0210  137.6690 C   0  0  0  0  0  2  0  0  0  0  0  0
  188.0260  176.3290  137.9960 C   0  0  0  0  0  2  0  0  0  0  0  0
  187.8520  175.7610  136.6570 N   0  0  0  0  0  0  0  0  0  0  0  0
  188.5860  174.0940  134.7590 S   0  0  0  0  0  0  0  0  0  0  0  0
  186.9190  174.7160  136.7490 N   0  0  0  0  0  2  0  0  0  0  0  0
  189.0930  175.1820  136.1210 C   0  0  1  0  0  0  0  0  0  0  0  0
  189.9630  176.2970  135.5600 C   0  0  0  0  0  1  0  0  0  0  0  0
  186.9060  174.0610  135.4500 C   0  0  0  0  0  2  0  0  0  0  0  0
  189.8580  174.3550  137.1830 C   0  0  0  0  0  2  0  0  0  0  0  0
  191.3100  174.6980  137.3190 C   0  0  0  0  0  0  0  0  0  0  0  0
  193.0530  176.1420  138.1880 C   0  0  0  0  0  3  0  0  0  0  0  0
  193.6410  174.1930  136.8750 C   0  0  0  0  0  3  0  0  0  0  0  0
  194.0250  175.3260  137.6000 C   0  0  0  0  0  3  0  0  0  0  0  0
  192.2850  173.8810  136.7340 C   0  0  0  0  0  3  0  0  0  0  0  0
  191.6980  175.8270  138.0510 C   0  0  0  0  0  3  0  0  0  0  0  0
  1  8  1  0  0  0  0
  1  6  1  1  0  0  0
  2 12  1  0  0  0  0
  3 14  2  0  0  0  0
  3 10  1  0  0  0  0
  4 15  1  0  0  0  0
  4  8  1  0  0  0  0
  5  1  1  0  0  0  0
  7  4  2  0  0  0  0
  9  7  1  0  0  0  0
  9  5  1  0  0  0  0
 10 11  2  0  0  0  0
 11  2  1  0  0  0  0
 11  7  1  0  0  0  0
 12 15  2  0  0  0  0
 13 16  1  0  0  0  0
 13  2  2  0  0  0  0
 14 13  1  0  0  0  0
 17 20  1  0  0  0  0
 17 18  1  0  0  0  0
 18 24  1  6  0  0  0
 18 22  1  0  0  0  0
 20 21  1  0  0  0  0
 21 16  1  1  0  0  0
 21 19  1  0  0  0  0
 22 19  1  0  0  0  0
 23 24  1  0  0  0  0
 25  3  1  0  0  0  0
 26 25  1  0  0  0  0
 27 29  1  1  0  0  0
 27 26  1  0  0  0  0
 29 28  1  0  0  0  0
 30 27  1  0  0  0  0
 31 33  1  0  0  0  0
 31 30  1  0  0  0  0
 32 36  1  0  0  0  0
 32 34  1  0  0  0  0
 34 35  1  6  0  0  0
 34 31  1  0  0  0  0
 34 37  1  0  0  0  0
 36 33  1  0  0  0  0
 37 38  1  0  0  0  0
 38 43  1  0  0  0  0
 40 41  2  0  0  0  0
 41 39  1  0  0  0  0
 42 40  1  0  0  0  0
 42 38  2  0  0  0  0
 43 39  2  0  0  0  0
M  END
>  <MODEL>
4

>  <REMARK>
 VINA RESULT:      -9.0      3.388      7.717
  Name = 
  11 active torsions:
  status: ('A' for Active; 'I' for Inactive)
    1  A    between atoms: O_1  and  C_34
    2  A    between atoms: O_1  and  C_35
    3  A    between atoms: C_2  and  C_6
    4  A    between atoms: C_2  and  C_13
    5  A    between atoms: C_3  and  N_4
    6  A    between atoms: C_3  and  C_12
    7  A    between atoms: C_6  and  C_12
    8  A    between atoms: C_11  and  C_14
    9  A    between atoms: C_12  and  C_17
   10  A    between atoms: C_14  and  C_22
   11  A    between atoms: C_19  and  C_37
                            x       y       z     vdW  Elec       q    Type
                         _______ _______ _______ _____ _____    ______ ____

>  <TORSDO>
F 11

$$$$
=
 OpenBabel10272414193D

 43 48  0  0  1  0  0  0  0  0999 V2000
  191.0680  177.0980  146.9610 C   0  0  1  0  0  3  0  0  0  0  0  0
  188.9780  177.8540  142.3390 C   0  0  0  0  0  0  0  0  0  0  0  0
  186.2770  178.2690  142.8430 C   0  0  0  0  0  0  0  0  0  0  0  0
  190.6750  177.1950  144.4800 C   0  0  0  0  0  0  0  0  0  0  0  0
  189.6430  176.5860  147.0880 C   0  0  0  0  0  2  0  0  0  0  0  0
  191.8700  176.4990  147.9320 O   0  0  0  0  0  1  0  0  0  0  0  0
  189.2950  177.3920  144.7180 C   0  0  0  0  0  0  0  0  0  0  0  0
  191.6080  176.7590  145.5750 C   0  0  0  0  0  2  0  0  0  0  0  0
  188.7400  177.3500  146.1230 C   0  0  0  0  0  2  0  0  0  0  0  0
  187.1220  177.9490  143.8580 N   0  0  0  0  0  0  0  0  0  0  0  0
  188.4500  177.7330  143.6470 C   0  0  0  0  0  0  0  0  0  0  0  0
  190.3430  177.6380  142.1200 C   0  0  0  0  0  3  0  0  0  0  0  0
  188.1260  178.2000  141.2800 C   0  0  0  0  0  0  0  0  0  0  0  0
  186.7640  178.4040  141.5430 C   0  0  0  0  0  3  0  0  0  0  0  0
  191.1820  177.3050  143.1830 C   0  0  0  0  0  3  0  0  0  0  0  0
  188.6480  178.3420  139.9810 O   0  0  0  0  0  0  0  0  0  0  0  0
  189.1580  176.4550  136.7430 C   0  0  0  0  0  2  0  0  0  0  0  0
  187.9470  177.0170  136.0030 C   0  0  2  0  0  3  0  0  0  0  0  0
  187.0800  178.0100  138.1320 C   0  0  0  0  0  2  0  0  0  0  0  0
  189.5200  177.3550  137.9200 C   0  0  0  0  0  2  0  0  0  0  0  0
  188.3250  177.5050  138.8670 C   0  0  1  0  0  3  0  0  0  0  0  0
  186.7530  177.0980  136.9530 C   0  0  0  0  0  2  0  0  0  0  0  0
  188.2340  174.8790  134.9820 O   0  0  0  0  0  1  0  0  0  0  0  0
  187.6180  176.1210  134.8220 C   0  0  0  0  0  2  0  0  0  0  0  0
  184.8380  178.5220  143.1310 C   0  0  0  0  0  2  0  0  0  0  0  0
  183.9850  178.0070  141.9860 C   0  0  0  0  0  2  0  0  0  0  0  0
  182.7140  178.8370  141.8510 C   0  0  2  0  0  3  0  0  0  0  0  0
  181.0760  179.9970  143.1420 O   0  0  0  0  0  1  0  0  0  0  0  0
  182.0260  178.9780  143.2000 C   0  0  0  0  0  2  0  0  0  0  0  0
  181.7580  178.2480  140.8140 C   0  0  0  0  0  2  0  0  0  0  0  0
  181.5530  179.1680  139.6920 N   0  0  0  0  0  0  0  0  0  0  0  0
  181.1720  179.6070  137.1270 S   0  0  0  0  0  0  0  0  0  0  0  0
  180.1780  179.4340  139.5980 N   0  0  0  0  0  2  0  0  0  0  0  0
  181.9670  178.5920  138.4040 C   0  0  1  0  0  0  0  0  0  0  0  0
  183.4770  178.7170  138.2630 C   0  0  0  0  0  1  0  0  0  0  0  0
  179.9900  180.1980  138.3730 C   0  0  0  0  0  2  0  0  0  0  0  0
  181.5110  177.1190  138.2490 C   0  0  0  0  0  2  0  0  0  0  0  0
  182.4940  176.2290  137.5510 C   0  0  0  0  0  0  0  0  0  0  0  0
  184.1490  174.4600  137.6330 C   0  0  0  0  0  3  0  0  0  0  0  0
  183.5560  175.4640  135.5090 C   0  0  0  0  0  3  0  0  0  0  0  0
  184.3080  174.5410  136.2460 C   0  0  0  0  0  3  0  0  0  0  0  0
  182.6510  176.3070  136.1620 C   0  0  0  0  0  3  0  0  0  0  0  0
  183.2410  175.2990  138.2840 C   0  0  0  0  0  3  0  0  0  0  0  0
  1  5  1  0  0  0  0
  1  6  1  1  0  0  0
  2 11  1  0  0  0  0
  3 25  1  0  0  0  0
  3 10  1  0  0  0  0
  4  7  2  0  0  0  0
  4  8  1  0  0  0  0
  7  9  1  0  0  0  0
  8  1  1  0  0  0  0
  9  5  1  0  0  0  0
 11 10  2  0  0  0  0
 11  7  1  0  0  0  0
 12  2  1  0  0  0  0
 12 15  2  0  0  0  0
 13 14  1  0  0  0  0
 13  2  2  0  0  0  0
 14  3  2  0  0  0  0
 15  4  1  0  0  0  0
 16 13  1  0  0  0  0
 17 20  1  0  0  0  0
 18 24  1  6  0  0  0
 18 17  1  0  0  0  0
 18 22  1  0  0  0  0
 19 21  1  0  0  0  0
 20 21  1  0  0  0  0
 21 16  1  1  0  0  0
 22 19  1  0  0  0  0
 24 23  1  0  0  0  0
 26 25  1  0  0  0  0
 27 30  1  6  0  0  0
 27 26  1  0  0  0  0
 27 29  1  0  0  0  0
 28 29  1  0  0  0  0
 31 30  1  0  0  0  0
 32 36  1  0  0  0  0
 32 34  1  0  0  0  0
 33 31  1  0  0  0  0
 34 35  1  6  0  0  0
 34 31  1  0  0  0  0
 36 33  1  0  0  0  0
 37 34  1  0  0  0  0
 38 37  1  0  0  0  0
 38 43  1  0  0  0  0
 39 43  2  0  0  0  0
 40 42  1  0  0  0  0
 40 41  2  0  0  0  0
 41 39  1  0  0  0  0
 42 38  2  0  0  0  0
M  END
>  <MODEL>
5

>  <REMARK>
 VINA RESULT:      -9.0      3.351      8.601
  Name = 
  11 active torsions:
  status: ('A' for Active; 'I' for Inactive)
    1  A    between atoms: O_1  and  C_34
    2  A    between atoms: O_1  and  C_35
    3  A    between atoms: C_2  and  C_6
    4  A    between atoms: C_2  and  C_13
    5  A    between atoms: C_3  and  N_4
    6  A    between atoms: C_3  and  C_12
    7  A    between atoms: C_6  and  C_12
    8  A    between atoms: C_11  and  C_14
    9  A    between atoms: C_12  and  C_17
   10  A    between atoms: C_14  and  C_22
   11  A    between atoms: C_19  and  C_37
                            x       y       z     vdW  Elec       q    Type
                         _______ _______ _______ _____ _____    ______ ____

>  <TORSDO>
F 11

$$$$
=
 OpenBabel10272414193D

 43 48  0  0  1  0  0  0  0  0999 V2000
  188.5460  177.9480  147.0170 C   0  0  1  0  0  3  0  0  0  0  0  0
  190.0780  177.3580  142.1590 C   0  0  0  0  0  0  0  0  0  0  0  0
  187.8520  178.0150  140.6300 C   0  0  0  0  0  0  0  0  0  0  0  0
  189.8380  177.3070  144.9580 C   0  0  0  0  0  0  0  0  0  0  0  0
  187.2900  177.5550  146.2560 C   0  0  0  0  0  2  0  0  0  0  0  0
  188.3920  177.6370  148.3680 O   0  0  0  0  0  1  0  0  0  0  0  0
  188.7090  177.6220  144.1660 C   0  0  0  0  0  0  0  0  0  0  0  0
  189.7410  177.1840  146.4530 C   0  0  0  0  0  2  0  0  0  0  0  0
  187.4040  178.0290  144.8090 C   0  0  0  0  0  2  0  0  0  0  0  0
  187.7670  177.9810  141.9850 N   0  0  0  0  0  0  0  0  0  0  0  0
  188.8350  177.6580  142.7660 C   0  0  0  0  0  0  0  0  0  0  0  0
  191.1790  177.0300  142.9580 C   0  0  0  0  0  3  0  0  0  0  0  0
  190.1920  177.4020  140.7610 C   0  0  0  0  0  0  0  0  0  0  0  0
  189.0640  177.7310  139.9980 C   0  0  0  0  0  3  0  0  0  0  0  0
  191.0560  177.0000  144.3470 C   0  0  0  0  0  3  0  0  0  0  0  0
  191.4300  177.1240  140.1520 O   0  0  0  0  0  0  0  0  0  0  0  0
  191.0080  175.0610  137.0110 C   0  0  0  0  0  2  0  0  0  0  0  0
  192.4920  174.8570  136.7160 C   0  0  2  0  0  3  0  0  0  0  0  0
  193.0910  176.5690  138.4430 C   0  0  0  0  0  2  0  0  0  0  0  0
  190.8110  175.4610  138.4690 C   0  0  0  0  0  2  0  0  0  0  0  0
  191.6080  176.7300  138.7890 C   0  0  1  0  0  3  0  0  0  0  0  0
  193.2530  176.1550  136.9830 C   0  0  0  0  0  2  0  0  0  0  0  0
  191.6490  173.5520  134.9050 O   0  0  0  0  0  1  0  0  0  0  0  0
  192.6650  174.4370  135.2670 C   0  0  0  0  0  2  0  0  0  0  0  0
  186.6620  178.4000  139.8230 C   0  0  0  0  0  2  0  0  0  0  0  0
  186.8580  177.9740  138.3790 C   0  0  0  0  0  2  0  0  0  0  0  0
  185.5310  177.5420  137.7660 C   0  0  2  0  0  3  0  0  0  0  0  0
  186.9480  177.7720  135.8590 O   0  0  0  0  0  1  0  0  0  0  0  0
  185.6420  177.4800  136.2510 C   0  0  0  0  0  2  0  0  0  0  0  0
  184.3840  178.4600  138.1880 C   0  0  0  0  0  2  0  0  0  0  0  0
  183.0930  177.7720  138.1150 N   0  0  0  0  0  0  0  0  0  0  0  0
  180.6660  177.3460  139.0340 S   0  0  0  0  0  0  0  0  0  0  0  0
  182.2690  178.4910  137.2340 N   0  0  0  0  0  2  0  0  0  0  0  0
  182.3990  177.7290  139.4110 C   0  0  1  0  0  0  0  0  0  0  0  0
  182.9800  176.6010  140.2510 C   0  0  0  0  0  1  0  0  0  0  0  0
  180.9470  177.8900  137.3240 C   0  0  0  0  0  2  0  0  0  0  0  0
  182.4770  179.0820  140.1600 C   0  0  0  0  0  2  0  0  0  0  0  0
  182.6610  178.9680  141.6430 C   0  0  0  0  0  0  0  0  0  0  0  0
  184.1210  178.8760  143.5760 C   0  0  0  0  0  3  0  0  0  0  0  0
  181.7180  178.7920  143.8710 C   0  0  0  0  0  3  0  0  0  0  0  0
  183.0070  178.7860  144.4160 C   0  0  0  0  0  3  0  0  0  0  0  0
  181.5460  178.8810  142.4860 C   0  0  0  0  0  3  0  0  0  0  0  0
  183.9480  178.9710  142.1920 C   0  0  0  0  0  3  0  0  0  0  0  0
  1  6  1  1  0  0  0
  2 11  1  0  0  0  0
  2 12  1  0  0  0  0
  3 10  1  0  0  0  0
  4  8  1  0  0  0  0
  5  1  1  0  0  0  0
  7  9  1  0  0  0  0
  7  4  2  0  0  0  0
  8  1  1  0  0  0  0
  9  5  1  0  0  0  0
 10 11  2  0  0  0  0
 11  7  1  0  0  0  0
 12 15  2  0  0  0  0
 13  2  2  0  0  0  0
 14  3  2  0  0  0  0
 14 13  1  0  0  0  0
 15  4  1  0  0  0  0
 16 13  1  0  0  0  0
 17 20  1  0  0  0  0
 18 24  1  6  0  0  0
 18 22  1  0  0  0  0
 18 17  1  0  0  0  0
 19 21  1  0  0  0  0
 20 21  1  0  0  0  0
 21 16  1  1  0  0  0
 22 19  1  0  0  0  0
 23 24  1  0  0  0  0
 25  3  1  0  0  0  0
 26 25  1  0  0  0  0
 27 29  1  6  0  0  0
 27 30  1  0  0  0  0
 27 26  1  0  0  0  0
 28 29  1  0  0  0  0
 31 30  1  0  0  0  0
 31 34  1  0  0  0  0
 32 34  1  0  0  0  0
 33 36  1  0  0  0  0
 33 31  1  0  0  0  0
 34 37  1  0  0  0  0
 34 35  1  1  0  0  0
 36 32  1  0  0  0  0
 37 38  1  0  0  0  0
 38 43  2  0  0  0  0
 38 42  1  0  0  0  0
 39 41  2  0  0  0  0
 40 41  1  0  0  0  0
 42 40  2  0  0  0  0
 43 39  1  0  0  0  0
M  END
>  <MODEL>
6

>  <REMARK>
 VINA RESULT:      -8.8      3.187      7.656
  Name = 
  11 active torsions:
  status: ('A' for Active; 'I' for Inactive)
    1  A    between atoms: O_1  and  C_34
    2  A    between atoms: O_1  and  C_35
    3  A    between atoms: C_2  and  C_6
    4  A    between atoms: C_2  and  C_13
    5  A    between atoms: C_3  and  N_4
    6  A    between atoms: C_3  and  C_12
    7  A    between atoms: C_6  and  C_12
    8  A    between atoms: C_11  and  C_14
    9  A    between atoms: C_12  and  C_17
   10  A    between atoms: C_14  and  C_22
   11  A    between atoms: C_19  and  C_37
                            x       y       z     vdW  Elec       q    Type
                         _______ _______ _______ _____ _____    ______ ____

>  <TORSDO>
F 11

$$$$
=
 OpenBabel10272414193D

 43 48  0  0  1  0  0  0  0  0999 V2000
  184.3720  178.4050  145.3600 C   0  0  1  0  0  3  0  0  0  0  0  0
  182.6100  178.8550  140.5640 C   0  0  0  0  0  0  0  0  0  0  0  0
  184.8720  178.6780  138.9600 C   0  0  0  0  0  0  0  0  0  0  0  0
  182.9210  178.8590  143.3570 C   0  0  0  0  0  0  0  0  0  0  0  0
  185.5090  179.0510  144.5840 C   0  0  0  0  0  2  0  0  0  0  0  0
  184.5060  178.6950  146.7170 O   0  0  0  0  0  1  0  0  0  0  0  0
  184.0650  178.7870  142.5270 C   0  0  0  0  0  0  0  0  0  0  0  0
  183.0390  178.9490  144.8530 C   0  0  0  0  0  2  0  0  0  0  0  0
  185.4420  178.6110  143.1240 C   0  0  0  0  0  2  0  0  0  0  0  0
  184.9910  178.6820  140.3130 N   0  0  0  0  0  0  0  0  0  0  0  0
  183.9050  178.7740  141.1300 C   0  0  0  0  0  0  0  0  0  0  0  0
  181.4930  178.9440  141.4010 C   0  0  0  0  0  3  0  0  0  0  0  0
  182.4640  178.8360  139.1690 C   0  0  0  0  0  0  0  0  0  0  0  0
  183.6110  178.7490  138.3670 C   0  0  0  0  0  3  0  0  0  0  0  0
  181.6500  178.9520  142.7870 C   0  0  0  0  0  3  0  0  0  0  0  0
  181.1790  178.8960  138.6010 O   0  0  0  0  0  0  0  0  0  0  0  0
  180.0630  181.1120  135.7460 C   0  0  0  0  0  2  0  0  0  0  0  0
  180.7960  182.3760  136.1890 C   0  0  2  0  0  3  0  0  0  0  0  0
  181.2960  181.3330  138.4100 C   0  0  0  0  0  2  0  0  0  0  0  0
  180.6690  179.8880  136.4240 C   0  0  0  0  0  2  0  0  0  0  0  0
  180.6200  180.0390  137.9470 C   0  0  1  0  0  3  0  0  0  0  0  0
  180.6780  182.5360  137.7040 C   0  0  0  0  0  2  0  0  0  0  0  0
  180.8470  184.7430  135.8940 O   0  0  0  0  0  1  0  0  0  0  0  0
  180.1940  183.5800  135.4860 C   0  0  0  0  0  2  0  0  0  0  0  0
  186.0890  178.5480  138.1110 C   0  0  0  0  0  2  0  0  0  0  0  0
  186.9950  177.4670  138.6700 C   0  0  0  0  0  2  0  0  0  0  0  0
  188.2180  178.0860  139.3360 C   0  0  2  0  0  3  0  0  0  0  0  0
  189.2370  177.1980  137.3680 O   0  0  0  0  0  1  0  0  0  0  0  0
  189.3690  178.1830  138.3470 C   0  0  0  0  0  2  0  0  0  0  0  0
  188.6400  177.3100  140.5840 C   0  0  0  0  0  2  0  0  0  0  0  0
  189.9070  177.8120  141.1230 N   0  0  0  0  0  0  0  0  0  0  0  0
  191.5940  178.1060  143.1190 S   0  0  0  0  0  0  0  0  0  0  0  0
  190.8950  176.8470  140.8720 N   0  0  0  0  0  2  0  0  0  0  0  0
  189.8640  178.0120  142.5790 C   0  0  1  0  0  0  0  0  0  0  0  0
  189.1820  179.3380  142.8810 C   0  0  0  0  0  1  0  0  0  0  0  0
  192.0900  177.2910  141.5740 C   0  0  0  0  0  2  0  0  0  0  0  0
  189.1590  176.8410  143.3090 C   0  0  0  0  0  2  0  0  0  0  0  0
  189.1120  176.9700  144.8010 C   0  0  0  0  0  0  0  0  0  0  0  0
  190.2370  176.9200  146.9480 C   0  0  0  0  0  3  0  0  0  0  0  0
  187.8720  177.4290  146.8340 C   0  0  0  0  0  3  0  0  0  0  0  0
  189.0360  177.2390  147.5870 C   0  0  0  0  0  3  0  0  0  0  0  0
  187.9100  177.2930  145.4430 C   0  0  0  0  0  3  0  0  0  0  0  0
  190.2770  176.7890  145.5570 C   0  0  0  0  0  3  0  0  0  0  0  0
  1  6  1  1  0  0  0
  2 11  1  0  0  0  0
  2 12  1  0  0  0  0
  3 10  1  0  0  0  0
  4  8  1  0  0  0  0
  5  1  1  0  0  0  0
  7  9  1  0  0  0  0
  7  4  2  0  0  0  0
  8  1  1  0  0  0  0
  9  5  1  0  0  0  0
 10 11  2  0  0  0  0
 11  7  1  0  0  0  0
 12 15  2  0  0  0  0
 13  2  2  0  0  0  0
 14  3  2  0  0  0  0
 14 13  1  0  0  0  0
 15  4  1  0  0  0  0
 16 13  1  0  0  0  0
 17 18  1  0  0  0  0
 17 20  1  0  0  0  0
 18 24  1  6  0  0  0
 18 22  1  0  0  0  0
 20 21  1  0  0  0  0
 21 19  1  0  0  0  0
 21 16  1  1  0  0  0
 22 19  1  0  0  0  0
 24 23  1  0  0  0  0
 25 26  1  0  0  0  0
 25  3  1  0  0  0  0
 26 27  1  0  0  0  0
 27 29  1  6  0  0  0
 27 30  1  0  0  0  0
 28 29  1  0  0  0  0
 30 31  1  0  0  0  0
 31 34  1  0  0  0  0
 33 31  1  0  0  0  0
 33 36  1  0  0  0  0
 34 35  1  1  0  0  0
 34 32  1  0  0  0  0
 34 37  1  0  0  0  0
 36 32  1  0  0  0  0
 37 38  1  0  0  0  0
 38 42  2  0  0  0  0
 38 43  1  0  0  0  0
 39 41  1  0  0  0  0
 40 41  2  0  0  0  0
 42 40  1  0  0  0  0
 43 39  2  0  0  0  0
M  END
>  <MODEL>
7

>  <REMARK>
 VINA RESULT:      -8.7      2.734      4.283
  Name = 
  11 active torsions:
  status: ('A' for Active; 'I' for Inactive)
    1  A    between atoms: O_1  and  C_34
    2  A    between atoms: O_1  and  C_35
    3  A    between atoms: C_2  and  C_6
    4  A    between atoms: C_2  and  C_13
    5  A    between atoms: C_3  and  N_4
    6  A    between atoms: C_3  and  C_12
    7  A    between atoms: C_6  and  C_12
    8  A    between atoms: C_11  and  C_14
    9  A    between atoms: C_12  and  C_17
   10  A    between atoms: C_14  and  C_22
   11  A    between atoms: C_19  and  C_37
                            x       y       z     vdW  Elec       q    Type
                         _______ _______ _______ _____ _____    ______ ____

>  <TORSDO>
F 11

$$$$
=
 OpenBabel10272414193D

 43 48  0  0  1  0  0  0  0  0999 V2000
  181.4030  179.4110  142.0640 C   0  0  1  0  0  3  0  0  0  0  0  0
  186.0470  178.3460  143.9610 C   0  0  0  0  0  0  0  0  0  0  0  0
  187.6730  178.0490  141.7260 C   0  0  0  0  0  0  0  0  0  0  0  0
  183.2940  178.7700  143.5920 C   0  0  0  0  0  0  0  0  0  0  0  0
  182.0680  178.5450  141.0070 C   0  0  0  0  0  2  0  0  0  0  0  0
  180.0170  179.3360  141.9280 O   0  0  0  0  0  1  0  0  0  0  0  0
  184.1310  178.6000  142.4640 C   0  0  0  0  0  0  0  0  0  0  0  0
  181.8050  178.9170  143.4510 C   0  0  0  0  0  2  0  0  0  0  0  0
  183.5800  178.7440  141.0650 C   0  0  0  0  0  2  0  0  0  0  0  0
  186.3380  178.2550  141.5800 N   0  0  0  0  0  0  0  0  0  0  0  0
  185.5110  178.3990  142.6520 C   0  0  0  0  0  0  0  0  0  0  0  0
  185.2000  178.4990  145.0640 C   0  0  0  0  0  3  0  0  0  0  0  0
  187.4260  178.1500  144.1340 C   0  0  0  0  0  0  0  0  0  0  0  0
  188.2380  177.9980  143.0010 C   0  0  0  0  0  3  0  0  0  0  0  0
  183.8330  178.7030  144.8780 C   0  0  0  0  0  3  0  0  0  0  0  0
  187.9680  178.1160  145.4320 O   0  0  0  0  0  0  0  0  0  0  0  0
  190.0660  176.1310  147.8740 C   0  0  0  0  0  2  0  0  0  0  0  0
  191.4310  176.5340  147.3240 C   0  0  2  0  0  3  0  0  0  0  0  0
  190.3440  177.5420  145.3060 C   0  0  0  0  0  2  0  0  0  0  0  0
  188.9990  177.1180  147.4130 C   0  0  0  0  0  2  0  0  0  0  0  0
  188.9680  177.1980  145.8830 C   0  0  1  0  0  3  0  0  0  0  0  0
  191.3890  176.5440  145.7960 C   0  0  0  0  0  2  0  0  0  0  0  0
  193.1400  174.9800  146.7250 O   0  0  0  0  0  1  0  0  0  0  0  0
  192.4810  175.5530  147.8130 C   0  0  0  0  0  2  0  0  0  0  0  0
  188.5390  177.9250  140.5220 C   0  0  0  0  0  2  0  0  0  0  0  0
  189.8580  177.2760  140.8990 C   0  0  0  0  0  2  0  0  0  0  0  0
  190.6070  176.8230  139.6520 C   0  0  2  0  0  3  0  0  0  0  0  0
  192.8280  176.4770  138.8510 O   0  0  0  0  0  1  0  0  0  0  0  0
  192.0630  177.2550  139.7200 C   0  0  0  0  0  2  0  0  0  0  0  0
  189.9470  177.3400  138.3730 C   0  0  0  0  0  2  0  0  0  0  0  0
  190.0340  176.3570  137.2910 N   0  0  0  0  0  0  0  0  0  0  0  0
  189.1640  175.3720  135.0130 S   0  0  0  0  0  0  0  0  0  0  0  0
  190.9540  176.8360  136.3450 N   0  0  0  0  0  2  0  0  0  0  0  0
  188.7550  176.1720  136.5890 C   0  0  1  0  0  0  0  0  0  0  0  0
  187.8700  175.2370  137.4000 C   0  0  0  0  0  1  0  0  0  0  0  0
  190.8810  175.9330  135.2060 C   0  0  0  0  0  2  0  0  0  0  0  0
  188.0410  177.5190  136.3130 C   0  0  0  0  0  2  0  0  0  0  0  0
  186.5730  177.5240  136.6150 C   0  0  0  0  0  0  0  0  0  0  0  0
  184.7460  177.9920  138.1380 C   0  0  0  0  0  3  0  0  0  0  0  0
  184.2830  177.1190  135.9260 C   0  0  0  0  0  3  0  0  0  0  0  0
  183.8290  177.5640  137.1730 C   0  0  0  0  0  3  0  0  0  0  0  0
  185.6540  177.0980  135.6490 C   0  0  0  0  0  3  0  0  0  0  0  0
  186.1150  177.9760  137.8580 C   0  0  0  0  0  3  0  0  0  0  0  0
  1  6  1  1  0  0  0
  1  8  1  0  0  0  0
  2 13  1  0  0  0  0
  2 12  1  0  0  0  0
  3 14  1  0  0  0  0
  4 15  1  0  0  0  0
  5  9  1  0  0  0  0
  5  1  1  0  0  0  0
  7 11  1  0  0  0  0
  7  4  2  0  0  0  0
  8  4  1  0  0  0  0
  9  7  1  0  0  0  0
 10  3  2  0  0  0  0
 10 11  1  0  0  0  0
 11  2  2  0  0  0  0
 13 16  1  0  0  0  0
 14 13  2  0  0  0  0
 15 12  2  0  0  0  0
 18 24  1  6  0  0  0
 18 17  1  0  0  0  0
 19 22  1  0  0  0  0
 19 21  1  0  0  0  0
 20 17  1  0  0  0  0
 21 16  1  1  0  0  0
 21 20  1  0  0  0  0
 22 18  1  0  0  0  0
 23 24  1  0  0  0  0
 25 26  1  0  0  0  0
 25  3  1  0  0  0  0
 27 30  1  6  0  0  0
 27 29  1  0  0  0  0
 27 26  1  0  0  0  0
 28 29  1  0  0  0  0
 31 30  1  0  0  0  0
 32 36  1  0  0  0  0
 32 34  1  0  0  0  0
 33 31  1  0  0  0  0
 34 31  1  0  0  0  0
 34 35  1  1  0  0  0
 36 33  1  0  0  0  0
 37 34  1  0  0  0  0
 37 38  1  0  0  0  0
 38 43  1  0  0  0  0
 40 41  2  0  0  0  0
 41 39  1  0  0  0  0
 42 40  1  0  0  0  0
 42 38  2  0  0  0  0
 43 39  2  0  0  0  0
M  END
>  <MODEL>
8

>  <REMARK>
 VINA RESULT:      -8.7      3.282      8.219
  Name = 
  11 active torsions:
  status: ('A' for Active; 'I' for Inactive)
    1  A    between atoms: O_1  and  C_34
    2  A    between atoms: O_1  and  C_35
    3  A    between atoms: C_2  and  C_6
    4  A    between atoms: C_2  and  C_13
    5  A    between atoms: C_3  and  N_4
    6  A    between atoms: C_3  and  C_12
    7  A    between atoms: C_6  and  C_12
    8  A    between atoms: C_11  and  C_14
    9  A    between atoms: C_12  and  C_17
   10  A    between atoms: C_14  and  C_22
   11  A    between atoms: C_19  and  C_37
                            x       y       z     vdW  Elec       q    Type
                         _______ _______ _______ _____ _____    ______ ____

>  <TORSDO>
F 11

$$$$
=
 OpenBabel10272414193D

 43 48  0  0  1  0  0  0  0  0999 V2000
  187.9520  177.7710  147.2180 C   0  0  1  0  0  3  0  0  0  0  0  0
  188.7140  177.8730  142.1480 C   0  0  0  0  0  0  0  0  0  0  0  0
  186.2360  178.5250  141.0730 C   0  0  0  0  0  0  0  0  0  0  0  0
  188.9320  177.4780  144.9210 C   0  0  0  0  0  0  0  0  0  0  0  0
  186.6160  177.3710  146.6130 C   0  0  0  0  0  2  0  0  0  0  0  0
  188.0360  177.2940  148.5250 O   0  0  0  0  0  1  0  0  0  0  0  0
  187.6730  177.7930  144.3570 C   0  0  0  0  0  0  0  0  0  0  0  0
  189.0840  177.1750  146.3860 C   0  0  0  0  0  2  0  0  0  0  0  0
  186.4670  178.0180  145.2390 C   0  0  0  0  0  2  0  0  0  0  0  0
  186.3720  178.3270  142.4100 N   0  0  0  0  0  0  0  0  0  0  0  0
  187.5690  178.0010  142.9700 C   0  0  0  0  0  0  0  0  0  0  0  0
  189.9470  177.5430  142.7220 C   0  0  0  0  0  3  0  0  0  0  0  0
  188.5990  178.0890  140.7660 C   0  0  0  0  0  0  0  0  0  0  0  0
  187.3440  178.4140  140.2320 C   0  0  0  0  0  3  0  0  0  0  0  0
  190.0510  177.3420  144.0980 C   0  0  0  0  0  3  0  0  0  0  0  0
  189.7370  177.9830  139.9450 O   0  0  0  0  0  0  0  0  0  0  0  0
  191.3510  175.3510  137.7600 C   0  0  0  0  0  2  0  0  0  0  0  0
  191.2250  176.0990  136.4360 C   0  0  2  0  0  3  0  0  0  0  0  0
  189.7080  177.7800  137.5070 C   0  0  0  0  0  2  0  0  0  0  0  0
  191.2170  176.3220  138.9290 C   0  0  0  0  0  2  0  0  0  0  0  0
  189.8820  177.0710  138.8530 C   0  0  1  0  0  3  0  0  0  0  0  0
  189.8610  176.7860  136.3600 C   0  0  0  0  0  2  0  0  0  0  0  0
  191.1880  173.8170  135.7420 O   0  0  0  0  0  1  0  0  0  0  0  0
  191.3840  175.1210  135.2870 C   0  0  0  0  0  2  0  0  0  0  0  0
  184.9100  178.9060  140.5130 C   0  0  0  0  0  2  0  0  0  0  0  0
  183.8020  178.2780  141.3380 C   0  0  0  0  0  2  0  0  0  0  0  0
  182.5690  178.0330  140.4770 C   0  0  2  0  0  3  0  0  0  0  0  0
  181.6360  178.8120  142.5310 O   0  0  0  0  0  1  0  0  0  0  0  0
  181.3060  178.3970  141.2410 C   0  0  0  0  0  2  0  0  0  0  0  0
  182.5010  176.5890  139.9770 C   0  0  0  0  0  2  0  0  0  0  0  0
  181.5910  176.4600  138.8370 N   0  0  0  0  0  0  0  0  0  0  0  0
  181.1610  175.9510  136.2930 S   0  0  0  0  0  0  0  0  0  0  0  0
  181.0820  175.1510  138.8380 N   0  0  0  0  0  2  0  0  0  0  0  0
  182.2680  176.6550  137.5460 C   0  0  1  0  0  0  0  0  0  0  0  0
  182.4230  178.1460  137.2840 C   0  0  0  0  0  1  0  0  0  0  0  0
  180.3310  175.0020  137.6000 C   0  0  0  0  0  2  0  0  0  0  0  0
  183.6370  175.9320  137.4890 C   0  0  0  0  0  2  0  0  0  0  0  0
  184.6450  176.5690  136.5820 C   0  0  0  0  0  0  0  0  0  0  0  0
  186.5510  178.0330  136.2620 C   0  0  0  0  0  3  0  0  0  0  0  0
  185.6010  176.8540  134.3710 C   0  0  0  0  0  3  0  0  0  0  0  0
  186.5510  177.7370  134.8950 C   0  0  0  0  0  3  0  0  0  0  0  0
  184.6480  176.2720  135.2130 C   0  0  0  0  0  3  0  0  0  0  0  0
  185.6020  177.4470  137.1050 C   0  0  0  0  0  3  0  0  0  0  0  0
  1  6  1  1  0  0  0
  2 12  1  0  0  0  0
  2 11  1  0  0  0  0
  3 10  1  0  0  0  0
  4  8  1  0  0  0  0
  5  1  1  0  0  0  0
  7  4  2  0  0  0  0
  7  9  1  0  0  0  0
  8  1  1  0  0  0  0
  9  5  1  0  0  0  0
 10 11  2  0  0  0  0
 11  7  1  0  0  0  0
 12 15  2  0  0  0  0
 13  2  2  0  0  0  0
 14 13  1  0  0  0  0
 14  3  2  0  0  0  0
 15  4  1  0  0  0  0
 16 13  1  0  0  0  0
 17 20  1  0  0  0  0
 18 24  1  6  0  0  0
 18 17  1  0  0  0  0
 19 21  1  0  0  0  0
 21 20  1  0  0  0  0
 21 16  1  1  0  0  0
 22 18  1  0  0  0  0
 22 19  1  0  0  0  0
 24 23  1  0  0  0  0
 25  3  1  0  0  0  0
 25 26  1  0  0  0  0
 27 30  1  1  0  0  0
 27 29  1  0  0  0  0
 27 26  1  0  0  0  0
 29 28  1  0  0  0  0
 31 33  1  0  0  0  0
 31 30  1  0  0  0  0
 32 34  1  0  0  0  0
 32 36  1  0  0  0  0
 34 35  1  6  0  0  0
 34 31  1  0  0  0  0
 36 33  1  0  0  0  0
 37 34  1  0  0  0  0
 38 43  1  0  0  0  0
 38 37  1  0  0  0  0
 39 43  2  0  0  0  0
 40 41  2  0  0  0  0
 40 42  1  0  0  0  0
 41 39  1  0  0  0  0
 42 38  2  0  0  0  0
M  END
>  <MODEL>
9

>  <REMARK>
 VINA RESULT:      -8.7      3.282      8.529
  Name = 
  11 active torsions:
  status: ('A' for Active; 'I' for Inactive)
    1  A    between atoms: O_1  and  C_34
    2  A    between atoms: O_1  and  C_35
    3  A    between atoms: C_2  and  C_6
    4  A    between atoms: C_2  and  C_13
    5  A    between atoms: C_3  and  N_4
    6  A    between atoms: C_3  and  C_12
    7  A    between atoms: C_6  and  C_12
    8  A    between atoms: C_11  and  C_14
    9  A    between atoms: C_12  and  C_17
   10  A    between atoms: C_14  and  C_22
   11  A    between atoms: C_19  and  C_37
                            x       y       z     vdW  Elec       q    Type
                         _______ _______ _______ _____ _____    ______ ____

>  <TORSDO>
F 11

$$$$
