=
 OpenBabel10272415033D

 37 40  0  0  1  0  0  0  0  0999 V2000
  187.9880  178.2370  139.3800 C   0  0  0  0  0  3  0  0  0  0  0  0
  188.2260  176.2540  138.3090 O   0  0  0  0  0  1  0  0  0  0  0  0
  185.6480  177.5490  138.4200 C   0  0  2  0  0  3  0  0  0  0  0  0
  186.7430  178.2180  135.0600 O   0  0  0  0  0  1  0  0  0  0  0  0
  184.4050  178.4150  138.2960 C   0  0  0  0  0  2  0  0  0  0  0  0
  188.5650  177.6180  138.1760 C   0  0  1  0  0  0  0  0  0  0  0  0
  187.2560  177.5150  136.1490 C   0  0  1  0  0  0  0  0  0  0  0  0
  189.8900  176.9270  136.1970 C   0  0  2  0  0  3  0  0  0  0  0  0
  186.0160  178.8580  140.6410 C   0  0  0  0  0  3  0  0  0  0  0  0
  187.8910  178.4580  137.0680 C   0  0  0  0  0  2  0  0  0  0  0  0
  189.9750  177.5800  137.6450 C   0  0  0  0  0  2  0  0  0  0  0  0
  186.6270  178.1790  139.4870 C   0  0  0  0  0  0  0  0  0  0  0  0
  186.0830  176.8920  137.0130 C   0  0  2  0  0  3  0  0  0  0  0  0
  183.7420  178.5350  139.6690 C   0  0  1  0  0  3  0  0  0  0  0  0
  188.4230  176.5650  135.6660 C   0  0  0  0  0  2  0  0  0  0  0  0
  184.6950  179.0450  140.7210 C   0  0  0  0  0  3  0  0  0  0  0  0
  181.4110  179.2580  140.4050 C   0  0  0  0  0  3  0  0  0  0  0  0
  182.5210  179.3880  139.5890 C   0  0  0  0  0  0  0  0  0  0  0  0
  182.2890  180.4010  138.6810 C   0  0  0  0  0  3  0  0  0  0  0  0
  181.0640  180.8900  138.9300 N   0  0  0  0  0  0  0  0  0  0  0  0
  180.5200  180.2230  139.9650 C   0  0  0  0  0  3  0  0  0  0  0  0
  180.5870  181.7990  136.7230 C   0  0  0  0  0  1  0  0  0  0  0  0
  180.4390  181.9930  138.2200 C   0  0  0  0  0  2  0  0  0  0  0  0
  191.3830  175.4590  137.3420 O   0  0  0  0  0  1  0  0  0  0  0  0
  190.7820  175.7030  136.1070 C   0  0  0  0  0  2  0  0  0  0  0  0
  185.1630  175.8120  136.3690 C   0  0  1  0  0  0  0  0  0  0  0  0
  185.4450  174.4990  134.3470 O   0  0  0  0  0  1  0  0  0  0  0  0
  185.9810  174.7490  135.6130 C   0  0  0  0  0  2  0  0  0  0  0  0
  184.2910  175.1300  137.4420 C   0  0  0  0  0  2  0  0  0  0  0  0
  184.4080  173.6390  137.5010 C   0  0  0  0  0  0  0  0  0  0  0  0
  183.5230  171.3770  136.8330 C   0  0  0  0  0  1  0  0  0  0  0  0
  185.3470  173.1080  138.1550 O   0  0  0  0  0  0  0  0  0  0  0  0
  183.4620  172.8280  136.8030 N   0  0  0  0  0  2  0  0  0  0  0  0
  184.2360  176.5190  135.3630 C   0  0  0  0  0  2  0  0  0  0  0  0
  182.7470  176.3500  135.6550 C   0  0  1  0  0  3  0  0  0  0  0  0
  182.0690  177.7050  135.6860 C   0  0  0  0  0  1  0  0  0  0  0  0
  182.1680  175.5720  134.6550 O   0  0  0  0  0  1  0  0  0  0  0  0
  1 12  2  0  0  0  0
  3  5  1  6  0  0  0
  3 12  1  0  0  0  0
  5 14  1  0  0  0  0
  6  2  1  6  0  0  0
  6  1  1  0  0  0  0
  7  4  1  6  0  0  0
  7 13  1  0  0  0  0
  7 10  1  0  0  0  0
  8 25  1  1  0  0  0
  8 11  1  0  0  0  0
  9 16  2  0  0  0  0
 10  6  1  0  0  0  0
 11  6  1  0  0  0  0
 12  9  1  0  0  0  0
 13 26  1  6  0  0  0
 13  3  1  0  0  0  0
 14 18  1  6  0  0  0
 14 16  1  0  0  0  0
 15  7  1  0  0  0  0
 15  8  1  0  0  0  0
 18 17  1  0  0  0  0
 19 20  1  0  0  0  0
 19 18  2  0  0  0  0
 20 21  1  0  0  0  0
 21 17  2  0  0  0  0
 22 23  1  0  0  0  0
 23 20  1  0  0  0  0
 25 24  1  0  0  0  0
 26 34  1  6  0  0  0
 26 29  1  0  0  0  0
 27 28  1  0  0  0  0
 28 26  1  0  0  0  0
 29 30  1  0  0  0  0
 30 32  2  0  0  0  0
 33 31  1  0  0  0  0
 33 30  1  0  0  0  0
 34 35  1  0  0  0  0
 35 36  1  6  0  0  0
 37 35  1  0  0  0  0
M  END
>  <MODEL>
1

>  <REMARK>
 VINA RESULT:      -5.0      0.000      0.000
  Name = 
  9 active torsions:
  status: ('A' for Active; 'I' for Inactive)
    1  A    between atoms: C_1  and  C_5
    2  A    between atoms: C_1  and  C_36
    3  A    between atoms: C_6  and  C_31
    4  A    between atoms: C_11  and  C_33
    5  A    between atoms: N_18  and  C_19
    6  A    between atoms: C_21  and  C_30
    7  A    between atoms: C_27  and  C_36
    8  A    between atoms: C_29  and  C_36
    9  A    between atoms: C_33  and  C_36
                            x       y       z     vdW  Elec       q    Type
                         _______ _______ _______ _____ _____    ______ ____

>  <TORSDO>
F 9

$$$$
=
 OpenBabel10272415033D

 37 40  0  0  1  0  0  0  0  0999 V2000
  187.1820  173.5410  135.3840 C   0  0  0  0  0  3  0  0  0  0  0  0
  185.7690  174.9160  136.5000 O   0  0  0  0  0  1  0  0  0  0  0  0
  188.6200  175.3480  136.6230 C   0  0  2  0  0  3  0  0  0  0  0  0
  187.5140  177.9030  134.3460 O   0  0  0  0  0  1  0  0  0  0  0  0
  190.0950  175.6610  136.4180 C   0  0  0  0  0  2  0  0  0  0  0  0
  186.1810  174.6020  135.1870 C   0  0  1  0  0  0  0  0  0  0  0  0
  186.8930  176.9080  135.0980 C   0  0  1  0  0  0  0  0  0  0  0  0
  184.3910  176.1430  134.4310 C   0  0  2  0  0  3  0  0  0  0  0  0
  189.3600  172.8850  136.2160 C   0  0  0  0  0  3  0  0  0  0  0  0
  187.0060  175.6350  134.3870 C   0  0  0  0  0  2  0  0  0  0  0  0
  184.8970  174.6350  134.3980 C   0  0  0  0  0  2  0  0  0  0  0  0
  188.3060  173.9020  136.0710 C   0  0  0  0  0  0  0  0  0  0  0  0
  187.6850  176.6490  136.4450 C   0  0  2  0  0  3  0  0  0  0  0  0
  190.9320  174.5950  137.1230 C   0  0  1  0  0  3  0  0  0  0  0  0
  185.3410  177.1950  135.1790 C   0  0  0  0  0  2  0  0  0  0  0  0
  190.5740  173.1990  136.6760 C   0  0  0  0  0  3  0  0  0  0  0  0
  192.9120  175.8970  136.1820 C   0  0  0  0  0  3  0  0  0  0  0  0
  192.3880  174.8630  136.9360 C   0  0  0  0  0  0  0  0  0  0  0  0
  193.4290  174.1140  137.4470 C   0  0  0  0  0  3  0  0  0  0  0  0
  194.5720  174.6730  137.0200 N   0  0  0  0  0  0  0  0  0  0  0  0
  194.2860  175.7490  136.2630 C   0  0  0  0  0  3  0  0  0  0  0  0
  196.1020  174.2220  138.8580 C   0  0  0  0  0  1  0  0  0  0  0  0
  195.9100  174.2130  137.3540 C   0  0  0  0  0  2  0  0  0  0  0  0
  182.4900  177.5210  134.8610 O   0  0  0  0  0  1  0  0  0  0  0  0
  182.9880  176.2260  135.0040 C   0  0  0  0  0  2  0  0  0  0  0  0
  187.7820  177.7970  137.4940 C   0  0  1  0  0  0  0  0  0  0  0  0
  188.6890  180.0440  137.3420 O   0  0  0  0  0  1  0  0  0  0  0  0
  189.0130  178.6880  137.2460 C   0  0  0  0  0  2  0  0  0  0  0  0
  186.5040  178.6600  137.4760 C   0  0  0  0  0  2  0  0  0  0  0  0
  185.5390  178.3890  138.5880 C   0  0  0  0  0  0  0  0  0  0  0  0
  184.6760  178.9640  140.8840 C   0  0  0  0  0  1  0  0  0  0  0  0
  184.6860  177.4680  138.4690 O   0  0  0  0  0  0  0  0  0  0  0  0
  185.5830  179.1880  139.7710 N   0  0  0  0  0  2  0  0  0  0  0  0
  187.9190  177.1560  138.8870 C   0  0  0  0  0  2  0  0  0  0  0  0
  189.1190  177.6490  139.6910 C   0  0  1  0  0  3  0  0  0  0  0  0
  188.6660  178.1270  141.0560 C   0  0  0  0  0  1  0  0  0  0  0  0
  190.0270  176.6040  139.8510 O   0  0  0  0  0  1  0  0  0  0  0  0
  1 12  2  0  0  0  0
  3  5  1  6  0  0  0
  5 14  1  0  0  0  0
  6  1  1  0  0  0  0
  6  2  1  1  0  0  0
  7  4  1  6  0  0  0
  7 15  1  0  0  0  0
  7 13  1  0  0  0  0
  8 25  1  1  0  0  0
  8 15  1  0  0  0  0
  9 16  2  0  0  0  0
 10  7  1  0  0  0  0
 10  6  1  0  0  0  0
 11  8  1  0  0  0  0
 11  6  1  0  0  0  0
 12  9  1  0  0  0  0
 12  3  1  0  0  0  0
 13  3  1  0  0  0  0
 13 26  1  6  0  0  0
 14 18  1  6  0  0  0
 16 14  1  0  0  0  0
 17 21  2  0  0  0  0
 17 18  1  0  0  0  0
 18 19  2  0  0  0  0
 20 23  1  0  0  0  0
 20 19  1  0  0  0  0
 21 20  1  0  0  0  0
 23 22  1  0  0  0  0
 24 25  1  0  0  0  0
 26 28  1  6  0  0  0
 26 34  1  0  0  0  0
 28 27  1  0  0  0  0
 29 26  1  0  0  0  0
 29 30  1  0  0  0  0
 30 33  1  0  0  0  0
 32 30  2  0  0  0  0
 33 31  1  0  0  0  0
 34 35  1  0  0  0  0
 35 37  1  0  0  0  0
 35 36  1  1  0  0  0
M  END
>  <MODEL>
2

>  <REMARK>
 VINA RESULT:      -5.0      3.065      8.519
  Name = 
  9 active torsions:
  status: ('A' for Active; 'I' for Inactive)
    1  A    between atoms: C_1  and  C_5
    2  A    between atoms: C_1  and  C_36
    3  A    between atoms: C_6  and  C_31
    4  A    between atoms: C_11  and  C_33
    5  A    between atoms: N_18  and  C_19
    6  A    between atoms: C_21  and  C_30
    7  A    between atoms: C_27  and  C_36
    8  A    between atoms: C_29  and  C_36
    9  A    between atoms: C_33  and  C_36
                            x       y       z     vdW  Elec       q    Type
                         _______ _______ _______ _____ _____    ______ ____

>  <TORSDO>
F 9

$$$$
=
 OpenBabel10272415033D

 37 40  0  0  1  0  0  0  0  0999 V2000
  190.8240  177.6300  140.9560 C   0  0  0  0  0  3  0  0  0  0  0  0
  190.2040  178.6180  142.8990 O   0  0  0  0  0  1  0  0  0  0  0  0
  188.2390  178.0500  140.8620 C   0  0  2  0  0  3  0  0  0  0  0  0
  187.6520  175.4660  143.2940 O   0  0  0  0  0  1  0  0  0  0  0  0
  187.2410  177.4790  139.8660 C   0  0  0  0  0  2  0  0  0  0  0  0
  190.6400  177.3740  142.3940 C   0  0  1  0  0  0  0  0  0  0  0  0
  188.5140  176.5560  143.1940 C   0  0  1  0  0  0  0  0  0  0  0  0
  190.7140  176.6260  144.7570 C   0  0  2  0  0  3  0  0  0  0  0  0
  189.8350  178.1470  138.8070 C   0  0  0  0  0  3  0  0  0  0  0  0
  189.6520  176.1880  142.3530 C   0  0  0  0  0  2  0  0  0  0  0  0
  191.5900  176.8790  143.4540 C   0  0  0  0  0  2  0  0  0  0  0  0
  189.6960  177.9620  140.2610 C   0  0  0  0  0  0  0  0  0  0  0  0
  187.8290  177.7370  142.3900 C   0  0  2  0  0  3  0  0  0  0  0  0
  187.3560  178.2500  138.5510 C   0  0  1  0  0  3  0  0  0  0  0  0
  189.1370  176.8720  144.6110 C   0  0  0  0  0  2  0  0  0  0  0  0
  188.7660  178.2570  138.0130 C   0  0  0  0  0  3  0  0  0  0  0  0
  186.7360  177.3230  136.2580 C   0  0  0  0  0  3  0  0  0  0  0  0
  186.3980  177.7120  137.5420 C   0  0  0  0  0  0  0  0  0  0  0  0
  185.0370  177.5530  137.7110 C   0  0  0  0  0  3  0  0  0  0  0  0
  184.5430  177.0740  136.5580 N   0  0  0  0  0  0  0  0  0  0  0  0
  185.5460  176.9230  135.6730 C   0  0  0  0  0  3  0  0  0  0  0  0
  182.2590  177.9040  136.6890 C   0  0  0  0  0  1  0  0  0  0  0  0
  183.1510  176.7350  136.3160 C   0  0  0  0  0  2  0  0  0  0  0  0
  192.0540  176.6210  146.7320 O   0  0  0  0  0  1  0  0  0  0  0  0
  191.2500  177.4290  145.9290 C   0  0  0  0  0  2  0  0  0  0  0  0
  186.5580  178.4150  142.9840 C   0  0  1  0  0  0  0  0  0  0  0  0
  185.6510  180.6640  143.1170 O   0  0  0  0  0  1  0  0  0  0  0  0
  186.2210  179.7270  142.2510 C   0  0  0  0  0  2  0  0  0  0  0  0
  185.3500  177.4590  142.9170 C   0  0  0  0  0  2  0  0  0  0  0  0
  184.0930  178.0610  142.3700 C   0  0  0  0  0  0  0  0  0  0  0  0
  182.6230  178.5510  140.3840 C   0  0  0  0  0  1  0  0  0  0  0  0
  183.2760  178.6250  143.1470 O   0  0  0  0  0  0  0  0  0  0  0  0
  183.8220  177.9780  140.9700 N   0  0  0  0  0  2  0  0  0  0  0  0
  186.8410  178.7420  144.4610 C   0  0  0  0  0  2  0  0  0  0  0  0
  185.8160  178.1740  145.4390 C   0  0  1  0  0  3  0  0  0  0  0  0
  186.5230  177.5500  146.6250 C   0  0  0  0  0  1  0  0  0  0  0  0
  184.9890  179.2020  145.8880 O   0  0  0  0  0  1  0  0  0  0  0  0
  1  6  1  0  0  0  0
  3  5  1  6  0  0  0
  3 13  1  0  0  0  0
  6  2  1  1  0  0  0
  6 11  1  0  0  0  0
  7  4  1  1  0  0  0
  7 15  1  0  0  0  0
  8 25  1  1  0  0  0
  9 12  1  0  0  0  0
 10  6  1  0  0  0  0
 10  7  1  0  0  0  0
 11  8  1  0  0  0  0
 12  3  1  0  0  0  0
 12  1  2  0  0  0  0
 13 26  1  6  0  0  0
 13  7  1  0  0  0  0
 14 18  1  6  0  0  0
 14  5  1  0  0  0  0
 15  8  1  0  0  0  0
 16 14  1  0  0  0  0
 16  9  2  0  0  0  0
 17 18  1  0  0  0  0
 18 19  2  0  0  0  0
 20 19  1  0  0  0  0
 21 17  2  0  0  0  0
 21 20  1  0  0  0  0
 23 20  1  0  0  0  0
 23 22  1  0  0  0  0
 25 24  1  0  0  0  0
 26 28  1  6  0  0  0
 26 34  1  0  0  0  0
 28 27  1  0  0  0  0
 29 26  1  0  0  0  0
 30 29  1  0  0  0  0
 30 32  2  0  0  0  0
 31 33  1  0  0  0  0
 33 30  1  0  0  0  0
 34 35  1  0  0  0  0
 35 37  1  0  0  0  0
 35 36  1  1  0  0  0
M  END
>  <MODEL>
3

>  <REMARK>
 VINA RESULT:      -4.9      4.346      7.241
  Name = 
  9 active torsions:
  status: ('A' for Active; 'I' for Inactive)
    1  A    between atoms: C_1  and  C_5
    2  A    between atoms: C_1  and  C_36
    3  A    between atoms: C_6  and  C_31
    4  A    between atoms: C_11  and  C_33
    5  A    between atoms: N_18  and  C_19
    6  A    between atoms: C_21  and  C_30
    7  A    between atoms: C_27  and  C_36
    8  A    between atoms: C_29  and  C_36
    9  A    between atoms: C_33  and  C_36
                            x       y       z     vdW  Elec       q    Type
                         _______ _______ _______ _____ _____    ______ ____

>  <TORSDO>
F 9

$$$$
=
 OpenBabel10272415033D

 37 40  0  0  1  0  0  0  0  0999 V2000
  188.3960  178.2290  140.1310 C   0  0  0  0  0  3  0  0  0  0  0  0
  189.0220  176.2260  139.2750 O   0  0  0  0  0  1  0  0  0  0  0  0
  186.5140  177.4230  138.4950 C   0  0  2  0  0  3  0  0  0  0  0  0
  188.6220  178.0330  135.6450 O   0  0  0  0  0  1  0  0  0  0  0  0
  185.3550  178.2370  137.9400 C   0  0  0  0  0  2  0  0  0  0  0  0
  189.3490  177.5970  139.2040 C   0  0  1  0  0  0  0  0  0  0  0  0
  188.7720  177.3840  136.8680 C   0  0  1  0  0  0  0  0  0  0  0  0
  191.2630  176.9000  137.7890 C   0  0  2  0  0  3  0  0  0  0  0  0
  186.1050  178.8100  140.6600 C   0  0  0  0  0  3  0  0  0  0  0  0
  189.0490  178.3780  137.9040 C   0  0  0  0  0  2  0  0  0  0  0  0
  190.8550  177.5980  139.1600 C   0  0  0  0  0  2  0  0  0  0  0  0
  187.0770  178.1220  139.7940 C   0  0  0  0  0  0  0  0  0  0  0  0
  187.4000  176.7420  137.3320 C   0  0  2  0  0  3  0  0  0  0  0  0
  184.2800  178.3710  139.0180 C   0  0  1  0  0  3  0  0  0  0  0  0
  190.0570  176.4650  136.8280 C   0  0  0  0  0  2  0  0  0  0  0  0
  184.8260  178.9490  140.3010 C   0  0  0  0  0  3  0  0  0  0  0  0
  182.8480  180.4760  138.8850 C   0  0  0  0  0  3  0  0  0  0  0  0
  183.1280  179.1740  138.5140 C   0  0  0  0  0  0  0  0  0  0  0  0
  182.1510  178.7410  137.6390 C   0  0  0  0  0  3  0  0  0  0  0  0
  181.2870  179.7550  137.4710 N   0  0  0  0  0  0  0  0  0  0  0  0
  181.6890  180.8080  138.2050 C   0  0  0  0  0  3  0  0  0  0  0  0
  180.1360  180.9370  135.6820 C   0  0  0  0  0  1  0  0  0  0  0  0
  180.1230  179.7310  136.6020 C   0  0  0  0  0  2  0  0  0  0  0  0
  191.4280  174.5270  137.9870 O   0  0  0  0  0  1  0  0  0  0  0  0
  192.1680  175.7080  138.0430 C   0  0  0  0  0  2  0  0  0  0  0  0
  186.7680  175.6090  136.4690 C   0  0  1  0  0  0  0  0  0  0  0  0
  186.2460  176.6680  134.3470 O   0  0  0  0  0  1  0  0  0  0  0  0
  185.6850  176.1560  135.5200 C   0  0  0  0  0  2  0  0  0  0  0  0
  187.8520  174.8780  135.6520 C   0  0  0  0  0  2  0  0  0  0  0  0
  188.0100  173.4230  135.9630 C   0  0  0  0  0  0  0  0  0  0  0  0
  187.4710  171.0260  135.4060 C   0  0  0  0  0  1  0  0  0  0  0  0
  188.7260  173.0630  136.9370 O   0  0  0  0  0  0  0  0  0  0  0  0
  187.3590  172.4510  135.1450 N   0  0  0  0  0  2  0  0  0  0  0  0
  186.1110  174.5960  137.4240 C   0  0  0  0  0  2  0  0  0  0  0  0
  184.6410  174.3120  137.1250 C   0  0  1  0  0  3  0  0  0  0  0  0
  184.3770  172.8220  137.1930 C   0  0  0  0  0  1  0  0  0  0  0  0
  183.8470  174.9610  138.0690 O   0  0  0  0  0  1  0  0  0  0  0  0
  3  5  1  6  0  0  0
  3 12  1  0  0  0  0
  5 14  1  0  0  0  0
  6  2  1  6  0  0  0
  6  1  1  0  0  0  0
  7  4  1  6  0  0  0
  7 13  1  0  0  0  0
  7 10  1  0  0  0  0
  8 25  1  1  0  0  0
  8 11  1  0  0  0  0
 10  6  1  0  0  0  0
 11  6  1  0  0  0  0
 12  1  2  0  0  0  0
 12  9  1  0  0  0  0
 13 26  1  6  0  0  0
 13  3  1  0  0  0  0
 14 18  1  6  0  0  0
 14 16  1  0  0  0  0
 15  7  1  0  0  0  0
 15  8  1  0  0  0  0
 16  9  2  0  0  0  0
 18 17  1  0  0  0  0
 19 18  2  0  0  0  0
 20 19  1  0  0  0  0
 20 21  1  0  0  0  0
 21 17  2  0  0  0  0
 22 23  1  0  0  0  0
 23 20  1  0  0  0  0
 24 25  1  0  0  0  0
 26 28  1  6  0  0  0
 26 34  1  0  0  0  0
 27 28  1  0  0  0  0
 29 30  1  0  0  0  0
 29 26  1  0  0  0  0
 30 32  2  0  0  0  0
 33 31  1  0  0  0  0
 33 30  1  0  0  0  0
 35 36  1  1  0  0  0
 35 34  1  0  0  0  0
 35 37  1  0  0  0  0
M  END
>  <MODEL>
4

>  <REMARK>
 VINA RESULT:      -4.7      1.777      2.457
  Name = 
  9 active torsions:
  status: ('A' for Active; 'I' for Inactive)
    1  A    between atoms: C_1  and  C_5
    2  A    between atoms: C_1  and  C_36
    3  A    between atoms: C_6  and  C_31
    4  A    between atoms: C_11  and  C_33
    5  A    between atoms: N_18  and  C_19
    6  A    between atoms: C_21  and  C_30
    7  A    between atoms: C_27  and  C_36
    8  A    between atoms: C_29  and  C_36
    9  A    between atoms: C_33  and  C_36
                            x       y       z     vdW  Elec       q    Type
                         _______ _______ _______ _____ _____    ______ ____

>  <TORSDO>
F 9

$$$$
=
 OpenBabel10272415033D

 37 40  0  0  1  0  0  0  0  0999 V2000
  190.9380  177.5270  141.0960 C   0  0  0  0  0  3  0  0  0  0  0  0
  190.2740  178.5400  143.0120 O   0  0  0  0  0  1  0  0  0  0  0  0
  188.3650  177.9920  140.9180 C   0  0  2  0  0  3  0  0  0  0  0  0
  187.6550  175.4350  143.3470 O   0  0  0  0  0  1  0  0  0  0  0  0
  187.3890  177.4320  139.8940 C   0  0  0  0  0  2  0  0  0  0  0  0
  190.7040  177.2850  142.5290 C   0  0  1  0  0  0  0  0  0  0  0  0
  188.5390  176.5100  143.2670 C   0  0  1  0  0  0  0  0  0  0  0  0
  190.6890  176.5510  144.8980 C   0  0  2  0  0  3  0  0  0  0  0  0
  190.0260  178.0460  138.9130 C   0  0  0  0  0  3  0  0  0  0  0  0
  189.6960  176.1150  142.4650 C   0  0  0  0  0  2  0  0  0  0  0  0
  191.6110  176.7790  143.6220 C   0  0  0  0  0  2  0  0  0  0  0  0
  189.8390  177.8740  140.3630 C   0  0  0  0  0  0  0  0  0  0  0  0
  187.9010  177.6970  142.4340 C   0  0  2  0  0  3  0  0  0  0  0  0
  187.5590  178.1910  138.5780 C   0  0  1  0  0  3  0  0  0  0  0  0
  189.1230  176.8250  144.7010 C   0  0  0  0  0  2  0  0  0  0  0  0
  188.9850  178.1690  138.0850 C   0  0  0  0  0  3  0  0  0  0  0  0
  185.2440  177.6730  137.6440 C   0  0  0  0  0  3  0  0  0  0  0  0
  186.6240  177.6630  137.5430 C   0  0  0  0  0  0  0  0  0  0  0  0
  186.9780  177.0560  136.3540 C   0  0  0  0  0  3  0  0  0  0  0  0
  185.8420  176.7000  135.7330 N   0  0  0  0  0  0  0  0  0  0  0  0
  184.7890  177.0660  136.4860 C   0  0  0  0  0  3  0  0  0  0  0  0
  186.4060  174.6840  134.4910 C   0  0  0  0  0  1  0  0  0  0  0  0
  185.7620  176.0570  134.4320 C   0  0  0  0  0  2  0  0  0  0  0  0
  191.9830  176.5420  146.9040 O   0  0  0  0  0  1  0  0  0  0  0  0
  191.2020  177.3530  146.0810 C   0  0  0  0  0  2  0  0  0  0  0  0
  186.6240  178.4020  142.9820 C   0  0  1  0  0  0  0  0  0  0  0  0
  185.6060  180.6060  142.9840 O   0  0  0  0  0  1  0  0  0  0  0  0
  186.3050  179.6870  142.1960 C   0  0  0  0  0  2  0  0  0  0  0  0
  185.4130  177.4490  142.9330 C   0  0  0  0  0  2  0  0  0  0  0  0
  184.1650  178.0380  142.3540 C   0  0  0  0  0  0  0  0  0  0  0  0
  182.7870  178.6050  140.3230 C   0  0  0  0  0  1  0  0  0  0  0  0
  183.2830  178.5160  143.1190 O   0  0  0  0  0  0  0  0  0  0  0  0
  183.9750  178.0400  140.9390 N   0  0  0  0  0  2  0  0  0  0  0  0
  186.8870  178.7830  144.4500 C   0  0  0  0  0  2  0  0  0  0  0  0
  185.8810  178.2020  145.4400 C   0  0  1  0  0  3  0  0  0  0  0  0
  186.6050  177.6610  146.6570 C   0  0  0  0  0  1  0  0  0  0  0  0
  184.9990  179.2040  145.8410 O   0  0  0  0  0  1  0  0  0  0  0  0
  1  6  1  0  0  0  0
  3  5  1  6  0  0  0
  3 13  1  0  0  0  0
  6  2  1  1  0  0  0
  6 11  1  0  0  0  0
  7  4  1  1  0  0  0
  7 15  1  0  0  0  0
  8 25  1  1  0  0  0
  9 12  1  0  0  0  0
 10  6  1  0  0  0  0
 10  7  1  0  0  0  0
 11  8  1  0  0  0  0
 12  3  1  0  0  0  0
 12  1  2  0  0  0  0
 13 26  1  6  0  0  0
 13  7  1  0  0  0  0
 14 18  1  6  0  0  0
 14  5  1  0  0  0  0
 15  8  1  0  0  0  0
 16 14  1  0  0  0  0
 16  9  2  0  0  0  0
 18 17  1  0  0  0  0
 19 18  2  0  0  0  0
 20 19  1  0  0  0  0
 20 21  1  0  0  0  0
 21 17  2  0  0  0  0
 23 22  1  0  0  0  0
 23 20  1  0  0  0  0
 25 24  1  0  0  0  0
 26 28  1  6  0  0  0
 26 34  1  0  0  0  0
 28 27  1  0  0  0  0
 29 26  1  0  0  0  0
 30 29  1  0  0  0  0
 30 32  2  0  0  0  0
 31 33  1  0  0  0  0
 33 30  1  0  0  0  0
 34 35  1  0  0  0  0
 35 37  1  0  0  0  0
 35 36  1  1  0  0  0
M  END
>  <MODEL>
5

>  <REMARK>
 VINA RESULT:      -4.7      4.403      7.494
  Name = 
  9 active torsions:
  status: ('A' for Active; 'I' for Inactive)
    1  A    between atoms: C_1  and  C_5
    2  A    between atoms: C_1  and  C_36
    3  A    between atoms: C_6  and  C_31
    4  A    between atoms: C_11  and  C_33
    5  A    between atoms: N_18  and  C_19
    6  A    between atoms: C_21  and  C_30
    7  A    between atoms: C_27  and  C_36
    8  A    between atoms: C_29  and  C_36
    9  A    between atoms: C_33  and  C_36
                            x       y       z     vdW  Elec       q    Type
                         _______ _______ _______ _____ _____    ______ ____

>  <TORSDO>
F 9

$$$$
=
 OpenBabel10272415033D

 37 40  0  0  1  0  0  0  0  0999 V2000
  188.8380  173.1570  136.0210 C   0  0  0  0  0  3  0  0  0  0  0  0
  187.6430  174.0660  137.7180 O   0  0  0  0  0  1  0  0  0  0  0  0
  190.2870  175.0500  137.1100 C   0  0  2  0  0  3  0  0  0  0  0  0
  188.1440  177.5900  135.7340 O   0  0  0  0  0  1  0  0  0  0  0  0
  191.5570  175.6800  136.5600 C   0  0  0  0  0  2  0  0  0  0  0  0
  187.6720  174.0080  136.3080 C   0  0  1  0  0  0  0  0  0  0  0  0
  187.9500  176.4030  136.4390 C   0  0  1  0  0  0  0  0  0  0  0  0
  185.5170  175.2350  136.3760 C   0  0  2  0  0  3  0  0  0  0  0  0
  191.2410  172.8590  136.0760 C   0  0  0  0  0  3  0  0  0  0  0  0
  188.0360  175.2790  135.5080 C   0  0  0  0  0  2  0  0  0  0  0  0
  186.2180  173.8770  135.9310 C   0  0  0  0  0  2  0  0  0  0  0  0
  190.0480  173.6510  136.4190 C   0  0  0  0  0  0  0  0  0  0  0  0
  189.1510  176.1450  137.4390 C   0  0  2  0  0  3  0  0  0  0  0  0
  192.7280  174.7260  136.7960 C   0  0  1  0  0  3  0  0  0  0  0  0
  186.4750  176.3560  137.0030 C   0  0  0  0  0  2  0  0  0  0  0  0
  192.4730  173.3540  136.2240 C   0  0  0  0  0  3  0  0  0  0  0  0
  194.0690  176.4150  135.4350 C   0  0  0  0  0  3  0  0  0  0  0  0
  193.9940  175.3070  136.2600 C   0  0  0  0  0  0  0  0  0  0  0  0
  195.2690  174.8170  136.4650 C   0  0  0  0  0  3  0  0  0  0  0  0
  196.1150  175.6070  135.7840 N   0  0  0  0  0  0  0  0  0  0  0  0
  195.4170  176.5760  135.1630 C   0  0  0  0  0  3  0  0  0  0  0  0
  197.9590  174.1130  136.3230 C   0  0  0  0  0  1  0  0  0  0  0  0
  197.5600  175.4620  135.7550 C   0  0  0  0  0  2  0  0  0  0  0  0
  184.3870  173.6210  137.7230 O   0  0  0  0  0  1  0  0  0  0  0  0
  184.3660  174.9580  137.3250 C   0  0  0  0  0  2  0  0  0  0  0  0
  189.3870  177.1490  138.6080 C   0  0  1  0  0  0  0  0  0  0  0  0
  188.9810  179.4460  137.9350 O   0  0  0  0  0  1  0  0  0  0  0  0
  189.9760  178.4790  138.1020 C   0  0  0  0  0  2  0  0  0  0  0  0
  188.0720  177.4190  139.3670 C   0  0  0  0  0  2  0  0  0  0  0  0
  188.2390  177.8790  140.7820 C   0  0  0  0  0  0  0  0  0  0  0  0
  188.3950  177.3110  143.2310 C   0  0  0  0  0  1  0  0  0  0  0  0
  188.3860  179.1070  141.0300 O   0  0  0  0  0  0  0  0  0  0  0  0
  188.2440  176.9200  141.8390 N   0  0  0  0  0  2  0  0  0  0  0  0
  190.3920  176.5130  139.5840 C   0  0  0  0  0  2  0  0  0  0  0  0
  191.5640  177.4160  139.9580 C   0  0  1  0  0  3  0  0  0  0  0  0
  191.7300  177.4520  141.4640 C   0  0  0  0  0  1  0  0  0  0  0  0
  192.7310  176.9190  139.3810 O   0  0  0  0  0  1  0  0  0  0  0  0
  1  6  1  0  0  0  0
  1 12  2  0  0  0  0
  3  5  1  6  0  0  0
  3 13  1  0  0  0  0
  5 14  1  0  0  0  0
  6  2  1  1  0  0  0
  7  4  1  6  0  0  0
  7 15  1  0  0  0  0
  7 13  1  0  0  0  0
  8 15  1  0  0  0  0
  8 25  1  1  0  0  0
  9 16  2  0  0  0  0
  9 12  1  0  0  0  0
 10  6  1  0  0  0  0
 10  7  1  0  0  0  0
 11  6  1  0  0  0  0
 11  8  1  0  0  0  0
 12  3  1  0  0  0  0
 13 26  1  6  0  0  0
 14 18  1  6  0  0  0
 16 14  1  0  0  0  0
 17 18  1  0  0  0  0
 18 19  2  0  0  0  0
 20 19  1  0  0  0  0
 21 17  2  0  0  0  0
 21 20  1  0  0  0  0
 23 20  1  0  0  0  0
 23 22  1  0  0  0  0
 25 24  1  0  0  0  0
 26 28  1  6  0  0  0
 26 29  1  0  0  0  0
 26 34  1  0  0  0  0
 27 28  1  0  0  0  0
 29 30  1  0  0  0  0
 30 32  2  0  0  0  0
 30 33  1  0  0  0  0
 33 31  1  0  0  0  0
 34 35  1  0  0  0  0
 35 36  1  1  0  0  0
 37 35  1  0  0  0  0
M  END
>  <MODEL>
6

>  <REMARK>
 VINA RESULT:      -4.6      3.962      9.400
  Name = 
  9 active torsions:
  status: ('A' for Active; 'I' for Inactive)
    1  A    between atoms: C_1  and  C_5
    2  A    between atoms: C_1  and  C_36
    3  A    between atoms: C_6  and  C_31
    4  A    between atoms: C_11  and  C_33
    5  A    between atoms: N_18  and  C_19
    6  A    between atoms: C_21  and  C_30
    7  A    between atoms: C_27  and  C_36
    8  A    between atoms: C_29  and  C_36
    9  A    between atoms: C_33  and  C_36
                            x       y       z     vdW  Elec       q    Type
                         _______ _______ _______ _____ _____    ______ ____

>  <TORSDO>
F 9

$$$$
=
 OpenBabel10272415033D

 37 40  0  0  1  0  0  0  0  0999 V2000
  180.6010  178.0750  140.8180 C   0  0  0  0  0  3  0  0  0  0  0  0
  181.3780  178.7020  138.7840 O   0  0  0  0  0  1  0  0  0  0  0  0
  183.1850  178.4600  141.0220 C   0  0  2  0  0  3  0  0  0  0  0  0
  183.8580  175.4850  139.1160 O   0  0  0  0  0  1  0  0  0  0  0  0
  184.0970  178.0540  142.1700 C   0  0  0  0  0  2  0  0  0  0  0  0
  180.8730  177.5710  139.4620 C   0  0  1  0  0  0  0  0  0  0  0  0
  183.0240  176.5910  138.9670 C   0  0  1  0  0  0  0  0  0  0  0  0
  180.9360  176.4270  137.2630 C   0  0  2  0  0  3  0  0  0  0  0  0
  181.4590  178.9380  142.9120 C   0  0  0  0  0  3  0  0  0  0  0  0
  181.8220  176.3930  139.7760 C   0  0  0  0  0  2  0  0  0  0  0  0
  179.9820  176.9160  138.4390 C   0  0  0  0  0  2  0  0  0  0  0  0
  181.6890  178.5030  141.5250 C   0  0  0  0  0  0  0  0  0  0  0  0
  183.6870  177.8810  139.6030 C   0  0  2  0  0  3  0  0  0  0  0  0
  183.9170  179.0420  143.3220 C   0  0  1  0  0  3  0  0  0  0  0  0
  182.5060  176.6680  137.4760 C   0  0  0  0  0  2  0  0  0  0  0  0
  182.4750  179.1660  143.7490 C   0  0  0  0  0  3  0  0  0  0  0  0
  184.3940  178.6710  145.7990 C   0  0  0  0  0  3  0  0  0  0  0  0
  184.7900  178.6710  144.4730 C   0  0  0  0  0  0  0  0  0  0  0  0
  186.1200  178.3080  144.4070 C   0  0  0  0  0  3  0  0  0  0  0  0
  186.5380  178.0870  145.6630 N   0  0  0  0  0  0  0  0  0  0  0  0
  185.5170  178.2940  146.5150 C   0  0  0  0  0  3  0  0  0  0  0  0
  188.6750  177.3030  144.8030 C   0  0  0  0  0  1  0  0  0  0  0  0
  187.8730  177.6550  146.0410 C   0  0  0  0  0  2  0  0  0  0  0  0
  180.0190  178.3180  136.1320 O   0  0  0  0  0  1  0  0  0  0  0  0
  180.5030  177.0240  135.9360 C   0  0  0  0  0  2  0  0  0  0  0  0
  185.0140  178.4250  138.9940 C   0  0  1  0  0  0  0  0  0  0  0  0
  184.2120  180.7120  138.8430 O   0  0  0  0  0  1  0  0  0  0  0  0
  184.7660  179.6600  138.1080 C   0  0  0  0  0  2  0  0  0  0  0  0
  186.0200  178.7790  140.1080 C   0  0  0  0  0  2  0  0  0  0  0  0
  187.4430  178.4210  139.8160 C   0  0  0  0  0  0  0  0  0  0  0  0
  189.4810  177.0490  140.3720 C   0  0  0  0  0  1  0  0  0  0  0  0
  188.0510  178.9870  138.8660 O   0  0  0  0  0  0  0  0  0  0  0  0
  188.0990  177.4290  140.6060 N   0  0  0  0  0  2  0  0  0  0  0  0
  185.6240  177.3150  138.1200 C   0  0  0  0  0  2  0  0  0  0  0  0
  185.9380  177.7430  136.6880 C   0  0  1  0  0  3  0  0  0  0  0  0
  187.2720  177.1690  136.2570 C   0  0  0  0  0  1  0  0  0  0  0  0
  184.9410  177.2690  135.8380 O   0  0  0  0  0  1  0  0  0  0  0  0
  1 12  2  0  0  0  0
  3 12  1  0  0  0  0
  3  5  1  1  0  0  0
  5 14  1  0  0  0  0
  6  2  1  6  0  0  0
  6 10  1  0  0  0  0
  6  1  1  0  0  0  0
  7  4  1  1  0  0  0
  7 13  1  0  0  0  0
  7 10  1  0  0  0  0
  8 25  1  6  0  0  0
  8 15  1  0  0  0  0
  8 11  1  0  0  0  0
  9 16  2  0  0  0  0
 11  6  1  0  0  0  0
 12  9  1  0  0  0  0
 13 26  1  1  0  0  0
 13  3  1  0  0  0  0
 14 16  1  0  0  0  0
 14 18  1  1  0  0  0
 15  7  1  0  0  0  0
 17 21  2  0  0  0  0
 18 17  1  0  0  0  0
 19 18  2  0  0  0  0
 19 20  1  0  0  0  0
 20 23  1  0  0  0  0
 20 21  1  0  0  0  0
 22 23  1  0  0  0  0
 25 24  1  0  0  0  0
 26 28  1  6  0  0  0
 26 29  1  0  0  0  0
 28 27  1  0  0  0  0
 30 29  1  0  0  0  0
 30 33  1  0  0  0  0
 31 33  1  0  0  0  0
 32 30  2  0  0  0  0
 34 26  1  0  0  0  0
 35 36  1  6  0  0  0
 35 34  1  0  0  0  0
 37 35  1  0  0  0  0
M  END
>  <MODEL>
7

>  <REMARK>
 VINA RESULT:      -4.6      3.551      7.051
  Name = 
  9 active torsions:
  status: ('A' for Active; 'I' for Inactive)
    1  A    between atoms: C_1  and  C_5
    2  A    between atoms: C_1  and  C_36
    3  A    between atoms: C_6  and  C_31
    4  A    between atoms: C_11  and  C_33
    5  A    between atoms: N_18  and  C_19
    6  A    between atoms: C_21  and  C_30
    7  A    between atoms: C_27  and  C_36
    8  A    between atoms: C_29  and  C_36
    9  A    between atoms: C_33  and  C_36
                            x       y       z     vdW  Elec       q    Type
                         _______ _______ _______ _____ _____    ______ ____

>  <TORSDO>
F 9

$$$$
=
 OpenBabel10272415033D

 37 40  0  0  1  0  0  0  0  0999 V2000
  180.1960  176.1320  138.8880 C   0  0  0  0  0  3  0  0  0  0  0  0
  181.1250  176.3080  136.8280 O   0  0  0  0  0  1  0  0  0  0  0  0
  182.6120  177.1080  139.1690 C   0  0  2  0  0  3  0  0  0  0  0  0
  184.0780  173.9340  138.3280 O   0  0  0  0  0  1  0  0  0  0  0  0
  183.4110  177.2520  140.4550 C   0  0  0  0  0  2  0  0  0  0  0  0
  180.7440  175.3350  137.7780 C   0  0  1  0  0  0  0  0  0  0  0  0
  183.0850  174.7440  137.7800 C   0  0  1  0  0  0  0  0  0  0  0  0
  181.3240  173.6560  136.0480 C   0  0  2  0  0  3  0  0  0  0  0  0
  180.5790  177.7180  140.6780 C   0  0  0  0  0  3  0  0  0  0  0  0
  181.8380  174.5290  138.5120 C   0  0  0  0  0  2  0  0  0  0  0  0
  180.1410  174.2400  136.9370 C   0  0  0  0  0  2  0  0  0  0  0  0
  181.0770  176.9670  139.5140 C   0  0  0  0  0  0  0  0  0  0  0  0
  183.4060  176.2730  138.0420 C   0  0  2  0  0  3  0  0  0  0  0  0
  182.8930  178.4630  141.2310 C   0  0  1  0  0  3  0  0  0  0  0  0
  182.7770  174.2810  136.3010 C   0  0  0  0  0  2  0  0  0  0  0  0
  181.4080  178.3880  141.4830 C   0  0  0  0  0  3  0  0  0  0  0  0
  183.2370  179.4110  143.5730 C   0  0  0  0  0  3  0  0  0  0  0  0
  183.6490  178.6310  142.5070 C   0  0  0  0  0  0  0  0  0  0  0  0
  184.8750  178.0750  142.8100 C   0  0  0  0  0  3  0  0  0  0  0  0
  185.2150  178.4990  144.0370 N   0  0  0  0  0  0  0  0  0  0  0  0
  184.2440  179.2980  144.5160 C   0  0  0  0  0  3  0  0  0  0  0  0
  187.4650  177.6090  143.7770 C   0  0  0  0  0  1  0  0  0  0  0  0
  186.4230  178.1240  144.7520 C   0  0  0  0  0  2  0  0  0  0  0  0
  180.1160  174.8160  134.3470 O   0  0  0  0  0  1  0  0  0  0  0  0
  180.9810  173.7440  134.5720 C   0  0  0  0  0  2  0  0  0  0  0  0
  184.6840  176.8960  137.4020 C   0  0  1  0  0  0  0  0  0  0  0  0
  183.2470  177.7770  135.6550 O   0  0  0  0  0  1  0  0  0  0  0  0
  184.4860  177.1800  135.9020 C   0  0  0  0  0  2  0  0  0  0  0  0
  185.0770  178.1970  138.1300 C   0  0  0  0  0  2  0  0  0  0  0  0
  186.5490  178.4440  138.2400 C   0  0  0  0  0  0  0  0  0  0  0  0
  188.6460  178.3950  139.6340 C   0  0  0  0  0  1  0  0  0  0  0  0
  187.1890  178.8800  137.2450 O   0  0  0  0  0  0  0  0  0  0  0  0
  187.2210  178.1670  139.4690 N   0  0  0  0  0  2  0  0  0  0  0  0
  185.8330  175.8830  137.5580 C   0  0  0  0  0  2  0  0  0  0  0  0
  186.6130  175.6150  136.2740 C   0  0  1  0  0  3  0  0  0  0  0  0
  188.0970  175.5590  136.5720 C   0  0  0  0  0  1  0  0  0  0  0  0
  186.2080  174.3950  135.7360 O   0  0  0  0  0  1  0  0  0  0  0  0
  1 12  2  0  0  0  0
  3 12  1  0  0  0  0
  3  5  1  1  0  0  0
  5 14  1  0  0  0  0
  6  2  1  6  0  0  0
  6 10  1  0  0  0  0
  6  1  1  0  0  0  0
  7 13  1  0  0  0  0
  7  4  1  1  0  0  0
  7 10  1  0  0  0  0
  8 25  1  6  0  0  0
  8 15  1  0  0  0  0
  8 11  1  0  0  0  0
  9 16  2  0  0  0  0
 11  6  1  0  0  0  0
 12  9  1  0  0  0  0
 13 26  1  1  0  0  0
 13  3  1  0  0  0  0
 14 16  1  0  0  0  0
 14 18  1  1  0  0  0
 15  7  1  0  0  0  0
 17 21  2  0  0  0  0
 18 19  2  0  0  0  0
 18 17  1  0  0  0  0
 19 20  1  0  0  0  0
 20 21  1  0  0  0  0
 20 23  1  0  0  0  0
 22 23  1  0  0  0  0
 24 25  1  0  0  0  0
 26 28  1  6  0  0  0
 26 34  1  0  0  0  0
 26 29  1  0  0  0  0
 27 28  1  0  0  0  0
 29 30  1  0  0  0  0
 30 33  1  0  0  0  0
 32 30  2  0  0  0  0
 33 31  1  0  0  0  0
 35 36  1  1  0  0  0
 35 34  1  0  0  0  0
 37 35  1  0  0  0  0
M  END
>  <MODEL>
8

>  <REMARK>
 VINA RESULT:      -4.5      2.865      6.455
  Name = 
  9 active torsions:
  status: ('A' for Active; 'I' for Inactive)
    1  A    between atoms: C_1  and  C_5
    2  A    between atoms: C_1  and  C_36
    3  A    between atoms: C_6  and  C_31
    4  A    between atoms: C_11  and  C_33
    5  A    between atoms: N_18  and  C_19
    6  A    between atoms: C_21  and  C_30
    7  A    between atoms: C_27  and  C_36
    8  A    between atoms: C_29  and  C_36
    9  A    between atoms: C_33  and  C_36
                            x       y       z     vdW  Elec       q    Type
                         _______ _______ _______ _____ _____    ______ ____

>  <TORSDO>
F 9

$$$$
=
 OpenBabel10272415033D

 37 40  0  0  1  0  0  0  0  0999 V2000
  191.4330  177.4690  143.1670 C   0  0  0  0  0  3  0  0  0  0  0  0
  189.9020  178.6650  144.3330 O   0  0  0  0  0  1  0  0  0  0  0  0
  189.3090  177.7540  141.6590 C   0  0  2  0  0  3  0  0  0  0  0  0
  187.4430  175.4730  143.7210 O   0  0  0  0  0  1  0  0  0  0  0  0
  188.9800  177.0170  140.3690 C   0  0  0  0  0  2  0  0  0  0  0  0
  190.5040  177.3880  144.3060 C   0  0  1  0  0  0  0  0  0  0  0  0
  188.2560  176.5810  143.9520 C   0  0  1  0  0  0  0  0  0  0  0  0
  189.2860  176.9480  146.4210 C   0  0  2  0  0  3  0  0  0  0  0  0
  191.7570  177.6630  140.7750 C   0  0  0  0  0  3  0  0  0  0  0  0
  189.6560  176.1620  143.9020 C   0  0  0  0  0  2  0  0  0  0  0  0
  190.7290  177.0740  145.7630 C   0  0  0  0  0  2  0  0  0  0  0  0
  190.8600  177.6580  141.9420 C   0  0  0  0  0  0  0  0  0  0  0  0
  188.1400  177.6180  142.7600 C   0  0  2  0  0  3  0  0  0  0  0  0
  189.8000  177.6200  139.2290 C   0  0  1  0  0  3  0  0  0  0  0  0
  188.0370  177.1020  145.4280 C   0  0  0  0  0  2  0  0  0  0  0  0
  191.2790  177.6230  139.5270 C   0  0  0  0  0  3  0  0  0  0  0  0
  190.4330  176.7010  136.9360 C   0  0  0  0  0  3  0  0  0  0  0  0
  189.5120  176.9150  137.9460 C   0  0  0  0  0  0  0  0  0  0  0  0
  188.2920  176.4050  137.5500 C   0  0  0  0  0  3  0  0  0  0  0  0
  188.4540  175.8840  136.3230 N   0  0  0  0  0  0  0  0  0  0  0  0
  189.7330  176.0460  135.9370 C   0  0  0  0  0  3  0  0  0  0  0  0
  186.3210  174.7220  136.4700 C   0  0  0  0  0  1  0  0  0  0  0  0
  187.4210  175.2160  135.5500 C   0  0  0  0  0  2  0  0  0  0  0  0
  187.7980  178.0080  147.9570 O   0  0  0  0  0  1  0  0  0  0  0  0
  189.1380  177.9170  147.5800 C   0  0  0  0  0  2  0  0  0  0  0  0
  186.7680  178.3070  142.4920 C   0  0  1  0  0  0  0  0  0  0  0  0
  187.8900  180.2000  141.4660 O   0  0  0  0  0  1  0  0  0  0  0  0
  186.9120  179.8370  142.3960 C   0  0  0  0  0  2  0  0  0  0  0  0
  186.1300  177.7630  141.1970 C   0  0  0  0  0  2  0  0  0  0  0  0
  184.8540  178.4310  140.7890 C   0  0  0  0  0  0  0  0  0  0  0  0
  182.3360  178.4140  140.7190 C   0  0  0  0  0  1  0  0  0  0  0  0
  184.8890  179.5390  140.1870 O   0  0  0  0  0  0  0  0  0  0  0  0
  183.6040  177.8150  141.0990 N   0  0  0  0  0  2  0  0  0  0  0  0
  185.8340  177.9800  143.6710 C   0  0  0  0  0  2  0  0  0  0  0  0
  185.1350  179.1940  144.2760 C   0  0  1  0  0  3  0  0  0  0  0  0
  183.6390  178.9630  144.3190 C   0  0  0  0  0  1  0  0  0  0  0  0
  185.6040  179.3960  145.5730 O   0  0  0  0  0  1  0  0  0  0  0  0
  1  6  1  0  0  0  0
  3  5  1  6  0  0  0
  3 12  1  0  0  0  0
  3 13  1  0  0  0  0
  6  2  1  6  0  0  0
  6 11  1  0  0  0  0
  7  4  1  6  0  0  0
  7 15  1  0  0  0  0
  8 25  1  1  0  0  0
  9 12  1  0  0  0  0
 10  7  1  0  0  0  0
 10  6  1  0  0  0  0
 11  8  1  0  0  0  0
 12  1  2  0  0  0  0
 13 26  1  6  0  0  0
 13  7  1  0  0  0  0
 14 18  1  6  0  0  0
 14 16  1  0  0  0  0
 14  5  1  0  0  0  0
 15  8  1  0  0  0  0
 16  9  2  0  0  0  0
 17 18  1  0  0  0  0
 19 18  2  0  0  0  0
 20 19  1  0  0  0  0
 21 20  1  0  0  0  0
 21 17  2  0  0  0  0
 23 20  1  0  0  0  0
 23 22  1  0  0  0  0
 25 24  1  0  0  0  0
 26 29  1  6  0  0  0
 26 34  1  0  0  0  0
 27 28  1  0  0  0  0
 28 26  1  0  0  0  0
 30 33  1  0  0  0  0
 30 29  1  0  0  0  0
 31 33  1  0  0  0  0
 32 30  2  0  0  0  0
 34 35  1  0  0  0  0
 35 36  1  1  0  0  0
 35 37  1  0  0  0  0
M  END
>  <MODEL>
9

>  <REMARK>
 VINA RESULT:      -4.2      4.516      8.209
  Name = 
  9 active torsions:
  status: ('A' for Active; 'I' for Inactive)
    1  A    between atoms: C_1  and  C_5
    2  A    between atoms: C_1  and  C_36
    3  A    between atoms: C_6  and  C_31
    4  A    between atoms: C_11  and  C_33
    5  A    between atoms: N_18  and  C_19
    6  A    between atoms: C_21  and  C_30
    7  A    between atoms: C_27  and  C_36
    8  A    between atoms: C_29  and  C_36
    9  A    between atoms: C_33  and  C_36
                            x       y       z     vdW  Elec       q    Type
                         _______ _______ _______ _____ _____    ______ ____

>  <TORSDO>
F 9

$$$$
