=
 OpenBabel10272400463D

 25 28  0  0  1  0  0  0  0  0999 V2000
  189.2620  177.3090  144.0470 C   0  0  0  0  0  0  0  0  0  0  0  0
  188.2780  177.6540  144.9930 C   0  0  0  0  0  0  0  0  0  0  0  0
  190.8480  176.8280  145.8060 C   0  0  0  0  0  3  0  0  0  0  0  0
  189.0870  177.2830  142.6340 N   0  0  0  0  0  0  0  0  0  0  0  0
  189.4300  177.2990  139.8470 C   0  0  0  0  0  2  0  0  0  0  0  0
  189.8900  177.1740  146.7650 C   0  0  0  0  0  3  0  0  0  0  0  0
  190.2000  176.6040  141.9620 C   0  0  1  0  0  3  0  0  0  0  0  0
  190.5760  177.3280  140.7530 N   0  0  0  0  0  2  0  0  0  0  0  0
  187.6310  177.9230  147.3360 C   0  0  0  0  0  0  0  0  0  0  0  0
  187.9720  177.8640  149.0600 Cl  0  0  0  0  0  0  0  0  0  0  0  0
  186.9870  178.0340  144.6070 C   0  0  0  0  0  3  0  0  0  0  0  0
  188.1940  177.9950  140.4420 C   0  0  0  0  0  2  0  0  0  0  0  0
  190.5130  176.9030  144.4550 C   0  0  0  0  0  0  0  0  0  0  0  0
  191.6220  176.5080  143.1200 S   0  0  0  0  0  0  0  0  0  0  0  0
  186.3520  178.3080  146.9250 C   0  0  0  0  0  3  0  0  0  0  0  0
  188.3280  178.3190  141.9320 C   0  0  0  0  0  2  0  0  0  0  0  0
  186.0290  178.3660  145.5670 C   0  0  0  0  0  0  0  0  0  0  0  0
  188.6030  177.5880  146.3750 C   0  0  0  0  0  0  0  0  0  0  0  0
  184.6560  178.7550  145.1450 C   0  0  0  0  0  2  0  0  0  0  0  0
  184.6730  179.2420  143.7050 C   0  0  0  0  0  2  0  0  0  0  0  0
  183.4040  178.6050  141.6130 C   0  0  0  0  0  0  0  0  0  0  0  0
  184.6270  178.7520  140.7720 C   0  0  0  0  0  1  0  0  0  0  0  0
  182.3260  178.2610  141.0590 O   0  0  0  0  0  0  0  0  0  0  0  0
  183.4420  178.8530  143.0280 N   0  0  0  0  0  0  0  0  0  0  0  0
  182.2160  178.8230  143.8100 C   0  0  0  0  0  1  0  0  0  0  0  0
  1 13  2  0  0  0  0
  1  2  1  0  0  0  0
  2 18  1  0  0  0  0
  3  6  2  0  0  0  0
  4  1  1  0  0  0  0
  5 12  1  0  0  0  0
  5  8  1  0  0  0  0
  7  8  1  6  0  0  0
  7  4  1  0  0  0  0
  7 14  1  0  0  0  0
  9 10  1  0  0  0  0
 11  2  2  0  0  0  0
 11 17  1  0  0  0  0
 12 16  1  0  0  0  0
 13  3  1  0  0  0  0
 14 13  1  0  0  0  0
 15  9  1  0  0  0  0
 16  4  1  0  0  0  0
 17 15  2  0  0  0  0
 18  6  1  0  0  0  0
 18  9  2  0  0  0  0
 19 17  1  0  0  0  0
 20 19  1  0  0  0  0
 21 24  1  0  0  0  0
 22 21  1  0  0  0  0
 23 21  2  0  0  0  0
 24 20  1  0  0  0  0
 24 25  1  0  0  0  0
M  END
>  <MODEL>
1

>  <REMARK>
 VINA RESULT:      -9.8      0.000      0.000
  Name = 
  3 active torsions:
  status: ('A' for Active; 'I' for Inactive)
    1  A    between atoms: C_6  and  C_15
    2  A    between atoms: C_6  and  C_23
    3  A    between atoms: C_15  and  N_21
                            x       y       z     vdW  Elec       q    Type
                         _______ _______ _______ _____ _____    ______ ____

>  <TORSDO>
F 3

$$$$
=
 OpenBabel10272400463D

 25 28  0  0  1  0  0  0  0  0999 V2000
  187.4510  177.9220  145.4720 C   0  0  0  0  0  0  0  0  0  0  0  0
  188.7830  177.5720  145.1780 C   0  0  0  0  0  0  0  0  0  0  0  0
  187.8060  177.4800  147.8210 C   0  0  0  0  0  3  0  0  0  0  0  0
  186.4860  178.3900  144.5350 N   0  0  0  0  0  0  0  0  0  0  0  0
  184.1370  179.0860  143.1630 C   0  0  0  0  0  2  0  0  0  0  0  0
  189.1310  177.1190  147.5540 C   0  0  0  0  0  3  0  0  0  0  0  0
  185.3030  178.9400  145.2050 C   0  0  1  0  0  3  0  0  0  0  0  0
  184.0910  178.5210  144.5100 N   0  0  0  0  0  2  0  0  0  0  0  0
  190.9700  176.8130  145.9670 C   0  0  0  0  0  0  0  0  0  0  0  0
  192.0710  176.2930  147.2360 Cl  0  0  0  0  0  0  0  0  0  0  0  0
  189.2930  177.6450  143.8760 C   0  0  0  0  0  3  0  0  0  0  0  0
  185.3400  178.5730  142.3530 C   0  0  0  0  0  2  0  0  0  0  0  0
  186.9860  177.8760  146.7670 C   0  0  0  0  0  0  0  0  0  0  0  0
  185.2790  178.3530  146.9450 S   0  0  0  0  0  0  0  0  0  0  0  0
  191.4530  176.8850  144.6580 C   0  0  0  0  0  3  0  0  0  0  0  0
  186.3700  177.8150  143.1950 C   0  0  0  0  0  2  0  0  0  0  0  0
  190.6190  177.2970  143.6140 C   0  0  0  0  0  0  0  0  0  0  0  0
  189.6330  177.1600  146.2400 C   0  0  0  0  0  0  0  0  0  0  0  0
  191.1540  177.3910  142.2290 C   0  0  0  0  0  2  0  0  0  0  0  0
  190.2600  176.6180  141.2720 C   0  0  0  0  0  2  0  0  0  0  0  0
  189.3820  177.9860  139.3360 C   0  0  0  0  0  0  0  0  0  0  0  0
  188.1420  178.3370  140.0880 C   0  0  0  0  0  1  0  0  0  0  0  0
  189.5310  178.4360  138.1690 O   0  0  0  0  0  0  0  0  0  0  0  0
  190.3930  177.1480  139.9210 N   0  0  0  0  0  0  0  0  0  0  0  0
  191.5350  176.7180  139.1310 C   0  0  0  0  0  1  0  0  0  0  0  0
  1 13  1  0  0  0  0
  2  1  2  0  0  0  0
  2 18  1  0  0  0  0
  4  7  1  0  0  0  0
  4  1  1  0  0  0  0
  5  8  1  0  0  0  0
  6  3  1  0  0  0  0
  7  8  1  6  0  0  0
  7 14  1  0  0  0  0
  9 18  1  0  0  0  0
  9 10  1  0  0  0  0
 11  2  1  0  0  0  0
 12  5  1  0  0  0  0
 12 16  1  0  0  0  0
 13 14  1  0  0  0  0
 13  3  2  0  0  0  0
 15  9  2  0  0  0  0
 16  4  1  0  0  0  0
 17 11  2  0  0  0  0
 17 15  1  0  0  0  0
 18  6  2  0  0  0  0
 19 17  1  0  0  0  0
 20 19  1  0  0  0  0
 21 24  1  0  0  0  0
 21 22  1  0  0  0  0
 23 21  2  0  0  0  0
 24 20  1  0  0  0  0
 25 24  1  0  0  0  0
M  END
>  <MODEL>
2

>  <REMARK>
 VINA RESULT:      -9.7      2.658      5.498
  Name = 
  3 active torsions:
  status: ('A' for Active; 'I' for Inactive)
    1  A    between atoms: C_6  and  C_15
    2  A    between atoms: C_6  and  C_23
    3  A    between atoms: C_15  and  N_21
                            x       y       z     vdW  Elec       q    Type
                         _______ _______ _______ _____ _____    ______ ____

>  <TORSDO>
F 3

$$$$
=
 OpenBabel10272400463D

 25 28  0  0  1  0  0  0  0  0999 V2000
  187.4570  177.8520  145.6710 C   0  0  0  0  0  0  0  0  0  0  0  0
  186.6750  178.1720  144.5440 C   0  0  0  0  0  0  0  0  0  0  0  0
  185.5890  178.2820  147.1430 C   0  0  0  0  0  3  0  0  0  0  0  0
  188.8090  177.4080  145.6480 N   0  0  0  0  0  0  0  0  0  0  0  0
  191.4760  176.7690  146.2510 C   0  0  0  0  0  2  0  0  0  0  0  0
  184.7940  178.6120  146.0410 C   0  0  0  0  0  3  0  0  0  0  0  0
  189.2300  176.8840  146.9520 C   0  0  1  0  0  3  0  0  0  0  0  0
  190.5830  177.3330  147.2610 N   0  0  0  0  0  2  0  0  0  0  0  0
  184.5220  178.8790  143.6230 C   0  0  0  0  0  0  0  0  0  0  0  0
  182.8430  179.3710  143.7950 Cl  0  0  0  0  0  0  0  0  0  0  0  0
  187.1890  178.0890  143.2440 C   0  0  0  0  0  3  0  0  0  0  0  0
  191.1370  177.2560  144.8320 C   0  0  0  0  0  2  0  0  0  0  0  0
  186.9150  177.9060  146.9360 C   0  0  0  0  0  0  0  0  0  0  0  0
  188.0520  177.4690  148.2340 S   0  0  0  0  0  0  0  0  0  0  0  0
  185.0610  178.7980  142.3360 C   0  0  0  0  0  3  0  0  0  0  0  0
  189.7960  177.9880  144.7370 C   0  0  0  0  0  2  0  0  0  0  0  0
  186.3890  178.4070  142.1450 C   0  0  0  0  0  0  0  0  0  0  0  0
  185.3220  178.5620  144.7370 C   0  0  0  0  0  0  0  0  0  0  0  0
  186.9430  178.3030  140.7670 C   0  0  0  0  0  2  0  0  0  0  0  0
  188.4610  178.3670  140.8100 C   0  0  0  0  0  2  0  0  0  0  0  0
  190.3310  176.8360  140.0690 C   0  0  0  0  0  0  0  0  0  0  0  0
  191.1600  177.2010  141.2540 C   0  0  0  0  0  1  0  0  0  0  0  0
  190.7930  176.0080  139.2390 O   0  0  0  0  0  0  0  0  0  0  0  0
  189.0310  177.4150  139.8660 N   0  0  0  0  0  0  0  0  0  0  0  0
  188.2900  177.1410  138.6450 C   0  0  0  0  0  1  0  0  0  0  0  0
  1 13  1  0  0  0  0
  2 18  1  0  0  0  0
  2  1  2  0  0  0  0
  4  1  1  0  0  0  0
  4  7  1  0  0  0  0
  5  8  1  0  0  0  0
  6  3  1  0  0  0  0
  7  8  1  1  0  0  0
  7 14  1  0  0  0  0
  9 10  1  0  0  0  0
  9 18  1  0  0  0  0
 11  2  1  0  0  0  0
 12  5  1  0  0  0  0
 13  3  2  0  0  0  0
 13 14  1  0  0  0  0
 15  9  2  0  0  0  0
 16 12  1  0  0  0  0
 16  4  1  0  0  0  0
 17 15  1  0  0  0  0
 17 11  2  0  0  0  0
 18  6  2  0  0  0  0
 19 20  1  0  0  0  0
 19 17  1  0  0  0  0
 21 22  1  0  0  0  0
 23 21  2  0  0  0  0
 24 21  1  0  0  0  0
 24 20  1  0  0  0  0
 25 24  1  0  0  0  0
M  END
>  <MODEL>
3

>  <REMARK>
 VINA RESULT:      -9.6      3.158      5.511
  Name = 
  3 active torsions:
  status: ('A' for Active; 'I' for Inactive)
    1  A    between atoms: C_6  and  C_15
    2  A    between atoms: C_6  and  C_23
    3  A    between atoms: C_15  and  N_21
                            x       y       z     vdW  Elec       q    Type
                         _______ _______ _______ _____ _____    ______ ____

>  <TORSDO>
F 3

$$$$
=
 OpenBabel10272400463D

 25 28  0  0  1  0  0  0  0  0999 V2000
  187.0960  178.1720  141.6210 C   0  0  0  0  0  0  0  0  0  0  0  0
  186.5350  178.1760  142.9120 C   0  0  0  0  0  0  0  0  0  0  0  0
  184.9690  178.7730  140.6460 C   0  0  0  0  0  3  0  0  0  0  0  0
  188.4640  177.9280  141.3070 N   0  0  0  0  0  0  0  0  0  0  0  0
  190.9010  177.2840  140.0710 C   0  0  0  0  0  2  0  0  0  0  0  0
  184.3850  178.7760  141.9170 C   0  0  0  0  0  3  0  0  0  0  0  0
  188.7740  178.2850  139.9190 C   0  0  1  0  0  3  0  0  0  0  0  0
  189.6450  177.2790  139.3230 N   0  0  0  0  0  2  0  0  0  0  0  0
  184.5760  178.4960  144.3410 C   0  0  0  0  0  0  0  0  0  0  0  0
  182.8740  178.8620  144.5880 Cl  0  0  0  0  0  0  0  0  0  0  0  0
  187.3060  177.9160  144.0510 C   0  0  0  0  0  3  0  0  0  0  0  0
  190.7050  176.9140  141.5500 C   0  0  0  0  0  2  0  0  0  0  0  0
  186.3220  178.4680  140.5210 C   0  0  0  0  0  0  0  0  0  0  0  0
  187.2040  178.4130  138.9750 S   0  0  0  0  0  0  0  0  0  0  0  0
  185.3650  178.2240  145.4620 C   0  0  0  0  0  3  0  0  0  0  0  0
  189.2380  176.8900  141.9890 C   0  0  0  0  0  2  0  0  0  0  0  0
  186.7240  177.9320  145.3200 C   0  0  0  0  0  0  0  0  0  0  0  0
  185.1540  178.4800  143.0580 C   0  0  0  0  0  0  0  0  0  0  0  0
  187.5580  177.6670  146.5250 C   0  0  0  0  0  2  0  0  0  0  0  0
  188.9740  177.3040  146.1080 C   0  0  0  0  0  2  0  0  0  0  0  0
  191.2120  176.8940  147.2090 C   0  0  0  0  0  0  0  0  0  0  0  0
  191.7170  176.1600  146.0120 C   0  0  0  0  0  1  0  0  0  0  0  0
  191.9750  177.0310  148.2020 O   0  0  0  0  0  0  0  0  0  0  0  0
  189.8810  177.4340  147.2410 N   0  0  0  0  0  0  0  0  0  0  0  0
  189.3650  178.0380  148.4590 C   0  0  0  0  0  1  0  0  0  0  0  0
  1  2  1  0  0  0  0
  2 18  2  0  0  0  0
  2 11  1  0  0  0  0
  3  6  2  0  0  0  0
  4  1  1  0  0  0  0
  4 16  1  0  0  0  0
  5 12  1  0  0  0  0
  6 18  1  0  0  0  0
  7 14  1  6  0  0  0
  7  4  1  0  0  0  0
  8  7  1  0  0  0  0
  8  5  1  0  0  0  0
  9 10  1  0  0  0  0
  9 15  2  0  0  0  0
 11 17  2  0  0  0  0
 12 16  1  0  0  0  0
 13  3  1  0  0  0  0
 13  1  2  0  0  0  0
 14 13  1  0  0  0  0
 17 15  1  0  0  0  0
 17 19  1  0  0  0  0
 18  9  1  0  0  0  0
 20 19  1  0  0  0  0
 20 24  1  0  0  0  0
 21 24  1  0  0  0  0
 21 23  2  0  0  0  0
 22 21  1  0  0  0  0
 24 25  1  0  0  0  0
M  END
>  <MODEL>
4

>  <REMARK>
 VINA RESULT:      -9.2      3.450      5.787
  Name = 
  3 active torsions:
  status: ('A' for Active; 'I' for Inactive)
    1  A    between atoms: C_6  and  C_15
    2  A    between atoms: C_6  and  C_23
    3  A    between atoms: C_15  and  N_21
                            x       y       z     vdW  Elec       q    Type
                         _______ _______ _______ _____ _____    ______ ____

>  <TORSDO>
F 3

$$$$
=
 OpenBabel10272400463D

 25 28  0  0  1  0  0  0  0  0999 V2000
  188.6220  177.4000  143.2750 C   0  0  0  0  0  0  0  0  0  0  0  0
  187.3220  177.7790  143.6600 C   0  0  0  0  0  0  0  0  0  0  0  0
  189.3140  177.2590  145.5860 C   0  0  0  0  0  3  0  0  0  0  0  0
  189.0680  177.1900  141.9390 N   0  0  0  0  0  0  0  0  0  0  0  0
  190.5660  176.8960  139.5830 C   0  0  0  0  0  2  0  0  0  0  0  0
  188.0330  177.6430  145.9950 C   0  0  0  0  0  3  0  0  0  0  0  0
  190.3730  176.5230  141.9010 C   0  0  1  0  0  3  0  0  0  0  0  0
  191.2160  177.1240  140.8730 N   0  0  0  0  0  2  0  0  0  0  0  0
  185.7320  178.2780  145.4510 C   0  0  0  0  0  0  0  0  0  0  0  0
  185.3050  178.4550  147.1480 Cl  0  0  0  0  0  0  0  0  0  0  0  0
  186.3120  178.0080  142.7180 C   0  0  0  0  0  3  0  0  0  0  0  0
  189.1820  177.5610  139.4980 C   0  0  0  0  0  2  0  0  0  0  0  0
  189.5860  177.1450  144.2250 C   0  0  0  0  0  0  0  0  0  0  0  0
  191.1670  176.6780  143.5500 S   0  0  0  0  0  0  0  0  0  0  0  0
  184.7440  178.5100  144.4900 C   0  0  0  0  0  3  0  0  0  0  0  0
  188.6610  178.0720  140.8440 C   0  0  0  0  0  2  0  0  0  0  0  0
  185.0300  178.3790  143.1290 C   0  0  0  0  0  0  0  0  0  0  0  0
  187.0280  177.9060  145.0450 C   0  0  0  0  0  0  0  0  0  0  0  0
  183.9620  178.6060  142.1190 C   0  0  0  0  0  2  0  0  0  0  0  0
  184.5790  179.0150  140.7910 C   0  0  0  0  0  2  0  0  0  0  0  0
  184.2360  178.2130  138.4180 C   0  0  0  0  0  0  0  0  0  0  0  0
  185.7060  178.1820  138.1680 C   0  0  0  0  0  1  0  0  0  0  0  0
  183.4560  177.8730  137.4890 O   0  0  0  0  0  0  0  0  0  0  0  0
  183.7080  178.6250  139.6900 N   0  0  0  0  0  0  0  0  0  0  0  0
  182.2730  178.7660  139.8760 C   0  0  0  0  0  1  0  0  0  0  0  0
  1  2  2  0  0  0  0
  1 13  1  0  0  0  0
  2 18  1  0  0  0  0
  3  6  1  0  0  0  0
  4  1  1  0  0  0  0
  5  8  1  0  0  0  0
  7  8  1  6  0  0  0
  7  4  1  0  0  0  0
  7 14  1  0  0  0  0
  9 10  1  0  0  0  0
 11 17  2  0  0  0  0
 11  2  1  0  0  0  0
 12  5  1  0  0  0  0
 12 16  1  0  0  0  0
 13  3  2  0  0  0  0
 14 13  1  0  0  0  0
 15  9  2  0  0  0  0
 16  4  1  0  0  0  0
 17 15  1  0  0  0  0
 18  9  1  0  0  0  0
 18  6  2  0  0  0  0
 19 17  1  0  0  0  0
 20 19  1  0  0  0  0
 21 24  1  0  0  0  0
 22 21  1  0  0  0  0
 23 21  2  0  0  0  0
 24 25  1  0  0  0  0
 24 20  1  0  0  0  0
M  END
>  <MODEL>
5

>  <REMARK>
 VINA RESULT:      -9.1      1.666      2.355
  Name = 
  3 active torsions:
  status: ('A' for Active; 'I' for Inactive)
    1  A    between atoms: C_6  and  C_15
    2  A    between atoms: C_6  and  C_23
    3  A    between atoms: C_15  and  N_21
                            x       y       z     vdW  Elec       q    Type
                         _______ _______ _______ _____ _____    ______ ____

>  <TORSDO>
F 3

$$$$
=
 OpenBabel10272400463D

 25 28  0  0  1  0  0  0  0  0999 V2000
  188.9200  177.5470  142.8200 C   0  0  0  0  0  0  0  0  0  0  0  0
  187.8160  177.7970  143.6570 C   0  0  0  0  0  0  0  0  0  0  0  0
  190.3680  177.2750  144.7360 C   0  0  0  0  0  3  0  0  0  0  0  0
  188.8900  177.4790  141.3980 N   0  0  0  0  0  0  0  0  0  0  0  0
  189.5010  177.4860  138.6570 C   0  0  0  0  0  2  0  0  0  0  0  0
  189.2880  177.5290  145.5890 C   0  0  0  0  0  3  0  0  0  0  0  0
  190.1300  176.9160  140.8550 C   0  0  1  0  0  3  0  0  0  0  0  0
  190.5430  177.6570  139.6690 N   0  0  0  0  0  2  0  0  0  0  0  0
  186.9160  178.0330  145.9190 C   0  0  0  0  0  0  0  0  0  0  0  0
  187.0890  178.0410  147.6690 Cl  0  0  0  0  0  0  0  0  0  0  0  0
  186.5360  178.0250  143.1390 C   0  0  0  0  0  3  0  0  0  0  0  0
  188.1440  178.0500  139.1110 C   0  0  0  0  0  2  0  0  0  0  0  0
  190.1610  177.2900  143.3580 C   0  0  0  0  0  0  0  0  0  0  0  0
  191.4330  176.9980  142.1470 S   0  0  0  0  0  0  0  0  0  0  0  0
  185.6490  178.2660  145.3770 C   0  0  0  0  0  3  0  0  0  0  0  0
  188.0950  178.4120  140.5980 C   0  0  0  0  0  2  0  0  0  0  0  0
  185.4580  178.2650  143.9930 C   0  0  0  0  0  0  0  0  0  0  0  0
  188.0090  177.7920  145.0650 C   0  0  0  0  0  0  0  0  0  0  0  0
  184.0980  178.4920  143.4300 C   0  0  0  0  0  2  0  0  0  0  0  0
  184.0910  178.1740  141.9430 C   0  0  0  0  0  2  0  0  0  0  0  0
  182.8570  179.1650  139.9730 C   0  0  0  0  0  0  0  0  0  0  0  0
  184.0980  179.1800  139.1450 C   0  0  0  0  0  1  0  0  0  0  0  0
  181.7850  179.5900  139.4650 O   0  0  0  0  0  0  0  0  0  0  0  0
  182.8730  178.6820  141.3270 N   0  0  0  0  0  0  0  0  0  0  0  0
  181.6840  178.7890  142.1560 C   0  0  0  0  0  1  0  0  0  0  0  0
  1 13  2  0  0  0  0
  1  2  1  0  0  0  0
  2 18  1  0  0  0  0
  3  6  2  0  0  0  0
  4  1  1  0  0  0  0
  5 12  1  0  0  0  0
  5  8  1  0  0  0  0
  7  8  1  6  0  0  0
  7  4  1  0  0  0  0
  7 14  1  0  0  0  0
  9 10  1  0  0  0  0
 11  2  2  0  0  0  0
 11 17  1  0  0  0  0
 12 16  1  0  0  0  0
 13  3  1  0  0  0  0
 14 13  1  0  0  0  0
 15  9  1  0  0  0  0
 16  4  1  0  0  0  0
 17 15  2  0  0  0  0
 18  6  1  0  0  0  0
 18  9  2  0  0  0  0
 19 17  1  0  0  0  0
 20 19  1  0  0  0  0
 21 24  1  0  0  0  0
 22 21  1  0  0  0  0
 23 21  2  0  0  0  0
 24 20  1  0  0  0  0
 24 25  1  0  0  0  0
M  END
>  <MODEL>
6

>  <REMARK>
 VINA RESULT:      -8.9      1.295      1.546
  Name = 
  3 active torsions:
  status: ('A' for Active; 'I' for Inactive)
    1  A    between atoms: C_6  and  C_15
    2  A    between atoms: C_6  and  C_23
    3  A    between atoms: C_15  and  N_21
                            x       y       z     vdW  Elec       q    Type
                         _______ _______ _______ _____ _____    ______ ____

>  <TORSDO>
F 3

$$$$
=
 OpenBabel10272400463D

 25 28  0  0  1  0  0  0  0  0999 V2000
  187.9210  177.6360  145.5520 C   0  0  0  0  0  0  0  0  0  0  0  0
  187.4010  177.9210  144.2750 C   0  0  0  0  0  0  0  0  0  0  0  0
  185.7970  178.1540  146.5820 C   0  0  0  0  0  3  0  0  0  0  0  0
  189.2380  177.1700  145.8310 N   0  0  0  0  0  0  0  0  0  0  0  0
  191.7030  176.5150  147.0040 C   0  0  0  0  0  2  0  0  0  0  0  0
  185.2590  178.4520  145.3250 C   0  0  0  0  0  3  0  0  0  0  0  0
  189.3630  176.6930  147.2120 C   0  0  1  0  0  3  0  0  0  0  0  0
  190.6310  177.1330  147.7830 N   0  0  0  0  0  2  0  0  0  0  0  0
  185.5070  178.6240  142.8960 C   0  0  0  0  0  0  0  0  0  0  0  0
  183.8410  179.1490  142.6930 Cl  0  0  0  0  0  0  0  0  0  0  0  0
  188.1740  177.7790  143.1170 C   0  0  0  0  0  3  0  0  0  0  0  0
  191.6810  176.9490  145.5290 C   0  0  0  0  0  2  0  0  0  0  0  0
  187.1280  177.7500  146.6720 C   0  0  0  0  0  0  0  0  0  0  0  0
  187.9570  177.3480  148.1950 S   0  0  0  0  0  0  0  0  0  0  0  0
  186.3020  178.4820  141.7550 C   0  0  0  0  0  3  0  0  0  0  0  0
  190.4070  177.6970  145.1270 C   0  0  0  0  0  2  0  0  0  0  0  0
  187.6310  178.0640  141.8620 C   0  0  0  0  0  0  0  0  0  0  0  0
  186.0470  178.3410  144.1650 C   0  0  0  0  0  0  0  0  0  0  0  0
  188.4580  177.8950  140.6370 C   0  0  0  0  0  2  0  0  0  0  0  0
  189.3100  176.6410  140.7530 C   0  0  0  0  0  2  0  0  0  0  0  0
  191.1710  176.5420  139.0460 C   0  0  0  0  0  0  0  0  0  0  0  0
  190.2990  175.8240  138.0710 C   0  0  0  0  0  1  0  0  0  0  0  0
  192.3580  176.8090  138.7160 O   0  0  0  0  0  0  0  0  0  0  0  0
  190.6790  176.9230  140.3410 N   0  0  0  0  0  0  0  0  0  0  0  0
  191.5760  177.5120  141.3220 C   0  0  0  0  0  1  0  0  0  0  0  0
  1  4  1  0  0  0  0
  1 13  1  0  0  0  0
  2  1  2  0  0  0  0
  3 13  2  0  0  0  0
  4  7  1  0  0  0  0
  5  8  1  0  0  0  0
  6  3  1  0  0  0  0
  7  8  1  1  0  0  0
  7 14  1  0  0  0  0
  9 18  1  0  0  0  0
 10  9  1  0  0  0  0
 11  2  1  0  0  0  0
 12  5  1  0  0  0  0
 13 14  1  0  0  0  0
 15 17  1  0  0  0  0
 15  9  2  0  0  0  0
 16 12  1  0  0  0  0
 16  4  1  0  0  0  0
 17 11  2  0  0  0  0
 18  2  1  0  0  0  0
 18  6  2  0  0  0  0
 19 20  1  0  0  0  0
 19 17  1  0  0  0  0
 21 24  1  0  0  0  0
 22 21  1  0  0  0  0
 23 21  2  0  0  0  0
 24 20  1  0  0  0  0
 24 25  1  0  0  0  0
M  END
>  <MODEL>
7

>  <REMARK>
 VINA RESULT:      -8.9      3.444      6.054
  Name = 
  3 active torsions:
  status: ('A' for Active; 'I' for Inactive)
    1  A    between atoms: C_6  and  C_15
    2  A    between atoms: C_6  and  C_23
    3  A    between atoms: C_15  and  N_21
                            x       y       z     vdW  Elec       q    Type
                         _______ _______ _______ _____ _____    ______ ____

>  <TORSDO>
F 3

$$$$
=
 OpenBabel10272400463D

 25 28  0  0  1  0  0  0  0  0999 V2000
  189.4980  177.5210  143.9880 C   0  0  0  0  0  0  0  0  0  0  0  0
  188.9200  177.7510  142.7250 C   0  0  0  0  0  0  0  0  0  0  0  0
  191.6070  176.9330  142.9660 C   0  0  0  0  0  3  0  0  0  0  0  0
  188.8560  177.7090  145.2450 N   0  0  0  0  0  0  0  0  0  0  0  0
  188.0710  177.6350  147.9400 C   0  0  0  0  0  2  0  0  0  0  0  0
  191.0540  177.1450  141.6980 C   0  0  0  0  0  3  0  0  0  0  0  0
  189.8130  177.6690  146.3550 C   0  0  1  0  0  3  0  0  0  0  0  0
  189.2560  176.9170  147.4740 N   0  0  0  0  0  2  0  0  0  0  0  0
  189.1560  177.7840  140.2900 C   0  0  0  0  0  0  0  0  0  0  0  0
  190.0850  177.5570  138.8140 Cl  0  0  0  0  0  0  0  0  0  0  0  0
  187.5980  178.1890  142.5890 C   0  0  0  0  0  3  0  0  0  0  0  0
  186.9830  177.7360  146.8580 C   0  0  0  0  0  2  0  0  0  0  0  0
  190.8130  177.1260  144.0940 C   0  0  0  0  0  0  0  0  0  0  0  0
  191.3680  176.8850  145.7690 S   0  0  0  0  0  0  0  0  0  0  0  0
  187.8310  178.2140  140.1810 C   0  0  0  0  0  3  0  0  0  0  0  0
  187.4610  177.3220  145.4630 C   0  0  0  0  0  2  0  0  0  0  0  0
  187.0520  178.4140  141.3230 C   0  0  0  0  0  0  0  0  0  0  0  0
  189.7140  177.5540  141.5620 C   0  0  0  0  0  0  0  0  0  0  0  0
  185.6490  178.8940  141.1920 C   0  0  0  0  0  2  0  0  0  0  0  0
  185.1030  179.2830  142.5570 C   0  0  0  0  0  2  0  0  0  0  0  0
  183.0540  178.7940  143.9540 C   0  0  0  0  0  0  0  0  0  0  0  0
  183.7790  179.1270  145.2150 C   0  0  0  0  0  1  0  0  0  0  0  0
  181.8460  178.4400  144.0250 O   0  0  0  0  0  0  0  0  0  0  0  0
  183.7110  178.8670  142.6780 N   0  0  0  0  0  0  0  0  0  0  0  0
  183.0270  178.4230  141.4750 C   0  0  0  0  0  1  0  0  0  0  0  0
  1 13  1  0  0  0  0
  1  4  1  0  0  0  0
  2  1  2  0  0  0  0
  3 13  2  0  0  0  0
  4 16  1  0  0  0  0
  4  7  1  0  0  0  0
  6  3  1  0  0  0  0
  7 14  1  6  0  0  0
  7  8  1  0  0  0  0
  8  5  1  0  0  0  0
  9 18  1  0  0  0  0
 10  9  1  0  0  0  0
 11  2  1  0  0  0  0
 12  5  1  0  0  0  0
 13 14  1  0  0  0  0
 15  9  2  0  0  0  0
 15 17  1  0  0  0  0
 16 12  1  0  0  0  0
 17 11  2  0  0  0  0
 18  6  2  0  0  0  0
 18  2  1  0  0  0  0
 19 17  1  0  0  0  0
 19 20  1  0  0  0  0
 20 24  1  0  0  0  0
 21 23  2  0  0  0  0
 21 22  1  0  0  0  0
 24 21  1  0  0  0  0
 25 24  1  0  0  0  0
M  END
>  <MODEL>
8

>  <REMARK>
 VINA RESULT:      -8.8      2.645      4.754
  Name = 
  3 active torsions:
  status: ('A' for Active; 'I' for Inactive)
    1  A    between atoms: C_6  and  C_15
    2  A    between atoms: C_6  and  C_23
    3  A    between atoms: C_15  and  N_21
                            x       y       z     vdW  Elec       q    Type
                         _______ _______ _______ _____ _____    ______ ____

>  <TORSDO>
F 3

$$$$
=
 OpenBabel10272400463D

 25 28  0  0  1  0  0  0  0  0999 V2000
  187.8770  177.7060  145.6390 C   0  0  0  0  0  0  0  0  0  0  0  0
  187.3810  177.9200  144.3380 C   0  0  0  0  0  0  0  0  0  0  0  0
  185.7660  178.3820  146.6020 C   0  0  0  0  0  3  0  0  0  0  0  0
  189.1700  177.2080  145.9660 N   0  0  0  0  0  0  0  0  0  0  0  0
  191.5950  176.5400  147.2140 C   0  0  0  0  0  2  0  0  0  0  0  0
  185.2530  178.6100  145.3210 C   0  0  0  0  0  3  0  0  0  0  0  0
  189.2620  176.8270  147.3790 C   0  0  1  0  0  3  0  0  0  0  0  0
  190.5420  177.2540  147.9340 N   0  0  0  0  0  2  0  0  0  0  0  0
  185.5310  178.5980  142.8890 C   0  0  0  0  0  0  0  0  0  0  0  0
  183.8900  179.1740  142.6280 Cl  0  0  0  0  0  0  0  0  0  0  0  0
  188.1580  177.6630  143.2030 C   0  0  0  0  0  3  0  0  0  0  0  0
  191.6050  176.8670  145.7120 C   0  0  0  0  0  2  0  0  0  0  0  0
  187.0780  177.9310  146.7370 C   0  0  0  0  0  0  0  0  0  0  0  0
  187.8750  177.6070  148.2960 S   0  0  0  0  0  0  0  0  0  0  0  0
  186.3300  178.3430  141.7710 C   0  0  0  0  0  3  0  0  0  0  0  0
  190.3670  177.6360  145.2410 C   0  0  0  0  0  2  0  0  0  0  0  0
  187.6390  177.8790  141.9250 C   0  0  0  0  0  0  0  0  0  0  0  0
  186.0470  178.3840  144.1810 C   0  0  0  0  0  0  0  0  0  0  0  0
  188.4710  177.5900  140.7250 C   0  0  0  0  0  2  0  0  0  0  0  0
  187.9820  178.4120  139.5430 C   0  0  0  0  0  2  0  0  0  0  0  0
  186.6610  177.4460  137.6160 C   0  0  0  0  0  0  0  0  0  0  0  0
  185.4230  178.1550  138.0510 C   0  0  0  0  0  1  0  0  0  0  0  0
  186.6150  176.7210  136.5860 O   0  0  0  0  0  0  0  0  0  0  0  0
  187.8880  177.5750  138.3530 N   0  0  0  0  0  0  0  0  0  0  0  0
  189.0500  176.7810  137.9860 C   0  0  0  0  0  1  0  0  0  0  0  0
  1  4  1  0  0  0  0
  1 13  1  0  0  0  0
  2  1  2  0  0  0  0
  3 13  2  0  0  0  0
  4  7  1  0  0  0  0
  5  8  1  0  0  0  0
  6  3  1  0  0  0  0
  7  8  1  1  0  0  0
  7 14  1  0  0  0  0
  9 18  1  0  0  0  0
 10  9  1  0  0  0  0
 11  2  1  0  0  0  0
 12  5  1  0  0  0  0
 13 14  1  0  0  0  0
 15 17  1  0  0  0  0
 15  9  2  0  0  0  0
 16 12  1  0  0  0  0
 16  4  1  0  0  0  0
 17 11  2  0  0  0  0
 18  2  1  0  0  0  0
 18  6  2  0  0  0  0
 19 17  1  0  0  0  0
 20 19  1  0  0  0  0
 21 22  1  0  0  0  0
 21 24  1  0  0  0  0
 23 21  2  0  0  0  0
 24 20  1  0  0  0  0
 25 24  1  0  0  0  0
M  END
>  <MODEL>
9

>  <REMARK>
 VINA RESULT:      -8.7      3.167      5.446
  Name = 
  3 active torsions:
  status: ('A' for Active; 'I' for Inactive)
    1  A    between atoms: C_6  and  C_15
    2  A    between atoms: C_6  and  C_23
    3  A    between atoms: C_15  and  N_21
                            x       y       z     vdW  Elec       q    Type
                         _______ _______ _______ _____ _____    ______ ____

>  <TORSDO>
F 3

$$$$
