=
 OpenBabel10272413403D

 32 33  0  0  1  0  0  0  0  0999 V2000
  188.8190  177.1050  142.8410 C   0  0  2  0  0  3  0  0  0  0  0  0
  189.7610  177.0100  144.0570 C   0  0  1  0  0  3  0  0  0  0  0  0
  191.1320  177.0620  143.7150 O   0  0  0  0  0  0  0  0  0  0  0  0
  191.6310  175.7530  143.6240 C   0  0  0  0  0  1  0  0  0  0  0  0
  189.4060  177.9810  145.1850 C   0  0  0  0  0  2  0  0  0  0  0  0
  189.2450  177.2150  146.4850 C   0  0  0  0  0  2  0  0  0  0  0  0
  188.1730  177.8570  147.3450 C   0  0  0  0  0  2  0  0  0  0  0  0
  186.8130  177.7080  146.6900 C   0  0  0  0  0  2  0  0  0  0  0  0
  185.9520  178.9030  147.0390 C   0  0  0  0  0  1  0  0  0  0  0  0
  188.9870  178.4210  142.0650 C   0  0  0  0  0  2  0  0  0  0  0  0
  189.3030  178.2120  140.5780 C   0  0  1  0  0  3  0  0  0  0  0  0
  191.0390  176.8860  139.8930 C   0  0  0  0  0  1  0  0  0  0  0  0
  189.6930  176.8850  140.2960 O   0  0  0  0  0  0  0  0  0  0  0  0
  188.2440  178.6300  139.7570 O   0  0  0  0  0  0  0  0  0  0  0  0
  187.9610  177.5850  139.0050 O   0  0  0  0  0  0  0  0  0  0  0  0
  186.2540  178.0780  137.4090 C   0  0  0  0  0  3  0  0  0  0  0  0
  188.3220  177.1950  136.7160 C   0  0  0  0  0  0  0  0  0  0  0  0
  187.3460  176.5740  135.9090 N   0  0  0  0  0  0  0  0  0  0  0  0
  186.0320  176.9740  136.3690 C   0  0  0  0  0  3  0  0  0  0  0  0
  189.6190  177.0800  136.4740 C   0  0  0  0  0  1  0  0  0  0  0  0
  187.7480  178.1090  137.7260 C   0  0  2  0  0  3  0  0  0  0  0  0
  187.3700  176.8880  143.2610 C   0  0  0  0  0  2  0  0  0  0  0  0
  186.4890  178.0080  142.7370 C   0  0  0  0  0  2  0  0  0  0  0  0
  185.2150  178.1100  143.5610 C   0  0  0  0  0  2  0  0  0  0  0  0
  184.1410  178.9070  142.8310 C   0  0  2  0  0  3  0  0  0  0  0  0
  182.9560  179.1350  143.7590 C   0  0  0  0  0  1  0  0  0  0  0  0
  183.7600  178.2380  141.4990 C   0  0  1  0  0  3  0  0  0  0  0  0
  181.9820  178.3590  141.1150 S   0  0  0  0  0  0  0  0  0  0  0  0
  182.8170  179.2730  139.7770 C   0  0  1  0  0  3  0  0  0  0  0  0
  184.2200  179.0440  140.3010 C   0  0  0  0  0  2  0  0  0  0  0  0
  182.6440  178.5460  138.4550 C   0  0  0  0  0  2  0  0  0  0  0  0
  181.4340  179.4190  137.4180 S   0  0  0  0  0  1  0  0  0  0  0  0
  1 10  1  1  0  0  0
  1 22  1  0  0  0  0
  1  2  1  0  0  0  0
  2  5  1  1  0  0  0
  3  2  1  0  0  0  0
  4  3  1  0  0  0  0
  5  6  1  0  0  0  0
  6  7  1  0  0  0  0
  8  9  1  0  0  0  0
  8  7  1  0  0  0  0
 11 10  1  1  0  0  0
 12 13  1  0  0  0  0
 13 11  1  0  0  0  0
 14 11  1  0  0  0  0
 15 14  1  0  0  0  0
 16 21  1  0  0  0  0
 17 21  1  0  0  0  0
 18 19  1  0  0  0  0
 18 17  2  0  0  0  0
 19 16  2  0  0  0  0
 20 17  1  0  0  0  0
 21 15  1  1  0  0  0
 23 22  1  0  0  0  0
 23 24  1  0  0  0  0
 25 24  1  0  0  0  0
 25 26  1  1  0  0  0
 27 25  1  1  0  0  0
 28 27  1  0  0  0  0
 29 31  1  6  0  0  0
 29 30  1  0  0  0  0
 29 28  1  0  0  0  0
 30 27  1  0  0  0  0
 32 31  1  0  0  0  0
M  END
>  <MODEL>
1

>  <REMARK>
 VINA RESULT:      -6.1      0.000      0.000
  Name = 
  18 active torsions:
  status: ('A' for Active; 'I' for Inactive)
    1  A    between atoms: C_1  and  C_20
    2  A    between atoms: C_2  and  C_9
    3  A    between atoms: C_2  and  C_23
    4  A    between atoms: O_3  and  C_14
    5  A    between atoms: C_4  and  C_5
    6  A    between atoms: C_4  and  C_15
    7  A    between atoms: C_8  and  C_23
    8  A    between atoms: C_8  and  C_28
    9  A    between atoms: C_9  and  C_10
   10  A    between atoms: C_13  and  C_28
   11  A    between atoms: C_13  and  C_31
   12  A    between atoms: C_14  and  C_26
   13  A    between atoms: C_14  and  C_28
   14  A    between atoms: C_15  and  C_26
   15  A    between atoms: O_16  and  O_27
   16  A    between atoms: O_16  and  C_31
   17  A    between atoms: O_27  and  C_32
   18  A    between atoms: O_29  and  C_31
                            x       y       z     vdW  Elec       q    Type
                         _______ _______ _______ _____ _____    ______ ____

>  <TORSDO>
F 18

$$$$
=
 OpenBabel10272413403D

 32 33  0  0  1  0  0  0  0  0999 V2000
  187.0490  178.0060  141.2530 C   0  0  2  0  0  3  0  0  0  0  0  0
  185.9330  178.9800  141.6760 C   0  0  1  0  0  3  0  0  0  0  0  0
  185.3350  179.6600  140.5900 O   0  0  0  0  0  0  0  0  0  0  0  0
  184.1380  179.0120  140.2470 C   0  0  0  0  0  1  0  0  0  0  0  0
  184.8970  178.3560  142.6130 C   0  0  0  0  0  2  0  0  0  0  0  0
  184.7550  179.2100  143.8580 C   0  0  0  0  0  2  0  0  0  0  0  0
  183.3890  179.0040  144.4850 C   0  0  0  0  0  2  0  0  0  0  0  0
  182.3080  179.0550  143.4230 C   0  0  0  0  0  2  0  0  0  0  0  0
  180.9980  178.5810  144.0140 C   0  0  0  0  0  1  0  0  0  0  0  0
  188.2220  177.9840  142.2460 C   0  0  0  0  0  2  0  0  0  0  0  0
  188.4670  176.6010  142.8660 C   0  0  1  0  0  3  0  0  0  0  0  0
  190.5900  175.7740  143.0920 C   0  0  0  0  0  1  0  0  0  0  0  0
  189.5030  175.8990  142.2120 O   0  0  0  0  0  0  0  0  0  0  0  0
  188.6850  176.6820  144.2500 O   0  0  0  0  0  0  0  0  0  0  0  0
  187.6770  177.3950  144.7130 O   0  0  0  0  0  0  0  0  0  0  0  0
  189.5250  177.4690  146.2250 C   0  0  0  0  0  2  0  0  0  0  0  0
  187.3440  177.9300  146.9770 C   0  0  0  0  0  0  0  0  0  0  0  0
  187.9600  177.1930  148.0090 N   0  0  0  0  0  0  0  0  0  0  0  0
  189.2690  176.7610  147.5610 C   0  0  0  0  0  3  0  0  0  0  0  0
  186.1700  178.5240  147.1340 C   0  0  0  0  0  2  0  0  0  0  0  0
  188.2070  178.1100  145.7910 C   0  0  2  0  0  3  0  0  0  0  0  0
  187.5240  178.3090  139.8370 C   0  0  0  0  0  2  0  0  0  0  0  0
  189.0410  178.3820  139.7870 C   0  0  0  0  0  2  0  0  0  0  0  0
  189.5630  177.6930  138.5370 C   0  0  0  0  0  2  0  0  0  0  0  0
  190.6540  176.6830  138.8720 C   0  0  2  0  0  3  0  0  0  0  0  0
  191.6140  177.2880  139.8880 C   0  0  0  0  0  1  0  0  0  0  0  0
  191.3490  176.1710  137.5980 C   0  0  1  0  0  3  0  0  0  0  0  0
  193.1650  176.2980  137.6680 S   0  0  0  0  0  0  0  0  0  0  0  0
  192.8220  174.5130  137.5290 C   0  0  1  0  0  3  0  0  0  0  0  0
  191.3140  174.6590  137.4960 C   0  0  0  0  0  2  0  0  0  0  0  0
  193.3100  173.9850  136.1920 C   0  0  0  0  0  2  0  0  0  0  0  0
  194.8020  172.9740  136.4280 S   0  0  0  0  0  1  0  0  0  0  0  0
  1 22  1  6  0  0  0
  1  2  1  0  0  0  0
  1 10  1  0  0  0  0
  2  5  1  6  0  0  0
  3  2  1  0  0  0  0
  4  3  1  0  0  0  0
  5  6  1  0  0  0  0
  6  7  1  0  0  0  0
  8  9  1  0  0  0  0
  8  7  1  0  0  0  0
 11 10  1  6  0  0  0
 11 14  1  0  0  0  0
 13 11  1  0  0  0  0
 13 12  1  0  0  0  0
 14 15  1  0  0  0  0
 16 19  1  0  0  0  0
 17 20  2  0  0  0  0
 17 18  1  0  0  0  0
 19 18  2  0  0  0  0
 21 15  1  6  0  0  0
 21 16  1  0  0  0  0
 21 17  1  0  0  0  0
 23 22  1  0  0  0  0
 24 25  1  0  0  0  0
 24 23  1  0  0  0  0
 25 26  1  1  0  0  0
 27 28  1  0  0  0  0
 27 25  1  1  0  0  0
 29 31  1  6  0  0  0
 29 28  1  0  0  0  0
 30 29  1  0  0  0  0
 30 27  1  0  0  0  0
 31 32  1  0  0  0  0
M  END
>  <MODEL>
2

>  <REMARK>
 VINA RESULT:      -5.9      4.403      8.070
  Name = 
  18 active torsions:
  status: ('A' for Active; 'I' for Inactive)
    1  A    between atoms: C_1  and  C_20
    2  A    between atoms: C_2  and  C_9
    3  A    between atoms: C_2  and  C_23
    4  A    between atoms: O_3  and  C_14
    5  A    between atoms: C_4  and  C_5
    6  A    between atoms: C_4  and  C_15
    7  A    between atoms: C_8  and  C_23
    8  A    between atoms: C_8  and  C_28
    9  A    between atoms: C_9  and  C_10
   10  A    between atoms: C_13  and  C_28
   11  A    between atoms: C_13  and  C_31
   12  A    between atoms: C_14  and  C_26
   13  A    between atoms: C_14  and  C_28
   14  A    between atoms: C_15  and  C_26
   15  A    between atoms: O_16  and  O_27
   16  A    between atoms: O_16  and  C_31
   17  A    between atoms: O_27  and  C_32
   18  A    between atoms: O_29  and  C_31
                            x       y       z     vdW  Elec       q    Type
                         _______ _______ _______ _____ _____    ______ ____

>  <TORSDO>
F 18

$$$$
=
 OpenBabel10272413403D

 32 33  0  0  1  0  0  0  0  0999 V2000
  189.1020  176.7430  141.8370 C   0  0  2  0  0  3  0  0  0  0  0  0
  190.5750  176.6580  142.2840 C   0  0  1  0  0  3  0  0  0  0  0  0
  191.3160  177.8310  142.0110 O   0  0  0  0  0  0  0  0  0  0  0  0
  192.3510  177.5200  141.1150 C   0  0  0  0  0  1  0  0  0  0  0  0
  190.7500  176.1820  143.7280 C   0  0  0  0  0  2  0  0  0  0  0  0
  191.4900  177.2390  144.5270 C   0  0  0  0  0  2  0  0  0  0  0  0
  191.1970  177.0790  146.0070 C   0  0  0  0  0  2  0  0  0  0  0  0
  189.7270  176.7740  146.2240 C   0  0  0  0  0  2  0  0  0  0  0  0
  189.1170  177.8420  147.1060 C   0  0  0  0  0  1  0  0  0  0  0  0
  188.7780  178.0630  141.1190 C   0  0  0  0  0  2  0  0  0  0  0  0
  188.6480  177.9090  139.5980 C   0  0  1  0  0  3  0  0  0  0  0  0
  186.5390  178.0270  138.7130 C   0  0  0  0  0  1  0  0  0  0  0  0
  187.6760  178.7780  139.0540 O   0  0  0  0  0  0  0  0  0  0  0  0
  189.8870  178.0440  138.9530 O   0  0  0  0  0  0  0  0  0  0  0  0
  189.7580  177.3770  137.8230 O   0  0  0  0  0  0  0  0  0  0  0  0
  191.3440  175.6220  138.1540 C   0  0  0  0  0  3  0  0  0  0  0  0
  189.2710  175.1850  137.1320 C   0  0  0  0  0  0  0  0  0  0  0  0
  190.2160  174.4000  136.4400 N   0  0  0  0  0  0  0  0  0  0  0  0
  191.5410  174.7180  136.9320 C   0  0  0  0  0  3  0  0  0  0  0  0
  187.9660  175.0460  136.9510 C   0  0  0  0  0  1  0  0  0  0  0  0
  189.8720  176.0310  138.1830 C   0  0  2  0  0  3  0  0  0  0  0  0
  188.1650  176.5050  143.0150 C   0  0  0  0  0  2  0  0  0  0  0  0
  187.5360  177.8110  143.4690 C   0  0  0  0  0  2  0  0  0  0  0  0
  186.1870  177.5510  144.1200 C   0  0  0  0  0  2  0  0  0  0  0  0
  185.7030  178.7660  144.9030 C   0  0  2  0  0  3  0  0  0  0  0  0
  185.3650  178.3510  146.3290 C   0  0  0  0  0  1  0  0  0  0  0  0
  184.5440  179.4710  144.1770 C   0  0  1  0  0  3  0  0  0  0  0  0
  184.0920  178.6760  142.6000 S   0  0  0  0  0  0  0  0  0  0  0  0
  182.6080  178.5240  143.6480 C   0  0  1  0  0  3  0  0  0  0  0  0
  183.2100  179.2210  144.8510 C   0  0  0  0  0  2  0  0  0  0  0  0
  181.4780  179.3690  143.0850 C   0  0  0  0  0  2  0  0  0  0  0  0
  180.2070  178.2980  142.3490 S   0  0  0  0  0  1  0  0  0  0  0  0
  1 10  1  1  0  0  0
  1  2  1  0  0  0  0
  1 22  1  0  0  0  0
  2  5  1  1  0  0  0
  3  2  1  0  0  0  0
  4  3  1  0  0  0  0
  5  6  1  0  0  0  0
  6  7  1  0  0  0  0
  7  8  1  0  0  0  0
  8  9  1  0  0  0  0
 11 10  1  1  0  0  0
 12 13  1  0  0  0  0
 13 11  1  0  0  0  0
 14 11  1  0  0  0  0
 15 14  1  0  0  0  0
 16 21  1  0  0  0  0
 17 21  1  0  0  0  0
 18 19  1  0  0  0  0
 18 17  2  0  0  0  0
 19 16  2  0  0  0  0
 20 17  1  0  0  0  0
 21 15  1  6  0  0  0
 22 23  1  0  0  0  0
 23 24  1  0  0  0  0
 24 25  1  0  0  0  0
 25 26  1  1  0  0  0
 27 30  1  0  0  0  0
 27 25  1  1  0  0  0
 28 29  1  0  0  0  0
 28 27  1  0  0  0  0
 29 31  1  6  0  0  0
 29 30  1  0  0  0  0
 32 31  1  0  0  0  0
M  END
>  <MODEL>
3

>  <REMARK>
 VINA RESULT:      -5.9      2.098      3.262
  Name = 
  18 active torsions:
  status: ('A' for Active; 'I' for Inactive)
    1  A    between atoms: C_1  and  C_20
    2  A    between atoms: C_2  and  C_9
    3  A    between atoms: C_2  and  C_23
    4  A    between atoms: O_3  and  C_14
    5  A    between atoms: C_4  and  C_5
    6  A    between atoms: C_4  and  C_15
    7  A    between atoms: C_8  and  C_23
    8  A    between atoms: C_8  and  C_28
    9  A    between atoms: C_9  and  C_10
   10  A    between atoms: C_13  and  C_28
   11  A    between atoms: C_13  and  C_31
   12  A    between atoms: C_14  and  C_26
   13  A    between atoms: C_14  and  C_28
   14  A    between atoms: C_15  and  C_26
   15  A    between atoms: O_16  and  O_27
   16  A    between atoms: O_16  and  C_31
   17  A    between atoms: O_27  and  C_32
   18  A    between atoms: O_29  and  C_31
                            x       y       z     vdW  Elec       q    Type
                         _______ _______ _______ _____ _____    ______ ____

>  <TORSDO>
F 18

$$$$
=
 OpenBabel10272413403D

 32 33  0  0  1  0  0  0  0  0999 V2000
  187.5090  178.1780  141.6470 C   0  0  2  0  0  3  0  0  0  0  0  0
  186.2240  178.9810  141.9290 C   0  0  1  0  0  3  0  0  0  0  0  0
  185.6100  179.4940  140.7630 O   0  0  0  0  0  0  0  0  0  0  0  0
  184.5750  178.6300  140.3730 C   0  0  0  0  0  1  0  0  0  0  0  0
  185.2310  178.2490  142.8350 C   0  0  0  0  0  2  0  0  0  0  0  0
  185.0710  179.0130  144.1360 C   0  0  0  0  0  2  0  0  0  0  0  0
  183.6250  178.9730  144.5940 C   0  0  0  0  0  2  0  0  0  0  0  0
  182.7060  178.7100  143.4170 C   0  0  0  0  0  2  0  0  0  0  0  0
  181.2650  178.8360  143.8640 C   0  0  0  0  0  1  0  0  0  0  0  0
  188.4420  178.1100  142.8660 C   0  0  0  0  0  2  0  0  0  0  0  0
  188.9870  176.7000  143.1340 C   0  0  1  0  0  3  0  0  0  0  0  0
  191.0420  176.9970  142.1690 C   0  0  0  0  0  1  0  0  0  0  0  0
  189.8500  176.2570  142.1080 O   0  0  0  0  0  0  0  0  0  0  0  0
  189.5890  176.6070  144.3990 O   0  0  0  0  0  0  0  0  0  0  0  0
  189.0360  177.5680  145.1120 O   0  0  0  0  0  0  0  0  0  0  0  0
  187.3820  177.5830  146.8350 C   0  0  0  0  0  2  0  0  0  0  0  0
  189.6600  177.3220  147.3640 C   0  0  0  0  0  0  0  0  0  0  0  0
  189.1200  178.1440  148.3750 N   0  0  0  0  0  0  0  0  0  0  0  0
  187.7450  178.4560  148.0430 C   0  0  0  0  0  3  0  0  0  0  0  0
  190.8780  176.8080  147.4440 C   0  0  0  0  0  2  0  0  0  0  0  0
  188.6790  176.9610  146.3200 C   0  0  2  0  0  3  0  0  0  0  0  0
  188.2320  178.7270  140.4220 C   0  0  0  0  0  2  0  0  0  0  0  0
  188.3380  177.6630  139.3440 C   0  0  0  0  0  2  0  0  0  0  0  0
  189.6030  177.8630  138.5250 C   0  0  0  0  0  2  0  0  0  0  0  0
  189.5050  177.1720  137.1700 C   0  0  2  0  0  3  0  0  0  0  0  0
  188.0410  177.0190  136.7810 C   0  0  0  0  0  1  0  0  0  0  0  0
  190.2850  175.8460  137.1630 C   0  0  1  0  0  3  0  0  0  0  0  0
  191.5050  175.7350  135.8140 S   0  0  0  0  0  0  0  0  0  0  0  0
  192.4890  175.6630  137.3470 C   0  0  1  0  0  3  0  0  0  0  0  0
  191.3030  175.7760  138.2840 C   0  0  0  0  0  2  0  0  0  0  0  0
  193.1280  174.2940  137.4990 C   0  0  0  0  0  2  0  0  0  0  0  0
  194.8880  174.4710  137.9180 S   0  0  0  0  0  1  0  0  0  0  0  0
  1 22  1  6  0  0  0
  1  2  1  0  0  0  0
  1 10  1  0  0  0  0
  2  5  1  6  0  0  0
  3  2  1  0  0  0  0
  4  3  1  0  0  0  0
  5  6  1  0  0  0  0
  6  7  1  0  0  0  0
  8  9  1  0  0  0  0
  8  7  1  0  0  0  0
 11 10  1  6  0  0  0
 11 14  1  0  0  0  0
 13 12  1  0  0  0  0
 13 11  1  0  0  0  0
 14 15  1  0  0  0  0
 16 19  1  0  0  0  0
 17 20  2  0  0  0  0
 17 18  1  0  0  0  0
 19 18  2  0  0  0  0
 21 15  1  6  0  0  0
 21 16  1  0  0  0  0
 21 17  1  0  0  0  0
 23 22  1  0  0  0  0
 24 23  1  0  0  0  0
 25 26  1  1  0  0  0
 25 24  1  0  0  0  0
 27 25  1  6  0  0  0
 27 30  1  0  0  0  0
 28 27  1  0  0  0  0
 28 29  1  0  0  0  0
 29 31  1  1  0  0  0
 29 30  1  0  0  0  0
 31 32  1  0  0  0  0
M  END
>  <MODEL>
4

>  <REMARK>
 VINA RESULT:      -5.9      4.172      7.883
  Name = 
  18 active torsions:
  status: ('A' for Active; 'I' for Inactive)
    1  A    between atoms: C_1  and  C_20
    2  A    between atoms: C_2  and  C_9
    3  A    between atoms: C_2  and  C_23
    4  A    between atoms: O_3  and  C_14
    5  A    between atoms: C_4  and  C_5
    6  A    between atoms: C_4  and  C_15
    7  A    between atoms: C_8  and  C_23
    8  A    between atoms: C_8  and  C_28
    9  A    between atoms: C_9  and  C_10
   10  A    between atoms: C_13  and  C_28
   11  A    between atoms: C_13  and  C_31
   12  A    between atoms: C_14  and  C_26
   13  A    between atoms: C_14  and  C_28
   14  A    between atoms: C_15  and  C_26
   15  A    between atoms: O_16  and  O_27
   16  A    between atoms: O_16  and  C_31
   17  A    between atoms: O_27  and  C_32
   18  A    between atoms: O_29  and  C_31
                            x       y       z     vdW  Elec       q    Type
                         _______ _______ _______ _____ _____    ______ ____

>  <TORSDO>
F 18

$$$$
=
 OpenBabel10272413403D

 32 33  0  0  1  0  0  0  0  0999 V2000
  189.1340  177.7970  142.4260 C   0  0  2  0  0  3  0  0  0  0  0  0
  189.6520  176.8470  143.5240 C   0  0  1  0  0  3  0  0  0  0  0  0
  191.0610  176.8370  143.6450 O   0  0  0  0  0  0  0  0  0  0  0  0
  191.4990  175.5100  143.7790 C   0  0  0  0  0  1  0  0  0  0  0  0
  188.9540  177.0320  144.8730 C   0  0  0  0  0  2  0  0  0  0  0  0
  189.8400  177.8460  145.7980 C   0  0  0  0  0  2  0  0  0  0  0  0
  189.9560  177.1650  147.1490 C   0  0  0  0  0  2  0  0  0  0  0  0
  188.5790  176.9200  147.7350 C   0  0  0  0  0  2  0  0  0  0  0  0
  188.2780  177.9790  148.7740 C   0  0  0  0  0  1  0  0  0  0  0  0
  187.7670  177.3680  141.8710 C   0  0  0  0  0  2  0  0  0  0  0  0
  186.7210  178.4910  141.8980 C   0  0  1  0  0  3  0  0  0  0  0  0
  185.4800  178.7820  139.9970 C   0  0  0  0  0  1  0  0  0  0  0  0
  186.6460  179.1820  140.6690 O   0  0  0  0  0  0  0  0  0  0  0  0
  185.4650  178.0230  142.3110 O   0  0  0  0  0  0  0  0  0  0  0  0
  185.6300  177.6650  143.5700 O   0  0  0  0  0  0  0  0  0  0  0  0
  186.2040  178.7910  145.5970 C   0  0  0  0  0  2  0  0  0  0  0  0
  183.9890  178.8090  144.8030 C   0  0  0  0  0  0  0  0  0  0  0  0
  183.8960  178.6840  146.2040 N   0  0  0  0  0  0  0  0  0  0  0  0
  185.2290  178.5340  146.7520 C   0  0  0  0  0  3  0  0  0  0  0  0
  182.9320  179.0450  144.0410 C   0  0  0  0  0  2  0  0  0  0  0  0
  185.3820  178.8260  144.3090 C   0  0  2  0  0  3  0  0  0  0  0  0
  190.1650  177.9490  141.3130 C   0  0  0  0  0  2  0  0  0  0  0  0
  189.9580  176.8890  140.2460 C   0  0  0  0  0  2  0  0  0  0  0  0
  190.5740  177.3350  138.9300 C   0  0  0  0  0  2  0  0  0  0  0  0
  189.5070  177.5890  137.8720 C   0  0  2  0  0  3  0  0  0  0  0  0
  188.9530  178.9990  138.0370 C   0  0  0  0  0  1  0  0  0  0  0  0
  188.4250  176.4960  137.9000 C   0  0  1  0  0  3  0  0  0  0  0  0
  186.9630  176.9040  136.8910 S   0  0  0  0  0  0  0  0  0  0  0  0
  187.6670  175.4090  136.1200 C   0  0  1  0  0  3  0  0  0  0  0  0
  188.8220  175.2780  137.0910 C   0  0  0  0  0  2  0  0  0  0  0  0
  186.7220  174.2330  136.2930 C   0  0  0  0  0  2  0  0  0  0  0  0
  185.6800  174.0480  134.8150 S   0  0  0  0  0  1  0  0  0  0  0  0
  1 22  1  6  0  0  0
  1  2  1  0  0  0  0
  2  3  1  0  0  0  0
  2  5  1  1  0  0  0
  3  4  1  0  0  0  0
  5  6  1  0  0  0  0
  6  7  1  0  0  0  0
  7  8  1  0  0  0  0
  8  9  1  0  0  0  0
 10  1  1  0  0  0  0
 11 10  1  6  0  0  0
 11 14  1  0  0  0  0
 12 13  1  0  0  0  0
 13 11  1  0  0  0  0
 14 15  1  0  0  0  0
 16 19  1  0  0  0  0
 17 18  1  0  0  0  0
 18 19  2  0  0  0  0
 20 17  2  0  0  0  0
 21 15  1  6  0  0  0
 21 17  1  0  0  0  0
 21 16  1  0  0  0  0
 23 22  1  0  0  0  0
 24 23  1  0  0  0  0
 25 26  1  1  0  0  0
 25 24  1  0  0  0  0
 27 25  1  6  0  0  0
 28 27  1  0  0  0  0
 29 31  1  1  0  0  0
 29 28  1  0  0  0  0
 29 30  1  0  0  0  0
 30 27  1  0  0  0  0
 32 31  1  0  0  0  0
M  END
>  <MODEL>
5

>  <REMARK>
 VINA RESULT:      -5.7      3.054      5.984
  Name = 
  18 active torsions:
  status: ('A' for Active; 'I' for Inactive)
    1  A    between atoms: C_1  and  C_20
    2  A    between atoms: C_2  and  C_9
    3  A    between atoms: C_2  and  C_23
    4  A    between atoms: O_3  and  C_14
    5  A    between atoms: C_4  and  C_5
    6  A    between atoms: C_4  and  C_15
    7  A    between atoms: C_8  and  C_23
    8  A    between atoms: C_8  and  C_28
    9  A    between atoms: C_9  and  C_10
   10  A    between atoms: C_13  and  C_28
   11  A    between atoms: C_13  and  C_31
   12  A    between atoms: C_14  and  C_26
   13  A    between atoms: C_14  and  C_28
   14  A    between atoms: C_15  and  C_26
   15  A    between atoms: O_16  and  O_27
   16  A    between atoms: O_16  and  C_31
   17  A    between atoms: O_27  and  C_32
   18  A    between atoms: O_29  and  C_31
                            x       y       z     vdW  Elec       q    Type
                         _______ _______ _______ _____ _____    ______ ____

>  <TORSDO>
F 18

$$$$
=
 OpenBabel10272413403D

 32 33  0  0  1  0  0  0  0  0999 V2000
  189.0050  177.1060  142.9440 C   0  0  2  0  0  3  0  0  0  0  0  0
  190.1660  177.2770  143.9430 C   0  0  1  0  0  3  0  0  0  0  0  0
  191.2870  177.9440  143.3980 O   0  0  0  0  0  0  0  0  0  0  0  0
  191.5140  179.1250  144.1220 C   0  0  0  0  0  1  0  0  0  0  0  0
  189.7340  177.8670  145.2870 C   0  0  0  0  0  2  0  0  0  0  0  0
  189.8980  176.8250  146.3770 C   0  0  0  0  0  2  0  0  0  0  0  0
  188.8240  176.9970  147.4350 C   0  0  0  0  0  2  0  0  0  0  0  0
  188.0880  178.3070  147.2300 C   0  0  0  0  0  2  0  0  0  0  0  0
  186.5980  178.0450  147.1780 C   0  0  0  0  0  1  0  0  0  0  0  0
  189.0290  178.1590  141.8240 C   0  0  0  0  0  2  0  0  0  0  0  0
  189.3260  177.5660  140.4400 C   0  0  1  0  0  3  0  0  0  0  0  0
  187.6330  177.9630  138.9510 C   0  0  0  0  0  1  0  0  0  0  0  0
  188.8900  178.4070  139.3930 O   0  0  0  0  0  0  0  0  0  0  0  0
  190.6790  177.2190  140.3010 O   0  0  0  0  0  0  0  0  0  0  0  0
  190.9400  177.3690  139.0170 O   0  0  0  0  0  0  0  0  0  0  0  0
  192.9340  176.3500  138.1860 C   0  0  0  0  0  3  0  0  0  0  0  0
  190.8270  175.6990  137.3680 C   0  0  0  0  0  0  0  0  0  0  0  0
  191.6900  175.7020  136.2530 N   0  0  0  0  0  0  0  0  0  0  0  0
  192.9810  176.2200  136.6590 C   0  0  0  0  0  3  0  0  0  0  0  0
  189.6020  175.1970  137.3150 C   0  0  0  0  0  1  0  0  0  0  0  0
  191.4820  176.1440  138.6150 C   0  0  2  0  0  3  0  0  0  0  0  0
  187.6640  177.0940  143.6680 C   0  0  0  0  0  2  0  0  0  0  0  0
  186.6250  177.8730  142.8800 C   0  0  0  0  0  2  0  0  0  0  0  0
  185.4020  178.1460  143.7420 C   0  0  0  0  0  2  0  0  0  0  0  0
  184.3660  178.9740  142.9920 C   0  0  2  0  0  3  0  0  0  0  0  0
  183.2160  179.3200  143.9290 C   0  0  0  0  0  1  0  0  0  0  0  0
  183.9160  178.2670  141.7020 C   0  0  1  0  0  3  0  0  0  0  0  0
  182.1380  178.4630  141.3550 S   0  0  0  0  0  0  0  0  0  0  0  0
  182.9840  179.2720  139.9560 C   0  0  1  0  0  3  0  0  0  0  0  0
  184.3870  178.9940  140.4580 C   0  0  0  0  0  2  0  0  0  0  0  0
  182.7400  178.4970  138.6740 C   0  0  0  0  0  2  0  0  0  0  0  0
  181.4900  179.3440  137.6620 S   0  0  0  0  0  1  0  0  0  0  0  0
  1 10  1  6  0  0  0
  1 22  1  0  0  0  0
  1  2  1  0  0  0  0
  2  5  1  1  0  0  0
  3  2  1  0  0  0  0
  3  4  1  0  0  0  0
  5  6  1  0  0  0  0
  6  7  1  0  0  0  0
  8  7  1  0  0  0  0
  9  8  1  0  0  0  0
 11 10  1  1  0  0  0
 12 13  1  0  0  0  0
 13 11  1  0  0  0  0
 14 11  1  0  0  0  0
 15 14  1  0  0  0  0
 16 21  1  0  0  0  0
 17 21  1  0  0  0  0
 18 19  1  0  0  0  0
 18 17  2  0  0  0  0
 19 16  2  0  0  0  0
 20 17  1  0  0  0  0
 21 15  1  6  0  0  0
 23 22  1  0  0  0  0
 23 24  1  0  0  0  0
 25 24  1  0  0  0  0
 25 26  1  1  0  0  0
 27 25  1  1  0  0  0
 28 27  1  0  0  0  0
 29 31  1  6  0  0  0
 29 30  1  0  0  0  0
 29 28  1  0  0  0  0
 30 27  1  0  0  0  0
 32 31  1  0  0  0  0
M  END
>  <MODEL>
6

>  <REMARK>
 VINA RESULT:      -5.7      1.460      2.519
  Name = 
  18 active torsions:
  status: ('A' for Active; 'I' for Inactive)
    1  A    between atoms: C_1  and  C_20
    2  A    between atoms: C_2  and  C_9
    3  A    between atoms: C_2  and  C_23
    4  A    between atoms: O_3  and  C_14
    5  A    between atoms: C_4  and  C_5
    6  A    between atoms: C_4  and  C_15
    7  A    between atoms: C_8  and  C_23
    8  A    between atoms: C_8  and  C_28
    9  A    between atoms: C_9  and  C_10
   10  A    between atoms: C_13  and  C_28
   11  A    between atoms: C_13  and  C_31
   12  A    between atoms: C_14  and  C_26
   13  A    between atoms: C_14  and  C_28
   14  A    between atoms: C_15  and  C_26
   15  A    between atoms: O_16  and  O_27
   16  A    between atoms: O_16  and  C_31
   17  A    between atoms: O_27  and  C_32
   18  A    between atoms: O_29  and  C_31
                            x       y       z     vdW  Elec       q    Type
                         _______ _______ _______ _____ _____    ______ ____

>  <TORSDO>
F 18

$$$$
=
 OpenBabel10272413403D

 32 33  0  0  1  0  0  0  0  0999 V2000
  187.1500  177.9510  143.4240 C   0  0  2  0  0  3  0  0  0  0  0  0
  187.4140  177.8710  144.9410 C   0  0  1  0  0  3  0  0  0  0  0  0
  186.2500  177.6170  145.7030 O   0  0  0  0  0  0  0  0  0  0  0  0
  186.2760  178.4170  146.8570 C   0  0  0  0  0  1  0  0  0  0  0  0
  188.5690  176.9400  145.3140 C   0  0  0  0  0  2  0  0  0  0  0  0
  189.8040  177.7610  145.6300 C   0  0  0  0  0  2  0  0  0  0  0  0
  191.0210  177.1660  144.9480 C   0  0  0  0  0  2  0  0  0  0  0  0
  191.8380  178.2550  144.2810 C   0  0  0  0  0  2  0  0  0  0  0  0
  190.9380  179.4240  143.9420 C   0  0  0  0  0  1  0  0  0  0  0  0
  185.6900  177.6370  143.0610 C   0  0  0  0  0  2  0  0  0  0  0  0
  184.9270  178.8510  142.5130 C   0  0  1  0  0  3  0  0  0  0  0  0
  183.6380  179.5540  144.2700 C   0  0  0  0  0  1  0  0  0  0  0  0
  184.7620  179.8610  143.4850 O   0  0  0  0  0  0  0  0  0  0  0  0
  185.5120  179.3480  141.3390 O   0  0  0  0  0  0  0  0  0  0  0  0
  184.4980  179.6360  140.5470 O   0  0  0  0  0  0  0  0  0  0  0  0
  184.4360  178.0250  138.7840 C   0  0  0  0  0  3  0  0  0  0  0  0
  182.4970  178.5240  140.0180 C   0  0  0  0  0  0  0  0  0  0  0  0
  182.0730  178.3590  138.6830 N   0  0  0  0  0  0  0  0  0  0  0  0
  183.2370  178.1770  137.8400 C   0  0  0  0  0  3  0  0  0  0  0  0
  181.6420  178.6260  141.0250 C   0  0  0  0  0  1  0  0  0  0  0  0
  183.9590  178.3970  140.1870 C   0  0  2  0  0  3  0  0  0  0  0  0
  188.1190  177.0570  142.6590 C   0  0  0  0  0  2  0  0  0  0  0  0
  188.6900  177.7940  141.4600 C   0  0  0  0  0  2  0  0  0  0  0  0
  189.9440  177.0960  140.9580 C   0  0  0  0  0  2  0  0  0  0  0  0
  190.1170  177.2730  139.4540 C   0  0  2  0  0  3  0  0  0  0  0  0
  188.7480  177.3380  138.7890 C   0  0  0  0  0  1  0  0  0  0  0  0
  191.0350  176.1870  138.8670 C   0  0  1  0  0  3  0  0  0  0  0  0
  190.9010  176.0310  137.0570 S   0  0  0  0  0  0  0  0  0  0  0  0
  192.6250  176.5410  137.3600 C   0  0  1  0  0  3  0  0  0  0  0  0
  192.4910  176.6080  138.8680 C   0  0  0  0  0  2  0  0  0  0  0  0
  193.5790  175.4210  136.9840 C   0  0  0  0  0  2  0  0  0  0  0  0
  194.6240  175.9350  135.5890 S   0  0  0  0  0  1  0  0  0  0  0  0
  1 22  1  6  0  0  0
  1  2  1  0  0  0  0
  2  5  1  6  0  0  0
  2  3  1  0  0  0  0
  3  4  1  0  0  0  0
  5  6  1  0  0  0  0
  7  6  1  0  0  0  0
  8  7  1  0  0  0  0
  9  8  1  0  0  0  0
 10  1  1  0  0  0  0
 11 10  1  1  0  0  0
 11 13  1  0  0  0  0
 13 12  1  0  0  0  0
 14 11  1  0  0  0  0
 15 14  1  0  0  0  0
 16 21  1  0  0  0  0
 17 21  1  0  0  0  0
 17 20  1  0  0  0  0
 18 17  2  0  0  0  0
 19 18  1  0  0  0  0
 19 16  2  0  0  0  0
 21 15  1  6  0  0  0
 23 22  1  0  0  0  0
 24 23  1  0  0  0  0
 25 26  1  6  0  0  0
 25 24  1  0  0  0  0
 27 30  1  0  0  0  0
 27 25  1  6  0  0  0
 28 29  1  0  0  0  0
 28 27  1  0  0  0  0
 29 31  1  1  0  0  0
 29 30  1  0  0  0  0
 32 31  1  0  0  0  0
M  END
>  <MODEL>
7

>  <REMARK>
 VINA RESULT:      -5.7      3.879      6.587
  Name = 
  18 active torsions:
  status: ('A' for Active; 'I' for Inactive)
    1  A    between atoms: C_1  and  C_20
    2  A    between atoms: C_2  and  C_9
    3  A    between atoms: C_2  and  C_23
    4  A    between atoms: O_3  and  C_14
    5  A    between atoms: C_4  and  C_5
    6  A    between atoms: C_4  and  C_15
    7  A    between atoms: C_8  and  C_23
    8  A    between atoms: C_8  and  C_28
    9  A    between atoms: C_9  and  C_10
   10  A    between atoms: C_13  and  C_28
   11  A    between atoms: C_13  and  C_31
   12  A    between atoms: C_14  and  C_26
   13  A    between atoms: C_14  and  C_28
   14  A    between atoms: C_15  and  C_26
   15  A    between atoms: O_16  and  O_27
   16  A    between atoms: O_16  and  C_31
   17  A    between atoms: O_27  and  C_32
   18  A    between atoms: O_29  and  C_31
                            x       y       z     vdW  Elec       q    Type
                         _______ _______ _______ _____ _____    ______ ____

>  <TORSDO>
F 18

$$$$
=
 OpenBabel10272413403D

 32 33  0  0  1  0  0  0  0  0999 V2000
  188.8880  177.0650  142.7400 C   0  0  2  0  0  3  0  0  0  0  0  0
  189.9640  177.1460  143.8410 C   0  0  1  0  0  3  0  0  0  0  0  0
  191.2330  177.5430  143.3620 O   0  0  0  0  0  0  0  0  0  0  0  0
  191.4920  178.8560  143.7850 C   0  0  0  0  0  1  0  0  0  0  0  0
  189.5260  177.9500  145.0660 C   0  0  0  0  0  2  0  0  0  0  0  0
  189.5910  177.0720  146.3020 C   0  0  0  0  0  2  0  0  0  0  0  0
  190.9990  177.0580  146.8640 C   0  0  0  0  0  2  0  0  0  0  0  0
  191.3740  175.6590  147.3140 C   0  0  0  0  0  2  0  0  0  0  0  0
  192.6730  175.7100  148.0900 C   0  0  0  0  0  1  0  0  0  0  0  0
  188.9660  178.2390  141.7510 C   0  0  0  0  0  2  0  0  0  0  0  0
  189.3120  177.8060  140.3200 C   0  0  1  0  0  3  0  0  0  0  0  0
  191.4570  177.1510  139.8600 C   0  0  0  0  0  1  0  0  0  0  0  0
  190.1980  176.7070  140.2940 O   0  0  0  0  0  0  0  0  0  0  0  0
  188.1600  177.5670  139.5550 O   0  0  0  0  0  0  0  0  0  0  0  0
  188.4170  178.0980  138.3760 O   0  0  0  0  0  0  0  0  0  0  0  0
  189.4690  176.8670  136.6200 C   0  0  0  0  0  3  0  0  0  0  0  0
  187.2030  177.4790  136.4610 C   0  0  0  0  0  0  0  0  0  0  0  0
  187.7370  177.6340  135.1660 N   0  0  0  0  0  0  0  0  0  0  0  0
  189.1660  177.3990  135.2140 C   0  0  0  0  0  3  0  0  0  0  0  0
  185.9040  177.5510  136.7050 C   0  0  0  0  0  1  0  0  0  0  0  0
  188.2080  177.0610  137.4610 C   0  0  2  0  0  3  0  0  0  0  0  0
  187.4970  176.9410  143.3500 C   0  0  0  0  0  2  0  0  0  0  0  0
  186.5920  178.0510  142.8440 C   0  0  0  0  0  2  0  0  0  0  0  0
  185.2670  178.0350  143.5890 C   0  0  0  0  0  2  0  0  0  0  0  0
  184.2110  178.8610  142.8660 C   0  0  2  0  0  3  0  0  0  0  0  0
  183.0410  179.1280  143.8050 C   0  0  0  0  0  1  0  0  0  0  0  0
  183.7960  178.1990  141.5410 C   0  0  1  0  0  3  0  0  0  0  0  0
  182.0210  178.3760  141.1710 S   0  0  0  0  0  0  0  0  0  0  0  0
  182.8730  179.2570  139.8220 C   0  0  1  0  0  3  0  0  0  0  0  0
  184.2730  178.9850  140.3360 C   0  0  0  0  0  2  0  0  0  0  0  0
  182.6660  178.5300  138.5050 C   0  0  0  0  0  2  0  0  0  0  0  0
  181.4130  179.3910  137.5090 S   0  0  0  0  0  1  0  0  0  0  0  0
  1 10  1  1  0  0  0
  1 22  1  0  0  0  0
  1  2  1  0  0  0  0
  2  5  1  1  0  0  0
  3  4  1  0  0  0  0
  3  2  1  0  0  0  0
  5  6  1  0  0  0  0
  6  7  1  0  0  0  0
  7  8  1  0  0  0  0
  8  9  1  0  0  0  0
 11 10  1  1  0  0  0
 12 13  1  0  0  0  0
 13 11  1  0  0  0  0
 14 11  1  0  0  0  0
 15 14  1  0  0  0  0
 16 21  1  0  0  0  0
 17 20  1  0  0  0  0
 17 21  1  0  0  0  0
 18 19  1  0  0  0  0
 18 17  2  0  0  0  0
 19 16  2  0  0  0  0
 21 15  1  1  0  0  0
 23 22  1  0  0  0  0
 23 24  1  0  0  0  0
 25 24  1  0  0  0  0
 25 26  1  1  0  0  0
 27 25  1  1  0  0  0
 28 27  1  0  0  0  0
 29 31  1  6  0  0  0
 29 30  1  0  0  0  0
 29 28  1  0  0  0  0
 30 27  1  0  0  0  0
 32 31  1  0  0  0  0
M  END
>  <MODEL>
8

>  <REMARK>
 VINA RESULT:      -5.6      1.161      2.140
  Name = 
  18 active torsions:
  status: ('A' for Active; 'I' for Inactive)
    1  A    between atoms: C_1  and  C_20
    2  A    between atoms: C_2  and  C_9
    3  A    between atoms: C_2  and  C_23
    4  A    between atoms: O_3  and  C_14
    5  A    between atoms: C_4  and  C_5
    6  A    between atoms: C_4  and  C_15
    7  A    between atoms: C_8  and  C_23
    8  A    between atoms: C_8  and  C_28
    9  A    between atoms: C_9  and  C_10
   10  A    between atoms: C_13  and  C_28
   11  A    between atoms: C_13  and  C_31
   12  A    between atoms: C_14  and  C_26
   13  A    between atoms: C_14  and  C_28
   14  A    between atoms: C_15  and  C_26
   15  A    between atoms: O_16  and  O_27
   16  A    between atoms: O_16  and  C_31
   17  A    between atoms: O_27  and  C_32
   18  A    between atoms: O_29  and  C_31
                            x       y       z     vdW  Elec       q    Type
                         _______ _______ _______ _____ _____    ______ ____

>  <TORSDO>
F 18

$$$$
=
 OpenBabel10272413403D

 32 33  0  0  1  0  0  0  0  0999 V2000
  187.6070  178.0790  141.4020 C   0  0  2  0  0  3  0  0  0  0  0  0
  186.3500  178.8590  141.8350 C   0  0  1  0  0  3  0  0  0  0  0  0
  185.7120  179.5370  140.7710 O   0  0  0  0  0  0  0  0  0  0  0  0
  184.6420  178.7550  140.3060 C   0  0  0  0  0  1  0  0  0  0  0  0
  185.3710  178.0290  142.6670 C   0  0  0  0  0  2  0  0  0  0  0  0
  184.6270  178.9340  143.6310 C   0  0  0  0  0  2  0  0  0  0  0  0
  185.5340  179.3360  144.7790 C   0  0  0  0  0  2  0  0  0  0  0  0
  185.8240  178.1410  145.6670 C   0  0  0  0  0  2  0  0  0  0  0  0
  185.2280  178.3760  147.0380 C   0  0  0  0  0  1  0  0  0  0  0  0
  188.6190  177.9080  142.5460 C   0  0  0  0  0  2  0  0  0  0  0  0
  189.3260  176.5460  142.5320 C   0  0  1  0  0  3  0  0  0  0  0  0
  191.2700  177.2880  141.5750 C   0  0  0  0  0  1  0  0  0  0  0  0
  190.1890  176.4030  141.4230 O   0  0  0  0  0  0  0  0  0  0  0  0
  189.9860  176.2890  143.7430 O   0  0  0  0  0  0  0  0  0  0  0  0
  189.2650  176.9010  144.6620 O   0  0  0  0  0  0  0  0  0  0  0  0
  191.5790  176.9510  145.2530 C   0  0  0  0  0  3  0  0  0  0  0  0
  189.9180  177.2630  146.8900 C   0  0  0  0  0  0  0  0  0  0  0  0
  190.9220  176.4840  147.5010 N   0  0  0  0  0  0  0  0  0  0  0  0
  191.9210  176.1410  146.5090 C   0  0  0  0  0  3  0  0  0  0  0  0
  188.9160  177.7930  147.5750 C   0  0  0  0  0  1  0  0  0  0  0  0
  190.1950  177.5620  145.4700 C   0  0  2  0  0  3  0  0  0  0  0  0
  188.2510  178.7250  140.1810 C   0  0  0  0  0  2  0  0  0  0  0  0
  188.3840  177.7180  139.0520 C   0  0  0  0  0  2  0  0  0  0  0  0
  188.0000  178.3550  137.7260 C   0  0  0  0  0  2  0  0  0  0  0  0
  187.9040  177.3150  136.6160 C   0  0  2  0  0  3  0  0  0  0  0  0
  186.8280  177.7310  135.6210 C   0  0  0  0  0  1  0  0  0  0  0  0
  187.6970  175.9030  137.1910 C   0  0  1  0  0  3  0  0  0  0  0  0
  186.1260  175.1380  136.6750 S   0  0  0  0  0  0  0  0  0  0  0  0
  187.4250  174.0620  135.9830 C   0  0  1  0  0  3  0  0  0  0  0  0
  188.5850  174.8760  136.5190 C   0  0  0  0  0  2  0  0  0  0  0  0
  187.4000  172.7040  136.6620 C   0  0  0  0  0  2  0  0  0  0  0  0
  186.8650  171.4280  135.4840 S   0  0  0  0  0  1  0  0  0  0  0  0
  1 22  1  6  0  0  0
  1  2  1  0  0  0  0
  1 10  1  0  0  0  0
  2  5  1  6  0  0  0
  3  2  1  0  0  0  0
  4  3  1  0  0  0  0
  5  6  1  0  0  0  0
  6  7  1  0  0  0  0
  7  8  1  0  0  0  0
  8  9  1  0  0  0  0
 11 10  1  1  0  0  0
 11 14  1  0  0  0  0
 13 12  1  0  0  0  0
 13 11  1  0  0  0  0
 14 15  1  0  0  0  0
 16 21  1  0  0  0  0
 16 19  2  0  0  0  0
 17 18  2  0  0  0  0
 17 20  1  0  0  0  0
 19 18  1  0  0  0  0
 21 15  1  6  0  0  0
 21 17  1  0  0  0  0
 23 22  1  0  0  0  0
 24 23  1  0  0  0  0
 25 26  1  6  0  0  0
 25 24  1  0  0  0  0
 27 25  1  6  0  0  0
 28 27  1  0  0  0  0
 29 30  1  0  0  0  0
 29 31  1  1  0  0  0
 29 28  1  0  0  0  0
 30 27  1  0  0  0  0
 32 31  1  0  0  0  0
M  END
>  <MODEL>
9

>  <REMARK>
 VINA RESULT:      -5.5      3.432      6.900
  Name = 
  18 active torsions:
  status: ('A' for Active; 'I' for Inactive)
    1  A    between atoms: C_1  and  C_20
    2  A    between atoms: C_2  and  C_9
    3  A    between atoms: C_2  and  C_23
    4  A    between atoms: O_3  and  C_14
    5  A    between atoms: C_4  and  C_5
    6  A    between atoms: C_4  and  C_15
    7  A    between atoms: C_8  and  C_23
    8  A    between atoms: C_8  and  C_28
    9  A    between atoms: C_9  and  C_10
   10  A    between atoms: C_13  and  C_28
   11  A    between atoms: C_13  and  C_31
   12  A    between atoms: C_14  and  C_26
   13  A    between atoms: C_14  and  C_28
   14  A    between atoms: C_15  and  C_26
   15  A    between atoms: O_16  and  O_27
   16  A    between atoms: O_16  and  C_31
   17  A    between atoms: O_27  and  C_32
   18  A    between atoms: O_29  and  C_31
                            x       y       z     vdW  Elec       q    Type
                         _______ _______ _______ _____ _____    ______ ____

>  <TORSDO>
F 18

$$$$
