=
 OpenBabel10272414103D

 43 49  0  0  1  0  0  0  0  0999 V2000
  191.3260  177.8130  141.3070 C   0  0  0  0  0  2  0  0  0  0  0  0
  190.4760  176.6660  140.9780 N   0  0  0  0  0  0  0  0  0  0  0  0
  191.5250  177.8980  142.8180 C   0  0  0  0  0  2  0  0  0  0  0  0
  189.1390  176.8570  141.5440 C   0  0  0  0  0  2  0  0  0  0  0  0
  189.2240  176.9320  143.0700 C   0  0  1  0  0  3  0  0  0  0  0  0
  190.1730  178.0530  143.5060 C   0  0  0  0  0  2  0  0  0  0  0  0
  187.9470  177.7790  147.9420 C   0  0  0  0  0  0  0  0  0  0  0  0
  186.8820  178.0020  143.0010 C   0  0  0  0  0  0  0  0  0  0  0  0
  186.8000  177.9420  145.8300 C   0  0  0  0  0  0  0  0  0  0  0  0
  188.9940  177.1720  147.3190 N   0  0  0  0  0  0  0  0  0  0  0  0
  187.9890  178.0100  149.4090 C   0  0  0  0  0  1  0  0  0  0  0  0
  187.8930  177.3320  145.1960 C   0  0  0  0  0  0  0  0  0  0  0  0
  186.8230  178.1610  147.2080 C   0  0  0  0  0  3  0  0  0  0  0  0
  188.9870  176.9360  145.9790 C   0  0  0  0  0  3  0  0  0  0  0  0
  187.8280  177.0420  143.7110 C   0  0  2  0  0  3  0  0  0  0  0  0
  185.8870  178.5450  143.6440 N   0  0  0  0  0  0  0  0  0  0  0  0
  187.0610  178.2810  141.6080 N   0  0  0  0  0  2  0  0  0  0  0  0
  185.5670  178.2600  145.0440 C   0  0  0  0  0  2  0  0  0  0  0  0
  186.1070  179.0650  140.8340 C   0  0  0  0  0  2  0  0  0  0  0  0
  184.2110  177.6190  137.7920 C   0  0  0  0  0  2  0  0  0  0  0  0
  182.8430  177.7040  138.3270 N   0  0  0  0  0  0  0  0  0  0  0  0
  183.7540  178.2390  140.5880 C   0  0  0  0  0  2  0  0  0  0  0  0
  185.1980  178.5020  138.5610 C   0  0  0  0  0  2  0  0  0  0  0  0
  185.1740  178.1520  140.0450 C   0  0  0  0  0  3  0  0  0  0  0  0
  182.8200  177.3570  139.7540 C   0  0  0  0  0  2  0  0  0  0  0  0
  181.0120  178.9750  137.3350 C   0  0  0  0  0  1  0  0  0  0  0  0
  182.3020  179.0470  138.1300 C   0  0  0  0  0  2  0  0  0  0  0  0
  190.3760  176.5200  139.5220 C   0  0  0  0  0  2  0  0  0  0  0  0
  189.0720  177.0680  138.9430 C   0  0  0  0  0  2  0  0  0  0  0  0
  189.2230  177.2240  137.4430 C   0  0  0  0  0  2  0  0  0  0  0  0
  188.0540  176.5550  136.7220 C   0  0  1  0  0  0  0  0  0  0  0  0
  188.4570  175.3510  135.8920 C   0  0  1  0  0  0  0  0  0  0  0  0
  187.8250  175.1890  137.2120 N   0  0  0  0  0  0  0  0  0  0  0  0
  188.1380  176.6700  135.2210 C   0  0  0  0  0  2  0  0  0  0  0  0
  189.9390  175.0090  135.9160 C   0  0  0  0  0  0  0  0  0  0  0  0
  192.1850  175.2820  135.0170 C   0  0  0  0  0  3  0  0  0  0  0  0
  191.7770  173.6550  136.7630 C   0  0  0  0  0  3  0  0  0  0  0  0
  192.6580  174.2970  135.8890 C   0  0  0  0  0  3  0  0  0  0  0  0
  190.4230  174.0040  136.7710 C   0  0  0  0  0  3  0  0  0  0  0  0
  190.8310  175.6310  135.0260 C   0  0  0  0  0  3  0  0  0  0  0  0
  186.4240  174.8690  136.9830 C   0  0  0  0  0  2  0  0  0  0  0  0
  185.6810  172.8960  138.0990 O   0  0  0  0  0  1  0  0  0  0  0  0
  186.2420  173.3640  136.9100 C   0  0  0  0  0  2  0  0  0  0  0  0
  1  3  1  0  0  0  0
  2  1  1  0  0  0  0
  2  4  1  0  0  0  0
  3  6  1  0  0  0  0
  5  4  1  6  0  0  0
  5  6  1  0  0  0  0
  5 15  1  0  0  0  0
  7 11  1  0  0  0  0
  8 16  2  0  0  0  0
  9 13  1  0  0  0  0
 10  7  1  0  0  0  0
 12  9  2  0  0  0  0
 12 14  1  0  0  0  0
 13  7  2  0  0  0  0
 14 10  2  0  0  0  0
 15  8  1  6  0  0  0
 15 12  1  0  0  0  0
 16 18  1  0  0  0  0
 17  8  1  0  0  0  0
 18  9  1  0  0  0  0
 19 17  1  0  0  0  0
 20 21  1  0  0  0  0
 20 23  1  0  0  0  0
 21 25  1  0  0  0  0
 23 24  1  0  0  0  0
 24 22  1  0  0  0  0
 24 19  1  0  0  0  0
 25 22  1  0  0  0  0
 26 27  1  0  0  0  0
 27 21  1  0  0  0  0
 28  2  1  0  0  0  0
 29 28  1  0  0  0  0
 30 29  1  0  0  0  0
 31 33  1  0  0  0  0
 31 30  1  1  0  0  0
 32 35  1  1  0  0  0
 32 31  1  0  0  0  0
 32 33  1  0  0  0  0
 34 32  1  0  0  0  0
 34 31  1  0  0  0  0
 35 39  1  0  0  0  0
 36 40  1  0  0  0  0
 36 38  2  0  0  0  0
 37 39  2  0  0  0  0
 38 37  1  0  0  0  0
 40 35  2  0  0  0  0
 41 33  1  0  0  0  0
 43 41  1  0  0  0  0
 43 42  1  0  0  0  0
M  END
>  <MODEL>
1

>  <REMARK>
 VINA RESULT:      -7.8      0.000      0.000
  Name = 
  11 active torsions:
  status: ('A' for Active; 'I' for Inactive)
    1  A    between atoms: C_1  and  N_34
    2  A    between atoms: C_1  and  C_35
    3  A    between atoms: C_3  and  C_4
    4  A    between atoms: C_3  and  C_12
    5  A    between atoms: N_6  and  C_17
    6  A    between atoms: C_10  and  N_22
    7  A    between atoms: C_10  and  C_42
    8  A    between atoms: C_11  and  C_14
    9  A    between atoms: C_12  and  C_17
   10  A    between atoms: N_19  and  C_37
   11  A    between atoms: C_27  and  C_30
                            x       y       z     vdW  Elec       q    Type
                         _______ _______ _______ _____ _____    ______ ____

>  <TORSDO>
F 11

$$$$
=
 OpenBabel10272414103D

 43 49  0  0  1  0  0  0  0  0999 V2000
  190.2080  177.3800  141.4360 C   0  0  0  0  0  2  0  0  0  0  0  0
  188.8560  177.6340  140.9320 N   0  0  0  0  0  0  0  0  0  0  0  0
  190.2070  176.1420  142.3290 C   0  0  0  0  0  2  0  0  0  0  0  0
  187.9590  177.9490  142.0460 C   0  0  0  0  0  2  0  0  0  0  0  0
  187.8690  176.7540  142.9970 C   0  0  1  0  0  3  0  0  0  0  0  0
  189.2590  176.3580  143.5050 C   0  0  0  0  0  2  0  0  0  0  0  0
  188.7390  178.0780  147.8520 C   0  0  0  0  0  0  0  0  0  0  0  0
  185.7390  177.9730  143.7800 C   0  0  0  0  0  0  0  0  0  0  0  0
  186.8290  178.1480  146.3870 C   0  0  0  0  0  0  0  0  0  0  0  0
  189.4180  177.3520  146.9230 N   0  0  0  0  0  0  0  0  0  0  0  0
  189.3900  178.4240  149.1430 C   0  0  0  0  0  1  0  0  0  0  0  0
  187.5450  177.4160  145.4280 C   0  0  0  0  0  0  0  0  0  0  0  0
  187.4250  178.4760  147.6060 C   0  0  0  0  0  3  0  0  0  0  0  0
  188.8520  177.0100  145.7330 C   0  0  0  0  0  3  0  0  0  0  0  0
  186.8650  177.0120  144.1370 C   0  0  2  0  0  3  0  0  0  0  0  0
  185.1140  178.6330  144.7140 N   0  0  0  0  0  0  0  0  0  0  0  0
  185.3360  178.1260  142.4150 N   0  0  0  0  0  2  0  0  0  0  0  0
  185.3910  178.4860  146.1440 C   0  0  0  0  0  2  0  0  0  0  0  0
  184.1710  178.9080  142.0210 C   0  0  0  0  0  2  0  0  0  0  0  0
  182.7430  178.8130  138.4310 C   0  0  0  0  0  2  0  0  0  0  0  0
  183.8030  178.0160  137.7960 N   0  0  0  0  0  0  0  0  0  0  0  0
  185.2140  178.2510  139.8400 C   0  0  0  0  0  2  0  0  0  0  0  0
  182.7540  178.6950  139.9580 C   0  0  0  0  0  2  0  0  0  0  0  0
  184.1240  179.0800  140.5070 C   0  0  0  0  0  3  0  0  0  0  0  0
  185.1220  178.3930  138.3180 C   0  0  0  0  0  2  0  0  0  0  0  0
  182.3610  176.1340  137.2180 C   0  0  0  0  0  1  0  0  0  0  0  0
  183.5680  176.5900  138.0150 C   0  0  0  0  0  2  0  0  0  0  0  0
  188.8780  178.7550  139.9870 C   0  0  0  0  0  2  0  0  0  0  0  0
  189.3410  178.3600  138.5850 C   0  0  0  0  0  2  0  0  0  0  0  0
  188.7070  177.0360  138.2090 C   0  0  0  0  0  2  0  0  0  0  0  0
  189.7390  176.1250  137.5470 C   0  0  1  0  0  0  0  0  0  0  0  0
  189.3840  175.7320  136.1250 C   0  0  1  0  0  0  0  0  0  0  0  0
  190.3820  176.7790  136.3980 N   0  0  0  0  0  0  0  0  0  0  0  0
  189.2120  174.7420  137.2580 C   0  0  0  0  0  2  0  0  0  0  0  0
  188.0760  176.3040  135.5980 C   0  0  0  0  0  0  0  0  0  0  0  0
  185.6790  176.1010  135.2270 C   0  0  0  0  0  3  0  0  0  0  0  0
  186.8760  178.0120  134.3460 C   0  0  0  0  0  3  0  0  0  0  0  0
  185.6800  177.3110  134.5280 C   0  0  0  0  0  3  0  0  0  0  0  0
  188.0690  177.5080  134.8720 C   0  0  0  0  0  3  0  0  0  0  0  0
  186.8710  175.5970  135.7530 C   0  0  0  0  0  3  0  0  0  0  0  0
  191.6950  176.1770  136.2290 C   0  0  0  0  0  2  0  0  0  0  0  0
  193.8350  176.3200  137.2740 O   0  0  0  0  0  1  0  0  0  0  0  0
  192.4660  176.2410  137.5350 C   0  0  0  0  0  2  0  0  0  0  0  0
  1  3  1  0  0  0  0
  2  1  1  0  0  0  0
  2  4  1  0  0  0  0
  3  6  1  0  0  0  0
  5  4  1  1  0  0  0
  5  6  1  0  0  0  0
  5 15  1  0  0  0  0
  7 11  1  0  0  0  0
  8 16  2  0  0  0  0
  9 13  2  0  0  0  0
 10  7  2  0  0  0  0
 12 14  2  0  0  0  0
 12  9  1  0  0  0  0
 13  7  1  0  0  0  0
 14 10  1  0  0  0  0
 15  8  1  6  0  0  0
 15 12  1  0  0  0  0
 16 18  1  0  0  0  0
 17  8  1  0  0  0  0
 18  9  1  0  0  0  0
 19 17  1  0  0  0  0
 20 23  1  0  0  0  0
 21 27  1  0  0  0  0
 21 25  1  0  0  0  0
 21 20  1  0  0  0  0
 22 24  1  0  0  0  0
 23 24  1  0  0  0  0
 24 19  1  0  0  0  0
 25 22  1  0  0  0  0
 26 27  1  0  0  0  0
 28  2  1  0  0  0  0
 29 28  1  0  0  0  0
 30 29  1  0  0  0  0
 31 30  1  1  0  0  0
 32 35  1  6  0  0  0
 32 33  1  0  0  0  0
 32 34  1  0  0  0  0
 32 31  1  0  0  0  0
 33 31  1  0  0  0  0
 34 31  1  0  0  0  0
 35 40  1  0  0  0  0
 36 40  2  0  0  0  0
 37 38  2  0  0  0  0
 37 39  1  0  0  0  0
 38 36  1  0  0  0  0
 39 35  2  0  0  0  0
 41 33  1  0  0  0  0
 41 43  1  0  0  0  0
 42 43  1  0  0  0  0
M  END
>  <MODEL>
2

>  <REMARK>
 VINA RESULT:      -7.7      1.968      3.294
  Name = 
  11 active torsions:
  status: ('A' for Active; 'I' for Inactive)
    1  A    between atoms: C_1  and  N_34
    2  A    between atoms: C_1  and  C_35
    3  A    between atoms: C_3  and  C_4
    4  A    between atoms: C_3  and  C_12
    5  A    between atoms: N_6  and  C_17
    6  A    between atoms: C_10  and  N_22
    7  A    between atoms: C_10  and  C_42
    8  A    between atoms: C_11  and  C_14
    9  A    between atoms: C_12  and  C_17
   10  A    between atoms: N_19  and  C_37
   11  A    between atoms: C_27  and  C_30
                            x       y       z     vdW  Elec       q    Type
                         _______ _______ _______ _____ _____    ______ ____

>  <TORSDO>
F 11

$$$$
=
 OpenBabel10272414103D

 43 49  0  0  1  0  0  0  0  0999 V2000
  189.7300  178.3730  139.7860 C   0  0  0  0  0  2  0  0  0  0  0  0
  189.7300  176.9770  140.2300 N   0  0  0  0  0  0  0  0  0  0  0  0
  189.0160  178.4930  138.4410 C   0  0  0  0  0  2  0  0  0  0  0  0
  190.5030  176.1560  139.2950 C   0  0  0  0  0  2  0  0  0  0  0  0
  189.8530  176.1890  137.9110 C   0  0  1  0  0  3  0  0  0  0  0  0
  189.7270  177.6290  137.4040 C   0  0  0  0  0  2  0  0  0  0  0  0
  194.7300  174.6740  137.8840 C   0  0  0  0  0  0  0  0  0  0  0  0
  189.8790  173.9440  136.6480 C   0  0  0  0  0  0  0  0  0  0  0  0
  192.7030  173.8990  136.8390 C   0  0  0  0  0  0  0  0  0  0  0  0
  194.0780  175.7920  138.3060 N   0  0  0  0  0  0  0  0  0  0  0  0
  196.1690  174.4890  138.2060 C   0  0  0  0  0  1  0  0  0  0  0  0
  192.0370  175.0460  137.2950 C   0  0  0  0  0  0  0  0  0  0  0  0
  194.0560  173.7140  137.1290 C   0  0  0  0  0  3  0  0  0  0  0  0
  192.7630  175.9990  138.0240 C   0  0  0  0  0  3  0  0  0  0  0  0
  190.5860  175.2650  136.9190 C   0  0  2  0  0  3  0  0  0  0  0  0
  190.5530  172.9080  136.2320 N   0  0  0  0  0  0  0  0  0  0  0  0
  188.4610  173.8460  136.8100 N   0  0  0  0  0  2  0  0  0  0  0  0
  191.9900  172.9270  135.9530 C   0  0  0  0  0  2  0  0  0  0  0  0
  187.7030  172.6630  136.4230 C   0  0  0  0  0  2  0  0  0  0  0  0
  184.5810  174.6370  135.2870 C   0  0  0  0  0  2  0  0  0  0  0  0
  183.9230  174.7770  136.5950 N   0  0  0  0  0  0  0  0  0  0  0  0
  185.5410  173.1580  137.5890 C   0  0  0  0  0  2  0  0  0  0  0  0
  186.0640  174.2730  135.4100 C   0  0  0  0  0  2  0  0  0  0  0  0
  186.2290  173.0030  136.2390 C   0  0  0  0  0  3  0  0  0  0  0  0
  184.0750  173.5500  137.3880 C   0  0  0  0  0  2  0  0  0  0  0  0
  183.9130  177.2110  136.7750 C   0  0  0  0  0  1  0  0  0  0  0  0
  184.4790  175.9150  137.3240 C   0  0  0  0  0  2  0  0  0  0  0  0
  190.3160  176.8800  141.5710 C   0  0  0  0  0  2  0  0  0  0  0  0
  190.3180  178.2060  142.3300 C   0  0  0  0  0  2  0  0  0  0  0  0
  189.4050  178.0890  143.5340 C   0  0  0  0  0  2  0  0  0  0  0  0
  188.0410  177.5450  143.1120 C   0  0  1  0  0  0  0  0  0  0  0  0
  187.1300  177.2090  144.2780 C   0  0  1  0  0  0  0  0  0  0  0  0
  186.9510  178.4490  143.5040 N   0  0  0  0  0  0  0  0  0  0  0  0
  187.8270  176.1060  143.5100 C   0  0  0  0  0  2  0  0  0  0  0  0
  187.7150  177.4690  145.6580 C   0  0  0  0  0  0  0  0  0  0  0  0
  189.4890  177.1520  147.2940 C   0  0  0  0  0  3  0  0  0  0  0  0
  187.4810  178.3560  147.9130 C   0  0  0  0  0  3  0  0  0  0  0  0
  188.7440  177.8580  148.2440 C   0  0  0  0  0  3  0  0  0  0  0  0
  186.9660  178.1570  146.6290 C   0  0  0  0  0  3  0  0  0  0  0  0
  188.9730  176.9530  146.0110 C   0  0  0  0  0  3  0  0  0  0  0  0
  185.8450  178.2290  142.5850 C   0  0  0  0  0  2  0  0  0  0  0  0
  185.2100  179.5400  140.6960 O   0  0  0  0  0  1  0  0  0  0  0  0
  186.2200  178.7170  141.1980 C   0  0  0  0  0  2  0  0  0  0  0  0
  1  2  1  0  0  0  0
  2 28  1  0  0  0  0
  3  1  1  0  0  0  0
  4  2  1  0  0  0  0
  5  6  1  6  0  0  0
  5  4  1  0  0  0  0
  6  3  1  0  0  0  0
  7 11  1  0  0  0  0
  7 10  1  0  0  0  0
  8 17  1  0  0  0  0
  9 13  1  0  0  0  0
  9 12  2  0  0  0  0
 12 14  1  0  0  0  0
 13  7  2  0  0  0  0
 14 10  2  0  0  0  0
 15  8  1  1  0  0  0
 15 12  1  0  0  0  0
 15  5  1  0  0  0  0
 16  8  2  0  0  0  0
 18 16  1  0  0  0  0
 18  9  1  0  0  0  0
 19 17  1  0  0  0  0
 20 23  1  0  0  0  0
 20 21  1  0  0  0  0
 21 27  1  0  0  0  0
 21 25  1  0  0  0  0
 23 24  1  0  0  0  0
 24 19  1  0  0  0  0
 24 22  1  0  0  0  0
 25 22  1  0  0  0  0
 26 27  1  0  0  0  0
 28 29  1  0  0  0  0
 29 30  1  0  0  0  0
 31 33  1  0  0  0  0
 31 34  1  0  0  0  0
 31 30  1  1  0  0  0
 31 32  1  0  0  0  0
 32 35  1  1  0  0  0
 33 32  1  0  0  0  0
 34 32  1  0  0  0  0
 35 40  2  0  0  0  0
 35 39  1  0  0  0  0
 36 38  2  0  0  0  0
 37 38  1  0  0  0  0
 39 37  2  0  0  0  0
 40 36  1  0  0  0  0
 41 33  1  0  0  0  0
 42 43  1  0  0  0  0
 43 41  1  0  0  0  0
M  END
>  <MODEL>
3

>  <REMARK>
 VINA RESULT:      -7.7      2.121      8.382
  Name = 
  11 active torsions:
  status: ('A' for Active; 'I' for Inactive)
    1  A    between atoms: C_1  and  N_34
    2  A    between atoms: C_1  and  C_35
    3  A    between atoms: C_3  and  C_4
    4  A    between atoms: C_3  and  C_12
    5  A    between atoms: N_6  and  C_17
    6  A    between atoms: C_10  and  N_22
    7  A    between atoms: C_10  and  C_42
    8  A    between atoms: C_11  and  C_14
    9  A    between atoms: C_12  and  C_17
   10  A    between atoms: N_19  and  C_37
   11  A    between atoms: C_27  and  C_30
                            x       y       z     vdW  Elec       q    Type
                         _______ _______ _______ _____ _____    ______ ____

>  <TORSDO>
F 11

$$$$
=
 OpenBabel10272414103D

 43 49  0  0  1  0  0  0  0  0999 V2000
  189.4700  178.5420  138.3250 C   0  0  0  0  0  2  0  0  0  0  0  0
  188.4090  178.5770  139.3350 N   0  0  0  0  0  0  0  0  0  0  0  0
  188.9670  179.1540  137.0200 C   0  0  0  0  0  2  0  0  0  0  0  0
  187.2870  177.7370  138.9090 C   0  0  0  0  0  2  0  0  0  0  0  0
  186.6910  178.2820  137.6100 C   0  0  1  0  0  3  0  0  0  0  0  0
  187.7600  178.3690  136.5160 C   0  0  0  0  0  2  0  0  0  0  0  0
  186.2810  173.3300  136.4330 C   0  0  0  0  0  0  0  0  0  0  0  0
  184.2360  177.6560  138.0760 C   0  0  0  0  0  0  0  0  0  0  0  0
  184.7270  175.0680  137.0400 C   0  0  0  0  0  0  0  0  0  0  0  0
  187.2700  174.2580  136.3300 N   0  0  0  0  0  0  0  0  0  0  0  0
  186.5740  171.8990  136.1550 C   0  0  0  0  0  1  0  0  0  0  0  0
  185.7590  176.0140  136.9480 C   0  0  0  0  0  0  0  0  0  0  0  0
  184.9860  173.7210  136.7760 C   0  0  0  0  0  3  0  0  0  0  0  0
  187.0370  175.5770  136.5700 C   0  0  0  0  0  3  0  0  0  0  0  0
  185.4500  177.4790  137.1750 C   0  0  2  0  0  3  0  0  0  0  0  0
  183.3120  176.7390  138.1260 N   0  0  0  0  0  0  0  0  0  0  0  0
  184.0860  178.8530  138.8450 N   0  0  0  0  0  2  0  0  0  0  0  0
  183.3270  175.5180  137.3170 C   0  0  0  0  0  2  0  0  0  0  0  0
  182.8800  179.1540  139.6070 C   0  0  0  0  0  2  0  0  0  0  0  0
  182.0580  178.5640  143.3360 C   0  0  0  0  0  2  0  0  0  0  0  0
  183.4200  178.6690  143.8800 N   0  0  0  0  0  0  0  0  0  0  0  0
  184.3530  178.6320  141.5660 C   0  0  0  0  0  2  0  0  0  0  0  0
  181.9360  179.1680  141.9340 C   0  0  0  0  0  2  0  0  0  0  0  0
  182.9460  178.5210  140.9920 C   0  0  0  0  0  3  0  0  0  0  0  0
  184.3910  178.0380  142.9760 C   0  0  0  0  0  2  0  0  0  0  0  0
  185.1740  180.1660  144.6760 C   0  0  0  0  0  1  0  0  0  0  0  0
  183.7760  180.0700  144.0950 C   0  0  0  0  0  2  0  0  0  0  0  0
  188.9260  178.0920  140.6190 C   0  0  0  0  0  2  0  0  0  0  0  0
  187.8340  177.8390  141.6580 C   0  0  0  0  0  2  0  0  0  0  0  0
  188.3490  178.2410  143.0260 C   0  0  0  0  0  2  0  0  0  0  0  0
  189.7870  177.7590  143.2120 C   0  0  1  0  0  0  0  0  0  0  0  0
  190.1380  177.4260  144.6500 C   0  0  1  0  0  0  0  0  0  0  0  0
  189.8360  176.3650  143.6750 N   0  0  0  0  0  0  0  0  0  0  0  0
  190.6320  178.7110  144.0190 C   0  0  0  0  0  2  0  0  0  0  0  0
  189.0150  177.6220  145.6570 C   0  0  0  0  0  0  0  0  0  0  0  0
  188.2670  178.1700  147.9080 C   0  0  0  0  0  3  0  0  0  0  0  0
  186.6600  177.4410  146.2500 C   0  0  0  0  0  3  0  0  0  0  0  0
  186.9490  177.8770  147.5460 C   0  0  0  0  0  3  0  0  0  0  0  0
  187.6880  177.3070  145.3130 C   0  0  0  0  0  3  0  0  0  0  0  0
  189.2950  178.0360  146.9700 C   0  0  0  0  0  3  0  0  0  0  0  0
  191.1060  175.8030  143.2420 C   0  0  0  0  0  2  0  0  0  0  0  0
  192.3430  174.1760  144.4730 O   0  0  0  0  0  1  0  0  0  0  0  0
  191.9870  175.5260  144.4460 C   0  0  0  0  0  2  0  0  0  0  0  0
  1  2  1  0  0  0  0
  2 28  1  0  0  0  0
  3  1  1  0  0  0  0
  4  2  1  0  0  0  0
  5  6  1  6  0  0  0
  5  4  1  0  0  0  0
  6  3  1  0  0  0  0
  7 13  1  0  0  0  0
  8 16  2  0  0  0  0
  8 17  1  0  0  0  0
  9 18  1  0  0  0  0
 10  7  2  0  0  0  0
 10 14  1  0  0  0  0
 11  7  1  0  0  0  0
 12  9  1  0  0  0  0
 13  9  2  0  0  0  0
 14 12  2  0  0  0  0
 15 12  1  1  0  0  0
 15  5  1  0  0  0  0
 15  8  1  0  0  0  0
 17 19  1  0  0  0  0
 18 16  1  0  0  0  0
 19 24  1  0  0  0  0
 20 21  1  0  0  0  0
 21 27  1  0  0  0  0
 22 25  1  0  0  0  0
 23 20  1  0  0  0  0
 24 22  1  0  0  0  0
 24 23  1  0  0  0  0
 25 21  1  0  0  0  0
 27 26  1  0  0  0  0
 28 29  1  0  0  0  0
 29 30  1  0  0  0  0
 31 30  1  6  0  0  0
 31 33  1  0  0  0  0
 31 34  1  0  0  0  0
 31 32  1  0  0  0  0
 32 35  1  1  0  0  0
 33 32  1  0  0  0  0
 34 32  1  0  0  0  0
 35 40  1  0  0  0  0
 37 38  2  0  0  0  0
 38 36  1  0  0  0  0
 39 35  2  0  0  0  0
 39 37  1  0  0  0  0
 40 36  2  0  0  0  0
 41 33  1  0  0  0  0
 41 43  1  0  0  0  0
 43 42  1  0  0  0  0
M  END
>  <MODEL>
4

>  <REMARK>
 VINA RESULT:      -7.6      2.743      8.225
  Name = 
  11 active torsions:
  status: ('A' for Active; 'I' for Inactive)
    1  A    between atoms: C_1  and  N_34
    2  A    between atoms: C_1  and  C_35
    3  A    between atoms: C_3  and  C_4
    4  A    between atoms: C_3  and  C_12
    5  A    between atoms: N_6  and  C_17
    6  A    between atoms: C_10  and  N_22
    7  A    between atoms: C_10  and  C_42
    8  A    between atoms: C_11  and  C_14
    9  A    between atoms: C_12  and  C_17
   10  A    between atoms: N_19  and  C_37
   11  A    between atoms: C_27  and  C_30
                            x       y       z     vdW  Elec       q    Type
                         _______ _______ _______ _____ _____    ______ ____

>  <TORSDO>
F 11

$$$$
=
 OpenBabel10272414103D

 43 49  0  0  1  0  0  0  0  0999 V2000
  189.3240  176.9610  142.4640 C   0  0  0  0  0  2  0  0  0  0  0  0
  188.5540  177.5280  141.3530 N   0  0  0  0  0  0  0  0  0  0  0  0
  188.4040  176.1520  143.3750 C   0  0  0  0  0  2  0  0  0  0  0  0
  187.5650  178.4790  141.8650 C   0  0  0  0  0  2  0  0  0  0  0  0
  186.5730  177.7590  142.7800 C   0  0  1  0  0  3  0  0  0  0  0  0
  187.3050  177.0540  143.9270 C   0  0  0  0  0  2  0  0  0  0  0  0
  181.7790  178.2820  141.0980 C   0  0  0  0  0  0  0  0  0  0  0  0
  185.2320  178.6870  144.7740 C   0  0  0  0  0  0  0  0  0  0  0  0
  182.9540  178.9030  143.1070 C   0  0  0  0  0  0  0  0  0  0  0  0
  182.9610  177.9310  140.5230 N   0  0  0  0  0  0  0  0  0  0  0  0
  180.5130  178.1510  140.3310 C   0  0  0  0  0  1  0  0  0  0  0  0
  184.1650  178.5200  142.5110 C   0  0  0  0  0  0  0  0  0  0  0  0
  181.7570  178.7900  142.3980 C   0  0  0  0  0  3  0  0  0  0  0  0
  184.1410  178.0450  141.1910 C   0  0  0  0  0  3  0  0  0  0  0  0
  185.4620  178.7080  143.2690 C   0  0  2  0  0  3  0  0  0  0  0  0
  184.0820  179.0470  145.2710 N   0  0  0  0  0  0  0  0  0  0  0  0
  186.2950  178.3070  145.6540 N   0  0  0  0  0  2  0  0  0  0  0  0
  182.9600  179.5320  144.4650 C   0  0  0  0  0  2  0  0  0  0  0  0
  186.1920  178.4120  147.1040 C   0  0  0  0  0  2  0  0  0  0  0  0
  189.8280  178.4300  148.4130 C   0  0  0  0  0  2  0  0  0  0  0  0
  190.3140  177.2230  147.7260 N   0  0  0  0  0  0  0  0  0  0  0  0
  187.9770  176.6530  147.0620 C   0  0  0  0  0  2  0  0  0  0  0  0
  188.5390  178.9790  147.7950 C   0  0  0  0  0  2  0  0  0  0  0  0
  187.4630  177.8990  147.7720 C   0  0  0  0  0  3  0  0  0  0  0  0
  189.2800  176.1810  147.7120 C   0  0  0  0  0  2  0  0  0  0  0  0
  191.5900  176.4350  145.8010 C   0  0  0  0  0  1  0  0  0  0  0  0
  190.7170  177.5440  146.3580 C   0  0  0  0  0  2  0  0  0  0  0  0
  189.4560  178.2110  140.4190 C   0  0  0  0  0  2  0  0  0  0  0  0
  188.8500  178.4190  139.0320 C   0  0  0  0  0  2  0  0  0  0  0  0
  188.2550  177.1110  138.5490 C   0  0  0  0  0  2  0  0  0  0  0  0
  187.4600  177.3340  137.2640 C   0  0  1  0  0  0  0  0  0  0  0  0
  187.9990  176.5660  136.0720 C   0  0  1  0  0  0  0  0  0  0  0  0
  186.8120  176.0980  136.8050 N   0  0  0  0  0  0  0  0  0  0  0  0
  188.2460  178.0550  136.1980 C   0  0  0  0  0  2  0  0  0  0  0  0
  189.2240  175.7080  136.3480 C   0  0  0  0  0  0  0  0  0  0  0  0
  191.6420  175.4240  136.3760 C   0  0  0  0  0  3  0  0  0  0  0  0
  190.2040  173.5530  136.9160 C   0  0  0  0  0  3  0  0  0  0  0  0
  191.4850  174.0880  136.7550 C   0  0  0  0  0  3  0  0  0  0  0  0
  189.0800  174.3570  136.7070 C   0  0  0  0  0  3  0  0  0  0  0  0
  190.5180  176.2280  136.1670 C   0  0  0  0  0  3  0  0  0  0  0  0
  185.6450  176.4770  136.0250 C   0  0  0  0  0  2  0  0  0  0  0  0
  184.1010  176.1760  137.8180 O   0  0  0  0  0  1  0  0  0  0  0  0
  184.6070  177.1220  136.9260 C   0  0  0  0  0  2  0  0  0  0  0  0
  1  3  1  0  0  0  0
  2  4  1  0  0  0  0
  2  1  1  0  0  0  0
  3  6  1  0  0  0  0
  5  4  1  1  0  0  0
  5 15  1  0  0  0  0
  5  6  1  0  0  0  0
  7 13  1  0  0  0  0
  8 16  2  0  0  0  0
  8 17  1  0  0  0  0
  9 18  1  0  0  0  0
 10  7  2  0  0  0  0
 10 14  1  0  0  0  0
 11  7  1  0  0  0  0
 12  9  1  0  0  0  0
 13  9  2  0  0  0  0
 14 12  2  0  0  0  0
 15 12  1  6  0  0  0
 15  8  1  0  0  0  0
 17 19  1  0  0  0  0
 18 16  1  0  0  0  0
 19 24  1  0  0  0  0
 21 20  1  0  0  0  0
 22 25  1  0  0  0  0
 22 24  1  0  0  0  0
 23 20  1  0  0  0  0
 24 23  1  0  0  0  0
 25 21  1  0  0  0  0
 26 27  1  0  0  0  0
 27 21  1  0  0  0  0
 28  2  1  0  0  0  0
 29 28  1  0  0  0  0
 30 29  1  0  0  0  0
 31 30  1  1  0  0  0
 32 34  1  0  0  0  0
 32 35  1  1  0  0  0
 32 33  1  0  0  0  0
 32 31  1  0  0  0  0
 33 31  1  0  0  0  0
 34 31  1  0  0  0  0
 35 39  1  0  0  0  0
 36 38  2  0  0  0  0
 38 37  1  0  0  0  0
 39 37  2  0  0  0  0
 40 35  2  0  0  0  0
 40 36  1  0  0  0  0
 41 33  1  0  0  0  0
 41 43  1  0  0  0  0
 43 42  1  0  0  0  0
M  END
>  <MODEL>
5

>  <REMARK>
 VINA RESULT:      -7.6      1.714      6.090
  Name = 
  11 active torsions:
  status: ('A' for Active; 'I' for Inactive)
    1  A    between atoms: C_1  and  N_34
    2  A    between atoms: C_1  and  C_35
    3  A    between atoms: C_3  and  C_4
    4  A    between atoms: C_3  and  C_12
    5  A    between atoms: N_6  and  C_17
    6  A    between atoms: C_10  and  N_22
    7  A    between atoms: C_10  and  C_42
    8  A    between atoms: C_11  and  C_14
    9  A    between atoms: C_12  and  C_17
   10  A    between atoms: N_19  and  C_37
   11  A    between atoms: C_27  and  C_30
                            x       y       z     vdW  Elec       q    Type
                         _______ _______ _______ _____ _____    ______ ____

>  <TORSDO>
F 11

$$$$
=
 OpenBabel10272414103D

 43 49  0  0  1  0  0  0  0  0999 V2000
  189.7990  177.7470  139.0970 C   0  0  0  0  0  2  0  0  0  0  0  0
  190.6870  177.6420  140.2580 N   0  0  0  0  0  0  0  0  0  0  0  0
  188.6240  178.6660  139.4220 C   0  0  0  0  0  2  0  0  0  0  0  0
  189.9800  177.0040  141.3700 C   0  0  0  0  0  2  0  0  0  0  0  0
  188.7870  177.8630  141.7920 C   0  0  1  0  0  3  0  0  0  0  0  0
  187.8460  178.1040  140.6080 C   0  0  0  0  0  2  0  0  0  0  0  0
  190.5820  176.9820  146.4910 C   0  0  0  0  0  0  0  0  0  0  0  0
  186.7340  177.9270  143.3470 C   0  0  0  0  0  0  0  0  0  0  0  0
  188.3880  177.1780  145.5190 C   0  0  0  0  0  0  0  0  0  0  0  0
  191.1290  176.9920  145.2450 N   0  0  0  0  0  0  0  0  0  0  0  0
  191.4590  176.8610  147.6850 C   0  0  0  0  0  1  0  0  0  0  0  0
  188.9630  177.2060  144.2400 C   0  0  0  0  0  0  0  0  0  0  0  0
  189.1980  177.0600  146.6490 C   0  0  0  0  0  3  0  0  0  0  0  0
  190.3570  177.0930  144.1290 C   0  0  0  0  0  3  0  0  0  0  0  0
  188.0690  177.2710  143.0200 C   0  0  2  0  0  3  0  0  0  0  0  0
  186.2510  177.8750  144.5560 N   0  0  0  0  0  0  0  0  0  0  0  0
  185.9830  178.5710  142.3130 N   0  0  0  0  0  2  0  0  0  0  0  0
  186.8980  177.1690  145.6640 C   0  0  0  0  0  2  0  0  0  0  0  0
  184.6340  179.0820  142.5220 C   0  0  0  0  0  2  0  0  0  0  0  0
  182.9400  177.6390  139.3620 C   0  0  0  0  0  2  0  0  0  0  0  0
  181.5820  178.1560  139.5850 N   0  0  0  0  0  0  0  0  0  0  0  0
  182.2180  178.8410  141.8990 C   0  0  0  0  0  2  0  0  0  0  0  0
  183.9940  178.3690  140.2000 C   0  0  0  0  0  2  0  0  0  0  0  0
  183.6270  178.3060  141.6790 C   0  0  0  0  0  3  0  0  0  0  0  0
  181.2270  178.0870  141.0090 C   0  0  0  0  0  2  0  0  0  0  0  0
  181.5710  179.5730  137.5990 C   0  0  0  0  0  1  0  0  0  0  0  0
  181.4780  179.5350  139.1120 C   0  0  0  0  0  2  0  0  0  0  0  0
  191.8720  176.8500  139.9090 C   0  0  0  0  0  2  0  0  0  0  0  0
  192.0240  176.6120  138.4080 C   0  0  0  0  0  2  0  0  0  0  0  0
  191.3770  175.2900  138.0470 C   0  0  0  0  0  2  0  0  0  0  0  0
  191.9060  174.7910  136.7040 C   0  0  1  0  0  0  0  0  0  0  0  0
  190.9370  174.9920  135.5540 C   0  0  1  0  0  0  0  0  0  0  0  0
  192.0840  175.8940  135.7480 N   0  0  0  0  0  0  0  0  0  0  0  0
  191.1320  173.6180  136.1590 C   0  0  0  0  0  2  0  0  0  0  0  0
  189.6160  175.6510  135.9220 C   0  0  0  0  0  0  0  0  0  0  0  0
  187.3840  175.5150  136.8830 C   0  0  0  0  0  3  0  0  0  0  0  0
  188.1140  177.5640  135.8200 C   0  0  0  0  0  3  0  0  0  0  0  0
  187.1350  176.8380  136.5040 C   0  0  0  0  0  3  0  0  0  0  0  0
  189.3450  176.9720  135.5240 C   0  0  0  0  0  3  0  0  0  0  0  0
  188.6150  174.9230  136.5880 C   0  0  0  0  0  3  0  0  0  0  0  0
  193.1140  175.4930  134.8020 C   0  0  0  0  0  2  0  0  0  0  0  0
  194.6060  176.9130  136.0060 O   0  0  0  0  0  1  0  0  0  0  0  0
  194.4850  175.6450  135.4340 C   0  0  0  0  0  2  0  0  0  0  0  0
  1  3  1  0  0  0  0
  1  2  1  0  0  0  0
  2  4  1  0  0  0  0
  3  6  1  0  0  0  0
  4  5  1  0  0  0  0
  5  6  1  6  0  0  0
  5 15  1  0  0  0  0
  7 13  1  0  0  0  0
  7 11  1  0  0  0  0
  8 16  2  0  0  0  0
  9 18  1  0  0  0  0
  9 13  2  0  0  0  0
 10  7  2  0  0  0  0
 12  9  1  0  0  0  0
 14 12  2  0  0  0  0
 14 10  1  0  0  0  0
 15  8  1  1  0  0  0
 15 12  1  0  0  0  0
 16 18  1  0  0  0  0
 17 19  1  0  0  0  0
 17  8  1  0  0  0  0
 20 21  1  0  0  0  0
 20 23  1  0  0  0  0
 21 25  1  0  0  0  0
 23 24  1  0  0  0  0
 24 22  1  0  0  0  0
 24 19  1  0  0  0  0
 25 22  1  0  0  0  0
 26 27  1  0  0  0  0
 27 21  1  0  0  0  0
 28  2  1  0  0  0  0
 29 28  1  0  0  0  0
 30 29  1  0  0  0  0
 31 30  1  1  0  0  0
 32 33  1  0  0  0  0
 32 35  1  1  0  0  0
 32 34  1  0  0  0  0
 32 31  1  0  0  0  0
 33 31  1  0  0  0  0
 34 31  1  0  0  0  0
 35 40  1  0  0  0  0
 37 38  2  0  0  0  0
 38 36  1  0  0  0  0
 39 37  1  0  0  0  0
 39 35  2  0  0  0  0
 40 36  2  0  0  0  0
 41 43  1  0  0  0  0
 41 33  1  0  0  0  0
 43 42  1  0  0  0  0
M  END
>  <MODEL>
6

>  <REMARK>
 VINA RESULT:      -7.6      2.206      3.620
  Name = 
  11 active torsions:
  status: ('A' for Active; 'I' for Inactive)
    1  A    between atoms: C_1  and  N_34
    2  A    between atoms: C_1  and  C_35
    3  A    between atoms: C_3  and  C_4
    4  A    between atoms: C_3  and  C_12
    5  A    between atoms: N_6  and  C_17
    6  A    between atoms: C_10  and  N_22
    7  A    between atoms: C_10  and  C_42
    8  A    between atoms: C_11  and  C_14
    9  A    between atoms: C_12  and  C_17
   10  A    between atoms: N_19  and  C_37
   11  A    between atoms: C_27  and  C_30
                            x       y       z     vdW  Elec       q    Type
                         _______ _______ _______ _____ _____    ______ ____

>  <TORSDO>
F 11

$$$$
=
 OpenBabel10272414103D

 43 49  0  0  1  0  0  0  0  0999 V2000
  189.3470  177.4430  140.7920 C   0  0  0  0  0  2  0  0  0  0  0  0
  188.1620  177.9870  140.1230 N   0  0  0  0  0  0  0  0  0  0  0  0
  188.9240  176.4850  141.9030 C   0  0  0  0  0  2  0  0  0  0  0  0
  187.3830  178.7920  141.0660 C   0  0  0  0  0  2  0  0  0  0  0  0
  186.8870  177.9140  142.2170 C   0  0  1  0  0  3  0  0  0  0  0  0
  188.0620  177.2270  142.9200 C   0  0  0  0  0  2  0  0  0  0  0  0
  181.8200  178.5480  142.1500 C   0  0  0  0  0  0  0  0  0  0  0  0
  186.2110  178.3870  144.6570 C   0  0  0  0  0  0  0  0  0  0  0  0
  183.5460  178.8220  143.8070 C   0  0  0  0  0  0  0  0  0  0  0  0
  182.7730  178.3620  141.1970 N   0  0  0  0  0  0  0  0  0  0  0  0
  180.3810  178.5110  141.7780 C   0  0  0  0  0  1  0  0  0  0  0  0
  184.5200  178.6110  142.8190 C   0  0  0  0  0  0  0  0  0  0  0  0
  182.1910  178.7970  143.4720 C   0  0  0  0  0  3  0  0  0  0  0  0
  184.0990  178.3960  141.4990 C   0  0  0  0  0  3  0  0  0  0  0  0
  185.9860  178.7050  143.1850 C   0  0  2  0  0  3  0  0  0  0  0  0
  185.2660  178.5980  145.5290 N   0  0  0  0  0  0  0  0  0  0  0  0
  187.4810  177.8920  145.0950 N   0  0  0  0  0  2  0  0  0  0  0  0
  183.9640  179.1800  145.1990 C   0  0  0  0  0  2  0  0  0  0  0  0
  187.8130  177.7140  146.5030 C   0  0  0  0  0  2  0  0  0  0  0  0
  191.5650  177.7850  145.5800 C   0  0  0  0  0  2  0  0  0  0  0  0
  191.9860  176.5620  146.2800 N   0  0  0  0  0  0  0  0  0  0  0  0
  189.7700  176.4460  147.4220 C   0  0  0  0  0  2  0  0  0  0  0  0
  190.0500  177.8500  145.3690 C   0  0  0  0  0  2  0  0  0  0  0  0
  189.3250  177.7130  146.7030 C   0  0  0  0  0  3  0  0  0  0  0  0
  191.2940  176.4370  147.5700 C   0  0  0  0  0  2  0  0  0  0  0  0
  191.9860  175.7050  143.9960 C   0  0  0  0  0  1  0  0  0  0  0  0
  191.7200  175.3860  145.4550 C   0  0  0  0  0  2  0  0  0  0  0  0
  188.5700  178.8190  138.9860 C   0  0  0  0  0  2  0  0  0  0  0  0
  189.1350  178.0150  137.8160 C   0  0  0  0  0  2  0  0  0  0  0  0
  188.1670  176.9020  137.4650 C   0  0  0  0  0  2  0  0  0  0  0  0
  186.8440  177.4890  136.9760 C   0  0  1  0  0  0  0  0  0  0  0  0
  185.8990  176.4570  136.3900 C   0  0  1  0  0  0  0  0  0  0  0  0
  185.7050  176.9790  137.7520 N   0  0  0  0  0  0  0  0  0  0  0  0
  186.6690  177.3920  135.4820 C   0  0  0  0  0  2  0  0  0  0  0  0
  186.4150  175.0260  136.3880 C   0  0  0  0  0  0  0  0  0  0  0  0
  187.7740  173.2720  135.3870 C   0  0  0  0  0  3  0  0  0  0  0  0
  186.3510  172.7610  137.2780 C   0  0  0  0  0  3  0  0  0  0  0  0
  187.2850  172.3540  136.3210 C   0  0  0  0  0  3  0  0  0  0  0  0
  185.9130  174.0880  137.3070 C   0  0  0  0  0  3  0  0  0  0  0  0
  187.3360  174.5980  135.4160 C   0  0  0  0  0  3  0  0  0  0  0  0
  184.6470  177.9760  137.6860 C   0  0  0  0  0  2  0  0  0  0  0  0
  183.3540  176.1980  138.6130 O   0  0  0  0  0  1  0  0  0  0  0  0
  183.2910  177.2970  137.7550 C   0  0  0  0  0  2  0  0  0  0  0  0
  1  3  1  0  0  0  0
  2  1  1  0  0  0  0
  2  4  1  0  0  0  0
  3  6  1  0  0  0  0
  5  4  1  6  0  0  0
  5  6  1  0  0  0  0
  5 15  1  0  0  0  0
  7 13  1  0  0  0  0
  8 17  1  0  0  0  0
  8 16  2  0  0  0  0
  9 18  1  0  0  0  0
 10 14  1  0  0  0  0
 10  7  2  0  0  0  0
 11  7  1  0  0  0  0
 12  9  1  0  0  0  0
 13  9  2  0  0  0  0
 14 12  2  0  0  0  0
 15 12  1  6  0  0  0
 15  8  1  0  0  0  0
 17 19  1  0  0  0  0
 18 16  1  0  0  0  0
 19 24  1  0  0  0  0
 20 21  1  0  0  0  0
 21 25  1  0  0  0  0
 22 25  1  0  0  0  0
 23 20  1  0  0  0  0
 23 24  1  0  0  0  0
 24 22  1  0  0  0  0
 26 27  1  0  0  0  0
 27 21  1  0  0  0  0
 28  2  1  0  0  0  0
 29 28  1  0  0  0  0
 30 29  1  0  0  0  0
 31 30  1  1  0  0  0
 31 33  1  0  0  0  0
 32 35  1  1  0  0  0
 32 31  1  0  0  0  0
 32 33  1  0  0  0  0
 34 32  1  0  0  0  0
 34 31  1  0  0  0  0
 35 39  1  0  0  0  0
 36 40  1  0  0  0  0
 36 38  2  0  0  0  0
 37 39  2  0  0  0  0
 38 37  1  0  0  0  0
 40 35  2  0  0  0  0
 41 33  1  0  0  0  0
 41 43  1  0  0  0  0
 43 42  1  0  0  0  0
M  END
>  <MODEL>
7

>  <REMARK>
 VINA RESULT:      -7.5      2.289      6.209
  Name = 
  11 active torsions:
  status: ('A' for Active; 'I' for Inactive)
    1  A    between atoms: C_1  and  N_34
    2  A    between atoms: C_1  and  C_35
    3  A    between atoms: C_3  and  C_4
    4  A    between atoms: C_3  and  C_12
    5  A    between atoms: N_6  and  C_17
    6  A    between atoms: C_10  and  N_22
    7  A    between atoms: C_10  and  C_42
    8  A    between atoms: C_11  and  C_14
    9  A    between atoms: C_12  and  C_17
   10  A    between atoms: N_19  and  C_37
   11  A    between atoms: C_27  and  C_30
                            x       y       z     vdW  Elec       q    Type
                         _______ _______ _______ _____ _____    ______ ____

>  <TORSDO>
F 11

$$$$
=
 OpenBabel10272414103D

 43 49  0  0  1  0  0  0  0  0999 V2000
  189.6270  178.3140  139.9160 C   0  0  0  0  0  2  0  0  0  0  0  0
  189.7960  176.9200  140.3340 N   0  0  0  0  0  0  0  0  0  0  0  0
  188.7130  178.3850  138.6950 C   0  0  0  0  0  2  0  0  0  0  0  0
  190.4790  176.1630  139.2830 C   0  0  0  0  0  2  0  0  0  0  0  0
  189.6280  176.1520  138.0110 C   0  0  1  0  0  3  0  0  0  0  0  0
  189.3220  177.5810  137.5500 C   0  0  0  0  0  2  0  0  0  0  0  0
  194.5130  174.8050  137.3760 C   0  0  0  0  0  0  0  0  0  0  0  0
  189.5770  173.9560  136.6660 C   0  0  0  0  0  0  0  0  0  0  0  0
  192.4040  174.0000  136.5360 C   0  0  0  0  0  0  0  0  0  0  0  0
  193.8810  175.8840  137.9120 N   0  0  0  0  0  0  0  0  0  0  0  0
  195.9840  174.6560  137.5260 C   0  0  0  0  0  1  0  0  0  0  0  0
  191.7600  175.1070  137.1090 C   0  0  0  0  0  0  0  0  0  0  0  0
  193.7860  173.8490  136.6640 C   0  0  0  0  0  3  0  0  0  0  0  0
  192.5370  176.0570  137.7880 C   0  0  0  0  0  3  0  0  0  0  0  0
  190.2700  175.2900  136.9080 C   0  0  2  0  0  3  0  0  0  0  0  0
  190.2280  172.9590  136.1370 N   0  0  0  0  0  0  0  0  0  0  0  0
  188.1890  173.8050  136.9830 N   0  0  0  0  0  2  0  0  0  0  0  0
  191.6230  173.0360  135.6990 C   0  0  0  0  0  2  0  0  0  0  0  0
  187.4270  172.6120  136.6370 C   0  0  0  0  0  2  0  0  0  0  0  0
  184.4770  174.7380  135.3290 C   0  0  0  0  0  2  0  0  0  0  0  0
  183.6130  174.6670  136.5170 N   0  0  0  0  0  0  0  0  0  0  0  0
  185.0930  172.9120  137.4960 C   0  0  0  0  0  2  0  0  0  0  0  0
  185.9300  174.3610  135.6350 C   0  0  0  0  0  2  0  0  0  0  0  0
  185.9930  172.9760  136.2690 C   0  0  0  0  0  3  0  0  0  0  0  0
  183.6680  173.3300  137.1210 C   0  0  0  0  0  2  0  0  0  0  0  0
  182.9820  175.7540  138.6080 C   0  0  0  0  0  1  0  0  0  0  0  0
  184.0120  175.6740  137.4980 C   0  0  0  0  0  2  0  0  0  0  0  0
  190.5810  176.8620  141.5710 C   0  0  0  0  0  2  0  0  0  0  0  0
  190.1020  175.7870  142.5460 C   0  0  0  0  0  2  0  0  0  0  0  0
  189.3240  176.4470  143.6680 C   0  0  0  0  0  2  0  0  0  0  0  0
  190.2770  177.1720  144.6170 C   0  0  1  0  0  0  0  0  0  0  0  0
  189.5730  178.0150  145.6630 C   0  0  1  0  0  0  0  0  0  0  0  0
  190.1320  176.6960  145.9990 N   0  0  0  0  0  0  0  0  0  0  0  0
  190.2340  178.6720  144.4690 C   0  0  0  0  0  2  0  0  0  0  0  0
  188.0530  177.9990  145.5980 C   0  0  0  0  0  0  0  0  0  0  0  0
  185.9930  178.0750  144.3040 C   0  0  0  0  0  3  0  0  0  0  0  0
  185.8940  178.0580  146.7230 C   0  0  0  0  0  3  0  0  0  0  0  0
  185.2450  178.0780  145.4850 C   0  0  0  0  0  3  0  0  0  0  0  0
  187.2910  178.0260  146.7790 C   0  0  0  0  0  3  0  0  0  0  0  0
  187.3890  178.0430  144.3600 C   0  0  0  0  0  3  0  0  0  0  0  0
  191.3980  176.9250  146.6780 C   0  0  0  0  0  2  0  0  0  0  0  0
  192.7310  175.6850  148.2200 O   0  0  0  0  0  1  0  0  0  0  0  0
  192.0600  175.5970  146.9990 C   0  0  0  0  0  2  0  0  0  0  0  0
  1  2  1  0  0  0  0
  2 28  1  0  0  0  0
  3  1  1  0  0  0  0
  4  2  1  0  0  0  0
  5  6  1  6  0  0  0
  5  4  1  0  0  0  0
  6  3  1  0  0  0  0
  7 11  1  0  0  0  0
  7 10  1  0  0  0  0
  8 17  1  0  0  0  0
  9 13  1  0  0  0  0
  9 12  2  0  0  0  0
 12 14  1  0  0  0  0
 13  7  2  0  0  0  0
 14 10  2  0  0  0  0
 15  8  1  1  0  0  0
 15 12  1  0  0  0  0
 15  5  1  0  0  0  0
 16  8  2  0  0  0  0
 18 16  1  0  0  0  0
 18  9  1  0  0  0  0
 19 17  1  0  0  0  0
 20 23  1  0  0  0  0
 20 21  1  0  0  0  0
 21 25  1  0  0  0  0
 21 27  1  0  0  0  0
 23 24  1  0  0  0  0
 24 19  1  0  0  0  0
 24 22  1  0  0  0  0
 25 22  1  0  0  0  0
 27 26  1  0  0  0  0
 28 29  1  0  0  0  0
 29 30  1  0  0  0  0
 31 30  1  6  0  0  0
 31 32  1  0  0  0  0
 31 33  1  0  0  0  0
 32 35  1  6  0  0  0
 32 33  1  0  0  0  0
 33 41  1  0  0  0  0
 34 31  1  0  0  0  0
 34 32  1  0  0  0  0
 35 39  1  0  0  0  0
 36 40  1  0  0  0  0
 36 38  2  0  0  0  0
 37 39  2  0  0  0  0
 38 37  1  0  0  0  0
 40 35  2  0  0  0  0
 41 43  1  0  0  0  0
 43 42  1  0  0  0  0
M  END
>  <MODEL>
8

>  <REMARK>
 VINA RESULT:      -7.5      2.875      8.840
  Name = 
  11 active torsions:
  status: ('A' for Active; 'I' for Inactive)
    1  A    between atoms: C_1  and  N_34
    2  A    between atoms: C_1  and  C_35
    3  A    between atoms: C_3  and  C_4
    4  A    between atoms: C_3  and  C_12
    5  A    between atoms: N_6  and  C_17
    6  A    between atoms: C_10  and  N_22
    7  A    between atoms: C_10  and  C_42
    8  A    between atoms: C_11  and  C_14
    9  A    between atoms: C_12  and  C_17
   10  A    between atoms: N_19  and  C_37
   11  A    between atoms: C_27  and  C_30
                            x       y       z     vdW  Elec       q    Type
                         _______ _______ _______ _____ _____    ______ ____

>  <TORSDO>
F 11

$$$$
=
 OpenBabel10272414103D

 43 49  0  0  1  0  0  0  0  0999 V2000
  188.3900  178.3770  139.6310 C   0  0  0  0  0  2  0  0  0  0  0  0
  186.9850  178.0140  139.4240 N   0  0  0  0  0  0  0  0  0  0  0  0
  188.8590  177.8860  140.9980 C   0  0  0  0  0  2  0  0  0  0  0  0
  186.1430  178.7040  140.4040 C   0  0  0  0  0  2  0  0  0  0  0  0
  186.5190  178.2610  141.8200 C   0  0  1  0  0  3  0  0  0  0  0  0
  188.0050  178.5190  142.0920 C   0  0  0  0  0  2  0  0  0  0  0  0
  181.4290  178.6660  141.8570 C   0  0  0  0  0  0  0  0  0  0  0  0
  185.8510  178.4260  144.3010 C   0  0  0  0  0  0  0  0  0  0  0  0
  183.1600  178.8320  143.5230 C   0  0  0  0  0  0  0  0  0  0  0  0
  182.3780  178.6320  140.8830 N   0  0  0  0  0  0  0  0  0  0  0  0
  179.9890  178.6060  141.4920 C   0  0  0  0  0  1  0  0  0  0  0  0
  184.1310  178.7770  142.5120 C   0  0  0  0  0  0  0  0  0  0  0  0
  181.8040  178.7820  143.1960 C   0  0  0  0  0  3  0  0  0  0  0  0
  183.7050  178.6920  141.1780 C   0  0  0  0  0  3  0  0  0  0  0  0
  185.5960  178.8960  142.8760 C   0  0  2  0  0  3  0  0  0  0  0  0
  184.9080  178.4940  145.1980 N   0  0  0  0  0  0  0  0  0  0  0  0
  187.1460  177.9440  144.6730 N   0  0  0  0  0  2  0  0  0  0  0  0
  183.5770  179.0500  144.9440 C   0  0  0  0  0  2  0  0  0  0  0  0
  187.5020  177.6240  146.0500 C   0  0  0  0  0  2  0  0  0  0  0  0
  191.2500  177.9910  145.1830 C   0  0  0  0  0  2  0  0  0  0  0  0
  191.7740  176.8900  146.0050 N   0  0  0  0  0  0  0  0  0  0  0  0
  189.5530  176.6560  147.1180 C   0  0  0  0  0  2  0  0  0  0  0  0
  189.7420  177.8800  144.9420 C   0  0  0  0  0  2  0  0  0  0  0  0
  189.0010  177.7970  146.2730 C   0  0  0  0  0  3  0  0  0  0  0  0
  191.0660  176.8170  147.2890 C   0  0  0  0  0  2  0  0  0  0  0  0
  191.7040  175.8550  143.7960 C   0  0  0  0  0  1  0  0  0  0  0  0
  191.6490  175.6190  145.2930 C   0  0  0  0  0  2  0  0  0  0  0  0
  186.5670  178.3870  138.0690 C   0  0  0  0  0  2  0  0  0  0  0  0
  185.0520  178.3630  137.8710 C   0  0  0  0  0  2  0  0  0  0  0  0
  184.6850  177.1770  137.0010 C   0  0  0  0  0  2  0  0  0  0  0  0
  183.1940  177.2070  136.6690 C   0  0  1  0  0  0  0  0  0  0  0  0
  182.6110  175.8420  136.3540 C   0  0  1  0  0  0  0  0  0  0  0  0
  182.4010  176.4740  137.6660 N   0  0  0  0  0  0  0  0  0  0  0  0
  182.8970  176.8280  135.2400 C   0  0  0  0  0  2  0  0  0  0  0  0
  183.5930  174.6820  136.4220 C   0  0  0  0  0  0  0  0  0  0  0  0
  184.9100  172.9610  135.3130 C   0  0  0  0  0  3  0  0  0  0  0  0
  184.8620  173.0680  137.7310 C   0  0  0  0  0  3  0  0  0  0  0  0
  185.3230  172.4700  136.5550 C   0  0  0  0  0  3  0  0  0  0  0  0
  183.9960  174.1640  137.6650 C   0  0  0  0  0  3  0  0  0  0  0  0
  184.0450  174.0560  135.2470 C   0  0  0  0  0  3  0  0  0  0  0  0
  181.0610  177.0390  137.6640 C   0  0  0  0  0  2  0  0  0  0  0  0
  180.9410  175.4060  139.3980 O   0  0  0  0  0  1  0  0  0  0  0  0
  180.1670  176.2560  138.6070 C   0  0  0  0  0  2  0  0  0  0  0  0
  1  3  1  0  0  0  0
  2  1  1  0  0  0  0
  2  4  1  0  0  0  0
  3  6  1  0  0  0  0
  5  4  1  6  0  0  0
  5  6  1  0  0  0  0
  5 15  1  0  0  0  0
  7 13  1  0  0  0  0
  8 17  1  0  0  0  0
  8 16  2  0  0  0  0
  9 18  1  0  0  0  0
 10 14  1  0  0  0  0
 10  7  2  0  0  0  0
 11  7  1  0  0  0  0
 12  9  1  0  0  0  0
 13  9  2  0  0  0  0
 14 12  2  0  0  0  0
 15 12  1  6  0  0  0
 15  8  1  0  0  0  0
 17 19  1  0  0  0  0
 18 16  1  0  0  0  0
 19 24  1  0  0  0  0
 20 21  1  0  0  0  0
 21 25  1  0  0  0  0
 22 25  1  0  0  0  0
 23 20  1  0  0  0  0
 23 24  1  0  0  0  0
 24 22  1  0  0  0  0
 26 27  1  0  0  0  0
 27 21  1  0  0  0  0
 28  2  1  0  0  0  0
 29 28  1  0  0  0  0
 30 29  1  0  0  0  0
 31 30  1  1  0  0  0
 31 33  1  0  0  0  0
 32 35  1  1  0  0  0
 32 31  1  0  0  0  0
 32 33  1  0  0  0  0
 34 32  1  0  0  0  0
 34 31  1  0  0  0  0
 35 39  1  0  0  0  0
 36 38  2  0  0  0  0
 38 37  1  0  0  0  0
 39 37  2  0  0  0  0
 40 36  1  0  0  0  0
 40 35  2  0  0  0  0
 41 33  1  0  0  0  0
 41 43  1  0  0  0  0
 43 42  1  0  0  0  0
M  END
>  <MODEL>
9

>  <REMARK>
 VINA RESULT:      -7.5      3.168      6.869
  Name = 
  11 active torsions:
  status: ('A' for Active; 'I' for Inactive)
    1  A    between atoms: C_1  and  N_34
    2  A    between atoms: C_1  and  C_35
    3  A    between atoms: C_3  and  C_4
    4  A    between atoms: C_3  and  C_12
    5  A    between atoms: N_6  and  C_17
    6  A    between atoms: C_10  and  N_22
    7  A    between atoms: C_10  and  C_42
    8  A    between atoms: C_11  and  C_14
    9  A    between atoms: C_12  and  C_17
   10  A    between atoms: N_19  and  C_37
   11  A    between atoms: C_27  and  C_30
                            x       y       z     vdW  Elec       q    Type
                         _______ _______ _______ _____ _____    ______ ____

>  <TORSDO>
F 11

$$$$
