=
 OpenBabel10272415033D

 37 41  0  0  1  0  0  0  0  0999 V2000
  189.8940  175.3250  142.7920 O   0  0  0  0  0  1  0  0  0  0  0  0
  189.2560  176.5780  142.7410 C   0  0  1  0  0  0  0  0  0  0  0  0
  190.9510  179.4690  143.5080 O   0  0  0  0  0  1  0  0  0  0  0  0
  191.1170  178.0860  143.5710 C   0  0  2  0  0  3  0  0  0  0  0  0
  191.2070  177.1530  145.5820 C   0  0  1  0  0  3  0  0  0  0  0  0
  189.8010  177.4260  143.9020 C   0  0  2  0  0  3  0  0  0  0  0  0
  192.0020  177.7660  144.5980 O   0  0  0  0  0  0  0  0  0  0  0  0
  190.0320  176.6300  145.0230 O   0  0  0  0  0  0  0  0  0  0  0  0
  191.9910  176.0590  146.2960 C   0  0  0  0  0  2  0  0  0  0  0  0
  191.9930  176.2650  147.8030 C   0  0  0  0  0  1  0  0  0  0  0  0
  189.5860  177.2770  141.3870 C   0  0  2  0  0  3  0  0  0  0  0  0
  188.4020  177.9060  140.6280 C   0  0  1  0  0  3  0  0  0  0  0  0
  188.4210  179.3010  140.7030 O   0  0  0  0  0  1  0  0  0  0  0  0
  188.3110  177.4480  139.1830 C   0  0  0  0  0  2  0  0  0  0  0  0
  188.1120  178.5470  138.3490 O   0  0  0  0  0  1  0  0  0  0  0  0
  190.2860  176.4200  140.5310 O   0  0  0  0  0  0  0  0  0  0  0  0
  191.4120  177.1440  140.1340 C   0  0  0  0  0  2  0  0  0  0  0  0
  193.0420  176.1560  138.5760 C   0  0  2  0  0  0  0  0  0  0  0  0
  191.7160  176.8500  138.6800 C   0  0  1  0  0  3  0  0  0  0  0  0
  191.7820  175.4900  138.4900 O   0  0  0  0  0  0  0  0  0  0  0  0
  193.8420  175.4880  137.4620 C   0  0  2  0  0  3  0  0  0  0  0  0
  193.4910  176.8130  137.3920 O   0  0  0  0  0  0  0  0  0  0  0  0
  194.0110  174.0320  135.8060 C   0  0  0  0  0  1  0  0  0  0  0  0
  193.0780  174.7670  136.5360 O   0  0  0  0  0  0  0  0  0  0  0  0
  187.8570  176.4320  142.9310 O   0  0  0  0  0  0  0  0  0  0  0  0
  187.3130  177.6280  143.4310 C   0  0  0  0  0  2  0  0  0  0  0  0
  186.4420  177.3260  144.6430 C   0  0  1  0  0  3  0  0  0  0  0  0
  186.5120  178.5050  145.6250 C   0  0  0  0  0  0  0  0  0  0  0  0
  185.7810  178.5570  146.9740 C   0  0  0  0  0  2  0  0  0  0  0  0
  185.2590  178.2220  144.7840 C   0  0  1  0  0  3  0  0  0  0  0  0
  186.9460  177.6740  146.8400 C   0  0  0  0  0  2  0  0  0  0  0  0
  185.1630  179.1780  143.7510 O   0  0  0  0  0  0  0  0  0  0  0  0
  183.8370  179.1970  143.2550 C   0  0  1  0  0  3  0  0  0  0  0  0
  183.6870  178.4750  141.9180 C   0  0  0  0  0  2  0  0  0  0  0  0
  184.8220  178.8550  140.9880 C   0  0  0  0  0  1  0  0  0  0  0  0
  182.8060  178.7180  144.2740 C   0  0  0  0  0  2  0  0  0  0  0  0
  181.5190  178.9730  143.7990 O   0  0  0  0  0  1  0  0  0  0  0  0
  2  1  1  1  0  0  0
  2 25  1  0  0  0  0
  4  3  1  1  0  0  0
  4  6  1  0  0  0  0
  4  7  1  0  0  0  0
  5  9  1  6  0  0  0
  6  2  1  6  0  0  0
  6  8  1  0  0  0  0
  7  5  1  0  0  0  0
  8  5  1  0  0  0  0
  9 10  1  0  0  0  0
 11 16  1  6  0  0  0
 11  2  1  0  0  0  0
 12 13  1  6  0  0  0
 12 11  1  0  0  0  0
 14 12  1  0  0  0  0
 15 14  1  0  0  0  0
 17 16  1  0  0  0  0
 18 22  1  6  0  0  0
 18 19  1  0  0  0  0
 19 17  1  1  0  0  0
 20 18  1  0  0  0  0
 20 19  1  0  0  0  0
 21 24  1  6  0  0  0
 21 18  1  0  0  0  0
 22 21  1  0  0  0  0
 23 24  1  0  0  0  0
 25 26  1  0  0  0  0
 27 26  1  6  0  0  0
 27 30  1  0  0  0  0
 27 28  1  0  0  0  0
 28 31  1  0  0  0  0
 28 29  1  0  0  0  0
 30 32  1  6  0  0  0
 30 28  1  0  0  0  0
 31 29  1  0  0  0  0
 33 34  1  6  0  0  0
 33 32  1  0  0  0  0
 33 36  1  0  0  0  0
 35 34  1  0  0  0  0
 37 36  1  0  0  0  0
M  END
>  <MODEL>
1

>  <REMARK>
 VINA RESULT:      -7.3      0.000      0.000
  Name = 
  16 active torsions:
  status: ('A' for Active; 'I' for Inactive)
    1  A    between atoms: C_1  and  C_36
    2  A    between atoms: C_3  and  C_21
    3  A    between atoms: C_4  and  C_10
    4  A    between atoms: C_4  and  C_22
    5  A    between atoms: C_6  and  C_31
    6  A    between atoms: C_7  and  C_33
    7  A    between atoms: C_10  and  O_14
    8  A    between atoms: C_10  and  C_20
    9  A    between atoms: C_11  and  C_33
   10  A    between atoms: O_14  and  C_31
   11  A    between atoms: C_17  and  O_26
   12  A    between atoms: C_18  and  O_19
   13  A    between atoms: C_20  and  C_24
   14  A    between atoms: C_20  and  O_29
   15  A    between atoms: O_26  and  C_33
   16  A    between atoms: O_29  and  C_36
                            x       y       z     vdW  Elec       q    Type
                         _______ _______ _______ _____ _____    ______ ____

>  <TORSDO>
F 16

$$$$
=
 OpenBabel10272415033D

 37 41  0  0  1  0  0  0  0  0999 V2000
  188.5470  176.5720  141.8750 O   0  0  0  0  0  1  0  0  0  0  0  0
  189.0520  177.8390  141.5280 C   0  0  1  0  0  0  0  0  0  0  0  0
  192.3590  177.0570  142.0540 O   0  0  0  0  0  1  0  0  0  0  0  0
  191.1140  176.8930  142.6610 C   0  0  2  0  0  3  0  0  0  0  0  0
  190.7560  177.9530  144.5760 C   0  0  1  0  0  3  0  0  0  0  0  0
  190.2650  178.1190  142.4300 C   0  0  2  0  0  3  0  0  0  0  0  0
  191.2760  176.7630  144.0380 O   0  0  0  0  0  0  0  0  0  0  0  0
  189.8490  178.5500  143.6890 O   0  0  0  0  0  0  0  0  0  0  0  0
  190.0890  177.6830  145.9200 C   0  0  0  0  0  2  0  0  0  0  0  0
  188.6350  177.2720  145.7490 C   0  0  0  0  0  1  0  0  0  0  0  0
  189.5060  177.8300  140.0360 C   0  0  2  0  0  3  0  0  0  0  0  0
  188.5190  178.4210  139.0110 C   0  0  1  0  0  3  0  0  0  0  0  0
  189.1460  179.3200  138.1470 O   0  0  0  0  0  1  0  0  0  0  0  0
  187.7680  177.3590  138.2280 C   0  0  0  0  0  2  0  0  0  0  0  0
  187.9550  177.5560  136.8600 O   0  0  0  0  0  1  0  0  0  0  0  0
  189.8870  176.5470  139.6300 O   0  0  0  0  0  0  0  0  0  0  0  0
  191.1100  176.7210  138.9790 C   0  0  0  0  0  2  0  0  0  0  0  0
  192.3200  174.9820  137.7250 C   0  0  2  0  0  0  0  0  0  0  0  0
  191.1300  175.8950  137.7100 C   0  0  1  0  0  3  0  0  0  0  0  0
  190.9880  174.5640  138.0250 O   0  0  0  0  0  0  0  0  0  0  0  0
  192.8330  173.8390  136.8550 C   0  0  2  0  0  3  0  0  0  0  0  0
  192.6490  175.0990  136.3430 O   0  0  0  0  0  0  0  0  0  0  0  0
  192.4850  172.2480  135.3580 C   0  0  0  0  0  1  0  0  0  0  0  0
  191.8400  172.9940  136.3450 O   0  0  0  0  0  0  0  0  0  0  0  0
  188.0850  178.8470  141.7790 O   0  0  0  0  0  0  0  0  0  0  0  0
  186.8350  178.2590  142.0390 C   0  0  0  0  0  2  0  0  0  0  0  0
  185.7260  179.1730  141.5350 C   0  0  1  0  0  3  0  0  0  0  0  0
  184.6430  178.3260  140.8490 C   0  0  0  0  0  0  0  0  0  0  0  0
  183.3760  178.8980  140.1960 C   0  0  0  0  0  2  0  0  0  0  0  0
  184.4160  178.9790  142.2200 C   0  0  1  0  0  3  0  0  0  0  0  0
  184.6640  179.0900  139.5170 C   0  0  0  0  0  2  0  0  0  0  0  0
  184.4570  177.9880  143.2230 O   0  0  0  0  0  0  0  0  0  0  0  0
  183.9160  178.5150  144.4200 C   0  0  1  0  0  3  0  0  0  0  0  0
  184.9620  179.1880  145.3060 C   0  0  0  0  0  2  0  0  0  0  0  0
  185.1670  178.3860  146.5760 C   0  0  0  0  0  1  0  0  0  0  0  0
  182.7070  179.4180  144.1900 C   0  0  0  0  0  2  0  0  0  0  0  0
  181.5470  178.6460  144.1230 O   0  0  0  0  0  1  0  0  0  0  0  0
  2 25  1  0  0  0  0
  2  1  1  1  0  0  0
  4  3  1  6  0  0  0
  4  7  1  0  0  0  0
  5  9  1  1  0  0  0
  6  2  1  6  0  0  0
  6  4  1  0  0  0  0
  6  8  1  0  0  0  0
  7  5  1  0  0  0  0
  8  5  1  0  0  0  0
 10  9  1  0  0  0  0
 11 16  1  6  0  0  0
 11  2  1  0  0  0  0
 12 13  1  6  0  0  0
 12 11  1  0  0  0  0
 14 12  1  0  0  0  0
 15 14  1  0  0  0  0
 17 16  1  0  0  0  0
 18 22  1  6  0  0  0
 18 20  1  0  0  0  0
 19 18  1  0  0  0  0
 19 20  1  0  0  0  0
 19 17  1  1  0  0  0
 21 24  1  6  0  0  0
 21 18  1  0  0  0  0
 22 21  1  0  0  0  0
 23 24  1  0  0  0  0
 25 26  1  0  0  0  0
 27 26  1  1  0  0  0
 27 30  1  0  0  0  0
 28 27  1  0  0  0  0
 28 30  1  0  0  0  0
 29 28  1  0  0  0  0
 30 32  1  1  0  0  0
 31 29  1  0  0  0  0
 31 28  1  0  0  0  0
 32 33  1  0  0  0  0
 33 36  1  6  0  0  0
 33 34  1  0  0  0  0
 34 35  1  0  0  0  0
 37 36  1  0  0  0  0
M  END
>  <MODEL>
2

>  <REMARK>
 VINA RESULT:      -7.0      1.485      2.939
  Name = 
  16 active torsions:
  status: ('A' for Active; 'I' for Inactive)
    1  A    between atoms: C_1  and  C_36
    2  A    between atoms: C_3  and  C_21
    3  A    between atoms: C_4  and  C_10
    4  A    between atoms: C_4  and  C_22
    5  A    between atoms: C_6  and  C_31
    6  A    between atoms: C_7  and  C_33
    7  A    between atoms: C_10  and  O_14
    8  A    between atoms: C_10  and  C_20
    9  A    between atoms: C_11  and  C_33
   10  A    between atoms: O_14  and  C_31
   11  A    between atoms: C_17  and  O_26
   12  A    between atoms: C_18  and  O_19
   13  A    between atoms: C_20  and  C_24
   14  A    between atoms: C_20  and  O_29
   15  A    between atoms: O_26  and  C_33
   16  A    between atoms: O_29  and  C_36
                            x       y       z     vdW  Elec       q    Type
                         _______ _______ _______ _____ _____    ______ ____

>  <TORSDO>
F 16

$$$$
=
 OpenBabel10272415033D

 37 41  0  0  1  0  0  0  0  0999 V2000
  189.0600  176.4070  141.3720 O   0  0  0  0  0  1  0  0  0  0  0  0
  189.3410  177.7500  141.0590 C   0  0  1  0  0  0  0  0  0  0  0  0
  192.7640  177.4530  141.1860 O   0  0  0  0  0  1  0  0  0  0  0  0
  191.6320  177.0660  141.9030 C   0  0  2  0  0  3  0  0  0  0  0  0
  191.3410  177.9490  143.9170 C   0  0  1  0  0  3  0  0  0  0  0  0
  190.5940  178.1600  141.8500 C   0  0  2  0  0  3  0  0  0  0  0  0
  191.9650  176.8850  143.2430 O   0  0  0  0  0  0  0  0  0  0  0  0
  190.2640  178.4510  143.1730 O   0  0  0  0  0  0  0  0  0  0  0  0
  190.8760  177.5060  145.2990 C   0  0  0  0  0  2  0  0  0  0  0  0
  191.7680  176.4110  145.8640 C   0  0  0  0  0  1  0  0  0  0  0  0
  189.6250  177.8820  139.5320 C   0  0  2  0  0  3  0  0  0  0  0  0
  188.5080  178.5050  138.6730 C   0  0  1  0  0  3  0  0  0  0  0  0
  188.9800  179.5650  137.8970 O   0  0  0  0  0  1  0  0  0  0  0  0
  187.7860  177.4870  137.8080 C   0  0  0  0  0  2  0  0  0  0  0  0
  186.4310  177.4580  138.1400 O   0  0  0  0  0  1  0  0  0  0  0  0
  190.0090  176.6560  138.9790 O   0  0  0  0  0  0  0  0  0  0  0  0
  191.0280  176.9670  138.0770 C   0  0  0  0  0  2  0  0  0  0  0  0
  192.9590  175.9650  136.9240 C   0  0  2  0  0  0  0  0  0  0  0  0
  192.1220  175.9230  138.1680 C   0  0  1  0  0  3  0  0  0  0  0  0
  193.3490  176.5430  138.1700 O   0  0  0  0  0  0  0  0  0  0  0  0
  194.2490  175.3030  136.4520 C   0  0  2  0  0  3  0  0  0  0  0  0
  193.1480  174.5570  136.7930 O   0  0  0  0  0  0  0  0  0  0  0  0
  196.3420  174.6570  136.7580 C   0  0  0  0  0  1  0  0  0  0  0  0
  195.2280  175.1440  137.4410 O   0  0  0  0  0  0  0  0  0  0  0  0
  188.2750  178.5910  141.4720 O   0  0  0  0  0  0  0  0  0  0  0  0
  187.3590  177.8600  142.2490 C   0  0  0  0  0  2  0  0  0  0  0  0
  186.2040  178.7620  142.6620 C   0  0  1  0  0  3  0  0  0  0  0  0
  184.9250  177.9220  142.7900 C   0  0  0  0  0  0  0  0  0  0  0  0
  183.5480  178.4870  143.1680 C   0  0  0  0  0  2  0  0  0  0  0  0
  185.6600  178.4760  144.0190 C   0  0  1  0  0  3  0  0  0  0  0  0
  184.0800  178.7710  141.8290 C   0  0  0  0  0  2  0  0  0  0  0  0
  186.3320  177.4250  144.6750 O   0  0  0  0  0  0  0  0  0  0  0  0
  186.2570  177.6250  146.0750 C   0  0  1  0  0  3  0  0  0  0  0  0
  187.5790  178.0820  146.6870 C   0  0  0  0  0  2  0  0  0  0  0  0
  188.0670  177.0650  147.6990 C   0  0  0  0  0  1  0  0  0  0  0  0
  185.0990  178.5270  146.4930 C   0  0  0  0  0  2  0  0  0  0  0  0
  185.5740  179.5690  147.2880 O   0  0  0  0  0  1  0  0  0  0  0  0
  2  1  1  1  0  0  0
  2 25  1  0  0  0  0
  4  3  1  6  0  0  0
  4  7  1  0  0  0  0
  5  9  1  1  0  0  0
  6  2  1  6  0  0  0
  6  4  1  0  0  0  0
  6  8  1  0  0  0  0
  7  5  1  0  0  0  0
  8  5  1  0  0  0  0
  9 10  1  0  0  0  0
 11 16  1  6  0  0  0
 11  2  1  0  0  0  0
 12 13  1  6  0  0  0
 12 11  1  0  0  0  0
 14 15  1  0  0  0  0
 14 12  1  0  0  0  0
 17 16  1  0  0  0  0
 18 22  1  1  0  0  0
 18 19  1  0  0  0  0
 18 20  1  0  0  0  0
 19 17  1  6  0  0  0
 19 20  1  0  0  0  0
 21 22  1  0  0  0  0
 21 18  1  0  0  0  0
 21 24  1  1  0  0  0
 23 24  1  0  0  0  0
 25 26  1  0  0  0  0
 27 26  1  1  0  0  0
 27 28  1  0  0  0  0
 27 30  1  0  0  0  0
 28 29  1  0  0  0  0
 28 30  1  0  0  0  0
 30 32  1  1  0  0  0
 31 28  1  0  0  0  0
 31 29  1  0  0  0  0
 32 33  1  0  0  0  0
 33 36  1  6  0  0  0
 33 34  1  0  0  0  0
 34 35  1  0  0  0  0
 36 37  1  0  0  0  0
M  END
>  <MODEL>
3

>  <REMARK>
 VINA RESULT:      -7.0      1.592      3.055
  Name = 
  16 active torsions:
  status: ('A' for Active; 'I' for Inactive)
    1  A    between atoms: C_1  and  C_36
    2  A    between atoms: C_3  and  C_21
    3  A    between atoms: C_4  and  C_10
    4  A    between atoms: C_4  and  C_22
    5  A    between atoms: C_6  and  C_31
    6  A    between atoms: C_7  and  C_33
    7  A    between atoms: C_10  and  O_14
    8  A    between atoms: C_10  and  C_20
    9  A    between atoms: C_11  and  C_33
   10  A    between atoms: O_14  and  C_31
   11  A    between atoms: C_17  and  O_26
   12  A    between atoms: C_18  and  O_19
   13  A    between atoms: C_20  and  C_24
   14  A    between atoms: C_20  and  O_29
   15  A    between atoms: O_26  and  C_33
   16  A    between atoms: O_29  and  C_36
                            x       y       z     vdW  Elec       q    Type
                         _______ _______ _______ _____ _____    ______ ____

>  <TORSDO>
F 16

$$$$
=
 OpenBabel10272415033D

 37 41  0  0  1  0  0  0  0  0999 V2000
  187.9300  179.5420  141.3440 O   0  0  0  0  0  1  0  0  0  0  0  0
  187.5710  178.2640  140.8780 C   0  0  1  0  0  0  0  0  0  0  0  0
  184.7590  179.6790  139.4960 O   0  0  0  0  0  1  0  0  0  0  0  0
  185.3950  179.5560  140.7310 C   0  0  2  0  0  3  0  0  0  0  0  0
  184.3790  178.3540  142.2940 C   0  0  1  0  0  3  0  0  0  0  0  0
  186.0360  178.1940  140.8440 C   0  0  2  0  0  3  0  0  0  0  0  0
  184.4550  179.6500  141.7540 O   0  0  0  0  0  0  0  0  0  0  0  0
  185.5460  177.6270  142.0200 O   0  0  0  0  0  0  0  0  0  0  0  0
  184.1290  178.4170  143.7960 C   0  0  0  0  0  2  0  0  0  0  0  0
  182.7200  178.8960  144.1100 C   0  0  0  0  0  1  0  0  0  0  0  0
  188.1320  178.0550  139.4380 C   0  0  2  0  0  3  0  0  0  0  0  0
  187.0960  177.9360  138.3040 C   0  0  1  0  0  3  0  0  0  0  0  0
  187.1620  179.0180  137.4250 O   0  0  0  0  0  1  0  0  0  0  0  0
  187.1930  176.6230  137.5470 C   0  0  0  0  0  2  0  0  0  0  0  0
  185.9180  176.1880  137.1870 O   0  0  0  0  0  1  0  0  0  0  0  0
  189.0070  176.9650  139.3870 O   0  0  0  0  0  0  0  0  0  0  0  0
  190.2510  177.5130  139.0680 C   0  0  0  0  0  2  0  0  0  0  0  0
  192.1590  176.4270  137.9540 C   0  0  2  0  0  0  0  0  0  0  0  0
  191.3210  176.4500  139.1980 C   0  0  1  0  0  3  0  0  0  0  0  0
  192.5620  177.0410  139.1780 O   0  0  0  0  0  0  0  0  0  0  0  0
  193.4350  175.7200  137.5070 C   0  0  2  0  0  3  0  0  0  0  0  0
  192.3170  175.0120  137.8750 O   0  0  0  0  0  0  0  0  0  0  0  0
  195.0010  174.3400  138.2390 C   0  0  0  0  0  1  0  0  0  0  0  0
  194.4090  175.5760  138.5020 O   0  0  0  0  0  0  0  0  0  0  0  0
  188.0300  177.2610  141.7720 O   0  0  0  0  0  0  0  0  0  0  0  0
  188.9980  177.7970  142.6390 C   0  0  0  0  0  2  0  0  0  0  0  0
  189.5510  176.6940  143.5320 C   0  0  1  0  0  3  0  0  0  0  0  0
  190.7530  177.2340  144.3210 C   0  0  0  0  0  0  0  0  0  0  0  0
  191.5860  176.4060  145.3110 C   0  0  0  0  0  2  0  0  0  0  0  0
  189.3990  176.9550  144.9910 C   0  0  1  0  0  3  0  0  0  0  0  0
  191.7390  176.1460  143.8730 C   0  0  0  0  0  2  0  0  0  0  0  0
  188.7550  178.1780  145.2700 O   0  0  0  0  0  0  0  0  0  0  0  0
  188.0100  178.0500  146.4670 C   0  0  1  0  0  3  0  0  0  0  0  0
  186.5550  177.6530  146.2280 C   0  0  0  0  0  2  0  0  0  0  0  0
  185.6310  178.5430  147.0350 C   0  0  0  0  0  1  0  0  0  0  0  0
  188.6790  177.1460  147.4990 C   0  0  0  0  0  2  0  0  0  0  0  0
  189.4950  177.9070  148.3360 O   0  0  0  0  0  1  0  0  0  0  0  0
  2  1  1  1  0  0  0
  2 25  1  0  0  0  0
  4  3  1  6  0  0  0
  4  6  1  0  0  0  0
  4  7  1  0  0  0  0
  5  9  1  1  0  0  0
  6  2  1  1  0  0  0
  6  8  1  0  0  0  0
  7  5  1  0  0  0  0
  8  5  1  0  0  0  0
  9 10  1  0  0  0  0
 11 16  1  1  0  0  0
 11  2  1  0  0  0  0
 12 13  1  6  0  0  0
 12 11  1  0  0  0  0
 14 12  1  0  0  0  0
 15 14  1  0  0  0  0
 17 16  1  0  0  0  0
 18 22  1  1  0  0  0
 18 20  1  0  0  0  0
 18 19  1  0  0  0  0
 19 17  1  6  0  0  0
 20 19  1  0  0  0  0
 21 22  1  0  0  0  0
 21 18  1  0  0  0  0
 21 24  1  1  0  0  0
 23 24  1  0  0  0  0
 25 26  1  0  0  0  0
 27 26  1  6  0  0  0
 27 28  1  0  0  0  0
 27 30  1  0  0  0  0
 28 30  1  0  0  0  0
 28 29  1  0  0  0  0
 30 32  1  6  0  0  0
 31 28  1  0  0  0  0
 31 29  1  0  0  0  0
 32 33  1  0  0  0  0
 33 34  1  6  0  0  0
 33 36  1  0  0  0  0
 34 35  1  0  0  0  0
 36 37  1  0  0  0  0
M  END
>  <MODEL>
4

>  <REMARK>
 VINA RESULT:      -6.7      1.684      5.038
  Name = 
  16 active torsions:
  status: ('A' for Active; 'I' for Inactive)
    1  A    between atoms: C_1  and  C_36
    2  A    between atoms: C_3  and  C_21
    3  A    between atoms: C_4  and  C_10
    4  A    between atoms: C_4  and  C_22
    5  A    between atoms: C_6  and  C_31
    6  A    between atoms: C_7  and  C_33
    7  A    between atoms: C_10  and  O_14
    8  A    between atoms: C_10  and  C_20
    9  A    between atoms: C_11  and  C_33
   10  A    between atoms: O_14  and  C_31
   11  A    between atoms: C_17  and  O_26
   12  A    between atoms: C_18  and  O_19
   13  A    between atoms: C_20  and  C_24
   14  A    between atoms: C_20  and  O_29
   15  A    between atoms: O_26  and  C_33
   16  A    between atoms: O_29  and  C_36
                            x       y       z     vdW  Elec       q    Type
                         _______ _______ _______ _____ _____    ______ ____

>  <TORSDO>
F 16

$$$$
=
 OpenBabel10272415033D

 37 41  0  0  1  0  0  0  0  0999 V2000
  189.3660  178.7550  138.7380 O   0  0  0  0  0  1  0  0  0  0  0  0
  188.9270  177.4210  138.6540 C   0  0  1  0  0  0  0  0  0  0  0  0
  187.5260  178.2430  135.6230 O   0  0  0  0  0  1  0  0  0  0  0  0
  187.4700  178.6250  136.9640 C   0  0  2  0  0  3  0  0  0  0  0  0
  185.5830  178.2400  138.0630 C   0  0  1  0  0  3  0  0  0  0  0  0
  187.6180  177.4110  137.8490 C   0  0  2  0  0  3  0  0  0  0  0  0
  186.2250  179.1820  137.2410 O   0  0  0  0  0  0  0  0  0  0  0  0
  186.5170  177.4150  138.7050 O   0  0  0  0  0  0  0  0  0  0  0  0
  184.6980  178.9410  139.0870 C   0  0  0  0  0  2  0  0  0  0  0  0
  183.5930  178.0250  139.5910 C   0  0  0  0  0  1  0  0  0  0  0  0
  189.9990  176.5650  137.9120 C   0  0  2  0  0  3  0  0  0  0  0  0
  189.4880  175.6370  136.7940 C   0  0  1  0  0  3  0  0  0  0  0  0
  190.0950  175.9200  135.5680 O   0  0  0  0  0  1  0  0  0  0  0  0
  189.6280  174.1630  137.1340 C   0  0  0  0  0  2  0  0  0  0  0  0
  190.5980  173.5790  136.3200 O   0  0  0  0  0  1  0  0  0  0  0  0
  190.7710  175.8260  138.8150 O   0  0  0  0  0  0  0  0  0  0  0  0
  192.0260  176.4360  138.8030 C   0  0  0  0  0  2  0  0  0  0  0  0
  193.5120  176.4380  136.8390 C   0  0  2  0  0  0  0  0  0  0  0  0
  192.9840  175.6080  137.9710 C   0  0  1  0  0  3  0  0  0  0  0  0
  194.2420  176.1580  138.0350 O   0  0  0  0  0  0  0  0  0  0  0  0
  194.5750  176.2650  135.7590 C   0  0  2  0  0  3  0  0  0  0  0  0
  193.5030  175.4120  135.8490 O   0  0  0  0  0  0  0  0  0  0  0  0
  196.6500  175.8070  135.1450 C   0  0  0  0  0  1  0  0  0  0  0  0
  195.7290  175.5860  136.1690 O   0  0  0  0  0  0  0  0  0  0  0  0
  188.6440  176.9070  139.9460 O   0  0  0  0  0  0  0  0  0  0  0  0
  189.0180  177.8430  140.9280 C   0  0  0  0  0  2  0  0  0  0  0  0
  189.4520  177.1110  142.1910 C   0  0  1  0  0  3  0  0  0  0  0  0
  189.7790  178.1380  143.2850 C   0  0  0  0  0  0  0  0  0  0  0  0
  190.2720  177.7800  144.6950 C   0  0  0  0  0  2  0  0  0  0  0  0
  188.5160  177.2670  143.3390 C   0  0  1  0  0  3  0  0  0  0  0  0
  191.1990  177.6260  143.5660 C   0  0  0  0  0  2  0  0  0  0  0  0
  187.3890  178.0580  143.0320 O   0  0  0  0  0  0  0  0  0  0  0  0
  186.3030  177.6590  143.8480 C   0  0  1  0  0  3  0  0  0  0  0  0
  186.6290  177.6950  145.3390 C   0  0  0  0  0  2  0  0  0  0  0  0
  185.5720  178.4830  146.0870 C   0  0  0  0  0  1  0  0  0  0  0  0
  185.0080  178.4030  143.5340 C   0  0  0  0  0  2  0  0  0  0  0  0
  185.2400  179.3580  142.5440 O   0  0  0  0  0  1  0  0  0  0  0  0
  2  1  1  1  0  0  0
  2 25  1  0  0  0  0
  4  3  1  6  0  0  0
  4  7  1  0  0  0  0
  4  6  1  0  0  0  0
  5  8  1  0  0  0  0
  5  9  1  1  0  0  0
  6  2  1  1  0  0  0
  6  8  1  0  0  0  0
  7  5  1  0  0  0  0
  9 10  1  0  0  0  0
 11  2  1  0  0  0  0
 11 16  1  1  0  0  0
 12 13  1  6  0  0  0
 12 14  1  0  0  0  0
 12 11  1  0  0  0  0
 15 14  1  0  0  0  0
 17 16  1  0  0  0  0
 18 22  1  6  0  0  0
 18 19  1  0  0  0  0
 18 20  1  0  0  0  0
 19 20  1  0  0  0  0
 19 17  1  1  0  0  0
 21 22  1  0  0  0  0
 21 24  1  1  0  0  0
 21 18  1  0  0  0  0
 23 24  1  0  0  0  0
 25 26  1  0  0  0  0
 27 26  1  6  0  0  0
 27 28  1  0  0  0  0
 27 30  1  0  0  0  0
 28 30  1  0  0  0  0
 28 31  1  0  0  0  0
 28 29  1  0  0  0  0
 30 32  1  6  0  0  0
 31 29  1  0  0  0  0
 32 33  1  0  0  0  0
 33 36  1  1  0  0  0
 33 34  1  0  0  0  0
 34 35  1  0  0  0  0
 37 36  1  0  0  0  0
M  END
>  <MODEL>
5

>  <REMARK>
 VINA RESULT:      -6.4      2.077      5.408
  Name = 
  16 active torsions:
  status: ('A' for Active; 'I' for Inactive)
    1  A    between atoms: C_1  and  C_36
    2  A    between atoms: C_3  and  C_21
    3  A    between atoms: C_4  and  C_10
    4  A    between atoms: C_4  and  C_22
    5  A    between atoms: C_6  and  C_31
    6  A    between atoms: C_7  and  C_33
    7  A    between atoms: C_10  and  O_14
    8  A    between atoms: C_10  and  C_20
    9  A    between atoms: C_11  and  C_33
   10  A    between atoms: O_14  and  C_31
   11  A    between atoms: C_17  and  O_26
   12  A    between atoms: C_18  and  O_19
   13  A    between atoms: C_20  and  C_24
   14  A    between atoms: C_20  and  O_29
   15  A    between atoms: O_26  and  C_33
   16  A    between atoms: O_29  and  C_36
                            x       y       z     vdW  Elec       q    Type
                         _______ _______ _______ _____ _____    ______ ____

>  <TORSDO>
F 16

$$$$
=
 OpenBabel10272415033D

 37 41  0  0  1  0  0  0  0  0999 V2000
  188.1940  175.8980  142.9730 O   0  0  0  0  0  1  0  0  0  0  0  0
  188.6830  177.1930  142.7210 C   0  0  1  0  0  0  0  0  0  0  0  0
  191.7140  175.9450  143.7620 O   0  0  0  0  0  1  0  0  0  0  0  0
  190.4240  176.1590  144.2480 C   0  0  2  0  0  3  0  0  0  0  0  0
  190.1670  177.6740  145.8470 C   0  0  1  0  0  3  0  0  0  0  0  0
  189.8660  177.4380  143.6730 C   0  0  2  0  0  3  0  0  0  0  0  0
  190.4640  176.3170  145.6310 O   0  0  0  0  0  0  0  0  0  0  0  0
  189.4660  178.2140  144.7600 O   0  0  0  0  0  0  0  0  0  0  0  0
  189.3720  177.8470  147.1350 C   0  0  0  0  0  2  0  0  0  0  0  0
  187.8790  177.6790  146.8970 C   0  0  0  0  0  1  0  0  0  0  0  0
  189.1770  177.2870  141.2450 C   0  0  2  0  0  3  0  0  0  0  0  0
  190.5440  176.6480  140.9320 C   0  0  1  0  0  3  0  0  0  0  0  0
  190.4960  175.8610  139.7800 O   0  0  0  0  0  1  0  0  0  0  0  0
  191.6680  177.6650  140.8410 C   0  0  0  0  0  2  0  0  0  0  0  0
  192.5940  177.2640  139.8780 O   0  0  0  0  0  1  0  0  0  0  0  0
  189.1650  178.6090  140.7890 O   0  0  0  0  0  0  0  0  0  0  0  0
  189.1580  178.5130  139.3970 C   0  0  0  0  0  2  0  0  0  0  0  0
  187.6890  178.2270  137.4420 C   0  0  2  0  0  0  0  0  0  0  0  0
  187.7930  178.0540  138.9280 C   0  0  1  0  0  3  0  0  0  0  0  0
  187.9350  176.9770  138.0860 O   0  0  0  0  0  0  0  0  0  0  0  0
  186.6780  177.8480  136.3640 C   0  0  2  0  0  3  0  0  0  0  0  0
  186.3330  178.6660  137.4110 O   0  0  0  0  0  0  0  0  0  0  0  0
  185.7750  176.1640  135.2500 C   0  0  0  0  0  1  0  0  0  0  0  0
  186.0650  176.6010  136.5430 O   0  0  0  0  0  0  0  0  0  0  0  0
  187.6890  178.1650  143.0070 O   0  0  0  0  0  0  0  0  0  0  0  0
  186.5680  177.9620  142.1830 C   0  0  0  0  0  2  0  0  0  0  0  0
  185.3240  177.7930  143.0460 C   0  0  1  0  0  3  0  0  0  0  0  0
  184.8740  179.1690  143.5610 C   0  0  0  0  0  0  0  0  0  0  0  0
  183.6660  179.4000  144.4810 C   0  0  0  0  0  2  0  0  0  0  0  0
  184.0960  178.4130  142.4740 C   0  0  1  0  0  3  0  0  0  0  0  0
  184.8750  178.7890  145.0490 C   0  0  0  0  0  2  0  0  0  0  0  0
  184.3170  179.0320  141.2260 O   0  0  0  0  0  0  0  0  0  0  0  0
  183.3540  178.5660  140.2980 C   0  0  1  0  0  3  0  0  0  0  0  0
  182.0540  178.1130  140.9590 C   0  0  0  0  0  2  0  0  0  0  0  0
  180.9970  179.1900  140.8250 C   0  0  0  0  0  1  0  0  0  0  0  0
  183.0960  179.5440  139.1550 C   0  0  0  0  0  2  0  0  0  0  0  0
  184.1900  180.3960  139.0060 O   0  0  0  0  0  1  0  0  0  0  0  0
  2  1  1  1  0  0  0
  2 25  1  0  0  0  0
  4  3  1  6  0  0  0
  4  7  1  0  0  0  0
  5  9  1  1  0  0  0
  6  2  1  6  0  0  0
  6  4  1  0  0  0  0
  6  8  1  0  0  0  0
  7  5  1  0  0  0  0
  8  5  1  0  0  0  0
 10  9  1  0  0  0  0
 11 16  1  1  0  0  0
 11  2  1  0  0  0  0
 12 13  1  6  0  0  0
 12 11  1  0  0  0  0
 14 12  1  0  0  0  0
 15 14  1  0  0  0  0
 17 16  1  0  0  0  0
 18 22  1  1  0  0  0
 18 20  1  0  0  0  0
 18 19  1  0  0  0  0
 19 17  1  6  0  0  0
 20 19  1  0  0  0  0
 21 24  1  1  0  0  0
 21 22  1  0  0  0  0
 21 18  1  0  0  0  0
 23 24  1  0  0  0  0
 26 25  1  0  0  0  0
 27 26  1  6  0  0  0
 27 28  1  0  0  0  0
 28 29  1  0  0  0  0
 28 31  1  0  0  0  0
 29 31  1  0  0  0  0
 30 32  1  6  0  0  0
 30 27  1  0  0  0  0
 30 28  1  0  0  0  0
 33 36  1  6  0  0  0
 33 34  1  0  0  0  0
 33 32  1  0  0  0  0
 35 34  1  0  0  0  0
 37 36  1  0  0  0  0
M  END
>  <MODEL>
6

>  <REMARK>
 VINA RESULT:      -6.3      2.273      3.963
  Name = 
  16 active torsions:
  status: ('A' for Active; 'I' for Inactive)
    1  A    between atoms: C_1  and  C_36
    2  A    between atoms: C_3  and  C_21
    3  A    between atoms: C_4  and  C_10
    4  A    between atoms: C_4  and  C_22
    5  A    between atoms: C_6  and  C_31
    6  A    between atoms: C_7  and  C_33
    7  A    between atoms: C_10  and  O_14
    8  A    between atoms: C_10  and  C_20
    9  A    between atoms: C_11  and  C_33
   10  A    between atoms: O_14  and  C_31
   11  A    between atoms: C_17  and  O_26
   12  A    between atoms: C_18  and  O_19
   13  A    between atoms: C_20  and  C_24
   14  A    between atoms: C_20  and  O_29
   15  A    between atoms: O_26  and  C_33
   16  A    between atoms: O_29  and  C_36
                            x       y       z     vdW  Elec       q    Type
                         _______ _______ _______ _____ _____    ______ ____

>  <TORSDO>
F 16

$$$$
=
 OpenBabel10272415033D

 37 41  0  0  1  0  0  0  0  0999 V2000
  188.1980  176.5220  142.1390 O   0  0  0  0  0  1  0  0  0  0  0  0
  188.7680  177.7880  141.9120 C   0  0  1  0  0  0  0  0  0  0  0  0
  191.8720  176.6320  142.8350 O   0  0  0  0  0  1  0  0  0  0  0  0
  190.5610  176.6670  143.3110 C   0  0  2  0  0  3  0  0  0  0  0  0
  190.1570  177.8910  145.1160 C   0  0  1  0  0  3  0  0  0  0  0  0
  189.9110  177.9730  142.9240 C   0  0  2  0  0  3  0  0  0  0  0  0
  190.5650  176.6120  144.7020 O   0  0  0  0  0  0  0  0  0  0  0  0
  189.4310  178.5380  144.1050 O   0  0  0  0  0  0  0  0  0  0  0  0
  189.3280  177.8000  146.3920 C   0  0  0  0  0  2  0  0  0  0  0  0
  187.8870  177.4160  146.0960 C   0  0  0  0  0  1  0  0  0  0  0  0
  189.3420  177.8510  140.4630 C   0  0  2  0  0  3  0  0  0  0  0  0
  188.3960  178.3820  139.3690 C   0  0  1  0  0  3  0  0  0  0  0  0
  189.0120  179.3530  138.5780 O   0  0  0  0  0  1  0  0  0  0  0  0
  187.8090  177.2790  138.5050 C   0  0  0  0  0  2  0  0  0  0  0  0
  186.5710  177.6790  138.0020 O   0  0  0  0  0  1  0  0  0  0  0  0
  189.8630  176.6140  140.0700 O   0  0  0  0  0  0  0  0  0  0  0  0
  191.1160  176.9050  139.5280 C   0  0  0  0  0  2  0  0  0  0  0  0
  192.4800  175.4560  138.0780 C   0  0  2  0  0  0  0  0  0  0  0  0
  191.2300  176.2810  138.1520 C   0  0  1  0  0  3  0  0  0  0  0  0
  191.1730  174.9120  138.2620 O   0  0  0  0  0  0  0  0  0  0  0  0
  193.0960  174.4930  137.0680 C   0  0  2  0  0  3  0  0  0  0  0  0
  192.8390  175.8010  136.7420 O   0  0  0  0  0  0  0  0  0  0  0  0
  192.9210  172.5500  136.0250 C   0  0  0  0  0  1  0  0  0  0  0  0
  192.1800  173.6710  136.4010 O   0  0  0  0  0  0  0  0  0  0  0  0
  187.8130  178.8120  142.1460 O   0  0  0  0  0  0  0  0  0  0  0  0
  186.5820  178.4630  141.5640 C   0  0  0  0  0  2  0  0  0  0  0  0
  185.5830  178.1090  142.6570 C   0  0  1  0  0  3  0  0  0  0  0  0
  184.8400  179.3790  143.0970 C   0  0  0  0  0  0  0  0  0  0  0  0
  183.7690  179.4230  144.1970 C   0  0  0  0  0  2  0  0  0  0  0  0
  184.1570  178.2860  142.2620 C   0  0  1  0  0  3  0  0  0  0  0  0
  185.1730  179.2490  144.5900 C   0  0  0  0  0  2  0  0  0  0  0  0
  184.0020  178.7390  140.9360 O   0  0  0  0  0  0  0  0  0  0  0  0
  182.8030  178.2090  140.4000 C   0  0  1  0  0  3  0  0  0  0  0  0
  182.9490  176.7700  139.9110 C   0  0  0  0  0  2  0  0  0  0  0  0
  181.5990  176.2160  139.5040 C   0  0  0  0  0  1  0  0  0  0  0  0
  181.6040  178.3710  141.3300 C   0  0  0  0  0  2  0  0  0  0  0  0
  181.0130  179.6180  141.1280 O   0  0  0  0  0  1  0  0  0  0  0  0
  2  1  1  1  0  0  0
  2 25  1  0  0  0  0
  4  3  1  1  0  0  0
  4  7  1  0  0  0  0
  5  9  1  1  0  0  0
  6  2  1  6  0  0  0
  6  4  1  0  0  0  0
  6  8  1  0  0  0  0
  7  5  1  0  0  0  0
  8  5  1  0  0  0  0
 10  9  1  0  0  0  0
 11 16  1  6  0  0  0
 11  2  1  0  0  0  0
 12 13  1  6  0  0  0
 12 11  1  0  0  0  0
 14 12  1  0  0  0  0
 15 14  1  0  0  0  0
 17 16  1  0  0  0  0
 18 22  1  6  0  0  0
 18 19  1  0  0  0  0
 18 20  1  0  0  0  0
 19 20  1  0  0  0  0
 19 17  1  1  0  0  0
 21 24  1  6  0  0  0
 21 18  1  0  0  0  0
 22 21  1  0  0  0  0
 23 24  1  0  0  0  0
 26 25  1  0  0  0  0
 27 26  1  6  0  0  0
 27 28  1  0  0  0  0
 28 29  1  0  0  0  0
 28 31  1  0  0  0  0
 29 31  1  0  0  0  0
 30 32  1  6  0  0  0
 30 27  1  0  0  0  0
 30 28  1  0  0  0  0
 33 34  1  1  0  0  0
 33 32  1  0  0  0  0
 33 36  1  0  0  0  0
 35 34  1  0  0  0  0
 37 36  1  0  0  0  0
M  END
>  <MODEL>
7

>  <REMARK>
 VINA RESULT:      -6.3      1.658      2.370
  Name = 
  16 active torsions:
  status: ('A' for Active; 'I' for Inactive)
    1  A    between atoms: C_1  and  C_36
    2  A    between atoms: C_3  and  C_21
    3  A    between atoms: C_4  and  C_10
    4  A    between atoms: C_4  and  C_22
    5  A    between atoms: C_6  and  C_31
    6  A    between atoms: C_7  and  C_33
    7  A    between atoms: C_10  and  O_14
    8  A    between atoms: C_10  and  C_20
    9  A    between atoms: C_11  and  C_33
   10  A    between atoms: O_14  and  C_31
   11  A    between atoms: C_17  and  O_26
   12  A    between atoms: C_18  and  O_19
   13  A    between atoms: C_20  and  C_24
   14  A    between atoms: C_20  and  O_29
   15  A    between atoms: O_26  and  C_33
   16  A    between atoms: O_29  and  C_36
                            x       y       z     vdW  Elec       q    Type
                         _______ _______ _______ _____ _____    ______ ____

>  <TORSDO>
F 16

$$$$
=
 OpenBabel10272415033D

 37 41  0  0  1  0  0  0  0  0999 V2000
  188.6990  176.3050  142.0830 O   0  0  0  0  0  1  0  0  0  0  0  0
  188.8420  177.5250  141.3980 C   0  0  1  0  0  0  0  0  0  0  0  0
  192.1920  177.1760  140.7050 O   0  0  0  0  0  1  0  0  0  0  0  0
  191.2960  177.0020  141.7600 C   0  0  2  0  0  3  0  0  0  0  0  0
  191.4990  178.3460  143.5130 C   0  0  1  0  0  3  0  0  0  0  0  0
  190.2400  178.0790  141.7190 C   0  0  2  0  0  3  0  0  0  0  0  0
  191.9680  177.1360  142.9730 O   0  0  0  0  0  0  0  0  0  0  0  0
  190.2490  178.6850  142.9750 O   0  0  0  0  0  0  0  0  0  0  0  0
  191.4200  178.2570  145.0320 C   0  0  0  0  0  2  0  0  0  0  0  0
  191.4900  176.8150  145.5110 C   0  0  0  0  0  1  0  0  0  0  0  0
  188.7210  177.2790  139.8620 C   0  0  2  0  0  3  0  0  0  0  0  0
  190.0400  177.1260  139.0820 C   0  0  1  0  0  3  0  0  0  0  0  0
  190.2990  175.7930  138.7580 O   0  0  0  0  0  1  0  0  0  0  0  0
  190.1030  178.0010  137.8420 C   0  0  0  0  0  2  0  0  0  0  0  0
  189.8720  177.2280  136.7040 O   0  0  0  0  0  1  0  0  0  0  0  0
  187.9300  178.2580  139.2530 O   0  0  0  0  0  0  0  0  0  0  0  0
  186.8830  177.5570  138.6520 C   0  0  0  0  0  2  0  0  0  0  0  0
  184.4930  178.1060  138.8680 C   0  0  2  0  0  0  0  0  0  0  0  0
  185.7920  178.5250  138.2460 C   0  0  1  0  0  3  0  0  0  0  0  0
  185.3100  179.1690  139.3610 O   0  0  0  0  0  0  0  0  0  0  0  0
  183.0900  178.6960  138.9740 C   0  0  2  0  0  3  0  0  0  0  0  0
  183.6570  178.4150  137.7550 O   0  0  0  0  0  0  0  0  0  0  0  0
  181.8880  180.4840  138.4720 C   0  0  0  0  0  1  0  0  0  0  0  0
  183.0450  180.0850  139.1430 O   0  0  0  0  0  0  0  0  0  0  0  0
  187.8870  178.4700  141.8570 O   0  0  0  0  0  0  0  0  0  0  0  0
  186.7560  177.8030  142.3610 C   0  0  0  0  0  2  0  0  0  0  0  0
  185.8260  178.8080  143.0270 C   0  0  1  0  0  3  0  0  0  0  0  0
  184.5380  178.0940  143.4640 C   0  0  0  0  0  0  0  0  0  0  0  0
  183.3520  178.7850  144.1530 C   0  0  0  0  0  2  0  0  0  0  0  0
  185.5940  178.5580  144.4770 C   0  0  1  0  0  3  0  0  0  0  0  0
  183.5760  179.0330  142.7220 C   0  0  0  0  0  2  0  0  0  0  0  0
  186.2970  177.4370  144.9660 O   0  0  0  0  0  0  0  0  0  0  0  0
  186.6510  177.6630  146.3180 C   0  0  1  0  0  3  0  0  0  0  0  0
  188.1590  177.7680  146.5350 C   0  0  0  0  0  2  0  0  0  0  0  0
  188.5200  177.3050  147.9310 C   0  0  0  0  0  1  0  0  0  0  0  0
  185.9060  178.8370  146.9480 C   0  0  0  0  0  2  0  0  0  0  0  0
  184.6670  178.4100  147.4240 O   0  0  0  0  0  1  0  0  0  0  0  0
  2 25  1  0  0  0  0
  2  1  1  1  0  0  0
  4  3  1  6  0  0  0
  4  7  1  0  0  0  0
  5  9  1  1  0  0  0
  6  2  1  1  0  0  0
  6  4  1  0  0  0  0
  6  8  1  0  0  0  0
  7  5  1  0  0  0  0
  8  5  1  0  0  0  0
  9 10  1  0  0  0  0
 11 16  1  6  0  0  0
 11  2  1  0  0  0  0
 12 13  1  6  0  0  0
 12 11  1  0  0  0  0
 14 12  1  0  0  0  0
 15 14  1  0  0  0  0
 17 16  1  0  0  0  0
 18 22  1  6  0  0  0
 18 21  1  0  0  0  0
 18 20  1  0  0  0  0
 19 17  1  1  0  0  0
 19 18  1  0  0  0  0
 19 20  1  0  0  0  0
 21 24  1  6  0  0  0
 22 21  1  0  0  0  0
 23 24  1  0  0  0  0
 25 26  1  0  0  0  0
 27 26  1  6  0  0  0
 27 28  1  0  0  0  0
 27 30  1  0  0  0  0
 28 29  1  0  0  0  0
 28 30  1  0  0  0  0
 30 32  1  6  0  0  0
 31 28  1  0  0  0  0
 31 29  1  0  0  0  0
 32 33  1  0  0  0  0
 33 34  1  6  0  0  0
 33 36  1  0  0  0  0
 34 35  1  0  0  0  0
 36 37  1  0  0  0  0
M  END
>  <MODEL>
8

>  <REMARK>
 VINA RESULT:      -6.2      2.213      5.457
  Name = 
  16 active torsions:
  status: ('A' for Active; 'I' for Inactive)
    1  A    between atoms: C_1  and  C_36
    2  A    between atoms: C_3  and  C_21
    3  A    between atoms: C_4  and  C_10
    4  A    between atoms: C_4  and  C_22
    5  A    between atoms: C_6  and  C_31
    6  A    between atoms: C_7  and  C_33
    7  A    between atoms: C_10  and  O_14
    8  A    between atoms: C_10  and  C_20
    9  A    between atoms: C_11  and  C_33
   10  A    between atoms: O_14  and  C_31
   11  A    between atoms: C_17  and  O_26
   12  A    between atoms: C_18  and  O_19
   13  A    between atoms: C_20  and  C_24
   14  A    between atoms: C_20  and  O_29
   15  A    between atoms: O_26  and  C_33
   16  A    between atoms: O_29  and  C_36
                            x       y       z     vdW  Elec       q    Type
                         _______ _______ _______ _____ _____    ______ ____

>  <TORSDO>
F 16

$$$$
=
 OpenBabel10272415033D

 37 41  0  0  1  0  0  0  0  0999 V2000
  188.9820  179.1950  139.3310 O   0  0  0  0  0  1  0  0  0  0  0  0
  188.9740  177.7880  139.3380 C   0  0  1  0  0  0  0  0  0  0  0  0
  189.1190  178.4110  135.9600 O   0  0  0  0  0  1  0  0  0  0  0  0
  188.2100  178.4620  137.0170 C   0  0  2  0  0  3  0  0  0  0  0  0
  186.5080  177.0400  136.9790 C   0  0  1  0  0  3  0  0  0  0  0  0
  188.4630  177.3170  137.9670 C   0  0  2  0  0  3  0  0  0  0  0  0
  186.9150  178.3090  136.5300 O   0  0  0  0  0  0  0  0  0  0  0  0
  187.2500  176.6440  138.1020 O   0  0  0  0  0  0  0  0  0  0  0  0
  185.0180  177.0390  137.2960 C   0  0  0  0  0  2  0  0  0  0  0  0
  184.1960  176.5370  136.1190 C   0  0  0  0  0  1  0  0  0  0  0  0
  190.4240  177.2580  139.5620 C   0  0  2  0  0  3  0  0  0  0  0  0
  191.1350  176.6540  138.3360 C   0  0  1  0  0  3  0  0  0  0  0  0
  192.5080  176.9100  138.3540 O   0  0  0  0  0  1  0  0  0  0  0  0
  190.8690  175.1690  138.1660 C   0  0  0  0  0  2  0  0  0  0  0  0
  192.0300  174.5240  137.7410 O   0  0  0  0  0  1  0  0  0  0  0  0
  190.4740  176.3500  140.6240 O   0  0  0  0  0  0  0  0  0  0  0  0
  191.1640  177.0150  141.6380 C   0  0  0  0  0  2  0  0  0  0  0  0
  190.7640  177.5200  144.0150 C   0  0  2  0  0  0  0  0  0  0  0  0
  190.7770  176.4330  142.9820 C   0  0  1  0  0  3  0  0  0  0  0  0
  189.5910  176.9890  143.3990 O   0  0  0  0  0  0  0  0  0  0  0  0
  190.3430  177.6350  145.4760 C   0  0  2  0  0  3  0  0  0  0  0  0
  191.3200  176.7550  145.0820 O   0  0  0  0  0  0  0  0  0  0  0  0
  189.0170  177.1550  147.1810 C   0  0  0  0  0  1  0  0  0  0  0  0
  189.1930  176.9130  145.8180 O   0  0  0  0  0  0  0  0  0  0  0  0
  188.0780  177.3000  140.3250 O   0  0  0  0  0  0  0  0  0  0  0  0
  187.5040  178.3750  141.0260 C   0  0  0  0  0  2  0  0  0  0  0  0
  186.4540  177.8500  141.9960 C   0  0  1  0  0  3  0  0  0  0  0  0
  185.8800  179.0220  142.8070 C   0  0  0  0  0  0  0  0  0  0  0  0
  184.8110  178.8820  143.9000 C   0  0  0  0  0  2  0  0  0  0  0  0
  185.0690  178.3190  141.7090 C   0  0  1  0  0  3  0  0  0  0  0  0
  186.1750  178.4180  144.1870 C   0  0  0  0  0  2  0  0  0  0  0  0
  184.9910  179.1570  140.5760 O   0  0  0  0  0  0  0  0  0  0  0  0
  183.6310  179.4110  140.2770 C   0  0  1  0  0  3  0  0  0  0  0  0
  183.4110  179.8880  138.8430 C   0  0  0  0  0  2  0  0  0  0  0  0
  182.1490  179.2730  138.2740 C   0  0  0  0  0  1  0  0  0  0  0  0
  182.7080  178.2480  140.6320 C   0  0  0  0  0  2  0  0  0  0  0  0
  181.7790  178.6570  141.5880 O   0  0  0  0  0  1  0  0  0  0  0  0
  2  1  1  1  0  0  0
  2 11  1  0  0  0  0
  2 25  1  0  0  0  0
  4  3  1  6  0  0  0
  4  6  1  0  0  0  0
  5  9  1  1  0  0  0
  5  8  1  0  0  0  0
  6  8  1  0  0  0  0
  6  2  1  1  0  0  0
  7  5  1  0  0  0  0
  7  4  1  0  0  0  0
 10  9  1  0  0  0  0
 11 16  1  1  0  0  0
 12 13  1  1  0  0  0
 12 11  1  0  0  0  0
 14 12  1  0  0  0  0
 15 14  1  0  0  0  0
 16 17  1  0  0  0  0
 18 20  1  1  0  0  0
 18 22  1  0  0  0  0
 18 21  1  0  0  0  0
 19 17  1  6  0  0  0
 19 20  1  0  0  0  0
 19 18  1  0  0  0  0
 21 24  1  6  0  0  0
 22 21  1  0  0  0  0
 24 23  1  0  0  0  0
 25 26  1  0  0  0  0
 27 26  1  6  0  0  0
 27 28  1  0  0  0  0
 28 29  1  0  0  0  0
 28 31  1  0  0  0  0
 29 31  1  0  0  0  0
 30 32  1  6  0  0  0
 30 27  1  0  0  0  0
 30 28  1  0  0  0  0
 33 34  1  6  0  0  0
 33 32  1  0  0  0  0
 33 36  1  0  0  0  0
 35 34  1  0  0  0  0
 36 37  1  0  0  0  0
M  END
>  <MODEL>
9

>  <REMARK>
 VINA RESULT:      -6.1      2.084      6.323
  Name = 
  16 active torsions:
  status: ('A' for Active; 'I' for Inactive)
    1  A    between atoms: C_1  and  C_36
    2  A    between atoms: C_3  and  C_21
    3  A    between atoms: C_4  and  C_10
    4  A    between atoms: C_4  and  C_22
    5  A    between atoms: C_6  and  C_31
    6  A    between atoms: C_7  and  C_33
    7  A    between atoms: C_10  and  O_14
    8  A    between atoms: C_10  and  C_20
    9  A    between atoms: C_11  and  C_33
   10  A    between atoms: O_14  and  C_31
   11  A    between atoms: C_17  and  O_26
   12  A    between atoms: C_18  and  O_19
   13  A    between atoms: C_20  and  C_24
   14  A    between atoms: C_20  and  O_29
   15  A    between atoms: O_26  and  C_33
   16  A    between atoms: O_29  and  C_36
                            x       y       z     vdW  Elec       q    Type
                         _______ _______ _______ _____ _____    ______ ____

>  <TORSDO>
F 16

$$$$
