=
 OpenBabel10272413233D

 32 37  0  0  1  0  0  0  0  0999 V2000
  187.4370  177.5850  137.7720 C   0  0  0  0  0  0  0  0  0  0  0  0
  187.3830  178.2660  142.0130 C   0  0  0  0  0  0  0  0  0  0  0  0
  182.4800  178.7530  142.6310 O   0  0  0  0  0  0  0  0  0  0  0  0
  182.7900  179.0110  144.0210 C   0  0  0  0  0  2  0  0  0  0  0  0
  188.7910  177.8220  144.2380 C   0  0  0  0  0  0  0  0  0  0  0  0
  188.7350  177.6620  145.5910 C   0  0  0  0  0  0  0  0  0  0  0  0
  188.6650  178.4100  139.8070 C   0  0  2  0  0  3  0  0  0  0  0  0
  186.1710  178.4150  139.8520 C   0  0  0  0  0  2  0  0  0  0  0  0
  188.4400  177.7020  148.4490 C   0  0  0  0  0  3  0  0  0  0  0  0
  186.8450  178.3550  136.8270 C   0  0  0  0  0  2  0  0  0  0  0  0
  183.5940  178.7610  141.7350 C   0  0  0  0  0  2  0  0  0  0  0  0
  186.1630  178.3070  141.3710 C   0  0  0  0  0  0  0  0  0  0  0  0
  185.0120  178.4890  142.2090 C   0  0  0  0  0  0  0  0  0  0  0  0
  186.3340  178.2550  144.1630 C   0  0  0  0  0  0  0  0  0  0  0  0
  189.7370  177.2880  147.7430 C   0  0  0  0  0  3  0  0  0  0  0  0
  189.7120  176.6920  138.2800 C   0  0  0  0  0  2  0  0  0  0  0  0
  187.3930  177.7920  139.2120 C   0  0  1  0  0  3  0  0  0  0  0  0
  189.9020  177.2560  146.4330 C   0  0  0  0  0  3  0  0  0  0  0  0
  189.9230  177.9250  139.0690 C   0  0  0  0  0  2  0  0  0  0  0  0
  188.5720  176.7600  137.3850 N   0  0  0  0  0  0  0  0  0  0  0  0
  184.0560  178.4990  144.4270 O   0  0  0  0  0  0  0  0  0  0  0  0
  185.1860  178.4400  143.5620 C   0  0  0  0  0  0  0  0  0  0  0  0
  186.4180  178.4720  145.5780 O   0  0  0  0  0  0  0  0  0  0  0  0
  188.6830  177.9280  141.2390 C   0  0  0  0  0  2  0  0  0  0  0  0
  190.0310  177.7200  143.5800 O   0  0  0  0  0  1  0  0  0  0  0  0
  187.3170  177.9390  147.7890 C   0  0  0  0  0  3  0  0  0  0  0  0
  187.5330  178.0390  143.4560 C   0  0  0  0  0  0  0  0  0  0  0  0
  187.3550  177.7610  146.2960 C   0  0  2  0  0  3  0  0  0  0  0  0
  188.6880  175.8780  136.1460 C   0  0  0  0  0  0  0  0  0  0  0  0
  189.0960  176.5860  134.8190 C   0  0  0  0  0  1  0  0  0  0  0  0
  189.8130  174.8080  136.2820 C   0  0  0  0  0  1  0  0  0  0  0  0
  187.4350  175.0880  135.8540 C   0  0  0  0  0  1  0  0  0  0  0  0
  1 17  1  0  0  0  0
  2 27  1  0  0  0  0
  3  4  1  0  0  0  0
  4 21  1  0  0  0  0
  5  6  2  0  0  0  0
  6 28  1  0  0  0  0
  6 18  1  0  0  0  0
  7 19  1  6  0  0  0
  7 24  1  0  0  0  0
  8 12  1  0  0  0  0
 10  1  2  0  0  0  0
 11 13  1  0  0  0  0
 11  3  1  0  0  0  0
 12  2  2  0  0  0  0
 12 13  1  0  0  0  0
 13 22  2  0  0  0  0
 14 23  1  0  0  0  0
 15  9  1  0  0  0  0
 16 19  1  0  0  0  0
 17  7  1  0  0  0  0
 17  8  1  6  0  0  0
 18 15  2  0  0  0  0
 20  1  1  0  0  0  0
 20 16  1  0  0  0  0
 22 14  1  0  0  0  0
 22 21  1  0  0  0  0
 23 28  1  0  0  0  0
 24  2  1  0  0  0  0
 25  5  1  0  0  0  0
 26  9  2  0  0  0  0
 27 14  2  0  0  0  0
 27  5  1  0  0  0  0
 28 26  1  1  0  0  0
 29 31  1  0  0  0  0
 29 20  1  0  0  0  0
 30 29  1  0  0  0  0
 32 29  1  0  0  0  0
M  END
>  <MODEL>
1

>  <REMARK>
 VINA RESULT:     -10.7      0.000      0.000
  Name = 
  1 active torsions:
  status: ('A' for Active; 'I' for Inactive)
    1  A    between atoms: C_1  and  N_24
                            x       y       z     vdW  Elec       q    Type
                         _______ _______ _______ _____ _____    ______ ____

>  <TORSDO>
F 1

$$$$
=
 OpenBabel10272413233D

 32 37  0  0  1  0  0  0  0  0999 V2000
  187.3840  177.6720  137.6480 C   0  0  0  0  0  0  0  0  0  0  0  0
  188.2750  178.0030  141.8370 C   0  0  0  0  0  0  0  0  0  0  0  0
  183.6560  178.6800  143.5330 O   0  0  0  0  0  0  0  0  0  0  0  0
  184.2710  178.8070  144.8380 C   0  0  0  0  0  2  0  0  0  0  0  0
  190.0890  177.3060  143.6680 C   0  0  0  0  0  0  0  0  0  0  0  0
  190.3100  177.0380  144.9870 C   0  0  0  0  0  0  0  0  0  0  0  0
  189.0660  178.2640  139.4220 C   0  0  2  0  0  3  0  0  0  0  0  0
  186.6440  178.3900  140.0050 C   0  0  0  0  0  2  0  0  0  0  0  0
  190.6300  176.8570  147.8360 C   0  0  0  0  0  3  0  0  0  0  0  0
  186.6580  178.5470  136.9090 C   0  0  0  0  0  2  0  0  0  0  0  0
  184.5540  178.7070  142.4210 C   0  0  0  0  0  2  0  0  0  0  0  0
  186.9510  178.1580  141.4790 C   0  0  0  0  0  0  0  0  0  0  0  0
  186.0180  178.3260  142.5560 C   0  0  0  0  0  0  0  0  0  0  0  0
  187.7060  177.8660  144.1570 C   0  0  0  0  0  0  0  0  0  0  0  0
  191.7180  176.4380  146.8400 C   0  0  0  0  0  3  0  0  0  0  0  0
  189.6500  176.6290  137.5880 C   0  0  0  0  0  2  0  0  0  0  0  0
  187.6600  177.7620  139.0740 C   0  0  1  0  0  3  0  0  0  0  0  0
  191.5990  176.5060  145.5260 C   0  0  0  0  0  2  0  0  0  0  0  0
  190.1060  177.7800  138.3970 C   0  0  0  0  0  2  0  0  0  0  0  0
  188.3540  176.8270  136.9680 N   0  0  0  0  0  0  0  0  0  0  0  0
  185.5560  178.2010  144.9240 O   0  0  0  0  0  0  0  0  0  0  0  0
  186.4710  178.1570  143.8330 C   0  0  0  0  0  0  0  0  0  0  0  0
  188.1020  177.9610  145.5330 O   0  0  0  0  0  0  0  0  0  0  0  0
  189.3550  177.6660  140.7790 C   0  0  0  0  0  2  0  0  0  0  0  0
  191.1520  177.1980  142.7520 O   0  0  0  0  0  1  0  0  0  0  0  0
  189.4110  177.2030  147.4540 C   0  0  0  0  0  3  0  0  0  0  0  0
  188.7110  177.6500  143.1940 C   0  0  0  0  0  0  0  0  0  0  0  0
  189.1200  177.1470  145.9790 C   0  0  0  0  0  0  0  0  0  0  0  0
  188.1460  176.0460  135.6740 C   0  0  0  0  0  0  0  0  0  0  0  0
  188.2400  176.8540  134.3460 C   0  0  0  0  0  1  0  0  0  0  0  0
  189.2430  174.9620  135.4530 C   0  0  0  0  0  1  0  0  0  0  0  0
  186.8410  175.2900  135.6350 C   0  0  0  0  0  1  0  0  0  0  0  0
  1 17  1  0  0  0  0
  2 27  1  0  0  0  0
  3  4  1  0  0  0  0
  4 21  1  0  0  0  0
  5  6  2  0  0  0  0
  6 18  1  0  0  0  0
  6 28  1  0  0  0  0
  7 19  1  6  0  0  0
  7 24  1  0  0  0  0
  8 12  1  0  0  0  0
 10  1  2  0  0  0  0
 11 13  1  0  0  0  0
 11  3  1  0  0  0  0
 12  2  2  0  0  0  0
 12 13  1  0  0  0  0
 13 22  2  0  0  0  0
 14 23  1  0  0  0  0
 15  9  2  0  0  0  0
 16 19  1  0  0  0  0
 17  7  1  0  0  0  0
 17  8  1  1  0  0  0
 18 15  1  0  0  0  0
 20 16  1  0  0  0  0
 20  1  1  0  0  0  0
 22 14  1  0  0  0  0
 22 21  1  0  0  0  0
 23 28  1  0  0  0  0
 24  2  1  0  0  0  0
 25  5  1  0  0  0  0
 26  9  1  0  0  0  0
 27  5  1  0  0  0  0
 27 14  2  0  0  0  0
 28 26  2  0  0  0  0
 29 20  1  0  0  0  0
 30 29  1  0  0  0  0
 31 29  1  0  0  0  0
 32 29  1  0  0  0  0
M  END
>  <MODEL>
2

>  <REMARK>
 VINA RESULT:     -10.3      1.045      1.347
  Name = 
  1 active torsions:
  status: ('A' for Active; 'I' for Inactive)
    1  A    between atoms: C_1  and  N_24
                            x       y       z     vdW  Elec       q    Type
                         _______ _______ _______ _____ _____    ______ ____

>  <TORSDO>
F 1

$$$$
=
 OpenBabel10272413233D

 32 37  0  0  1  0  0  0  0  0999 V2000
  189.4060  176.9120  137.1930 C   0  0  0  0  0  0  0  0  0  0  0  0
  189.3050  177.6980  141.4140 C   0  0  0  0  0  0  0  0  0  0  0  0
  184.5320  179.0090  141.8180 O   0  0  0  0  0  0  0  0  0  0  0  0
  184.8280  179.2470  143.2150 C   0  0  0  0  0  2  0  0  0  0  0  0
  190.5320  177.0800  143.7040 C   0  0  0  0  0  0  0  0  0  0  0  0
  190.3980  176.9660  145.0570 C   0  0  0  0  0  0  0  0  0  0  0  0
  190.6750  177.5720  139.2620 C   0  0  2  0  0  3  0  0  0  0  0  0
  188.2170  177.9930  139.2020 C   0  0  0  0  0  2  0  0  0  0  0  0
  190.0060  177.1260  147.8980 C   0  0  0  0  0  3  0  0  0  0  0  0
  188.9880  177.7460  136.2100 C   0  0  0  0  0  2  0  0  0  0  0  0
  185.6650  178.8090  140.9700 C   0  0  0  0  0  2  0  0  0  0  0  0
  188.1340  177.9260  140.7210 C   0  0  0  0  0  0  0  0  0  0  0  0
  186.9980  178.3170  141.5070 C   0  0  0  0  0  0  0  0  0  0  0  0
  188.1870  177.9150  143.5190 C   0  0  0  0  0  0  0  0  0  0  0  0
  191.2410  176.4840  147.2550 C   0  0  0  0  0  3  0  0  0  0  0  0
  191.4780  175.6660  137.8110 C   0  0  0  0  0  2  0  0  0  0  0  0
  189.3420  177.1590  138.6250 C   0  0  1  0  0  3  0  0  0  0  0  0
  191.4480  176.3920  145.9540 C   0  0  0  0  0  3  0  0  0  0  0  0
  191.8630  176.8660  138.5860 C   0  0  0  0  0  2  0  0  0  0  0  0
  190.4010  175.9010  136.8690 N   0  0  0  0  0  0  0  0  0  0  0  0
  185.9730  178.5420  143.6830 O   0  0  0  0  0  0  0  0  0  0  0  0
  187.1090  178.2730  142.8670 C   0  0  0  0  0  0  0  0  0  0  0  0
  188.2520  178.1500  144.9320 O   0  0  0  0  0  0  0  0  0  0  0  0
  190.5580  177.1290  140.7020 C   0  0  0  0  0  2  0  0  0  0  0  0
  191.7620  176.7580  143.1000 O   0  0  0  0  0  1  0  0  0  0  0  0
  188.9640  177.5300  147.1880 C   0  0  0  0  0  3  0  0  0  0  0  0
  189.3590  177.4850  142.8660 C   0  0  0  0  0  0  0  0  0  0  0  0
  189.0290  177.3110  145.7020 C   0  0  2  0  0  3  0  0  0  0  0  0
  190.4140  174.9810  135.6510 C   0  0  0  0  0  0  0  0  0  0  0  0
  191.0430  175.5570  134.3470 C   0  0  0  0  0  1  0  0  0  0  0  0
  191.2870  173.7100  135.8780 C   0  0  0  0  0  1  0  0  0  0  0  0
  189.0490  174.4540  135.2840 C   0  0  0  0  0  1  0  0  0  0  0  0
  1 17  1  0  0  0  0
  2 27  1  0  0  0  0
  3  4  1  0  0  0  0
  4 21  1  0  0  0  0
  5  6  2  0  0  0  0
  6 28  1  0  0  0  0
  6 18  1  0  0  0  0
  7 19  1  6  0  0  0
  7 24  1  0  0  0  0
  8 12  1  0  0  0  0
 10  1  2  0  0  0  0
 11 13  1  0  0  0  0
 11  3  1  0  0  0  0
 12  2  2  0  0  0  0
 12 13  1  0  0  0  0
 13 22  2  0  0  0  0
 14 23  1  0  0  0  0
 15  9  1  0  0  0  0
 16 19  1  0  0  0  0
 17  8  1  6  0  0  0
 17  7  1  0  0  0  0
 18 15  2  0  0  0  0
 20  1  1  0  0  0  0
 20 16  1  0  0  0  0
 22 14  1  0  0  0  0
 22 21  1  0  0  0  0
 23 28  1  0  0  0  0
 24  2  1  0  0  0  0
 25  5  1  0  0  0  0
 26  9  2  0  0  0  0
 27 14  2  0  0  0  0
 27  5  1  0  0  0  0
 28 26  1  1  0  0  0
 29 31  1  0  0  0  0
 29 20  1  0  0  0  0
 30 29  1  0  0  0  0
 32 29  1  0  0  0  0
M  END
>  <MODEL>
3

>  <REMARK>
 VINA RESULT:     -10.1      1.498      2.051
  Name = 
  1 active torsions:
  status: ('A' for Active; 'I' for Inactive)
    1  A    between atoms: C_1  and  N_24
                            x       y       z     vdW  Elec       q    Type
                         _______ _______ _______ _____ _____    ______ ____

>  <TORSDO>
F 1

$$$$
=
 OpenBabel10272413233D

 32 37  0  0  1  0  0  0  0  0999 V2000
  183.1210  178.4430  138.9580 C   0  0  0  0  0  0  0  0  0  0  0  0
  186.2570  178.2970  141.8900 C   0  0  0  0  0  0  0  0  0  0  0  0
  183.4850  178.8240  145.9770 O   0  0  0  0  0  0  0  0  0  0  0  0
  184.7400  178.8000  146.6990 C   0  0  0  0  0  2  0  0  0  0  0  0
  188.7350  177.3840  142.2830 C   0  0  0  0  0  0  0  0  0  0  0  0
  189.6470  176.9690  143.2080 C   0  0  0  0  0  0  0  0  0  0  0  0
  185.5510  178.8190  139.4910 C   0  0  2  0  0  3  0  0  0  0  0  0
  183.9070  178.9010  141.3650 C   0  0  0  0  0  2  0  0  0  0  0  0
  191.5170  176.4690  145.3310 C   0  0  0  0  0  3  0  0  0  0  0  0
  182.1680  179.4010  138.8470 C   0  0  0  0  0  2  0  0  0  0  0  0
  183.5900  178.9660  144.5580 C   0  0  0  0  0  2  0  0  0  0  0  0
  184.9790  178.5030  142.3700 C   0  0  0  0  0  0  0  0  0  0  0  0
  184.8400  178.5590  143.7970 C   0  0  0  0  0  0  0  0  0  0  0  0
  187.1000  177.9080  144.0950 C   0  0  0  0  0  0  0  0  0  0  0  0
  191.8120  176.1530  143.8590 C   0  0  0  0  0  3  0  0  0  0  0  0
  184.8690  177.3920  137.5210 C   0  0  0  0  0  2  0  0  0  0  0  0
  184.1640  178.3710  139.9700 C   0  0  1  0  0  3  0  0  0  0  0  0
  190.9730  176.3690  142.8620 C   0  0  0  0  0  2  0  0  0  0  0  0
  185.7850  178.4420  138.0180 C   0  0  0  0  0  2  0  0  0  0  0  0
  183.4690  177.6700  137.7760 N   0  0  0  0  0  0  0  0  0  0  0  0
  185.7990  178.1760  145.9810 O   0  0  0  0  0  0  0  0  0  0  0  0
  185.9250  178.2450  144.5640 C   0  0  0  0  0  0  0  0  0  0  0  0
  188.2140  177.8460  144.9970 O   0  0  0  0  0  0  0  0  0  0  0  0
  186.5170  178.0700  140.3800 C   0  0  0  0  0  2  0  0  0  0  0  0
  189.0770  177.3680  140.9180 O   0  0  0  0  0  1  0  0  0  0  0  0
  190.3250  176.8670  145.7480 C   0  0  0  0  0  3  0  0  0  0  0  0
  187.3610  177.7910  142.7150 C   0  0  0  0  0  0  0  0  0  0  0  0
  189.2450  176.9780  144.7070 C   0  0  0  0  0  0  0  0  0  0  0  0
  182.5060  177.0400  136.7730 C   0  0  0  0  0  0  0  0  0  0  0  0
  181.8940  177.9880  135.7000 C   0  0  0  0  0  1  0  0  0  0  0  0
  183.2000  175.9690  135.8780 C   0  0  0  0  0  1  0  0  0  0  0  0
  181.3560  176.3120  137.4240 C   0  0  0  0  0  1  0  0  0  0  0  0
  1 17  1  0  0  0  0
  2 12  2  0  0  0  0
  2 27  1  0  0  0  0
  3  4  1  0  0  0  0
  5 27  1  0  0  0  0
  5  6  2  0  0  0  0
  6 28  1  0  0  0  0
  7 19  1  6  0  0  0
  7 17  1  0  0  0  0
  7 24  1  0  0  0  0
  8 12  1  0  0  0  0
  9 26  1  0  0  0  0
 10  1  2  0  0  0  0
 11  3  1  0  0  0  0
 12 13  1  0  0  0  0
 13 11  1  0  0  0  0
 13 22  2  0  0  0  0
 14 22  1  0  0  0  0
 14 23  1  0  0  0  0
 15  9  2  0  0  0  0
 16 20  1  0  0  0  0
 16 19  1  0  0  0  0
 17  8  1  1  0  0  0
 18  6  1  0  0  0  0
 18 15  1  0  0  0  0
 20  1  1  0  0  0  0
 21  4  1  0  0  0  0
 22 21  1  0  0  0  0
 24  2  1  0  0  0  0
 25  5  1  0  0  0  0
 27 14  2  0  0  0  0
 28 23  1  0  0  0  0
 28 26  2  0  0  0  0
 29 32  1  0  0  0  0
 29 20  1  0  0  0  0
 30 29  1  0  0  0  0
 31 29  1  0  0  0  0
M  END
>  <MODEL>
4

>  <REMARK>
 VINA RESULT:      -9.5      2.613      3.870
  Name = 
  1 active torsions:
  status: ('A' for Active; 'I' for Inactive)
    1  A    between atoms: C_1  and  N_24
                            x       y       z     vdW  Elec       q    Type
                         _______ _______ _______ _____ _____    ______ ____

>  <TORSDO>
F 1

$$$$
=
 OpenBabel10272413233D

 32 37  0  0  1  0  0  0  0  0999 V2000
  183.0560  179.2490  138.8440 C   0  0  0  0  0  0  0  0  0  0  0  0
  185.7860  178.0370  141.9310 C   0  0  0  0  0  0  0  0  0  0  0  0
  189.9770  178.0370  139.2660 O   0  0  0  0  0  0  0  0  0  0  0  0
  190.6180  177.5680  140.4770 C   0  0  0  0  0  2  0  0  0  0  0  0
  186.1020  178.0270  144.5820 C   0  0  0  0  0  0  0  0  0  0  0  0
  187.0010  178.0160  145.6080 C   0  0  0  0  0  0  0  0  0  0  0  0
  183.4000  178.0330  141.0200 C   0  0  2  0  0  3  0  0  0  0  0  0
  185.3590  178.3070  139.5010 C   0  0  0  0  0  2  0  0  0  0  0  0
  189.0370  177.6410  147.5990 C   0  0  0  0  0  3  0  0  0  0  0  0
  182.9210  178.6800  137.6210 C   0  0  0  0  0  2  0  0  0  0  0  0
  188.5480  178.0180  139.2750 C   0  0  0  0  0  2  0  0  0  0  0  0
  186.3250  178.2180  140.6740 C   0  0  0  0  0  0  0  0  0  0  0  0
  187.7480  178.0630  140.5660 C   0  0  0  0  0  0  0  0  0  0  0  0
  187.9600  177.8900  142.9210 C   0  0  0  0  0  0  0  0  0  0  0  0
  187.5840  177.9930  147.9400 C   0  0  0  0  0  3  0  0  0  0  0  0
  181.6110  179.8030  140.8010 C   0  0  0  0  0  2  0  0  0  0  0  0
  184.0030  178.8640  139.8800 C   0  0  1  0  0  3  0  0  0  0  0  0
  186.6270  178.1740  147.0480 C   0  0  0  0  0  3  0  0  0  0  0  0
  181.9540  178.4620  141.3240 C   0  0  0  0  0  2  0  0  0  0  0  0
  181.9270  179.9820  139.3970 N   0  0  0  0  0  0  0  0  0  0  0  0
  189.8920  177.8750  141.6620 O   0  0  0  0  0  0  0  0  0  0  0  0
  188.4700  177.9170  141.7160 C   0  0  0  0  0  0  0  0  0  0  0  0
  188.7920  177.4840  144.0170 O   0  0  0  0  0  0  0  0  0  0  0  0
  184.2890  178.3210  142.2080 C   0  0  0  0  0  2  0  0  0  0  0  0
  184.7240  178.0710  144.8700 O   0  0  0  0  0  1  0  0  0  0  0  0
  189.4920  177.6210  146.3560 C   0  0  0  0  0  3  0  0  0  0  0  0
  186.5820  178.0570  143.1650 C   0  0  0  0  0  0  0  0  0  0  0  0
  188.5160  177.9850  145.2710 C   0  0  2  0  0  3  0  0  0  0  0  0
  181.0470  180.9970  138.6750 C   0  0  0  0  0  0  0  0  0  0  0  0
  180.1500  180.4520  137.5240 C   0  0  0  0  0  1  0  0  0  0  0  0
  179.9840  181.6370  139.6180 C   0  0  0  0  0  1  0  0  0  0  0  0
  181.8190  182.1650  138.1130 C   0  0  0  0  0  1  0  0  0  0  0  0
  1 20  1  0  0  0  0
  1 17  1  0  0  0  0
  2 24  1  0  0  0  0
  2 27  1  0  0  0  0
  3 11  1  0  0  0  0
  3  4  1  0  0  0  0
  4 21  1  0  0  0  0
  5 25  1  0  0  0  0
  5  6  2  0  0  0  0
  6 18  1  0  0  0  0
  7 19  1  1  0  0  0
  7 24  1  0  0  0  0
  8 12  1  0  0  0  0
  9 15  1  0  0  0  0
 10  1  2  0  0  0  0
 11 13  1  0  0  0  0
 12  2  2  0  0  0  0
 13 12  1  0  0  0  0
 13 22  2  0  0  0  0
 14 27  2  0  0  0  0
 14 23  1  0  0  0  0
 16 19  1  0  0  0  0
 17  8  1  6  0  0  0
 17  7  1  0  0  0  0
 18 15  2  0  0  0  0
 20 16  1  0  0  0  0
 21 22  1  0  0  0  0
 22 14  1  0  0  0  0
 23 28  1  0  0  0  0
 26  9  2  0  0  0  0
 27  5  1  0  0  0  0
 28  6  1  0  0  0  0
 28 26  1  1  0  0  0
 29 20  1  0  0  0  0
 29 31  1  0  0  0  0
 30 29  1  0  0  0  0
 32 29  1  0  0  0  0
M  END
>  <MODEL>
5

>  <REMARK>
 VINA RESULT:      -9.5      2.741      5.793
  Name = 
  1 active torsions:
  status: ('A' for Active; 'I' for Inactive)
    1  A    between atoms: C_1  and  N_24
                            x       y       z     vdW  Elec       q    Type
                         _______ _______ _______ _____ _____    ______ ____

>  <TORSDO>
F 1

$$$$
=
 OpenBabel10272413233D

 32 37  0  0  1  0  0  0  0  0999 V2000
  189.4510  176.8780  137.0550 C   0  0  0  0  0  0  0  0  0  0  0  0
  187.6790  178.1440  140.7570 C   0  0  0  0  0  0  0  0  0  0  0  0
  183.0580  178.9630  139.1330 O   0  0  0  0  0  0  0  0  0  0  0  0
  182.7750  179.3960  140.4860 C   0  0  0  0  0  2  0  0  0  0  0  0
  187.9550  177.9400  143.4050 C   0  0  0  0  0  0  0  0  0  0  0  0
  187.3140  177.9730  144.6090 C   0  0  0  0  0  0  0  0  0  0  0  0
  189.7810  177.9140  139.3240 C   0  0  2  0  0  3  0  0  0  0  0  0
  187.5190  178.0530  138.2820 C   0  0  0  0  0  2  0  0  0  0  0  0
  185.8430  178.4250  147.0340 C   0  0  0  0  0  3  0  0  0  0  0  0
  189.4020  177.5390  135.8720 C   0  0  0  0  0  2  0  0  0  0  0  0
  184.4410  178.7890  138.8140 C   0  0  0  0  0  2  0  0  0  0  0  0
  186.8570  178.1580  139.6490 C   0  0  0  0  0  0  0  0  0  0  0  0
  185.4860  178.5130  139.8810 C   0  0  0  0  0  0  0  0  0  0  0  0
  185.8220  178.4850  142.2280 C   0  0  0  0  0  0  0  0  0  0  0  0
  187.2640  177.8500  147.0080 C   0  0  0  0  0  3  0  0  0  0  0  0
  191.1880  175.9490  138.5880 C   0  0  0  0  0  2  0  0  0  0  0  0
  188.8240  177.2850  138.3030 C   0  0  1  0  0  3  0  0  0  0  0  0
  187.9640  177.6280  145.9100 C   0  0  0  0  0  3  0  0  0  0  0  0
  191.1750  177.2670  139.2590 C   0  0  0  0  0  2  0  0  0  0  0  0
  190.5490  175.9510  137.2860 N   0  0  0  0  0  0  0  0  0  0  0  0
  183.6870  178.8810  141.4510 O   0  0  0  0  0  0  0  0  0  0  0  0
  185.0640  178.6430  141.1730 C   0  0  0  0  0  0  0  0  0  0  0  0
  185.3210  178.8920  143.5090 O   0  0  0  0  0  0  0  0  0  0  0  0
  189.1390  177.6350  140.6630 C   0  0  0  0  0  2  0  0  0  0  0  0
  189.3380  177.6850  143.3650 O   0  0  0  0  0  1  0  0  0  0  0  0
  185.1360  178.6260  145.9330 C   0  0  0  0  0  3  0  0  0  0  0  0
  187.1780  178.1120  142.1370 C   0  0  0  0  0  0  0  0  0  0  0  0
  185.7850  178.2400  144.6310 C   0  0  2  0  0  3  0  0  0  0  0  0
  191.0840  174.9010  136.3170 C   0  0  0  0  0  0  0  0  0  0  0  0
  191.7920  175.4290  135.0340 C   0  0  0  0  0  1  0  0  0  0  0  0
  192.2090  174.0280  136.9520 C   0  0  0  0  0  1  0  0  0  0  0  0
  190.0360  173.9140  135.8650 C   0  0  0  0  0  1  0  0  0  0  0  0
  1 20  1  0  0  0  0
  1 17  1  0  0  0  0
  2 27  1  0  0  0  0
  3  4  1  0  0  0  0
  4 21  1  0  0  0  0
  5  6  2  0  0  0  0
  6 28  1  0  0  0  0
  6 18  1  0  0  0  0
  7 19  1  1  0  0  0
  7 24  1  0  0  0  0
  8 12  1  0  0  0  0
 10  1  2  0  0  0  0
 11  3  1  0  0  0  0
 11 13  1  0  0  0  0
 12 13  1  0  0  0  0
 12  2  2  0  0  0  0
 13 22  2  0  0  0  0
 14 23  1  0  0  0  0
 15  9  1  0  0  0  0
 16 19  1  0  0  0  0
 17  8  1  6  0  0  0
 17  7  1  0  0  0  0
 18 15  2  0  0  0  0
 20 16  1  0  0  0  0
 22 21  1  0  0  0  0
 22 14  1  0  0  0  0
 23 28  1  0  0  0  0
 24  2  1  0  0  0  0
 25  5  1  0  0  0  0
 26  9  2  0  0  0  0
 27 14  2  0  0  0  0
 27  5  1  0  0  0  0
 28 26  1  1  0  0  0
 29 31  1  0  0  0  0
 29 20  1  0  0  0  0
 30 29  1  0  0  0  0
 32 29  1  0  0  0  0
M  END
>  <MODEL>
6

>  <REMARK>
 VINA RESULT:      -9.3      1.491      2.333
  Name = 
  1 active torsions:
  status: ('A' for Active; 'I' for Inactive)
    1  A    between atoms: C_1  and  N_24
                            x       y       z     vdW  Elec       q    Type
                         _______ _______ _______ _____ _____    ______ ____

>  <TORSDO>
F 1

$$$$
=
 OpenBabel10272413233D

 32 37  0  0  1  0  0  0  0  0999 V2000
  182.8020  178.4090  141.8400 C   0  0  0  0  0  0  0  0  0  0  0  0
  187.0930  178.2890  141.6950 C   0  0  0  0  0  0  0  0  0  0  0  0
  187.9760  177.2970  146.4800 O   0  0  0  0  0  0  0  0  0  0  0  0
  189.3780  177.3810  146.1260 C   0  0  0  0  0  2  0  0  0  0  0  0
  189.1350  177.8610  140.0290 C   0  0  0  0  0  0  0  0  0  0  0  0
  190.4330  177.4560  139.9210 C   0  0  0  0  0  0  0  0  0  0  0  0
  184.9110  179.1660  140.6960 C   0  0  2  0  0  3  0  0  0  0  0  0
  185.0490  178.4790  143.0900 C   0  0  0  0  0  2  0  0  0  0  0  0
  193.2530  176.9090  139.9620 C   0  0  0  0  0  3  0  0  0  0  0  0
  182.0460  179.1420  142.6940 C   0  0  0  0  0  2  0  0  0  0  0  0
  187.0580  177.7680  145.4900 C   0  0  0  0  0  2  0  0  0  0  0  0
  186.5170  178.1070  142.9360 C   0  0  0  0  0  0  0  0  0  0  0  0
  187.4170  177.8160  144.0150 C   0  0  0  0  0  0  0  0  0  0  0  0
  189.2380  177.6110  142.5100 C   0  0  0  0  0  0  0  0  0  0  0  0
  192.4330  176.9970  138.6700 C   0  0  0  0  0  3  0  0  0  0  0  0
  183.0410  178.0980  139.3750 C   0  0  0  0  0  2  0  0  0  0  0  0
  184.2550  178.3380  141.8090 C   0  0  1  0  0  3  0  0  0  0  0  0
  191.1360  177.2430  138.6190 C   0  0  0  0  0  2  0  0  0  0  0  0
  184.0460  179.1830  139.4250 C   0  0  0  0  0  2  0  0  0  0  0  0
  182.2200  178.0080  140.5670 N   0  0  0  0  0  0  0  0  0  0  0  0
  189.6290  177.1720  144.7410 O   0  0  0  0  0  0  0  0  0  0  0  0
  188.7280  177.5780  143.7150 C   0  0  0  0  0  0  0  0  0  0  0  0
  190.6640  177.5890  142.3610 O   0  0  0  0  0  0  0  0  0  0  0  0
  186.2210  178.4620  140.4260 C   0  0  0  0  0  2  0  0  0  0  0  0
  188.4240  178.2210  138.8690 O   0  0  0  0  0  1  0  0  0  0  0  0
  192.6950  176.9410  141.1630 C   0  0  0  0  0  3  0  0  0  0  0  0
  188.4580  177.8600  141.3640 C   0  0  0  0  0  0  0  0  0  0  0  0
  191.1950  177.0470  141.2110 C   0  0  0  0  0  0  0  0  0  0  0  0
  180.8300  177.4260  140.3350 C   0  0  0  0  0  0  0  0  0  0  0  0
  180.7620  175.9410  139.8680 C   0  0  0  0  0  1  0  0  0  0  0  0
  179.9820  177.3760  141.6420 C   0  0  0  0  0  1  0  0  0  0  0  0
  179.9980  178.2290  139.3650 C   0  0  0  0  0  1  0  0  0  0  0  0
  1 10  2  0  0  0  0
  2 12  1  0  0  0  0
  4  3  1  0  0  0  0
  5 27  1  0  0  0  0
  6  5  2  0  0  0  0
  6 28  1  0  0  0  0
  7 19  1  6  0  0  0
  7 17  1  0  0  0  0
  9 26  1  0  0  0  0
 11  3  1  0  0  0  0
 12  8  1  0  0  0  0
 12 13  2  0  0  0  0
 13 11  1  0  0  0  0
 14 22  2  0  0  0  0
 15  9  2  0  0  0  0
 16 19  1  0  0  0  0
 16 20  1  0  0  0  0
 17  1  1  0  0  0  0
 17  8  1  1  0  0  0
 18 15  1  0  0  0  0
 18  6  1  0  0  0  0
 20  1  1  0  0  0  0
 21  4  1  0  0  0  0
 22 13  1  0  0  0  0
 22 21  1  0  0  0  0
 23 14  1  0  0  0  0
 24  7  1  0  0  0  0
 24  2  1  0  0  0  0
 25  5  1  0  0  0  0
 26 28  2  0  0  0  0
 27  2  2  0  0  0  0
 27 14  1  0  0  0  0
 28 23  1  0  0  0  0
 29 20  1  0  0  0  0
 29 31  1  0  0  0  0
 30 29  1  0  0  0  0
 32 29  1  0  0  0  0
M  END
>  <MODEL>
7

>  <REMARK>
 VINA RESULT:      -8.5      2.804      6.472
  Name = 
  1 active torsions:
  status: ('A' for Active; 'I' for Inactive)
    1  A    between atoms: C_1  and  N_24
                            x       y       z     vdW  Elec       q    Type
                         _______ _______ _______ _____ _____    ______ ____

>  <TORSDO>
F 1

$$$$
=
 OpenBabel10272413233D

 32 37  0  0  1  0  0  0  0  0999 V2000
  189.1740  176.7100  136.0850 C   0  0  0  0  0  0  0  0  0  0  0  0
  185.9630  178.1050  138.5730 C   0  0  0  0  0  0  0  0  0  0  0  0
  182.1490  176.8180  135.6640 O   0  0  0  0  0  0  0  0  0  0  0  0
  181.3120  177.4310  136.6750 C   0  0  0  0  0  2  0  0  0  0  0  0
  185.3480  178.6490  141.1140 C   0  0  0  0  0  0  0  0  0  0  0  0
  184.3450  178.7370  142.0340 C   0  0  0  0  0  0  0  0  0  0  0  0
  188.4130  178.3030  137.8770 C   0  0  2  0  0  3  0  0  0  0  0  0
  186.7010  177.3780  136.3170 C   0  0  0  0  0  2  0  0  0  0  0  0
  182.0610  179.2000  143.7140 C   0  0  0  0  0  3  0  0  0  0  0  0
  189.3650  177.0090  134.7760 C   0  0  0  0  0  2  0  0  0  0  0  0
  183.5500  177.0770  135.7800 C   0  0  0  0  0  2  0  0  0  0  0  0
  185.6030  177.5630  137.3560 C   0  0  0  0  0  0  0  0  0  0  0  0
  184.1950  177.4520  137.1030 C   0  0  0  0  0  0  0  0  0  0  0  0
  183.6920  178.1040  139.3270 C   0  0  0  0  0  0  0  0  0  0  0  0
  183.5010  179.1790  144.2410 C   0  0  0  0  0  3  0  0  0  0  0  0
  190.4510  176.8510  138.2250 C   0  0  0  0  0  2  0  0  0  0  0  0
  188.0700  177.1520  136.9230 C   0  0  1  0  0  3  0  0  0  0  0  0
  184.5700  178.9660  143.4950 C   0  0  0  0  0  3  0  0  0  0  0  0
  189.8600  178.1980  138.3860 C   0  0  0  0  0  2  0  0  0  0  0  0
  190.3260  176.3160  136.8830 N   0  0  0  0  0  0  0  0  0  0  0  0
  181.9340  177.5190  137.9530 O   0  0  0  0  0  0  0  0  0  0  0  0
  183.3330  177.7270  138.1260 C   0  0  0  0  0  0  0  0  0  0  0  0
  182.6900  178.5980  140.2270 O   0  0  0  0  0  0  0  0  0  0  0  0
  187.4440  178.1420  139.0260 C   0  0  0  0  0  2  0  0  0  0  0  0
  186.6750  178.9000  141.5100 O   0  0  0  0  0  1  0  0  0  0  0  0
  181.7540  178.8690  142.4690 C   0  0  0  0  0  3  0  0  0  0  0  0
  185.0420  178.2260  139.7110 C   0  0  0  0  0  0  0  0  0  0  0  0
  182.8900  178.4410  141.5810 C   0  0  2  0  0  3  0  0  0  0  0  0
  191.4200  175.3270  136.4920 C   0  0  0  0  0  0  0  0  0  0  0  0
  192.5370  175.8570  135.5450 C   0  0  0  0  0  1  0  0  0  0  0  0
  192.2550  174.8520  137.7190 C   0  0  0  0  0  1  0  0  0  0  0  0
  190.8860  174.0590  135.8730 C   0  0  0  0  0  1  0  0  0  0  0  0
  1 20  1  0  0  0  0
  1 17  1  0  0  0  0
  2 24  1  0  0  0  0
  2 27  1  0  0  0  0
  3 11  1  0  0  0  0
  3  4  1  0  0  0  0
  4 21  1  0  0  0  0
  5 25  1  0  0  0  0
  5  6  2  0  0  0  0
  6 18  1  0  0  0  0
  7 19  1  1  0  0  0
  7 24  1  0  0  0  0
  8 12  1  0  0  0  0
  9 15  1  0  0  0  0
 10  1  2  0  0  0  0
 11 13  1  0  0  0  0
 12  2  2  0  0  0  0
 13 12  1  0  0  0  0
 13 22  2  0  0  0  0
 14 27  2  0  0  0  0
 14 23  1  0  0  0  0
 16 19  1  0  0  0  0
 17  8  1  6  0  0  0
 17  7  1  0  0  0  0
 18 15  2  0  0  0  0
 20 16  1  0  0  0  0
 21 22  1  0  0  0  0
 22 14  1  0  0  0  0
 23 28  1  0  0  0  0
 26  9  2  0  0  0  0
 27  5  1  0  0  0  0
 28  6  1  0  0  0  0
 28 26  1  1  0  0  0
 29 20  1  0  0  0  0
 29 31  1  0  0  0  0
 30 29  1  0  0  0  0
 32 29  1  0  0  0  0
M  END
>  <MODEL>
8

>  <REMARK>
 VINA RESULT:      -7.7      3.158      5.040
  Name = 
  1 active torsions:
  status: ('A' for Active; 'I' for Inactive)
    1  A    between atoms: C_1  and  N_24
                            x       y       z     vdW  Elec       q    Type
                         _______ _______ _______ _____ _____    ______ ____

>  <TORSDO>
F 1

$$$$
