=
 OpenBabel10272402003D

 28 32  0  0  1  0  0  0  0  0999 V2000
  186.4910  177.9180  142.2880 C   0  0  2  0  0  3  0  0  0  0  0  0
  190.4160  176.7460  145.6100 C   0  0  0  0  0  3  0  0  0  0  0  0
  184.6360  178.4550  146.7600 F   0  0  0  0  0  0  0  0  0  0  0  0
  189.5190  177.4390  147.7610 C   0  0  0  0  0  0  0  0  0  0  0  0
  188.0940  177.5110  145.7820 C   0  0  0  0  0  0  0  0  0  0  0  0
  191.8150  176.6890  147.5860 C   0  0  0  0  0  0  0  0  0  0  0  0
  189.3410  177.2300  146.3720 C   0  0  0  0  0  0  0  0  0  0  0  0
  187.2230  178.1780  147.9540 C   0  0  0  0  0  3  0  0  0  0  0  0
  190.7530  177.1680  148.3580 C   0  0  0  0  0  3  0  0  0  0  0  0
  185.6010  178.3520  144.6260 C   0  0  0  0  0  0  0  0  0  0  0  0
  187.8310  177.2240  144.3290 C   0  0  0  0  0  2  0  0  0  0  0  0
  188.4600  177.9090  148.5410 C   0  0  0  0  0  3  0  0  0  0  0  0
  184.0670  178.8560  142.7530 C   0  0  0  0  0  3  0  0  0  0  0  0
  185.7230  178.2820  145.9630 C   0  0  0  0  0  0  0  0  0  0  0  0
  184.2630  178.5540  144.0360 C   0  0  0  0  0  3  0  0  0  0  0  0
  193.0400  176.4210  148.1830 O   0  0  0  0  0  1  0  0  0  0  0  0
  191.6460  176.4770  146.2150 C   0  0  0  0  0  3  0  0  0  0  0  0
  187.0330  177.9870  146.5810 C   0  0  0  0  0  0  0  0  0  0  0  0
  185.4160  179.2330  141.6300 S   0  0  0  0  0  0  0  0  0  0  0  0
  186.8410  178.2430  143.7480 C   0  0  1  0  0  3  0  0  0  0  0  0
  187.7100  177.7870  141.4230 C   0  0  0  0  0  0  0  0  0  0  0  0
  187.8150  178.4750  140.2040 C   0  0  0  0  0  3  0  0  0  0  0  0
  190.0100  177.5130  139.8430 C   0  0  0  0  0  0  0  0  0  0  0  0
  188.7580  176.9610  141.8440 C   0  0  0  0  0  3  0  0  0  0  0  0
  189.0560  179.0280  138.2130 O   0  0  0  0  0  1  0  0  0  0  0  0
  188.9620  178.3390  139.4170 C   0  0  0  0  0  0  0  0  0  0  0  0
  191.1540  177.3720  139.0690 O   0  0  0  0  0  1  0  0  0  0  0  0
  189.9050  176.8250  141.0560 C   0  0  0  0  0  3  0  0  0  0  0  0
  1 21  1  6  0  0  0
  1 20  1  0  0  0  0
  2 17  2  0  0  0  0
  2  7  1  0  0  0  0
  4  9  1  0  0  0  0
  4 12  1  0  0  0  0
  5  7  1  0  0  0  0
  5 18  2  0  0  0  0
  6 16  1  0  0  0  0
  6  9  2  0  0  0  0
  7  4  2  0  0  0  0
  8 12  2  0  0  0  0
 10 14  2  0  0  0  0
 11  5  1  0  0  0  0
 13 15  2  0  0  0  0
 14 18  1  0  0  0  0
 14  3  1  0  0  0  0
 15 10  1  0  0  0  0
 17  6  1  0  0  0  0
 18  8  1  0  0  0  0
 19  1  1  0  0  0  0
 19 13  1  0  0  0  0
 20 11  1  1  0  0  0
 20 10  1  0  0  0  0
 21 24  1  0  0  0  0
 22 21  2  0  0  0  0
 23 28  1  0  0  0  0
 25 26  1  0  0  0  0
 26 23  2  0  0  0  0
 26 22  1  0  0  0  0
 27 23  1  0  0  0  0
 28 24  2  0  0  0  0
M  END
>  <MODEL>
1

>  <REMARK>
 VINA RESULT:     -12.0      0.000      0.000
  Name = 
  1 active torsions:
  status: ('A' for Active; 'I' for Inactive)
    1  A    between atoms: C_1  and  C_2
                            x       y       z     vdW  Elec       q    Type
                         _______ _______ _______ _____ _____    ______ ____

>  <TORSDO>
F 1

$$$$
=
 OpenBabel10272402003D

 28 32  0  0  1  0  0  0  0  0999 V2000
  186.5940  177.7140  145.9850 C   0  0  2  0  0  3  0  0  0  0  0  0
  188.4600  177.3690  141.0640 C   0  0  0  0  0  3  0  0  0  0  0  0
  191.3740  176.8900  146.4430 F   0  0  0  0  0  0  0  0  0  0  0  0
  190.8670  177.3760  141.4050 C   0  0  0  0  0  0  0  0  0  0  0  0
  189.3780  177.2960  143.3350 C   0  0  0  0  0  0  0  0  0  0  0  0
  189.9570  177.4550  139.1620 C   0  0  0  0  0  0  0  0  0  0  0  0
  189.5570  177.3470  141.9400 C   0  0  0  0  0  0  0  0  0  0  0  0
  191.7920  177.2850  143.6390 C   0  0  0  0  0  3  0  0  0  0  0  0
  191.0590  177.4310  140.0210 C   0  0  0  0  0  3  0  0  0  0  0  0
  189.1110  177.4520  146.1920 C   0  0  0  0  0  0  0  0  0  0  0  0
  188.0090  177.1770  143.9470 C   0  0  0  0  0  2  0  0  0  0  0  0
  191.9740  177.3430  142.2570 C   0  0  0  0  0  3  0  0  0  0  0  0
  187.8550  177.7210  148.3040 C   0  0  0  0  0  3  0  0  0  0  0  0
  190.3170  177.2110  145.6500 C   0  0  0  0  0  0  0  0  0  0  0  0
  188.9350  177.2980  147.6500 C   0  0  0  0  0  3  0  0  0  0  0  0
  190.1520  177.5100  137.7880 O   0  0  0  0  0  1  0  0  0  0  0  0
  188.6610  177.4230  139.6820 C   0  0  0  0  0  3  0  0  0  0  0  0
  190.5040  177.2650  144.1840 C   0  0  0  0  0  0  0  0  0  0  0  0
  186.5650  178.6940  147.5200 S   0  0  0  0  0  0  0  0  0  0  0  0
  187.9580  177.8960  145.3010 C   0  0  1  0  0  3  0  0  0  0  0  0
  185.4530  178.1280  145.1030 C   0  0  0  0  0  0  0  0  0  0  0  0
  185.5310  178.0080  143.7060 C   0  0  0  0  0  3  0  0  0  0  0  0
  183.2920  178.9110  143.4980 C   0  0  0  0  0  0  0  0  0  0  0  0
  184.2920  178.6430  145.6890 C   0  0  0  0  0  3  0  0  0  0  0  0
  184.5410  178.2720  141.5250 O   0  0  0  0  0  1  0  0  0  0  0  0
  184.4530  178.3980  142.9060 C   0  0  0  0  0  0  0  0  0  0  0  0
  182.2160  179.3000  142.7120 O   0  0  0  0  0  1  0  0  0  0  0  0
  183.2140  179.0340  144.8890 C   0  0  0  0  0  3  0  0  0  0  0  0
  1 21  1  6  0  0  0
  1 19  1  0  0  0  0
  2  7  1  0  0  0  0
  4  7  2  0  0  0  0
  4 12  1  0  0  0  0
  5 11  1  0  0  0  0
  5 18  2  0  0  0  0
  6 17  1  0  0  0  0
  6  9  2  0  0  0  0
  7  5  1  0  0  0  0
  8 18  1  0  0  0  0
  9  4  1  0  0  0  0
 10 15  1  0  0  0  0
 12  8  2  0  0  0  0
 14 10  2  0  0  0  0
 14  3  1  0  0  0  0
 15 13  2  0  0  0  0
 16  6  1  0  0  0  0
 17  2  2  0  0  0  0
 18 14  1  0  0  0  0
 19 13  1  0  0  0  0
 20 11  1  6  0  0  0
 20  1  1  0  0  0  0
 20 10  1  0  0  0  0
 21 24  1  0  0  0  0
 22 21  2  0  0  0  0
 23 28  1  0  0  0  0
 25 26  1  0  0  0  0
 26 23  2  0  0  0  0
 26 22  1  0  0  0  0
 27 23  1  0  0  0  0
 28 24  2  0  0  0  0
M  END
>  <MODEL>
2

>  <REMARK>
 VINA RESULT:     -11.9      2.915      6.276
  Name = 
  1 active torsions:
  status: ('A' for Active; 'I' for Inactive)
    1  A    between atoms: C_1  and  C_2
                            x       y       z     vdW  Elec       q    Type
                         _______ _______ _______ _____ _____    ______ ____

>  <TORSDO>
F 1

$$$$
=
 OpenBabel10272402003D

 28 32  0  0  1  0  0  0  0  0999 V2000
  190.1770  177.4240  143.2240 C   0  0  2  0  0  3  0  0  0  0  0  0
  185.0990  178.8150  142.9180 C   0  0  0  0  0  3  0  0  0  0  0  0
  188.6090  177.7040  147.8270 F   0  0  0  0  0  0  0  0  0  0  0  0
  184.3270  178.5210  145.2050 C   0  0  0  0  0  0  0  0  0  0  0  0
  186.6960  178.2480  144.6890 C   0  0  0  0  0  0  0  0  0  0  0  0
  182.7510  179.0760  143.4530 C   0  0  0  0  0  0  0  0  0  0  0  0
  185.3840  178.5280  144.2620 C   0  0  0  0  0  0  0  0  0  0  0  0
  185.8920  177.9800  146.9700 C   0  0  0  0  0  3  0  0  0  0  0  0
  183.0190  178.7940  144.7950 C   0  0  0  0  0  3  0  0  0  0  0  0
  189.2890  177.4140  145.6030 C   0  0  0  0  0  0  0  0  0  0  0  0
  187.8620  178.3270  143.7420 C   0  0  0  0  0  2  0  0  0  0  0  0
  184.5890  178.2500  146.5500 C   0  0  0  0  0  3  0  0  0  0  0  0
  191.6490  176.7380  145.3050 C   0  0  0  0  0  3  0  0  0  0  0  0
  188.3240  177.6790  146.4990 C   0  0  0  0  0  0  0  0  0  0  0  0
  190.6740  177.2170  146.0760 C   0  0  0  0  0  3  0  0  0  0  0  0
  181.4510  179.3460  143.0480 O   0  0  0  0  0  1  0  0  0  0  0  0
  183.7890  179.0870  142.5170 C   0  0  0  0  0  3  0  0  0  0  0  0
  186.9460  177.9730  146.0500 C   0  0  0  0  0  0  0  0  0  0  0  0
  191.3540  176.1020  143.6530 S   0  0  0  0  0  0  0  0  0  0  0  0
  188.9380  177.3020  144.1250 C   0  0  1  0  0  3  0  0  0  0  0  0
  189.8340  177.3380  141.7660 C   0  0  0  0  0  0  0  0  0  0  0  0
  188.6880  177.9640  141.2480 C   0  0  0  0  0  3  0  0  0  0  0  0
  189.2390  177.1530  139.0320 C   0  0  0  0  0  0  0  0  0  0  0  0
  190.6750  176.6190  140.9100 C   0  0  0  0  0  3  0  0  0  0  0  0
  187.2560  178.4970  139.3850 O   0  0  0  0  0  1  0  0  0  0  0  0
  188.3920  177.8720  139.8860 C   0  0  0  0  0  0  0  0  0  0  0  0
  188.9530  177.0560  137.6770 O   0  0  0  0  0  1  0  0  0  0  0  0
  190.3780  176.5270  139.5470 C   0  0  0  0  0  3  0  0  0  0  0  0
  1 21  1  6  0  0  0
  1 19  1  0  0  0  0
  1 20  1  0  0  0  0
  2  7  1  0  0  0  0
  4 12  1  0  0  0  0
  5 18  2  0  0  0  0
  6  9  2  0  0  0  0
  7  5  1  0  0  0  0
  7  4  2  0  0  0  0
  9  4  1  0  0  0  0
 10 15  1  0  0  0  0
 10 14  2  0  0  0  0
 11  5  1  0  0  0  0
 12  8  2  0  0  0  0
 13 15  2  0  0  0  0
 14  3  1  0  0  0  0
 16  6  1  0  0  0  0
 17  2  2  0  0  0  0
 17  6  1  0  0  0  0
 18 14  1  0  0  0  0
 18  8  1  0  0  0  0
 19 13  1  0  0  0  0
 20 11  1  6  0  0  0
 20 10  1  0  0  0  0
 22 21  1  0  0  0  0
 23 28  2  0  0  0  0
 23 26  1  0  0  0  0
 24 21  2  0  0  0  0
 25 26  1  0  0  0  0
 26 22  2  0  0  0  0
 27 23  1  0  0  0  0
 28 24  1  0  0  0  0
M  END
>  <MODEL>
3

>  <REMARK>
 VINA RESULT:     -11.7      2.859      5.373
  Name = 
  1 active torsions:
  status: ('A' for Active; 'I' for Inactive)
    1  A    between atoms: C_1  and  C_2
                            x       y       z     vdW  Elec       q    Type
                         _______ _______ _______ _____ _____    ______ ____

>  <TORSDO>
F 1

$$$$
=
 OpenBabel10272402003D

 28 32  0  0  1  0  0  0  0  0999 V2000
  190.5850  177.3020  144.6470 C   0  0  2  0  0  3  0  0  0  0  0  0
  185.7270  178.6370  143.0890 C   0  0  0  0  0  3  0  0  0  0  0  0
  187.9920  177.8420  148.7350 F   0  0  0  0  0  0  0  0  0  0  0  0
  184.4430  178.4740  145.1470 C   0  0  0  0  0  0  0  0  0  0  0  0
  186.8650  178.1870  145.2120 C   0  0  0  0  0  0  0  0  0  0  0  0
  183.3200  178.9130  143.0460 C   0  0  0  0  0  0  0  0  0  0  0  0
  185.6890  178.4320  144.4760 C   0  0  0  0  0  0  0  0  0  0  0  0
  185.5510  178.0480  147.2550 C   0  0  0  0  0  3  0  0  0  0  0  0
  183.2680  178.7130  144.4280 C   0  0  0  0  0  3  0  0  0  0  0  0
  189.1690  177.4260  146.7510 C   0  0  0  0  0  0  0  0  0  0  0  0
  188.2190  178.2180  144.5590 C   0  0  0  0  0  2  0  0  0  0  0  0
  184.3830  178.2830  146.5290 C   0  0  0  0  0  3  0  0  0  0  0  0
  191.5280  176.7500  147.0500 C   0  0  0  0  0  3  0  0  0  0  0  0
  188.0230  177.7360  147.3800 C   0  0  0  0  0  0  0  0  0  0  0  0
  190.4050  177.2670  147.5430 C   0  0  0  0  0  3  0  0  0  0  0  0
  182.1520  179.1500  142.3350 O   0  0  0  0  0  1  0  0  0  0  0  0
  184.5480  178.8760  142.3780 C   0  0  0  0  0  3  0  0  0  0  0  0
  186.7890  177.9940  146.6070 C   0  0  0  0  0  0  0  0  0  0  0  0
  191.6210  176.0150  145.4140 S   0  0  0  0  0  0  0  0  0  0  0  0
  189.1700  177.2250  145.2410 C   0  0  1  0  0  3  0  0  0  0  0  0
  190.5900  177.1280  143.1570 C   0  0  0  0  0  0  0  0  0  0  0  0
  191.7330  177.4160  142.3930 C   0  0  0  0  0  3  0  0  0  0  0  0
  190.5520  176.7820  140.3750 C   0  0  0  0  0  0  0  0  0  0  0  0
  189.4310  176.6700  142.5200 C   0  0  0  0  0  3  0  0  0  0  0  0
  192.8530  177.5290  140.2630 O   0  0  0  0  0  1  0  0  0  0  0  0
  191.7140  177.2420  141.0070 C   0  0  0  0  0  0  0  0  0  0  0  0
  190.5240  176.6060  138.9980 O   0  0  0  0  0  1  0  0  0  0  0  0
  189.4130  176.4970  141.1340 C   0  0  0  0  0  3  0  0  0  0  0  0
  1 21  1  6  0  0  0
  1 20  1  0  0  0  0
  1 19  1  0  0  0  0
  2  7  1  0  0  0  0
  4 12  1  0  0  0  0
  5 18  2  0  0  0  0
  6  9  2  0  0  0  0
  7  4  2  0  0  0  0
  7  5  1  0  0  0  0
  9  4  1  0  0  0  0
 10 14  2  0  0  0  0
 10 15  1  0  0  0  0
 11  5  1  0  0  0  0
 12  8  2  0  0  0  0
 13 15  2  0  0  0  0
 14  3  1  0  0  0  0
 16  6  1  0  0  0  0
 17  6  1  0  0  0  0
 17  2  2  0  0  0  0
 18  8  1  0  0  0  0
 18 14  1  0  0  0  0
 19 13  1  0  0  0  0
 20 11  1  6  0  0  0
 20 10  1  0  0  0  0
 22 21  2  0  0  0  0
 23 26  2  0  0  0  0
 23 28  1  0  0  0  0
 24 21  1  0  0  0  0
 25 26  1  0  0  0  0
 26 22  1  0  0  0  0
 27 23  1  0  0  0  0
 28 24  2  0  0  0  0
M  END
>  <MODEL>
4

>  <REMARK>
 VINA RESULT:     -11.6      2.600      5.506
  Name = 
  1 active torsions:
  status: ('A' for Active; 'I' for Inactive)
    1  A    between atoms: C_1  and  C_2
                            x       y       z     vdW  Elec       q    Type
                         _______ _______ _______ _____ _____    ______ ____

>  <TORSDO>
F 1

$$$$
=
 OpenBabel10272402003D

 28 32  0  0  1  0  0  0  0  0999 V2000
  189.0550  178.0800  145.6910 C   0  0  2  0  0  3  0  0  0  0  0  0
  185.8500  178.9130  141.5870 C   0  0  0  0  0  3  0  0  0  0  0  0
  184.5820  178.4940  147.5760 F   0  0  0  0  0  0  0  0  0  0  0  0
  183.6420  178.6900  142.5800 C   0  0  0  0  0  0  0  0  0  0  0  0
  185.6180  178.6310  144.0100 C   0  0  0  0  0  0  0  0  0  0  0  0
  183.8740  178.9630  140.1850 C   0  0  0  0  0  0  0  0  0  0  0  0
  185.0490  178.7450  142.7270 C   0  0  0  0  0  0  0  0  0  0  0  0
  183.3930  178.4300  144.9730 C   0  0  0  0  0  3  0  0  0  0  0  0
  183.0640  178.7990  141.3130 C   0  0  0  0  0  3  0  0  0  0  0  0
  186.6950  178.1320  146.6270 C   0  0  0  0  0  0  0  0  0  0  0  0
  187.1000  178.7690  144.2260 C   0  0  0  0  0  2  0  0  0  0  0  0
  182.8250  178.5350  143.7030 C   0  0  0  0  0  3  0  0  0  0  0  0
  188.5120  177.6860  148.2440 C   0  0  0  0  0  3  0  0  0  0  0  0
  185.3780  178.3530  146.4830 C   0  0  0  0  0  0  0  0  0  0  0  0
  187.2770  178.1110  147.9840 C   0  0  0  0  0  3  0  0  0  0  0  0
  183.2970  179.0700  138.9270 O   0  0  0  0  0  1  0  0  0  0  0  0
  185.2640  179.0210  140.3230 C   0  0  0  0  0  3  0  0  0  0  0  0
  184.7820  178.4730  145.1350 C   0  0  0  0  0  0  0  0  0  0  0  0
  189.5540  176.9170  147.0010 S   0  0  0  0  0  0  0  0  0  0  0  0
  187.5600  177.8890  145.3960 C   0  0  1  0  0  3  0  0  0  0  0  0
  189.9090  177.8640  144.4760 C   0  0  0  0  0  0  0  0  0  0  0  0
  189.5420  176.9430  143.4810 C   0  0  0  0  0  3  0  0  0  0  0  0
  191.5360  177.4990  142.2220 C   0  0  0  0  0  0  0  0  0  0  0  0
  191.0940  178.5950  144.3370 C   0  0  0  0  0  3  0  0  0  0  0  0
  189.9770  175.8490  141.3790 O   0  0  0  0  0  1  0  0  0  0  0  0
  190.3530  176.7620  142.3580 C   0  0  0  0  0  0  0  0  0  0  0  0
  192.3480  177.3260  141.1090 O   0  0  0  0  0  1  0  0  0  0  0  0
  191.9050  178.4140  143.2140 C   0  0  0  0  0  3  0  0  0  0  0  0
  1 21  1  6  0  0  0
  1 19  1  0  0  0  0
  2  7  1  0  0  0  0
  4  7  2  0  0  0  0
  4 12  1  0  0  0  0
  5 11  1  0  0  0  0
  5 18  2  0  0  0  0
  6 17  1  0  0  0  0
  6  9  2  0  0  0  0
  7  5  1  0  0  0  0
  8 18  1  0  0  0  0
  9  4  1  0  0  0  0
 10 15  1  0  0  0  0
 12  8  2  0  0  0  0
 14 10  2  0  0  0  0
 14  3  1  0  0  0  0
 15 13  2  0  0  0  0
 16  6  1  0  0  0  0
 17  2  2  0  0  0  0
 18 14  1  0  0  0  0
 19 13  1  0  0  0  0
 20 11  1  6  0  0  0
 20  1  1  0  0  0  0
 20 10  1  0  0  0  0
 22 21  2  0  0  0  0
 23 26  2  0  0  0  0
 23 28  1  0  0  0  0
 24 21  1  0  0  0  0
 25 26  1  0  0  0  0
 26 22  1  0  0  0  0
 27 23  1  0  0  0  0
 28 24  2  0  0  0  0
M  END
>  <MODEL>
5

>  <REMARK>
 VINA RESULT:     -11.1      2.699      5.980
  Name = 
  1 active torsions:
  status: ('A' for Active; 'I' for Inactive)
    1  A    between atoms: C_1  and  C_2
                            x       y       z     vdW  Elec       q    Type
                         _______ _______ _______ _____ _____    ______ ____

>  <TORSDO>
F 1

$$$$
=
 OpenBabel10272402003D

 28 32  0  0  1  0  0  0  0  0999 V2000
  184.8070  178.3820  140.3940 C   0  0  2  0  0  3  0  0  0  0  0  0
  188.0860  177.4490  144.4180 C   0  0  0  0  0  3  0  0  0  0  0  0
  182.1070  178.8320  144.4240 F   0  0  0  0  0  0  0  0  0  0  0  0
  186.7590  178.1000  146.3490 C   0  0  0  0  0  0  0  0  0  0  0  0
  185.7350  178.0810  144.1350 C   0  0  0  0  0  0  0  0  0  0  0  0
  189.0830  177.4800  146.6250 C   0  0  0  0  0  0  0  0  0  0  0  0
  186.8600  177.8750  144.9550 C   0  0  0  0  0  0  0  0  0  0  0  0
  184.4310  178.7080  146.0910 C   0  0  0  0  0  3  0  0  0  0  0  0
  187.8690  177.9020  147.1740 C   0  0  0  0  0  3  0  0  0  0  0  0
  183.4660  178.7740  142.5140 C   0  0  0  0  0  0  0  0  0  0  0  0
  185.7700  177.7740  142.6620 C   0  0  0  0  0  2  0  0  0  0  0  0
  185.5460  178.5120  146.9060 C   0  0  0  0  0  3  0  0  0  0  0  0
  182.2910  179.1820  140.3760 C   0  0  0  0  0  3  0  0  0  0  0  0
  183.3340  178.7170  143.8500 C   0  0  0  0  0  0  0  0  0  0  0  0
  182.2550  178.8970  141.6770 C   0  0  0  0  0  3  0  0  0  0  0  0
  190.1850  177.2860  147.4480 O   0  0  0  0  0  1  0  0  0  0  0  0
  189.1910  177.2540  145.2500 C   0  0  0  0  0  3  0  0  0  0  0  0
  184.5170  178.5000  144.7100 C   0  0  0  0  0  0  0  0  0  0  0  0
  183.8060  179.6310  139.5240 S   0  0  0  0  0  0  0  0  0  0  0  0
  184.8540  178.7320  141.8890 C   0  0  1  0  0  3  0  0  0  0  0  0
  186.1740  178.3160  139.7780 C   0  0  0  0  0  0  0  0  0  0  0  0
  186.3430  178.0850  138.4030 C   0  0  0  0  0  3  0  0  0  0  0  0
  188.7480  178.2070  138.6730 C   0  0  0  0  0  0  0  0  0  0  0  0
  187.2970  178.4880  140.5940 C   0  0  0  0  0  3  0  0  0  0  0  0
  187.7810  177.8050  136.4900 O   0  0  0  0  0  1  0  0  0  0  0  0
  187.6270  178.0320  137.8530 C   0  0  0  0  0  0  0  0  0  0  0  0
  190.0270  178.1560  138.1360 O   0  0  0  0  0  1  0  0  0  0  0  0
  188.5810  178.4330  140.0430 C   0  0  0  0  0  3  0  0  0  0  0  0
  1 21  1  6  0  0  0
  1 20  1  0  0  0  0
  2  7  2  0  0  0  0
  2 17  1  0  0  0  0
  4 12  1  0  0  0  0
  4  9  2  0  0  0  0
  5 18  2  0  0  0  0
  5  7  1  0  0  0  0
  6  9  1  0  0  0  0
  6 16  1  0  0  0  0
  7  4  1  0  0  0  0
  8 12  2  0  0  0  0
 10 14  2  0  0  0  0
 11  5  1  0  0  0  0
 13 15  2  0  0  0  0
 14  3  1  0  0  0  0
 14 18  1  0  0  0  0
 15 10  1  0  0  0  0
 17  6  2  0  0  0  0
 18  8  1  0  0  0  0
 19 13  1  0  0  0  0
 19  1  1  0  0  0  0
 20 10  1  0  0  0  0
 20 11  1  1  0  0  0
 21 24  1  0  0  0  0
 22 21  2  0  0  0  0
 23 28  1  0  0  0  0
 25 26  1  0  0  0  0
 26 22  1  0  0  0  0
 26 23  2  0  0  0  0
 27 23  1  0  0  0  0
 28 24  2  0  0  0  0
M  END
>  <MODEL>
6

>  <REMARK>
 VINA RESULT:     -11.1      1.739      2.815
  Name = 
  1 active torsions:
  status: ('A' for Active; 'I' for Inactive)
    1  A    between atoms: C_1  and  C_2
                            x       y       z     vdW  Elec       q    Type
                         _______ _______ _______ _____ _____    ______ ____

>  <TORSDO>
F 1

$$$$
=
 OpenBabel10272402003D

 28 32  0  0  1  0  0  0  0  0999 V2000
  185.0180  178.1020  143.9910 C   0  0  2  0  0  3  0  0  0  0  0  0
  189.3060  177.2860  141.0320 C   0  0  0  0  0  3  0  0  0  0  0  0
  188.6980  177.5420  147.1330 F   0  0  0  0  0  0  0  0  0  0  0  0
  191.1110  177.4360  142.6550 C   0  0  0  0  0  0  0  0  0  0  0  0
  188.7940  177.5090  143.4190 C   0  0  0  0  0  0  0  0  0  0  0  0
  191.6130  177.2220  140.2960 C   0  0  0  0  0  0  0  0  0  0  0  0
  189.7250  177.4100  142.3660 C   0  0  0  0  0  0  0  0  0  0  0  0
  190.6240  177.6360  145.0170 C   0  0  0  0  0  3  0  0  0  0  0  0
  192.0450  177.3420  141.6200 C   0  0  0  0  0  3  0  0  0  0  0  0
  186.9800  177.9740  145.5970 C   0  0  0  0  0  0  0  0  0  0  0  0
  187.3150  177.4000  143.1700 C   0  0  0  0  0  2  0  0  0  0  0  0
  191.5500  177.5460  143.9770 C   0  0  0  0  0  3  0  0  0  0  0  0
  184.7640  178.4250  146.5990 C   0  0  0  0  0  3  0  0  0  0  0  0
  188.2750  177.7260  145.8540 C   0  0  0  0  0  0  0  0  0  0  0  0
  186.0140  177.9780  146.7140 C   0  0  0  0  0  3  0  0  0  0  0  0
  192.5440  177.1300  139.2700 O   0  0  0  0  0  1  0  0  0  0  0  0
  190.2470  177.1930  140.0030 C   0  0  0  0  0  3  0  0  0  0  0  0
  189.2510  177.6220  144.7480 C   0  0  0  0  0  0  0  0  0  0  0  0
  184.1620  179.2460  145.1210 S   0  0  0  0  0  0  0  0  0  0  0  0
  186.5350  178.2650  144.1700 C   0  0  1  0  0  3  0  0  0  0  0  0
  184.5770  178.3650  142.5810 C   0  0  0  0  0  0  0  0  0  0  0  0
  185.5100  178.5500  141.5490 C   0  0  0  0  0  3  0  0  0  0  0  0
  183.7040  178.8490  139.9610 C   0  0  0  0  0  0  0  0  0  0  0  0
  183.2090  178.4260  142.2960 C   0  0  0  0  0  3  0  0  0  0  0  0
  186.0080  178.9700  139.2290 O   0  0  0  0  0  1  0  0  0  0  0  0
  185.0750  178.7900  140.2430 C   0  0  0  0  0  0  0  0  0  0  0  0
  183.2610  179.0860  138.6670 O   0  0  0  0  0  1  0  0  0  0  0  0
  182.7730  178.6670  140.9890 C   0  0  0  0  0  3  0  0  0  0  0  0
  1 21  1  6  0  0  0
  1 20  1  0  0  0  0
  1 19  1  0  0  0  0
  2  7  1  0  0  0  0
  4 12  1  0  0  0  0
  5 18  2  0  0  0  0
  6  9  2  0  0  0  0
  7  4  2  0  0  0  0
  7  5  1  0  0  0  0
  9  4  1  0  0  0  0
 10 14  2  0  0  0  0
 10 15  1  0  0  0  0
 11  5  1  0  0  0  0
 12  8  2  0  0  0  0
 13 15  2  0  0  0  0
 14  3  1  0  0  0  0
 16  6  1  0  0  0  0
 17  6  1  0  0  0  0
 17  2  2  0  0  0  0
 18  8  1  0  0  0  0
 18 14  1  0  0  0  0
 19 13  1  0  0  0  0
 20 11  1  6  0  0  0
 20 10  1  0  0  0  0
 22 21  2  0  0  0  0
 23 26  2  0  0  0  0
 23 28  1  0  0  0  0
 24 21  1  0  0  0  0
 25 26  1  0  0  0  0
 26 22  1  0  0  0  0
 27 23  1  0  0  0  0
 28 24  2  0  0  0  0
M  END
>  <MODEL>
7

>  <REMARK>
 VINA RESULT:     -11.0      2.579      4.884
  Name = 
  1 active torsions:
  status: ('A' for Active; 'I' for Inactive)
    1  A    between atoms: C_1  and  C_2
                            x       y       z     vdW  Elec       q    Type
                         _______ _______ _______ _____ _____    ______ ____

>  <TORSDO>
F 1

$$$$
=
 OpenBabel10272402003D

 28 32  0  0  1  0  0  0  0  0999 V2000
  190.1360  177.6350  138.9590 C   0  0  2  0  0  3  0  0  0  0  0  0
  185.9690  178.4580  142.0840 C   0  0  0  0  0  3  0  0  0  0  0  0
  191.8430  177.4150  143.5160 F   0  0  0  0  0  0  0  0  0  0  0  0
  186.8410  177.9210  144.2890 C   0  0  0  0  0  0  0  0  0  0  0  0
  188.3500  177.9540  142.3720 C   0  0  0  0  0  0  0  0  0  0  0  0
  184.4880  178.4130  144.0010 C   0  0  0  0  0  0  0  0  0  0  0  0
  187.0550  178.1130  142.9030 C   0  0  0  0  0  0  0  0  0  0  0  0
  189.1930  177.4400  144.5960 C   0  0  0  0  0  3  0  0  0  0  0  0
  185.5610  178.0710  144.8290 C   0  0  0  0  0  3  0  0  0  0  0  0
  190.9650  177.3590  141.3430 C   0  0  0  0  0  0  0  0  0  0  0  0
  188.6430  178.2310  140.9230 C   0  0  0  0  0  2  0  0  0  0  0  0
  187.9100  177.5880  145.1250 C   0  0  0  0  0  3  0  0  0  0  0  0
  192.6240  176.9770  139.5480 C   0  0  0  0  0  3  0  0  0  0  0  0
  190.7800  177.4490  142.6700 C   0  0  0  0  0  0  0  0  0  0  0  0
  192.3420  177.2880  140.8120 C   0  0  0  0  0  3  0  0  0  0  0  0
  183.2170  178.5610  144.5400 O   0  0  0  0  0  1  0  0  0  0  0  0
  184.6920  178.6070  142.6320 C   0  0  0  0  0  3  0  0  0  0  0  0
  189.4200  177.6160  143.2260 C   0  0  0  0  0  0  0  0  0  0  0  0
  191.3730  176.4280  138.3830 S   0  0  0  0  0  0  0  0  0  0  0  0
  189.7600  177.3110  140.4130 C   0  0  1  0  0  3  0  0  0  0  0  0
  188.9480  177.6120  138.0420 C   0  0  0  0  0  0  0  0  0  0  0  0
  188.1970  176.4400  137.8520 C   0  0  0  0  0  3  0  0  0  0  0  0
  186.7330  177.6190  136.3230 C   0  0  0  0  0  0  0  0  0  0  0  0
  188.5860  178.7820  137.3660 C   0  0  0  0  0  3  0  0  0  0  0  0
  186.3570  175.2790  136.8170 O   0  0  0  0  0  1  0  0  0  0  0  0
  187.0930  176.4440  136.9960 C   0  0  0  0  0  0  0  0  0  0  0  0
  185.6370  177.6330  135.4700 O   0  0  0  0  0  1  0  0  0  0  0  0
  187.4820  178.7850  136.5090 C   0  0  0  0  0  3  0  0  0  0  0  0
  1 21  1  6  0  0  0
  1 20  1  0  0  0  0
  2 17  2  0  0  0  0
  2  7  1  0  0  0  0
  4  9  1  0  0  0  0
  4 12  1  0  0  0  0
  5  7  1  0  0  0  0
  5 18  2  0  0  0  0
  6 16  1  0  0  0  0
  6  9  2  0  0  0  0
  7  4  2  0  0  0  0
  8 12  2  0  0  0  0
 10 14  2  0  0  0  0
 11  5  1  0  0  0  0
 13 15  2  0  0  0  0
 14 18  1  0  0  0  0
 14  3  1  0  0  0  0
 15 10  1  0  0  0  0
 17  6  1  0  0  0  0
 18  8  1  0  0  0  0
 19  1  1  0  0  0  0
 19 13  1  0  0  0  0
 20 11  1  1  0  0  0
 20 10  1  0  0  0  0
 22 21  1  0  0  0  0
 23 28  2  0  0  0  0
 23 26  1  0  0  0  0
 24 21  2  0  0  0  0
 25 26  1  0  0  0  0
 26 22  2  0  0  0  0
 27 23  1  0  0  0  0
 28 24  1  0  0  0  0
M  END
>  <MODEL>
8

>  <REMARK>
 VINA RESULT:     -10.7      3.680      6.024
  Name = 
  1 active torsions:
  status: ('A' for Active; 'I' for Inactive)
    1  A    between atoms: C_1  and  C_2
                            x       y       z     vdW  Elec       q    Type
                         _______ _______ _______ _____ _____    ______ ____

>  <TORSDO>
F 1

$$$$
=
 OpenBabel10272402003D

 28 32  0  0  1  0  0  0  0  0999 V2000
  185.4210  178.1920  140.6830 C   0  0  2  0  0  3  0  0  0  0  0  0
  188.7500  177.2650  144.6670 C   0  0  0  0  0  3  0  0  0  0  0  0
  182.7960  178.7450  144.7490 F   0  0  0  0  0  0  0  0  0  0  0  0
  187.4660  177.9660  146.6090 C   0  0  0  0  0  0  0  0  0  0  0  0
  186.4050  177.9310  144.4120 C   0  0  0  0  0  0  0  0  0  0  0  0
  189.7840  177.3130  146.8570 C   0  0  0  0  0  0  0  0  0  0  0  0
  187.5410  177.7190  145.2170 C   0  0  0  0  0  0  0  0  0  0  0  0
  185.1440  178.6080  146.3800 C   0  0  0  0  0  3  0  0  0  0  0  0
  188.5860  177.7620  147.4190 C   0  0  0  0  0  3  0  0  0  0  0  0
  184.1220  178.6370  142.8180 C   0  0  0  0  0  0  0  0  0  0  0  0
  186.4110  177.6020  142.9450 C   0  0  0  0  0  2  0  0  0  0  0  0
  186.2690  178.4060  147.1800 C   0  0  0  0  0  3  0  0  0  0  0  0
  182.9190  179.0320  140.6940 C   0  0  0  0  0  3  0  0  0  0  0  0
  184.0110  178.6020  144.1570 C   0  0  0  0  0  0  0  0  0  0  0  0
  182.9000  178.7680  141.9990 C   0  0  0  0  0  3  0  0  0  0  0  0
  190.8960  177.1120  147.6650 O   0  0  0  0  0  1  0  0  0  0  0  0
  189.8650  177.0640  145.4840 C   0  0  0  0  0  3  0  0  0  0  0  0
  185.2040  178.3780  145.0010 C   0  0  0  0  0  0  0  0  0  0  0  0
  184.4270  179.4440  139.8100 S   0  0  0  0  0  0  0  0  0  0  0  0
  185.4990  178.5630  142.1720 C   0  0  1  0  0  3  0  0  0  0  0  0
  186.7770  178.0940  140.0470 C   0  0  0  0  0  0  0  0  0  0  0  0
  187.9370  177.9410  140.8230 C   0  0  0  0  0  3  0  0  0  0  0  0
  189.2870  177.9120  138.8110 C   0  0  0  0  0  0  0  0  0  0  0  0
  186.8810  178.1590  138.6530 C   0  0  0  0  0  3  0  0  0  0  0  0
  190.3280  177.6950  140.9860 O   0  0  0  0  0  1  0  0  0  0  0  0
  189.1880  177.8490  140.2070 C   0  0  0  0  0  0  0  0  0  0  0  0
  190.5250  177.8220  138.1900 O   0  0  0  0  0  1  0  0  0  0  0  0
  188.1330  178.0690  138.0370 C   0  0  0  0  0  3  0  0  0  0  0  0
  1 21  1  6  0  0  0
  1 20  1  0  0  0  0
  2  7  2  0  0  0  0
  2 17  1  0  0  0  0
  4 12  1  0  0  0  0
  4  9  2  0  0  0  0
  5 18  2  0  0  0  0
  5  7  1  0  0  0  0
  6  9  1  0  0  0  0
  6 16  1  0  0  0  0
  7  4  1  0  0  0  0
  8 12  2  0  0  0  0
 10 14  2  0  0  0  0
 11  5  1  0  0  0  0
 13 15  2  0  0  0  0
 14  3  1  0  0  0  0
 14 18  1  0  0  0  0
 15 10  1  0  0  0  0
 17  6  2  0  0  0  0
 18  8  1  0  0  0  0
 19  1  1  0  0  0  0
 19 13  1  0  0  0  0
 20 10  1  0  0  0  0
 20 11  1  1  0  0  0
 21 22  1  0  0  0  0
 23 26  1  0  0  0  0
 24 21  2  0  0  0  0
 26 22  2  0  0  0  0
 26 25  1  0  0  0  0
 27 23  1  0  0  0  0
 28 24  1  0  0  0  0
 28 23  2  0  0  0  0
M  END
>  <MODEL>
9

>  <REMARK>
 VINA RESULT:     -10.7      1.366      2.352
  Name = 
  1 active torsions:
  status: ('A' for Active; 'I' for Inactive)
    1  A    between atoms: C_1  and  C_2
                            x       y       z     vdW  Elec       q    Type
                         _______ _______ _______ _____ _____    ______ ____

>  <TORSDO>
F 1

$$$$
