=
 OpenBabel10272413153D

 32 37  0  0  1  0  0  0  0  0999 V2000
  189.1630  177.4750  141.2880 C   0  0  0  0  0  0  0  0  0  0  0  0
  187.9830  177.6000  143.5050 C   0  0  0  0  0  0  0  0  0  0  0  0
  190.4620  177.3440  140.5950 C   0  0  0  0  0  3  0  0  0  0  0  0
  189.0780  176.9560  142.7060 C   0  0  2  0  0  3  0  0  0  0  0  0
  188.0160  177.6010  144.8540 C   0  0  0  0  0  0  0  0  0  0  0  0
  183.2060  178.9340  143.5360 C   0  0  0  0  0  3  0  0  0  0  0  0
  186.8050  178.0760  142.7600 C   0  0  0  0  0  0  0  0  0  0  0  0
  184.4190  178.6620  145.6140 C   0  0  0  0  0  3  0  0  0  0  0  0
  185.5900  178.3820  144.9020 C   0  0  0  0  0  0  0  0  0  0  0  0
  190.3950  176.9800  143.4310 C   0  0  0  0  0  0  0  0  0  0  0  0
  186.8690  178.1660  145.6670 C   0  0  0  0  0  3  0  0  0  0  0  0
  190.3860  176.9480  144.8240 O   0  0  0  0  0  0  0  0  0  0  0  0
  191.5510  176.9860  142.7610 C   0  0  0  0  0  3  0  0  0  0  0  0
  186.8690  178.2250  141.4680 N   0  0  0  0  0  2  0  0  0  0  0  0
  188.0600  177.9860  140.6900 C   0  0  0  0  0  0  0  0  0  0  0  0
  185.5700  178.3870  143.4960 C   0  0  0  0  0  0  0  0  0  0  0  0
  189.2130  177.1540  145.5280 N   0  0  0  0  0  0  0  0  0  0  0  0
  191.5780  177.0990  141.2890 C   0  0  0  0  0  3  0  0  0  0  0  0
  183.2290  178.9320  144.9330 C   0  0  0  0  0  3  0  0  0  0  0  0
  184.3740  178.6630  142.8180 C   0  0  0  0  0  3  0  0  0  0  0  0
  186.6600  177.0020  137.6190 C   0  0  1  0  0  3  0  0  0  0  0  0
  188.8600  177.7690  135.1070 O   0  0  0  0  0  0  0  0  0  0  0  0
  185.5700  177.1370  136.5710 C   0  0  0  0  0  1  0  0  0  0  0  0
  189.2680  178.8840  137.1410 C   0  0  0  0  0  2  0  0  0  0  0  0
  188.0360  178.3810  139.2580 C   0  0  0  0  0  0  0  0  0  0  0  0
  187.9790  176.5880  136.9450 C   0  0  0  0  0  2  0  0  0  0  0  0
  189.1900  178.6280  138.6230 C   0  0  0  0  0  3  0  0  0  0  0  0
  186.7610  178.2930  138.4480 C   0  0  2  0  0  3  0  0  0  0  0  0
  185.5790  178.4760  139.2770 N   0  0  0  0  0  1  0  0  0  0  0  0
  188.7200  177.7430  136.3180 C   0  0  0  0  0  0  0  0  0  0  0  0
  189.2630  177.0760  146.9810 C   0  0  0  0  0  2  0  0  0  0  0  0
  190.4390  176.4380  147.3750 O   0  0  0  0  0  1  0  0  0  0  0  0
  2  5  1  0  0  0  0
  3  1  1  0  0  0  0
  3 18  2  0  0  0  0
  4  1  1  6  0  0  0
  4 10  1  0  0  0  0
  4  2  1  0  0  0  0
  5 17  1  0  0  0  0
  5 11  2  0  0  0  0
  6 19  1  0  0  0  0
  7 16  1  0  0  0  0
  7  2  2  0  0  0  0
  9  8  1  0  0  0  0
  9 11  1  0  0  0  0
 10 12  1  0  0  0  0
 12 17  1  0  0  0  0
 13 10  2  0  0  0  0
 14  7  1  0  0  0  0
 15  1  2  0  0  0  0
 15 14  1  0  0  0  0
 16  9  2  0  0  0  0
 17 31  1  0  0  0  0
 18 13  1  0  0  0  0
 19  8  2  0  0  0  0
 20 16  1  0  0  0  0
 20  6  2  0  0  0  0
 21 23  1  6  0  0  0
 21 28  1  0  0  0  0
 22 30  2  0  0  0  0
 24 27  1  0  0  0  0
 25 15  1  0  0  0  0
 26 21  1  0  0  0  0
 27 25  2  0  0  0  0
 28 25  1  0  0  0  0
 28 29  1  1  0  0  0
 30 26  1  0  0  0  0
 30 24  1  0  0  0  0
 31 32  1  0  0  0  0
M  END
>  <MODEL>
1

>  <REMARK>
 VINA RESULT:     -11.8      0.000      0.000
  Name = 
  2 active torsions:
  status: ('A' for Active; 'I' for Inactive)
    1  A    between atoms: C_13  and  N_29
    2  A    between atoms: C_16  and  C_27
                            x       y       z     vdW  Elec       q    Type
                         _______ _______ _______ _____ _____    ______ ____

>  <TORSDO>
F 2

$$$$
=
 OpenBabel10272413153D

 32 37  0  0  1  0  0  0  0  0999 V2000
  189.4330  177.2040  142.3650 C   0  0  2  0  0  3  0  0  0  0  0  0
  187.7420  177.5680  144.1890 C   0  0  0  0  0  0  0  0  0  0  0  0
  190.8620  177.0210  142.0350 C   0  0  0  0  0  3  0  0  0  0  0  0
  188.9960  176.8580  143.7710 C   0  0  2  0  0  3  0  0  0  0  0  0
  187.4400  177.7320  145.4940 C   0  0  0  0  0  0  0  0  0  0  0  0
  183.1150  178.7810  142.8780 C   0  0  0  0  0  3  0  0  0  0  0  0
  186.7880  177.9220  143.1250 C   0  0  0  0  0  0  0  0  0  0  0  0
  183.7740  178.7920  145.2080 C   0  0  0  0  0  3  0  0  0  0  0  0
  185.0830  178.4560  144.8460 C   0  0  0  0  0  0  0  0  0  0  0  0
  190.0920  177.0000  144.7900 C   0  0  0  0  0  0  0  0  0  0  0  0
  186.1310  178.3640  145.9240 C   0  0  0  0  0  3  0  0  0  0  0  0
  189.7390  177.1370  146.1310 O   0  0  0  0  0  0  0  0  0  0  0  0
  191.3790  176.9530  144.4300 C   0  0  0  0  0  3  0  0  0  0  0  0
  187.1710  177.9150  141.8800 N   0  0  0  0  0  0  0  0  0  0  0  0
  188.5150  177.6120  141.4550 C   0  0  0  0  0  0  0  0  0  0  0  0
  185.4110  178.2900  143.4890 C   0  0  0  0  0  0  0  0  0  0  0  0
  188.4290  177.3990  146.4930 N   0  0  0  0  0  0  0  0  0  0  0  0
  191.7700  176.8880  143.0070 C   0  0  0  0  0  3  0  0  0  0  0  0
  182.7910  178.9490  144.2260 C   0  0  0  0  0  3  0  0  0  0  0  0
  184.4220  178.4530  142.5080 C   0  0  0  0  0  3  0  0  0  0  0  0
  187.3370  176.8330  138.2360 C   0  0  1  0  0  3  0  0  0  0  0  0
  190.0180  176.5190  136.1260 O   0  0  0  0  0  0  0  0  0  0  0  0
  186.5370  177.2150  137.0040 C   0  0  0  0  0  1  0  0  0  0  0  0
  190.4840  177.6460  138.1410 C   0  0  0  0  0  2  0  0  0  0  0  0
  188.8500  177.8310  140.0250 C   0  0  0  0  0  0  0  0  0  0  0  0
  188.5080  175.9210  137.8320 C   0  0  0  0  0  2  0  0  0  0  0  0
  190.0980  177.5970  139.5950 C   0  0  0  0  0  3  0  0  0  0  0  0
  187.7650  178.0950  139.0030 C   0  0  2  0  0  3  0  0  0  0  0  0
  186.6140  178.7610  139.5960 N   0  0  0  0  0  1  0  0  0  0  0  0
  189.6970  176.6770  137.2910 C   0  0  0  0  0  0  0  0  0  0  0  0
  188.1180  177.4970  147.9110 C   0  0  0  0  0  2  0  0  0  0  0  0
  188.9770  178.4140  148.5170 O   0  0  0  0  0  1  0  0  0  0  0  0
  1  3  1  6  0  0  0
  1  4  1  0  0  0  0
  2  5  1  0  0  0  0
  3 18  2  0  0  0  0
  4  2  1  1  0  0  0
  4 10  1  0  0  0  0
  5 11  2  0  0  0  0
  5 17  1  0  0  0  0
  6 19  1  0  0  0  0
  7 16  1  0  0  0  0
  7  2  2  0  0  0  0
  9  8  1  0  0  0  0
  9 11  1  0  0  0  0
 10 12  1  0  0  0  0
 12 17  1  0  0  0  0
 13 10  2  0  0  0  0
 14  7  1  0  0  0  0
 15 14  2  0  0  0  0
 15  1  1  0  0  0  0
 16  9  2  0  0  0  0
 17 31  1  0  0  0  0
 18 13  1  0  0  0  0
 19  8  2  0  0  0  0
 20  6  2  0  0  0  0
 20 16  1  0  0  0  0
 21 23  1  6  0  0  0
 21 28  1  0  0  0  0
 22 30  2  0  0  0  0
 24 27  1  0  0  0  0
 25 15  1  0  0  0  0
 26 21  1  0  0  0  0
 27 25  2  0  0  0  0
 28 29  1  1  0  0  0
 28 25  1  0  0  0  0
 30 26  1  0  0  0  0
 30 24  1  0  0  0  0
 31 32  1  0  0  0  0
M  END
>  <MODEL>
2

>  <REMARK>
 VINA RESULT:     -11.8      1.132      1.288
  Name = 
  2 active torsions:
  status: ('A' for Active; 'I' for Inactive)
    1  A    between atoms: C_13  and  N_29
    2  A    between atoms: C_16  and  C_27
                            x       y       z     vdW  Elec       q    Type
                         _______ _______ _______ _____ _____    ______ ____

>  <TORSDO>
F 2

$$$$
=
 OpenBabel10272413153D

 32 37  0  0  1  0  0  0  0  0999 V2000
  183.4120  178.6800  142.1760 C   0  0  2  0  0  3  0  0  0  0  0  0
  185.4560  178.4200  143.6160 C   0  0  0  0  0  0  0  0  0  0  0  0
  181.9380  178.7940  142.1450 C   0  0  0  0  0  3  0  0  0  0  0  0
  184.1110  179.0670  143.4610 C   0  0  2  0  0  3  0  0  0  0  0  0
  186.0260  178.2890  144.8320 C   0  0  0  0  0  0  0  0  0  0  0  0
  189.7680  177.3990  141.3880 C   0  0  0  0  0  3  0  0  0  0  0  0
  186.1880  178.0940  142.3800 C   0  0  0  0  0  0  0  0  0  0  0  0
  189.6010  177.3920  143.8040 C   0  0  0  0  0  3  0  0  0  0  0  0
  188.2320  177.6640  143.7180 C   0  0  0  0  0  0  0  0  0  0  0  0
  183.2540  178.8890  144.6830 C   0  0  0  0  0  0  0  0  0  0  0  0
  187.4240  177.7230  144.9870 C   0  0  0  0  0  3  0  0  0  0  0  0
  183.8800  178.7880  145.9240 O   0  0  0  0  0  0  0  0  0  0  0  0
  181.9200  178.8730  144.5950 C   0  0  0  0  0  3  0  0  0  0  0  0
  185.5570  178.0660  141.2410 N   0  0  0  0  0  0  0  0  0  0  0  0
  184.1420  178.3010  141.0990 C   0  0  0  0  0  0  0  0  0  0  0  0
  187.6250  177.7950  142.4560 C   0  0  0  0  0  0  0  0  0  0  0  0
  185.2470  178.5920  146.0110 N   0  0  0  0  0  0  0  0  0  0  0  0
  181.2440  178.9000  143.2830 C   0  0  0  0  0  3  0  0  0  0  0  0
  190.3690  177.2660  142.6430 C   0  0  0  0  0  3  0  0  0  0  0  0
  188.3990  177.6620  141.2940 C   0  0  0  0  0  3  0  0  0  0  0  0
  181.7940  179.6780  138.8750 C   0  0  1  0  0  3  0  0  0  0  0  0
  180.2610  177.1310  137.1710 O   0  0  0  0  0  0  0  0  0  0  0  0
  181.4820  180.5420  137.6660 C   0  0  0  0  0  1  0  0  0  0  0  0
  182.2790  176.5280  138.2270 C   0  0  0  0  0  2  0  0  0  0  0  0
  183.5320  178.0470  139.7690 C   0  0  0  0  0  0  0  0  0  0  0  0
  180.7560  178.5480  138.9860 C   0  0  0  0  0  2  0  0  0  0  0  0
  183.0460  176.8300  139.4870 C   0  0  0  0  0  3  0  0  0  0  0  0
  183.2490  179.1850  138.8120 C   0  0  2  0  0  3  0  0  0  0  0  0
  184.1820  180.2880  138.9920 N   0  0  0  0  0  1  0  0  0  0  0  0
  181.0410  177.3800  138.0740 C   0  0  0  0  0  0  0  0  0  0  0  0
  185.8470  178.5280  147.3350 C   0  0  0  0  0  2  0  0  0  0  0  0
  185.9820  179.8170  147.8510 O   0  0  0  0  0  1  0  0  0  0  0  0
  1  3  1  6  0  0  0
  1  4  1  0  0  0  0
  2  5  1  0  0  0  0
  3 18  2  0  0  0  0
  4  2  1  1  0  0  0
  4 10  1  0  0  0  0
  5 11  2  0  0  0  0
  5 17  1  0  0  0  0
  6 19  1  0  0  0  0
  7 16  1  0  0  0  0
  7  2  2  0  0  0  0
  9  8  1  0  0  0  0
  9 11  1  0  0  0  0
 10 12  1  0  0  0  0
 12 17  1  0  0  0  0
 13 10  2  0  0  0  0
 14  7  1  0  0  0  0
 15 14  2  0  0  0  0
 15  1  1  0  0  0  0
 16  9  2  0  0  0  0
 17 31  1  0  0  0  0
 18 13  1  0  0  0  0
 19  8  2  0  0  0  0
 20  6  2  0  0  0  0
 20 16  1  0  0  0  0
 21 23  1  6  0  0  0
 21 26  1  0  0  0  0
 22 30  2  0  0  0  0
 24 27  1  0  0  0  0
 25 15  1  0  0  0  0
 27 25  2  0  0  0  0
 28 21  1  0  0  0  0
 28 29  1  1  0  0  0
 28 25  1  0  0  0  0
 30 24  1  0  0  0  0
 30 26  1  0  0  0  0
 31 32  1  0  0  0  0
M  END
>  <MODEL>
3

>  <REMARK>
 VINA RESULT:     -11.6      3.356      5.935
  Name = 
  2 active torsions:
  status: ('A' for Active; 'I' for Inactive)
    1  A    between atoms: C_13  and  N_29
    2  A    between atoms: C_16  and  C_27
                            x       y       z     vdW  Elec       q    Type
                         _______ _______ _______ _____ _____    ______ ____

>  <TORSDO>
F 2

$$$$
=
 OpenBabel10272413153D

 32 37  0  0  1  0  0  0  0  0999 V2000
  189.5030  177.4040  143.0020 C   0  0  2  0  0  3  0  0  0  0  0  0
  187.1230  177.8150  143.6970 C   0  0  0  0  0  0  0  0  0  0  0  0
  190.9110  177.3030  143.4440 C   0  0  0  0  0  3  0  0  0  0  0  0
  188.4320  177.1690  144.0440 C   0  0  2  0  0  3  0  0  0  0  0  0
  186.2090  178.0870  144.6520 C   0  0  0  0  0  0  0  0  0  0  0  0
  183.7380  178.5110  140.1380 C   0  0  0  0  0  3  0  0  0  0  0  0
  186.8170  177.9800  142.2660 C   0  0  0  0  0  0  0  0  0  0  0  0
  183.1510  178.8130  142.4690 C   0  0  0  0  0  3  0  0  0  0  0  0
  184.4730  178.5480  142.8430 C   0  0  0  0  0  0  0  0  0  0  0  0
  188.8740  177.5030  145.4420 C   0  0  0  0  0  0  0  0  0  0  0  0
  184.8480  178.6530  144.2980 C   0  0  0  0  0  3  0  0  0  0  0  0
  187.8980  177.7480  146.4060 O   0  0  0  0  0  0  0  0  0  0  0  0
  190.1690  177.5230  145.7700 C   0  0  0  0  0  3  0  0  0  0  0  0
  187.7690  177.8770  141.3830 N   0  0  0  0  0  0  0  0  0  0  0  0
  189.1520  177.6410  141.7150 C   0  0  0  0  0  0  0  0  0  0  0  0
  185.4350  178.2710  141.8560 C   0  0  0  0  0  0  0  0  0  0  0  0
  186.5770  177.9390  146.0410 N   0  0  0  0  0  0  0  0  0  0  0  0
  191.2170  177.3440  144.7440 C   0  0  0  0  0  3  0  0  0  0  0  0
  182.7830  178.7890  141.1200 C   0  0  0  0  0  3  0  0  0  0  0  0
  185.0620  178.2530  140.5050 C   0  0  0  0  0  3  0  0  0  0  0  0
  189.5290  176.8750  138.3060 C   0  0  1  0  0  3  0  0  0  0  0  0
  192.8070  176.0790  137.7080 O   0  0  0  0  0  0  0  0  0  0  0  0
  189.4700  177.3040  136.8500 C   0  0  0  0  0  1  0  0  0  0  0  0
  192.4300  177.2280  139.7300 C   0  0  0  0  0  2  0  0  0  0  0  0
  190.1490  177.7370  140.6190 C   0  0  0  0  0  0  0  0  0  0  0  0
  190.6020  175.7870  138.4820 C   0  0  0  0  0  2  0  0  0  0  0  0
  191.4020  177.3080  140.8260 C   0  0  0  0  0  3  0  0  0  0  0  0
  189.7260  178.1010  139.2120 C   0  0  2  0  0  3  0  0  0  0  0  0
  188.5450  178.9520  139.2050 N   0  0  0  0  0  1  0  0  0  0  0  0
  192.0030  176.3390  138.5860 C   0  0  0  0  0  0  0  0  0  0  0  0
  185.6000  178.1580  147.0970 C   0  0  0  0  0  2  0  0  0  0  0  0
  185.6060  179.5020  147.4700 O   0  0  0  0  0  1  0  0  0  0  0  0
  1  3  1  6  0  0  0
  1  4  1  0  0  0  0
  2  5  1  0  0  0  0
  3 18  2  0  0  0  0
  4  2  1  6  0  0  0
  4 10  1  0  0  0  0
  5 17  1  0  0  0  0
  6 20  2  0  0  0  0
  6 19  1  0  0  0  0
  7  2  2  0  0  0  0
  8  9  1  0  0  0  0
  9 11  1  0  0  0  0
 10 13  2  0  0  0  0
 10 12  1  0  0  0  0
 11  5  2  0  0  0  0
 14 15  2  0  0  0  0
 14  7  1  0  0  0  0
 15  1  1  0  0  0  0
 16  7  1  0  0  0  0
 16  9  2  0  0  0  0
 17 12  1  0  0  0  0
 17 31  1  0  0  0  0
 18 13  1  0  0  0  0
 19  8  2  0  0  0  0
 20 16  1  0  0  0  0
 21 23  1  6  0  0  0
 21 26  1  0  0  0  0
 21 28  1  0  0  0  0
 22 30  2  0  0  0  0
 24 27  1  0  0  0  0
 25 27  2  0  0  0  0
 25 15  1  0  0  0  0
 26 30  1  0  0  0  0
 28 29  1  1  0  0  0
 28 25  1  0  0  0  0
 30 24  1  0  0  0  0
 31 32  1  0  0  0  0
M  END
>  <MODEL>
4

>  <REMARK>
 VINA RESULT:     -10.7      2.122      3.102
  Name = 
  2 active torsions:
  status: ('A' for Active; 'I' for Inactive)
    1  A    between atoms: C_13  and  N_29
    2  A    between atoms: C_16  and  C_27
                            x       y       z     vdW  Elec       q    Type
                         _______ _______ _______ _____ _____    ______ ____

>  <TORSDO>
F 2

$$$$
=
 OpenBabel10272413153D

 32 37  0  0  1  0  0  0  0  0999 V2000
  188.9490  177.4950  140.5430 C   0  0  0  0  0  0  0  0  0  0  0  0
  188.7760  177.5210  143.0510 C   0  0  0  0  0  0  0  0  0  0  0  0
  189.8570  177.4720  139.3760 C   0  0  0  0  0  3  0  0  0  0  0  0
  189.4920  176.9700  141.8540 C   0  0  2  0  0  3  0  0  0  0  0  0
  189.3580  177.5240  144.2680 C   0  0  0  0  0  0  0  0  0  0  0  0
  184.3440  178.4550  145.0750 C   0  0  0  0  0  3  0  0  0  0  0  0
  187.3630  177.8980  142.8690 C   0  0  0  0  0  0  0  0  0  0  0  0
  186.3190  178.2840  146.4660 C   0  0  0  0  0  3  0  0  0  0  0  0
  187.1130  178.1020  145.3290 C   0  0  0  0  0  0  0  0  0  0  0  0
  190.9850  177.1020  141.9780 C   0  0  0  0  0  0  0  0  0  0  0  0
  188.6060  177.9920  145.4980 C   0  0  0  0  0  3  0  0  0  0  0  0
  191.5500  177.0690  143.2510 O   0  0  0  0  0  0  0  0  0  0  0  0
  191.7610  177.2040  140.8950 C   0  0  0  0  0  3  0  0  0  0  0  0
  186.8810  178.0520  141.6690 N   0  0  0  0  0  2  0  0  0  0  0  0
  187.6630  177.9130  140.4650 C   0  0  0  0  0  0  0  0  0  0  0  0
  186.5180  178.1050  144.0550 C   0  0  0  0  0  0  0  0  0  0  0  0
  190.7560  177.1770  144.3800 N   0  0  0  0  0  0  0  0  0  0  0  0
  191.1740  177.3200  139.5450 C   0  0  0  0  0  3  0  0  0  0  0  0
  184.9380  178.4540  146.3400 C   0  0  0  0  0  3  0  0  0  0  0  0
  185.1320  178.2810  143.9340 C   0  0  0  0  0  3  0  0  0  0  0  0
  184.5910  177.6840  138.7730 C   0  0  1  0  0  3  0  0  0  0  0  0
  185.1970  177.4720  135.4070 O   0  0  0  0  0  0  0  0  0  0  0  0
  183.2530  178.2940  138.3930 C   0  0  0  0  0  1  0  0  0  0  0  0
  187.0120  178.2660  136.6820 C   0  0  0  0  0  2  0  0  0  0  0  0
  187.0250  178.3050  139.1830 C   0  0  0  0  0  0  0  0  0  0  0  0
  185.0740  176.7540  137.6470 C   0  0  0  0  0  2  0  0  0  0  0  0
  187.6510  178.0420  138.0260 C   0  0  0  0  0  3  0  0  0  0  0  0
  185.5920  178.7900  139.1420 C   0  0  2  0  0  3  0  0  0  0  0  0
  185.2090  179.4500  140.3820 N   0  0  0  0  0  1  0  0  0  0  0  0
  185.7300  177.4880  136.5030 C   0  0  0  0  0  0  0  0  0  0  0  0
  191.4020  177.1030  145.6810 C   0  0  0  0  0  2  0  0  0  0  0  0
  191.9620  175.8360  145.8550 O   0  0  0  0  0  1  0  0  0  0  0  0
  2  5  1  0  0  0  0
  3 18  2  0  0  0  0
  3  1  1  0  0  0  0
  4  1  1  6  0  0  0
  4 10  1  0  0  0  0
  4  2  1  0  0  0  0
  5 17  1  0  0  0  0
  5 11  2  0  0  0  0
  6 19  1  0  0  0  0
  7  2  2  0  0  0  0
  7 16  1  0  0  0  0
  9 11  1  0  0  0  0
  9  8  1  0  0  0  0
 10 12  1  0  0  0  0
 12 17  1  0  0  0  0
 13 10  2  0  0  0  0
 14  7  1  0  0  0  0
 15  1  2  0  0  0  0
 15 14  1  0  0  0  0
 16  9  2  0  0  0  0
 17 31  1  0  0  0  0
 18 13  1  0  0  0  0
 19  8  2  0  0  0  0
 20 16  1  0  0  0  0
 20  6  2  0  0  0  0
 21 23  1  6  0  0  0
 21 28  1  0  0  0  0
 22 30  2  0  0  0  0
 24 27  1  0  0  0  0
 25 15  1  0  0  0  0
 26 21  1  0  0  0  0
 27 25  2  0  0  0  0
 28 25  1  0  0  0  0
 28 29  1  1  0  0  0
 30 24  1  0  0  0  0
 30 26  1  0  0  0  0
 31 32  1  0  0  0  0
M  END
>  <MODEL>
5

>  <REMARK>
 VINA RESULT:     -10.5      1.495      1.932
  Name = 
  2 active torsions:
  status: ('A' for Active; 'I' for Inactive)
    1  A    between atoms: C_13  and  N_29
    2  A    between atoms: C_16  and  C_27
                            x       y       z     vdW  Elec       q    Type
                         _______ _______ _______ _____ _____    ______ ____

>  <TORSDO>
F 2

$$$$
=
 OpenBabel10272413153D

 32 37  0  0  1  0  0  0  0  0999 V2000
  187.1310  178.2400  139.9730 C   0  0  0  0  0  0  0  0  0  0  0  0
  186.6630  178.2680  142.4430 C   0  0  0  0  0  0  0  0  0  0  0  0
  186.5490  178.2350  138.6130 C   0  0  0  0  0  3  0  0  0  0  0  0
  186.2740  178.7910  141.0920 C   0  0  2  0  0  3  0  0  0  0  0  0
  185.7910  178.2880  143.4720 C   0  0  0  0  0  0  0  0  0  0  0  0
  190.4350  177.3960  145.5440 C   0  0  0  0  0  3  0  0  0  0  0  0
  188.0750  177.8930  142.6340 C   0  0  0  0  0  0  0  0  0  0  0  0
  188.1720  177.5870  146.3850 C   0  0  0  0  0  3  0  0  0  0  0  0
  187.6920  177.7420  145.0800 C   0  0  0  0  0  0  0  0  0  0  0  0
  184.7990  178.6540  140.8360 C   0  0  0  0  0  0  0  0  0  0  0  0
  186.2060  177.8490  144.8620 C   0  0  0  0  0  3  0  0  0  0  0  0
  183.9290  178.7110  141.9240 O   0  0  0  0  0  0  0  0  0  0  0  0
  184.3220  178.5260  139.5940 C   0  0  0  0  0  3  0  0  0  0  0  0
  188.8450  177.7160  141.5980 N   0  0  0  0  0  2  0  0  0  0  0  0
  188.3950  177.8270  140.2330 C   0  0  0  0  0  0  0  0  0  0  0  0
  188.5910  177.7150  143.9990 C   0  0  0  0  0  0  0  0  0  0  0  0
  184.4110  178.6300  143.2180 N   0  0  0  0  0  0  0  0  0  0  0  0
  185.2330  178.3850  138.4400 C   0  0  0  0  0  3  0  0  0  0  0  0
  189.5400  177.4200  146.6170 C   0  0  0  0  0  3  0  0  0  0  0  0
  189.9620  177.5420  144.2370 C   0  0  0  0  0  3  0  0  0  0  0  0
  188.5480  177.4420  136.7430 C   0  0  1  0  0  3  0  0  0  0  0  0
  190.6490  174.8380  136.0090 O   0  0  0  0  0  0  0  0  0  0  0  0
  188.9160  177.9950  135.3770 C   0  0  0  0  0  1  0  0  0  0  0  0
  190.8740  175.6940  138.1930 C   0  0  0  0  0  2  0  0  0  0  0  0
  189.3360  177.4110  139.1630 C   0  0  0  0  0  0  0  0  0  0  0  0
  188.6820  175.9100  136.7350 C   0  0  0  0  0  2  0  0  0  0  0  0
  190.0180  176.2630  139.2920 C   0  0  0  0  0  3  0  0  0  0  0  0
  189.3770  178.1370  137.8350 C   0  0  2  0  0  3  0  0  0  0  0  0
  188.9940  179.5350  137.9720 N   0  0  0  0  0  1  0  0  0  0  0  0
  190.1010  175.4320  136.9220 C   0  0  0  0  0  0  0  0  0  0  0  0
  183.4550  178.7290  144.3120 C   0  0  0  0  0  2  0  0  0  0  0  0
  182.1610  178.8050  143.7970 O   0  0  0  0  0  1  0  0  0  0  0  0
  1 15  2  0  0  0  0
  2  7  2  0  0  0  0
  2  5  1  0  0  0  0
  3  1  1  0  0  0  0
  4  1  1  6  0  0  0
  4  2  1  0  0  0  0
  5 11  2  0  0  0  0
  6 19  1  0  0  0  0
  7 16  1  0  0  0  0
  8 19  2  0  0  0  0
  9  8  1  0  0  0  0
 10  4  1  0  0  0  0
 10 12  1  0  0  0  0
 11  9  1  0  0  0  0
 12 17  1  0  0  0  0
 13 10  2  0  0  0  0
 14  7  1  0  0  0  0
 15 14  1  0  0  0  0
 16 20  1  0  0  0  0
 16  9  2  0  0  0  0
 17  5  1  0  0  0  0
 17 31  1  0  0  0  0
 18  3  2  0  0  0  0
 18 13  1  0  0  0  0
 20  6  2  0  0  0  0
 21 23  1  6  0  0  0
 21 28  1  0  0  0  0
 22 30  2  0  0  0  0
 24 27  1  0  0  0  0
 25 27  2  0  0  0  0
 25 15  1  0  0  0  0
 26 21  1  0  0  0  0
 26 30  1  0  0  0  0
 28 29  1  1  0  0  0
 28 25  1  0  0  0  0
 30 24  1  0  0  0  0
 32 31  1  0  0  0  0
M  END
>  <MODEL>
6

>  <REMARK>
 VINA RESULT:     -10.3      2.622      4.613
  Name = 
  2 active torsions:
  status: ('A' for Active; 'I' for Inactive)
    1  A    between atoms: C_13  and  N_29
    2  A    between atoms: C_16  and  C_27
                            x       y       z     vdW  Elec       q    Type
                         _______ _______ _______ _____ _____    ______ ____

>  <TORSDO>
F 2

$$$$
=
 OpenBabel10272413153D

 32 37  0  0  1  0  0  0  0  0999 V2000
  186.3250  178.4180  139.5170 C   0  0  0  0  0  0  0  0  0  0  0  0
  186.9550  178.1840  141.9400 C   0  0  0  0  0  0  0  0  0  0  0  0
  185.2220  178.5850  138.5460 C   0  0  0  0  0  3  0  0  0  0  0  0
  186.0710  178.8680  140.9390 C   0  0  2  0  0  3  0  0  0  0  0  0
  186.6080  178.1180  143.2420 C   0  0  0  0  0  0  0  0  0  0  0  0
  191.6070  176.8450  143.0240 C   0  0  0  0  0  3  0  0  0  0  0  0
  188.2800  177.7440  141.4700 C   0  0  0  0  0  0  0  0  0  0  0  0
  189.9380  177.0160  144.7710 C   0  0  0  0  0  3  0  0  0  0  0  0
  188.9630  177.3320  143.8190 C   0  0  0  0  0  0  0  0  0  0  0  0
  184.6210  178.8100  141.3340 C   0  0  0  0  0  0  0  0  0  0  0  0
  187.5390  177.5120  144.2740 C   0  0  0  0  0  3  0  0  0  0  0  0
  184.3030  178.7740  142.6900 O   0  0  0  0  0  0  0  0  0  0  0  0
  183.6530  178.8380  140.4130 C   0  0  0  0  0  3  0  0  0  0  0  0
  188.5210  177.6580  140.1930 N   0  0  0  0  0  2  0  0  0  0  0  0
  187.5430  177.9360  139.1700 C   0  0  0  0  0  0  0  0  0  0  0  0
  189.3120  177.3960  142.4580 C   0  0  0  0  0  0  0  0  0  0  0  0
  185.2820  178.5320  143.6380 N   0  0  0  0  0  0  0  0  0  0  0  0
  183.9730  178.7970  138.9710 C   0  0  0  0  0  3  0  0  0  0  0  0
  191.2580  176.7790  144.3750 C   0  0  0  0  0  3  0  0  0  0  0  0
  190.6360  177.1530  142.0670 C   0  0  0  0  0  3  0  0  0  0  0  0
  188.8530  175.3100  137.2360 C   0  0  1  0  0  3  0  0  0  0  0  0
  190.6740  176.6400  134.6570 O   0  0  0  0  0  0  0  0  0  0  0  0
  188.6320  174.1110  136.3320 C   0  0  0  0  0  1  0  0  0  0  0  0
  189.1950  178.1520  135.6940 C   0  0  0  0  0  2  0  0  0  0  0  0
  187.9050  177.6120  137.7670 C   0  0  0  0  0  0  0  0  0  0  0  0
  190.1770  176.0000  136.8690 C   0  0  0  0  0  2  0  0  0  0  0  0
  188.6580  178.4700  137.0640 C   0  0  0  0  0  3  0  0  0  0  0  0
  187.6300  176.2400  137.1890 C   0  0  2  0  0  3  0  0  0  0  0  0
  186.4720  175.6130  137.8110 N   0  0  0  0  0  1  0  0  0  0  0  0
  190.0650  176.9170  135.6750 C   0  0  0  0  0  0  0  0  0  0  0  0
  184.8930  178.5400  145.0410 C   0  0  0  0  0  2  0  0  0  0  0  0
  183.7100  179.2630  145.1950 O   0  0  0  0  0  1  0  0  0  0  0  0
  2  5  1  0  0  0  0
  3 18  2  0  0  0  0
  3  1  1  0  0  0  0
  4  1  1  6  0  0  0
  4 10  1  0  0  0  0
  4  2  1  0  0  0  0
  5 17  1  0  0  0  0
  5 11  2  0  0  0  0
  6 19  1  0  0  0  0
  7  2  2  0  0  0  0
  7 16  1  0  0  0  0
  9 11  1  0  0  0  0
  9  8  1  0  0  0  0
 10 12  1  0  0  0  0
 12 17  1  0  0  0  0
 13 10  2  0  0  0  0
 14  7  1  0  0  0  0
 15  1  2  0  0  0  0
 15 14  1  0  0  0  0
 16  9  2  0  0  0  0
 17 31  1  0  0  0  0
 18 13  1  0  0  0  0
 19  8  2  0  0  0  0
 20 16  1  0  0  0  0
 20  6  2  0  0  0  0
 21 23  1  6  0  0  0
 22 30  2  0  0  0  0
 24 27  1  0  0  0  0
 25 15  1  0  0  0  0
 26 21  1  0  0  0  0
 27 25  2  0  0  0  0
 28 21  1  0  0  0  0
 28 25  1  0  0  0  0
 28 29  1  1  0  0  0
 30 24  1  0  0  0  0
 30 26  1  0  0  0  0
 31 32  1  0  0  0  0
M  END
>  <MODEL>
7

>  <REMARK>
 VINA RESULT:     -10.2      2.415      4.765
  Name = 
  2 active torsions:
  status: ('A' for Active; 'I' for Inactive)
    1  A    between atoms: C_13  and  N_29
    2  A    between atoms: C_16  and  C_27
                            x       y       z     vdW  Elec       q    Type
                         _______ _______ _______ _____ _____    ______ ____

>  <TORSDO>
F 2

$$$$
=
 OpenBabel10272413153D

 32 37  0  0  1  0  0  0  0  0999 V2000
  186.9800  178.1320  140.2310 C   0  0  0  0  0  0  0  0  0  0  0  0
  185.2110  178.5900  141.9570 C   0  0  0  0  0  0  0  0  0  0  0  0
  187.2660  177.8880  138.8000 C   0  0  0  0  0  3  0  0  0  0  0  0
  185.7020  178.8680  140.5670 C   0  0  2  0  0  3  0  0  0  0  0  0
  183.9190  178.7880  142.2890 C   0  0  0  0  0  0  0  0  0  0  0  0
  186.4820  178.2830  146.7420 C   0  0  0  0  0  3  0  0  0  0  0  0
  186.2270  178.2580  142.9700 C   0  0  0  0  0  0  0  0  0  0  0  0
  184.1700  178.6130  146.1030 C   0  0  0  0  0  3  0  0  0  0  0  0
  184.5240  178.5360  144.7530 C   0  0  0  0  0  0  0  0  0  0  0  0
  184.6200  178.6850  139.5390 C   0  0  0  0  0  0  0  0  0  0  0  0
  183.4360  178.6000  143.7140 C   0  0  0  0  0  3  0  0  0  0  0  0
  183.3000  178.9300  139.9140 O   0  0  0  0  0  0  0  0  0  0  0  0
  184.9140  178.3410  138.2810 C   0  0  0  0  0  3  0  0  0  0  0  0
  187.4240  177.9040  142.5980 N   0  0  0  0  0  2  0  0  0  0  0  0
  187.8320  177.7730  141.2210 C   0  0  0  0  0  0  0  0  0  0  0  0
  185.8670  178.3220  144.3950 C   0  0  0  0  0  0  0  0  0  0  0  0
  182.9610  179.0780  141.2470 N   0  0  0  0  0  0  0  0  0  0  0  0
  186.2960  178.0020  137.8880 C   0  0  0  0  0  3  0  0  0  0  0  0
  185.1470  178.4930  147.0960 C   0  0  0  0  0  3  0  0  0  0  0  0
  186.8430  178.1970  145.3940 C   0  0  0  0  0  3  0  0  0  0  0  0
  190.8680  177.0580  142.8430 C   0  0  1  0  0  3  0  0  0  0  0  0
  193.4230  177.3430  140.5790 O   0  0  0  0  0  0  0  0  0  0  0  0
  191.7620  176.0770  143.5800 C   0  0  0  0  0  1  0  0  0  0  0  0
  191.2810  177.1430  139.6190 C   0  0  0  0  0  2  0  0  0  0  0  0
  189.1660  177.1780  140.9530 C   0  0  0  0  0  0  0  0  0  0  0  0
  191.7330  178.0570  142.0560 C   0  0  0  0  0  2  0  0  0  0  0  0
  189.8640  177.5800  139.8810 C   0  0  0  0  0  3  0  0  0  0  0  0
  189.8470  176.2990  141.9790 C   0  0  2  0  0  3  0  0  0  0  0  0
  188.8830  175.5910  142.8100 N   0  0  0  0  0  1  0  0  0  0  0  0
  192.2260  177.5130  140.7370 C   0  0  0  0  0  0  0  0  0  0  0  0
  181.5720  179.3650  141.5720 C   0  0  0  0  0  2  0  0  0  0  0  0
  180.7910  179.2660  140.4200 O   0  0  0  0  0  1  0  0  0  0  0  0
  1  4  1  0  0  0  0
  1 15  2  0  0  0  0
  2  5  2  0  0  0  0
  2  7  1  0  0  0  0
  3  1  1  0  0  0  0
  4 10  1  6  0  0  0
  4  2  1  0  0  0  0
  5 11  1  0  0  0  0
  6 19  1  0  0  0  0
  7 16  2  0  0  0  0
  8 19  2  0  0  0  0
  9  8  1  0  0  0  0
 10 12  1  0  0  0  0
 11  9  2  0  0  0  0
 12 17  1  0  0  0  0
 13 10  2  0  0  0  0
 14  7  1  0  0  0  0
 15 14  1  0  0  0  0
 16  9  1  0  0  0  0
 16 20  1  0  0  0  0
 17 31  1  0  0  0  0
 17  5  1  0  0  0  0
 18 13  1  0  0  0  0
 18  3  2  0  0  0  0
 20  6  2  0  0  0  0
 21 23  1  6  0  0  0
 22 30  2  0  0  0  0
 24 27  1  0  0  0  0
 24 30  1  0  0  0  0
 25 15  1  0  0  0  0
 25 28  1  0  0  0  0
 26 21  1  0  0  0  0
 27 25  2  0  0  0  0
 28 29  1  1  0  0  0
 28 21  1  0  0  0  0
 30 26  1  0  0  0  0
 32 31  1  0  0  0  0
M  END
>  <MODEL>
8

>  <REMARK>
 VINA RESULT:     -10.1      2.755      5.639
  Name = 
  2 active torsions:
  status: ('A' for Active; 'I' for Inactive)
    1  A    between atoms: C_13  and  N_29
    2  A    between atoms: C_16  and  C_27
                            x       y       z     vdW  Elec       q    Type
                         _______ _______ _______ _____ _____    ______ ____

>  <TORSDO>
F 2

$$$$
=
 OpenBabel10272413153D

 32 37  0  0  1  0  0  0  0  0999 V2000
  182.6290  178.7930  141.8430 C   0  0  2  0  0  3  0  0  0  0  0  0
  184.8860  178.5900  142.9300 C   0  0  0  0  0  0  0  0  0  0  0  0
  181.1640  178.8010  142.0480 C   0  0  0  0  0  3  0  0  0  0  0  0
  183.4970  179.1450  143.0310 C   0  0  2  0  0  3  0  0  0  0  0  0
  185.6490  178.4210  144.0300 C   0  0  0  0  0  0  0  0  0  0  0  0
  188.8480  178.0320  139.9970 C   0  0  0  0  0  3  0  0  0  0  0  0
  185.4320  178.3990  141.5750 C   0  0  0  0  0  0  0  0  0  0  0  0
  189.0650  177.8560  142.4020 C   0  0  0  0  0  3  0  0  0  0  0  0
  187.6850  178.0320  142.5470 C   0  0  0  0  0  0  0  0  0  0  0  0
  182.8560  178.8260  144.3540 C   0  0  0  0  0  0  0  0  0  0  0  0
  187.0860  177.9500  143.9260 C   0  0  0  0  0  3  0  0  0  0  0  0
  183.6760  178.6910  145.4730 O   0  0  0  0  0  0  0  0  0  0  0  0
  181.5290  178.7190  144.4700 C   0  0  0  0  0  3  0  0  0  0  0  0
  184.6330  178.3990  140.5470 N   0  0  0  0  0  0  0  0  0  0  0  0
  183.2010  178.5390  140.6420 C   0  0  0  0  0  0  0  0  0  0  0  0
  186.8800  178.2010  141.4070 C   0  0  0  0  0  0  0  0  0  0  0  0
  185.0490  178.5890  145.3340 N   0  0  0  0  0  0  0  0  0  0  0  0
  180.6530  178.7810  143.2830 C   0  0  0  0  0  3  0  0  0  0  0  0
  189.6460  177.8620  141.1300 C   0  0  0  0  0  3  0  0  0  0  0  0
  187.4670  178.2010  140.1330 C   0  0  0  0  0  3  0  0  0  0  0  0
  183.0970  176.4850  137.7910 C   0  0  1  0  0  3  0  0  0  0  0  0
  181.8640  178.3050  135.1640 O   0  0  0  0  0  0  0  0  0  0  0  0
  182.5500  175.2640  137.0740 C   0  0  0  0  0  1  0  0  0  0  0  0
  181.4380  179.2360  137.2860 C   0  0  0  0  0  2  0  0  0  0  0  0
  182.4060  178.3290  139.4050 C   0  0  0  0  0  0  0  0  0  0  0  0
  183.4310  177.5820  136.7660 C   0  0  0  0  0  2  0  0  0  0  0  0
  182.1050  179.3780  138.6270 C   0  0  0  0  0  3  0  0  0  0  0  0
  182.1210  176.9340  138.8910 C   0  0  2  0  0  3  0  0  0  0  0  0
  182.0660  175.9600  139.9710 N   0  0  0  0  0  1  0  0  0  0  0  0
  182.2260  178.3770  136.3250 C   0  0  0  0  0  0  0  0  0  0  0  0
  185.8530  178.4830  146.5420 C   0  0  0  0  0  2  0  0  0  0  0  0
  185.6070  179.5810  147.3670 O   0  0  0  0  0  1  0  0  0  0  0  0
  1  3  1  6  0  0  0
  1  4  1  0  0  0  0
  2  5  1  0  0  0  0
  3 18  2  0  0  0  0
  4  2  1  6  0  0  0
  4 10  1  0  0  0  0
  5 17  1  0  0  0  0
  6 20  2  0  0  0  0
  6 19  1  0  0  0  0
  7  2  2  0  0  0  0
  8  9  1  0  0  0  0
  9 11  1  0  0  0  0
 10 13  2  0  0  0  0
 10 12  1  0  0  0  0
 11  5  2  0  0  0  0
 14 15  2  0  0  0  0
 14  7  1  0  0  0  0
 15  1  1  0  0  0  0
 16  7  1  0  0  0  0
 16  9  2  0  0  0  0
 17 12  1  0  0  0  0
 17 31  1  0  0  0  0
 18 13  1  0  0  0  0
 19  8  2  0  0  0  0
 20 16  1  0  0  0  0
 21 23  1  6  0  0  0
 21 28  1  0  0  0  0
 22 30  2  0  0  0  0
 24 27  1  0  0  0  0
 25 15  1  0  0  0  0
 26 21  1  0  0  0  0
 27 25  2  0  0  0  0
 28 25  1  0  0  0  0
 28 29  1  1  0  0  0
 30 26  1  0  0  0  0
 30 24  1  0  0  0  0
 31 32  1  0  0  0  0
M  END
>  <MODEL>
9

>  <REMARK>
 VINA RESULT:     -10.0      3.183      5.937
  Name = 
  2 active torsions:
  status: ('A' for Active; 'I' for Inactive)
    1  A    between atoms: C_13  and  N_29
    2  A    between atoms: C_16  and  C_27
                            x       y       z     vdW  Elec       q    Type
                         _______ _______ _______ _____ _____    ______ ____

>  <TORSDO>
F 2

$$$$
