=
 OpenBabel10272400333D

 31 34  0  0  1  0  0  0  0  0999 V2000
  188.2940  177.4200  147.8050 C   0  0  0  0  0  0  0  0  0  0  0  0
  187.1590  177.9190  144.2590 C   0  0  0  0  0  0  0  0  0  0  0  0
  185.7170  178.3400  144.3410 C   0  0  0  0  0  0  0  0  0  0  0  0
  183.7540  179.0610  145.5960 C   0  0  0  0  0  3  0  0  0  0  0  0
  187.9620  177.6250  145.3960 C   0  0  0  0  0  0  0  0  0  0  0  0
  189.6130  177.0130  147.6010 C   0  0  0  0  0  3  0  0  0  0  0  0
  185.1100  178.7320  145.5460 C   0  0  0  0  0  3  0  0  0  0  0  0
  189.0700  177.3390  142.8460 C   0  0  0  0  0  0  0  0  0  0  0  0
  187.8060  177.5240  149.0640 F   0  0  0  0  0  0  0  0  0  0  0  0
  185.5300  177.9740  141.9250 N   0  0  0  0  0  2  0  0  0  0  0  0
  182.9790  179.0000  144.4390 C   0  0  0  0  0  3  0  0  0  0  0  0
  189.8050  177.0760  143.9560 N   0  0  0  0  0  0  0  0  0  0  0  0
  187.7340  177.7520  142.9730 C   0  0  0  0  0  0  0  0  0  0  0  0
  187.4780  177.7210  146.7130 C   0  0  0  0  0  3  0  0  0  0  0  0
  182.7810  178.5710  142.0790 O   0  0  0  0  0  1  0  0  0  0  0  0
  189.2990  177.2030  145.2050 C   0  0  0  0  0  0  0  0  0  0  0  0
  190.1130  176.9040  146.3030 C   0  0  0  0  0  3  0  0  0  0  0  0
  186.9660  178.1120  141.7280 C   0  0  0  0  0  2  0  0  0  0  0  0
  184.9280  178.3160  143.1720 C   0  0  0  0  0  0  0  0  0  0  0  0
  183.5610  178.6240  143.2280 C   0  0  0  0  0  0  0  0  0  0  0  0
  191.9090  177.2550  142.1640 O   0  0  0  0  0  0  0  0  0  0  0  0
  191.0540  177.1550  141.2420 C   0  0  0  0  0  0  0  0  0  0  0  0
  189.6520  177.1960  141.5410 N   0  0  0  0  0  2  0  0  0  0  0  0
  192.7330  177.3700  139.4940 C   0  0  0  0  0  2  0  0  0  0  0  0
  191.5070  176.9920  139.8480 C   0  0  0  0  0  0  0  0  0  0  0  0
  191.1020  175.1850  138.3580 O   0  0  0  0  0  1  0  0  0  0  0  0
  190.5810  176.3900  138.8300 C   0  0  2  0  0  3  0  0  0  0  0  0
  190.3230  177.3350  137.6550 C   0  0  0  0  0  2  0  0  0  0  0  0
  188.9860  178.0710  137.7500 C   0  0  1  0  0  3  0  0  0  0  0  0
  187.8690  177.1430  138.1930 C   0  0  0  0  0  1  0  0  0  0  0  0
  189.0750  179.1630  138.6120 O   0  0  0  0  0  1  0  0  0  0  0  0
  1  9  1  0  0  0  0
  2  3  1  0  0  0  0
  2  5  1  0  0  0  0
  3  7  1  0  0  0  0
  5 14  1  0  0  0  0
  6  1  1  0  0  0  0
  7  4  2  0  0  0  0
  8 13  1  0  0  0  0
  8 12  2  0  0  0  0
 10 19  1  0  0  0  0
 11  4  1  0  0  0  0
 12 16  1  0  0  0  0
 13  2  2  0  0  0  0
 14  1  2  0  0  0  0
 15 20  1  0  0  0  0
 16  5  2  0  0  0  0
 16 17  1  0  0  0  0
 17  6  2  0  0  0  0
 18 10  1  0  0  0  0
 18 13  1  0  0  0  0
 19 20  1  0  0  0  0
 19  3  2  0  0  0  0
 20 11  2  0  0  0  0
 22 23  1  0  0  0  0
 22 21  2  0  0  0  0
 23  8  1  0  0  0  0
 24 25  2  0  0  0  0
 25 22  1  0  0  0  0
 27 26  1  6  0  0  0
 27 25  1  0  0  0  0
 28 29  1  0  0  0  0
 28 27  1  0  0  0  0
 29 30  1  1  0  0  0
 29 31  1  0  0  0  0
M  END
>  <MODEL>
1

>  <REMARK>
 VINA RESULT:     -10.4      0.000      0.000
  Name = 
  5 active torsions:
  status: ('A' for Active; 'I' for Inactive)
    1  A    between atoms: C_1  and  C_24
    2  A    between atoms: C_9  and  C_22
    3  A    between atoms: C_15  and  N_23
    4  A    between atoms: C_19  and  C_22
    5  A    between atoms: C_19  and  C_24
                            x       y       z     vdW  Elec       q    Type
                         _______ _______ _______ _____ _____    ______ ____

>  <TORSDO>
F 5

$$$$
=
 OpenBabel10272400333D

 31 34  0  0  1  0  0  0  0  0999 V2000
  184.1570  178.8520  144.8360 C   0  0  0  0  0  0  0  0  0  0  0  0
  187.6880  177.6250  144.4680 C   0  0  0  0  0  0  0  0  0  0  0  0
  188.2430  177.5340  145.8630 C   0  0  0  0  0  0  0  0  0  0  0  0
  187.9880  177.5900  148.2880 C   0  0  0  0  0  3  0  0  0  0  0  0
  186.3660  178.0580  144.1700 C   0  0  0  0  0  0  0  0  0  0  0  0
  183.7640  178.9190  143.4990 C   0  0  0  0  0  3  0  0  0  0  0  0
  187.4320  177.6190  147.0070 C   0  0  0  0  0  3  0  0  0  0  0  0
  188.0830  177.4030  142.0630 C   0  0  0  0  0  0  0  0  0  0  0  0
  183.2870  179.1980  145.8150 F   0  0  0  0  0  0  0  0  0  0  0  0
  190.4770  177.2470  144.8960 N   0  0  0  0  0  2  0  0  0  0  0  0
  189.3690  177.4790  148.4460 C   0  0  0  0  0  3  0  0  0  0  0  0
  186.8120  177.8130  141.8210 N   0  0  0  0  0  0  0  0  0  0  0  0
  188.5500  177.3130  143.3840 C   0  0  0  0  0  0  0  0  0  0  0  0
  185.4450  178.4270  145.1660 C   0  0  0  0  0  3  0  0  0  0  0  0
  191.5690  177.2690  147.4940 O   0  0  0  0  0  1  0  0  0  0  0  0
  185.9550  178.1390  142.8180 C   0  0  0  0  0  0  0  0  0  0  0  0
  184.6640  178.5640  142.4920 C   0  0  0  0  0  3  0  0  0  0  0  0
  189.9380  176.7810  143.6270 C   0  0  0  0  0  2  0  0  0  0  0  0
  189.6350  177.3890  146.0390 C   0  0  0  0  0  0  0  0  0  0  0  0
  190.1940  177.3840  147.3250 C   0  0  0  0  0  0  0  0  0  0  0  0
  188.4250  178.8380  139.5420 O   0  0  0  0  0  0  0  0  0  0  0  0
  189.1000  177.7940  139.7480 C   0  0  0  0  0  0  0  0  0  0  0  0
  188.9540  177.0620  140.9740 N   0  0  0  0  0  2  0  0  0  0  0  0
  189.8790  177.6800  137.4460 C   0  0  0  0  0  2  0  0  0  0  0  0
  190.0470  177.3280  138.7190 C   0  0  0  0  0  0  0  0  0  0  0  0
  192.1550  177.2090  139.8100 O   0  0  0  0  0  1  0  0  0  0  0  0
  191.2070  176.4590  139.1130 C   0  0  2  0  0  3  0  0  0  0  0  0
  191.8660  175.7930  137.9030 C   0  0  0  0  0  2  0  0  0  0  0  0
  193.3930  175.8570  137.9320 C   0  0  1  0  0  3  0  0  0  0  0  0
  194.0130  174.4910  137.6940 C   0  0  0  0  0  1  0  0  0  0  0  0
  193.8740  176.7740  136.9980 O   0  0  0  0  0  1  0  0  0  0  0  0
  1 14  1  0  0  0  0
  1  9  1  0  0  0  0
  2  3  1  0  0  0  0
  3 19  2  0  0  0  0
  3  7  1  0  0  0  0
  4 11  1  0  0  0  0
  5  2  1  0  0  0  0
  5 14  2  0  0  0  0
  6  1  2  0  0  0  0
  7  4  2  0  0  0  0
  8 13  1  0  0  0  0
 10 19  1  0  0  0  0
 12  8  2  0  0  0  0
 12 16  1  0  0  0  0
 13 18  1  0  0  0  0
 13  2  2  0  0  0  0
 16  5  1  0  0  0  0
 17 16  2  0  0  0  0
 17  6  1  0  0  0  0
 18 10  1  0  0  0  0
 19 20  1  0  0  0  0
 20 15  1  0  0  0  0
 20 11  2  0  0  0  0
 21 22  2  0  0  0  0
 22 23  1  0  0  0  0
 23  8  1  0  0  0  0
 24 25  2  0  0  0  0
 25 27  1  0  0  0  0
 25 22  1  0  0  0  0
 27 26  1  6  0  0  0
 28 29  1  0  0  0  0
 28 27  1  0  0  0  0
 29 30  1  6  0  0  0
 31 29  1  0  0  0  0
M  END
>  <MODEL>
2

>  <REMARK>
 VINA RESULT:     -10.1      1.990      4.826
  Name = 
  5 active torsions:
  status: ('A' for Active; 'I' for Inactive)
    1  A    between atoms: C_1  and  C_24
    2  A    between atoms: C_9  and  C_22
    3  A    between atoms: C_15  and  N_23
    4  A    between atoms: C_19  and  C_22
    5  A    between atoms: C_19  and  C_24
                            x       y       z     vdW  Elec       q    Type
                         _______ _______ _______ _____ _____    ______ ____

>  <TORSDO>
F 5

$$$$
=
 OpenBabel10272400333D

 31 34  0  0  1  0  0  0  0  0999 V2000
  190.5160  176.8830  146.6170 C   0  0  0  0  0  0  0  0  0  0  0  0
  187.9980  177.7190  143.9570 C   0  0  0  0  0  0  0  0  0  0  0  0
  186.7480  178.1340  144.6840 C   0  0  0  0  0  0  0  0  0  0  0  0
  185.5410  178.7370  146.7170 C   0  0  0  0  0  3  0  0  0  0  0  0
  189.1960  177.3170  144.6100 C   0  0  0  0  0  0  0  0  0  0  0  0
  191.6020  176.4940  145.8320 C   0  0  0  0  0  3  0  0  0  0  0  0
  186.7310  178.4110  146.0620 C   0  0  0  0  0  3  0  0  0  0  0  0
  189.0960  177.2720  141.8170 C   0  0  0  0  0  0  0  0  0  0  0  0
  190.6160  176.8680  147.9670 F   0  0  0  0  0  0  0  0  0  0  0  0
  185.5330  177.9990  142.5610 N   0  0  0  0  0  2  0  0  0  0  0  0
  184.3450  178.7870  146.0030 C   0  0  0  0  0  3  0  0  0  0  0  0
  190.2230  176.9030  142.4770 N   0  0  0  0  0  0  0  0  0  0  0  0
  187.9610  177.6730  142.5390 C   0  0  0  0  0  0  0  0  0  0  0  0
  189.3250  177.2880  146.0100 C   0  0  0  0  0  3  0  0  0  0  0  0
  183.1410  178.5850  143.9300 O   0  0  0  0  0  1  0  0  0  0  0  0
  190.3050  176.9120  143.8290 C   0  0  0  0  0  0  0  0  0  0  0  0
  191.4950  176.5080  144.4410 C   0  0  0  0  0  3  0  0  0  0  0  0
  186.7520  178.1520  141.7790 C   0  0  0  0  0  2  0  0  0  0  0  0
  185.5360  178.2230  143.9700 C   0  0  0  0  0  0  0  0  0  0  0  0
  184.3380  178.5270  144.6320 C   0  0  0  0  0  0  0  0  0  0  0  0
  191.3350  177.6210  139.9740 O   0  0  0  0  0  0  0  0  0  0  0  0
  190.1810  177.4240  139.5050 C   0  0  0  0  0  0  0  0  0  0  0  0
  189.0590  177.2520  140.3810 N   0  0  0  0  0  2  0  0  0  0  0  0
  190.4670  176.3380  137.3470 C   0  0  0  0  0  2  0  0  0  0  0  0
  189.9930  177.3680  138.0440 C   0  0  0  0  0  0  0  0  0  0  0  0
  188.9510  179.4950  138.2470 O   0  0  0  0  0  1  0  0  0  0  0  0
  189.2560  178.4750  137.3450 C   0  0  2  0  0  3  0  0  0  0  0  0
  187.9740  177.9800  136.6730 C   0  0  0  0  0  2  0  0  0  0  0  0
  187.0250  177.2610  137.6310 C   0  0  1  0  0  3  0  0  0  0  0  0
  185.7120  178.0090  137.7810 C   0  0  0  0  0  1  0  0  0  0  0  0
  186.7880  175.9520  137.2150 O   0  0  0  0  0  1  0  0  0  0  0  0
  1  9  1  0  0  0  0
  2  5  1  0  0  0  0
  2  3  1  0  0  0  0
  3  7  1  0  0  0  0
  5 14  2  0  0  0  0
  6  1  2  0  0  0  0
  7  4  2  0  0  0  0
  8 12  2  0  0  0  0
  8 13  1  0  0  0  0
 10 19  1  0  0  0  0
 11  4  1  0  0  0  0
 12 16  1  0  0  0  0
 13  2  2  0  0  0  0
 14  1  1  0  0  0  0
 15 20  1  0  0  0  0
 16 17  2  0  0  0  0
 16  5  1  0  0  0  0
 17  6  1  0  0  0  0
 18 13  1  0  0  0  0
 18 10  1  0  0  0  0
 19 20  1  0  0  0  0
 19  3  2  0  0  0  0
 20 11  2  0  0  0  0
 22 21  2  0  0  0  0
 22 23  1  0  0  0  0
 23  8  1  0  0  0  0
 24 25  2  0  0  0  0
 25 22  1  0  0  0  0
 27 25  1  0  0  0  0
 27 26  1  1  0  0  0
 28 27  1  0  0  0  0
 28 29  1  0  0  0  0
 29 30  1  6  0  0  0
 31 29  1  0  0  0  0
M  END
>  <MODEL>
3

>  <REMARK>
 VINA RESULT:     -10.1      1.521      2.250
  Name = 
  5 active torsions:
  status: ('A' for Active; 'I' for Inactive)
    1  A    between atoms: C_1  and  C_24
    2  A    between atoms: C_9  and  C_22
    3  A    between atoms: C_15  and  N_23
    4  A    between atoms: C_19  and  C_22
    5  A    between atoms: C_19  and  C_24
                            x       y       z     vdW  Elec       q    Type
                         _______ _______ _______ _____ _____    ______ ____

>  <TORSDO>
F 5

$$$$
=
 OpenBabel10272400333D

 31 34  0  0  1  0  0  0  0  0999 V2000
  190.5800  176.7970  146.6610 C   0  0  0  0  0  0  0  0  0  0  0  0
  188.0310  177.6610  144.0390 C   0  0  0  0  0  0  0  0  0  0  0  0
  186.7980  178.0920  144.7860 C   0  0  0  0  0  0  0  0  0  0  0  0
  185.6300  178.7110  146.8360 C   0  0  0  0  0  3  0  0  0  0  0  0
  189.2350  177.2450  144.6750 C   0  0  0  0  0  0  0  0  0  0  0  0
  191.6490  176.3950  145.8610 C   0  0  0  0  0  3  0  0  0  0  0  0
  186.8060  178.3700  146.1630 C   0  0  0  0  0  3  0  0  0  0  0  0
  189.0910  177.1980  141.8830 C   0  0  0  0  0  0  0  0  0  0  0  0
  190.7010  176.7830  148.0100 F   0  0  0  0  0  0  0  0  0  0  0  0
  185.5490  177.9690  142.6810 N   0  0  0  0  0  2  0  0  0  0  0  0
  184.4230  178.7750  146.1410 C   0  0  0  0  0  3  0  0  0  0  0  0
  190.2230  176.8160  142.5270 N   0  0  0  0  0  0  0  0  0  0  0  0
  187.9720  177.6140  142.6220 C   0  0  0  0  0  0  0  0  0  0  0  0
  189.3850  177.2160  146.0720 C   0  0  0  0  0  3  0  0  0  0  0  0
  183.1850  178.5850  144.0860 O   0  0  0  0  0  1  0  0  0  0  0  0
  190.3260  176.8250  143.8770 C   0  0  0  0  0  0  0  0  0  0  0  0
  191.5210  176.4080  144.4710 C   0  0  0  0  0  3  0  0  0  0  0  0
  186.7570  178.1060  141.8810 C   0  0  0  0  0  2  0  0  0  0  0  0
  185.5760  178.1940  144.0900 C   0  0  0  0  0  0  0  0  0  0  0  0
  184.3920  178.5130  144.7710 C   0  0  0  0  0  0  0  0  0  0  0  0
  191.2990  177.5590  140.0060 O   0  0  0  0  0  0  0  0  0  0  0  0
  190.1390  177.3550  139.5550 C   0  0  0  0  0  0  0  0  0  0  0  0
  189.0310  177.1770  140.4480 N   0  0  0  0  0  2  0  0  0  0  0  0
  189.3730  178.3250  137.4590 C   0  0  0  0  0  2  0  0  0  0  0  0
  189.9270  177.2970  138.0970 C   0  0  0  0  0  0  0  0  0  0  0  0
  190.4600  174.9820  138.1940 O   0  0  0  0  0  1  0  0  0  0  0  0
  190.3460  176.0740  137.3320 C   0  0  2  0  0  3  0  0  0  0  0  0
  191.6660  176.2820  136.5880 C   0  0  0  0  0  2  0  0  0  0  0  0
  192.8900  175.8230  137.3820 C   0  0  1  0  0  3  0  0  0  0  0  0
  193.6590  174.7410  136.6440 C   0  0  0  0  0  1  0  0  0  0  0  0
  193.7300  176.8970  137.6740 O   0  0  0  0  0  1  0  0  0  0  0  0
  1  9  1  0  0  0  0
  2  5  1  0  0  0  0
  2  3  1  0  0  0  0
  3  7  1  0  0  0  0
  5 14  2  0  0  0  0
  6  1  2  0  0  0  0
  7  4  2  0  0  0  0
  8 12  2  0  0  0  0
  8 13  1  0  0  0  0
 10 19  1  0  0  0  0
 11  4  1  0  0  0  0
 12 16  1  0  0  0  0
 13  2  2  0  0  0  0
 14  1  1  0  0  0  0
 15 20  1  0  0  0  0
 16 17  2  0  0  0  0
 16  5  1  0  0  0  0
 17  6  1  0  0  0  0
 18 13  1  0  0  0  0
 18 10  1  0  0  0  0
 19 20  1  0  0  0  0
 19  3  2  0  0  0  0
 20 11  2  0  0  0  0
 22 21  2  0  0  0  0
 22 23  1  0  0  0  0
 23  8  1  0  0  0  0
 24 25  2  0  0  0  0
 25 22  1  0  0  0  0
 27 25  1  0  0  0  0
 27 26  1  1  0  0  0
 28 27  1  0  0  0  0
 28 29  1  0  0  0  0
 29 30  1  6  0  0  0
 29 31  1  0  0  0  0
M  END
>  <MODEL>
4

>  <REMARK>
 VINA RESULT:     -10.1      1.655      2.523
  Name = 
  5 active torsions:
  status: ('A' for Active; 'I' for Inactive)
    1  A    between atoms: C_1  and  C_24
    2  A    between atoms: C_9  and  C_22
    3  A    between atoms: C_15  and  N_23
    4  A    between atoms: C_19  and  C_22
    5  A    between atoms: C_19  and  C_24
                            x       y       z     vdW  Elec       q    Type
                         _______ _______ _______ _____ _____    ______ ____

>  <TORSDO>
F 5

$$$$
=
 OpenBabel10272400333D

 31 34  0  0  1  0  0  0  0  0999 V2000
  184.2740  178.7880  145.0400 C   0  0  0  0  0  0  0  0  0  0  0  0
  187.7190  177.7530  143.9590 C   0  0  0  0  0  0  0  0  0  0  0  0
  188.4630  177.4060  145.2200 C   0  0  0  0  0  0  0  0  0  0  0  0
  188.5470  176.9780  147.6200 C   0  0  0  0  0  3  0  0  0  0  0  0
  186.3690  178.2000  143.9360 C   0  0  0  0  0  0  0  0  0  0  0  0
  183.6990  179.1040  143.8090 C   0  0  0  0  0  3  0  0  0  0  0  0
  187.8180  177.2430  146.4580 C   0  0  0  0  0  3  0  0  0  0  0  0
  187.7770  178.0170  141.5270 C   0  0  0  0  0  0  0  0  0  0  0  0
  183.5480  178.9120  146.1770 F   0  0  0  0  0  0  0  0  0  0  0  0
  190.5400  177.3740  143.9200 N   0  0  0  0  0  2  0  0  0  0  0  0
  189.9360  176.8770  147.5630 C   0  0  0  0  0  3  0  0  0  0  0  0
  186.4840  178.4320  141.5470 N   0  0  0  0  0  0  0  0  0  0  0  0
  188.4220  177.6830  142.7280 C   0  0  0  0  0  0  0  0  0  0  0  0
  185.5950  178.3420  145.1010 C   0  0  0  0  0  3  0  0  0  0  0  0
  191.9820  176.9160  146.2980 O   0  0  0  0  0  1  0  0  0  0  0  0
  185.7740  178.5330  142.6950 C   0  0  0  0  0  0  0  0  0  0  0  0
  184.4500  178.9780  142.6390 C   0  0  0  0  0  3  0  0  0  0  0  0
  189.8300  177.1510  142.6690 C   0  0  0  0  0  2  0  0  0  0  0  0
  189.8650  177.2660  145.1730 C   0  0  0  0  0  0  0  0  0  0  0  0
  190.5980  177.0250  146.3440 C   0  0  0  0  0  0  0  0  0  0  0  0
  186.7140  178.4130  138.8360 O   0  0  0  0  0  0  0  0  0  0  0  0
  187.9340  178.1250  138.9760 C   0  0  0  0  0  0  0  0  0  0  0  0
  188.4880  177.9200  140.2830 N   0  0  0  0  0  2  0  0  0  0  0  0
  188.9820  179.0500  136.9850 C   0  0  0  0  0  2  0  0  0  0  0  0
  188.7920  178.0020  137.7840 C   0  0  0  0  0  0  0  0  0  0  0  0
  190.7730  176.9040  137.0620 O   0  0  0  0  0  1  0  0  0  0  0  0
  189.4570  176.6910  137.4760 C   0  0  2  0  0  3  0  0  0  0  0  0
  188.7030  175.8980  136.4080 C   0  0  0  0  0  2  0  0  0  0  0  0
  187.5540  175.0610  136.9710 C   0  0  1  0  0  3  0  0  0  0  0  0
  186.2040  175.6530  136.6110 C   0  0  0  0  0  1  0  0  0  0  0  0
  187.6340  173.7400  136.5330 O   0  0  0  0  0  1  0  0  0  0  0  0
  1 14  1  0  0  0  0
  1  9  1  0  0  0  0
  2  3  1  0  0  0  0
  3  7  1  0  0  0  0
  5  2  1  0  0  0  0
  5 14  2  0  0  0  0
  6  1  2  0  0  0  0
  7  4  2  0  0  0  0
  8 12  2  0  0  0  0
  8 13  1  0  0  0  0
 10 19  1  0  0  0  0
 11  4  1  0  0  0  0
 12 16  1  0  0  0  0
 13  2  2  0  0  0  0
 15 20  1  0  0  0  0
 16  5  1  0  0  0  0
 17 16  2  0  0  0  0
 17  6  1  0  0  0  0
 18 13  1  0  0  0  0
 18 10  1  0  0  0  0
 19  3  2  0  0  0  0
 19 20  1  0  0  0  0
 20 11  2  0  0  0  0
 21 22  2  0  0  0  0
 22 23  1  0  0  0  0
 23  8  1  0  0  0  0
 24 25  2  0  0  0  0
 25 22  1  0  0  0  0
 27 26  1  6  0  0  0
 27 25  1  0  0  0  0
 28 29  1  0  0  0  0
 28 27  1  0  0  0  0
 29 30  1  6  0  0  0
 31 29  1  0  0  0  0
M  END
>  <MODEL>
5

>  <REMARK>
 VINA RESULT:      -9.7      2.055      4.841
  Name = 
  5 active torsions:
  status: ('A' for Active; 'I' for Inactive)
    1  A    between atoms: C_1  and  C_24
    2  A    between atoms: C_9  and  C_22
    3  A    between atoms: C_15  and  N_23
    4  A    between atoms: C_19  and  C_22
    5  A    between atoms: C_19  and  C_24
                            x       y       z     vdW  Elec       q    Type
                         _______ _______ _______ _____ _____    ______ ____

>  <TORSDO>
F 5

$$$$
=
 OpenBabel10272400333D

 31 34  0  0  1  0  0  0  0  0999 V2000
  189.8790  177.8160  147.9120 C   0  0  0  0  0  0  0  0  0  0  0  0
  188.3770  177.6140  144.4740 C   0  0  0  0  0  0  0  0  0  0  0  0
  189.5330  177.4530  143.5250 C   0  0  0  0  0  0  0  0  0  0  0  0
  191.8940  177.0610  143.0580 C   0  0  0  0  0  3  0  0  0  0  0  0
  188.5230  177.7330  145.8850 C   0  0  0  0  0  0  0  0  0  0  0  0
  188.7310  177.9870  148.6870 C   0  0  0  0  0  3  0  0  0  0  0  0
  190.8330  177.1460  143.9620 C   0  0  0  0  0  3  0  0  0  0  0  0
  185.9620  177.8810  144.7710 C   0  0  0  0  0  0  0  0  0  0  0  0
  191.0960  177.7690  148.5050 F   0  0  0  0  0  0  0  0  0  0  0  0
  188.0000  177.9060  141.6680 N   0  0  0  0  0  2  0  0  0  0  0  0
  191.6740  177.2870  141.7000 C   0  0  0  0  0  3  0  0  0  0  0  0
  186.1430  177.9810  146.1130 N   0  0  0  0  0  0  0  0  0  0  0  0
  187.0710  177.7080  143.9270 C   0  0  0  0  0  0  0  0  0  0  0  0
  189.7740  177.6910  146.5250 C   0  0  0  0  0  3  0  0  0  0  0  0
  190.1800  177.8030  139.8860 O   0  0  0  0  0  1  0  0  0  0  0  0
  187.3690  177.9150  146.6840 C   0  0  0  0  0  0  0  0  0  0  0  0
  187.4790  178.0380  148.0730 C   0  0  0  0  0  3  0  0  0  0  0  0
  186.8340  177.5210  142.4510 C   0  0  0  0  0  2  0  0  0  0  0  0
  189.3190  177.6450  142.1450 C   0  0  0  0  0  0  0  0  0  0  0  0
  190.3900  177.5840  141.2420 C   0  0  0  0  0  0  0  0  0  0  0  0
  184.4880  180.2760  143.9850 O   0  0  0  0  0  0  0  0  0  0  0  0
  183.9480  179.1470  143.8320 C   0  0  0  0  0  0  0  0  0  0  0  0
  184.6420  177.9500  144.2110 N   0  0  0  0  0  2  0  0  0  0  0  0
  181.5370  178.9030  144.0480 C   0  0  0  0  0  2  0  0  0  0  0  0
  182.5940  179.0630  143.2550 C   0  0  0  0  0  0  0  0  0  0  0  0
  181.0620  179.0180  141.4380 O   0  0  0  0  0  1  0  0  0  0  0  0
  182.4100  179.1650  141.7680 C   0  0  2  0  0  3  0  0  0  0  0  0
  183.2420  178.1280  141.0110 C   0  0  0  0  0  2  0  0  0  0  0  0
  184.1660  178.7410  139.9590 C   0  0  1  0  0  3  0  0  0  0  0  0
  183.3870  179.5400  138.9300 C   0  0  0  0  0  1  0  0  0  0  0  0
  185.1410  179.5410  140.5520 O   0  0  0  0  0  1  0  0  0  0  0  0
  1  9  1  0  0  0  0
  1  6  1  0  0  0  0
  2  5  1  0  0  0  0
  3  7  1  0  0  0  0
  3  2  1  0  0  0  0
  4  7  2  0  0  0  0
  5 14  1  0  0  0  0
  5 16  2  0  0  0  0
  8 12  2  0  0  0  0
 10 19  1  0  0  0  0
 10 18  1  0  0  0  0
 11  4  1  0  0  0  0
 12 16  1  0  0  0  0
 13  2  2  0  0  0  0
 13  8  1  0  0  0  0
 14  1  2  0  0  0  0
 15 20  1  0  0  0  0
 16 17  1  0  0  0  0
 17  6  2  0  0  0  0
 18 13  1  0  0  0  0
 19  3  2  0  0  0  0
 20 11  2  0  0  0  0
 20 19  1  0  0  0  0
 22 21  2  0  0  0  0
 22 23  1  0  0  0  0
 23  8  1  0  0  0  0
 25 22  1  0  0  0  0
 25 24  2  0  0  0  0
 27 26  1  1  0  0  0
 27 25  1  0  0  0  0
 28 27  1  0  0  0  0
 29 30  1  6  0  0  0
 29 31  1  0  0  0  0
 29 28  1  0  0  0  0
M  END
>  <MODEL>
6

>  <REMARK>
 VINA RESULT:      -9.7      2.082      6.174
  Name = 
  5 active torsions:
  status: ('A' for Active; 'I' for Inactive)
    1  A    between atoms: C_1  and  C_24
    2  A    between atoms: C_9  and  C_22
    3  A    between atoms: C_15  and  N_23
    4  A    between atoms: C_19  and  C_22
    5  A    between atoms: C_19  and  C_24
                            x       y       z     vdW  Elec       q    Type
                         _______ _______ _______ _____ _____    ______ ____

>  <TORSDO>
F 5

$$$$
=
 OpenBabel10272400333D

 31 34  0  0  1  0  0  0  0  0999 V2000
  186.5380  178.0070  146.8910 C   0  0  0  0  0  0  0  0  0  0  0  0
  187.5110  177.9690  143.2630 C   0  0  0  0  0  0  0  0  0  0  0  0
  188.9370  177.4930  143.2220 C   0  0  0  0  0  0  0  0  0  0  0  0
  190.9190  176.5400  144.2770 C   0  0  0  0  0  3  0  0  0  0  0  0
  186.7660  178.1280  144.4650 C   0  0  0  0  0  0  0  0  0  0  0  0
  185.2290  178.4820  146.8040 C   0  0  0  0  0  3  0  0  0  0  0  0
  189.5760  176.9170  144.3330 C   0  0  0  0  0  3  0  0  0  0  0  0
  185.5700  178.8030  142.0300 C   0  0  0  0  0  0  0  0  0  0  0  0
  187.0710  177.7130  148.1010 F   0  0  0  0  0  0  0  0  0  0  0  0
  189.0420  178.1850  140.8730 N   0  0  0  0  0  2  0  0  0  0  0  0
  191.6500  176.7350  143.1050 C   0  0  0  0  0  3  0  0  0  0  0  0
  184.8900  178.9330  143.1980 N   0  0  0  0  0  0  0  0  0  0  0  0
  186.8920  178.3330  142.0390 C   0  0  0  0  0  0  0  0  0  0  0  0
  187.2970  177.8340  145.7330 C   0  0  0  0  0  3  0  0  0  0  0  0
  191.7710  177.4810  140.8210 O   0  0  0  0  0  1  0  0  0  0  0  0
  185.4400  178.6170  144.3940 C   0  0  0  0  0  0  0  0  0  0  0  0
  184.6820  178.7880  145.5570 C   0  0  0  0  0  3  0  0  0  0  0  0
  187.5960  178.1240  140.7230 C   0  0  0  0  0  2  0  0  0  0  0  0
  189.6790  177.6530  142.0340 C   0  0  0  0  0  0  0  0  0  0  0  0
  191.0350  177.2950  141.9850 C   0  0  0  0  0  0  0  0  0  0  0  0
  183.3510  177.4290  140.7190 O   0  0  0  0  0  0  0  0  0  0  0  0
  183.8490  178.4480  140.1700 C   0  0  0  0  0  0  0  0  0  0  0  0
  184.9420  179.1460  140.7840 N   0  0  0  0  0  2  0  0  0  0  0  0
  182.5800  180.0450  138.8430 C   0  0  0  0  0  2  0  0  0  0  0  0
  183.2980  178.9250  138.8880 C   0  0  0  0  0  0  0  0  0  0  0  0
  182.3880  177.4940  137.2220 O   0  0  0  0  0  1  0  0  0  0  0  0
  183.5530  178.1440  137.6310 C   0  0  2  0  0  3  0  0  0  0  0  0
  184.6780  177.1220  137.8050 C   0  0  0  0  0  2  0  0  0  0  0  0
  185.9830  177.5320  137.1210 C   0  0  1  0  0  3  0  0  0  0  0  0
  185.8490  177.5110  135.6080 C   0  0  0  0  0  1  0  0  0  0  0  0
  186.4000  178.7900  137.5510 O   0  0  0  0  0  1  0  0  0  0  0  0
  1  9  1  0  0  0  0
  2  5  1  0  0  0  0
  3  2  1  0  0  0  0
  3  7  1  0  0  0  0
  4  7  2  0  0  0  0
  5 14  1  0  0  0  0
  6  1  1  0  0  0  0
  8 13  1  0  0  0  0
  8 12  2  0  0  0  0
 10 19  1  0  0  0  0
 11  4  1  0  0  0  0
 12 16  1  0  0  0  0
 13  2  2  0  0  0  0
 14  1  2  0  0  0  0
 15 20  1  0  0  0  0
 16  5  2  0  0  0  0
 16 17  1  0  0  0  0
 17  6  2  0  0  0  0
 18 10  1  0  0  0  0
 18 13  1  0  0  0  0
 19  3  2  0  0  0  0
 20 19  1  0  0  0  0
 20 11  2  0  0  0  0
 22 21  2  0  0  0  0
 22 23  1  0  0  0  0
 23  8  1  0  0  0  0
 24 25  2  0  0  0  0
 25 22  1  0  0  0  0
 27 26  1  1  0  0  0
 27 28  1  0  0  0  0
 27 25  1  0  0  0  0
 29 30  1  6  0  0  0
 29 31  1  0  0  0  0
 29 28  1  0  0  0  0
M  END
>  <MODEL>
7

>  <REMARK>
 VINA RESULT:      -9.4      2.292      5.753
  Name = 
  5 active torsions:
  status: ('A' for Active; 'I' for Inactive)
    1  A    between atoms: C_1  and  C_24
    2  A    between atoms: C_9  and  C_22
    3  A    between atoms: C_15  and  N_23
    4  A    between atoms: C_19  and  C_22
    5  A    between atoms: C_19  and  C_24
                            x       y       z     vdW  Elec       q    Type
                         _______ _______ _______ _____ _____    ______ ____

>  <TORSDO>
F 5

$$$$
=
 OpenBabel10272400333D

 31 34  0  0  1  0  0  0  0  0999 V2000
  189.6320  177.0030  146.1660 C   0  0  0  0  0  0  0  0  0  0  0  0
  187.3220  178.0820  143.4060 C   0  0  0  0  0  0  0  0  0  0  0  0
  186.0000  178.3690  144.0620 C   0  0  0  0  0  0  0  0  0  0  0  0
  184.5990  178.6870  146.0330 C   0  0  0  0  0  3  0  0  0  0  0  0
  188.4750  177.6380  144.1130 C   0  0  0  0  0  0  0  0  0  0  0  0
  190.7970  176.7440  145.4430 C   0  0  0  0  0  3  0  0  0  0  0  0
  185.8530  178.4770  145.4550 C   0  0  0  0  0  3  0  0  0  0  0  0
  188.6180  177.9280  141.3360 C   0  0  0  0  0  0  0  0  0  0  0  0
  189.6170  176.8280  147.5090 F   0  0  0  0  0  0  0  0  0  0  0  0
  184.9780  178.4570  141.8360 N   0  0  0  0  0  2  0  0  0  0  0  0
  183.4670  178.7890  145.2250 C   0  0  0  0  0  3  0  0  0  0  0  0
  189.6980  177.5150  142.0490 N   0  0  0  0  0  0  0  0  0  0  0  0
  187.4110  178.2070  141.9950 C   0  0  0  0  0  0  0  0  0  0  0  0
  188.4840  177.4440  145.5060 C   0  0  0  0  0  3  0  0  0  0  0  0
  182.4550  178.8040  143.0420 O   0  0  0  0  0  1  0  0  0  0  0  0
  189.6620  177.3630  143.3930 C   0  0  0  0  0  0  0  0  0  0  0  0
  190.8100  176.9220  144.0590 C   0  0  0  0  0  3  0  0  0  0  0  0
  186.2530  178.7380  141.1910 C   0  0  0  0  0  2  0  0  0  0  0  0
  184.8510  178.5090  143.2560 C   0  0  0  0  0  0  0  0  0  0  0  0
  183.5890  178.6960  143.8380 C   0  0  0  0  0  0  0  0  0  0  0  0
  190.0910  176.2490  139.4540 O   0  0  0  0  0  0  0  0  0  0  0  0
  189.4370  177.2340  139.0150 C   0  0  0  0  0  0  0  0  0  0  0  0
  188.7060  178.0810  139.9110 N   0  0  0  0  0  2  0  0  0  0  0  0
  189.1910  178.7400  137.1190 C   0  0  0  0  0  2  0  0  0  0  0  0
  189.4260  177.5080  137.5660 C   0  0  0  0  0  0  0  0  0  0  0  0
  189.9070  176.9070  135.3170 O   0  0  0  0  0  1  0  0  0  0  0  0
  189.6870  176.3920  136.5950 C   0  0  2  0  0  3  0  0  0  0  0  0
  188.5370  175.3830  136.5520 C   0  0  0  0  0  2  0  0  0  0  0  0
  187.4610  175.7320  135.5240 C   0  0  1  0  0  3  0  0  0  0  0  0
  186.7570  174.4880  135.0100 C   0  0  0  0  0  1  0  0  0  0  0  0
  186.5320  176.6260  136.0530 O   0  0  0  0  0  1  0  0  0  0  0  0
  1  9  1  0  0  0  0
  2  3  1  0  0  0  0
  2  5  1  0  0  0  0
  3  7  1  0  0  0  0
  5 14  2  0  0  0  0
  6  1  2  0  0  0  0
  7  4  2  0  0  0  0
  8 13  1  0  0  0  0
  8 12  2  0  0  0  0
 10 19  1  0  0  0  0
 11  4  1  0  0  0  0
 12 16  1  0  0  0  0
 13  2  2  0  0  0  0
 14  1  1  0  0  0  0
 15 20  1  0  0  0  0
 16 17  2  0  0  0  0
 16  5  1  0  0  0  0
 17  6  1  0  0  0  0
 18 10  1  0  0  0  0
 18 13  1  0  0  0  0
 19 20  1  0  0  0  0
 19  3  2  0  0  0  0
 20 11  2  0  0  0  0
 22 21  2  0  0  0  0
 22 23  1  0  0  0  0
 23  8  1  0  0  0  0
 24 25  2  0  0  0  0
 25 22  1  0  0  0  0
 27 26  1  6  0  0  0
 27 25  1  0  0  0  0
 28 27  1  0  0  0  0
 29 30  1  1  0  0  0
 29 31  1  0  0  0  0
 29 28  1  0  0  0  0
M  END
>  <MODEL>
8

>  <REMARK>
 VINA RESULT:      -9.2      1.828      2.388
  Name = 
  5 active torsions:
  status: ('A' for Active; 'I' for Inactive)
    1  A    between atoms: C_1  and  C_24
    2  A    between atoms: C_9  and  C_22
    3  A    between atoms: C_15  and  N_23
    4  A    between atoms: C_19  and  C_22
    5  A    between atoms: C_19  and  C_24
                            x       y       z     vdW  Elec       q    Type
                         _______ _______ _______ _____ _____    ______ ____

>  <TORSDO>
F 5

$$$$
=
 OpenBabel10272400333D

 31 34  0  0  1  0  0  0  0  0999 V2000
  185.0890  178.8610  142.8200 C   0  0  0  0  0  0  0  0  0  0  0  0
  188.6300  177.6070  142.8960 C   0  0  0  0  0  0  0  0  0  0  0  0
  188.9580  177.3790  144.3460 C   0  0  0  0  0  0  0  0  0  0  0  0
  188.3250  177.2160  146.6960 C   0  0  0  0  0  3  0  0  0  0  0  0
  187.3730  178.0900  142.4360 C   0  0  0  0  0  0  0  0  0  0  0  0
  184.9130  179.0570  141.4500 C   0  0  0  0  0  3  0  0  0  0  0  0
  187.9770  177.3730  145.3520 C   0  0  0  0  0  3  0  0  0  0  0  0
  189.3980  177.6000  140.5720 C   0  0  0  0  0  0  0  0  0  0  0  0
  184.0770  179.1320  143.6790 F   0  0  0  0  0  0  0  0  0  0  0  0
  191.3150  177.1400  143.7180 N   0  0  0  0  0  2  0  0  0  0  0  0
  189.6630  177.0660  147.0570 C   0  0  0  0  0  3  0  0  0  0  0  0
  188.1820  178.0540  140.1740 N   0  0  0  0  0  0  0  0  0  0  0  0
  189.6510  177.3800  141.9360 C   0  0  0  0  0  0  0  0  0  0  0  0
  186.3080  178.3830  143.3070 C   0  0  0  0  0  3  0  0  0  0  0  0
  191.9840  176.9030  146.4450 O   0  0  0  0  0  1  0  0  0  0  0  0
  187.1810  178.3030  141.0500 C   0  0  0  0  0  0  0  0  0  0  0  0
  185.9580  178.7800  140.5680 C   0  0  0  0  0  3  0  0  0  0  0  0
  190.9810  176.8020  142.3420 C   0  0  0  0  0  2  0  0  0  0  0  0
  190.3040  177.1920  144.7230 C   0  0  0  0  0  0  0  0  0  0  0  0
  190.6540  177.0590  146.0750 C   0  0  0  0  0  0  0  0  0  0  0  0
  189.2900  175.7670  138.3010 O   0  0  0  0  0  0  0  0  0  0  0  0
  190.3400  176.4370  138.4970 C   0  0  0  0  0  0  0  0  0  0  0  0
  190.4280  177.3440  139.6050 N   0  0  0  0  0  2  0  0  0  0  0  0
  191.3060  176.4450  136.2650 C   0  0  0  0  0  2  0  0  0  0  0  0
  191.4800  176.2860  137.5750 C   0  0  0  0  0  0  0  0  0  0  0  0
  193.7640  176.9250  137.7230 O   0  0  0  0  0  1  0  0  0  0  0  0
  192.8400  175.9580  138.1200 C   0  0  2  0  0  3  0  0  0  0  0  0
  193.3210  174.5740  137.6780 C   0  0  0  0  0  2  0  0  0  0  0  0
  194.8400  174.4760  137.5350 C   0  0  1  0  0  3  0  0  0  0  0  0
  195.4850  173.9400  138.8000 C   0  0  0  0  0  1  0  0  0  0  0  0
  195.1910  173.6850  136.4420 O   0  0  0  0  0  1  0  0  0  0  0  0
  1 14  1  0  0  0  0
  1  9  1  0  0  0  0
  2  3  1  0  0  0  0
  3 19  2  0  0  0  0
  3  7  1  0  0  0  0
  4 11  1  0  0  0  0
  5  2  1  0  0  0  0
  5 14  2  0  0  0  0
  6  1  2  0  0  0  0
  7  4  2  0  0  0  0
  8 13  1  0  0  0  0
 10 19  1  0  0  0  0
 12  8  2  0  0  0  0
 12 16  1  0  0  0  0
 13 18  1  0  0  0  0
 13  2  2  0  0  0  0
 16  5  1  0  0  0  0
 17 16  2  0  0  0  0
 17  6  1  0  0  0  0
 18 10  1  0  0  0  0
 19 20  1  0  0  0  0
 20 15  1  0  0  0  0
 20 11  2  0  0  0  0
 21 22  2  0  0  0  0
 22 23  1  0  0  0  0
 23  8  1  0  0  0  0
 24 25  2  0  0  0  0
 25 27  1  0  0  0  0
 25 22  1  0  0  0  0
 27 26  1  6  0  0  0
 28 27  1  0  0  0  0
 29 28  1  0  0  0  0
 29 30  1  1  0  0  0
 31 29  1  0  0  0  0
M  END
>  <MODEL>
9

>  <REMARK>
 VINA RESULT:      -9.1      2.648      5.427
  Name = 
  5 active torsions:
  status: ('A' for Active; 'I' for Inactive)
    1  A    between atoms: C_1  and  C_24
    2  A    between atoms: C_9  and  C_22
    3  A    between atoms: C_15  and  N_23
    4  A    between atoms: C_19  and  C_22
    5  A    between atoms: C_19  and  C_24
                            x       y       z     vdW  Elec       q    Type
                         _______ _______ _______ _____ _____    ______ ____

>  <TORSDO>
F 5

$$$$
