=
 OpenBabel10272415123D

 34 39  0  0  1  0  0  0  0  0999 V2000
  189.3270  177.9680  142.8320 N   0  0  0  0  0  0  0  0  0  0  0  0
  185.5730  177.6830  143.5450 C   0  0  0  0  0  3  0  0  0  0  0  0
  184.0640  179.1290  140.4360 C   0  0  0  0  0  0  0  0  0  0  0  0
  187.5870  177.5910  144.9970 C   0  0  0  0  0  3  0  0  0  0  0  0
  191.0310  176.8960  144.2700 C   0  0  0  0  0  2  0  0  0  0  0  0
  190.5160  176.4500  146.6810 C   0  0  0  0  0  2  0  0  0  0  0  0
  184.3690  179.8450  139.2840 O   0  0  0  0  0  0  0  0  0  0  0  0
  191.6070  176.8400  145.6840 C   0  0  0  0  0  2  0  0  0  0  0  0
  188.8890  177.6480  145.2560 C   0  0  0  0  0  0  0  0  0  0  0  0
  189.9070  177.9340  144.1840 C   0  0  2  0  0  3  0  0  0  0  0  0
  189.3740  177.4650  146.6580 C   0  0  0  0  0  2  0  0  0  0  0  0
  184.7390  178.0980  142.5800 C   0  0  0  0  0  3  0  0  0  0  0  0
  182.8700  178.7870  140.6490 O   0  0  0  0  0  1  0  0  0  0  0  0
  185.0980  178.7850  141.3700 N   0  0  0  0  0  0  0  0  0  0  0  0
  186.4600  179.2060  141.0800 C   0  0  0  0  0  2  0  0  0  0  0  0
  187.0500  177.7630  143.6420 C   0  0  0  0  0  0  0  0  0  0  0  0
  187.3860  178.0210  141.1990 C   0  0  0  0  0  2  0  0  0  0  0  0
  187.8970  177.9250  142.6020 C   0  0  0  0  0  0  0  0  0  0  0  0
  190.2380  178.2820  141.7330 C   0  0  0  0  0  2  0  0  0  0  0  0
  189.8010  175.5020  137.9860 C   0  0  0  0  0  3  0  0  0  0  0  0
  190.2710  178.2730  138.8470 C   0  0  0  0  0  2  0  0  0  0  0  0
  186.9120  177.2780  136.3270 C   0  0  0  0  0  0  0  0  0  0  0  0
  190.7780  176.9980  141.1150 C   0  0  2  0  0  3  0  0  0  0  0  0
  187.8020  176.2750  136.7350 C   0  0  0  0  0  3  0  0  0  0  0  0
  188.8830  176.5770  137.5670 C   0  0  0  0  0  0  0  0  0  0  0  0
  192.0780  177.2880  140.3730 C   0  0  0  0  0  2  0  0  0  0  0  0
  188.2040  178.9080  137.5880 C   0  0  0  0  0  3  0  0  0  0  0  0
  189.0810  177.9050  138.0040 C   0  0  0  0  0  0  0  0  0  0  0  0
  187.1230  178.5970  136.7590 C   0  0  0  0  0  3  0  0  0  0  0  0
  190.8120  177.0480  139.5920 C   0  0  2  0  0  0  0  0  0  0  0  0
  190.7300  175.7140  138.9200 C   0  0  0  0  0  3  0  0  0  0  0  0
  185.8000  176.9500  135.4790 N   0  0  0  0  0  0  0  0  0  0  0  0
  184.8940  175.8590  135.8040 C   0  0  0  0  0  1  0  0  0  0  0  0
  185.5770  177.6570  134.3470 O   0  0  0  0  0  1  0  0  0  0  0  0
  1 10  1  0  0  0  0
  2 16  1  0  0  0  0
  3 13  1  0  0  0  0
  3 14  1  0  0  0  0
  4  9  2  0  0  0  0
  5  8  1  0  0  0  0
  7  3  2  0  0  0  0
  8  6  1  0  0  0  0
  9 11  1  0  0  0  0
 10  5  1  6  0  0  0
 10  9  1  0  0  0  0
 11  6  1  0  0  0  0
 12  2  2  0  0  0  0
 14 12  1  0  0  0  0
 15 17  1  0  0  0  0
 15 14  1  0  0  0  0
 16  4  1  0  0  0  0
 17 18  1  0  0  0  0
 18  1  1  0  0  0  0
 18 16  2  0  0  0  0
 19  1  1  0  0  0  0
 20 31  2  0  0  0  0
 22 24  2  0  0  0  0
 22 29  1  0  0  0  0
 23 19  1  1  0  0  0
 24 25  1  0  0  0  0
 25 20  1  0  0  0  0
 25 28  2  0  0  0  0
 26 23  1  0  0  0  0
 27 28  1  0  0  0  0
 28 21  1  0  0  0  0
 29 27  2  0  0  0  0
 30 21  1  6  0  0  0
 30 26  1  0  0  0  0
 30 23  1  0  0  0  0
 31 30  1  0  0  0  0
 32 33  1  0  0  0  0
 32 22  1  0  0  0  0
 34 32  1  0  0  0  0
M  END
>  <MODEL>
1

>  <REMARK>
 VINA RESULT:      -8.8      0.000      0.000
  Name = 
  3 active torsions:
  status: ('A' for Active; 'I' for Inactive)
    1  A    between atoms: N_1  and  C_9
    2  A    between atoms: C_7  and  N_11
    3  A    between atoms: C_8  and  C_9
                            x       y       z     vdW  Elec       q    Type
                         _______ _______ _______ _____ _____    ______ ____

>  <TORSDO>
F 3

$$$$
=
 OpenBabel10272415123D

 34 39  0  0  1  0  0  0  0  0999 V2000
  189.7760  176.4930  144.1490 N   0  0  0  0  0  0  0  0  0  0  0  0
  186.6310  177.8930  145.8310 C   0  0  0  0  0  3  0  0  0  0  0  0
  184.5060  178.8230  142.8900 C   0  0  0  0  0  0  0  0  0  0  0  0
  188.9410  177.4670  146.6410 C   0  0  0  0  0  3  0  0  0  0  0  0
  191.5470  175.3240  145.4200 C   0  0  0  0  0  2  0  0  0  0  0  0
  191.8750  175.8410  147.8500 C   0  0  0  0  0  2  0  0  0  0  0  0
  184.5340  178.9950  141.5110 O   0  0  0  0  0  0  0  0  0  0  0  0
  192.5740  175.4710  146.5420 C   0  0  0  0  0  2  0  0  0  0  0  0
  190.2110  177.0940  146.5200 C   0  0  0  0  0  0  0  0  0  0  0  0
  190.7890  176.6390  145.2050 C   0  0  2  0  0  3  0  0  0  0  0  0
  191.1180  177.1600  147.7050 C   0  0  0  0  0  2  0  0  0  0  0  0
  185.6380  178.2920  145.0250 C   0  0  0  0  0  3  0  0  0  0  0  0
  183.4340  179.0450  143.5150 O   0  0  0  0  0  1  0  0  0  0  0  0
  185.6840  178.4000  143.5920 N   0  0  0  0  0  0  0  0  0  0  0  0
  186.8970  178.1620  142.8250 C   0  0  0  0  0  2  0  0  0  0  0  0
  188.0010  177.4250  145.5140 C   0  0  0  0  0  0  0  0  0  0  0  0
  187.4530  176.8040  143.1770 C   0  0  0  0  0  2  0  0  0  0  0  0
  188.4070  176.9360  144.3220 C   0  0  0  0  0  0  0  0  0  0  0  0
  190.2560  176.0960  142.8270 C   0  0  0  0  0  2  0  0  0  0  0  0
  193.1560  177.0810  139.2800 C   0  0  0  0  0  3  0  0  0  0  0  0
  190.3520  177.1930  140.1590 C   0  0  0  0  0  2  0  0  0  0  0  0
  191.4720  175.0060  136.6120 C   0  0  0  0  0  0  0  0  0  0  0  0
  191.5510  176.8280  142.4960 C   0  0  2  0  0  3  0  0  0  0  0  0
  192.4500  175.6850  137.3530 C   0  0  0  0  0  3  0  0  0  0  0  0
  192.1070  176.3810  138.5150 C   0  0  0  0  0  0  0  0  0  0  0  0
  191.2640  178.3100  142.2780 C   0  0  0  0  0  2  0  0  0  0  0  0
  189.7860  175.7380  138.2050 C   0  0  0  0  0  3  0  0  0  0  0  0
  190.7630  176.4010  138.9490 C   0  0  0  0  0  0  0  0  0  0  0  0
  190.1380  175.0400  137.0470 C   0  0  0  0  0  3  0  0  0  0  0  0
  191.5470  177.4230  141.0930 C   0  0  2  0  0  0  0  0  0  0  0  0
  192.9020  177.5980  140.4830 C   0  0  0  0  0  3  0  0  0  0  0  0
  191.8430  174.2870  135.4240 N   0  0  0  0  0  0  0  0  0  0  0  0
  191.7260  172.8390  135.3470 C   0  0  0  0  0  1  0  0  0  0  0  0
  192.3160  174.9540  134.3460 O   0  0  0  0  0  1  0  0  0  0  0  0
  1 18  1  0  0  0  0
  1 10  1  0  0  0  0
  3 13  1  0  0  0  0
  3 14  1  0  0  0  0
  5  8  1  0  0  0  0
  7  3  2  0  0  0  0
  8  6  1  0  0  0  0
  9  4  2  0  0  0  0
  9 11  1  0  0  0  0
 10  5  1  1  0  0  0
 10  9  1  0  0  0  0
 11  6  1  0  0  0  0
 12  2  2  0  0  0  0
 14 12  1  0  0  0  0
 15 17  1  0  0  0  0
 15 14  1  0  0  0  0
 16  2  1  0  0  0  0
 16  4  1  0  0  0  0
 17 18  1  0  0  0  0
 18 16  2  0  0  0  0
 19  1  1  0  0  0  0
 20 31  2  0  0  0  0
 22 29  2  0  0  0  0
 22 24  1  0  0  0  0
 23 19  1  6  0  0  0
 24 25  2  0  0  0  0
 25 28  1  0  0  0  0
 25 20  1  0  0  0  0
 26 23  1  0  0  0  0
 27 28  2  0  0  0  0
 28 21  1  0  0  0  0
 29 27  1  0  0  0  0
 30 21  1  6  0  0  0
 30 26  1  0  0  0  0
 30 23  1  0  0  0  0
 31 30  1  0  0  0  0
 32 22  1  0  0  0  0
 33 32  1  0  0  0  0
 34 32  1  0  0  0  0
M  END
>  <MODEL>
2

>  <REMARK>
 VINA RESULT:      -8.6      2.633      3.376
  Name = 
  3 active torsions:
  status: ('A' for Active; 'I' for Inactive)
    1  A    between atoms: N_1  and  C_9
    2  A    between atoms: C_7  and  N_11
    3  A    between atoms: C_8  and  C_9
                            x       y       z     vdW  Elec       q    Type
                         _______ _______ _______ _____ _____    ______ ____

>  <TORSDO>
F 3

$$$$
=
 OpenBabel10272415123D

 34 39  0  0  1  0  0  0  0  0999 V2000
  187.2310  177.5280  144.4530 N   0  0  0  0  0  0  0  0  0  0  0  0
  183.7260  178.9110  145.1460 C   0  0  0  0  0  3  0  0  0  0  0  0
  182.2790  179.1670  141.7000 C   0  0  0  0  0  0  0  0  0  0  0  0
  185.8110  178.8190  146.4950 C   0  0  0  0  0  3  0  0  0  0  0  0
  188.7220  176.7350  146.2610 C   0  0  0  0  0  2  0  0  0  0  0  0
  188.4680  177.6650  148.5750 C   0  0  0  0  0  2  0  0  0  0  0  0
  182.6100  179.1140  140.3510 O   0  0  0  0  0  0  0  0  0  0  0  0
  189.4610  177.1480  147.5330 C   0  0  0  0  0  2  0  0  0  0  0  0
  187.0900  178.5400  146.7170 C   0  0  0  0  0  0  0  0  0  0  0  0
  187.9720  177.9280  145.6600 C   0  0  2  0  0  3  0  0  0  0  0  0
  187.7030  178.8750  148.0390 C   0  0  0  0  0  2  0  0  0  0  0  0
  182.9230  179.0880  144.0870 C   0  0  0  0  0  3  0  0  0  0  0  0
  181.0850  179.3960  142.0310 O   0  0  0  0  0  1  0  0  0  0  0  0
  183.2870  178.9650  142.7020 N   0  0  0  0  0  0  0  0  0  0  0  0
  184.6510  178.7090  142.2680 C   0  0  0  0  0  2  0  0  0  0  0  0
  185.1520  178.5150  145.2180 C   0  0  0  0  0  0  0  0  0  0  0  0
  185.1760  177.4790  142.9660 C   0  0  0  0  0  2  0  0  0  0  0  0
  185.8400  177.8750  144.2480 C   0  0  0  0  0  0  0  0  0  0  0  0
  188.0160  176.9630  143.3570 C   0  0  0  0  0  2  0  0  0  0  0  0
  191.9690  177.3890  140.8770 C   0  0  0  0  0  3  0  0  0  0  0  0
  189.1160  178.0980  140.9420 C   0  0  0  0  0  2  0  0  0  0  0  0
  190.7600  175.8330  137.6570 C   0  0  0  0  0  0  0  0  0  0  0  0
  189.4720  177.3980  143.4740 C   0  0  2  0  0  3  0  0  0  0  0  0
  191.5930  176.2500  138.7050 C   0  0  0  0  0  3  0  0  0  0  0  0
  191.0730  176.9680  139.7860 C   0  0  0  0  0  0  0  0  0  0  0  0
  189.5720  178.9120  143.3290 C   0  0  0  0  0  2  0  0  0  0  0  0
  188.8660  176.8710  138.7770 C   0  0  0  0  0  3  0  0  0  0  0  0
  189.6940  177.2730  139.8260 C   0  0  0  0  0  0  0  0  0  0  0  0
  189.3930  176.1500  137.7020 C   0  0  0  0  0  3  0  0  0  0  0  0
  190.0030  178.0230  142.1910 C   0  0  2  0  0  0  0  0  0  0  0  0
  191.4840  177.9100  142.0060 C   0  0  0  0  0  3  0  0  0  0  0  0
  191.3080  175.0890  136.5580 N   0  0  0  0  0  0  0  0  0  0  0  0
  191.3910  173.6360  136.5900 C   0  0  0  0  0  1  0  0  0  0  0  0
  191.7660  175.7350  135.4610 O   0  0  0  0  0  1  0  0  0  0  0  0
  1 10  1  0  0  0  0
  2 16  1  0  0  0  0
  3 13  1  0  0  0  0
  3 14  1  0  0  0  0
  4  9  2  0  0  0  0
  5  8  1  0  0  0  0
  7  3  2  0  0  0  0
  8  6  1  0  0  0  0
  9 11  1  0  0  0  0
 10  5  1  1  0  0  0
 10  9  1  0  0  0  0
 11  6  1  0  0  0  0
 12  2  2  0  0  0  0
 14 12  1  0  0  0  0
 15 14  1  0  0  0  0
 15 17  1  0  0  0  0
 16  4  1  0  0  0  0
 17 18  1  0  0  0  0
 18  1  1  0  0  0  0
 18 16  2  0  0  0  0
 19  1  1  0  0  0  0
 20 31  2  0  0  0  0
 22 29  2  0  0  0  0
 22 24  1  0  0  0  0
 23 19  1  6  0  0  0
 24 25  2  0  0  0  0
 25 28  1  0  0  0  0
 25 20  1  0  0  0  0
 26 23  1  0  0  0  0
 27 28  2  0  0  0  0
 28 21  1  0  0  0  0
 29 27  1  0  0  0  0
 30 21  1  6  0  0  0
 30 26  1  0  0  0  0
 30 23  1  0  0  0  0
 31 30  1  0  0  0  0
 32 33  1  0  0  0  0
 32 22  1  0  0  0  0
 34 32  1  0  0  0  0
M  END
>  <MODEL>
3

>  <REMARK>
 VINA RESULT:      -8.2      2.366      3.411
  Name = 
  3 active torsions:
  status: ('A' for Active; 'I' for Inactive)
    1  A    between atoms: N_1  and  C_9
    2  A    between atoms: C_7  and  N_11
    3  A    between atoms: C_8  and  C_9
                            x       y       z     vdW  Elec       q    Type
                         _______ _______ _______ _____ _____    ______ ____

>  <TORSDO>
F 3

$$$$
=
 OpenBabel10272415123D

 34 39  0  0  1  0  0  0  0  0999 V2000
  186.8980  177.7330  143.3940 N   0  0  0  0  0  0  0  0  0  0  0  0
  190.7180  178.0170  143.4610 C   0  0  0  0  0  3  0  0  0  0  0  0
  191.6450  177.0840  139.9530 C   0  0  0  0  0  0  0  0  0  0  0  0
  188.9990  177.8390  145.2460 C   0  0  0  0  0  3  0  0  0  0  0  0
  185.4790  178.5340  145.2540 C   0  0  0  0  0  2  0  0  0  0  0  0
  186.4200  178.6380  147.5750 C   0  0  0  0  0  2  0  0  0  0  0  0
  191.1390  176.5350  138.7810 O   0  0  0  0  0  0  0  0  0  0  0  0
  185.1680  178.3670  146.7410 C   0  0  0  0  0  2  0  0  0  0  0  0
  187.7650  177.7080  145.7210 C   0  0  0  0  0  0  0  0  0  0  0  0
  186.5710  177.5520  144.8160 C   0  0  2  0  0  3  0  0  0  0  0  0
  187.5410  177.6710  147.1980 C   0  0  0  0  0  2  0  0  0  0  0  0
  191.3660  177.7720  142.3130 C   0  0  0  0  0  3  0  0  0  0  0  0
  192.8570  177.4250  139.9990 O   0  0  0  0  0  1  0  0  0  0  0  0
  190.7960  177.2580  141.0970 N   0  0  0  0  0  0  0  0  0  0  0  0
  189.4050  176.8450  140.9950 C   0  0  0  0  0  2  0  0  0  0  0  0
  189.2840  177.8820  143.8060 C   0  0  0  0  0  0  0  0  0  0  0  0
  188.5130  177.9730  141.4510 C   0  0  0  0  0  2  0  0  0  0  0  0
  188.2630  177.8490  142.9220 C   0  0  0  0  0  0  0  0  0  0  0  0
  185.8050  177.5560  142.4400 C   0  0  0  0  0  2  0  0  0  0  0  0
  183.7920  179.2700  138.5700 C   0  0  0  0  0  3  0  0  0  0  0  0
  183.3360  177.5970  140.9450 C   0  0  0  0  0  2  0  0  0  0  0  0
  182.8100  175.9930  136.9740 C   0  0  0  0  0  0  0  0  0  0  0  0
  185.5460  178.8580  141.6910 C   0  0  2  0  0  3  0  0  0  0  0  0
  183.1910  177.3320  137.1430 C   0  0  0  0  0  3  0  0  0  0  0  0
  183.3850  177.8610  138.4210 C   0  0  0  0  0  0  0  0  0  0  0  0
  184.3210  179.5540  142.2740 C   0  0  0  0  0  2  0  0  0  0  0  0
  182.8040  175.7110  139.3900 C   0  0  0  0  0  3  0  0  0  0  0  0
  183.1970  177.0400  139.5550 C   0  0  0  0  0  0  0  0  0  0  0  0
  182.6170  175.1880  138.1080 C   0  0  0  0  0  3  0  0  0  0  0  0
  184.2170  178.8520  140.9450 C   0  0  2  0  0  0  0  0  0  0  0  0
  184.1630  179.7580  139.7560 C   0  0  0  0  0  3  0  0  0  0  0  0
  182.6230  175.4610  135.6520 N   0  0  0  0  0  0  0  0  0  0  0  0
  181.7510  174.3220  135.4090 C   0  0  0  0  0  1  0  0  0  0  0  0
  183.2670  176.0150  134.6000 O   0  0  0  0  0  1  0  0  0  0  0  0
  1 10  1  0  0  0  0
  2 16  1  0  0  0  0
  3 13  1  0  0  0  0
  3 14  1  0  0  0  0
  4  9  2  0  0  0  0
  5  8  1  0  0  0  0
  7  3  2  0  0  0  0
  8  6  1  0  0  0  0
  9 11  1  0  0  0  0
 10  5  1  1  0  0  0
 10  9  1  0  0  0  0
 11  6  1  0  0  0  0
 12  2  2  0  0  0  0
 14 12  1  0  0  0  0
 15 14  1  0  0  0  0
 15 17  1  0  0  0  0
 16  4  1  0  0  0  0
 17 18  1  0  0  0  0
 18  1  1  0  0  0  0
 18 16  2  0  0  0  0
 19  1  1  0  0  0  0
 20 31  2  0  0  0  0
 22 24  2  0  0  0  0
 22 29  1  0  0  0  0
 23 26  1  0  0  0  0
 23 19  1  1  0  0  0
 24 25  1  0  0  0  0
 25 20  1  0  0  0  0
 25 28  2  0  0  0  0
 27 28  1  0  0  0  0
 28 21  1  0  0  0  0
 29 27  2  0  0  0  0
 30 31  1  6  0  0  0
 30 21  1  0  0  0  0
 30 23  1  0  0  0  0
 30 26  1  0  0  0  0
 32 22  1  0  0  0  0
 33 32  1  0  0  0  0
 34 32  1  0  0  0  0
M  END
>  <MODEL>
4

>  <REMARK>
 VINA RESULT:      -8.1      2.834      5.500
  Name = 
  3 active torsions:
  status: ('A' for Active; 'I' for Inactive)
    1  A    between atoms: N_1  and  C_9
    2  A    between atoms: C_7  and  N_11
    3  A    between atoms: C_8  and  C_9
                            x       y       z     vdW  Elec       q    Type
                         _______ _______ _______ _____ _____    ______ ____

>  <TORSDO>
F 3

$$$$
=
 OpenBabel10272415123D

 34 39  0  0  1  0  0  0  0  0999 V2000
  187.4750  177.5050  143.8530 N   0  0  0  0  0  0  0  0  0  0  0  0
  188.6770  178.0830  147.4450 C   0  0  0  0  0  3  0  0  0  0  0  0
  191.9510  176.2630  147.4880 C   0  0  0  0  0  0  0  0  0  0  0  0
  186.4590  178.2910  146.3440 C   0  0  0  0  0  3  0  0  0  0  0  0
  185.5250  178.6930  142.9030 C   0  0  0  0  0  2  0  0  0  0  0  0
  183.7160  179.5230  144.4280 C   0  0  0  0  0  2  0  0  0  0  0  0
  192.7320  175.3670  146.7680 O   0  0  0  0  0  0  0  0  0  0  0  0
  184.0230  178.9320  143.0510 C   0  0  0  0  0  2  0  0  0  0  0  0
  185.6050  178.2080  145.3300 C   0  0  0  0  0  0  0  0  0  0  0  0
  186.0230  177.7120  143.9700 C   0  0  2  0  0  3  0  0  0  0  0  0
  184.1720  178.5760  145.5370 C   0  0  0  0  0  2  0  0  0  0  0  0
  189.8710  177.5710  147.7760 C   0  0  0  0  0  3  0  0  0  0  0  0
  192.3730  176.6930  148.5950 O   0  0  0  0  0  1  0  0  0  0  0  0
  190.6810  176.6910  146.9770 N   0  0  0  0  0  0  0  0  0  0  0  0
  190.2370  176.1630  145.6960 C   0  0  0  0  0  2  0  0  0  0  0  0
  187.8790  177.9440  146.2040 C   0  0  0  0  0  0  0  0  0  0  0  0
  189.8200  177.3040  144.8010 C   0  0  0  0  0  2  0  0  0  0  0  0
  188.3630  177.5850  144.9950 C   0  0  0  0  0  0  0  0  0  0  0  0
  187.9650  176.9830  142.5790 C   0  0  0  0  0  2  0  0  0  0  0  0
  191.4070  176.9140  139.4000 C   0  0  0  0  0  3  0  0  0  0  0  0
  188.6070  177.6870  139.8550 C   0  0  0  0  0  2  0  0  0  0  0  0
  189.6530  174.8840  136.7450 C   0  0  0  0  0  0  0  0  0  0  0  0
  189.4150  177.3980  142.3630 C   0  0  2  0  0  3  0  0  0  0  0  0
  190.6560  175.4470  137.5450 C   0  0  0  0  0  3  0  0  0  0  0  0
  190.3330  176.3410  138.5690 C   0  0  0  0  0  0  0  0  0  0  0  0
  189.4760  178.8670  141.9570 C   0  0  0  0  0  2  0  0  0  0  0  0
  187.9820  176.1320  137.9980 C   0  0  0  0  0  3  0  0  0  0  0  0
  188.9820  176.6800  138.8030 C   0  0  0  0  0  0  0  0  0  0  0  0
  188.3140  175.2350  136.9790 C   0  0  0  0  0  3  0  0  0  0  0  0
  189.7040  177.7960  140.9210 C   0  0  2  0  0  0  0  0  0  0  0  0
  191.1280  177.6220  140.4970 C   0  0  0  0  0  3  0  0  0  0  0  0
  190.0010  173.9600  135.7010 N   0  0  0  0  0  0  0  0  0  0  0  0
  191.2730  173.2540  135.7060 C   0  0  0  0  0  1  0  0  0  0  0  0
  189.1410  173.7320  134.6810 O   0  0  0  0  0  1  0  0  0  0  0  0
  1 10  1  0  0  0  0
  1 18  1  0  0  0  0
  2 12  2  0  0  0  0
  3 13  1  0  0  0  0
  5  8  1  0  0  0  0
  6 11  1  0  0  0  0
  7  3  2  0  0  0  0
  8  6  1  0  0  0  0
  9 11  1  0  0  0  0
  9  4  2  0  0  0  0
 10  5  1  6  0  0  0
 10  9  1  0  0  0  0
 14  3  1  0  0  0  0
 14 12  1  0  0  0  0
 15 14  1  0  0  0  0
 16  4  1  0  0  0  0
 16  2  1  0  0  0  0
 17 18  1  0  0  0  0
 17 15  1  0  0  0  0
 18 16  2  0  0  0  0
 19  1  1  0  0  0  0
 20 31  2  0  0  0  0
 22 29  2  0  0  0  0
 22 24  1  0  0  0  0
 23 19  1  6  0  0  0
 24 25  2  0  0  0  0
 25 28  1  0  0  0  0
 25 20  1  0  0  0  0
 26 23  1  0  0  0  0
 27 28  2  0  0  0  0
 28 21  1  0  0  0  0
 29 27  1  0  0  0  0
 30 21  1  6  0  0  0
 30 26  1  0  0  0  0
 30 23  1  0  0  0  0
 31 30  1  0  0  0  0
 32 33  1  0  0  0  0
 32 22  1  0  0  0  0
 34 32  1  0  0  0  0
M  END
>  <MODEL>
5

>  <REMARK>
 VINA RESULT:      -7.8      3.624      5.613
  Name = 
  3 active torsions:
  status: ('A' for Active; 'I' for Inactive)
    1  A    between atoms: N_1  and  C_9
    2  A    between atoms: C_7  and  N_11
    3  A    between atoms: C_8  and  C_9
                            x       y       z     vdW  Elec       q    Type
                         _______ _______ _______ _____ _____    ______ ____

>  <TORSDO>
F 3

$$$$
=
 OpenBabel10272415123D

 34 39  0  0  1  0  0  0  0  0999 V2000
  188.2220  178.1200  142.0070 N   0  0  0  0  0  0  0  0  0  0  0  0
  185.7850  177.6630  144.9280 C   0  0  0  0  0  3  0  0  0  0  0  0
  182.6270  179.1480  143.5660 C   0  0  0  0  0  0  0  0  0  0  0  0
  188.2630  177.6040  144.7610 C   0  0  0  0  0  3  0  0  0  0  0  0
  190.4620  177.0700  141.9760 C   0  0  0  0  0  2  0  0  0  0  0  0
  191.6050  176.5260  144.1390 C   0  0  0  0  0  2  0  0  0  0  0  0
  182.1210  179.9130  142.5210 O   0  0  0  0  0  0  0  0  0  0  0  0
  191.8070  176.9920  142.6970 C   0  0  0  0  0  2  0  0  0  0  0  0
  189.4320  177.7040  144.1360 C   0  0  0  0  0  0  0  0  0  0  0  0
  189.5300  178.0650  142.6770 C   0  0  2  0  0  3  0  0  0  0  0  0
  190.7000  177.4950  144.8990 C   0  0  0  0  0  2  0  0  0  0  0  0
  184.5240  178.0750  144.7360 C   0  0  0  0  0  3  0  0  0  0  0  0
  181.8460  178.7520  144.4720 O   0  0  0  0  0  1  0  0  0  0  0  0
  184.0220  178.8150  143.6110 N   0  0  0  0  0  0  0  0  0  0  0  0
  184.8830  179.2990  142.5430 C   0  0  0  0  0  2  0  0  0  0  0  0
  186.9840  177.7980  144.0680 C   0  0  0  0  0  0  0  0  0  0  0  0
  185.6850  178.1490  141.9850 C   0  0  0  0  0  2  0  0  0  0  0  0
  186.9740  178.0270  142.7360 C   0  0  0  0  0  0  0  0  0  0  0  0
  188.2200  178.5060  140.5970 C   0  0  0  0  0  2  0  0  0  0  0  0
  187.2290  175.3740  137.2550 C   0  0  0  0  0  3  0  0  0  0  0  0
  187.0660  178.2220  137.9670 C   0  0  0  0  0  2  0  0  0  0  0  0
  183.5060  175.9640  137.0460 C   0  0  0  0  0  0  0  0  0  0  0  0
  188.8500  177.4060  139.7500 C   0  0  2  0  0  3  0  0  0  0  0  0
  184.7620  175.3420  136.9950 C   0  0  0  0  0  3  0  0  0  0  0  0
  185.9220  176.0540  137.3100 C   0  0  0  0  0  0  0  0  0  0  0  0
  189.5550  178.0210  138.5460 C   0  0  0  0  0  2  0  0  0  0  0  0
  184.5840  178.0380  137.7220 C   0  0  0  0  0  3  0  0  0  0  0  0
  185.8310  177.4130  137.6850 C   0  0  0  0  0  0  0  0  0  0  0  0
  183.4280  177.3170  137.4110 C   0  0  0  0  0  3  0  0  0  0  0  0
  188.2370  177.3130  138.3590 C   0  0  2  0  0  0  0  0  0  0  0  0
  188.3320  175.9630  137.7210 C   0  0  0  0  0  3  0  0  0  0  0  0
  182.3210  175.2160  136.7290 N   0  0  0  0  0  0  0  0  0  0  0  0
  181.1760  175.1920  137.6260 C   0  0  0  0  0  1  0  0  0  0  0  0
  182.2520  174.5100  135.5770 O   0  0  0  0  0  1  0  0  0  0  0  0
  1 10  1  0  0  0  0
  1 18  1  0  0  0  0
  3 14  1  0  0  0  0
  3 13  1  0  0  0  0
  5  8  1  0  0  0  0
  6 11  1  0  0  0  0
  7  3  2  0  0  0  0
  8  6  1  0  0  0  0
  9  4  2  0  0  0  0
  9 11  1  0  0  0  0
 10  5  1  6  0  0  0
 10  9  1  0  0  0  0
 12  2  2  0  0  0  0
 14 12  1  0  0  0  0
 15 14  1  0  0  0  0
 16  4  1  0  0  0  0
 16  2  1  0  0  0  0
 17 15  1  0  0  0  0
 17 18  1  0  0  0  0
 18 16  2  0  0  0  0
 19  1  1  0  0  0  0
 20 25  1  0  0  0  0
 20 31  2  0  0  0  0
 21 30  1  0  0  0  0
 22 29  1  0  0  0  0
 23 19  1  1  0  0  0
 24 22  2  0  0  0  0
 24 25  1  0  0  0  0
 25 28  2  0  0  0  0
 26 23  1  0  0  0  0
 28 27  1  0  0  0  0
 28 21  1  0  0  0  0
 29 27  2  0  0  0  0
 30 31  1  6  0  0  0
 30 26  1  0  0  0  0
 30 23  1  0  0  0  0
 32 22  1  0  0  0  0
 32 33  1  0  0  0  0
 34 32  1  0  0  0  0
M  END
>  <MODEL>
6

>  <REMARK>
 VINA RESULT:      -7.8      2.062      2.891
  Name = 
  3 active torsions:
  status: ('A' for Active; 'I' for Inactive)
    1  A    between atoms: N_1  and  C_9
    2  A    between atoms: C_7  and  N_11
    3  A    between atoms: C_8  and  C_9
                            x       y       z     vdW  Elec       q    Type
                         _______ _______ _______ _____ _____    ______ ____

>  <TORSDO>
F 3

$$$$
=
 OpenBabel10272415123D

 34 39  0  0  1  0  0  0  0  0999 V2000
  188.8260  177.3690  138.6350 N   0  0  0  0  0  0  0  0  0  0  0  0
  187.0500  176.0280  135.5160 C   0  0  0  0  0  3  0  0  0  0  0  0
  183.5450  177.2530  136.0110 C   0  0  0  0  0  0  0  0  0  0  0  0
  189.1980  175.4530  136.6230 C   0  0  0  0  0  3  0  0  0  0  0  0
  191.2840  177.2860  138.8950 C   0  0  0  0  0  2  0  0  0  0  0  0
  192.6000  175.5250  137.6910 C   0  0  0  0  0  2  0  0  0  0  0  0
  182.6900  177.8220  136.9480 O   0  0  0  0  0  1  0  0  0  0  0  0
  192.4950  176.3570  138.9700 C   0  0  0  0  0  2  0  0  0  0  0  0
  190.1310  175.5460  137.5650 C   0  0  0  0  0  0  0  0  0  0  0  0
  189.9920  176.4780  138.7400 C   0  0  2  0  0  3  0  0  0  0  0  0
  191.3440  174.6760  137.4940 C   0  0  0  0  0  2  0  0  0  0  0  0
  185.7520  176.3350  135.3770 C   0  0  0  0  0  3  0  0  0  0  0  0
  183.1030  176.9810  134.8620 O   0  0  0  0  0  0  0  0  0  0  0  0
  184.9120  176.9800  136.3490 N   0  0  0  0  0  0  0  0  0  0  0  0
  185.3720  177.3090  137.6890 C   0  0  0  0  0  2  0  0  0  0  0  0
  187.9850  176.2790  136.6380 C   0  0  0  0  0  0  0  0  0  0  0  0
  186.6380  178.1260  137.5980 C   0  0  0  0  0  2  0  0  0  0  0  0
  187.8230  177.2130  137.6000 C   0  0  0  0  0  0  0  0  0  0  0  0
  188.5890  178.2780  139.7540 C   0  0  0  0  0  2  0  0  0  0  0  0
  187.5530  176.9220  144.1180 C   0  0  0  0  0  3  0  0  0  0  0  0
  188.7220  179.0950  142.5190 C   0  0  0  0  0  2  0  0  0  0  0  0
  191.0250  177.1180  145.5860 C   0  0  0  0  0  0  0  0  0  0  0  0
  187.4430  177.7630  140.6160 C   0  0  2  0  0  3  0  0  0  0  0  0
  189.6980  176.7340  145.3510 C   0  0  0  0  0  3  0  0  0  0  0  0
  188.9440  177.3500  144.3490 C   0  0  0  0  0  0  0  0  0  0  0  0
  186.5940  178.9340  141.1000 C   0  0  0  0  0  2  0  0  0  0  0  0
  190.8430  178.7630  143.8040 C   0  0  0  0  0  3  0  0  0  0  0  0
  189.5250  178.3690  143.5620 C   0  0  0  0  0  0  0  0  0  0  0  0
  191.5900  178.1390  144.8050 C   0  0  0  0  0  3  0  0  0  0  0  0
  187.5310  178.2460  142.0590 C   0  0  2  0  0  0  0  0  0  0  0  0
  186.8650  177.3540  143.0590 C   0  0  0  0  0  3  0  0  0  0  0  0
  191.7900  176.4690  146.6150 N   0  0  0  0  0  0  0  0  0  0  0  0
  192.3860  175.1580  146.4040 C   0  0  0  0  0  1  0  0  0  0  0  0
  191.9660  177.0710  147.8130 O   0  0  0  0  0  1  0  0  0  0  0  0
  1 10  1  0  0  0  0
  1 19  1  0  0  0  0
  2 16  1  0  0  0  0
  3 14  1  0  0  0  0
  3  7  1  0  0  0  0
  4 16  1  0  0  0  0
  4  9  2  0  0  0  0
  5  8  1  0  0  0  0
  6  8  1  0  0  0  0
  9 10  1  0  0  0  0
 10  5  1  6  0  0  0
 11  9  1  0  0  0  0
 11  6  1  0  0  0  0
 12  2  2  0  0  0  0
 12 14  1  0  0  0  0
 13  3  2  0  0  0  0
 14 15  1  0  0  0  0
 16 18  2  0  0  0  0
 17 18  1  0  0  0  0
 17 15  1  0  0  0  0
 18  1  1  0  0  0  0
 20 25  1  0  0  0  0
 21 28  1  0  0  0  0
 22 32  1  0  0  0  0
 23 19  1  6  0  0  0
 23 26  1  0  0  0  0
 23 30  1  0  0  0  0
 24 22  1  0  0  0  0
 25 24  2  0  0  0  0
 27 29  1  0  0  0  0
 28 27  2  0  0  0  0
 28 25  1  0  0  0  0
 29 22  2  0  0  0  0
 30 26  1  6  0  0  0
 30 21  1  0  0  0  0
 30 31  1  0  0  0  0
 31 20  2  0  0  0  0
 32 34  1  0  0  0  0
 33 32  1  0  0  0  0
M  END
>  <MODEL>
7

>  <REMARK>
 VINA RESULT:      -7.3      2.701      7.456
  Name = 
  3 active torsions:
  status: ('A' for Active; 'I' for Inactive)
    1  A    between atoms: N_1  and  C_9
    2  A    between atoms: C_7  and  N_11
    3  A    between atoms: C_8  and  C_9
                            x       y       z     vdW  Elec       q    Type
                         _______ _______ _______ _____ _____    ______ ____

>  <TORSDO>
F 3

$$$$
=
 OpenBabel10272415123D

 34 39  0  0  1  0  0  0  0  0999 V2000
  187.9540  177.5450  142.3950 N   0  0  0  0  0  0  0  0  0  0  0  0
  185.6140  178.0790  145.3820 C   0  0  0  0  0  3  0  0  0  0  0  0
  182.4510  179.2050  143.7200 C   0  0  0  0  0  0  0  0  0  0  0  0
  188.0820  177.8790  145.1750 C   0  0  0  0  0  3  0  0  0  0  0  0
  190.1610  176.4510  142.6230 C   0  0  0  0  0  2  0  0  0  0  0  0
  191.3670  176.5380  144.8190 C   0  0  0  0  0  2  0  0  0  0  0  0
  181.9290  179.6400  142.5070 O   0  0  0  0  0  0  0  0  0  0  0  0
  191.5290  176.5420  143.2980 C   0  0  0  0  0  2  0  0  0  0  0  0
  189.2290  177.7420  144.5190 C   0  0  0  0  0  0  0  0  0  0  0  0
  189.2840  177.6450  143.0160 C   0  0  2  0  0  3  0  0  0  0  0  0
  190.5170  177.7240  145.2750 C   0  0  0  0  0  2  0  0  0  0  0  0
  184.3580  178.4620  145.1080 C   0  0  0  0  0  3  0  0  0  0  0  0
  181.6930  179.1290  144.7230 O   0  0  0  0  0  1  0  0  0  0  0  0
  183.8370  178.8480  143.8260 N   0  0  0  0  0  0  0  0  0  0  0  0
  184.6720  178.9570  142.6400 C   0  0  0  0  0  2  0  0  0  0  0  0
  186.7840  177.9040  144.4890 C   0  0  0  0  0  0  0  0  0  0  0  0
  185.4200  177.6630  142.4330 C   0  0  0  0  0  2  0  0  0  0  0  0
  186.7310  177.7240  143.1520 C   0  0  0  0  0  0  0  0  0  0  0  0
  187.9120  177.4900  140.9350 C   0  0  0  0  0  2  0  0  0  0  0  0
  190.7420  175.8670  137.5720 C   0  0  0  0  0  3  0  0  0  0  0  0
  188.0930  177.0320  138.0920 C   0  0  0  0  0  2  0  0  0  0  0  0
  188.4810  173.1640  136.2180 C   0  0  0  0  0  0  0  0  0  0  0  0
  189.3160  177.6440  140.3630 C   0  0  2  0  0  3  0  0  0  0  0  0
  189.6280  173.8860  136.5760 C   0  0  0  0  0  3  0  0  0  0  0  0
  189.5200  175.1310  137.2010 C   0  0  0  0  0  0  0  0  0  0  0  0
  189.3570  178.8320  139.4070 C   0  0  0  0  0  2  0  0  0  0  0  0
  187.0990  174.9560  137.1100 C   0  0  0  0  0  3  0  0  0  0  0  0
  188.2430  175.6670  137.4780 C   0  0  0  0  0  0  0  0  0  0  0  0
  187.2170  173.7100  136.4900 C   0  0  0  0  0  3  0  0  0  0  0  0
  189.3620  177.4290  138.8550 C   0  0  2  0  0  0  0  0  0  0  0  0
  190.6830  176.9640  138.3290 C   0  0  0  0  0  3  0  0  0  0  0  0
  188.6090  171.8810  135.5840 N   0  0  0  0  0  0  0  0  0  0  0  0
  189.6800  171.6050  134.6390 C   0  0  0  0  0  1  0  0  0  0  0  0
  187.7200  170.8970  135.8560 O   0  0  0  0  0  1  0  0  0  0  0  0
  1 10  1  0  0  0  0
  1 18  1  0  0  0  0
  3 14  1  0  0  0  0
  3 13  1  0  0  0  0
  5  8  1  0  0  0  0
  6 11  1  0  0  0  0
  7  3  2  0  0  0  0
  8  6  1  0  0  0  0
  9  4  2  0  0  0  0
  9 11  1  0  0  0  0
 10  5  1  1  0  0  0
 10  9  1  0  0  0  0
 12  2  2  0  0  0  0
 14 12  1  0  0  0  0
 15 14  1  0  0  0  0
 16  4  1  0  0  0  0
 16  2  1  0  0  0  0
 17 15  1  0  0  0  0
 17 18  1  0  0  0  0
 18 16  2  0  0  0  0
 19  1  1  0  0  0  0
 20 31  2  0  0  0  0
 22 29  2  0  0  0  0
 22 24  1  0  0  0  0
 23 19  1  6  0  0  0
 24 25  2  0  0  0  0
 25 28  1  0  0  0  0
 25 20  1  0  0  0  0
 26 23  1  0  0  0  0
 27 28  2  0  0  0  0
 28 21  1  0  0  0  0
 29 27  1  0  0  0  0
 30 21  1  6  0  0  0
 30 26  1  0  0  0  0
 30 23  1  0  0  0  0
 31 30  1  0  0  0  0
 32 34  1  0  0  0  0
 32 22  1  0  0  0  0
 33 32  1  0  0  0  0
M  END
>  <MODEL>
8

>  <REMARK>
 VINA RESULT:      -7.3      2.483      3.169
  Name = 
  3 active torsions:
  status: ('A' for Active; 'I' for Inactive)
    1  A    between atoms: N_1  and  C_9
    2  A    between atoms: C_7  and  N_11
    3  A    between atoms: C_8  and  C_9
                            x       y       z     vdW  Elec       q    Type
                         _______ _______ _______ _____ _____    ______ ____

>  <TORSDO>
F 3

$$$$
=
 OpenBabel10272415123D

 34 39  0  0  1  0  0  0  0  0999 V2000
  187.4660  177.7720  141.1120 N   0  0  0  0  0  0  0  0  0  0  0  0
  191.0990  177.0980  142.1270 C   0  0  0  0  0  3  0  0  0  0  0  0
  190.8720  176.9950  145.8650 C   0  0  0  0  0  0  0  0  0  0  0  0
  190.0470  177.9140  140.0290 C   0  0  0  0  0  3  0  0  0  0  0  0
  186.7000  177.6330  138.7640 C   0  0  0  0  0  2  0  0  0  0  0  0
  188.3330  178.0240  136.9040 C   0  0  0  0  0  2  0  0  0  0  0  0
  190.0290  177.2780  146.9340 O   0  0  0  0  0  1  0  0  0  0  0  0
  186.8860  178.2090  137.3610 C   0  0  0  0  0  2  0  0  0  0  0  0
  189.0340  178.2960  139.2590 C   0  0  0  0  0  0  0  0  0  0  0  0
  187.6160  178.3450  139.7660 C   0  0  2  0  0  3  0  0  0  0  0  0
  189.2960  178.7340  137.8540 C   0  0  0  0  0  2  0  0  0  0  0  0
  191.3490  176.9690  143.4380 C   0  0  0  0  0  3  0  0  0  0  0  0
  192.0270  176.5470  146.0950 O   0  0  0  0  0  0  0  0  0  0  0  0
  190.4310  177.2130  144.5170 N   0  0  0  0  0  0  0  0  0  0  0  0
  189.0910  177.7360  144.3040 C   0  0  0  0  0  2  0  0  0  0  0  0
  189.8530  177.4730  141.4160 C   0  0  0  0  0  0  0  0  0  0  0  0
  188.3660  176.8670  143.3050 C   0  0  0  0  0  2  0  0  0  0  0  0
  188.6040  177.3900  141.9230 C   0  0  0  0  0  0  0  0  0  0  0  0
  186.1290  177.8170  141.7010 C   0  0  0  0  0  2  0  0  0  0  0  0
  182.9940  179.4260  138.6120 C   0  0  0  0  0  3  0  0  0  0  0  0
  183.4710  177.3770  140.6660 C   0  0  0  0  0  2  0  0  0  0  0  0
  182.5400  176.2630  136.6020 C   0  0  0  0  0  0  0  0  0  0  0  0
  185.4060  179.0860  141.2670 C   0  0  2  0  0  3  0  0  0  0  0  0
  182.6060  177.6170  136.9590 C   0  0  0  0  0  3  0  0  0  0  0  0
  182.9250  177.9950  138.2650 C   0  0  0  0  0  0  0  0  0  0  0  0
  184.1960  179.3250  142.1650 C   0  0  0  0  0  2  0  0  0  0  0  0
  183.1080  175.6550  138.8880 C   0  0  0  0  0  3  0  0  0  0  0  0
  183.1870  177.0040  139.2370 C   0  0  0  0  0  0  0  0  0  0  0  0
  182.7930  175.2860  137.5780 C   0  0  0  0  0  3  0  0  0  0  0  0
  183.9950  178.8150  140.7610 C   0  0  2  0  0  0  0  0  0  0  0  0
  183.4710  179.8280  139.7920 C   0  0  0  0  0  3  0  0  0  0  0  0
  182.2190  175.8900  135.2520 N   0  0  0  0  0  0  0  0  0  0  0  0
  182.8660  174.7610  134.6020 C   0  0  0  0  0  1  0  0  0  0  0  0
  181.3010  176.5970  134.5530 O   0  0  0  0  0  1  0  0  0  0  0  0
  1 19  1  0  0  0  0
  1 18  1  0  0  0  0
  2 12  2  0  0  0  0
  3 13  2  0  0  0  0
  3  7  1  0  0  0  0
  4 16  1  0  0  0  0
  6  8  1  0  0  0  0
  6 11  1  0  0  0  0
  8  5  1  0  0  0  0
  9 10  1  0  0  0  0
  9  4  2  0  0  0  0
 10  5  1  6  0  0  0
 10  1  1  0  0  0  0
 11  9  1  0  0  0  0
 12 14  1  0  0  0  0
 14  3  1  0  0  0  0
 15 14  1  0  0  0  0
 16 18  2  0  0  0  0
 16  2  1  0  0  0  0
 17 15  1  0  0  0  0
 18 17  1  0  0  0  0
 20 31  2  0  0  0  0
 21 30  1  0  0  0  0
 22 24  2  0  0  0  0
 22 29  1  0  0  0  0
 23 19  1  1  0  0  0
 23 26  1  0  0  0  0
 24 25  1  0  0  0  0
 25 20  1  0  0  0  0
 25 28  2  0  0  0  0
 27 28  1  0  0  0  0
 28 21  1  0  0  0  0
 29 27  2  0  0  0  0
 30 31  1  6  0  0  0
 30 23  1  0  0  0  0
 30 26  1  0  0  0  0
 32 22  1  0  0  0  0
 33 32  1  0  0  0  0
 34 32  1  0  0  0  0
M  END
>  <MODEL>
9

>  <REMARK>
 VINA RESULT:      -7.2      3.189      6.567
  Name = 
  3 active torsions:
  status: ('A' for Active; 'I' for Inactive)
    1  A    between atoms: N_1  and  C_9
    2  A    between atoms: C_7  and  N_11
    3  A    between atoms: C_8  and  C_9
                            x       y       z     vdW  Elec       q    Type
                         _______ _______ _______ _____ _____    ______ ____

>  <TORSDO>
F 3

$$$$
