=
 OpenBabel10272400493D

 25 28  0  0  1  0  0  0  0  0999 V2000
  187.9280  177.8130  145.7780 N   0  0  0  0  0  0  0  0  0  0  0  0
  186.9890  177.5830  144.6760 C   0  0  2  0  0  3  0  0  0  0  0  0
  186.2370  178.5790  147.2980 C   0  0  0  0  0  3  0  0  0  0  0  0
  189.2420  177.2810  145.8650 C   0  0  0  0  0  0  0  0  0  0  0  0
  191.7900  176.2590  146.3250 C   0  0  0  0  0  3  0  0  0  0  0  0
  185.2940  178.6450  146.1670 C   0  0  0  0  0  3  0  0  0  0  0  0
  189.7900  177.3300  147.1380 C   0  0  0  0  0  0  0  0  0  0  0  0
  191.0650  176.8200  147.3860 C   0  0  0  0  0  3  0  0  0  0  0  0
  184.7530  178.3740  143.7730 C   0  0  0  0  0  0  0  0  0  0  0  0
  183.1780  178.8060  143.9160 S   0  0  0  0  0  0  0  0  0  0  0  0
  187.5350  178.0690  143.4220 N   0  0  0  0  0  0  0  0  0  0  0  0
  191.2350  176.2070  145.0350 C   0  0  0  0  0  3  0  0  0  0  0  0
  187.4920  178.1970  147.0810 C   0  0  0  0  0  0  0  0  0  0  0  0
  188.7200  178.0500  148.3860 S   0  0  0  0  0  0  0  0  0  0  0  0
  185.3030  178.0380  142.4170 C   0  0  0  0  0  2  0  0  0  0  0  0
  189.9510  176.7170  144.7980 C   0  0  0  0  0  3  0  0  0  0  0  0
  186.7990  178.2530  142.3740 C   0  0  0  0  0  0  0  0  0  0  0  0
  185.6410  178.2230  144.9410 C   0  0  0  0  0  0  0  0  0  0  0  0
  187.4270  178.7170  141.1010 C   0  0  0  0  0  2  0  0  0  0  0  0
  188.8850  177.7050  140.6990 S   0  0  0  0  0  0  0  0  0  0  0  0
  188.6030  177.8490  138.9100 C   0  0  0  0  0  2  0  0  0  0  0  0
  188.9790  179.1780  138.4580 N   0  0  0  0  0  2  0  0  0  0  0  0
  188.4790  179.3250  137.1570 N   0  0  0  0  0  2  0  0  0  0  0  0
  187.3630  178.4030  137.0240 C   0  0  0  0  0  2  0  0  0  0  0  0
  187.1080  178.1130  135.5570 C   0  0  0  0  0  1  0  0  0  0  0  0
  1  4  1  0  0  0  0
  1 13  1  0  0  0  0
  2 11  1  6  0  0  0
  2 18  1  0  0  0  0
  2  1  1  0  0  0  0
  4  7  1  0  0  0  0
  5  8  1  0  0  0  0
  6  3  1  0  0  0  0
  7  8  2  0  0  0  0
  7 14  1  0  0  0  0
  9 10  2  0  0  0  0
  9 18  1  0  0  0  0
 12  5  2  0  0  0  0
 13  3  2  0  0  0  0
 13 14  1  0  0  0  0
 15  9  1  0  0  0  0
 16 12  1  0  0  0  0
 16  4  2  0  0  0  0
 17 15  1  0  0  0  0
 17 11  2  0  0  0  0
 18  6  2  0  0  0  0
 19 17  1  0  0  0  0
 20 19  1  0  0  0  0
 21 20  1  0  0  0  0
 22 21  1  0  0  0  0
 23 22  1  0  0  0  0
 24 23  1  0  0  0  0
 25 24  1  0  0  0  0
M  END
>  <MODEL>
1

>  <REMARK>
 VINA RESULT:      -8.7      0.000      0.000
  Name = 
  6 active torsions:
  status: ('A' for Active; 'I' for Inactive)
    1  A    between atoms: C_2  and  N_12
    2  A    between atoms: C_6  and  S_15
    3  A    between atoms: C_6  and  C_23
    4  A    between atoms: N_12  and  N_25
    5  A    between atoms: S_15  and  C_21
    6  A    between atoms: C_21  and  N_25
                            x       y       z     vdW  Elec       q    Type
                         _______ _______ _______ _____ _____    ______ ____

>  <TORSDO>
F 6

$$$$
=
 OpenBabel10272400493D

 25 28  0  0  1  0  0  0  0  0999 V2000
  188.1210  177.7300  145.6340 N   0  0  0  0  0  0  0  0  0  0  0  0
  187.3200  177.5360  144.4220 C   0  0  2  0  0  3  0  0  0  0  0  0
  186.2520  178.4020  146.9800 C   0  0  0  0  0  3  0  0  0  0  0  0
  189.4270  177.2140  145.8490 C   0  0  0  0  0  0  0  0  0  0  0  0
  191.9240  176.2100  146.5570 C   0  0  0  0  0  3  0  0  0  0  0  0
  185.4440  178.5050  145.7510 C   0  0  0  0  0  3  0  0  0  0  0  0
  189.8240  177.2140  147.1780 C   0  0  0  0  0  0  0  0  0  0  0  0
  191.0710  176.7120  147.5500 C   0  0  0  0  0  3  0  0  0  0  0  0
  185.1870  178.3330  143.3010 C   0  0  0  0  0  0  0  0  0  0  0  0
  183.5980  178.7350  143.2800 S   0  0  0  0  0  0  0  0  0  0  0  0
  187.9960  178.0850  143.2620 N   0  0  0  0  0  0  0  0  0  0  0  0
  191.5220  176.2080  145.2110 C   0  0  0  0  0  3  0  0  0  0  0  0
  187.5310  178.0490  146.8940 C   0  0  0  0  0  0  0  0  0  0  0  0
  188.6040  177.8630  148.3240 S   0  0  0  0  0  0  0  0  0  0  0  0
  185.8950  178.0660  142.0050 C   0  0  0  0  0  2  0  0  0  0  0  0
  190.2640  176.7080  144.8490 C   0  0  0  0  0  3  0  0  0  0  0  0
  187.3820  178.3050  142.1440 C   0  0  0  0  0  0  0  0  0  0  0  0
  185.9370  178.1440  144.5570 C   0  0  0  0  0  0  0  0  0  0  0  0
  188.1430  178.8340  140.9730 C   0  0  0  0  0  2  0  0  0  0  0  0
  187.7020  177.9270  139.4590 S   0  0  0  0  0  0  0  0  0  0  0  0
  189.3640  178.1210  138.7510 C   0  0  0  0  0  2  0  0  0  0  0  0
  189.9610  176.8150  138.5320 N   0  0  0  0  0  2  0  0  0  0  0  0
  190.4800  176.3900  139.7620 N   0  0  0  0  0  2  0  0  0  0  0  0
  191.5650  177.2960  140.1020 C   0  0  0  0  0  2  0  0  0  0  0  0
  191.6670  177.4320  141.6090 C   0  0  0  0  0  1  0  0  0  0  0  0
  1  4  1  0  0  0  0
  1 13  1  0  0  0  0
  2 11  1  6  0  0  0
  2 18  1  0  0  0  0
  2  1  1  0  0  0  0
  4  7  1  0  0  0  0
  5  8  1  0  0  0  0
  6  3  1  0  0  0  0
  7  8  2  0  0  0  0
  7 14  1  0  0  0  0
  9 18  1  0  0  0  0
 10  9  2  0  0  0  0
 12  5  2  0  0  0  0
 13  3  2  0  0  0  0
 13 14  1  0  0  0  0
 15 17  1  0  0  0  0
 15  9  1  0  0  0  0
 16 12  1  0  0  0  0
 16  4  2  0  0  0  0
 17 11  2  0  0  0  0
 18  6  2  0  0  0  0
 19 17  1  0  0  0  0
 20 19  1  0  0  0  0
 21 20  1  0  0  0  0
 22 21  1  0  0  0  0
 22 23  1  0  0  0  0
 23 24  1  0  0  0  0
 24 25  1  0  0  0  0
M  END
>  <MODEL>
2

>  <REMARK>
 VINA RESULT:      -8.3      1.413      2.190
  Name = 
  6 active torsions:
  status: ('A' for Active; 'I' for Inactive)
    1  A    between atoms: C_2  and  N_12
    2  A    between atoms: C_6  and  S_15
    3  A    between atoms: C_6  and  C_23
    4  A    between atoms: N_12  and  N_25
    5  A    between atoms: S_15  and  C_21
    6  A    between atoms: C_21  and  N_25
                            x       y       z     vdW  Elec       q    Type
                         _______ _______ _______ _____ _____    ______ ____

>  <TORSDO>
F 6

$$$$
=
 OpenBabel10272400493D

 25 28  0  0  1  0  0  0  0  0999 V2000
  187.7130  177.6930  144.7360 N   0  0  0  0  0  0  0  0  0  0  0  0
  186.4850  177.5750  143.9450 C   0  0  2  0  0  3  0  0  0  0  0  0
  186.5740  178.3670  146.7370 C   0  0  0  0  0  3  0  0  0  0  0  0
  188.9710  177.1270  144.3940 C   0  0  0  0  0  0  0  0  0  0  0  0
  191.4940  176.0170  144.0110 C   0  0  0  0  0  3  0  0  0  0  0  0
  185.3470  178.5460  145.9410 C   0  0  0  0  0  3  0  0  0  0  0  0
  189.8670  177.0600  145.4500 C   0  0  0  0  0  0  0  0  0  0  0  0
  191.1350  176.5040  145.2760 C   0  0  0  0  0  3  0  0  0  0  0  0
  184.1200  178.4840  143.7980 C   0  0  0  0  0  0  0  0  0  0  0  0
  182.6760  178.9360  144.4280 S   0  0  0  0  0  0  0  0  0  0  0  0
  186.6640  178.1500  142.6250 N   0  0  0  0  0  0  0  0  0  0  0  0
  190.5860  176.0830  142.9410 C   0  0  0  0  0  3  0  0  0  0  0  0
  187.6930  177.9770  146.1340 C   0  0  0  0  0  0  0  0  0  0  0  0
  189.2400  177.6980  147.0060 S   0  0  0  0  0  0  0  0  0  0  0  0
  184.2360  178.2490  142.3200 C   0  0  0  0  0  2  0  0  0  0  0  0
  189.3130  176.6380  143.1290 C   0  0  0  0  0  3  0  0  0  0  0  0
  185.6630  178.4350  141.8550 C   0  0  0  0  0  0  0  0  0  0  0  0
  185.3020  178.2190  144.6400 C   0  0  0  0  0  0  0  0  0  0  0  0
  185.9130  178.9890  140.4910 C   0  0  0  0  0  2  0  0  0  0  0  0
  184.5000  178.6530  139.3940 S   0  0  0  0  0  0  0  0  0  0  0  0
  185.5740  178.1610  138.0130 C   0  0  0  0  0  2  0  0  0  0  0  0
  186.9540  178.5020  138.3170 N   0  0  0  0  0  2  0  0  0  0  0  0
  187.5110  179.0330  137.1460 N   0  0  0  0  0  2  0  0  0  0  0  0
  188.9550  178.9120  137.2690 C   0  0  0  0  0  2  0  0  0  0  0  0
  189.3120  178.4140  138.6560 C   0  0  0  0  0  1  0  0  0  0  0  0
  1 13  1  0  0  0  0
  2 11  1  6  0  0  0
  2 18  1  0  0  0  0
  2  1  1  0  0  0  0
  4  1  1  0  0  0  0
  4  7  1  0  0  0  0
  5  8  1  0  0  0  0
  6  3  1  0  0  0  0
  7 14  1  0  0  0  0
  8  7  2  0  0  0  0
  9 10  2  0  0  0  0
  9 18  1  0  0  0  0
 12 16  1  0  0  0  0
 12  5  2  0  0  0  0
 13  3  2  0  0  0  0
 13 14  1  0  0  0  0
 15  9  1  0  0  0  0
 16  4  2  0  0  0  0
 17 15  1  0  0  0  0
 17 11  2  0  0  0  0
 18  6  2  0  0  0  0
 19 17  1  0  0  0  0
 20 19  1  0  0  0  0
 21 22  1  0  0  0  0
 21 20  1  0  0  0  0
 23 24  1  0  0  0  0
 23 22  1  0  0  0  0
 24 25  1  0  0  0  0
M  END
>  <MODEL>
3

>  <REMARK>
 VINA RESULT:      -8.3      1.563      1.918
  Name = 
  6 active torsions:
  status: ('A' for Active; 'I' for Inactive)
    1  A    between atoms: C_2  and  N_12
    2  A    between atoms: C_6  and  S_15
    3  A    between atoms: C_6  and  C_23
    4  A    between atoms: N_12  and  N_25
    5  A    between atoms: S_15  and  C_21
    6  A    between atoms: C_21  and  N_25
                            x       y       z     vdW  Elec       q    Type
                         _______ _______ _______ _____ _____    ______ ____

>  <TORSDO>
F 6

$$$$
=
 OpenBabel10272400493D

 25 28  0  0  1  0  0  0  0  0999 V2000
  185.2270  178.3750  143.6530 N   0  0  0  0  0  0  0  0  0  0  0  0
  184.4310  178.0560  142.4640 C   0  0  2  0  0  3  0  0  0  0  0  0
  183.3510  179.1770  144.9160 C   0  0  0  0  0  3  0  0  0  0  0  0
  186.5340  177.8870  143.9250 C   0  0  0  0  0  0  0  0  0  0  0  0
  189.0300  176.9670  144.7410 C   0  0  0  0  0  3  0  0  0  0  0  0
  182.5480  179.1520  143.6800 C   0  0  0  0  0  3  0  0  0  0  0  0
  186.9250  178.0240  145.2480 C   0  0  0  0  0  0  0  0  0  0  0  0
  188.1720  177.5660  145.6750 C   0  0  0  0  0  3  0  0  0  0  0  0
  182.3010  178.7290  141.2590 C   0  0  0  0  0  0  0  0  0  0  0  0
  180.7120  179.1230  141.1910 S   0  0  0  0  0  0  0  0  0  0  0  0
  185.1120  178.4860  141.2570 N   0  0  0  0  0  0  0  0  0  0  0  0
  188.6340  176.8260  143.4010 C   0  0  0  0  0  3  0  0  0  0  0  0
  184.6320  178.8200  144.8710 C   0  0  0  0  0  0  0  0  0  0  0  0
  185.6990  178.7830  146.3170 S   0  0  0  0  0  0  0  0  0  0  0  0
  183.0160  178.3330  140.0000 C   0  0  0  0  0  2  0  0  0  0  0  0
  187.3760  177.2840  142.9850 C   0  0  0  0  0  3  0  0  0  0  0  0
  184.5020  178.5880  140.1200 C   0  0  0  0  0  0  0  0  0  0  0  0
  183.0470  178.6710  142.5310 C   0  0  0  0  0  0  0  0  0  0  0  0
  185.2660  178.9970  138.9040 C   0  0  0  0  0  2  0  0  0  0  0  0
  185.3220  177.6390  137.6950 S   0  0  0  0  0  0  0  0  0  0  0  0
  187.1370  177.5550  137.7400 C   0  0  0  0  0  2  0  0  0  0  0  0
  187.6920  178.8980  137.7180 N   0  0  0  0  0  2  0  0  0  0  0  0
  188.9070  178.8500  138.4140 N   0  0  0  0  0  2  0  0  0  0  0  0
  188.6900  178.0270  139.5930 C   0  0  0  0  0  2  0  0  0  0  0  0
  189.9680  177.2950  139.9510 C   0  0  0  0  0  1  0  0  0  0  0  0
  1  4  1  0  0  0  0
  1 13  1  0  0  0  0
  2 11  1  6  0  0  0
  2 18  1  0  0  0  0
  2  1  1  0  0  0  0
  4  7  1  0  0  0  0
  5  8  1  0  0  0  0
  6  3  1  0  0  0  0
  7  8  2  0  0  0  0
  7 14  1  0  0  0  0
  9 18  1  0  0  0  0
 10  9  2  0  0  0  0
 12  5  2  0  0  0  0
 13  3  2  0  0  0  0
 13 14  1  0  0  0  0
 15 17  1  0  0  0  0
 15  9  1  0  0  0  0
 16 12  1  0  0  0  0
 16  4  2  0  0  0  0
 17 11  2  0  0  0  0
 18  6  2  0  0  0  0
 19 17  1  0  0  0  0
 20 21  1  0  0  0  0
 20 19  1  0  0  0  0
 22 21  1  0  0  0  0
 22 23  1  0  0  0  0
 23 24  1  0  0  0  0
 24 25  1  0  0  0  0
M  END
>  <MODEL>
4

>  <REMARK>
 VINA RESULT:      -7.8      2.293      3.422
  Name = 
  6 active torsions:
  status: ('A' for Active; 'I' for Inactive)
    1  A    between atoms: C_2  and  N_12
    2  A    between atoms: C_6  and  S_15
    3  A    between atoms: C_6  and  C_23
    4  A    between atoms: N_12  and  N_25
    5  A    between atoms: S_15  and  C_21
    6  A    between atoms: C_21  and  N_25
                            x       y       z     vdW  Elec       q    Type
                         _______ _______ _______ _____ _____    ______ ____

>  <TORSDO>
F 6

$$$$
=
 OpenBabel10272400493D

 25 28  0  0  1  0  0  0  0  0999 V2000
  187.0890  177.8620  145.5000 N   0  0  0  0  0  0  0  0  0  0  0  0
  188.5130  177.8680  145.1530 C   0  0  2  0  0  3  0  0  0  0  0  0
  187.4750  177.4980  147.8400 C   0  0  0  0  0  3  0  0  0  0  0  0
  186.0400  178.3630  144.6830 C   0  0  0  0  0  0  0  0  0  0  0  0
  183.8350  179.3890  143.3290 C   0  0  0  0  0  3  0  0  0  0  0  0
  188.8870  177.2100  147.5300 C   0  0  0  0  0  3  0  0  0  0  0  0
  184.8500  178.5810  145.3600 C   0  0  0  0  0  0  0  0  0  0  0  0
  183.7360  179.0980  144.6970 C   0  0  0  0  0  3  0  0  0  0  0  0
  190.7520  176.9610  145.9300 C   0  0  0  0  0  0  0  0  0  0  0  0
  191.8860  176.6150  147.0620 S   0  0  0  0  0  0  0  0  0  0  0  0
  188.7540  177.1020  143.9440 N   0  0  0  0  0  0  0  0  0  0  0  0
  185.0410  179.1700  142.6430 C   0  0  0  0  0  3  0  0  0  0  0  0
  186.6340  177.7880  146.8500 C   0  0  0  0  0  0  0  0  0  0  0  0
  184.9000  178.1840  147.1100 S   0  0  0  0  0  0  0  0  0  0  0  0
  191.1390  176.9730  144.4810 C   0  0  0  0  0  2  0  0  0  0  0  0
  186.1560  178.6570  143.3200 C   0  0  0  0  0  3  0  0  0  0  0  0
  189.9390  176.7120  143.5990 C   0  0  0  0  0  0  0  0  0  0  0  0
  189.3710  177.3410  146.2860 C   0  0  0  0  0  0  0  0  0  0  0  0
  190.1280  175.9600  142.3230 C   0  0  0  0  0  2  0  0  0  0  0  0
  190.8460  177.0380  141.0450 S   0  0  0  0  0  0  0  0  0  0  0  0
  189.2800  177.1470  140.1290 C   0  0  0  0  0  2  0  0  0  0  0  0
  188.4840  178.2480  140.6450 N   0  0  0  0  0  2  0  0  0  0  0  0
  187.4770  178.5010  139.7040 N   0  0  0  0  0  2  0  0  0  0  0  0
  187.8760  177.8470  138.4690 C   0  0  0  0  0  2  0  0  0  0  0  0
  186.6710  177.6820  137.5630 C   0  0  0  0  0  1  0  0  0  0  0  0
  1 13  1  0  0  0  0
  2 11  1  6  0  0  0
  2  1  1  0  0  0  0
  2 18  1  0  0  0  0
  4  7  1  0  0  0  0
  4  1  1  0  0  0  0
  5  8  1  0  0  0  0
  6  3  1  0  0  0  0
  7 14  1  0  0  0  0
  8  7  2  0  0  0  0
  9 18  1  0  0  0  0
  9 10  2  0  0  0  0
 12 16  1  0  0  0  0
 12  5  2  0  0  0  0
 13 14  1  0  0  0  0
 13  3  2  0  0  0  0
 15  9  1  0  0  0  0
 16  4  2  0  0  0  0
 17 11  2  0  0  0  0
 17 15  1  0  0  0  0
 18  6  2  0  0  0  0
 19 17  1  0  0  0  0
 20 19  1  0  0  0  0
 21 22  1  0  0  0  0
 21 20  1  0  0  0  0
 23 22  1  0  0  0  0
 24 23  1  0  0  0  0
 25 24  1  0  0  0  0
M  END
>  <MODEL>
5

>  <REMARK>
 VINA RESULT:      -7.7      1.760      4.706
  Name = 
  6 active torsions:
  status: ('A' for Active; 'I' for Inactive)
    1  A    between atoms: C_2  and  N_12
    2  A    between atoms: C_6  and  S_15
    3  A    between atoms: C_6  and  C_23
    4  A    between atoms: N_12  and  N_25
    5  A    between atoms: S_15  and  C_21
    6  A    between atoms: C_21  and  N_25
                            x       y       z     vdW  Elec       q    Type
                         _______ _______ _______ _____ _____    ______ ____

>  <TORSDO>
F 6

$$$$
=
 OpenBabel10272400493D

 25 28  0  0  1  0  0  0  0  0999 V2000
  184.4460  178.5290  142.9140 N   0  0  0  0  0  0  0  0  0  0  0  0
  185.7610  178.5700  143.5610 C   0  0  2  0  0  3  0  0  0  0  0  0
  183.2290  178.7910  144.9660 C   0  0  0  0  0  3  0  0  0  0  0  0
  184.2030  178.7220  141.5280 C   0  0  0  0  0  0  0  0  0  0  0  0
  183.4600  179.1920  138.8870 C   0  0  0  0  0  3  0  0  0  0  0  0
  184.4830  178.5550  145.7030 C   0  0  0  0  0  3  0  0  0  0  0  0
  182.8800  179.0000  141.2180 C   0  0  0  0  0  0  0  0  0  0  0  0
  182.4910  179.2410  139.9000 C   0  0  0  0  0  3  0  0  0  0  0  0
  186.9050  178.0760  145.7710 C   0  0  0  0  0  0  0  0  0  0  0  0
  187.0290  178.1190  147.4050 S   0  0  0  0  0  0  0  0  0  0  0  0
  186.6370  177.5520  143.0130 N   0  0  0  0  0  0  0  0  0  0  0  0
  184.8010  178.9120  139.2010 C   0  0  0  0  0  3  0  0  0  0  0  0
  183.2360  178.7540  143.6360 C   0  0  0  0  0  0  0  0  0  0  0  0
  181.7760  179.0550  142.6320 S   0  0  0  0  0  0  0  0  0  0  0  0
  188.1210  177.7610  144.9490 C   0  0  0  0  0  2  0  0  0  0  0  0
  185.1810  178.6780  140.5290 C   0  0  0  0  0  3  0  0  0  0  0  0
  187.7290  177.1890  143.6050 C   0  0  0  0  0  0  0  0  0  0  0  0
  185.6550  178.4140  145.0650 C   0  0  0  0  0  0  0  0  0  0  0  0
  188.6100  176.1640  142.9710 C   0  0  0  0  0  2  0  0  0  0  0  0
  189.8640  176.9580  141.9190 S   0  0  0  0  0  0  0  0  0  0  0  0
  191.2400  176.2930  142.9030 C   0  0  0  0  0  2  0  0  0  0  0  0
  191.3320  177.0060  144.1660 N   0  0  0  0  0  2  0  0  0  0  0  0
  191.6980  176.0680  145.1400 N   0  0  0  0  0  2  0  0  0  0  0  0
  191.6070  176.7340  146.4280 C   0  0  0  0  0  2  0  0  0  0  0  0
  192.0410  175.7860  147.5290 C   0  0  0  0  0  1  0  0  0  0  0  0
  1  2  1  0  0  0  0
  1 13  1  0  0  0  0
  2 11  1  6  0  0  0
  2 18  1  0  0  0  0
  3  6  1  0  0  0  0
  4  1  1  0  0  0  0
  5 12  2  0  0  0  0
  5  8  1  0  0  0  0
  7  4  1  0  0  0  0
  7 14  1  0  0  0  0
  8  7  2  0  0  0  0
  9 10  2  0  0  0  0
 11 17  2  0  0  0  0
 12 16  1  0  0  0  0
 13  3  2  0  0  0  0
 14 13  1  0  0  0  0
 15  9  1  0  0  0  0
 16  4  2  0  0  0  0
 17 15  1  0  0  0  0
 18  6  2  0  0  0  0
 18  9  1  0  0  0  0
 19 17  1  0  0  0  0
 20 21  1  0  0  0  0
 20 19  1  0  0  0  0
 21 22  1  0  0  0  0
 22 23  1  0  0  0  0
 23 24  1  0  0  0  0
 24 25  1  0  0  0  0
M  END
>  <MODEL>
6

>  <REMARK>
 VINA RESULT:      -7.7      2.606      6.887
  Name = 
  6 active torsions:
  status: ('A' for Active; 'I' for Inactive)
    1  A    between atoms: C_2  and  N_12
    2  A    between atoms: C_6  and  S_15
    3  A    between atoms: C_6  and  C_23
    4  A    between atoms: N_12  and  N_25
    5  A    between atoms: S_15  and  C_21
    6  A    between atoms: C_21  and  N_25
                            x       y       z     vdW  Elec       q    Type
                         _______ _______ _______ _____ _____    ______ ____

>  <TORSDO>
F 6

$$$$
=
 OpenBabel10272400493D

 25 28  0  0  1  0  0  0  0  0999 V2000
  185.4540  178.2940  143.9500 N   0  0  0  0  0  0  0  0  0  0  0  0
  186.8470  178.3360  144.4070 C   0  0  2  0  0  3  0  0  0  0  0  0
  184.5350  178.4740  146.1580 C   0  0  0  0  0  3  0  0  0  0  0  0
  185.0170  178.5240  142.6180 C   0  0  0  0  0  0  0  0  0  0  0  0
  183.9060  179.0610  140.1230 C   0  0  0  0  0  3  0  0  0  0  0  0
  185.8830  178.2370  146.7050 C   0  0  0  0  0  3  0  0  0  0  0  0
  183.6610  178.7900  142.5050 C   0  0  0  0  0  0  0  0  0  0  0  0
  183.0880  179.0640  141.2620 C   0  0  0  0  0  3  0  0  0  0  0  0
  188.2960  177.7940  146.4180 C   0  0  0  0  0  0  0  0  0  0  0  0
  188.6470  177.7900  148.0190 S   0  0  0  0  0  0  0  0  0  0  0  0
  187.6500  177.3490  143.7090 N   0  0  0  0  0  0  0  0  0  0  0  0
  185.2800  178.7940  140.2370 C   0  0  0  0  0  3  0  0  0  0  0  0
  184.3550  178.4780  144.8410 C   0  0  0  0  0  0  0  0  0  0  0  0
  182.7650  178.7850  144.0600 S   0  0  0  0  0  0  0  0  0  0  0  0
  189.3880  177.5240  145.4250 C   0  0  0  0  0  2  0  0  0  0  0  0
  185.8460  178.5270  141.4910 C   0  0  0  0  0  3  0  0  0  0  0  0
  188.8180  176.9870  144.1310 C   0  0  0  0  0  0  0  0  0  0  0  0
  186.9550  178.1330  145.9050 C   0  0  0  0  0  0  0  0  0  0  0  0
  189.6130  175.9950  143.3470 C   0  0  0  0  0  2  0  0  0  0  0  0
  191.3950  176.3120  143.5340 S   0  0  0  0  0  0  0  0  0  0  0  0
  191.4320  177.4540  142.1210 C   0  0  0  0  0  2  0  0  0  0  0  0
  190.4860  177.0150  141.1080 N   0  0  0  0  0  2  0  0  0  0  0  0
  191.1310  177.1280  139.8700 N   0  0  0  0  0  2  0  0  0  0  0  0
  190.0940  177.2720  138.8610 C   0  0  0  0  0  2  0  0  0  0  0  0
  189.0630  178.2820  139.3260 C   0  0  0  0  0  1  0  0  0  0  0  0
  1  2  1  0  0  0  0
  1 13  1  0  0  0  0
  2 11  1  6  0  0  0
  2 18  1  0  0  0  0
  3  6  1  0  0  0  0
  4  1  1  0  0  0  0
  5 12  2  0  0  0  0
  5  8  1  0  0  0  0
  7  4  1  0  0  0  0
  7 14  1  0  0  0  0
  8  7  2  0  0  0  0
  9 10  2  0  0  0  0
 11 17  2  0  0  0  0
 12 16  1  0  0  0  0
 13  3  2  0  0  0  0
 14 13  1  0  0  0  0
 15  9  1  0  0  0  0
 16  4  2  0  0  0  0
 17 15  1  0  0  0  0
 18  9  1  0  0  0  0
 18  6  2  0  0  0  0
 19 20  1  0  0  0  0
 19 17  1  0  0  0  0
 21 20  1  0  0  0  0
 22 21  1  0  0  0  0
 23 22  1  0  0  0  0
 24 25  1  0  0  0  0
 24 23  1  0  0  0  0
M  END
>  <MODEL>
7

>  <REMARK>
 VINA RESULT:      -7.7      2.144      5.322
  Name = 
  6 active torsions:
  status: ('A' for Active; 'I' for Inactive)
    1  A    between atoms: C_2  and  N_12
    2  A    between atoms: C_6  and  S_15
    3  A    between atoms: C_6  and  C_23
    4  A    between atoms: N_12  and  N_25
    5  A    between atoms: S_15  and  C_21
    6  A    between atoms: C_21  and  N_25
                            x       y       z     vdW  Elec       q    Type
                         _______ _______ _______ _____ _____    ______ ____

>  <TORSDO>
F 6

$$$$
=
 OpenBabel10272400493D

 25 28  0  0  1  0  0  0  0  0999 V2000
  187.0550  178.1760  142.3500 N   0  0  0  0  0  0  0  0  0  0  0  0
  188.2250  177.4470  141.8520 C   0  0  2  0  0  3  0  0  0  0  0  0
  186.1910  178.6480  140.1620 C   0  0  0  0  0  3  0  0  0  0  0  0
  186.5520  178.1180  143.6780 C   0  0  0  0  0  0  0  0  0  0  0  0
  185.3070  178.0720  146.1660 C   0  0  0  0  0  3  0  0  0  0  0  0
  187.4700  178.1870  139.5920 C   0  0  0  0  0  3  0  0  0  0  0  0
  185.2550  178.5890  143.8130 C   0  0  0  0  0  0  0  0  0  0  0  0
  184.6150  178.5710  145.0530 C   0  0  0  0  0  3  0  0  0  0  0  0
  189.7580  177.2900  139.8360 C   0  0  0  0  0  0  0  0  0  0  0  0
  190.0720  177.2180  138.2280 S   0  0  0  0  0  0  0  0  0  0  0  0
  189.4190  177.8240  142.5850 N   0  0  0  0  0  0  0  0  0  0  0  0
  186.6200  177.5930  146.0290 C   0  0  0  0  0  3  0  0  0  0  0  0
  186.0270  178.6510  141.4820 C   0  0  0  0  0  0  0  0  0  0  0  0
  184.5040  179.1630  142.2880 S   0  0  0  0  0  0  0  0  0  0  0  0
  190.8240  176.8860  140.8120 C   0  0  0  0  0  2  0  0  0  0  0  0
  187.2510  177.6100  144.7780 C   0  0  0  0  0  3  0  0  0  0  0  0
  190.6080  177.5530  142.1520 C   0  0  0  0  0  0  0  0  0  0  0  0
  188.4330  177.6640  140.3660 C   0  0  0  0  0  0  0  0  0  0  0  0
  191.7980  177.9320  142.9710 C   0  0  0  0  0  2  0  0  0  0  0  0
  191.2790  178.6670  144.5520 S   0  0  0  0  0  0  0  0  0  0  0  0
  190.9580  177.0440  145.3050 C   0  0  0  0  0  2  0  0  0  0  0  0
  191.9820  176.7490  146.2930 N   0  0  0  0  0  2  0  0  0  0  0  0
  191.4620  177.1160  147.5420 N   0  0  0  0  0  2  0  0  0  0  0  0
  190.0180  176.9770  147.4590 C   0  0  0  0  0  2  0  0  0  0  0  0
  189.3500  178.0380  148.3130 C   0  0  0  0  0  1  0  0  0  0  0  0
  1  4  1  0  0  0  0
  2 18  1  6  0  0  0
  2  1  1  0  0  0  0
  2 11  1  0  0  0  0
  3 13  2  0  0  0  0
  4  7  2  0  0  0  0
  4 16  1  0  0  0  0
  6  3  1  0  0  0  0
  6 18  2  0  0  0  0
  7  8  1  0  0  0  0
  8  5  2  0  0  0  0
  9 18  1  0  0  0  0
  9 15  1  0  0  0  0
 10  9  2  0  0  0  0
 12  5  1  0  0  0  0
 13 14  1  0  0  0  0
 13  1  1  0  0  0  0
 14  7  1  0  0  0  0
 15 17  1  0  0  0  0
 16 12  2  0  0  0  0
 17 11  2  0  0  0  0
 17 19  1  0  0  0  0
 19 20  1  0  0  0  0
 20 21  1  0  0  0  0
 21 22  1  0  0  0  0
 22 23  1  0  0  0  0
 24 23  1  0  0  0  0
 24 25  1  0  0  0  0
M  END
>  <MODEL>
8

>  <REMARK>
 VINA RESULT:      -7.6      2.393      6.833
  Name = 
  6 active torsions:
  status: ('A' for Active; 'I' for Inactive)
    1  A    between atoms: C_2  and  N_12
    2  A    between atoms: C_6  and  S_15
    3  A    between atoms: C_6  and  C_23
    4  A    between atoms: N_12  and  N_25
    5  A    between atoms: S_15  and  C_21
    6  A    between atoms: C_21  and  N_25
                            x       y       z     vdW  Elec       q    Type
                         _______ _______ _______ _____ _____    ______ ____

>  <TORSDO>
F 6

$$$$
=
 OpenBabel10272400493D

 25 28  0  0  1  0  0  0  0  0999 V2000
  186.3380  178.3050  144.5890 N   0  0  0  0  0  0  0  0  0  0  0  0
  186.2790  177.9290  143.1740 C   0  0  2  0  0  3  0  0  0  0  0  0
  184.0610  179.0570  144.6710 C   0  0  0  0  0  3  0  0  0  0  0  0
  187.3270  177.8770  145.5150 C   0  0  0  0  0  0  0  0  0  0  0  0
  189.0640  177.0760  147.5370 C   0  0  0  0  0  3  0  0  0  0  0  0
  184.0130  178.9730  143.2000 C   0  0  0  0  0  3  0  0  0  0  0  0
  186.9750  178.0580  146.8440 C   0  0  0  0  0  0  0  0  0  0  0  0
  187.8330  177.6600  147.8700 C   0  0  0  0  0  3  0  0  0  0  0  0
  185.0630  178.4890  141.0170 C   0  0  0  0  0  0  0  0  0  0  0  0
  183.7290  178.8160  140.1240 S   0  0  0  0  0  0  0  0  0  0  0  0
  187.4750  178.3600  142.4740 N   0  0  0  0  0  0  0  0  0  0  0  0
  189.4200  176.8910  146.1910 C   0  0  0  0  0  3  0  0  0  0  0  0
  185.1880  178.7510  145.3070 C   0  0  0  0  0  0  0  0  0  0  0  0
  185.3560  178.7890  147.0960 S   0  0  0  0  0  0  0  0  0  0  0  0
  186.3350  178.0950  140.3240 C   0  0  0  0  0  2  0  0  0  0  0  0
  188.5480  177.2880  145.1680 C   0  0  0  0  0  3  0  0  0  0  0  0
  187.5380  178.4130  141.1830 C   0  0  0  0  0  0  0  0  0  0  0  0
  185.0460  178.4880  142.4930 C   0  0  0  0  0  0  0  0  0  0  0  0
  188.8110  178.8270  140.5200 C   0  0  0  0  0  2  0  0  0  0  0  0
  189.4130  177.5150  139.4120 S   0  0  0  0  0  0  0  0  0  0  0  0
  190.1060  176.5490  140.7870 C   0  0  0  0  0  2  0  0  0  0  0  0
  191.1920  177.2880  141.4090 N   0  0  0  0  0  2  0  0  0  0  0  0
  191.1960  176.9440  142.7670 N   0  0  0  0  0  2  0  0  0  0  0  0
  191.9310  177.9840  143.4680 C   0  0  0  0  0  2  0  0  0  0  0  0
  191.0230  179.1730  143.7210 C   0  0  0  0  0  1  0  0  0  0  0  0
  1 13  1  0  0  0  0
  1  4  1  0  0  0  0
  2 11  1  6  0  0  0
  2  1  1  0  0  0  0
  3 13  2  0  0  0  0
  4  7  1  0  0  0  0
  5  8  1  0  0  0  0
  6  3  1  0  0  0  0
  7 14  1  0  0  0  0
  7  8  2  0  0  0  0
  9 18  1  0  0  0  0
 10  9  2  0  0  0  0
 12  5  2  0  0  0  0
 13 14  1  0  0  0  0
 15  9  1  0  0  0  0
 15 17  1  0  0  0  0
 16  4  2  0  0  0  0
 16 12  1  0  0  0  0
 17 11  2  0  0  0  0
 18  2  1  0  0  0  0
 18  6  2  0  0  0  0
 19 17  1  0  0  0  0
 20 19  1  0  0  0  0
 20 21  1  0  0  0  0
 21 22  1  0  0  0  0
 22 23  1  0  0  0  0
 23 24  1  0  0  0  0
 24 25  1  0  0  0  0
M  END
>  <MODEL>
9

>  <REMARK>
 VINA RESULT:      -7.5      2.415      3.738
  Name = 
  6 active torsions:
  status: ('A' for Active; 'I' for Inactive)
    1  A    between atoms: C_2  and  N_12
    2  A    between atoms: C_6  and  S_15
    3  A    between atoms: C_6  and  C_23
    4  A    between atoms: N_12  and  N_25
    5  A    between atoms: S_15  and  C_21
    6  A    between atoms: C_21  and  N_25
                            x       y       z     vdW  Elec       q    Type
                         _______ _______ _______ _____ _____    ______ ____

>  <TORSDO>
F 6

$$$$
