=
 OpenBabel10272401433D

 55 58  0  0  1  0  0  0  0  0999 V2000
  189.6740  177.6410  144.2710 C   0  0  0  0  0  2  0  0  0  0  0  0
  190.2350  177.0050  141.4430 C   0  0  2  0  0  3  0  0  0  0  0  0
  189.3820  178.2210  141.8190 C   0  0  2  0  0  3  0  0  0  0  0  0
  190.6280  176.5160  143.8990 C   0  0  0  0  0  2  0  0  0  0  0  0
  189.7410  178.7440  143.2200 C   0  0  0  0  0  2  0  0  0  0  0  0
  190.2260  175.9300  142.5460 C   0  0  0  0  0  2  0  0  0  0  0  0
  191.6510  177.4310  141.0500 C   0  0  0  0  0  2  0  0  0  0  0  0
  191.9510  177.0170  139.7460 O   0  0  0  0  0  0  0  0  0  0  0  0
  190.7280  176.9760  139.0700 C   0  0  0  0  0  2  0  0  0  0  0  0
  190.9130  176.3430  137.7250 C   0  0  2  0  0  3  0  0  0  0  0  0
  191.7270  174.9570  137.6090 S   0  0  0  0  0  0  0  0  0  0  0  0
  190.3450  176.9970  136.5020 C   0  0  0  0  0  1  0  0  0  0  0  0
  193.0460  175.4430  135.0250 O   0  0  0  0  0  0  0  0  0  0  0  0
  193.4270  175.4000  136.4760 S   0  0  0  0  0  0  0  0  0  0  0  0
  193.9130  176.7630  136.8940 O   0  0  0  0  0  0  0  0  0  0  0  0
  197.5820  172.5780  136.9360 C   0  0  0  0  0  2  0  0  0  0  0  0
  194.6850  174.1400  136.7730 C   0  0  2  0  0  3  0  0  0  0  0  0
  197.1360  174.0700  138.9650 C   0  0  0  0  0  2  0  0  0  0  0  0
  196.3490  175.7690  136.2140 O   0  0  0  0  0  0  0  0  0  0  0  0
  196.0910  174.7010  136.7500 C   0  0  0  0  0  0  0  0  0  0  0  0
  195.7160  172.2440  135.4630 O   0  0  0  0  0  0  0  0  0  0  0  0
  198.2400  174.7560  138.1660 C   0  0  0  0  0  2  0  0  0  0  0  0
  196.3190  171.7750  136.6480 C   0  0  1  0  0  3  0  0  0  0  0  0
  197.1790  173.9460  137.4560 C   0  0  0  0  0  0  0  0  0  0  0  0
  193.3470  172.0470  136.0360 C   0  0  0  0  0  1  0  0  0  0  0  0
  194.5380  172.9660  135.7750 C   0  0  1  0  0  3  0  0  0  0  0  0
  196.5990  170.3100  136.5840 C   0  0  0  0  0  0  0  0  0  0  0  0
  196.6230  169.5380  137.7810 N   0  0  0  0  0  1  0  0  0  0  0  0
  196.6960  169.7210  135.4720 O   0  0  0  0  0  0  0  0  0  0  0  0
  187.9030  177.8640  141.7030 C   0  0  0  0  0  2  0  0  0  0  0  0
  187.1210  179.0050  141.2330 N   0  0  0  0  0  2  0  0  0  0  0  0
  185.8830  178.5600  140.5810 C   0  0  1  0  0  3  0  0  0  0  0  0
  184.6010  179.2820  141.0800 C   0  0  1  0  0  3  0  0  0  0  0  0
  183.5390  177.1610  140.1640 C   0  0  0  0  0  2  0  0  0  0  0  0
  181.7670  177.3920  138.4070 C   0  0  0  0  0  2  0  0  0  0  0  0
  183.3560  179.2950  138.8570 N   0  0  0  0  0  0  0  0  0  0  0  0
  182.1410  178.8600  138.1500 C   0  0  0  0  0  2  0  0  0  0  0  0
  182.9710  176.5850  138.8640 C   0  0  0  0  0  2  0  0  0  0  0  0
  183.4520  178.6950  140.2070 C   0  0  2  0  0  3  0  0  0  0  0  0
  183.2550  180.6460  138.9810 O   0  0  0  0  0  1  0  0  0  0  0  0
  182.9670  179.0950  142.8840 C   0  0  0  0  0  1  0  0  0  0  0  0
  184.3880  179.1300  142.5510 N   0  0  0  0  0  0  0  0  0  0  0  0
  185.0330  177.9420  143.1610 C   0  0  0  0  0  2  0  0  0  0  0  0
  185.6590  178.1240  144.5370 C   0  0  0  0  0  0  0  0  0  0  0  0
  185.2130  179.2900  145.3560 C   0  0  0  0  0  1  0  0  0  0  0  0
  186.4890  177.2410  145.0850 C   0  0  0  0  0  2  0  0  0  0  0  0
  185.9980  178.5860  139.0550 C   0  0  0  0  0  2  0  0  0  0  0  0
  187.0690  177.6290  138.5510 C   0  0  0  0  0  2  0  0  0  0  0  0
  186.4800  176.7920  137.4390 C   0  0  0  0  0  2  0  0  0  0  0  0
  187.2900  175.5150  137.2230 C   0  0  0  0  0  2  0  0  0  0  0  0
  185.1400  174.4770  137.3900 O   0  0  0  0  0  1  0  0  0  0  0  0
  186.3990  174.3560  136.7800 C   0  0  1  0  0  0  0  0  0  0  0  0
  186.2190  174.4670  135.2810 C   0  0  0  0  0  1  0  0  0  0  0  0
  187.0370  173.0760  137.1270 N   0  0  0  0  0  2  0  0  0  0  0  0
  188.4530  173.0970  136.7830 C   0  0  0  0  0  1  0  0  0  0  0  0
  2  7  1  1  0  0  0
  2  3  1  0  0  0  0
  2  6  1  0  0  0  0
  3 30  1  1  0  0  0
  3  5  1  0  0  0  0
  4  1  1  0  0  0  0
  5  1  1  0  0  0  0
  6  4  1  0  0  0  0
  8  7  1  0  0  0  0
  9  8  1  0  0  0  0
 10 12  1  6  0  0  0
 10  9  1  0  0  0  0
 11 10  1  0  0  0  0
 13 14  2  0  0  0  0
 14 15  2  0  0  0  0
 14 11  1  0  0  0  0
 16 24  1  0  0  0  0
 17 14  1  6  0  0  0
 19 20  2  0  0  0  0
 20 17  1  0  0  0  0
 20 24  1  0  0  0  0
 21 26  1  0  0  0  0
 21 23  1  0  0  0  0
 22 18  1  0  0  0  0
 23 27  1  6  0  0  0
 23 16  1  0  0  0  0
 24 22  1  0  0  0  0
 24 18  1  0  0  0  0
 26 25  1  1  0  0  0
 26 17  1  0  0  0  0
 27 28  1  0  0  0  0
 29 27  2  0  0  0  0
 31 30  1  0  0  0  0
 32 47  1  6  0  0  0
 32 33  1  0  0  0  0
 32 31  1  0  0  0  0
 33 42  1  1  0  0  0
 34 39  1  0  0  0  0
 35 38  1  0  0  0  0
 36 40  1  0  0  0  0
 36 39  1  0  0  0  0
 37 35  1  0  0  0  0
 37 36  1  0  0  0  0
 38 34  1  0  0  0  0
 39 33  1  6  0  0  0
 42 41  1  0  0  0  0
 42 43  1  0  0  0  0
 43 44  1  0  0  0  0
 44 46  2  0  0  0  0
 44 45  1  0  0  0  0
 48 47  1  0  0  0  0
 49 48  1  0  0  0  0
 50 49  1  0  0  0  0
 52 53  1  6  0  0  0
 52 54  1  0  0  0  0
 52 50  1  0  0  0  0
 52 51  1  0  0  0  0
 55 54  1  0  0  0  0
M  END
>  <MODEL>
1

>  <REMARK>
 VINA RESULT:      -6.2      0.000      0.000
  Name = 
  21 active torsions:
  status: ('A' for Active; 'I' for Inactive)
    1  A    between atoms: C_1  and  C_29
    2  A    between atoms: C_2  and  N_28
    3  A    between atoms: C_2  and  C_31
    4  A    between atoms: C_4  and  C_40
    5  A    between atoms: C_6  and  S_20
    6  A    between atoms: C_8  and  C_35
    7  A    between atoms: N_10  and  C_39
    8  A    between atoms: C_13  and  C_48
    9  A    between atoms: C_13  and  C_52
   10  A    between atoms: S_20  and  S_22
   11  A    between atoms: C_26  and  C_49
   12  A    between atoms: C_27  and  C_54
   13  A    between atoms: N_28  and  C_33
   14  A    between atoms: C_33  and  C_34
   15  A    between atoms: C_33  and  C_49
   16  A    between atoms: C_34  and  C_52
   17  A    between atoms: C_35  and  O_51
   18  A    between atoms: C_39  and  C_48
   19  A    between atoms: C_40  and  N_45
   20  A    between atoms: N_45  and  C_49
   21  A    between atoms: O_51  and  C_54
                            x       y       z     vdW  Elec       q    Type
                         _______ _______ _______ _____ _____    ______ ____

>  <TORSDO>
F 21

$$$$
=
 OpenBabel10272401433D

 55 58  0  0  1  0  0  0  0  0999 V2000
  186.7960  177.7420  144.6720 C   0  0  0  0  0  2  0  0  0  0  0  0
  184.9490  179.0610  142.7830 C   0  0  2  0  0  3  0  0  0  0  0  0
  185.9870  178.0470  142.2870 C   0  0  2  0  0  3  0  0  0  0  0  0
  185.6800  178.6440  145.1740 C   0  0  0  0  0  2  0  0  0  0  0  0
  186.3570  177.0410  143.3890 C   0  0  0  0  0  2  0  0  0  0  0  0
  185.3640  179.7040  144.1190 C   0  0  0  0  0  2  0  0  0  0  0  0
  183.5550  178.4320  142.8420 C   0  0  0  0  0  2  0  0  0  0  0  0
  183.2870  177.7090  141.6730 O   0  0  0  0  0  0  0  0  0  0  0  0
  182.7250  178.6250  140.7800 C   0  0  0  0  0  2  0  0  0  0  0  0
  181.5540  178.0020  140.0830 C   0  0  2  0  0  3  0  0  0  0  0  0
  181.6110  176.4430  139.6810 S   0  0  0  0  0  0  0  0  0  0  0  0
  180.3430  178.8270  139.7650 C   0  0  0  0  0  1  0  0  0  0  0  0
  180.1270  176.6030  137.1460 O   0  0  0  0  0  0  0  0  0  0  0  0
  181.5460  176.4020  137.5930 S   0  0  0  0  0  0  0  0  0  0  0  0
  182.3850  177.5450  137.0860 O   0  0  0  0  0  0  0  0  0  0  0  0
  182.6860  171.5800  136.6470 C   0  0  0  0  0  2  0  0  0  0  0  0
  182.1840  174.8170  137.0090 C   0  0  2  0  0  3  0  0  0  0  0  0
  180.7010  172.4430  135.2830 C   0  0  0  0  0  2  0  0  0  0  0  0
  180.5170  173.7330  138.3450 O   0  0  0  0  0  0  0  0  0  0  0  0
  181.3130  173.6490  137.4200 C   0  0  0  0  0  0  0  0  0  0  0  0
  184.0770  173.2670  137.6360 O   0  0  0  0  0  0  0  0  0  0  0  0
  180.1100  171.6070  136.4150 C   0  0  0  0  0  2  0  0  0  0  0  0
  183.8520  172.5400  136.4490 C   0  0  1  0  0  3  0  0  0  0  0  0
  181.3940  172.3760  136.6280 C   0  0  0  0  0  0  0  0  0  0  0  0
  184.6790  175.4580  136.7340 C   0  0  0  0  0  1  0  0  0  0  0  0
  183.6480  174.6070  137.4690 C   0  0  1  0  0  3  0  0  0  0  0  0
  185.0840  171.8270  135.9960 C   0  0  0  0  0  0  0  0  0  0  0  0
  186.3650  172.2880  136.4130 N   0  0  0  0  0  1  0  0  0  0  0  0
  185.0010  170.7470  135.3480 O   0  0  0  0  0  0  0  0  0  0  0  0
  187.2100  178.7880  141.7530 C   0  0  0  0  0  2  0  0  0  0  0  0
  187.3350  178.6220  140.3060 N   0  0  0  0  0  2  0  0  0  0  0  0
  188.4500  177.7270  139.9750 C   0  0  1  0  0  3  0  0  0  0  0  0
  188.8410  177.7200  138.4720 C   0  0  1  0  0  3  0  0  0  0  0  0
  191.2590  177.0160  138.1150 C   0  0  0  0  0  2  0  0  0  0  0  0
  191.7270  174.6010  137.6370 C   0  0  0  0  0  2  0  0  0  0  0  0
  189.4090  175.5300  137.3000 N   0  0  0  0  0  0  0  0  0  0  0  0
  190.2460  174.3200  137.3390 C   0  0  0  0  0  2  0  0  0  0  0  0
  192.1000  176.0340  137.2950 C   0  0  0  0  0  2  0  0  0  0  0  0
  189.8200  176.5170  138.3240 C   0  0  2  0  0  3  0  0  0  0  0  0
  188.1410  175.1180  137.5690 O   0  0  0  0  0  1  0  0  0  0  0  0
  186.4400  178.0990  138.2470 C   0  0  0  0  0  1  0  0  0  0  0  0
  187.6550  177.6560  137.5670 N   0  0  0  0  0  0  0  0  0  0  0  0
  187.7810  178.4260  136.3060 C   0  0  0  0  0  2  0  0  0  0  0  0
  187.5090  177.6790  135.0080 C   0  0  0  0  0  0  0  0  0  0  0  0
  186.1790  177.8760  134.3580 C   0  0  0  0  0  1  0  0  0  0  0  0
  188.4280  176.9580  134.3720 C   0  0  0  0  0  2  0  0  0  0  0  0
  189.6610  177.9620  140.8820 C   0  0  0  0  0  2  0  0  0  0  0  0
  189.8760  176.8100  141.8520 C   0  0  0  0  0  2  0  0  0  0  0  0
  191.3270  176.8010  142.2740 C   0  0  0  0  0  2  0  0  0  0  0  0
  191.5200  177.5260  143.6040 C   0  0  0  0  0  2  0  0  0  0  0  0
  189.8740  176.4480  144.9660 O   0  0  0  0  0  1  0  0  0  0  0  0
  191.2590  176.5990  144.7890 C   0  0  1  0  0  0  0  0  0  0  0  0
  191.8490  175.2470  144.4480 C   0  0  0  0  0  1  0  0  0  0  0  0
  191.8930  177.1460  145.9990 N   0  0  0  0  0  2  0  0  0  0  0  0
  191.3290  176.5350  147.1960 C   0  0  0  0  0  1  0  0  0  0  0  0
  1  4  1  0  0  0  0
  2  7  1  1  0  0  0
  2  6  1  0  0  0  0
  3 30  1  1  0  0  0
  3  2  1  0  0  0  0
  3  5  1  0  0  0  0
  5  1  1  0  0  0  0
  6  4  1  0  0  0  0
  8  7  1  0  0  0  0
  9  8  1  0  0  0  0
 10 12  1  6  0  0  0
 10  9  1  0  0  0  0
 11 10  1  0  0  0  0
 13 14  2  0  0  0  0
 14 11  1  0  0  0  0
 15 14  2  0  0  0  0
 17 20  1  0  0  0  0
 17 26  1  0  0  0  0
 17 14  1  1  0  0  0
 18 22  1  0  0  0  0
 18 24  1  0  0  0  0
 20 19  2  0  0  0  0
 22 24  1  0  0  0  0
 23 27  1  1  0  0  0
 23 16  1  0  0  0  0
 23 21  1  0  0  0  0
 24 16  1  0  0  0  0
 24 20  1  0  0  0  0
 26 25  1  6  0  0  0
 26 21  1  0  0  0  0
 27 28  1  0  0  0  0
 29 27  2  0  0  0  0
 31 30  1  0  0  0  0
 32 31  1  0  0  0  0
 32 47  1  1  0  0  0
 33 42  1  6  0  0  0
 33 32  1  0  0  0  0
 34 39  1  0  0  0  0
 36 37  1  0  0  0  0
 36 40  1  0  0  0  0
 36 39  1  0  0  0  0
 37 35  1  0  0  0  0
 38 35  1  0  0  0  0
 38 34  1  0  0  0  0
 39 33  1  6  0  0  0
 42 41  1  0  0  0  0
 43 42  1  0  0  0  0
 44 43  1  0  0  0  0
 45 44  1  0  0  0  0
 46 44  2  0  0  0  0
 47 48  1  0  0  0  0
 48 49  1  0  0  0  0
 49 50  1  0  0  0  0
 50 52  1  0  0  0  0
 52 53  1  6  0  0  0
 52 51  1  0  0  0  0
 52 54  1  0  0  0  0
 54 55  1  0  0  0  0
M  END
>  <MODEL>
2

>  <REMARK>
 VINA RESULT:      -6.2      4.406      9.957
  Name = 
  21 active torsions:
  status: ('A' for Active; 'I' for Inactive)
    1  A    between atoms: C_1  and  C_29
    2  A    between atoms: C_2  and  N_28
    3  A    between atoms: C_2  and  C_31
    4  A    between atoms: C_4  and  C_40
    5  A    between atoms: C_6  and  S_20
    6  A    between atoms: C_8  and  C_35
    7  A    between atoms: N_10  and  C_39
    8  A    between atoms: C_13  and  C_48
    9  A    between atoms: C_13  and  C_52
   10  A    between atoms: S_20  and  S_22
   11  A    between atoms: C_26  and  C_49
   12  A    between atoms: C_27  and  C_54
   13  A    between atoms: N_28  and  C_33
   14  A    between atoms: C_33  and  C_34
   15  A    between atoms: C_33  and  C_49
   16  A    between atoms: C_34  and  C_52
   17  A    between atoms: C_35  and  O_51
   18  A    between atoms: C_39  and  C_48
   19  A    between atoms: C_40  and  N_45
   20  A    between atoms: N_45  and  C_49
   21  A    between atoms: O_51  and  C_54
                            x       y       z     vdW  Elec       q    Type
                         _______ _______ _______ _____ _____    ______ ____

>  <TORSDO>
F 21

$$$$
=
 OpenBabel10272401433D

 55 58  0  0  1  0  0  0  0  0999 V2000
  189.7910  177.6760  144.2210 C   0  0  0  0  0  2  0  0  0  0  0  0
  190.2430  176.9130  141.4050 C   0  0  2  0  0  3  0  0  0  0  0  0
  189.5500  178.2330  141.7580 C   0  0  2  0  0  3  0  0  0  0  0  0
  190.5960  176.4350  143.8690 C   0  0  0  0  0  2  0  0  0  0  0  0
  189.9830  178.7390  143.1430 C   0  0  0  0  0  2  0  0  0  0  0  0
  190.1130  175.8730  142.5320 C   0  0  0  0  0  2  0  0  0  0  0  0
  191.6980  177.1520  140.9930 C   0  0  0  0  0  2  0  0  0  0  0  0
  191.8210  177.1800  139.5980 O   0  0  0  0  0  0  0  0  0  0  0  0
  190.9740  176.1760  139.1220 C   0  0  0  0  0  2  0  0  0  0  0  0
  191.2450  175.9300  137.6690 C   0  0  2  0  0  3  0  0  0  0  0  0
  192.3600  174.8470  137.2450 S   0  0  0  0  0  0  0  0  0  0  0  0
  190.4840  176.6880  136.6240 C   0  0  0  0  0  1  0  0  0  0  0  0
  193.3940  176.2450  134.8730 O   0  0  0  0  0  0  0  0  0  0  0  0
  193.8530  175.9350  136.2680 S   0  0  0  0  0  0  0  0  0  0  0  0
  194.0440  177.2260  137.0190 O   0  0  0  0  0  0  0  0  0  0  0  0
  197.8770  173.0300  137.1700 C   0  0  0  0  0  2  0  0  0  0  0  0
  195.3750  174.9650  136.2430 C   0  0  2  0  0  3  0  0  0  0  0  0
  195.8170  171.7110  136.4220 C   0  0  0  0  0  2  0  0  0  0  0  0
  194.8220  174.1680  138.4330 O   0  0  0  0  0  0  0  0  0  0  0  0
  195.4810  174.0130  137.4150 C   0  0  0  0  0  0  0  0  0  0  0  0
  197.8190  175.3870  136.7220 O   0  0  0  0  0  0  0  0  0  0  0  0
  195.9140  171.5290  137.9340 C   0  0  0  0  0  2  0  0  0  0  0  0
  198.1290  174.1350  136.1520 C   0  0  1  0  0  3  0  0  0  0  0  0
  196.3790  172.8160  137.2920 C   0  0  0  0  0  0  0  0  0  0  0  0
  196.8410  176.5430  134.8020 C   0  0  0  0  0  1  0  0  0  0  0  0
  196.6170  175.8870  136.1620 C   0  0  1  0  0  3  0  0  0  0  0  0
  199.5280  174.0970  135.6310 C   0  0  0  0  0  0  0  0  0  0  0  0
  200.0740  172.8730  135.1510 N   0  0  0  0  0  1  0  0  0  0  0  0
  200.1950  175.1600  135.4970 O   0  0  0  0  0  0  0  0  0  0  0  0
  188.0370  178.0580  141.6590 C   0  0  0  0  0  2  0  0  0  0  0  0
  187.4720  178.9300  140.6320 N   0  0  0  0  0  2  0  0  0  0  0  0
  186.1790  178.4180  140.1620 C   0  0  1  0  0  3  0  0  0  0  0  0
  184.9490  179.2200  140.6700 C   0  0  1  0  0  3  0  0  0  0  0  0
  183.4340  180.4510  139.0410 C   0  0  0  0  0  2  0  0  0  0  0  0
  181.7070  179.1240  137.8020 C   0  0  0  0  0  2  0  0  0  0  0  0
  182.7460  178.1980  139.9020 N   0  0  0  0  0  0  0  0  0  0  0  0
  181.8790  177.9240  138.7450 C   0  0  0  0  0  2  0  0  0  0  0  0
  181.9970  180.4350  138.5140 C   0  0  0  0  0  2  0  0  0  0  0  0
  183.8860  179.0700  139.5420 C   0  0  2  0  0  3  0  0  0  0  0  0
  183.2240  176.9900  140.3070 O   0  0  0  0  0  1  0  0  0  0  0  0
  185.1550  177.5390  142.4300 C   0  0  0  0  0  1  0  0  0  0  0  0
  184.4800  178.7670  142.0140 N   0  0  0  0  0  0  0  0  0  0  0  0
  184.6300  179.7640  143.1030 C   0  0  0  0  0  2  0  0  0  0  0  0
  184.3000  179.3020  144.5150 C   0  0  0  0  0  0  0  0  0  0  0  0
  182.9050  178.8400  144.7880 C   0  0  0  0  0  1  0  0  0  0  0  0
  185.2100  179.1830  145.4780 C   0  0  0  0  0  2  0  0  0  0  0  0
  186.1550  178.2320  138.6430 C   0  0  0  0  0  2  0  0  0  0  0  0
  187.2880  177.3390  138.1620 C   0  0  0  0  0  2  0  0  0  0  0  0
  186.8070  176.5550  136.9620 C   0  0  0  0  0  2  0  0  0  0  0  0
  187.1320  175.0700  137.1070 C   0  0  0  0  0  2  0  0  0  0  0  0
  186.2250  173.6630  135.3970 O   0  0  0  0  0  1  0  0  0  0  0  0
  185.9600  174.1960  136.6690 C   0  0  1  0  0  0  0  0  0  0  0  0
  185.8510  173.0520  137.6550 C   0  0  0  0  0  1  0  0  0  0  0  0
  184.7200  174.9890  136.6650 N   0  0  0  0  0  2  0  0  0  0  0  0
  183.8170  174.5380  137.7160 C   0  0  0  0  0  1  0  0  0  0  0  0
  2  7  1  1  0  0  0
  2  3  1  0  0  0  0
  2  6  1  0  0  0  0
  3 30  1  1  0  0  0
  3  5  1  0  0  0  0
  4  1  1  0  0  0  0
  5  1  1  0  0  0  0
  6  4  1  0  0  0  0
  8  7  1  0  0  0  0
  9  8  1  0  0  0  0
 10 12  1  1  0  0  0
 10  9  1  0  0  0  0
 11 10  1  0  0  0  0
 13 14  2  0  0  0  0
 14 15  2  0  0  0  0
 14 11  1  0  0  0  0
 16 24  1  0  0  0  0
 17 14  1  1  0  0  0
 17 20  1  0  0  0  0
 18 24  1  0  0  0  0
 18 22  1  0  0  0  0
 20 19  2  0  0  0  0
 23 27  1  1  0  0  0
 23 21  1  0  0  0  0
 23 16  1  0  0  0  0
 24 20  1  0  0  0  0
 24 22  1  0  0  0  0
 26 25  1  6  0  0  0
 26 17  1  0  0  0  0
 26 21  1  0  0  0  0
 28 27  1  0  0  0  0
 29 27  2  0  0  0  0
 31 30  1  0  0  0  0
 32 47  1  6  0  0  0
 32 31  1  0  0  0  0
 32 33  1  0  0  0  0
 33 42  1  1  0  0  0
 34 39  1  0  0  0  0
 35 38  1  0  0  0  0
 35 37  1  0  0  0  0
 36 40  1  0  0  0  0
 37 36  1  0  0  0  0
 38 34  1  0  0  0  0
 39 36  1  0  0  0  0
 39 33  1  1  0  0  0
 42 41  1  0  0  0  0
 42 43  1  0  0  0  0
 43 44  1  0  0  0  0
 44 45  1  0  0  0  0
 44 46  2  0  0  0  0
 48 47  1  0  0  0  0
 49 50  1  0  0  0  0
 49 48  1  0  0  0  0
 51 52  1  0  0  0  0
 52 50  1  0  0  0  0
 52 53  1  1  0  0  0
 54 52  1  0  0  0  0
 54 55  1  0  0  0  0
M  END
>  <MODEL>
3

>  <REMARK>
 VINA RESULT:      -6.2      1.764      2.496
  Name = 
  21 active torsions:
  status: ('A' for Active; 'I' for Inactive)
    1  A    between atoms: C_1  and  C_29
    2  A    between atoms: C_2  and  N_28
    3  A    between atoms: C_2  and  C_31
    4  A    between atoms: C_4  and  C_40
    5  A    between atoms: C_6  and  S_20
    6  A    between atoms: C_8  and  C_35
    7  A    between atoms: N_10  and  C_39
    8  A    between atoms: C_13  and  C_48
    9  A    between atoms: C_13  and  C_52
   10  A    between atoms: S_20  and  S_22
   11  A    between atoms: C_26  and  C_49
   12  A    between atoms: C_27  and  C_54
   13  A    between atoms: N_28  and  C_33
   14  A    between atoms: C_33  and  C_34
   15  A    between atoms: C_33  and  C_49
   16  A    between atoms: C_34  and  C_52
   17  A    between atoms: C_35  and  O_51
   18  A    between atoms: C_39  and  C_48
   19  A    between atoms: C_40  and  N_45
   20  A    between atoms: N_45  and  C_49
   21  A    between atoms: O_51  and  C_54
                            x       y       z     vdW  Elec       q    Type
                         _______ _______ _______ _____ _____    ______ ____

>  <TORSDO>
F 21

$$$$
=
 OpenBabel10272401433D

 55 58  0  0  1  0  0  0  0  0999 V2000
  189.9710  177.6670  144.3930 C   0  0  0  0  0  2  0  0  0  0  0  0
  189.7970  176.8390  141.5640 C   0  0  2  0  0  3  0  0  0  0  0  0
  189.4290  178.2650  141.9880 C   0  0  2  0  0  3  0  0  0  0  0  0
  190.4610  176.2970  143.9500 C   0  0  0  0  0  2  0  0  0  0  0  0
  190.1740  178.6770  143.2680 C   0  0  0  0  0  2  0  0  0  0  0  0
  189.6660  175.8390  142.7280 C   0  0  0  0  0  2  0  0  0  0  0  0
  191.1810  176.8020  140.9120 C   0  0  0  0  0  2  0  0  0  0  0  0
  191.0870  177.0360  139.5340 O   0  0  0  0  0  0  0  0  0  0  0  0
  192.3440  176.7230  139.0100 C   0  0  0  0  0  2  0  0  0  0  0  0
  192.1850  175.9410  137.7420 C   0  0  1  0  0  3  0  0  0  0  0  0
  193.0400  174.5910  137.5330 S   0  0  0  0  0  0  0  0  0  0  0  0
  191.2380  176.4140  136.6810 C   0  0  0  0  0  1  0  0  0  0  0  0
  193.5070  174.8660  134.6420 O   0  0  0  0  0  0  0  0  0  0  0  0
  194.3010  174.9740  135.9110 S   0  0  0  0  0  0  0  0  0  0  0  0
  194.8110  176.3850  136.0500 O   0  0  0  0  0  0  0  0  0  0  0  0
  198.4830  172.2450  135.2040 C   0  0  0  0  0  2  0  0  0  0  0  0
  195.6600  173.7870  135.9210 C   0  0  2  0  0  3  0  0  0  0  0  0
  198.7840  174.1510  136.8830 C   0  0  0  0  0  2  0  0  0  0  0  0
  196.8350  175.2240  134.4080 O   0  0  0  0  0  0  0  0  0  0  0  0
  196.8930  174.3030  135.2100 C   0  0  0  0  0  0  0  0  0  0  0  0
  196.2120  171.6320  134.7250 O   0  0  0  0  0  0  0  0  0  0  0  0
  199.4200  174.6260  135.5800 C   0  0  0  0  0  2  0  0  0  0  0  0
  197.2740  171.4220  135.6300 C   0  0  1  0  0  3  0  0  0  0  0  0
  198.2250  173.7000  135.5500 C   0  0  0  0  0  0  0  0  0  0  0  0
  194.2950  171.6070  136.2420 C   0  0  0  0  0  1  0  0  0  0  0  0
  195.2100  172.4250  135.3350 C   0  0  1  0  0  3  0  0  0  0  0  0
  197.6100  169.9730  135.7600 C   0  0  0  0  0  0  0  0  0  0  0  0
  198.6040  169.3960  134.9180 N   0  0  0  0  0  1  0  0  0  0  0  0
  197.1140  169.2770  136.6880 O   0  0  0  0  0  0  0  0  0  0  0  0
  187.9150  178.3770  142.1450 C   0  0  0  0  0  2  0  0  0  0  0  0
  187.3050  178.9620  140.9540 N   0  0  0  0  0  2  0  0  0  0  0  0
  185.8470  178.7890  140.9720 C   0  0  1  0  0  3  0  0  0  0  0  0
  185.2770  178.0290  139.7430 C   0  0  1  0  0  3  0  0  0  0  0  0
  182.9020  177.1510  139.5040 C   0  0  0  0  0  2  0  0  0  0  0  0
  181.0510  178.8150  139.2200 C   0  0  0  0  0  2  0  0  0  0  0  0
  183.4350  179.4840  138.7530 N   0  0  0  0  0  0  0  0  0  0  0  0
  182.0460  179.9430  138.9030 C   0  0  0  0  0  2  0  0  0  0  0  0
  181.5890  177.4630  138.7820 C   0  0  0  0  0  2  0  0  0  0  0  0
  183.7660  178.4050  139.7110 C   0  0  2  0  0  3  0  0  0  0  0  0
  184.2190  180.5640  139.0170 O   0  0  0  0  0  1  0  0  0  0  0  0
  187.4350  178.0420  138.6010 C   0  0  0  0  0  1  0  0  0  0  0  0
  186.0110  178.3420  138.4800 N   0  0  0  0  0  0  0  0  0  0  0  0
  185.4990  177.6570  137.2670 C   0  0  0  0  0  2  0  0  0  0  0  0
  186.5130  177.3130  136.1860 C   0  0  0  0  0  0  0  0  0  0  0  0
  186.9200  175.8830  136.0430 C   0  0  0  0  0  1  0  0  0  0  0  0
  186.9640  178.1950  135.2980 C   0  0  0  0  0  2  0  0  0  0  0  0
  185.3580  178.1900  142.2930 C   0  0  0  0  0  2  0  0  0  0  0  0
  184.6110  179.2120  143.1370 C   0  0  0  0  0  2  0  0  0  0  0  0
  184.5780  178.7230  144.5670 C   0  0  0  0  0  2  0  0  0  0  0  0
  185.6910  179.3640  145.3940 C   0  0  0  0  0  2  0  0  0  0  0  0
  186.0060  179.7240  147.7390 O   0  0  0  0  0  1  0  0  0  0  0  0
  185.8000  178.7230  146.7760 C   0  0  1  0  0  0  0  0  0  0  0  0
  184.4800  178.0410  147.0670 C   0  0  0  0  0  1  0  0  0  0  0  0
  186.8980  177.7430  146.7860 N   0  0  0  0  0  2  0  0  0  0  0  0
  187.9680  178.1780  147.6750 C   0  0  0  0  0  1  0  0  0  0  0  0
  2  7  1  1  0  0  0
  2  3  1  0  0  0  0
  2  6  1  0  0  0  0
  3 30  1  1  0  0  0
  3  5  1  0  0  0  0
  4  1  1  0  0  0  0
  5  1  1  0  0  0  0
  6  4  1  0  0  0  0
  8  7  1  0  0  0  0
  9  8  1  0  0  0  0
 10 12  1  1  0  0  0
 10  9  1  0  0  0  0
 11 10  1  0  0  0  0
 13 14  2  0  0  0  0
 14 15  2  0  0  0  0
 14 11  1  0  0  0  0
 16 24  1  0  0  0  0
 16 23  1  0  0  0  0
 17 14  1  6  0  0  0
 19 20  2  0  0  0  0
 20 24  1  0  0  0  0
 20 17  1  0  0  0  0
 21 26  1  0  0  0  0
 21 23  1  0  0  0  0
 22 18  1  0  0  0  0
 23 27  1  6  0  0  0
 24 22  1  0  0  0  0
 24 18  1  0  0  0  0
 26 17  1  0  0  0  0
 26 25  1  1  0  0  0
 27 29  2  0  0  0  0
 28 27  1  0  0  0  0
 31 32  1  0  0  0  0
 31 30  1  0  0  0  0
 32 47  1  1  0  0  0
 33 42  1  6  0  0  0
 33 32  1  0  0  0  0
 34 39  1  0  0  0  0
 36 37  1  0  0  0  0
 36 40  1  0  0  0  0
 36 39  1  0  0  0  0
 37 35  1  0  0  0  0
 38 35  1  0  0  0  0
 38 34  1  0  0  0  0
 39 33  1  6  0  0  0
 42 41  1  0  0  0  0
 43 42  1  0  0  0  0
 44 43  1  0  0  0  0
 45 44  1  0  0  0  0
 46 44  2  0  0  0  0
 47 48  1  0  0  0  0
 48 49  1  0  0  0  0
 49 50  1  0  0  0  0
 50 52  1  0  0  0  0
 52 54  1  0  0  0  0
 52 53  1  1  0  0  0
 52 51  1  0  0  0  0
 54 55  1  0  0  0  0
M  END
>  <MODEL>
4

>  <REMARK>
 VINA RESULT:      -6.0      2.015      4.857
  Name = 
  21 active torsions:
  status: ('A' for Active; 'I' for Inactive)
    1  A    between atoms: C_1  and  C_29
    2  A    between atoms: C_2  and  N_28
    3  A    between atoms: C_2  and  C_31
    4  A    between atoms: C_4  and  C_40
    5  A    between atoms: C_6  and  S_20
    6  A    between atoms: C_8  and  C_35
    7  A    between atoms: N_10  and  C_39
    8  A    between atoms: C_13  and  C_48
    9  A    between atoms: C_13  and  C_52
   10  A    between atoms: S_20  and  S_22
   11  A    between atoms: C_26  and  C_49
   12  A    between atoms: C_27  and  C_54
   13  A    between atoms: N_28  and  C_33
   14  A    between atoms: C_33  and  C_34
   15  A    between atoms: C_33  and  C_49
   16  A    between atoms: C_34  and  C_52
   17  A    between atoms: C_35  and  O_51
   18  A    between atoms: C_39  and  C_48
   19  A    between atoms: C_40  and  N_45
   20  A    between atoms: N_45  and  C_49
   21  A    between atoms: O_51  and  C_54
                            x       y       z     vdW  Elec       q    Type
                         _______ _______ _______ _____ _____    ______ ____

>  <TORSDO>
F 21

$$$$
=
 OpenBabel10272401433D

 55 58  0  0  1  0  0  0  0  0999 V2000
  191.2100  177.5120  145.0160 C   0  0  0  0  0  2  0  0  0  0  0  0
  190.7500  177.0670  142.1340 C   0  0  2  0  0  3  0  0  0  0  0  0
  190.5120  178.4450  142.7630 C   0  0  2  0  0  3  0  0  0  0  0  0
  191.5720  176.1870  144.3640 C   0  0  0  0  0  2  0  0  0  0  0  0
  191.3850  178.6470  144.0120 C   0  0  0  0  0  2  0  0  0  0  0  0
  190.6510  175.9340  143.1710 C   0  0  0  0  0  2  0  0  0  0  0  0
  192.0700  177.0410  141.3600 C   0  0  0  0  0  2  0  0  0  0  0  0
  191.8680  177.3950  140.0200 O   0  0  0  0  0  0  0  0  0  0  0  0
  190.6890  176.7540  139.6310 C   0  0  0  0  0  2  0  0  0  0  0  0
  190.7690  176.3800  138.1820 C   0  0  2  0  0  3  0  0  0  0  0  0
  191.5370  175.0290  137.7560 S   0  0  0  0  0  0  0  0  0  0  0  0
  190.1410  177.2590  137.1440 C   0  0  0  0  0  1  0  0  0  0  0  0
  192.6940  175.9940  135.2290 O   0  0  0  0  0  0  0  0  0  0  0  0
  193.1710  175.6520  136.6110 S   0  0  0  0  0  0  0  0  0  0  0  0
  193.7350  176.8910  137.2540 O   0  0  0  0  0  0  0  0  0  0  0  0
  197.2100  172.6770  136.0840 C   0  0  0  0  0  2  0  0  0  0  0  0
  194.3980  174.3290  136.5580 C   0  0  2  0  0  3  0  0  0  0  0  0
  197.1440  173.9170  138.3200 C   0  0  0  0  0  2  0  0  0  0  0  0
  196.0350  175.9670  135.9460 O   0  0  0  0  0  0  0  0  0  0  0  0
  195.8100  174.8480  136.3840 C   0  0  0  0  0  0  0  0  0  0  0  0
  195.1310  172.5820  134.8880 O   0  0  0  0  0  0  0  0  0  0  0  0
  198.1470  174.6660  137.4470 C   0  0  0  0  0  2  0  0  0  0  0  0
  195.8820  171.9530  135.9020 C   0  0  1  0  0  3  0  0  0  0  0  0
  196.9550  173.9800  136.8190 C   0  0  0  0  0  0  0  0  0  0  0  0
  192.8690  172.3830  135.7920 C   0  0  0  0  0  1  0  0  0  0  0  0
  194.0480  173.2930  135.4610 C   0  0  1  0  0  3  0  0  0  0  0  0
  196.0800  170.5000  135.6210 C   0  0  0  0  0  0  0  0  0  0  0  0
  195.0990  169.5550  136.0370 N   0  0  0  0  0  1  0  0  0  0  0  0
  197.0480  170.1060  134.9120 O   0  0  0  0  0  0  0  0  0  0  0  0
  189.0260  178.6170  143.0680 C   0  0  0  0  0  2  0  0  0  0  0  0
  188.2460  177.5060  142.5290 N   0  0  0  0  0  2  0  0  0  0  0  0
  186.8400  177.8900  142.3530 C   0  0  1  0  0  3  0  0  0  0  0  0
  186.1200  178.3040  143.6660 C   0  0  1  0  0  3  0  0  0  0  0  0
  184.4040  177.9620  141.8210 C   0  0  0  0  0  2  0  0  0  0  0  0
  182.0110  178.5170  142.3160 C   0  0  0  0  0  2  0  0  0  0  0  0
  183.8520  179.4600  143.7550 N   0  0  0  0  0  0  0  0  0  0  0  0
  182.4000  179.2890  143.5860 C   0  0  0  0  0  2  0  0  0  0  0  0
  183.1140  178.5770  141.2710 C   0  0  0  0  0  2  0  0  0  0  0  0
  184.6030  178.2640  143.3150 C   0  0  2  0  0  3  0  0  0  0  0  0
  184.0560  179.6430  145.0880 O   0  0  0  0  0  1  0  0  0  0  0  0
  187.0110  176.1490  144.3900 C   0  0  0  0  0  1  0  0  0  0  0  0
  186.5000  177.4460  144.8280 N   0  0  0  0  0  0  0  0  0  0  0  0
  187.4950  178.0430  145.7530 C   0  0  0  0  0  2  0  0  0  0  0  0
  187.0690  178.2270  147.2030 C   0  0  0  0  0  0  0  0  0  0  0  0
  188.0900  177.9800  148.2650 C   0  0  0  0  0  1  0  0  0  0  0  0
  185.8790  178.7010  147.5610 C   0  0  0  0  0  2  0  0  0  0  0  0
  186.6650  178.9350  141.2490 C   0  0  0  0  0  2  0  0  0  0  0  0
  187.3380  178.5090  139.9530 C   0  0  0  0  0  2  0  0  0  0  0  0
  186.2660  178.2420  138.9200 C   0  0  0  0  0  2  0  0  0  0  0  0
  186.8560  178.2000  137.5110 C   0  0  0  0  0  2  0  0  0  0  0  0
  186.2170  177.7180  135.2560 O   0  0  0  0  0  1  0  0  0  0  0  0
  186.0320  177.3080  136.5870 C   0  0  1  0  0  0  0  0  0  0  0  0
  186.5560  175.8950  136.7310 C   0  0  0  0  0  1  0  0  0  0  0  0
  184.6120  177.3700  136.9690 N   0  0  0  0  0  2  0  0  0  0  0  0
  183.7810  176.7130  135.9670 C   0  0  0  0  0  1  0  0  0  0  0  0
  2  7  1  1  0  0  0
  2  3  1  0  0  0  0
  2  6  1  0  0  0  0
  3 30  1  1  0  0  0
  3  5  1  0  0  0  0
  4  1  1  0  0  0  0
  5  1  1  0  0  0  0
  6  4  1  0  0  0  0
  8  7  1  0  0  0  0
  9  8  1  0  0  0  0
 10 12  1  6  0  0  0
 10  9  1  0  0  0  0
 11 10  1  0  0  0  0
 13 14  2  0  0  0  0
 14 15  2  0  0  0  0
 14 11  1  0  0  0  0
 16 24  1  0  0  0  0
 17 14  1  6  0  0  0
 19 20  2  0  0  0  0
 20 17  1  0  0  0  0
 20 24  1  0  0  0  0
 21 26  1  0  0  0  0
 21 23  1  0  0  0  0
 22 18  1  0  0  0  0
 23 27  1  6  0  0  0
 23 16  1  0  0  0  0
 24 22  1  0  0  0  0
 24 18  1  0  0  0  0
 26 25  1  1  0  0  0
 26 17  1  0  0  0  0
 27 28  1  0  0  0  0
 29 27  2  0  0  0  0
 31 30  1  0  0  0  0
 32 47  1  6  0  0  0
 32 31  1  0  0  0  0
 32 33  1  0  0  0  0
 33 42  1  1  0  0  0
 34 39  1  0  0  0  0
 35 37  1  0  0  0  0
 36 40  1  0  0  0  0
 37 36  1  0  0  0  0
 38 34  1  0  0  0  0
 38 35  1  0  0  0  0
 39 33  1  6  0  0  0
 39 36  1  0  0  0  0
 41 42  1  0  0  0  0
 42 43  1  0  0  0  0
 43 44  1  0  0  0  0
 44 46  2  0  0  0  0
 44 45  1  0  0  0  0
 48 47  1  0  0  0  0
 49 48  1  0  0  0  0
 50 49  1  0  0  0  0
 51 52  1  0  0  0  0
 52 53  1  1  0  0  0
 52 54  1  0  0  0  0
 52 50  1  0  0  0  0
 55 54  1  0  0  0  0
M  END
>  <MODEL>
5

>  <REMARK>
 VINA RESULT:      -5.8      1.812      2.636
  Name = 
  21 active torsions:
  status: ('A' for Active; 'I' for Inactive)
    1  A    between atoms: C_1  and  C_29
    2  A    between atoms: C_2  and  N_28
    3  A    between atoms: C_2  and  C_31
    4  A    between atoms: C_4  and  C_40
    5  A    between atoms: C_6  and  S_20
    6  A    between atoms: C_8  and  C_35
    7  A    between atoms: N_10  and  C_39
    8  A    between atoms: C_13  and  C_48
    9  A    between atoms: C_13  and  C_52
   10  A    between atoms: S_20  and  S_22
   11  A    between atoms: C_26  and  C_49
   12  A    between atoms: C_27  and  C_54
   13  A    between atoms: N_28  and  C_33
   14  A    between atoms: C_33  and  C_34
   15  A    between atoms: C_33  and  C_49
   16  A    between atoms: C_34  and  C_52
   17  A    between atoms: C_35  and  O_51
   18  A    between atoms: C_39  and  C_48
   19  A    between atoms: C_40  and  N_45
   20  A    between atoms: N_45  and  C_49
   21  A    between atoms: O_51  and  C_54
                            x       y       z     vdW  Elec       q    Type
                         _______ _______ _______ _____ _____    ______ ____

>  <TORSDO>
F 21

$$$$
=
 OpenBabel10272401433D

 55 58  0  0  1  0  0  0  0  0999 V2000
  186.7760  177.6140  144.7130 C   0  0  0  0  0  2  0  0  0  0  0  0
  184.9280  179.0350  142.9010 C   0  0  2  0  0  3  0  0  0  0  0  0
  185.9570  178.0400  142.3500 C   0  0  2  0  0  3  0  0  0  0  0  0
  185.6680  178.4970  145.2650 C   0  0  0  0  0  2  0  0  0  0  0  0
  186.3260  176.9800  143.4000 C   0  0  0  0  0  2  0  0  0  0  0  0
  185.3530  179.6090  144.2650 C   0  0  0  0  0  2  0  0  0  0  0  0
  183.5310  178.4120  142.9360 C   0  0  0  0  0  2  0  0  0  0  0  0
  183.2530  177.7460  141.7350 O   0  0  0  0  0  0  0  0  0  0  0  0
  182.8260  178.7340  140.8440 C   0  0  0  0  0  2  0  0  0  0  0  0
  181.7490  178.1850  139.9570 C   0  0  2  0  0  3  0  0  0  0  0  0
  181.8590  176.6680  139.4250 S   0  0  0  0  0  0  0  0  0  0  0  0
  180.5830  179.0450  139.5710 C   0  0  0  0  0  1  0  0  0  0  0  0
  180.7080  177.1540  136.7630 O   0  0  0  0  0  0  0  0  0  0  0  0
  182.0470  176.8160  137.3490 S   0  0  0  0  0  0  0  0  0  0  0  0
  183.0070  177.9380  137.0550 O   0  0  0  0  0  0  0  0  0  0  0  0
  183.9200  172.9730  134.6720 C   0  0  0  0  0  2  0  0  0  0  0  0
  182.6570  175.2490  136.6950 C   0  0  2  0  0  3  0  0  0  0  0  0
  185.7120  174.3370  135.8860 C   0  0  0  0  0  2  0  0  0  0  0  0
  183.3900  176.4280  134.7430 O   0  0  0  0  0  0  0  0  0  0  0  0
  183.4730  175.4200  135.4310 C   0  0  0  0  0  0  0  0  0  0  0  0
  181.6740  173.2770  135.4610 O   0  0  0  0  0  0  0  0  0  0  0  0
  185.7550  174.7800  134.4260 C   0  0  0  0  0  2  0  0  0  0  0  0
  182.8650  172.5600  135.6910 C   0  0  1  0  0  3  0  0  0  0  0  0
  184.4480  174.3450  135.0510 C   0  0  0  0  0  0  0  0  0  0  0  0
  180.9080  173.6560  137.7510 C   0  0  0  0  0  1  0  0  0  0  0  0
  181.4940  174.2500  136.4740 C   0  0  1  0  0  3  0  0  0  0  0  0
  182.6340  171.0840  135.6780 C   0  0  0  0  0  0  0  0  0  0  0  0
  183.3990  170.2370  136.5300 N   0  0  0  0  0  1  0  0  0  0  0  0
  181.6850  170.5870  135.0110 O   0  0  0  0  0  0  0  0  0  0  0  0
  187.1820  178.7990  141.8470 C   0  0  0  0  0  2  0  0  0  0  0  0
  187.3560  178.6200  140.4080 N   0  0  0  0  0  2  0  0  0  0  0  0
  188.5450  177.8080  140.1200 C   0  0  1  0  0  3  0  0  0  0  0  0
  189.0070  177.8500  138.6380 C   0  0  1  0  0  3  0  0  0  0  0  0
  191.4720  177.2580  138.4400 C   0  0  0  0  0  2  0  0  0  0  0  0
  192.0780  174.8890  137.8940 C   0  0  0  0  0  2  0  0  0  0  0  0
  189.7560  175.7420  137.4190 N   0  0  0  0  0  0  0  0  0  0  0  0
  190.6370  174.5650  137.4690 C   0  0  0  0  0  2  0  0  0  0  0  0
  192.4150  176.3500  137.6460 C   0  0  0  0  0  2  0  0  0  0  0  0
  190.0450  176.6940  138.5140 C   0  0  2  0  0  3  0  0  0  0  0  0
  188.4890  175.2680  137.5690 O   0  0  0  0  0  1  0  0  0  0  0  0
  186.5910  178.0250  138.3310 C   0  0  0  0  0  1  0  0  0  0  0  0
  187.8690  177.7530  137.6760 N   0  0  0  0  0  0  0  0  0  0  0  0
  187.9710  178.6350  136.4870 C   0  0  0  0  0  2  0  0  0  0  0  0
  187.6790  178.0070  135.1320 C   0  0  0  0  0  0  0  0  0  0  0  0
  186.3650  178.3160  134.4910 C   0  0  0  0  0  1  0  0  0  0  0  0
  188.5710  177.2970  134.4460 C   0  0  0  0  0  2  0  0  0  0  0  0
  189.6930  178.1110  141.0870 C   0  0  0  0  0  2  0  0  0  0  0  0
  189.9910  176.9310  142.0010 C   0  0  0  0  0  2  0  0  0  0  0  0
  191.4250  177.0350  142.4670 C   0  0  0  0  0  2  0  0  0  0  0  0
  191.5140  177.7230  143.8280 C   0  0  0  0  0  2  0  0  0  0  0  0
  189.9410  176.5310  145.1820 O   0  0  0  0  0  1  0  0  0  0  0  0
  191.3150  176.7300  144.9710 C   0  0  1  0  0  0  0  0  0  0  0  0
  191.9300  175.4140  144.5420 C   0  0  0  0  0  1  0  0  0  0  0  0
  191.9740  177.2310  146.1880 N   0  0  0  0  0  2  0  0  0  0  0  0
  191.4550  176.5520  147.3690 C   0  0  0  0  0  1  0  0  0  0  0  0
  1  4  1  0  0  0  0
  2  7  1  1  0  0  0
  2  6  1  0  0  0  0
  3 30  1  1  0  0  0
  3  2  1  0  0  0  0
  3  5  1  0  0  0  0
  5  1  1  0  0  0  0
  6  4  1  0  0  0  0
  8  7  1  0  0  0  0
  9  8  1  0  0  0  0
 10 12  1  6  0  0  0
 10  9  1  0  0  0  0
 11 10  1  0  0  0  0
 13 14  2  0  0  0  0
 14 11  1  0  0  0  0
 15 14  2  0  0  0  0
 16 24  1  0  0  0  0
 16 23  1  0  0  0  0
 17 14  1  6  0  0  0
 19 20  2  0  0  0  0
 20 17  1  0  0  0  0
 21 23  1  0  0  0  0
 21 26  1  0  0  0  0
 22 24  1  0  0  0  0
 22 18  1  0  0  0  0
 23 27  1  6  0  0  0
 24 20  1  0  0  0  0
 24 18  1  0  0  0  0
 26 17  1  0  0  0  0
 26 25  1  1  0  0  0
 27 28  1  0  0  0  0
 29 27  2  0  0  0  0
 31 30  1  0  0  0  0
 32 31  1  0  0  0  0
 32 47  1  1  0  0  0
 33 42  1  6  0  0  0
 33 32  1  0  0  0  0
 34 39  1  0  0  0  0
 36 37  1  0  0  0  0
 36 40  1  0  0  0  0
 36 39  1  0  0  0  0
 37 35  1  0  0  0  0
 38 35  1  0  0  0  0
 38 34  1  0  0  0  0
 39 33  1  6  0  0  0
 42 41  1  0  0  0  0
 43 42  1  0  0  0  0
 44 43  1  0  0  0  0
 45 44  1  0  0  0  0
 46 44  2  0  0  0  0
 47 48  1  0  0  0  0
 48 49  1  0  0  0  0
 49 50  1  0  0  0  0
 50 52  1  0  0  0  0
 52 53  1  6  0  0  0
 52 51  1  0  0  0  0
 52 54  1  0  0  0  0
 54 55  1  0  0  0  0
M  END
>  <MODEL>
6

>  <REMARK>
 VINA RESULT:      -5.7      4.305      9.790
  Name = 
  21 active torsions:
  status: ('A' for Active; 'I' for Inactive)
    1  A    between atoms: C_1  and  C_29
    2  A    between atoms: C_2  and  N_28
    3  A    between atoms: C_2  and  C_31
    4  A    between atoms: C_4  and  C_40
    5  A    between atoms: C_6  and  S_20
    6  A    between atoms: C_8  and  C_35
    7  A    between atoms: N_10  and  C_39
    8  A    between atoms: C_13  and  C_48
    9  A    between atoms: C_13  and  C_52
   10  A    between atoms: S_20  and  S_22
   11  A    between atoms: C_26  and  C_49
   12  A    between atoms: C_27  and  C_54
   13  A    between atoms: N_28  and  C_33
   14  A    between atoms: C_33  and  C_34
   15  A    between atoms: C_33  and  C_49
   16  A    between atoms: C_34  and  C_52
   17  A    between atoms: C_35  and  O_51
   18  A    between atoms: C_39  and  C_48
   19  A    between atoms: C_40  and  N_45
   20  A    between atoms: N_45  and  C_49
   21  A    between atoms: O_51  and  C_54
                            x       y       z     vdW  Elec       q    Type
                         _______ _______ _______ _____ _____    ______ ____

>  <TORSDO>
F 21

$$$$
=
 OpenBabel10272401433D

 55 58  0  0  1  0  0  0  0  0999 V2000
  189.3040  178.1160  139.3190 C   0  0  0  0  0  2  0  0  0  0  0  0
  188.5290  176.4730  136.9910 C   0  0  2  0  0  3  0  0  0  0  0  0
  187.7020  177.6980  137.3970 C   0  0  2  0  0  3  0  0  0  0  0  0
  190.1940  176.9820  138.8330 C   0  0  0  0  0  2  0  0  0  0  0  0
  188.5630  178.7340  138.1360 C   0  0  0  0  0  2  0  0  0  0  0  0
  189.3360  175.9040  138.1730 C   0  0  0  0  0  2  0  0  0  0  0  0
  189.4080  176.7840  135.7770 C   0  0  0  0  0  2  0  0  0  0  0  0
  189.4310  175.7010  134.8890 O   0  0  0  0  0  0  0  0  0  0  0  0
  190.7810  175.4510  134.6310 C   0  0  0  0  0  2  0  0  0  0  0  0
  191.2900  174.3970  135.5680 C   0  0  2  0  0  3  0  0  0  0  0  0
  192.5690  174.7150  136.4940 S   0  0  0  0  0  0  0  0  0  0  0  0
  190.6120  173.0620  135.6370 C   0  0  0  0  0  1  0  0  0  0  0  0
  193.7350  172.0180  136.3630 O   0  0  0  0  0  0  0  0  0  0  0  0
  194.0600  173.3940  135.8610 S   0  0  0  0  0  0  0  0  0  0  0  0
  194.0490  173.3800  134.3550 O   0  0  0  0  0  0  0  0  0  0  0  0
  198.8810  174.1320  137.1460 C   0  0  0  0  0  2  0  0  0  0  0  0
  195.6550  173.9500  136.4960 C   0  0  2  0  0  3  0  0  0  0  0  0
  198.2510  175.1930  134.9060 C   0  0  0  0  0  2  0  0  0  0  0  0
  196.6980  172.2610  135.1560 O   0  0  0  0  0  0  0  0  0  0  0  0
  196.8250  173.3000  135.7880 C   0  0  0  0  0  0  0  0  0  0  0  0
  197.0400  173.5400  138.5680 O   0  0  0  0  0  0  0  0  0  0  0  0
  199.0100  173.9120  134.5720 C   0  0  0  0  0  2  0  0  0  0  0  0
  197.8830  174.6070  138.1950 C   0  0  1  0  0  3  0  0  0  0  0  0
  198.1580  173.9890  135.8190 C   0  0  0  0  0  0  0  0  0  0  0  0
  194.9120  174.7070  138.8600 C   0  0  0  0  0  1  0  0  0  0  0  0
  195.7460  173.7370  138.0280 C   0  0  1  0  0  3  0  0  0  0  0  0
  198.5690  175.2080  139.3770 C   0  0  0  0  0  0  0  0  0  0  0  0
  197.8000  175.7180  140.4620 N   0  0  0  0  0  1  0  0  0  0  0  0
  199.8250  175.1620  139.4860 O   0  0  0  0  0  0  0  0  0  0  0  0
  186.5020  177.2520  138.2280 C   0  0  0  0  0  2  0  0  0  0  0  0
  185.2740  177.8940  137.7660 N   0  0  0  0  0  2  0  0  0  0  0  0
  184.5190  178.4540  138.8940 C   0  0  1  0  0  3  0  0  0  0  0  0
  183.2970  177.6020  139.3330 C   0  0  1  0  0  3  0  0  0  0  0  0
  182.3960  179.7050  138.2230 C   0  0  0  0  0  2  0  0  0  0  0  0
  180.2310  180.6470  139.0600 C   0  0  0  0  0  2  0  0  0  0  0  0
  181.5540  179.0520  140.4930 N   0  0  0  0  0  0  0  0  0  0  0  0
  180.2880  179.7850  140.3300 C   0  0  0  0  0  2  0  0  0  0  0  0
  181.6240  180.9840  138.5550 C   0  0  0  0  0  2  0  0  0  0  0  0
  182.0770  178.5610  139.1990 C   0  0  2  0  0  3  0  0  0  0  0  0
  181.2700  177.9850  141.2880 O   0  0  0  0  0  1  0  0  0  0  0  0
  181.9860  175.5760  138.9580 C   0  0  0  0  0  1  0  0  0  0  0  0
  183.1650  176.3360  138.5510 N   0  0  0  0  0  0  0  0  0  0  0  0
  183.1140  176.5070  137.0780 C   0  0  0  0  0  2  0  0  0  0  0  0
  183.4700  175.2960  136.2270 C   0  0  0  0  0  0  0  0  0  0  0  0
  183.3100  175.4140  134.7470 C   0  0  0  0  0  1  0  0  0  0  0  0
  184.0190  174.1900  136.7220 C   0  0  0  0  0  2  0  0  0  0  0  0
  185.4280  178.8030  140.0750 C   0  0  0  0  0  2  0  0  0  0  0  0
  184.8300  178.3590  141.4010 C   0  0  0  0  0  2  0  0  0  0  0  0
  185.4010  179.2260  142.5000 C   0  0  0  0  0  2  0  0  0  0  0  0
  185.6990  178.4040  143.7530 C   0  0  0  0  0  2  0  0  0  0  0  0
  185.5620  180.1880  145.3420 O   0  0  0  0  0  1  0  0  0  0  0  0
  184.9760  178.9660  144.9750 C   0  0  1  0  0  0  0  0  0  0  0  0
  183.5390  179.2240  144.5750 C   0  0  0  0  0  1  0  0  0  0  0  0
  185.0360  177.9950  146.0800 N   0  0  0  0  0  2  0  0  0  0  0  0
  185.9320  178.4650  147.1290 C   0  0  0  0  0  1  0  0  0  0  0  0
  2  7  1  6  0  0  0
  2  3  1  0  0  0  0
  2  6  1  0  0  0  0
  3  5  1  0  0  0  0
  3 30  1  1  0  0  0
  4  1  1  0  0  0  0
  5  1  1  0  0  0  0
  6  4  1  0  0  0  0
  8  7  1  0  0  0  0
  9  8  1  0  0  0  0
  9 10  1  0  0  0  0
 10 12  1  6  0  0  0
 10 11  1  0  0  0  0
 14 13  2  0  0  0  0
 14 11  1  0  0  0  0
 15 14  2  0  0  0  0
 16 23  1  0  0  0  0
 17 14  1  6  0  0  0
 17 26  1  0  0  0  0
 18 24  1  0  0  0  0
 19 20  2  0  0  0  0
 20 24  1  0  0  0  0
 20 17  1  0  0  0  0
 22 18  1  0  0  0  0
 22 24  1  0  0  0  0
 23 21  1  0  0  0  0
 23 27  1  1  0  0  0
 24 16  1  0  0  0  0
 26 21  1  0  0  0  0
 26 25  1  1  0  0  0
 27 29  2  0  0  0  0
 27 28  1  0  0  0  0
 31 30  1  0  0  0  0
 31 32  1  0  0  0  0
 32 33  1  0  0  0  0
 32 47  1  1  0  0  0
 33 42  1  6  0  0  0
 34 38  1  0  0  0  0
 34 39  1  0  0  0  0
 35 37  1  0  0  0  0
 36 40  1  0  0  0  0
 37 36  1  0  0  0  0
 38 35  1  0  0  0  0
 39 33  1  1  0  0  0
 39 36  1  0  0  0  0
 42 41  1  0  0  0  0
 43 42  1  0  0  0  0
 44 46  2  0  0  0  0
 44 43  1  0  0  0  0
 45 44  1  0  0  0  0
 47 48  1  0  0  0  0
 48 49  1  0  0  0  0
 49 50  1  0  0  0  0
 50 52  1  0  0  0  0
 52 53  1  6  0  0  0
 52 51  1  0  0  0  0
 52 54  1  0  0  0  0
 54 55  1  0  0  0  0
M  END
>  <MODEL>
7

>  <REMARK>
 VINA RESULT:      -5.5      2.716      5.585
  Name = 
  21 active torsions:
  status: ('A' for Active; 'I' for Inactive)
    1  A    between atoms: C_1  and  C_29
    2  A    between atoms: C_2  and  N_28
    3  A    between atoms: C_2  and  C_31
    4  A    between atoms: C_4  and  C_40
    5  A    between atoms: C_6  and  S_20
    6  A    between atoms: C_8  and  C_35
    7  A    between atoms: N_10  and  C_39
    8  A    between atoms: C_13  and  C_48
    9  A    between atoms: C_13  and  C_52
   10  A    between atoms: S_20  and  S_22
   11  A    between atoms: C_26  and  C_49
   12  A    between atoms: C_27  and  C_54
   13  A    between atoms: N_28  and  C_33
   14  A    between atoms: C_33  and  C_34
   15  A    between atoms: C_33  and  C_49
   16  A    between atoms: C_34  and  C_52
   17  A    between atoms: C_35  and  O_51
   18  A    between atoms: C_39  and  C_48
   19  A    between atoms: C_40  and  N_45
   20  A    between atoms: N_45  and  C_49
   21  A    between atoms: O_51  and  C_54
                            x       y       z     vdW  Elec       q    Type
                         _______ _______ _______ _____ _____    ______ ____

>  <TORSDO>
F 21

$$$$
=
 OpenBabel10272401433D

 55 58  0  0  1  0  0  0  0  0999 V2000
  190.0720  177.6010  136.3890 C   0  0  0  0  0  2  0  0  0  0  0  0
  187.4970  176.1610  136.2530 C   0  0  2  0  0  3  0  0  0  0  0  0
  187.6380  177.4410  137.0860 C   0  0  2  0  0  3  0  0  0  0  0  0
  189.8910  176.4100  135.4600 C   0  0  0  0  0  2  0  0  0  0  0  0
  188.7490  178.3480  136.5330 C   0  0  0  0  0  2  0  0  0  0  0  0
  188.8500  175.4570  136.0450 C   0  0  0  0  0  2  0  0  0  0  0  0
  186.7740  176.4440  134.9350 C   0  0  0  0  0  2  0  0  0  0  0  0
  185.8990  175.3980  134.6140 O   0  0  0  0  0  0  0  0  0  0  0  0
  184.8980  175.4280  135.5880 C   0  0  0  0  0  2  0  0  0  0  0  0
  183.5670  175.6640  134.9400 C   0  0  2  0  0  3  0  0  0  0  0  0
  183.0450  177.1750  134.7360 S   0  0  0  0  0  0  0  0  0  0  0  0
  182.7330  174.5030  134.4910 C   0  0  0  0  0  1  0  0  0  0  0  0
  180.1210  177.3200  135.0270 O   0  0  0  0  0  0  0  0  0  0  0  0
  181.3290  177.3380  135.9180 S   0  0  0  0  0  0  0  0  0  0  0  0
  181.2830  176.1380  136.8270 O   0  0  0  0  0  0  0  0  0  0  0  0
  180.9660  181.1160  139.2410 C   0  0  0  0  0  2  0  0  0  0  0  0
  181.4050  178.8710  136.8670 C   0  0  2  0  0  3  0  0  0  0  0  0
  182.9150  179.5270  139.7140 C   0  0  0  0  0  2  0  0  0  0  0  0
  180.3180  177.7280  138.6690 O   0  0  0  0  0  0  0  0  0  0  0  0
  180.9860  178.6870  138.3100 C   0  0  0  0  0  0  0  0  0  0  0  0
  180.0370  180.9880  137.0310 O   0  0  0  0  0  0  0  0  0  0  0  0
  181.8130  179.1570  140.7020 C   0  0  0  0  0  2  0  0  0  0  0  0
  181.0680  181.5760  137.7910 C   0  0  1  0  0  3  0  0  0  0  0  0
  181.4580  179.6830  139.3300 C   0  0  0  0  0  0  0  0  0  0  0  0
  181.1950  180.5680  134.9190 C   0  0  0  0  0  1  0  0  0  0  0  0
  180.5720  179.9860  136.1860 C   0  0  1  0  0  3  0  0  0  0  0  0
  181.0550  183.0650  137.6830 C   0  0  0  0  0  0  0  0  0  0  0  0
  182.2800  183.7910  137.7170 N   0  0  0  0  0  1  0  0  0  0  0  0
  179.9820  183.6840  137.4400 O   0  0  0  0  0  0  0  0  0  0  0  0
  187.8710  177.0750  138.5490 C   0  0  0  0  0  2  0  0  0  0  0  0
  188.2650  178.2470  139.3280 N   0  0  0  0  0  2  0  0  0  0  0  0
  189.0760  177.8580  140.4880 C   0  0  1  0  0  3  0  0  0  0  0  0
  188.2530  177.5220  141.7620 C   0  0  1  0  0  3  0  0  0  0  0  0
  190.1240  178.8610  142.8440 C   0  0  0  0  0  2  0  0  0  0  0  0
  191.4770  177.7590  144.6420 C   0  0  0  0  0  2  0  0  0  0  0  0
  190.1250  176.3600  143.0400 N   0  0  0  0  0  0  0  0  0  0  0  0
  190.9370  176.3700  144.2670 C   0  0  0  0  0  2  0  0  0  0  0  0
  191.5250  178.6800  143.4340 C   0  0  0  0  0  2  0  0  0  0  0  0
  189.2870  177.5740  142.9260 C   0  0  2  0  0  3  0  0  0  0  0  0
  189.3140  175.2720  143.1350 O   0  0  0  0  0  1  0  0  0  0  0  0
  186.5560  178.8910  140.6640 C   0  0  0  0  0  1  0  0  0  0  0  0
  187.0800  178.4280  141.9460 N   0  0  0  0  0  0  0  0  0  0  0  0
  185.9530  177.8510  142.7200 C   0  0  0  0  0  2  0  0  0  0  0  0
  185.0600  178.8250  143.4740 C   0  0  0  0  0  0  0  0  0  0  0  0
  183.6360  178.4330  143.7000 C   0  0  0  0  0  1  0  0  0  0  0  0
  185.5080  179.9450  144.0340 C   0  0  0  0  0  2  0  0  0  0  0  0
  190.0750  176.7510  140.1420 C   0  0  0  0  0  2  0  0  0  0  0  0
  191.4970  177.2810  140.0420 C   0  0  0  0  0  2  0  0  0  0  0  0
  192.3590  176.2260  139.3860 C   0  0  0  0  0  2  0  0  0  0  0  0
  192.5190  176.4960  137.8910 C   0  0  0  0  0  2  0  0  0  0  0  0
  194.6610  175.5200  138.3260 O   0  0  0  0  0  1  0  0  0  0  0  0
  193.7150  175.7430  137.3120 C   0  0  1  0  0  0  0  0  0  0  0  0
  193.2130  174.4020  136.8200 C   0  0  0  0  0  1  0  0  0  0  0  0
  194.2980  176.5120  136.2010 N   0  0  0  0  0  2  0  0  0  0  0  0
  195.3360  175.7390  135.5300 C   0  0  0  0  0  1  0  0  0  0  0  0
  1  5  1  0  0  0  0
  2  7  1  6  0  0  0
  2  3  1  0  0  0  0
  3 30  1  1  0  0  0
  4  6  1  0  0  0  0
  4  1  1  0  0  0  0
  5  3  1  0  0  0  0
  6  2  1  0  0  0  0
  8  7  1  0  0  0  0
  8  9  1  0  0  0  0
 10 12  1  1  0  0  0
 10  9  1  0  0  0  0
 11 10  1  0  0  0  0
 11 14  1  0  0  0  0
 13 14  2  0  0  0  0
 14 15  2  0  0  0  0
 16 24  1  0  0  0  0
 17 14  1  6  0  0  0
 17 20  1  0  0  0  0
 18 22  1  0  0  0  0
 20 19  2  0  0  0  0
 20 24  1  0  0  0  0
 21 23  1  0  0  0  0
 23 27  1  1  0  0  0
 23 16  1  0  0  0  0
 24 18  1  0  0  0  0
 24 22  1  0  0  0  0
 26 25  1  6  0  0  0
 26 17  1  0  0  0  0
 26 21  1  0  0  0  0
 27 28  1  0  0  0  0
 29 27  2  0  0  0  0
 30 31  1  0  0  0  0
 31 32  1  0  0  0  0
 32 47  1  6  0  0  0
 32 33  1  0  0  0  0
 33 42  1  1  0  0  0
 34 39  1  0  0  0  0
 34 38  1  0  0  0  0
 36 40  1  0  0  0  0
 36 37  1  0  0  0  0
 37 35  1  0  0  0  0
 38 35  1  0  0  0  0
 39 33  1  6  0  0  0
 39 36  1  0  0  0  0
 41 42  1  0  0  0  0
 42 43  1  0  0  0  0
 43 44  1  0  0  0  0
 44 45  1  0  0  0  0
 44 46  2  0  0  0  0
 48 47  1  0  0  0  0
 49 48  1  0  0  0  0
 50 49  1  0  0  0  0
 52 53  1  6  0  0  0
 52 50  1  0  0  0  0
 52 51  1  0  0  0  0
 54 52  1  0  0  0  0
 55 54  1  0  0  0  0
M  END
>  <MODEL>
8

>  <REMARK>
 VINA RESULT:      -4.9      3.427     10.935
  Name = 
  21 active torsions:
  status: ('A' for Active; 'I' for Inactive)
    1  A    between atoms: C_1  and  C_29
    2  A    between atoms: C_2  and  N_28
    3  A    between atoms: C_2  and  C_31
    4  A    between atoms: C_4  and  C_40
    5  A    between atoms: C_6  and  S_20
    6  A    between atoms: C_8  and  C_35
    7  A    between atoms: N_10  and  C_39
    8  A    between atoms: C_13  and  C_48
    9  A    between atoms: C_13  and  C_52
   10  A    between atoms: S_20  and  S_22
   11  A    between atoms: C_26  and  C_49
   12  A    between atoms: C_27  and  C_54
   13  A    between atoms: N_28  and  C_33
   14  A    between atoms: C_33  and  C_34
   15  A    between atoms: C_33  and  C_49
   16  A    between atoms: C_34  and  C_52
   17  A    between atoms: C_35  and  O_51
   18  A    between atoms: C_39  and  C_48
   19  A    between atoms: C_40  and  N_45
   20  A    between atoms: N_45  and  C_49
   21  A    between atoms: O_51  and  C_54
                            x       y       z     vdW  Elec       q    Type
                         _______ _______ _______ _____ _____    ______ ____

>  <TORSDO>
F 21

$$$$
=
 OpenBabel10272401433D

 55 58  0  0  1  0  0  0  0  0999 V2000
  188.0690  178.0560  143.1180 C   0  0  0  0  0  2  0  0  0  0  0  0
  189.2180  177.1370  140.5580 C   0  0  2  0  0  3  0  0  0  0  0  0
  188.1980  178.2810  140.5950 C   0  0  2  0  0  3  0  0  0  0  0  0
  189.1780  177.0150  143.0890 C   0  0  0  0  0  2  0  0  0  0  0  0
  188.2310  179.0160  141.9440 C   0  0  0  0  0  2  0  0  0  0  0  0
  189.0990  176.2190  141.7880 C   0  0  0  0  0  2  0  0  0  0  0  0
  190.6370  177.6760  140.3630 C   0  0  0  0  0  2  0  0  0  0  0  0
  191.4110  176.7800  139.6150 O   0  0  0  0  0  0  0  0  0  0  0  0
  192.7120  177.2890  139.6410 C   0  0  0  0  0  2  0  0  0  0  0  0
  193.5940  176.4710  138.7470 C   0  0  2  0  0  3  0  0  0  0  0  0
  193.3800  176.5360  137.1510 S   0  0  0  0  0  0  0  0  0  0  0  0
  194.6630  175.6020  139.3380 C   0  0  0  0  0  1  0  0  0  0  0  0
  191.9330  174.0290  137.6720 O   0  0  0  0  0  0  0  0  0  0  0  0
  192.7910  174.6120  136.5880 S   0  0  0  0  0  0  0  0  0  0  0  0
  191.9720  174.7340  135.3290 O   0  0  0  0  0  0  0  0  0  0  0  0
  197.2440  172.5990  135.3370 C   0  0  0  0  0  2  0  0  0  0  0  0
  194.2580  173.5970  136.3140 C   0  0  2  0  0  3  0  0  0  0  0  0
  197.2930  173.8850  137.5480 C   0  0  0  0  0  2  0  0  0  0  0  0
  195.3430  175.5330  135.4130 O   0  0  0  0  0  0  0  0  0  0  0  0
  195.4610  174.4120  135.8860 C   0  0  0  0  0  0  0  0  0  0  0  0
  195.0630  171.9910  134.5390 O   0  0  0  0  0  0  0  0  0  0  0  0
  197.9280  174.8020  136.5060 C   0  0  0  0  0  2  0  0  0  0  0  0
  196.1050  171.5890  135.4000 C   0  0  1  0  0  3  0  0  0  0  0  0
  196.8320  173.8410  136.1050 C   0  0  0  0  0  0  0  0  0  0  0  0
  193.1020  171.3270  135.8400 C   0  0  0  0  0  1  0  0  0  0  0  0
  193.9660  172.4640  135.2990 C   0  0  1  0  0  3  0  0  0  0  0  0
  196.5770  170.2060  135.0880 C   0  0  0  0  0  0  0  0  0  0  0  0
  197.9560  169.8780  135.2260 N   0  0  0  0  0  1  0  0  0  0  0  0
  195.7520  169.2890  134.8210 O   0  0  0  0  0  0  0  0  0  0  0  0
  186.8090  177.7360  140.2730 C   0  0  0  0  0  2  0  0  0  0  0  0
  185.9900  178.7450  139.6050 N   0  0  0  0  0  2  0  0  0  0  0  0
  185.3580  178.1940  138.4000 C   0  0  1  0  0  3  0  0  0  0  0  0
  183.8870  178.6450  138.1840 C   0  0  1  0  0  3  0  0  0  0  0  0
  183.8850  176.1190  138.4720 C   0  0  0  0  0  2  0  0  0  0  0  0
  182.1310  174.7950  137.2670 C   0  0  0  0  0  2  0  0  0  0  0  0
  182.6800  177.1380  136.5220 N   0  0  0  0  0  0  0  0  0  0  0  0
  181.7740  175.9900  136.3700 C   0  0  0  0  0  2  0  0  0  0  0  0
  183.5900  174.8360  137.6900 C   0  0  0  0  0  2  0  0  0  0  0  0
  183.1010  177.3240  137.9290 C   0  0  2  0  0  3  0  0  0  0  0  0
  181.9730  178.2310  136.1260 O   0  0  0  0  0  1  0  0  0  0  0  0
  182.7190  180.6830  138.8510 C   0  0  0  0  0  1  0  0  0  0  0  0
  183.3610  179.4580  139.3220 N   0  0  0  0  0  0  0  0  0  0  0  0
  182.4050  178.7530  140.2110 C   0  0  0  0  0  2  0  0  0  0  0  0
  182.6940  178.7900  141.7050 C   0  0  0  0  0  0  0  0  0  0  0  0
  181.5490  179.0540  142.6280 C   0  0  0  0  0  1  0  0  0  0  0  0
  183.8790  178.4920  142.2290 C   0  0  0  0  0  2  0  0  0  0  0  0
  186.2150  178.4150  137.1510 C   0  0  0  0  0  2  0  0  0  0  0  0
  186.2690  177.1740  136.2730 C   0  0  0  0  0  2  0  0  0  0  0  0
  187.5030  176.3800  136.6380 C   0  0  0  0  0  2  0  0  0  0  0  0
  187.1840  174.8920  136.7680 C   0  0  0  0  0  2  0  0  0  0  0  0
  186.1400  174.2300  134.7190 O   0  0  0  0  0  1  0  0  0  0  0  0
  187.3470  174.1670  135.4340 C   0  0  1  0  0  0  0  0  0  0  0  0
  188.4110  174.9000  134.6450 C   0  0  0  0  0  1  0  0  0  0  0  0
  187.7520  172.7720  135.6710 N   0  0  0  0  0  2  0  0  0  0  0  0
  189.1960  172.6800  135.8510 C   0  0  0  0  0  1  0  0  0  0  0  0
  2  7  1  1  0  0  0
  2  3  1  0  0  0  0
  2  6  1  0  0  0  0
  3 30  1  1  0  0  0
  3  5  1  0  0  0  0
  4  1  1  0  0  0  0
  5  1  1  0  0  0  0
  6  4  1  0  0  0  0
  8  9  1  0  0  0  0
  8  7  1  0  0  0  0
 10 12  1  1  0  0  0
 10  9  1  0  0  0  0
 11 10  1  0  0  0  0
 14 11  1  0  0  0  0
 14 13  2  0  0  0  0
 15 14  2  0  0  0  0
 16 23  1  0  0  0  0
 16 24  1  0  0  0  0
 17 14  1  6  0  0  0
 19 20  2  0  0  0  0
 20 24  1  0  0  0  0
 20 17  1  0  0  0  0
 21 26  1  0  0  0  0
 21 23  1  0  0  0  0
 22 18  1  0  0  0  0
 23 27  1  6  0  0  0
 24 22  1  0  0  0  0
 24 18  1  0  0  0  0
 26 25  1  1  0  0  0
 26 17  1  0  0  0  0
 27 28  1  0  0  0  0
 29 27  2  0  0  0  0
 31 30  1  0  0  0  0
 32 47  1  6  0  0  0
 32 31  1  0  0  0  0
 33 32  1  0  0  0  0
 33 42  1  1  0  0  0
 35 38  1  0  0  0  0
 36 39  1  0  0  0  0
 37 36  1  0  0  0  0
 37 35  1  0  0  0  0
 38 34  1  0  0  0  0
 39 33  1  6  0  0  0
 39 34  1  0  0  0  0
 40 36  1  0  0  0  0
 41 42  1  0  0  0  0
 42 43  1  0  0  0  0
 43 44  1  0  0  0  0
 44 46  2  0  0  0  0
 44 45  1  0  0  0  0
 48 49  1  0  0  0  0
 48 47  1  0  0  0  0
 49 50  1  0  0  0  0
 51 52  1  0  0  0  0
 52 53  1  6  0  0  0
 52 54  1  0  0  0  0
 52 50  1  0  0  0  0
 54 55  1  0  0  0  0
M  END
>  <MODEL>
9

>  <REMARK>
 VINA RESULT:      -4.7      1.768      2.470
  Name = 
  21 active torsions:
  status: ('A' for Active; 'I' for Inactive)
    1  A    between atoms: C_1  and  C_29
    2  A    between atoms: C_2  and  N_28
    3  A    between atoms: C_2  and  C_31
    4  A    between atoms: C_4  and  C_40
    5  A    between atoms: C_6  and  S_20
    6  A    between atoms: C_8  and  C_35
    7  A    between atoms: N_10  and  C_39
    8  A    between atoms: C_13  and  C_48
    9  A    between atoms: C_13  and  C_52
   10  A    between atoms: S_20  and  S_22
   11  A    between atoms: C_26  and  C_49
   12  A    between atoms: C_27  and  C_54
   13  A    between atoms: N_28  and  C_33
   14  A    between atoms: C_33  and  C_34
   15  A    between atoms: C_33  and  C_49
   16  A    between atoms: C_34  and  C_52
   17  A    between atoms: C_35  and  O_51
   18  A    between atoms: C_39  and  C_48
   19  A    between atoms: C_40  and  N_45
   20  A    between atoms: N_45  and  C_49
   21  A    between atoms: O_51  and  C_54
                            x       y       z     vdW  Elec       q    Type
                         _______ _______ _______ _____ _____    ______ ____

>  <TORSDO>
F 21

$$$$
