=
 OpenBabel10272401303D

 55 59  0  0  1  0  0  0  0  0999 V2000
  186.5050  177.2830  137.2630 C   0  0  1  0  0  3  0  0  0  0  0  0
  188.3820  177.2610  141.0100 C   0  0  0  0  0  2  0  0  0  0  0  0
  181.0750  178.9010  140.5540 C   0  0  0  0  0  2  0  0  0  0  0  0
  188.9280  177.9470  139.7680 C   0  0  0  0  0  2  0  0  0  0  0  0
  186.5530  180.0520  141.5440 O   0  0  0  0  0  0  0  0  0  0  0  0
  185.4200  177.9940  141.9530 C   0  0  2  0  0  3  0  0  0  0  0  0
  185.3210  177.4760  143.2490 O   0  0  0  0  0  1  0  0  0  0  0  0
  188.7420  176.6250  136.4770 C   0  0  0  0  0  0  0  0  0  0  0  0
  186.6520  178.8680  141.8400 C   0  0  0  0  0  0  0  0  0  0  0  0
  189.5040  176.9130  138.8130 C   0  0  1  0  0  3  0  0  0  0  0  0
  185.3890  178.2690  136.9680 C   0  0  0  0  0  2  0  0  0  0  0  0
  189.5700  177.4690  137.3970 C   0  0  0  0  0  2  0  0  0  0  0  0
  181.7970  176.7040  139.4450 C   0  0  2  0  0  3  0  0  0  0  0  0
  184.5750  178.5440  139.1740 C   0  0  0  0  0  3  0  0  0  0  0  0
  182.3970  179.3750  139.9610 C   0  0  0  0  0  2  0  0  0  0  0  0
  184.1360  178.7530  141.6140 C   0  0  0  0  0  2  0  0  0  0  0  0
  183.0490  176.9200  140.3000 C   0  0  0  0  0  2  0  0  0  0  0  0
  186.3340  176.0580  136.3970 C   0  0  0  0  0  2  0  0  0  0  0  0
  187.3850  177.0960  136.0420 C   0  0  1  0  0  3  0  0  0  0  0  0
  188.0300  178.3000  142.0630 C   0  0  1  0  0  3  0  0  0  0  0  0
  180.6270  177.5810  139.9230 C   0  0  0  0  0  2  0  0  0  0  0  0
  184.3610  178.1530  137.9710 N   0  0  0  0  0  0  0  0  0  0  0  0
  183.5370  178.3860  140.2480 C   0  0  2  0  0  0  0  0  0  0  0  0
  189.1930  175.5700  136.0560 O   0  0  0  0  0  0  0  0  0  0  0  0
  181.4350  175.2280  139.3430 C   0  0  0  0  0  3  0  0  0  0  0  0
  181.5390  174.7480  137.9140 C   0  0  0  0  0  1  0  0  0  0  0  0
  180.0510  174.9340  139.8940 C   0  0  0  0  0  1  0  0  0  0  0  0
  188.1390  177.7380  143.3470 O   0  0  0  0  0  0  0  0  0  0  0  0
  190.0510  179.0100  143.2220 F   0  0  0  0  0  0  0  0  0  0  0  0
  190.2210  176.7580  143.4440 F   0  0  0  0  0  0  0  0  0  0  0  0
  189.4840  178.0250  145.2790 C   0  0  0  0  0  1  0  0  0  0  0  0
  189.4730  177.8770  143.7750 C   0  0  0  0  0  0  0  0  0  0  0  0
  190.8560  176.3660  139.2950 C   0  0  0  0  0  2  0  0  0  0  0  0
  191.6570  175.6520  138.2050 C   0  0  0  0  0  2  0  0  0  0  0  0
  193.5710  176.7930  139.1070 O   0  0  0  0  0  1  0  0  0  0  0  0
  192.9800  176.3530  137.9220 C   0  0  1  0  0  3  0  0  0  0  0  0
  193.9270  175.4470  137.1360 C   0  0  0  0  0  2  0  0  0  0  0  0
  194.7530  174.5040  138.0150 C   0  0  2  0  0  3  0  0  0  0  0  0
  198.3560  175.3250  138.5780 N   0  0  0  0  0  1  0  0  0  0  0  0
  196.1800  174.7940  137.8770 N   0  0  0  0  0  0  0  0  0  0  0  0
  196.9890  175.0540  138.8570 C   0  0  0  0  0  0  0  0  0  0  0  0
  196.5360  175.0690  140.2130 N   0  0  0  0  0  1  0  0  0  0  0  0
  194.4890  173.1640  137.7020 O   0  0  0  0  0  0  0  0  0  0  0  0
  193.6910  171.3900  135.3090 C   0  0  2  0  0  3  0  0  0  0  0  0
  195.3600  172.8270  136.6610 C   0  0  1  0  0  3  0  0  0  0  0  0
  193.4890  168.3440  137.3380 C   0  0  0  0  0  2  0  0  0  0  0  0
  197.3970  171.5970  137.2480 C   0  0  0  0  0  2  0  0  0  0  0  0
  196.0930  171.5500  136.9760 C   0  0  0  0  0  0  0  0  0  0  0  0
  192.2270  171.7890  135.2460 C   0  0  0  0  0  1  0  0  0  0  0  0
  194.9820  168.1710  137.6560 C   0  0  0  0  0  2  0  0  0  0  0  0
  195.5500  169.4280  137.9420 O   0  0  0  0  0  0  0  0  0  0  0  0
  193.9110  170.4170  136.4800 C   0  0  2  0  0  3  0  0  0  0  0  0
  195.4140  170.2260  136.7860 C   0  0  1  0  0  3  0  0  0  0  0  0
  193.3260  169.1610  136.1970 O   0  0  0  0  0  0  0  0  0  0  0  0
  194.5640  172.6580  135.3640 C   0  0  0  0  0  2  0  0  0  0  0  0
  1 18  1  6  0  0  0
  2 20  1  0  0  0  0
  4  2  1  0  0  0  0
  5  9  2  0  0  0  0
  6  7  1  1  0  0  0
  8 12  1  0  0  0  0
  9  6  1  0  0  0  0
  9 20  1  0  0  0  0
 10 33  1  1  0  0  0
 10  4  1  0  0  0  0
 11  1  1  0  0  0  0
 11 22  1  0  0  0  0
 12 10  1  0  0  0  0
 13 25  1  1  0  0  0
 13 21  1  0  0  0  0
 13 17  1  0  0  0  0
 15 23  1  0  0  0  0
 15  3  1  0  0  0  0
 16  6  1  0  0  0  0
 19 18  1  6  0  0  0
 19  8  1  0  0  0  0
 19  1  1  0  0  0  0
 20 28  1  1  0  0  0
 21  3  1  0  0  0  0
 22 14  2  0  0  0  0
 23 14  1  6  0  0  0
 23 17  1  0  0  0  0
 23 16  1  0  0  0  0
 24  8  2  0  0  0  0
 25 27  1  0  0  0  0
 26 25  1  0  0  0  0
 28 32  1  0  0  0  0
 29 32  1  0  0  0  0
 30 32  1  0  0  0  0
 32 31  1  0  0  0  0
 34 33  1  0  0  0  0
 36 34  1  0  0  0  0
 36 35  1  1  0  0  0
 37 36  1  0  0  0  0
 38 37  1  6  0  0  0
 39 41  1  0  0  0  0
 40 38  1  0  0  0  0
 40 41  2  0  0  0  0
 41 42  1  0  0  0  0
 43 38  1  0  0  0  0
 44 49  1  1  0  0  0
 44 55  1  0  0  0  0
 44 52  1  0  0  0  0
 45 48  1  0  0  0  0
 45 43  1  1  0  0  0
 46 50  1  0  0  0  0
 48 47  2  0  0  0  0
 50 51  1  0  0  0  0
 52 54  1  6  0  0  0
 52 53  1  0  0  0  0
 53 48  1  1  0  0  0
 53 51  1  0  0  0  0
 54 46  1  0  0  0  0
 55 45  1  0  0  0  0
M  END
>  <MODEL>
1

>  <REMARK>
 VINA RESULT:      -7.7      0.000      0.000
  Name = 
  11 active torsions:
  status: ('A' for Active; 'I' for Inactive)
    1  A    between atoms: C_6  and  O_46
    2  A    between atoms: N_8  and  C_22
    3  A    between atoms: C_10  and  C_32
    4  A    between atoms: O_19  and  C_40
    5  A    between atoms: O_19  and  C_45
    6  A    between atoms: C_22  and  C_35
    7  A    between atoms: C_22  and  O_46
    8  A    between atoms: C_27  and  C_54
    9  A    between atoms: C_35  and  C_43
   10  A    between atoms: C_43  and  C_51
   11  A    between atoms: C_51  and  C_54
                            x       y       z     vdW  Elec       q    Type
                         _______ _______ _______ _____ _____    ______ ____

>  <TORSDO>
F 11

$$$$
=
 OpenBabel10272401303D

 55 59  0  0  1  0  0  0  0  0999 V2000
  186.4280  177.4840  137.3610 C   0  0  1  0  0  3  0  0  0  0  0  0
  188.3010  177.3490  141.1060 C   0  0  0  0  0  2  0  0  0  0  0  0
  180.9760  178.9190  140.7010 C   0  0  0  0  0  2  0  0  0  0  0  0
  188.8400  178.0860  139.8910 C   0  0  0  0  0  2  0  0  0  0  0  0
  186.4390  180.0970  141.7390 O   0  0  0  0  0  0  0  0  0  0  0  0
  185.3300  178.0120  142.0720 C   0  0  2  0  0  3  0  0  0  0  0  0
  185.2370  177.4470  143.3480 O   0  0  0  0  0  1  0  0  0  0  0  0
  188.6730  176.8810  136.5540 C   0  0  0  0  0  0  0  0  0  0  0  0
  186.5520  178.9040  141.9920 C   0  0  0  0  0  0  0  0  0  0  0  0
  189.4290  177.0930  138.9000 C   0  0  1  0  0  3  0  0  0  0  0  0
  185.3010  178.4680  137.1010 C   0  0  0  0  0  2  0  0  0  0  0  0
  189.4900  177.7000  137.5050 C   0  0  0  0  0  2  0  0  0  0  0  0
  181.7250  176.7720  139.5140 C   0  0  2  0  0  3  0  0  0  0  0  0
  184.4810  178.6530  139.3140 C   0  0  0  0  0  3  0  0  0  0  0  0
  182.2940  179.4300  140.1280 C   0  0  0  0  0  2  0  0  0  0  0  0
  184.0380  178.7680  141.7590 C   0  0  0  0  0  2  0  0  0  0  0  0
  182.9730  176.9720  140.3790 C   0  0  0  0  0  2  0  0  0  0  0  0
  186.2710  176.2900  136.4510 C   0  0  0  0  0  2  0  0  0  0  0  0
  187.3110  177.3520  136.1350 C   0  0  1  0  0  3  0  0  0  0  0  0
  187.9360  178.3450  142.1960 C   0  0  1  0  0  3  0  0  0  0  0  0
  180.5440  177.6180  140.0230 C   0  0  0  0  0  2  0  0  0  0  0  0
  184.2730  178.3030  138.0970 N   0  0  0  0  0  0  0  0  0  0  0  0
  183.4440  178.4450  140.3800 C   0  0  2  0  0  0  0  0  0  0  0  0
  189.1360  175.8470  136.0960 O   0  0  0  0  0  0  0  0  0  0  0  0
  181.3800  175.2970  139.3590 C   0  0  0  0  0  3  0  0  0  0  0  0
  181.1820  174.9430  137.9030 C   0  0  0  0  0  1  0  0  0  0  0  0
  180.1540  174.9030  140.1640 C   0  0  0  0  0  1  0  0  0  0  0  0
  188.0500  177.7380  143.4590 O   0  0  0  0  0  0  0  0  0  0  0  0
  189.3080  178.4440  145.2510 F   0  0  0  0  0  0  0  0  0  0  0  0
  190.0220  178.8870  143.1430 F   0  0  0  0  0  0  0  0  0  0  0  0
  190.1180  176.6770  143.9310 C   0  0  0  0  0  1  0  0  0  0  0  0
  189.3500  177.9780  143.9450 C   0  0  0  0  0  0  0  0  0  0  0  0
  190.7870  176.5450  139.3640 C   0  0  0  0  0  2  0  0  0  0  0  0
  191.8690  176.5800  138.2830 C   0  0  0  0  0  2  0  0  0  0  0  0
  191.1840  174.3080  137.8960 O   0  0  0  0  0  1  0  0  0  0  0  0
  192.2740  175.1800  137.8400 C   0  0  1  0  0  3  0  0  0  0  0  0
  192.8910  175.2010  136.4430 C   0  0  0  0  0  2  0  0  0  0  0  0
  194.3760  175.5730  136.4270 C   0  0  2  0  0  3  0  0  0  0  0  0
  195.8280  178.4230  134.4930 N   0  0  0  0  0  1  0  0  0  0  0  0
  194.5980  176.7620  135.6040 N   0  0  0  0  0  0  0  0  0  0  0  0
  195.7580  177.2560  135.2990 C   0  0  0  0  0  0  0  0  0  0  0  0
  196.9690  176.6460  135.7510 N   0  0  0  0  0  1  0  0  0  0  0  0
  195.1590  174.5040  135.9700 O   0  0  0  0  0  0  0  0  0  0  0  0
  197.1440  173.2730  137.9830 C   0  0  2  0  0  3  0  0  0  0  0  0
  194.8540  173.4160  136.7950 C   0  0  1  0  0  3  0  0  0  0  0  0
  199.2760  171.8490  135.3630 C   0  0  0  0  0  2  0  0  0  0  0  0
  194.2300  171.3120  135.7020 C   0  0  0  0  0  2  0  0  0  0  0  0
  195.2070  172.1200  136.1140 C   0  0  0  0  0  0  0  0  0  0  0  0
  197.9060  174.5440  138.3130 C   0  0  0  0  0  1  0  0  0  0  0  0
  198.3160  170.7740  134.8340 C   0  0  0  0  0  2  0  0  0  0  0  0
  197.0100  171.2980  134.7700 O   0  0  0  0  0  0  0  0  0  0  0  0
  197.5850  172.7480  136.6060 C   0  0  2  0  0  3  0  0  0  0  0  0
  196.6320  171.6500  136.0830 C   0  0  1  0  0  3  0  0  0  0  0  0
  198.9020  172.2360  136.6690 O   0  0  0  0  0  0  0  0  0  0  0  0
  195.6310  173.5370  138.1080 C   0  0  0  0  0  2  0  0  0  0  0  0
  1 18  1  6  0  0  0
  2 20  1  0  0  0  0
  4  2  1  0  0  0  0
  5  9  2  0  0  0  0
  6  7  1  1  0  0  0
  8 12  1  0  0  0  0
  9  6  1  0  0  0  0
  9 20  1  0  0  0  0
 10 33  1  1  0  0  0
 10  4  1  0  0  0  0
 11  1  1  0  0  0  0
 11 22  1  0  0  0  0
 12 10  1  0  0  0  0
 13 25  1  1  0  0  0
 13 21  1  0  0  0  0
 13 17  1  0  0  0  0
 15 23  1  0  0  0  0
 15  3  1  0  0  0  0
 16  6  1  0  0  0  0
 17 23  1  0  0  0  0
 19 18  1  6  0  0  0
 19  8  1  0  0  0  0
 19  1  1  0  0  0  0
 20 28  1  1  0  0  0
 21  3  1  0  0  0  0
 22 14  2  0  0  0  0
 23 14  1  6  0  0  0
 23 16  1  0  0  0  0
 24  8  2  0  0  0  0
 25 27  1  0  0  0  0
 26 25  1  0  0  0  0
 28 32  1  0  0  0  0
 30 32  1  0  0  0  0
 31 32  1  0  0  0  0
 32 29  1  0  0  0  0
 34 33  1  0  0  0  0
 36 35  1  6  0  0  0
 36 34  1  0  0  0  0
 37 36  1  0  0  0  0
 38 37  1  6  0  0  0
 39 41  1  0  0  0  0
 40 38  1  0  0  0  0
 41 40  2  0  0  0  0
 41 42  1  0  0  0  0
 43 38  1  0  0  0  0
 44 55  1  0  0  0  0
 44 49  1  6  0  0  0
 45 43  1  6  0  0  0
 45 55  1  0  0  0  0
 46 54  1  0  0  0  0
 47 48  2  0  0  0  0
 48 45  1  0  0  0  0
 50 46  1  0  0  0  0
 51 50  1  0  0  0  0
 52 54  1  1  0  0  0
 52 44  1  0  0  0  0
 53 51  1  6  0  0  0
 53 48  1  0  0  0  0
 53 52  1  0  0  0  0
M  END
>  <MODEL>
2

>  <REMARK>
 VINA RESULT:      -7.3      1.664      2.625
  Name = 
  11 active torsions:
  status: ('A' for Active; 'I' for Inactive)
    1  A    between atoms: C_6  and  O_46
    2  A    between atoms: N_8  and  C_22
    3  A    between atoms: C_10  and  C_32
    4  A    between atoms: O_19  and  C_40
    5  A    between atoms: O_19  and  C_45
    6  A    between atoms: C_22  and  C_35
    7  A    between atoms: C_22  and  O_46
    8  A    between atoms: C_27  and  C_54
    9  A    between atoms: C_35  and  C_43
   10  A    between atoms: C_43  and  C_51
   11  A    between atoms: C_51  and  C_54
                            x       y       z     vdW  Elec       q    Type
                         _______ _______ _______ _____ _____    ______ ____

>  <TORSDO>
F 11

$$$$
=
 OpenBabel10272401303D

 55 59  0  0  1  0  0  0  0  0999 V2000
  185.9660  175.5230  135.6630 C   0  0  1  0  0  3  0  0  0  0  0  0
  184.1170  177.2510  139.0030 C   0  0  0  0  0  2  0  0  0  0  0  0
  180.1080  172.8610  134.4270 C   0  0  0  0  0  2  0  0  0  0  0  0
  185.0000  177.9970  138.0160 C   0  0  0  0  0  2  0  0  0  0  0  0
  181.5580  177.7880  136.8620 O   0  0  0  0  0  0  0  0  0  0  0  0
  181.6230  175.6200  137.8540 C   0  0  2  0  0  3  0  0  0  0  0  0
  180.8440  175.3240  138.9780 O   0  0  0  0  0  1  0  0  0  0  0  0
  187.9520  176.6790  136.5440 C   0  0  0  0  0  0  0  0  0  0  0  0
  181.9210  177.1050  137.8120 C   0  0  0  0  0  0  0  0  0  0  0  0
  186.4620  177.6520  138.2620 C   0  0  1  0  0  3  0  0  0  0  0  0
  185.1900  175.3200  134.3740 C   0  0  0  0  0  2  0  0  0  0  0  0
  187.2970  177.9380  137.0220 C   0  0  0  0  0  2  0  0  0  0  0  0
  182.2800  171.8410  135.3330 C   0  0  2  0  0  3  0  0  0  0  0  0
  183.0240  175.1000  135.3040 C   0  0  0  0  0  3  0  0  0  0  0  0
  180.9880  174.1040  134.3460 C   0  0  0  0  0  2  0  0  0  0  0  0
  180.8990  175.1370  136.5970 C   0  0  0  0  0  2  0  0  0  0  0  0
  182.1650  172.9940  136.3340 C   0  0  0  0  0  2  0  0  0  0  0  0
  187.0780  174.5050  135.7450 C   0  0  0  0  0  2  0  0  0  0  0  0
  187.3930  175.9410  135.3630 C   0  0  1  0  0  3  0  0  0  0  0  0
  182.6920  177.7750  138.9200 C   0  0  1  0  0  3  0  0  0  0  0  0
  180.9510  171.5950  134.5970 C   0  0  0  0  0  2  0  0  0  0  0  0
  183.9890  174.5710  134.6450 N   0  0  0  0  0  0  0  0  0  0  0  0
  181.7830  174.3230  135.6420 C   0  0  2  0  0  0  0  0  0  0  0  0
  188.9630  176.2760  137.1010 O   0  0  0  0  0  0  0  0  0  0  0  0
  182.8420  170.5850  135.9850 C   0  0  0  0  0  3  0  0  0  0  0  0
  184.2560  170.8170  136.4640 C   0  0  0  0  0  1  0  0  0  0  0  0
  182.7940  169.3820  135.0600 C   0  0  0  0  0  1  0  0  0  0  0  0
  182.0440  177.6020  140.1560 O   0  0  0  0  0  0  0  0  0  0  0  0
  181.8710  179.8400  139.6570 F   0  0  0  0  0  0  0  0  0  0  0  0
  181.8670  179.1770  141.8270 F   0  0  0  0  0  0  0  0  0  0  0  0
  179.9830  178.7240  140.4990 C   0  0  0  0  0  1  0  0  0  0  0  0
  181.4900  178.8390  140.5370 C   0  0  0  0  0  0  0  0  0  0  0  0
  187.0180  178.3400  139.5180 C   0  0  0  0  0  2  0  0  0  0  0  0
  188.5190  178.1310  139.7230 C   0  0  0  0  0  2  0  0  0  0  0  0
  190.2040  177.5320  141.3300 O   0  0  0  0  0  1  0  0  0  0  0  0
  188.8280  177.5390  141.0920 C   0  0  1  0  0  3  0  0  0  0  0  0
  188.0820  178.2860  142.1970 C   0  0  0  0  0  2  0  0  0  0  0  0
  187.4830  177.3710  143.2680 C   0  0  2  0  0  3  0  0  0  0  0  0
  184.2510  179.0150  144.1760 N   0  0  0  0  0  1  0  0  0  0  0  0
  186.3720  178.0370  143.9480 N   0  0  0  0  0  0  0  0  0  0  0  0
  185.2440  178.3640  143.3960 C   0  0  0  0  0  0  0  0  0  0  0  0
  184.9770  178.0780  142.0210 N   0  0  0  0  0  1  0  0  0  0  0  0
  188.4580  176.9700  144.1910 O   0  0  0  0  0  0  0  0  0  0  0  0
  191.1590  178.2640  144.9230 C   0  0  2  0  0  3  0  0  0  0  0  0
  188.5930  178.0250  145.1000 C   0  0  1  0  0  3  0  0  0  0  0  0
  192.3290  175.3240  146.7740 C   0  0  0  0  0  2  0  0  0  0  0  0
  187.8420  177.6340  147.4010 C   0  0  0  0  0  2  0  0  0  0  0  0
  188.8100  177.4980  146.4940 C   0  0  0  0  0  0  0  0  0  0  0  0
  191.8490  178.0530  143.5870 C   0  0  0  0  0  1  0  0  0  0  0  0
  191.3630  175.3940  147.9660 C   0  0  0  0  0  2  0  0  0  0  0  0
  190.0760  175.7380  147.5090 O   0  0  0  0  0  0  0  0  0  0  0  0
  191.1220  176.9370  145.7000 C   0  0  2  0  0  3  0  0  0  0  0  0
  190.1660  177.0130  146.9120 C   0  0  1  0  0  3  0  0  0  0  0  0
  192.4170  176.5850  146.1440 O   0  0  0  0  0  0  0  0  0  0  0  0
  189.7780  178.9030  144.6900 C   0  0  0  0  0  2  0  0  0  0  0  0
  1 11  1  6  0  0  0
  1 18  1  0  0  0  0
  3 21  1  0  0  0  0
  4 10  1  0  0  0  0
  4  2  1  0  0  0  0
  5  9  2  0  0  0  0
  6  7  1  1  0  0  0
  8 12  1  0  0  0  0
  8 24  2  0  0  0  0
  9  6  1  0  0  0  0
  9 20  1  0  0  0  0
 10 33  1  1  0  0  0
 11 22  1  0  0  0  0
 12 10  1  0  0  0  0
 13 25  1  1  0  0  0
 13 17  1  0  0  0  0
 14 23  1  0  0  0  0
 15  3  1  0  0  0  0
 16  6  1  0  0  0  0
 19  1  1  0  0  0  0
 19 18  1  1  0  0  0
 19  8  1  0  0  0  0
 20  2  1  0  0  0  0
 20 28  1  1  0  0  0
 21 13  1  0  0  0  0
 22 14  2  0  0  0  0
 23 15  1  6  0  0  0
 23 17  1  0  0  0  0
 23 16  1  0  0  0  0
 25 26  1  0  0  0  0
 27 25  1  0  0  0  0
 28 32  1  0  0  0  0
 29 32  1  0  0  0  0
 31 32  1  0  0  0  0
 32 30  1  0  0  0  0
 33 34  1  0  0  0  0
 34 36  1  0  0  0  0
 36 35  1  1  0  0  0
 36 37  1  0  0  0  0
 38 37  1  6  0  0  0
 38 40  1  0  0  0  0
 38 43  1  0  0  0  0
 41 40  2  0  0  0  0
 41 39  1  0  0  0  0
 42 41  1  0  0  0  0
 44 49  1  6  0  0  0
 44 52  1  0  0  0  0
 45 43  1  6  0  0  0
 45 48  1  0  0  0  0
 46 50  1  0  0  0  0
 48 47  2  0  0  0  0
 51 50  1  0  0  0  0
 52 54  1  1  0  0  0
 52 53  1  0  0  0  0
 53 48  1  6  0  0  0
 53 51  1  0  0  0  0
 54 46  1  0  0  0  0
 55 44  1  0  0  0  0
 55 45  1  0  0  0  0
M  END
>  <MODEL>
3

>  <REMARK>
 VINA RESULT:      -6.9      5.841      8.698
  Name = 
  11 active torsions:
  status: ('A' for Active; 'I' for Inactive)
    1  A    between atoms: C_6  and  O_46
    2  A    between atoms: N_8  and  C_22
    3  A    between atoms: C_10  and  C_32
    4  A    between atoms: O_19  and  C_40
    5  A    between atoms: O_19  and  C_45
    6  A    between atoms: C_22  and  C_35
    7  A    between atoms: C_22  and  O_46
    8  A    between atoms: C_27  and  C_54
    9  A    between atoms: C_35  and  C_43
   10  A    between atoms: C_43  and  C_51
   11  A    between atoms: C_51  and  C_54
                            x       y       z     vdW  Elec       q    Type
                         _______ _______ _______ _____ _____    ______ ____

>  <TORSDO>
F 11

$$$$
=
 OpenBabel10272401303D

 55 59  0  0  1  0  0  0  0  0999 V2000
  186.7120  177.6060  137.1070 C   0  0  1  0  0  3  0  0  0  0  0  0
  188.2670  177.3800  140.9910 C   0  0  0  0  0  2  0  0  0  0  0  0
  181.0300  179.0990  140.0100 C   0  0  0  0  0  2  0  0  0  0  0  0
  188.9180  178.1240  139.8360 C   0  0  0  0  0  2  0  0  0  0  0  0
  186.4100  180.1550  141.5130 O   0  0  0  0  0  0  0  0  0  0  0  0
  185.2390  178.0880  141.7200 C   0  0  2  0  0  3  0  0  0  0  0  0
  185.0310  177.5060  142.9750 O   0  0  0  0  0  1  0  0  0  0  0  0
  189.0040  176.9720  136.4780 C   0  0  0  0  0  0  0  0  0  0  0  0
  186.4800  178.9570  141.7550 C   0  0  0  0  0  0  0  0  0  0  0  0
  189.5690  177.1350  138.8810 C   0  0  1  0  0  3  0  0  0  0  0  0
  185.6280  178.6160  136.7710 C   0  0  0  0  0  2  0  0  0  0  0  0
  189.7550  177.7610  137.5060 C   0  0  0  0  0  2  0  0  0  0  0  0
  181.8350  176.9560  138.8550 C   0  0  2  0  0  3  0  0  0  0  0  0
  184.6330  178.7850  138.9120 C   0  0  0  0  0  3  0  0  0  0  0  0
  182.4000  179.5930  139.5560 C   0  0  0  0  0  2  0  0  0  0  0  0
  183.9910  178.8730  141.3140 C   0  0  0  0  0  2  0  0  0  0  0  0
  183.0110  177.1190  139.8220 C   0  0  0  0  0  2  0  0  0  0  0  0
  186.6090  176.4290  136.1680 C   0  0  0  0  0  2  0  0  0  0  0  0
  187.6900  177.4750  135.9560 C   0  0  1  0  0  3  0  0  0  0  0  0
  187.8320  178.3680  142.0630 C   0  0  1  0  0  3  0  0  0  0  0  0
  180.6320  177.8170  139.2780 C   0  0  0  0  0  2  0  0  0  0  0  0
  184.5190  178.4570  137.6770 N   0  0  0  0  0  0  0  0  0  0  0  0
  183.5080  178.5810  139.8860 C   0  0  2  0  0  0  0  0  0  0  0  0
  189.4850  175.9350  136.0430 O   0  0  0  0  0  0  0  0  0  0  0  0
  181.4770  175.4900  138.6480 C   0  0  0  0  0  3  0  0  0  0  0  0
  181.6000  175.1090  137.1910 C   0  0  0  0  0  1  0  0  0  0  0  0
  180.0870  175.1580  139.1600 C   0  0  0  0  0  1  0  0  0  0  0  0
  187.8310  177.7410  143.3210 O   0  0  0  0  0  0  0  0  0  0  0  0
  190.0030  178.4680  143.1230 F   0  0  0  0  0  0  0  0  0  0  0  0
  189.5870  176.2510  143.3650 F   0  0  0  0  0  0  0  0  0  0  0  0
  189.2660  177.6720  145.2070 C   0  0  0  0  0  1  0  0  0  0  0  0
  189.1680  177.5270  143.7060 C   0  0  0  0  0  0  0  0  0  0  0  0
  190.8730  176.5540  139.4460 C   0  0  0  0  0  2  0  0  0  0  0  0
  192.0050  176.4660  138.4210 C   0  0  0  0  0  2  0  0  0  0  0  0
  191.5450  174.2370  137.6460 O   0  0  0  0  0  1  0  0  0  0  0  0
  192.5120  175.0390  138.2560 C   0  0  1  0  0  3  0  0  0  0  0  0
  193.8260  175.0070  137.4770 C   0  0  0  0  0  2  0  0  0  0  0  0
  194.9510  174.2520  138.1890 C   0  0  2  0  0  3  0  0  0  0  0  0
  197.2210  175.9720  140.6100 N   0  0  0  0  0  1  0  0  0  0  0  0
  195.5320  175.0780  139.2470 N   0  0  0  0  0  0  0  0  0  0  0  0
  196.7930  175.1260  139.5520 C   0  0  0  0  0  0  0  0  0  0  0  0
  197.7610  174.3510  138.8410 N   0  0  0  0  0  1  0  0  0  0  0  0
  195.9380  173.8450  137.2810 O   0  0  0  0  0  0  0  0  0  0  0  0
  196.6580  172.5720  134.5670 C   0  0  2  0  0  3  0  0  0  0  0  0
  195.5860  174.3990  136.0460 C   0  0  1  0  0  3  0  0  0  0  0  0
  200.2320  173.3170  134.9040 C   0  0  0  0  0  2  0  0  0  0  0  0
  196.4340  176.6410  135.5330 C   0  0  0  0  0  2  0  0  0  0  0  0
  196.6640  175.3280  135.5560 C   0  0  0  0  0  0  0  0  0  0  0  0
  196.6250  171.1210  135.0130 C   0  0  0  0  0  1  0  0  0  0  0  0
  200.1680  174.8460  134.7770 C   0  0  0  0  0  2  0  0  0  0  0  0
  199.0580  175.3330  135.4940 O   0  0  0  0  0  0  0  0  0  0  0  0
  197.9550  173.2350  135.0610 C   0  0  2  0  0  3  0  0  0  0  0  0
  197.9010  174.7730  134.9130 C   0  0  1  0  0  3  0  0  0  0  0  0
  199.0700  172.7340  134.3500 O   0  0  0  0  0  0  0  0  0  0  0  0
  195.3680  173.2780  135.0270 C   0  0  0  0  0  2  0  0  0  0  0  0
  1 18  1  6  0  0  0
  2 20  1  0  0  0  0
  4  2  1  0  0  0  0
  5  9  2  0  0  0  0
  6  9  1  0  0  0  0
  6  7  1  1  0  0  0
  8 12  1  0  0  0  0
  9 20  1  0  0  0  0
 10 33  1  1  0  0  0
 10  4  1  0  0  0  0
 11  1  1  0  0  0  0
 11 22  1  0  0  0  0
 12 10  1  0  0  0  0
 13 25  1  1  0  0  0
 13 21  1  0  0  0  0
 13 17  1  0  0  0  0
 15 23  1  0  0  0  0
 15  3  1  0  0  0  0
 16  6  1  0  0  0  0
 17 23  1  0  0  0  0
 19 18  1  6  0  0  0
 19  8  1  0  0  0  0
 19  1  1  0  0  0  0
 20 28  1  1  0  0  0
 21  3  1  0  0  0  0
 22 14  2  0  0  0  0
 23 14  1  6  0  0  0
 23 16  1  0  0  0  0
 24  8  2  0  0  0  0
 25 27  1  0  0  0  0
 26 25  1  0  0  0  0
 28 32  1  0  0  0  0
 29 32  1  0  0  0  0
 30 32  1  0  0  0  0
 32 31  1  0  0  0  0
 34 33  1  0  0  0  0
 36 35  1  6  0  0  0
 36 34  1  0  0  0  0
 37 36  1  0  0  0  0
 38 37  1  6  0  0  0
 38 40  1  0  0  0  0
 40 41  2  0  0  0  0
 41 39  1  0  0  0  0
 42 41  1  0  0  0  0
 43 38  1  0  0  0  0
 44 49  1  1  0  0  0
 44 55  1  0  0  0  0
 44 52  1  0  0  0  0
 45 43  1  1  0  0  0
 47 48  2  0  0  0  0
 48 45  1  0  0  0  0
 50 46  1  0  0  0  0
 50 51  1  0  0  0  0
 52 54  1  6  0  0  0
 53 52  1  0  0  0  0
 53 51  1  1  0  0  0
 53 48  1  0  0  0  0
 54 46  1  0  0  0  0
 55 45  1  0  0  0  0
M  END
>  <MODEL>
4

>  <REMARK>
 VINA RESULT:      -6.3      1.836      2.811
  Name = 
  11 active torsions:
  status: ('A' for Active; 'I' for Inactive)
    1  A    between atoms: C_6  and  O_46
    2  A    between atoms: N_8  and  C_22
    3  A    between atoms: C_10  and  C_32
    4  A    between atoms: O_19  and  C_40
    5  A    between atoms: O_19  and  C_45
    6  A    between atoms: C_22  and  C_35
    7  A    between atoms: C_22  and  O_46
    8  A    between atoms: C_27  and  C_54
    9  A    between atoms: C_35  and  C_43
   10  A    between atoms: C_43  and  C_51
   11  A    between atoms: C_51  and  C_54
                            x       y       z     vdW  Elec       q    Type
                         _______ _______ _______ _____ _____    ______ ____

>  <TORSDO>
F 11

$$$$
=
 OpenBabel10272401303D

 55 59  0  0  1  0  0  0  0  0999 V2000
  186.7690  175.4640  135.5780 C   0  0  1  0  0  3  0  0  0  0  0  0
  185.1770  177.2810  139.0010 C   0  0  0  0  0  2  0  0  0  0  0  0
  180.7910  172.9050  134.7710 C   0  0  0  0  0  2  0  0  0  0  0  0
  186.0080  177.9930  137.9460 C   0  0  0  0  0  2  0  0  0  0  0  0
  182.4940  177.8380  137.0230 O   0  0  0  0  0  0  0  0  0  0  0  0
  182.5810  175.6860  138.0450 C   0  0  2  0  0  3  0  0  0  0  0  0
  181.8710  175.4230  139.2220 O   0  0  0  0  0  1  0  0  0  0  0  0
  188.8300  176.5920  136.3080 C   0  0  0  0  0  0  0  0  0  0  0  0
  182.9050  177.1630  137.9580 C   0  0  0  0  0  0  0  0  0  0  0  0
  187.4750  177.6220  138.1020 C   0  0  1  0  0  3  0  0  0  0  0  0
  185.9050  175.2570  134.3460 C   0  0  0  0  0  2  0  0  0  0  0  0
  188.2330  177.8720  136.8060 C   0  0  0  0  0  2  0  0  0  0  0  0
  182.9970  171.8540  135.5500 C   0  0  2  0  0  3  0  0  0  0  0  0
  183.8010  175.0960  135.4180 C   0  0  0  0  0  3  0  0  0  0  0  0
  181.6880  174.1280  134.6120 C   0  0  0  0  0  2  0  0  0  0  0  0
  181.7660  175.1980  136.8460 C   0  0  0  0  0  2  0  0  0  0  0  0
  182.9700  173.0250  136.5370 C   0  0  0  0  0  2  0  0  0  0  0  0
  187.8630  174.4240  135.6040 C   0  0  0  0  0  2  0  0  0  0  0  0
  188.1810  175.8480  135.1780 C   0  0  1  0  0  3  0  0  0  0  0  0
  183.7590  177.8340  139.0020 C   0  0  1  0  0  3  0  0  0  0  0  0
  181.6170  171.6250  134.9070 C   0  0  0  0  0  2  0  0  0  0  0  0
  184.7100  174.5370  134.7070 N   0  0  0  0  0  0  0  0  0  0  0  0
  182.5700  174.3510  135.8490 C   0  0  2  0  0  0  0  0  0  0  0  0
  189.8680  176.1770  136.8040 O   0  0  0  0  0  0  0  0  0  0  0  0
  183.5750  170.5970  136.1860 C   0  0  0  0  0  3  0  0  0  0  0  0
  185.0810  170.5750  136.0560 C   0  0  0  0  0  1  0  0  0  0  0  0
  182.9810  169.3280  135.6010 C   0  0  0  0  0  1  0  0  0  0  0  0
  183.1910  177.6930  140.2800 O   0  0  0  0  0  0  0  0  0  0  0  0
  181.1800  178.6540  139.7120 F   0  0  0  0  0  0  0  0  0  0  0  0
  182.9470  179.9840  140.2220 F   0  0  0  0  0  0  0  0  0  0  0  0
  181.8990  178.7810  141.9450 C   0  0  0  0  0  1  0  0  0  0  0  0
  182.3190  178.7790  140.4940 C   0  0  0  0  0  0  0  0  0  0  0  0
  188.1260  178.3180  139.3080 C   0  0  0  0  0  2  0  0  0  0  0  0
  189.6480  178.1820  139.3510 C   0  0  0  0  0  2  0  0  0  0  0  0
  191.4820  177.6700  140.8200 O   0  0  0  0  0  1  0  0  0  0  0  0
  190.1180  177.4590  140.6070 C   0  0  1  0  0  3  0  0  0  0  0  0
  189.2980  177.8800  141.8250 C   0  0  0  0  0  2  0  0  0  0  0  0
  190.0730  177.8210  143.1440 C   0  0  2  0  0  3  0  0  0  0  0  0
  192.0290  174.8530  144.3020 N   0  0  0  0  0  1  0  0  0  0  0  0
  190.6540  176.4920  143.3370 N   0  0  0  0  0  0  0  0  0  0  0  0
  191.5460  176.1870  144.2290 C   0  0  0  0  0  0  0  0  0  0  0  0
  192.0480  177.1630  145.1440 N   0  0  0  0  0  1  0  0  0  0  0  0
  189.2520  178.1620  144.2270 O   0  0  0  0  0  0  0  0  0  0  0  0
  186.2700  177.4100  144.4520 C   0  0  2  0  0  3  0  0  0  0  0  0
  188.7940  176.9550  144.7660 C   0  0  1  0  0  3  0  0  0  0  0  0
  185.6060  179.8800  147.0780 C   0  0  0  0  0  2  0  0  0  0  0  0
  189.3770  176.4670  147.0970 C   0  0  0  0  0  2  0  0  0  0  0  0
  188.5610  177.0910  146.2470 C   0  0  0  0  0  0  0  0  0  0  0  0
  185.7830  178.1600  143.2240 C   0  0  0  0  0  1  0  0  0  0  0  0
  186.4070  179.2340  148.2180 C   0  0  0  0  0  2  0  0  0  0  0  0
  187.6240  178.7350  147.7150 O   0  0  0  0  0  0  0  0  0  0  0  0
  186.5250  178.4040  145.5970 C   0  0  2  0  0  3  0  0  0  0  0  0
  187.3120  177.7490  146.7550 C   0  0  1  0  0  3  0  0  0  0  0  0
  185.3030  178.9170  146.0900 O   0  0  0  0  0  0  0  0  0  0  0  0
  187.4900  176.5490  144.0740 C   0  0  0  0  0  2  0  0  0  0  0  0
  1 11  1  6  0  0  0
  1 18  1  0  0  0  0
  2 20  1  0  0  0  0
  3 21  1  0  0  0  0
  4 10  1  0  0  0  0
  4  2  1  0  0  0  0
  5  9  2  0  0  0  0
  6  7  1  1  0  0  0
  8 24  2  0  0  0  0
  8 12  1  0  0  0  0
  9  6  1  0  0  0  0
  9 20  1  0  0  0  0
 10 33  1  1  0  0  0
 11 22  1  0  0  0  0
 12 10  1  0  0  0  0
 13 25  1  1  0  0  0
 13 17  1  0  0  0  0
 14 23  1  0  0  0  0
 15  3  1  0  0  0  0
 16  6  1  0  0  0  0
 19  1  1  0  0  0  0
 19 18  1  1  0  0  0
 19  8  1  0  0  0  0
 20 28  1  1  0  0  0
 21 13  1  0  0  0  0
 22 14  2  0  0  0  0
 23 15  1  6  0  0  0
 23 17  1  0  0  0  0
 23 16  1  0  0  0  0
 26 25  1  0  0  0  0
 27 25  1  0  0  0  0
 28 32  1  0  0  0  0
 29 32  1  0  0  0  0
 30 32  1  0  0  0  0
 32 31  1  0  0  0  0
 33 34  1  0  0  0  0
 34 36  1  0  0  0  0
 36 35  1  1  0  0  0
 36 37  1  0  0  0  0
 38 37  1  6  0  0  0
 38 40  1  0  0  0  0
 38 43  1  0  0  0  0
 40 41  2  0  0  0  0
 41 39  1  0  0  0  0
 41 42  1  0  0  0  0
 44 49  1  6  0  0  0
 44 52  1  0  0  0  0
 45 43  1  6  0  0  0
 45 48  1  0  0  0  0
 46 50  1  0  0  0  0
 48 47  2  0  0  0  0
 51 50  1  0  0  0  0
 52 54  1  1  0  0  0
 52 53  1  0  0  0  0
 53 48  1  6  0  0  0
 53 51  1  0  0  0  0
 54 46  1  0  0  0  0
 55 44  1  0  0  0  0
 55 45  1  0  0  0  0
M  END
>  <MODEL>
5

>  <REMARK>
 VINA RESULT:      -6.1      5.036      8.568
  Name = 
  11 active torsions:
  status: ('A' for Active; 'I' for Inactive)
    1  A    between atoms: C_6  and  O_46
    2  A    between atoms: N_8  and  C_22
    3  A    between atoms: C_10  and  C_32
    4  A    between atoms: O_19  and  C_40
    5  A    between atoms: O_19  and  C_45
    6  A    between atoms: C_22  and  C_35
    7  A    between atoms: C_22  and  O_46
    8  A    between atoms: C_27  and  C_54
    9  A    between atoms: C_35  and  C_43
   10  A    between atoms: C_43  and  C_51
   11  A    between atoms: C_51  and  C_54
                            x       y       z     vdW  Elec       q    Type
                         _______ _______ _______ _____ _____    ______ ____

>  <TORSDO>
F 11

$$$$
=
 OpenBabel10272401303D

 55 59  0  0  1  0  0  0  0  0999 V2000
  191.8860  177.1700  141.0460 C   0  0  1  0  0  3  0  0  0  0  0  0
  188.1740  176.8210  139.1340 C   0  0  0  0  0  2  0  0  0  0  0  0
  194.4620  175.5830  135.2350 C   0  0  0  0  0  2  0  0  0  0  0  0
  188.5880  177.9830  140.0230 C   0  0  0  0  0  2  0  0  0  0  0  0
  189.7310  178.4230  136.5980 O   0  0  0  0  0  0  0  0  0  0  0  0
  190.0620  176.0630  136.6730 C   0  0  2  0  0  3  0  0  0  0  0  0
  189.2890  175.2060  135.8830 O   0  0  0  0  0  1  0  0  0  0  0  0
  190.4870  177.6720  143.0080 C   0  0  0  0  0  0  0  0  0  0  0  0
  189.2930  177.3360  136.9560 C   0  0  0  0  0  0  0  0  0  0  0  0
  188.5410  177.5630  141.4840 C   0  0  1  0  0  3  0  0  0  0  0  0
  193.0940  177.6920  140.2890 C   0  0  0  0  0  2  0  0  0  0  0  0
  189.4170  178.4740  142.3320 C   0  0  0  0  0  2  0  0  0  0  0  0
  194.2120  174.2400  137.4050 C   0  0  2  0  0  3  0  0  0  0  0  0
  192.4670  177.0010  138.1140 C   0  0  0  0  0  3  0  0  0  0  0  0
  193.8450  176.6750  136.1020 C   0  0  0  0  0  2  0  0  0  0  0  0
  191.3950  176.3320  135.9710 C   0  0  0  0  0  2  0  0  0  0  0  0
  192.7500  174.6710  137.2640 C   0  0  0  0  0  2  0  0  0  0  0  0
  192.3470  176.2700  142.1680 C   0  0  0  0  0  2  0  0  0  0  0  0
  191.8890  177.6870  142.4730 C   0  0  1  0  0  3  0  0  0  0  0  0
  187.9860  177.3050  137.7050 C   0  0  1  0  0  3  0  0  0  0  0  0
  194.9870  174.4280  136.0880 C   0  0  0  0  0  2  0  0  0  0  0  0
  193.2910  176.9130  139.0930 N   0  0  0  0  0  0  0  0  0  0  0  0
  192.6220  176.1630  136.8770 C   0  0  2  0  0  0  0  0  0  0  0  0
  190.2190  177.0350  144.0160 O   0  0  0  0  0  0  0  0  0  0  0  0
  194.3300  172.8310  137.9710 C   0  0  0  0  0  3  0  0  0  0  0  0
  195.7320  172.5700  138.4710 C   0  0  0  0  0  1  0  0  0  0  0  0
  193.9270  171.7690  136.9650 C   0  0  0  0  0  1  0  0  0  0  0  0
  187.0490  176.4920  137.0430 O   0  0  0  0  0  0  0  0  0  0  0  0
  186.1330  178.6000  137.1050 F   0  0  0  0  0  0  0  0  0  0  0  0
  184.7860  176.7910  137.3480 F   0  0  0  0  0  0  0  0  0  0  0  0
  185.7080  177.2420  135.2360 C   0  0  0  0  0  1  0  0  0  0  0  0
  185.9250  177.2810  136.7310 C   0  0  0  0  0  0  0  0  0  0  0  0
  187.1030  177.4660  142.0160 C   0  0  0  0  0  2  0  0  0  0  0  0
  186.4790  178.8190  142.3570 C   0  0  0  0  0  2  0  0  0  0  0  0
  185.6720  179.1730  140.1200 O   0  0  0  0  0  1  0  0  0  0  0  0
  185.2880  179.1360  141.4620 C   0  0  1  0  0  3  0  0  0  0  0  0
  184.1510  178.1400  141.6830 C   0  0  0  0  0  2  0  0  0  0  0  0
  182.7990  178.6120  141.1410 C   0  0  2  0  0  3  0  0  0  0  0  0
  180.6200  178.6950  144.1770 N   0  0  0  0  0  1  0  0  0  0  0  0
  181.7490  178.4100  142.1400 N   0  0  0  0  0  0  0  0  0  0  0  0
  181.6990  178.9880  143.3000 C   0  0  0  0  0  0  0  0  0  0  0  0
  182.7020  179.9190  143.7130 N   0  0  0  0  0  1  0  0  0  0  0  0
  182.4770  177.9540  139.9460 O   0  0  0  0  0  0  0  0  0  0  0  0
  180.2040  176.3120  138.6640 C   0  0  2  0  0  3  0  0  0  0  0  0
  181.2710  178.5090  139.5080 C   0  0  1  0  0  3  0  0  0  0  0  0
  182.0840  175.6850  135.5800 C   0  0  0  0  0  2  0  0  0  0  0  0
  181.3890  180.2260  137.7620 C   0  0  0  0  0  2  0  0  0  0  0  0
  181.3750  178.9280  138.0650 C   0  0  0  0  0  0  0  0  0  0  0  0
  180.4470  175.0150  139.4150 C   0  0  0  0  0  1  0  0  0  0  0  0
  182.0950  177.1130  135.0150 C   0  0  0  0  0  2  0  0  0  0  0  0
  182.3250  178.0310  136.0590 O   0  0  0  0  0  0  0  0  0  0  0  0
  181.2610  176.4740  137.5580 C   0  0  2  0  0  3  0  0  0  0  0  0
  181.2580  177.9050  136.9740 C   0  0  1  0  0  3  0  0  0  0  0  0
  181.0380  175.5420  136.5190 O   0  0  0  0  0  0  0  0  0  0  0  0
  180.1480  177.4810  139.6660 C   0  0  0  0  0  2  0  0  0  0  0  0
  1 11  1  6  0  0  0
  1 18  1  0  0  0  0
  1 19  1  0  0  0  0
  2  4  1  0  0  0  0
  3 21  1  0  0  0  0
  3 15  1  0  0  0  0
  4 10  1  0  0  0  0
  5  9  2  0  0  0  0
  6  7  1  6  0  0  0
  6  9  1  0  0  0  0
  8 24  2  0  0  0  0
  9 20  1  0  0  0  0
 10 33  1  1  0  0  0
 10 12  1  0  0  0  0
 12  8  1  0  0  0  0
 13 25  1  6  0  0  0
 14 22  2  0  0  0  0
 15 23  1  0  0  0  0
 16  6  1  0  0  0  0
 17 13  1  0  0  0  0
 19 18  1  1  0  0  0
 19  8  1  0  0  0  0
 20 28  1  6  0  0  0
 20  2  1  0  0  0  0
 21 13  1  0  0  0  0
 22 11  1  0  0  0  0
 23 16  1  6  0  0  0
 23 17  1  0  0  0  0
 23 14  1  0  0  0  0
 25 26  1  0  0  0  0
 27 25  1  0  0  0  0
 31 32  1  0  0  0  0
 32 28  1  0  0  0  0
 32 29  1  0  0  0  0
 32 30  1  0  0  0  0
 33 34  1  0  0  0  0
 36 35  1  6  0  0  0
 36 37  1  0  0  0  0
 36 34  1  0  0  0  0
 38 37  1  1  0  0  0
 38 40  1  0  0  0  0
 40 41  2  0  0  0  0
 41 42  1  0  0  0  0
 41 39  1  0  0  0  0
 43 38  1  0  0  0  0
 44 49  1  1  0  0  0
 44 55  1  0  0  0  0
 45 55  1  0  0  0  0
 45 43  1  6  0  0  0
 46 54  1  0  0  0  0
 47 48  2  0  0  0  0
 48 45  1  0  0  0  0
 50 46  1  0  0  0  0
 50 51  1  0  0  0  0
 52 54  1  6  0  0  0
 52 44  1  0  0  0  0
 53 51  1  6  0  0  0
 53 52  1  0  0  0  0
 53 48  1  0  0  0  0
M  END
>  <MODEL>
6

>  <REMARK>
 VINA RESULT:      -5.7      3.152     11.569
  Name = 
  11 active torsions:
  status: ('A' for Active; 'I' for Inactive)
    1  A    between atoms: C_6  and  O_46
    2  A    between atoms: N_8  and  C_22
    3  A    between atoms: C_10  and  C_32
    4  A    between atoms: O_19  and  C_40
    5  A    between atoms: O_19  and  C_45
    6  A    between atoms: C_22  and  C_35
    7  A    between atoms: C_22  and  O_46
    8  A    between atoms: C_27  and  C_54
    9  A    between atoms: C_35  and  C_43
   10  A    between atoms: C_43  and  C_51
   11  A    between atoms: C_51  and  C_54
                            x       y       z     vdW  Elec       q    Type
                         _______ _______ _______ _____ _____    ______ ____

>  <TORSDO>
F 11

$$$$
=
 OpenBabel10272401303D

 55 59  0  0  1  0  0  0  0  0999 V2000
  186.6040  177.5990  136.9900 C   0  0  1  0  0  3  0  0  0  0  0  0
  188.4290  177.1820  140.7390 C   0  0  0  0  0  2  0  0  0  0  0  0
  181.2070  179.1790  140.3550 C   0  0  0  0  0  2  0  0  0  0  0  0
  189.0210  177.9440  139.5640 C   0  0  0  0  0  2  0  0  0  0  0  0
  186.7170  179.9980  141.4880 O   0  0  0  0  0  0  0  0  0  0  0  0
  185.4900  177.9660  141.7130 C   0  0  2  0  0  3  0  0  0  0  0  0
  185.3530  177.3470  142.9600 O   0  0  0  0  0  1  0  0  0  0  0  0
  188.8200  176.9100  136.1720 C   0  0  0  0  0  0  0  0  0  0  0  0
  186.7610  178.7900  141.6850 C   0  0  0  0  0  0  0  0  0  0  0  0
  189.5630  176.9690  138.5310 C   0  0  1  0  0  3  0  0  0  0  0  0
  185.5360  178.6560  136.7690 C   0  0  0  0  0  2  0  0  0  0  0  0
  189.6720  177.6360  137.1670 C   0  0  0  0  0  2  0  0  0  0  0  0
  181.8470  177.0520  139.0730 C   0  0  2  0  0  3  0  0  0  0  0  0
  184.7060  178.7820  138.9820 C   0  0  0  0  0  3  0  0  0  0  0  0
  182.5570  179.6410  139.8160 C   0  0  0  0  0  2  0  0  0  0  0  0
  184.2450  178.8070  141.4270 C   0  0  0  0  0  2  0  0  0  0  0  0
  183.0960  177.1400  139.9540 C   0  0  0  0  0  2  0  0  0  0  0  0
  186.3900  176.4600  136.0230 C   0  0  0  0  0  2  0  0  0  0  0  0
  187.4900  177.4750  135.7660 C   0  0  1  0  0  3  0  0  0  0  0  0
  188.1100  178.1450  141.8720 C   0  0  1  0  0  3  0  0  0  0  0  0
  180.7100  177.9380  139.6120 C   0  0  0  0  0  2  0  0  0  0  0  0
  184.4910  178.5020  137.7490 N   0  0  0  0  0  0  0  0  0  0  0  0
  183.6490  178.5820  140.0300 C   0  0  2  0  0  0  0  0  0  0  0  0
  189.2290  175.8740  135.6690 O   0  0  0  0  0  0  0  0  0  0  0  0
  181.4220  175.6070  138.8450 C   0  0  0  0  0  3  0  0  0  0  0  0
  180.2670  175.5350  137.8730 C   0  0  0  0  0  1  0  0  0  0  0  0
  181.0620  174.9010  140.1390 C   0  0  0  0  0  1  0  0  0  0  0  0
  188.1770  177.4740  143.1050 O   0  0  0  0  0  0  0  0  0  0  0  0
  189.4400  177.5540  145.0260 F   0  0  0  0  0  0  0  0  0  0  0  0
  189.9610  178.9200  143.2910 F   0  0  0  0  0  0  0  0  0  0  0  0
  190.3890  176.6190  143.0910 C   0  0  0  0  0  1  0  0  0  0  0  0
  189.4620  177.6760  143.6450 C   0  0  0  0  0  0  0  0  0  0  0  0
  190.8840  176.3230  138.9780 C   0  0  0  0  0  2  0  0  0  0  0  0
  191.4390  175.3020  137.9850 C   0  0  0  0  0  2  0  0  0  0  0  0
  193.3540  176.7360  138.2260 O   0  0  0  0  0  1  0  0  0  0  0  0
  192.8030  175.7160  137.4480 C   0  0  1  0  0  3  0  0  0  0  0  0
  193.7480  174.5190  137.3610 C   0  0  0  0  0  2  0  0  0  0  0  0
  193.9830  174.0160  135.9340 C   0  0  2  0  0  3  0  0  0  0  0  0
  191.5850  171.3250  134.9460 N   0  0  0  0  0  1  0  0  0  0  0  0
  193.2830  172.7510  135.7150 N   0  0  0  0  0  0  0  0  0  0  0  0
  192.1590  172.6170  135.0810 C   0  0  0  0  0  0  0  0  0  0  0  0
  191.4880  173.7430  134.5090 N   0  0  0  0  0  1  0  0  0  0  0  0
  195.3520  173.8750  135.6680 O   0  0  0  0  0  0  0  0  0  0  0  0
  198.3950  174.1360  136.0880 C   0  0  2  0  0  3  0  0  0  0  0  0
  195.9790  173.7370  136.9110 C   0  0  1  0  0  3  0  0  0  0  0  0
  199.1380  170.9970  134.3460 C   0  0  0  0  0  2  0  0  0  0  0  0
  195.7240  171.5910  138.0690 C   0  0  0  0  0  2  0  0  0  0  0  0
  196.3740  172.3030  137.1470 C   0  0  0  0  0  0  0  0  0  0  0  0
  198.6620  175.1450  134.9850 C   0  0  0  0  0  1  0  0  0  0  0  0
  198.5410  170.0150  135.3640 C   0  0  0  0  0  2  0  0  0  0  0  0
  197.3230  170.5260  135.8540 O   0  0  0  0  0  0  0  0  0  0  0  0
  198.1890  172.7410  135.4730 C   0  0  2  0  0  3  0  0  0  0  0  0
  197.6090  171.7460  136.5030 C   0  0  1  0  0  3  0  0  0  0  0  0
  199.4090  172.2370  134.9670 O   0  0  0  0  0  0  0  0  0  0  0  0
  197.2230  174.6280  136.9580 C   0  0  0  0  0  2  0  0  0  0  0  0
  1 18  1  6  0  0  0
  2 20  1  0  0  0  0
  4  2  1  0  0  0  0
  5  9  2  0  0  0  0
  6  7  1  1  0  0  0
  8 12  1  0  0  0  0
  9  6  1  0  0  0  0
  9 20  1  0  0  0  0
 10 33  1  1  0  0  0
 10  4  1  0  0  0  0
 11  1  1  0  0  0  0
 11 22  1  0  0  0  0
 12 10  1  0  0  0  0
 13 25  1  1  0  0  0
 13 21  1  0  0  0  0
 13 17  1  0  0  0  0
 15 23  1  0  0  0  0
 15  3  1  0  0  0  0
 16  6  1  0  0  0  0
 17 23  1  0  0  0  0
 19 18  1  6  0  0  0
 19  8  1  0  0  0  0
 19  1  1  0  0  0  0
 20 28  1  1  0  0  0
 21  3  1  0  0  0  0
 22 14  2  0  0  0  0
 23 14  1  6  0  0  0
 23 16  1  0  0  0  0
 24  8  2  0  0  0  0
 25 27  1  0  0  0  0
 26 25  1  0  0  0  0
 28 32  1  0  0  0  0
 30 32  1  0  0  0  0
 31 32  1  0  0  0  0
 32 29  1  0  0  0  0
 34 33  1  0  0  0  0
 36 34  1  0  0  0  0
 36 35  1  1  0  0  0
 37 36  1  0  0  0  0
 38 37  1  1  0  0  0
 39 41  1  0  0  0  0
 40 38  1  0  0  0  0
 41 40  2  0  0  0  0
 42 41  1  0  0  0  0
 43 38  1  0  0  0  0
 44 49  1  6  0  0  0
 44 55  1  0  0  0  0
 45 43  1  6  0  0  0
 45 55  1  0  0  0  0
 45 48  1  0  0  0  0
 46 54  1  0  0  0  0
 46 50  1  0  0  0  0
 48 47  2  0  0  0  0
 50 51  1  0  0  0  0
 52 54  1  1  0  0  0
 52 44  1  0  0  0  0
 52 53  1  0  0  0  0
 53 51  1  6  0  0  0
 53 48  1  0  0  0  0
M  END
>  <MODEL>
7

>  <REMARK>
 VINA RESULT:      -5.5      1.988      2.997
  Name = 
  11 active torsions:
  status: ('A' for Active; 'I' for Inactive)
    1  A    between atoms: C_6  and  O_46
    2  A    between atoms: N_8  and  C_22
    3  A    between atoms: C_10  and  C_32
    4  A    between atoms: O_19  and  C_40
    5  A    between atoms: O_19  and  C_45
    6  A    between atoms: C_22  and  C_35
    7  A    between atoms: C_22  and  O_46
    8  A    between atoms: C_27  and  C_54
    9  A    between atoms: C_35  and  C_43
   10  A    between atoms: C_43  and  C_51
   11  A    between atoms: C_51  and  C_54
                            x       y       z     vdW  Elec       q    Type
                         _______ _______ _______ _____ _____    ______ ____

>  <TORSDO>
F 11

$$$$
=
 OpenBabel10272401303D

 55 59  0  0  1  0  0  0  0  0999 V2000
  187.5710  177.0740  136.6560 C   0  0  1  0  0  3  0  0  0  0  0  0
  189.4880  176.8230  140.3730 C   0  0  0  0  0  2  0  0  0  0  0  0
  182.4050  179.2740  140.0330 C   0  0  0  0  0  2  0  0  0  0  0  0
  190.0890  177.4500  139.1260 C   0  0  0  0  0  2  0  0  0  0  0  0
  187.9910  179.7990  140.9450 O   0  0  0  0  0  0  0  0  0  0  0  0
  186.6410  177.8790  141.3640 C   0  0  2  0  0  3  0  0  0  0  0  0
  186.5040  177.3690  142.6590 O   0  0  0  0  0  1  0  0  0  0  0  0
  189.7090  176.1740  135.8330 C   0  0  0  0  0  0  0  0  0  0  0  0
  187.9620  178.6090  141.2350 C   0  0  0  0  0  0  0  0  0  0  0  0
  190.5320  176.3630  138.1590 C   0  0  1  0  0  3  0  0  0  0  0  0
  186.5690  178.1820  136.3810 C   0  0  0  0  0  2  0  0  0  0  0  0
  190.6390  176.9140  136.7440 C   0  0  0  0  0  2  0  0  0  0  0  0
  182.8600  177.0160  138.9060 C   0  0  2  0  0  3  0  0  0  0  0  0
  185.8230  178.5340  138.6000 C   0  0  0  0  0  3  0  0  0  0  0  0
  183.7640  179.6010  139.4220 C   0  0  0  0  0  2  0  0  0  0  0  0
  185.4450  178.7790  141.0460 C   0  0  0  0  0  2  0  0  0  0  0  0
  184.1400  177.0860  139.7430 C   0  0  0  0  0  2  0  0  0  0  0  0
  187.2510  175.8810  135.7880 C   0  0  0  0  0  2  0  0  0  0  0  0
  188.4070  176.7960  135.4210 C   0  0  1  0  0  3  0  0  0  0  0  0
  189.2700  177.8900  141.4350 C   0  0  1  0  0  3  0  0  0  0  0  0
  181.8030  178.0170  139.4050 C   0  0  0  0  0  2  0  0  0  0  0  0
  185.5490  178.1760  137.3990 N   0  0  0  0  0  0  0  0  0  0  0  0
  184.7900  178.4890  139.6890 C   0  0  2  0  0  0  0  0  0  0  0  0
  190.0320  175.0770  135.4030 O   0  0  0  0  0  0  0  0  0  0  0  0
  182.3330  175.5910  138.8040 C   0  0  0  0  0  3  0  0  0  0  0  0
  183.3440  174.6930  138.1300 C   0  0  0  0  0  1  0  0  0  0  0  0
  181.0020  175.5180  138.0780 C   0  0  0  0  0  1  0  0  0  0  0  0
  189.3340  177.3120  142.7150 O   0  0  0  0  0  0  0  0  0  0  0  0
  191.5280  177.3150  142.0270 F   0  0  0  0  0  0  0  0  0  0  0  0
  190.5430  175.3550  142.6070 F   0  0  0  0  0  0  0  0  0  0  0  0
  191.0590  176.9070  144.2920 C   0  0  0  0  0  1  0  0  0  0  0  0
  190.6010  176.7150  142.8650 C   0  0  0  0  0  0  0  0  0  0  0  0
  191.8210  175.6650  138.6190 C   0  0  0  0  0  2  0  0  0  0  0  0
  192.3020  174.5670  137.6680 C   0  0  0  0  0  2  0  0  0  0  0  0
  194.4160  175.4990  138.3350 O   0  0  0  0  0  1  0  0  0  0  0  0
  193.8160  174.4040  137.7100 C   0  0  1  0  0  3  0  0  0  0  0  0
  194.2100  173.0950  138.3930 C   0  0  0  0  0  2  0  0  0  0  0  0
  195.0110  172.1460  137.4980 C   0  0  2  0  0  3  0  0  0  0  0  0
  195.3490  168.6230  138.7010 N   0  0  0  0  0  1  0  0  0  0  0  0
  195.3470  170.9210  138.2230 N   0  0  0  0  0  0  0  0  0  0  0  0
  194.9500  169.7280  137.9020 C   0  0  0  0  0  0  0  0  0  0  0  0
  194.1240  169.5010  136.7570 N   0  0  0  0  0  1  0  0  0  0  0  0
  196.1700  172.7670  137.0140 O   0  0  0  0  0  0  0  0  0  0  0  0
  197.9060  174.3040  134.9810 C   0  0  2  0  0  3  0  0  0  0  0  0
  196.2520  172.4380  135.6570 C   0  0  1  0  0  3  0  0  0  0  0  0
  195.7720  177.2830  135.0600 C   0  0  0  0  0  2  0  0  0  0  0  0
  194.1770  172.5060  134.3530 C   0  0  0  0  0  2  0  0  0  0  0  0
  195.2060  173.1800  134.8680 C   0  0  0  0  0  0  0  0  0  0  0  0
  199.0110  174.7190  135.9370 C   0  0  0  0  0  1  0  0  0  0  0  0
  194.5290  176.7020  134.3690 C   0  0  0  0  0  2  0  0  0  0  0  0
  194.2970  175.3950  134.8390 O   0  0  0  0  0  0  0  0  0  0  0  0
  196.6690  175.1880  135.2070 C   0  0  2  0  0  3  0  0  0  0  0  0
  195.4220  174.6160  134.4950 C   0  0  1  0  0  3  0  0  0  0  0  0
  196.9090  176.5050  134.7500 O   0  0  0  0  0  0  0  0  0  0  0  0
  197.6440  172.7930  135.1280 C   0  0  0  0  0  2  0  0  0  0  0  0
  1 18  1  6  0  0  0
  2 20  1  0  0  0  0
  4  2  1  0  0  0  0
  5  9  2  0  0  0  0
  6  7  1  1  0  0  0
  8 12  1  0  0  0  0
  9  6  1  0  0  0  0
  9 20  1  0  0  0  0
 10 33  1  1  0  0  0
 10  4  1  0  0  0  0
 11  1  1  0  0  0  0
 11 22  1  0  0  0  0
 12 10  1  0  0  0  0
 13 25  1  1  0  0  0
 13 21  1  0  0  0  0
 13 17  1  0  0  0  0
 15 23  1  0  0  0  0
 15  3  1  0  0  0  0
 16  6  1  0  0  0  0
 19 18  1  6  0  0  0
 19  8  1  0  0  0  0
 19  1  1  0  0  0  0
 20 28  1  1  0  0  0
 21  3  1  0  0  0  0
 22 14  2  0  0  0  0
 23 14  1  6  0  0  0
 23 17  1  0  0  0  0
 23 16  1  0  0  0  0
 24  8  2  0  0  0  0
 26 25  1  0  0  0  0
 27 25  1  0  0  0  0
 28 32  1  0  0  0  0
 29 32  1  0  0  0  0
 30 32  1  0  0  0  0
 32 31  1  0  0  0  0
 34 36  1  0  0  0  0
 34 33  1  0  0  0  0
 36 35  1  1  0  0  0
 36 37  1  0  0  0  0
 38 40  1  0  0  0  0
 38 37  1  1  0  0  0
 41 40  2  0  0  0  0
 41 39  1  0  0  0  0
 42 41  1  0  0  0  0
 43 38  1  0  0  0  0
 44 55  1  0  0  0  0
 44 52  1  0  0  0  0
 44 49  1  1  0  0  0
 45 43  1  1  0  0  0
 47 48  2  0  0  0  0
 48 45  1  0  0  0  0
 50 51  1  0  0  0  0
 50 46  1  0  0  0  0
 52 54  1  6  0  0  0
 53 51  1  1  0  0  0
 53 48  1  0  0  0  0
 53 52  1  0  0  0  0
 54 46  1  0  0  0  0
 55 45  1  0  0  0  0
M  END
>  <MODEL>
8

>  <REMARK>
 VINA RESULT:      -5.4      2.202      3.615
  Name = 
  11 active torsions:
  status: ('A' for Active; 'I' for Inactive)
    1  A    between atoms: C_6  and  O_46
    2  A    between atoms: N_8  and  C_22
    3  A    between atoms: C_10  and  C_32
    4  A    between atoms: O_19  and  C_40
    5  A    between atoms: O_19  and  C_45
    6  A    between atoms: C_22  and  C_35
    7  A    between atoms: C_22  and  O_46
    8  A    between atoms: C_27  and  C_54
    9  A    between atoms: C_35  and  C_43
   10  A    between atoms: C_43  and  C_51
   11  A    between atoms: C_51  and  C_54
                            x       y       z     vdW  Elec       q    Type
                         _______ _______ _______ _____ _____    ______ ____

>  <TORSDO>
F 11

$$$$
=
 OpenBabel10272401303D

 55 59  0  0  1  0  0  0  0  0999 V2000
  186.4590  177.1690  136.9400 C   0  0  1  0  0  3  0  0  0  0  0  0
  188.3710  177.0010  140.6640 C   0  0  0  0  0  2  0  0  0  0  0  0
  181.2670  179.3790  140.2690 C   0  0  0  0  0  2  0  0  0  0  0  0
  188.9690  177.6120  139.4080 C   0  0  0  0  0  2  0  0  0  0  0  0
  186.8460  179.9720  141.1820 O   0  0  0  0  0  0  0  0  0  0  0  0
  185.5130  178.0460  141.6310 C   0  0  2  0  0  3  0  0  0  0  0  0
  185.3780  177.5580  142.9350 O   0  0  0  0  0  1  0  0  0  0  0  0
  188.6070  176.2750  136.1370 C   0  0  0  0  0  0  0  0  0  0  0  0
  186.8270  178.7870  141.4920 C   0  0  0  0  0  0  0  0  0  0  0  0
  189.4240  176.5120  138.4600 C   0  0  1  0  0  3  0  0  0  0  0  0
  185.4470  178.2620  136.6440 C   0  0  0  0  0  2  0  0  0  0  0  0
  189.5290  177.0400  137.0360 C   0  0  0  0  0  2  0  0  0  0  0  0
  181.7450  177.1060  139.1820 C   0  0  2  0  0  3  0  0  0  0  0  0
  184.6940  178.6460  138.8550 C   0  0  0  0  0  3  0  0  0  0  0  0
  182.6230  179.7080  139.6550 C   0  0  0  0  0  2  0  0  0  0  0  0
  184.3090  178.9290  141.2960 C   0  0  0  0  0  2  0  0  0  0  0  0
  183.0230  177.2030  140.0200 C   0  0  0  0  0  2  0  0  0  0  0  0
  186.1520  175.9580  136.0920 C   0  0  0  0  0  2  0  0  0  0  0  0
  187.3000  176.8780  135.7110 C   0  0  1  0  0  3  0  0  0  0  0  0
  188.1420  178.0840  141.7070 C   0  0  1  0  0  3  0  0  0  0  0  0
  180.6770  178.1050  139.6620 C   0  0  0  0  0  2  0  0  0  0  0  0
  184.4250  178.2650  137.6600 N   0  0  0  0  0  0  0  0  0  0  0  0
  183.6590  178.6100  139.9430 C   0  0  2  0  0  0  0  0  0  0  0  0
  188.9410  175.1740  135.7260 O   0  0  0  0  0  0  0  0  0  0  0  0
  181.2310  175.6740  139.1050 C   0  0  0  0  0  3  0  0  0  0  0  0
  180.4460  175.3190  140.3460 C   0  0  0  0  0  1  0  0  0  0  0  0
  182.3500  174.6710  138.8880 C   0  0  0  0  0  1  0  0  0  0  0  0
  188.2080  177.5290  142.9970 O   0  0  0  0  0  0  0  0  0  0  0  0
  190.1300  178.7890  143.0970 F   0  0  0  0  0  0  0  0  0  0  0  0
  190.2830  176.5360  142.8700 F   0  0  0  0  0  0  0  0  0  0  0  0
  189.5810  177.4230  144.9280 C   0  0  0  0  0  1  0  0  0  0  0  0
  189.5490  177.5730  143.4250 C   0  0  0  0  0  0  0  0  0  0  0  0
  190.7190  175.8340  138.9340 C   0  0  0  0  0  2  0  0  0  0  0  0
  191.9860  176.4230  138.3130 C   0  0  0  0  0  2  0  0  0  0  0  0
  192.9070  176.6890  136.1080 O   0  0  0  0  0  1  0  0  0  0  0  0
  192.3220  175.7670  136.9800 C   0  0  1  0  0  3  0  0  0  0  0  0
  193.2210  174.5480  137.1760 C   0  0  0  0  0  2  0  0  0  0  0  0
  193.9370  174.0950  135.9010 C   0  0  2  0  0  3  0  0  0  0  0  0
  192.4390  170.8010  134.9630 N   0  0  0  0  0  1  0  0  0  0  0  0
  193.2070  172.9980  135.2650 N   0  0  0  0  0  0  0  0  0  0  0  0
  193.1890  171.7700  135.6830 C   0  0  0  0  0  0  0  0  0  0  0  0
  193.9020  171.3710  136.8550 N   0  0  0  0  0  1  0  0  0  0  0  0
  195.2590  173.7150  136.1730 O   0  0  0  0  0  0  0  0  0  0  0  0
  197.6570  172.1020  135.1000 C   0  0  2  0  0  3  0  0  0  0  0  0
  196.0110  174.0930  135.0570 C   0  0  1  0  0  3  0  0  0  0  0  0
  199.7950  172.9390  137.9570 C   0  0  0  0  0  2  0  0  0  0  0  0
  197.1570  176.2590  135.1500 C   0  0  0  0  0  2  0  0  0  0  0  0
  197.1680  174.9650  135.4690 C   0  0  0  0  0  0  0  0  0  0  0  0
  197.1660  170.7230  135.5050 C   0  0  0  0  0  1  0  0  0  0  0  0
  199.9910  174.4360  137.6760 C   0  0  0  0  0  2  0  0  0  0  0  0
  198.7720  174.9980  137.2460 O   0  0  0  0  0  0  0  0  0  0  0  0
  198.1890  172.8450  136.3370 C   0  0  2  0  0  3  0  0  0  0  0  0
  198.4070  174.3470  136.0490 C   0  0  1  0  0  3  0  0  0  0  0  0
  199.4040  172.2700  136.7760 O   0  0  0  0  0  0  0  0  0  0  0  0
  196.5360  172.8430  134.3470 C   0  0  0  0  0  2  0  0  0  0  0  0
  1 18  1  6  0  0  0
  2 20  1  0  0  0  0
  4  2  1  0  0  0  0
  5  9  2  0  0  0  0
  6  7  1  1  0  0  0
  8 12  1  0  0  0  0
  9  6  1  0  0  0  0
  9 20  1  0  0  0  0
 10 33  1  1  0  0  0
 10  4  1  0  0  0  0
 11  1  1  0  0  0  0
 11 22  1  0  0  0  0
 12 10  1  0  0  0  0
 13 25  1  1  0  0  0
 13 21  1  0  0  0  0
 13 17  1  0  0  0  0
 15 23  1  0  0  0  0
 15  3  1  0  0  0  0
 16  6  1  0  0  0  0
 19 18  1  6  0  0  0
 19  8  1  0  0  0  0
 19  1  1  0  0  0  0
 20 28  1  1  0  0  0
 21  3  1  0  0  0  0
 22 14  2  0  0  0  0
 23 14  1  6  0  0  0
 23 17  1  0  0  0  0
 23 16  1  0  0  0  0
 24  8  2  0  0  0  0
 25 26  1  0  0  0  0
 27 25  1  0  0  0  0
 28 32  1  0  0  0  0
 29 32  1  0  0  0  0
 30 32  1  0  0  0  0
 32 31  1  0  0  0  0
 34 33  1  0  0  0  0
 36 35  1  6  0  0  0
 36 37  1  0  0  0  0
 36 34  1  0  0  0  0
 38 43  1  0  0  0  0
 38 37  1  1  0  0  0
 39 41  1  0  0  0  0
 40 41  2  0  0  0  0
 40 38  1  0  0  0  0
 41 42  1  0  0  0  0
 44 49  1  1  0  0  0
 44 52  1  0  0  0  0
 45 48  1  0  0  0  0
 45 43  1  1  0  0  0
 47 48  2  0  0  0  0
 50 46  1  0  0  0  0
 51 50  1  0  0  0  0
 52 54  1  6  0  0  0
 53 48  1  1  0  0  0
 53 52  1  0  0  0  0
 53 51  1  0  0  0  0
 54 46  1  0  0  0  0
 55 45  1  0  0  0  0
 55 44  1  0  0  0  0
M  END
>  <MODEL>
9

>  <REMARK>
 VINA RESULT:      -4.8      2.030      3.176
  Name = 
  11 active torsions:
  status: ('A' for Active; 'I' for Inactive)
    1  A    between atoms: C_6  and  O_46
    2  A    between atoms: N_8  and  C_22
    3  A    between atoms: C_10  and  C_32
    4  A    between atoms: O_19  and  C_40
    5  A    between atoms: O_19  and  C_45
    6  A    between atoms: C_22  and  C_35
    7  A    between atoms: C_22  and  O_46
    8  A    between atoms: C_27  and  C_54
    9  A    between atoms: C_35  and  C_43
   10  A    between atoms: C_43  and  C_51
   11  A    between atoms: C_51  and  C_54
                            x       y       z     vdW  Elec       q    Type
                         _______ _______ _______ _____ _____    ______ ____

>  <TORSDO>
F 11

$$$$
