=
 OpenBabel10272415343D

 34 39  0  0  1  0  0  0  0  0999 V2000
  189.0420  178.2850  137.3930 C   0  0  0  0  0  0  0  0  0  0  0  0
  190.3150  175.9350  138.4060 C   0  0  0  0  0  3  0  0  0  0  0  0
  186.5580  175.0080  135.0100 C   0  0  0  0  0  0  0  0  0  0  0  0
  188.4170  177.6080  138.5960 C   0  0  1  0  0  0  0  0  0  0  0  0
  185.8750  175.0710  137.8640 O   0  0  0  0  0  1  0  0  0  0  0  0
  189.6160  173.3460  135.9270 C   0  0  1  0  0  3  0  0  0  0  0  0
  186.7990  175.9670  137.3230 C   0  0  2  0  0  3  0  0  0  0  0  0
  187.3140  177.2070  135.3220 F   0  0  0  0  0  0  0  0  0  0  0  0
  186.9410  177.1900  138.2680 C   0  0  2  0  0  3  0  0  0  0  0  0
  188.8050  172.2090  135.3280 C   0  0  1  0  0  0  0  0  0  0  0  0
  188.9700  174.6060  135.5470 N   0  0  2  0  0  0  0  0  0  0  0  0
  189.4200  171.0090  134.6380 C   0  0  0  0  0  1  0  0  0  0  0  0
  187.7540  174.2080  134.9590 N   0  0  0  0  0  0  0  0  0  0  0  0
  185.9820  178.3320  137.9300 C   0  0  0  0  0  1  0  0  0  0  0  0
  185.1680  176.7580  135.7610 F   0  0  0  0  0  0  0  0  0  0  0  0
  188.5830  179.3820  136.9720 O   0  0  0  0  0  0  0  0  0  0  0  0
  189.6360  173.2230  137.3160 O   0  0  0  0  0  1  0  0  0  0  0  0
  191.0230  176.7290  137.3520 C   0  0  1  0  0  3  0  0  0  0  0  0
  191.5240  175.8030  136.2540 C   0  0  1  0  0  3  0  0  0  0  0  0
  187.5020  172.0440  135.8210 O   0  0  0  0  0  0  0  0  0  0  0  0
  190.8050  176.2180  134.9620 C   0  0  1  0  0  3  0  0  0  0  0  0
  187.6610  172.7970  134.6360 C   0  0  2  0  0  3  0  0  0  0  0  0
  189.7970  175.1670  134.4740 C   0  0  0  0  0  2  0  0  0  0  0  0
  186.4610  176.2610  135.8460 C   0  0  0  0  0  0  0  0  0  0  0  0
  185.5500  174.6430  134.3460 O   0  0  0  0  0  0  0  0  0  0  0  0
  189.1630  176.3350  138.9580 C   0  0  0  0  0  3  0  0  0  0  0  0
  190.1070  177.5290  135.2580 C   0  0  0  0  0  2  0  0  0  0  0  0
  190.1220  177.6600  136.6980 N   0  0  0  0  0  0  0  0  0  0  0  0
  193.0490  175.8530  136.1270 C   0  0  1  0  0  3  0  0  0  0  0  0
  193.5790  176.7290  137.0730 O   0  0  0  0  0  1  0  0  0  0  0  0
  193.7020  174.4860  136.2700 C   0  0  0  0  0  1  0  0  0  0  0  0
  187.6240  178.3550  140.9610 C   0  0  0  0  0  2  0  0  0  0  0  0
  188.6200  178.5340  139.8300 C   0  0  0  0  0  3  0  0  0  0  0  0
  189.0230  177.7790  141.0860 C   0  0  0  0  0  2  0  0  0  0  0  0
  1  4  1  0  0  0  0
  2 26  2  0  0  0  0
  3 24  1  0  0  0  0
  4 26  1  0  0  0  0
  4 33  1  1  0  0  0
  6 17  1  1  0  0  0
  7  5  1  1  0  0  0
  7  9  1  0  0  0  0
  8 24  1  0  0  0  0
  9 14  1  6  0  0  0
  9  4  1  0  0  0  0
 10 12  1  6  0  0  0
 10 20  1  0  0  0  0
 10  6  1  0  0  0  0
 11 23  1  6  0  0  0
 11  6  1  0  0  0  0
 13  3  1  0  0  0  0
 13 11  1  0  0  0  0
 15 24  1  0  0  0  0
 16  1  2  0  0  0  0
 18  2  1  1  0  0  0
 19 29  1  6  0  0  0
 19 18  1  0  0  0  0
 21 23  1  1  0  0  0
 21 27  1  0  0  0  0
 21 19  1  0  0  0  0
 22 13  1  0  0  0  0
 22 10  1  0  0  0  0
 22 20  1  1  0  0  0
 24  7  1  0  0  0  0
 25  3  2  0  0  0  0
 27 28  1  0  0  0  0
 28 18  1  0  0  0  0
 28  1  1  0  0  0  0
 29 31  1  1  0  0  0
 29 30  1  0  0  0  0
 32 34  1  0  0  0  0
 33 32  1  0  0  0  0
 33 34  1  0  0  0  0
M  END
>  <MODEL>
1

>  <REMARK>
 VINA RESULT:      -5.3      0.000      0.000
  Name = 
  2 active torsions:
  status: ('A' for Active; 'I' for Inactive)
    1  A    between atoms: C_3  and  C_25
    2  A    between atoms: C_5  and  C_19
                            x       y       z     vdW  Elec       q    Type
                         _______ _______ _______ _____ _____    ______ ____

>  <TORSDO>
F 2

$$$$
=
 OpenBabel10272415343D

 34 39  0  0  1  0  0  0  0  0999 V2000
  181.9430  176.7920  137.9400 C   0  0  0  0  0  0  0  0  0  0  0  0
  183.1760  177.3900  135.4320 C   0  0  0  0  0  3  0  0  0  0  0  0
  186.1480  178.3340  139.5270 C   0  0  0  0  0  0  0  0  0  0  0  0
  181.8330  178.2120  137.4220 C   0  0  1  0  0  0  0  0  0  0  0  0
  184.4820  180.5120  138.4810 O   0  0  0  0  0  1  0  0  0  0  0  0
  186.7630  177.3590  136.1180 C   0  0  1  0  0  3  0  0  0  0  0  0
  184.0090  179.1990  138.5250 C   0  0  2  0  0  3  0  0  0  0  0  0
  184.1350  177.1640  139.8090 F   0  0  0  0  0  0  0  0  0  0  0  0
  182.4590  179.2090  138.4580 C   0  0  2  0  0  3  0  0  0  0  0  0
  188.0860  177.9960  136.5080 C   0  0  1  0  0  0  0  0  0  0  0  0
  186.0040  177.1110  137.3480 N   0  0  2  0  0  0  0  0  0  0  0  0
  189.4190  177.5990  135.9110 C   0  0  0  0  0  1  0  0  0  0  0  0
  186.7480  177.7620  138.3510 N   0  0  0  0  0  0  0  0  0  0  0  0
  181.7930  179.2510  139.8340 C   0  0  0  0  0  1  0  0  0  0  0  0
  184.3840  179.1080  140.8870 F   0  0  0  0  0  0  0  0  0  0  0  0
  181.3280  176.4480  138.9870 O   0  0  0  0  0  0  0  0  0  0  0  0
  186.0530  178.2290  135.2900 O   0  0  0  0  0  1  0  0  0  0  0  0
  183.0970  175.9570  135.8630 C   0  0  1  0  0  3  0  0  0  0  0  0
  184.4550  175.2910  135.6920 C   0  0  1  0  0  3  0  0  0  0  0  0
  188.0180  179.2730  137.0870 O   0  0  0  0  0  0  0  0  0  0  0  0
  184.9170  174.8610  137.0920 C   0  0  1  0  0  3  0  0  0  0  0  0
  188.0870  178.1630  137.9590 C   0  0  2  0  0  3  0  0  0  0  0  0
  186.1190  175.6720  137.6000 C   0  0  0  0  0  2  0  0  0  0  0  0
  184.6530  178.4360  139.7030 C   0  0  0  0  0  0  0  0  0  0  0  0
  186.8970  178.7800  140.4390 O   0  0  0  0  0  0  0  0  0  0  0  0
  182.6050  178.3830  136.1250 C   0  0  0  0  0  3  0  0  0  0  0  0
  183.7280  175.0400  138.0130 C   0  0  0  0  0  2  0  0  0  0  0  0
  182.7820  175.8470  137.2750 N   0  0  0  0  0  0  0  0  0  0  0  0
  184.3880  174.1220  134.7050 C   0  0  1  0  0  3  0  0  0  0  0  0
  185.1040  173.0340  135.2040 O   0  0  0  0  0  1  0  0  0  0  0  0
  182.9630  173.6950  134.3860 C   0  0  0  0  0  1  0  0  0  0  0  0
  179.9820  179.9080  136.7320 C   0  0  0  0  0  2  0  0  0  0  0  0
  180.3510  178.4650  137.0210 C   0  0  0  0  0  3  0  0  0  0  0  0
  180.1910  178.9370  135.5850 C   0  0  0  0  0  2  0  0  0  0  0  0
  1 16  2  0  0  0  0
  2 26  2  0  0  0  0
  3 24  1  0  0  0  0
  3 25  2  0  0  0  0
  4 33  1  6  0  0  0
  4  1  1  0  0  0  0
  4  9  1  0  0  0  0
  6 17  1  6  0  0  0
  6 10  1  0  0  0  0
  6 11  1  0  0  0  0
  7  5  1  1  0  0  0
  7 24  1  0  0  0  0
  9  7  1  0  0  0  0
  9 14  1  1  0  0  0
 10 12  1  6  0  0  0
 10 20  1  0  0  0  0
 10 22  1  0  0  0  0
 11 23  1  1  0  0  0
 11 13  1  0  0  0  0
 13  3  1  0  0  0  0
 18  2  1  1  0  0  0
 18 28  1  0  0  0  0
 19 29  1  6  0  0  0
 19 18  1  0  0  0  0
 19 21  1  0  0  0  0
 21 23  1  1  0  0  0
 21 27  1  0  0  0  0
 22 20  1  6  0  0  0
 22 13  1  0  0  0  0
 24  8  1  0  0  0  0
 24 15  1  0  0  0  0
 26  4  1  0  0  0  0
 28  1  1  0  0  0  0
 28 27  1  0  0  0  0
 29 31  1  1  0  0  0
 29 30  1  0  0  0  0
 32 33  1  0  0  0  0
 34 32  1  0  0  0  0
 34 33  1  0  0  0  0
M  END
>  <MODEL>
2

>  <REMARK>
 VINA RESULT:      -4.4      3.714      7.033
  Name = 
  2 active torsions:
  status: ('A' for Active; 'I' for Inactive)
    1  A    between atoms: C_3  and  C_25
    2  A    between atoms: C_5  and  C_19
                            x       y       z     vdW  Elec       q    Type
                         _______ _______ _______ _____ _____    ______ ____

>  <TORSDO>
F 2

$$$$
=
 OpenBabel10272415343D

 34 39  0  0  1  0  0  0  0  0999 V2000
  182.7420  177.6070  136.3860 C   0  0  0  0  0  0  0  0  0  0  0  0
  184.8610  176.5130  137.9600 C   0  0  0  0  0  3  0  0  0  0  0  0
  182.4910  173.0900  134.9320 C   0  0  0  0  0  0  0  0  0  0  0  0
  182.3820  176.9960  137.7250 C   0  0  1  0  0  0  0  0  0  0  0  0
  181.5140  173.4350  137.6780 O   0  0  0  0  0  1  0  0  0  0  0  0
  185.8300  173.4470  136.2280 C   0  0  1  0  0  3  0  0  0  0  0  0
  181.9430  174.5280  136.9220 C   0  0  2  0  0  3  0  0  0  0  0  0
  182.0330  175.3750  134.6670 F   0  0  0  0  0  0  0  0  0  0  0  0
  181.3510  175.8310  137.5210 C   0  0  2  0  0  3  0  0  0  0  0  0
  185.7590  171.9550  135.9440 C   0  0  1  0  0  0  0  0  0  0  0  0
  184.7050  174.0890  135.5420 N   0  0  2  0  0  0  0  0  0  0  0  0
  186.9610  171.1100  135.5810 C   0  0  0  0  0  1  0  0  0  0  0  0
  183.9210  173.0130  135.0810 N   0  0  0  0  0  0  0  0  0  0  0  0
  180.0080  176.2260  136.9070 C   0  0  0  0  0  1  0  0  0  0  0  0
  180.3430  174.0180  135.2170 F   0  0  0  0  0  0  0  0  0  0  0  0
  181.8630  178.1980  135.7000 O   0  0  0  0  0  0  0  0  0  0  0  0
  185.7340  173.6640  137.6030 O   0  0  0  0  0  1  0  0  0  0  0  0
  185.2170  177.2980  136.7350 C   0  0  1  0  0  3  0  0  0  0  0  0
  186.2390  176.5310  135.9080 C   0  0  1  0  0  3  0  0  0  0  0  0
  184.6520  171.2720  136.4690 O   0  0  0  0  0  0  0  0  0  0  0  0
  185.5770  176.2280  134.5560 C   0  0  1  0  0  3  0  0  0  0  0  0
  184.5690  171.7160  135.1300 C   0  0  2  0  0  3  0  0  0  0  0  0
  185.2790  174.7340  134.3580 C   0  0  0  0  0  2  0  0  0  0  0  0
  181.6910  174.2730  135.4190 C   0  0  0  0  0  0  0  0  0  0  0  0
  181.8810  172.1290  134.3880 O   0  0  0  0  0  0  0  0  0  0  0  0
  183.6020  176.3900  138.3970 C   0  0  0  0  0  3  0  0  0  0  0  0
  184.2960  177.0360  134.5100 C   0  0  0  0  0  2  0  0  0  0  0  0
  184.0660  177.4750  135.8690 N   0  0  0  0  0  0  0  0  0  0  0  0
  187.5480  177.3130  135.7640 C   0  0  1  0  0  3  0  0  0  0  0  0
  187.8200  177.5460  134.4170 O   0  0  0  0  0  1  0  0  0  0  0  0
  187.5370  178.6330  136.5210 C   0  0  0  0  0  1  0  0  0  0  0  0
  182.7970  178.3210  139.9280 C   0  0  0  0  0  2  0  0  0  0  0  0
  181.9520  178.1460  138.6800 C   0  0  0  0  0  3  0  0  0  0  0  0
  182.9690  179.2720  138.7580 C   0  0  0  0  0  2  0  0  0  0  0  0
  1  4  1  0  0  0  0
  2 26  2  0  0  0  0
  3 13  1  0  0  0  0
  3 24  1  0  0  0  0
  4 26  1  0  0  0  0
  4 33  1  1  0  0  0
  6 17  1  1  0  0  0
  7  9  1  0  0  0  0
  7  5  1  1  0  0  0
  8 24  1  0  0  0  0
  9 14  1  6  0  0  0
  9  4  1  0  0  0  0
 10 12  1  6  0  0  0
 10  6  1  0  0  0  0
 10 20  1  0  0  0  0
 11 23  1  6  0  0  0
 11  6  1  0  0  0  0
 13 22  1  0  0  0  0
 13 11  1  0  0  0  0
 15 24  1  0  0  0  0
 16  1  2  0  0  0  0
 18  2  1  1  0  0  0
 19 29  1  6  0  0  0
 19 18  1  0  0  0  0
 21 23  1  1  0  0  0
 21 19  1  0  0  0  0
 22 10  1  0  0  0  0
 22 20  1  1  0  0  0
 24  7  1  0  0  0  0
 25  3  2  0  0  0  0
 27 21  1  0  0  0  0
 27 28  1  0  0  0  0
 28  1  1  0  0  0  0
 28 18  1  0  0  0  0
 29 31  1  1  0  0  0
 30 29  1  0  0  0  0
 33 34  1  0  0  0  0
 33 32  1  0  0  0  0
 34 32  1  0  0  0  0
M  END
>  <MODEL>
3

>  <REMARK>
 VINA RESULT:      -3.9      3.751      5.336
  Name = 
  2 active torsions:
  status: ('A' for Active; 'I' for Inactive)
    1  A    between atoms: C_3  and  C_25
    2  A    between atoms: C_5  and  C_19
                            x       y       z     vdW  Elec       q    Type
                         _______ _______ _______ _____ _____    ______ ____

>  <TORSDO>
F 2

$$$$
=
 OpenBabel10272415343D

 34 39  0  0  1  0  0  0  0  0999 V2000
  182.0690  173.6040  135.7890 C   0  0  0  0  0  0  0  0  0  0  0  0
  182.3930  175.5350  137.8700 C   0  0  0  0  0  3  0  0  0  0  0  0
  186.7330  174.3980  135.3470 C   0  0  0  0  0  0  0  0  0  0  0  0
  182.4780  173.1020  137.1590 C   0  0  1  0  0  0  0  0  0  0  0  0
  186.0850  172.8680  137.7670 O   0  0  0  0  0  1  0  0  0  0  0  0
  185.4670  177.3180  137.0270 C   0  0  1  0  0  3  0  0  0  0  0  0
  185.0890  173.2450  136.8630 C   0  0  2  0  0  3  0  0  0  0  0  0
  184.6800  173.6220  134.5180 F   0  0  0  0  0  0  0  0  0  0  0  0
  183.8450  172.3390  137.0620 C   0  0  2  0  0  3  0  0  0  0  0  0
  186.9670  177.5530  137.0710 C   0  0  1  0  0  0  0  0  0  0  0  0
  185.2080  176.2540  136.0520 N   0  0  2  0  0  0  0  0  0  0  0  0
  187.6030  178.9270  137.0920 C   0  0  0  0  0  1  0  0  0  0  0  0
  186.4880  175.7640  135.7260 N   0  0  0  0  0  0  0  0  0  0  0  0
  183.8550  171.0910  136.1790 C   0  0  0  0  0  1  0  0  0  0  0  0
  186.2260  172.1090  135.0890 F   0  0  0  0  0  0  0  0  0  0  0  0
  181.8090  172.7860  134.8640 O   0  0  0  0  0  0  0  0  0  0  0  0
  185.0190  176.9250  138.2880 O   0  0  0  0  0  1  0  0  0  0  0  0
  181.7960  175.9830  136.5710 C   0  0  1  0  0  3  0  0  0  0  0  0
  182.4800  177.2570  136.1000 C   0  0  1  0  0  3  0  0  0  0  0  0
  187.7510  176.4970  137.5590 O   0  0  0  0  0  0  0  0  0  0  0  0
  183.1610  176.9270  134.7630 C   0  0  1  0  0  3  0  0  0  0  0  0
  187.5930  176.6000  136.1580 C   0  0  2  0  0  3  0  0  0  0  0  0
  184.6940  176.9280  134.8570 C   0  0  0  0  0  2  0  0  0  0  0  0
  185.6680  173.3320  135.4340 C   0  0  0  0  0  0  0  0  0  0  0  0
  187.8830  174.0730  134.9420 O   0  0  0  0  0  0  0  0  0  0  0  0
  182.6860  174.2540  138.1270 C   0  0  0  0  0  3  0  0  0  0  0  0
  182.6530  175.5620  134.3460 C   0  0  0  0  0  2  0  0  0  0  0  0
  182.0230  175.0060  135.5220 N   0  0  0  0  0  0  0  0  0  0  0  0
  181.4890  178.4200  135.9890 C   0  0  1  0  0  3  0  0  0  0  0  0
  180.3290  177.9990  135.3410 O   0  0  0  0  0  1  0  0  0  0  0  0
  181.1330  179.0270  137.3380 C   0  0  0  0  0  1  0  0  0  0  0  0
  180.1720  173.1490  138.3680 C   0  0  0  0  0  2  0  0  0  0  0  0
  181.2810  172.3100  137.7590 C   0  0  0  0  0  3  0  0  0  0  0  0
  179.9820  172.5210  136.9990 C   0  0  0  0  0  2  0  0  0  0  0  0
  1  4  1  0  0  0  0
  2 26  2  0  0  0  0
  3 24  1  0  0  0  0
  3 13  1  0  0  0  0
  4 33  1  1  0  0  0
  4 26  1  0  0  0  0
  6 10  1  0  0  0  0
  6 17  1  1  0  0  0
  7  9  1  0  0  0  0
  7  5  1  1  0  0  0
  8 24  1  0  0  0  0
  9 14  1  6  0  0  0
  9  4  1  0  0  0  0
 10 12  1  1  0  0  0
 10 20  1  0  0  0  0
 11 23  1  6  0  0  0
 11  6  1  0  0  0  0
 13 11  1  0  0  0  0
 13 22  1  0  0  0  0
 15 24  1  0  0  0  0
 16  1  2  0  0  0  0
 18  2  1  1  0  0  0
 19 29  1  6  0  0  0
 19 18  1  0  0  0  0
 21 27  1  1  0  0  0
 21 23  1  0  0  0  0
 21 19  1  0  0  0  0
 22 10  1  0  0  0  0
 22 20  1  1  0  0  0
 24  7  1  0  0  0  0
 25  3  2  0  0  0  0
 27 28  1  0  0  0  0
 28  1  1  0  0  0  0
 28 18  1  0  0  0  0
 29 31  1  1  0  0  0
 30 29  1  0  0  0  0
 33 32  1  0  0  0  0
 34 33  1  0  0  0  0
 34 32  1  0  0  0  0
M  END
>  <MODEL>
4

>  <REMARK>
 VINA RESULT:      -3.7      4.127      7.570
  Name = 
  2 active torsions:
  status: ('A' for Active; 'I' for Inactive)
    1  A    between atoms: C_3  and  C_25
    2  A    between atoms: C_5  and  C_19
                            x       y       z     vdW  Elec       q    Type
                         _______ _______ _______ _____ _____    ______ ____

>  <TORSDO>
F 2

$$$$
=
 OpenBabel10272415343D

 34 39  0  0  1  0  0  0  0  0999 V2000
  181.1570  176.9680  136.5760 C   0  0  0  0  0  0  0  0  0  0  0  0
  181.1130  176.6290  139.4130 C   0  0  0  0  0  3  0  0  0  0  0  0
  185.7090  177.9630  137.5150 C   0  0  0  0  0  0  0  0  0  0  0  0
  181.5390  175.6100  137.1300 C   0  0  1  0  0  0  0  0  0  0  0  0
  185.1030  175.1080  137.8250 O   0  0  0  0  0  1  0  0  0  0  0  0
  183.9920  178.5180  140.6300 C   0  0  1  0  0  3  0  0  0  0  0  0
  184.1270  176.0110  137.3960 C   0  0  2  0  0  3  0  0  0  0  0  0
  183.8210  178.0340  136.1240 F   0  0  0  0  0  0  0  0  0  0  0  0
  182.9930  175.2360  136.6740 C   0  0  2  0  0  3  0  0  0  0  0  0
  185.4470  178.6830  141.0370 C   0  0  1  0  0  0  0  0  0  0  0  0
  183.9270  178.5710  139.1660 N   0  0  2  0  0  0  0  0  0  0  0  0
  185.9080  179.5710  142.1730 C   0  0  0  0  0  1  0  0  0  0  0  0
  185.2750  178.5450  138.7590 N   0  0  0  0  0  0  0  0  0  0  0  0
  183.2100  175.1090  135.1660 C   0  0  0  0  0  1  0  0  0  0  0  0
  185.5020  176.6720  135.5530 F   0  0  0  0  0  0  0  0  0  0  0  0
  181.0580  177.1410  135.3300 O   0  0  0  0  0  0  0  0  0  0  0  0
  183.5190  177.2860  141.0820 O   0  0  0  0  0  1  0  0  0  0  0  0
  180.5480  177.8920  138.8390 C   0  0  1  0  0  3  0  0  0  0  0  0
  181.0990  179.0940  139.5910 C   0  0  1  0  0  3  0  0  0  0  0  0
  186.3230  177.6540  140.6560 O   0  0  0  0  0  0  0  0  0  0  0  0
  181.8970  179.9260  138.5750 C   0  0  1  0  0  3  0  0  0  0  0  0
  186.2400  178.7870  139.8140 C   0  0  2  0  0  3  0  0  0  0  0  0
  183.4090  179.9020  138.8400 C   0  0  0  0  0  2  0  0  0  0  0  0
  184.7780  177.1780  136.6230 C   0  0  0  0  0  0  0  0  0  0  0  0
  186.9120  178.1000  137.1640 O   0  0  0  0  0  0  0  0  0  0  0  0
  181.5440  175.6180  138.6490 C   0  0  0  0  0  3  0  0  0  0  0  0
  181.5870  179.3500  137.2090 C   0  0  0  0  0  2  0  0  0  0  0  0
  180.9580  178.0730  137.4590 N   0  0  0  0  0  0  0  0  0  0  0  0
  179.9820  179.8960  140.2660 C   0  0  1  0  0  3  0  0  0  0  0  0
  180.0860  179.7850  141.6520 O   0  0  0  0  0  1  0  0  0  0  0  0
  179.9820  181.3650  139.8680 C   0  0  0  0  0  1  0  0  0  0  0  0
  180.8160  173.1400  136.7290 C   0  0  0  0  0  2  0  0  0  0  0  0
  180.4130  174.6040  136.7560 C   0  0  0  0  0  3  0  0  0  0  0  0
  180.0250  173.6860  137.9040 C   0  0  0  0  0  2  0  0  0  0  0  0
  1  4  1  0  0  0  0
  1 28  1  0  0  0  0
  3 13  1  0  0  0  0
  4 33  1  6  0  0  0
  4 26  1  0  0  0  0
  6 10  1  0  0  0  0
  6 17  1  6  0  0  0
  7  5  1  6  0  0  0
  8 24  1  0  0  0  0
  9 14  1  6  0  0  0
  9  4  1  0  0  0  0
  9  7  1  0  0  0  0
 10 12  1  1  0  0  0
 11 23  1  1  0  0  0
 11  6  1  0  0  0  0
 13 11  1  0  0  0  0
 13 22  1  0  0  0  0
 15 24  1  0  0  0  0
 16  1  2  0  0  0  0
 18  2  1  1  0  0  0
 18 19  1  0  0  0  0
 19 29  1  6  0  0  0
 20 10  1  0  0  0  0
 21 27  1  6  0  0  0
 21 23  1  0  0  0  0
 21 19  1  0  0  0  0
 22 20  1  1  0  0  0
 22 10  1  0  0  0  0
 24  7  1  0  0  0  0
 24  3  1  0  0  0  0
 25  3  2  0  0  0  0
 26  2  2  0  0  0  0
 27 28  1  0  0  0  0
 28 18  1  0  0  0  0
 29 31  1  1  0  0  0
 29 30  1  0  0  0  0
 32 33  1  0  0  0  0
 32 34  1  0  0  0  0
 33 34  1  0  0  0  0
M  END
>  <MODEL>
5

>  <REMARK>
 VINA RESULT:      -3.7      4.811      8.716
  Name = 
  2 active torsions:
  status: ('A' for Active; 'I' for Inactive)
    1  A    between atoms: C_3  and  C_25
    2  A    between atoms: C_5  and  C_19
                            x       y       z     vdW  Elec       q    Type
                         _______ _______ _______ _____ _____    ______ ____

>  <TORSDO>
F 2

$$$$
=
 OpenBabel10272415343D

 34 39  0  0  1  0  0  0  0  0999 V2000
  187.1820  175.9230  135.0760 C   0  0  0  0  0  0  0  0  0  0  0  0
  185.7220  173.9320  136.5150 C   0  0  0  0  0  3  0  0  0  0  0  0
  184.9760  178.7360  138.2070 C   0  0  0  0  0  0  0  0  0  0  0  0
  187.8180  175.3490  136.3270 C   0  0  1  0  0  0  0  0  0  0  0  0
  187.1010  177.1340  139.4470 O   0  0  0  0  0  1  0  0  0  0  0  0
  182.9780  175.7440  138.1040 C   0  0  1  0  0  3  0  0  0  0  0  0
  186.8530  177.0650  138.0750 C   0  0  2  0  0  3  0  0  0  0  0  0
  186.1300  178.3880  136.1950 F   0  0  0  0  0  0  0  0  0  0  0  0
  188.1060  176.4990  137.3550 C   0  0  2  0  0  3  0  0  0  0  0  0
  182.3270  176.5200  139.2360 C   0  0  1  0  0  0  0  0  0  0  0  0
  183.8430  176.6690  137.3640 N   0  0  2  0  0  0  0  0  0  0  0  0
  180.8630  176.4020  139.6030 C   0  0  0  0  0  1  0  0  0  0  0  0
  183.8540  177.8370  138.1520 N   0  0  0  0  0  0  0  0  0  0  0  0
  189.0810  177.5820  136.8920 C   0  0  0  0  0  1  0  0  0  0  0  0
  187.2050  179.4230  137.8610 F   0  0  0  0  0  0  0  0  0  0  0  0
  187.8270  176.7250  134.3460 O   0  0  0  0  0  0  0  0  0  0  0  0
  183.7410  174.7020  138.6320 O   0  0  0  0  0  1  0  0  0  0  0  0
  185.2090  174.3610  135.1750 C   0  0  1  0  0  3  0  0  0  0  0  0
  183.7200  174.6620  135.2640 C   0  0  1  0  0  3  0  0  0  0  0  0
  183.1830  177.0030  140.2360 O   0  0  0  0  0  0  0  0  0  0  0  0
  183.5470  176.1500  134.9250 C   0  0  1  0  0  3  0  0  0  0  0  0
  182.8400  177.8870  139.1890 C   0  0  2  0  0  3  0  0  0  0  0  0
  183.1150  176.9930  136.1340 C   0  0  0  0  0  2  0  0  0  0  0  0
  186.3020  178.4130  137.5610 C   0  0  0  0  0  0  0  0  0  0  0  0
  184.8560  179.8250  138.8310 O   0  0  0  0  0  0  0  0  0  0  0  0
  186.8840  174.3690  137.0160 C   0  0  0  0  0  3  0  0  0  0  0  0
  184.8820  176.6290  134.3920 C   0  0  0  0  0  2  0  0  0  0  0  0
  185.8330  175.5980  134.7420 N   0  0  0  0  0  0  0  0  0  0  0  0
  182.9040  173.7470  134.3460 C   0  0  1  0  0  3  0  0  0  0  0  0
  183.1740  172.4110  134.6420 O   0  0  0  0  0  1  0  0  0  0  0  0
  181.4060  173.9990  134.4350 C   0  0  0  0  0  1  0  0  0  0  0  0
  190.0470  174.1750  136.9840 C   0  0  0  0  0  2  0  0  0  0  0  0
  189.0340  174.4820  135.8950 C   0  0  0  0  0  3  0  0  0  0  0  0
  189.0550  173.1110  136.5510 C   0  0  0  0  0  2  0  0  0  0  0  0
  1  4  1  0  0  0  0
  2 26  2  0  0  0  0
  3 25  2  0  0  0  0
  4 33  1  6  0  0  0
  4 26  1  0  0  0  0
  4  9  1  0  0  0  0
  6 17  1  1  0  0  0
  6 10  1  0  0  0  0
  7  5  1  1  0  0  0
  8 24  1  0  0  0  0
  9 14  1  6  0  0  0
  9  7  1  0  0  0  0
 10 12  1  1  0  0  0
 10 20  1  0  0  0  0
 11 23  1  6  0  0  0
 11  6  1  0  0  0  0
 11 13  1  0  0  0  0
 13  3  1  0  0  0  0
 13 22  1  0  0  0  0
 16  1  2  0  0  0  0
 18 19  1  0  0  0  0
 18  2  1  1  0  0  0
 19 29  1  6  0  0  0
 21 27  1  1  0  0  0
 21 19  1  0  0  0  0
 21 23  1  0  0  0  0
 22 10  1  0  0  0  0
 22 20  1  1  0  0  0
 24 15  1  0  0  0  0
 24  7  1  0  0  0  0
 24  3  1  0  0  0  0
 27 28  1  0  0  0  0
 28  1  1  0  0  0  0
 28 18  1  0  0  0  0
 29 31  1  1  0  0  0
 29 30  1  0  0  0  0
 33 34  1  0  0  0  0
 33 32  1  0  0  0  0
 34 32  1  0  0  0  0
M  END
>  <MODEL>
6

>  <REMARK>
 VINA RESULT:      -3.3      3.120      6.608
  Name = 
  2 active torsions:
  status: ('A' for Active; 'I' for Inactive)
    1  A    between atoms: C_3  and  C_25
    2  A    between atoms: C_5  and  C_19
                            x       y       z     vdW  Elec       q    Type
                         _______ _______ _______ _____ _____    ______ ____

>  <TORSDO>
F 2

$$$$
=
 OpenBabel10272415343D

 34 39  0  0  1  0  0  0  0  0999 V2000
  183.0760  176.7720  135.9380 C   0  0  0  0  0  0  0  0  0  0  0  0
  185.1790  176.7700  137.8720 C   0  0  0  0  0  3  0  0  0  0  0  0
  185.0590  172.5860  134.8770 C   0  0  0  0  0  0  0  0  0  0  0  0
  182.8110  176.0940  137.2670 C   0  0  1  0  0  0  0  0  0  0  0  0
  183.6050  172.5190  137.4260 O   0  0  0  0  0  1  0  0  0  0  0  0
  187.6520  174.4200  136.5690 C   0  0  1  0  0  3  0  0  0  0  0  0
  183.6280  173.6720  136.6380 C   0  0  2  0  0  3  0  0  0  0  0  0
  183.6970  174.4210  134.3490 F   0  0  0  0  0  0  0  0  0  0  0  0
  182.4390  174.5880  137.0340 C   0  0  2  0  0  3  0  0  0  0  0  0
  188.2850  173.0480  136.4140 C   0  0  1  0  0  0  0  0  0  0  0  0
  186.4850  174.4790  135.6840 N   0  0  2  0  0  0  0  0  0  0  0  0
  189.7770  172.8180  136.2920 C   0  0  0  0  0  1  0  0  0  0  0  0
  186.3350  173.1560  135.2220 N   0  0  0  0  0  0  0  0  0  0  0  0
  181.1750  174.3290  136.2130 C   0  0  0  0  0  1  0  0  0  0  0  0
  182.7060  172.4650  134.7890 F   0  0  0  0  0  0  0  0  0  0  0  0
  182.1490  176.8950  135.0910 O   0  0  0  0  0  0  0  0  0  0  0  0
  187.2530  174.6020  137.8940 O   0  0  0  0  0  1  0  0  0  0  0  0
  185.3470  177.6050  136.6400 C   0  0  1  0  0  3  0  0  0  0  0  0
  186.7180  177.3560  136.0290 C   0  0  1  0  0  3  0  0  0  0  0  0
  187.5200  171.9540  136.8460 O   0  0  0  0  0  0  0  0  0  0  0  0
  186.4800  176.7600  134.6340 C   0  0  1  0  0  3  0  0  0  0  0  0
  187.4670  172.2860  135.4740 C   0  0  2  0  0  3  0  0  0  0  0  0
  186.9000  175.2860  134.5340 C   0  0  0  0  0  2  0  0  0  0  0  0
  183.7560  173.2990  135.1450 C   0  0  0  0  0  0  0  0  0  0  0  0
  185.0250  171.4420  134.3460 O   0  0  0  0  0  0  0  0  0  0  0  0
  184.0490  176.1090  138.1480 C   0  0  0  0  0  3  0  0  0  0  0  0
  185.0010  176.9120  134.3460 C   0  0  0  0  0  2  0  0  0  0  0  0
  184.3890  177.2320  135.6160 N   0  0  0  0  0  0  0  0  0  0  0  0
  187.5590  178.6360  135.9910 C   0  0  1  0  0  3  0  0  0  0  0  0
  187.0450  179.5720  136.8870 O   0  0  0  0  0  1  0  0  0  0  0  0
  189.0300  178.3890  136.2950 C   0  0  0  0  0  1  0  0  0  0  0  0
  181.0600  176.2500  139.1890 C   0  0  0  0  0  2  0  0  0  0  0  0
  181.7750  176.9520  138.0480 C   0  0  0  0  0  3  0  0  0  0  0  0
  182.1850  177.2250  139.4860 C   0  0  0  0  0  2  0  0  0  0  0  0
  1  4  1  0  0  0  0
  2 26  2  0  0  0  0
  3 24  1  0  0  0  0
  3 13  1  0  0  0  0
  4 33  1  1  0  0  0
  4 26  1  0  0  0  0
  6 17  1  1  0  0  0
  7  9  1  0  0  0  0
  7  5  1  1  0  0  0
  8 24  1  0  0  0  0
  9 14  1  6  0  0  0
  9  4  1  0  0  0  0
 10 12  1  6  0  0  0
 10  6  1  0  0  0  0
 10 20  1  0  0  0  0
 11 23  1  6  0  0  0
 11  6  1  0  0  0  0
 13 22  1  0  0  0  0
 13 11  1  0  0  0  0
 15 24  1  0  0  0  0
 16  1  2  0  0  0  0
 18  2  1  1  0  0  0
 19 29  1  6  0  0  0
 19 18  1  0  0  0  0
 21 27  1  1  0  0  0
 21 19  1  0  0  0  0
 22 10  1  0  0  0  0
 22 20  1  1  0  0  0
 23 21  1  0  0  0  0
 24  7  1  0  0  0  0
 25  3  2  0  0  0  0
 27 28  1  0  0  0  0
 28  1  1  0  0  0  0
 28 18  1  0  0  0  0
 29 31  1  1  0  0  0
 29 30  1  0  0  0  0
 32 34  1  0  0  0  0
 33 32  1  0  0  0  0
 33 34  1  0  0  0  0
M  END
>  <MODEL>
7

>  <REMARK>
 VINA RESULT:      -3.3      3.051      4.915
  Name = 
  2 active torsions:
  status: ('A' for Active; 'I' for Inactive)
    1  A    between atoms: C_3  and  C_25
    2  A    between atoms: C_5  and  C_19
                            x       y       z     vdW  Elec       q    Type
                         _______ _______ _______ _____ _____    ______ ____

>  <TORSDO>
F 2

$$$$
=
 OpenBabel10272415343D

 34 39  0  0  1  0  0  0  0  0999 V2000
  189.1820  176.1270  135.4170 C   0  0  0  0  0  0  0  0  0  0  0  0
  187.6650  175.3530  137.7120 C   0  0  0  0  0  3  0  0  0  0  0  0
  192.3860  177.1010  138.7880 C   0  0  0  0  0  0  0  0  0  0  0  0
  189.3540  174.7110  135.9300 C   0  0  1  0  0  0  0  0  0  0  0  0
  192.0240  174.2150  138.3920 O   0  0  0  0  0  1  0  0  0  0  0  0
  189.2220  177.1170  140.5050 C   0  0  1  0  0  3  0  0  0  0  0  0
  191.3370  175.1440  137.6070 C   0  0  2  0  0  3  0  0  0  0  0  0
  191.5400  177.3290  136.6120 F   0  0  0  0  0  0  0  0  0  0  0  0
  190.8570  174.4560  136.3010 C   0  0  2  0  0  3  0  0  0  0  0  0
  190.2060  177.2600  141.6540 C   0  0  1  0  0  0  0  0  0  0  0  0
  189.9440  177.3930  139.2590 N   0  0  2  0  0  0  0  0  0  0  0  0
  189.8880  177.9760  142.9500 C   0  0  0  0  0  1  0  0  0  0  0  0
  191.2940  177.4710  139.6510 N   0  0  0  0  0  0  0  0  0  0  0  0
  191.8590  174.5700  135.1520 C   0  0  0  0  0  1  0  0  0  0  0  0
  193.4020  176.1230  136.8990 F   0  0  0  0  0  0  0  0  0  0  0  0
  189.7450  176.4870  134.3460 O   0  0  0  0  0  0  0  0  0  0  0  0
  188.7180  175.8160  140.4830 O   0  0  0  0  0  1  0  0  0  0  0  0
  187.3610  176.6710  137.0700 C   0  0  1  0  0  3  0  0  0  0  0  0
  187.2900  177.7590  138.1310 C   0  0  1  0  0  3  0  0  0  0  0  0
  191.2560  176.3300  141.6970 O   0  0  0  0  0  0  0  0  0  0  0  0
  188.4100  178.7610  137.8150 C   0  0  1  0  0  3  0  0  0  0  0  0
  191.5130  177.5760  141.0820 C   0  0  2  0  0  3  0  0  0  0  0  0
  189.5390  178.7420  138.8570 C   0  0  0  0  0  2  0  0  0  0  0  0
  192.1680  176.4360  137.4510 C   0  0  0  0  0  0  0  0  0  0  0  0
  193.5670  177.3270  139.1670 O   0  0  0  0  0  0  0  0  0  0  0  0
  188.5450  174.4850  137.1960 C   0  0  0  0  0  3  0  0  0  0  0  0
  188.9440  178.3940  136.4460 C   0  0  0  0  0  2  0  0  0  0  0  0
  188.4220  177.0750  136.1660 N   0  0  0  0  0  0  0  0  0  0  0  0
  185.9050  178.4130  138.1740 C   0  0  1  0  0  3  0  0  0  0  0  0
  184.9720  177.5990  137.5350 O   0  0  0  0  0  1  0  0  0  0  0  0
  185.4370  178.7170  139.5900 C   0  0  0  0  0  1  0  0  0  0  0  0
  189.4290  172.4120  134.7110 C   0  0  0  0  0  2  0  0  0  0  0  0
  188.7190  173.7410  134.8930 C   0  0  0  0  0  3  0  0  0  0  0  0
  188.1480  172.4810  135.5210 C   0  0  0  0  0  2  0  0  0  0  0  0
  1  4  1  0  0  0  0
  1 28  1  0  0  0  0
  3 25  2  0  0  0  0
  3 13  1  0  0  0  0
  4 33  1  6  0  0  0
  4  9  1  0  0  0  0
  4 26  1  0  0  0  0
  6 17  1  6  0  0  0
  6 10  1  0  0  0  0
  7  5  1  6  0  0  0
  8 24  1  0  0  0  0
  9 14  1  6  0  0  0
  9  7  1  0  0  0  0
 10 20  1  0  0  0  0
 10 12  1  1  0  0  0
 11 23  1  1  0  0  0
 11 13  1  0  0  0  0
 11  6  1  0  0  0  0
 13 22  1  0  0  0  0
 15 24  1  0  0  0  0
 16  1  2  0  0  0  0
 18  2  1  1  0  0  0
 18 19  1  0  0  0  0
 19 29  1  6  0  0  0
 21 27  1  6  0  0  0
 21 19  1  0  0  0  0
 21 23  1  0  0  0  0
 22 10  1  0  0  0  0
 22 20  1  1  0  0  0
 24  7  1  0  0  0  0
 24  3  1  0  0  0  0
 26  2  2  0  0  0  0
 28 27  1  0  0  0  0
 28 18  1  0  0  0  0
 29 31  1  1  0  0  0
 30 29  1  0  0  0  0
 32 33  1  0  0  0  0
 32 34  1  0  0  0  0
 33 34  1  0  0  0  0
M  END
>  <MODEL>
8

>  <REMARK>
 VINA RESULT:      -3.3      2.507      6.509
  Name = 
  2 active torsions:
  status: ('A' for Active; 'I' for Inactive)
    1  A    between atoms: C_3  and  C_25
    2  A    between atoms: C_5  and  C_19
                            x       y       z     vdW  Elec       q    Type
                         _______ _______ _______ _____ _____    ______ ____

>  <TORSDO>
F 2

$$$$
=
 OpenBabel10272415343D

 34 39  0  0  1  0  0  0  0  0999 V2000
  187.6020  177.9700  136.4980 C   0  0  0  0  0  0  0  0  0  0  0  0
  188.3310  175.4850  137.7070 C   0  0  0  0  0  3  0  0  0  0  0  0
  183.4680  175.6720  136.0290 C   0  0  0  0  0  0  0  0  0  0  0  0
  187.3130  177.7930  137.9760 C   0  0  1  0  0  0  0  0  0  0  0  0
  184.0140  176.4320  138.8110 O   0  0  0  0  0  1  0  0  0  0  0  0
  185.9220  173.0660  136.4100 C   0  0  1  0  0  3  0  0  0  0  0  0
  184.8900  176.7830  137.7820 C   0  0  2  0  0  3  0  0  0  0  0  0
  184.9540  177.3930  135.4510 F   0  0  0  0  0  0  0  0  0  0  0  0
  185.7780  177.9690  138.2450 C   0  0  2  0  0  3  0  0  0  0  0  0
  184.6200  172.2820  136.4390 C   0  0  1  0  0  0  0  0  0  0  0  0
  185.6260  174.4090  135.8990 N   0  0  2  0  0  0  0  0  0  0  0  0
  184.4910  170.8480  135.9710 C   0  0  0  0  0  1  0  0  0  0  0  0
  184.2190  174.4570  135.8490 N   0  0  0  0  0  0  0  0  0  0  0  0
  185.1900  179.3370  137.9020 C   0  0  0  0  0  1  0  0  0  0  0  0
  183.1310  177.9270  136.6310 F   0  0  0  0  0  0  0  0  0  0  0  0
  187.3970  179.0830  135.9400 O   0  0  0  0  0  0  0  0  0  0  0  0
  186.4420  173.1550  137.7020 O   0  0  0  0  0  1  0  0  0  0  0  0
  188.7880  175.7560  136.3070 C   0  0  1  0  0  3  0  0  0  0  0  0
  188.4900  174.5540  135.4230 C   0  0  1  0  0  3  0  0  0  0  0  0
  183.6370  172.7370  137.3300 O   0  0  0  0  0  0  0  0  0  0  0  0
  187.5010  175.0280  134.3480 C   0  0  1  0  0  3  0  0  0  0  0  0
  183.5550  173.1750  135.9890 C   0  0  2  0  0  3  0  0  0  0  0  0
  186.1010  174.4180  134.5130 C   0  0  0  0  0  2  0  0  0  0  0  0
  184.1170  176.9660  136.4580 C   0  0  0  0  0  0  0  0  0  0  0  0
  182.2220  175.6540  135.8370 O   0  0  0  0  0  0  0  0  0  0  0  0
  187.6840  176.3970  138.4440 C   0  0  0  0  0  3  0  0  0  0  0  0
  187.4400  176.5380  134.4530 C   0  0  0  0  0  2  0  0  0  0  0  0
  188.0580  176.8640  135.7190 N   0  0  0  0  0  0  0  0  0  0  0  0
  189.7710  173.9600  134.8290 C   0  0  1  0  0  3  0  0  0  0  0  0
  190.5970  174.9800  134.3580 O   0  0  0  0  0  1  0  0  0  0  0  0
  190.5380  173.0950  135.8190 C   0  0  0  0  0  1  0  0  0  0  0  0
  188.4600  178.3900  140.2360 C   0  0  0  0  0  2  0  0  0  0  0  0
  188.2700  178.7290  138.7690 C   0  0  0  0  0  3  0  0  0  0  0  0
  189.5400  178.0350  139.2310 C   0  0  0  0  0  2  0  0  0  0  0  0
  1  4  1  0  0  0  0
  2 26  2  0  0  0  0
  3 24  1  0  0  0  0
  4  9  1  0  0  0  0
  4 26  1  0  0  0  0
  4 33  1  1  0  0  0
  6 10  1  0  0  0  0
  6 17  1  1  0  0  0
  7  9  1  0  0  0  0
  7  5  1  1  0  0  0
  8 24  1  0  0  0  0
  9 14  1  6  0  0  0
 10 12  1  6  0  0  0
 10 20  1  0  0  0  0
 11 23  1  6  0  0  0
 11  6  1  0  0  0  0
 13 11  1  0  0  0  0
 13 22  1  0  0  0  0
 13  3  1  0  0  0  0
 16  1  2  0  0  0  0
 18  2  1  1  0  0  0
 19 29  1  6  0  0  0
 19 18  1  0  0  0  0
 21 27  1  1  0  0  0
 21 23  1  0  0  0  0
 21 19  1  0  0  0  0
 22 10  1  0  0  0  0
 22 20  1  1  0  0  0
 24 15  1  0  0  0  0
 24  7  1  0  0  0  0
 25  3  2  0  0  0  0
 27 28  1  0  0  0  0
 28 18  1  0  0  0  0
 28  1  1  0  0  0  0
 29 31  1  1  0  0  0
 30 29  1  0  0  0  0
 33 34  1  0  0  0  0
 33 32  1  0  0  0  0
 34 32  1  0  0  0  0
M  END
>  <MODEL>
9

>  <REMARK>
 VINA RESULT:      -3.2      2.281      3.051
  Name = 
  2 active torsions:
  status: ('A' for Active; 'I' for Inactive)
    1  A    between atoms: C_3  and  C_25
    2  A    between atoms: C_5  and  C_19
                            x       y       z     vdW  Elec       q    Type
                         _______ _______ _______ _____ _____    ______ ____

>  <TORSDO>
F 2

$$$$
