=
 OpenBabel10272414303D

 43 46  0  0  1  0  0  0  0  0999 V2000
  190.7970  176.6160  139.7240 C   0  0  0  0  0  1  0  0  0  0  0  0
  187.3140  178.0280  139.1130 C   0  0  0  0  0  0  0  0  0  0  0  0
  189.0450  177.5720  141.2970 C   0  0  0  0  0  0  0  0  0  0  0  0
  184.6980  179.1450  139.4900 C   0  0  0  0  0  0  0  0  0  0  0  0
  185.5600  178.9880  140.7160 C   0  0  2  0  0  3  0  0  0  0  0  0
  183.7730  179.9410  139.4890 O   0  0  0  0  0  0  0  0  0  0  0  0
  187.7840  178.1340  141.4900 C   0  0  0  0  0  3  0  0  0  0  0  0
  186.9100  178.3610  140.4250 C   0  0  0  0  0  0  0  0  0  0  0  0
  186.4410  178.3980  137.9390 C   0  0  0  0  0  2  0  0  0  0  0  0
  188.5850  177.4550  138.8950 C   0  0  0  0  0  0  0  0  0  0  0  0
  189.4540  177.2240  139.9860 C   0  0  0  0  0  0  0  0  0  0  0  0
  184.9630  178.3110  138.2820 C   0  0  0  0  0  2  0  0  0  0  0  0
  189.0060  177.0830  137.4980 C   0  0  0  0  0  2  0  0  0  0  0  0
  187.0650  173.8910  136.8690 C   0  0  0  0  0  3  0  0  0  0  0  0
  188.0950  172.9630  136.6820 C   0  0  0  0  0  0  0  0  0  0  0  0
  189.7260  174.7290  137.0200 C   0  0  0  0  0  3  0  0  0  0  0  0
  187.3610  175.2310  137.1310 C   0  0  0  0  0  3  0  0  0  0  0  0
  188.6910  175.6520  137.2060 C   0  0  0  0  0  0  0  0  0  0  0  0
  189.4300  173.3900  136.7580 C   0  0  0  0  0  3  0  0  0  0  0  0
  187.7640  171.6300  136.4240 O   0  0  0  0  0  0  0  0  0  0  0  0
  188.2630  170.9200  135.3010 C   0  0  0  0  0  1  0  0  0  0  0  0
  189.8480  177.3740  142.4720 N   0  0  0  0  0  2  0  0  0  0  0  0
  191.2160  177.8250  142.6770 C   0  0  0  0  0  2  0  0  0  0  0  0
  191.4120  178.2230  144.1280 C   0  0  1  0  0  3  0  0  0  0  0  0
  191.8120  179.6830  144.2070 C   0  0  0  0  0  1  0  0  0  0  0  0
  190.1120  178.0130  144.8990 C   0  0  0  0  0  2  0  0  0  0  0  0
  190.2190  177.0600  146.0120 N   0  0  0  0  0  0  0  0  0  0  0  0
  189.0130  177.3450  147.2410 S   0  0  0  0  0  0  0  0  0  0  0  0
  188.5790  176.0450  147.8620 O   0  0  0  0  0  0  0  0  0  0  0  0
  189.5980  178.2260  148.3100 O   0  0  0  0  0  0  0  0  0  0  0  0
  187.6340  178.1220  146.5290 N   0  0  0  0  0  0  0  0  0  0  0  0
  185.2860  178.8080  147.0350 C   0  0  0  0  0  2  0  0  0  0  0  0
  185.9100  177.8710  144.7760 C   0  0  0  0  0  2  0  0  0  0  0  0
  185.3370  179.0750  145.5300 C   0  0  0  0  0  2  0  0  0  0  0  0
  187.0810  177.2170  145.5210 C   0  0  0  0  0  2  0  0  0  0  0  0
  186.6340  178.3130  147.5860 C   0  0  0  0  0  2  0  0  0  0  0  0
  191.5770  176.9660  146.5630 C   0  0  0  0  0  2  0  0  0  0  0  0
  192.6250  175.6730  148.0150 C   0  0  0  0  0  1  0  0  0  0  0  0
  191.9560  175.6390  146.7910 O   0  0  0  0  0  0  0  0  0  0  0  0
  184.8030  178.2710  141.8390 C   0  0  0  0  0  2  0  0  0  0  0  0
  183.2970  178.5090  141.7670 C   0  0  0  0  0  2  0  0  0  0  0  0
  182.7560  178.9070  143.1300 C   0  0  0  0  0  2  0  0  0  0  0  0
  181.2730  179.2210  143.0420 C   0  0  0  0  0  1  0  0  0  0  0  0
  1 11  1  0  0  0  0
  2  8  1  0  0  0  0
  3  7  1  0  0  0  0
  3 22  1  0  0  0  0
  4  5  1  0  0  0  0
  5 40  1  1  0  0  0
  6  4  2  0  0  0  0
  8  5  1  0  0  0  0
  8  7  2  0  0  0  0
  9 12  1  0  0  0  0
  9  2  1  0  0  0  0
 10  2  2  0  0  0  0
 10 11  1  0  0  0  0
 11  3  2  0  0  0  0
 12  4  1  0  0  0  0
 13 10  1  0  0  0  0
 14 17  1  0  0  0  0
 15 19  1  0  0  0  0
 15 14  2  0  0  0  0
 16 18  1  0  0  0  0
 17 18  2  0  0  0  0
 18 13  1  0  0  0  0
 19 16  2  0  0  0  0
 20 15  1  0  0  0  0
 21 20  1  0  0  0  0
 22 23  1  0  0  0  0
 23 24  1  0  0  0  0
 24 25  1  6  0  0  0
 24 26  1  0  0  0  0
 26 27  1  0  0  0  0
 27 37  1  0  0  0  0
 27 28  1  0  0  0  0
 28 29  2  0  0  0  0
 28 30  2  0  0  0  0
 31 28  1  0  0  0  0
 31 36  1  0  0  0  0
 32 36  1  0  0  0  0
 33 35  1  0  0  0  0
 33 34  1  0  0  0  0
 34 32  1  0  0  0  0
 35 31  1  0  0  0  0
 37 39  1  0  0  0  0
 39 38  1  0  0  0  0
 41 40  1  0  0  0  0
 41 42  1  0  0  0  0
 43 42  1  0  0  0  0
M  END
>  <MODEL>
1

>  <REMARK>
 VINA RESULT:      -8.2      0.000      0.000
  Name = 
  15 active torsions:
  status: ('A' for Active; 'I' for Inactive)
    1  A    between atoms: C_1  and  C_34
    2  A    between atoms: C_1  and  C_35
    3  A    between atoms: N_2  and  C_6
    4  A    between atoms: N_2  and  C_13
    5  A    between atoms: C_3  and  N_4
    6  A    between atoms: C_3  and  C_12
    7  A    between atoms: N_4  and  S_14
    8  A    between atoms: N_4  and  C_42
    9  A    between atoms: C_5  and  C_18
   10  A    between atoms: C_6  and  C_12
   11  A    between atoms: N_11  and  S_14
   12  A    between atoms: O_15  and  C_42
   13  A    between atoms: C_18  and  C_24
   14  A    between atoms: C_19  and  O_25
   15  A    between atoms: C_21  and  C_24
                            x       y       z     vdW  Elec       q    Type
                         _______ _______ _______ _____ _____    ______ ____

>  <TORSDO>
F 15

$$$$
=
 OpenBabel10272414303D

 43 46  0  0  1  0  0  0  0  0999 V2000
  185.1310  178.8250  138.4910 C   0  0  0  0  0  1  0  0  0  0  0  0
  184.2210  178.8930  142.1870 C   0  0  0  0  0  0  0  0  0  0  0  0
  186.5290  178.5560  140.5960 C   0  0  0  0  0  0  0  0  0  0  0  0
  184.3500  178.7620  145.0510 C   0  0  0  0  0  0  0  0  0  0  0  0
  185.6470  178.6180  144.2980 C   0  0  2  0  0  3  0  0  0  0  0  0
  184.3550  179.1060  146.2220 O   0  0  0  0  0  0  0  0  0  0  0  0
  186.6070  178.5110  141.9870 C   0  0  0  0  0  3  0  0  0  0  0  0
  185.4770  178.6680  142.7910 C   0  0  0  0  0  0  0  0  0  0  0  0
  183.0170  179.2050  143.0430 C   0  0  0  0  0  2  0  0  0  0  0  0
  184.1170  178.9390  140.7810 C   0  0  0  0  0  0  0  0  0  0  0  0
  185.2710  178.7700  139.9800 C   0  0  0  0  0  0  0  0  0  0  0  0
  183.0570  178.4630  144.3690 C   0  0  0  0  0  2  0  0  0  0  0  0
  182.7740  179.1590  140.1370 C   0  0  0  0  0  2  0  0  0  0  0  0
  181.4610  176.9970  137.3180 C   0  0  0  0  0  3  0  0  0  0  0  0
  181.5380  175.7180  137.8790 C   0  0  0  0  0  0  0  0  0  0  0  0
  182.4320  176.6850  139.9190 C   0  0  0  0  0  3  0  0  0  0  0  0
  181.8660  178.1150  138.0500 C   0  0  0  0  0  3  0  0  0  0  0  0
  182.3530  177.9610  139.3510 C   0  0  0  0  0  0  0  0  0  0  0  0
  182.0280  175.5670  139.1870 C   0  0  0  0  0  3  0  0  0  0  0  0
  181.1230  174.6210  137.1200 O   0  0  0  0  0  0  0  0  0  0  0  0
  181.1360  173.2920  137.6200 C   0  0  0  0  0  1  0  0  0  0  0  0
  187.7570  178.3670  139.8750 N   0  0  0  0  0  2  0  0  0  0  0  0
  188.6590  177.2290  139.9750 C   0  0  0  0  0  2  0  0  0  0  0  0
  189.9910  177.5740  139.3350 C   0  0  1  0  0  3  0  0  0  0  0  0
  191.1030  177.4090  140.3520 C   0  0  0  0  0  1  0  0  0  0  0  0
  190.2480  176.6470  138.1500 C   0  0  0  0  0  2  0  0  0  0  0  0
  189.0840  176.4520  137.2750 N   0  0  0  0  0  0  0  0  0  0  0  0
  188.9190  174.7920  136.7600 S   0  0  0  0  0  0  0  0  0  0  0  0
  189.0550  174.6910  135.2650 O   0  0  0  0  0  0  0  0  0  0  0  0
  189.9970  173.9670  137.4070 O   0  0  0  0  0  0  0  0  0  0  0  0
  187.3580  174.1940  137.2290 N   0  0  0  0  0  0  0  0  0  0  0  0
  185.7230  172.3720  136.7350 C   0  0  0  0  0  2  0  0  0  0  0  0
  184.9460  174.7270  137.2010 C   0  0  0  0  0  2  0  0  0  0  0  0
  184.8800  173.2640  137.6480 C   0  0  0  0  0  2  0  0  0  0  0  0
  186.3510  175.1370  136.7440 C   0  0  0  0  0  2  0  0  0  0  0  0
  187.1540  172.9050  136.5580 C   0  0  0  0  0  2  0  0  0  0  0  0
  189.0380  177.4000  136.1550 C   0  0  0  0  0  2  0  0  0  0  0  0
  187.2550  178.1440  135.0860 C   0  0  0  0  0  1  0  0  0  0  0  0
  187.9700  178.2950  136.2740 O   0  0  0  0  0  0  0  0  0  0  0  0
  186.4270  177.3840  144.7670 C   0  0  0  0  0  2  0  0  0  0  0  0
  187.7160  177.7550  145.4940 C   0  0  0  0  0  2  0  0  0  0  0  0
  187.5180  177.6840  146.9980 C   0  0  0  0  0  2  0  0  0  0  0  0
  188.8590  177.6700  147.7110 C   0  0  0  0  0  1  0  0  0  0  0  0
  1 11  1  0  0  0  0
  2  8  1  0  0  0  0
  2  9  1  0  0  0  0
  3  7  1  0  0  0  0
  4  6  2  0  0  0  0
  5 40  1  6  0  0  0
  5  4  1  0  0  0  0
  7  8  2  0  0  0  0
  8  5  1  0  0  0  0
  9 12  1  0  0  0  0
 10  2  2  0  0  0  0
 11  3  2  0  0  0  0
 11 10  1  0  0  0  0
 12  4  1  0  0  0  0
 13 10  1  0  0  0  0
 14 15  2  0  0  0  0
 14 17  1  0  0  0  0
 15 19  1  0  0  0  0
 17 18  2  0  0  0  0
 18 16  1  0  0  0  0
 18 13  1  0  0  0  0
 19 16  2  0  0  0  0
 20 21  1  0  0  0  0
 20 15  1  0  0  0  0
 22 23  1  0  0  0  0
 22  3  1  0  0  0  0
 24 23  1  0  0  0  0
 24 25  1  1  0  0  0
 26 24  1  0  0  0  0
 27 26  1  0  0  0  0
 28 31  1  0  0  0  0
 28 27  1  0  0  0  0
 28 30  2  0  0  0  0
 29 28  2  0  0  0  0
 32 34  1  0  0  0  0
 33 34  1  0  0  0  0
 35 33  1  0  0  0  0
 35 31  1  0  0  0  0
 36 32  1  0  0  0  0
 36 31  1  0  0  0  0
 37 39  1  0  0  0  0
 37 27  1  0  0  0  0
 38 39  1  0  0  0  0
 40 41  1  0  0  0  0
 41 42  1  0  0  0  0
 42 43  1  0  0  0  0
M  END
>  <MODEL>
2

>  <REMARK>
 VINA RESULT:      -8.2      3.486      7.845
  Name = 
  15 active torsions:
  status: ('A' for Active; 'I' for Inactive)
    1  A    between atoms: C_1  and  C_34
    2  A    between atoms: C_1  and  C_35
    3  A    between atoms: N_2  and  C_6
    4  A    between atoms: N_2  and  C_13
    5  A    between atoms: C_3  and  N_4
    6  A    between atoms: C_3  and  C_12
    7  A    between atoms: N_4  and  S_14
    8  A    between atoms: N_4  and  C_42
    9  A    between atoms: C_5  and  C_18
   10  A    between atoms: C_6  and  C_12
   11  A    between atoms: N_11  and  S_14
   12  A    between atoms: O_15  and  C_42
   13  A    between atoms: C_18  and  C_24
   14  A    between atoms: C_19  and  O_25
   15  A    between atoms: C_21  and  C_24
                            x       y       z     vdW  Elec       q    Type
                         _______ _______ _______ _____ _____    ______ ____

>  <TORSDO>
F 15

$$$$
=
 OpenBabel10272414303D

 43 46  0  0  1  0  0  0  0  0999 V2000
  185.4650  178.7630  138.6050 C   0  0  0  0  0  1  0  0  0  0  0  0
  184.3610  178.8500  142.2470 C   0  0  0  0  0  0  0  0  0  0  0  0
  186.7480  178.4980  140.7820 C   0  0  0  0  0  0  0  0  0  0  0  0
  184.3370  178.7310  145.1140 C   0  0  0  0  0  0  0  0  0  0  0  0
  185.6710  178.5790  144.4320 C   0  0  2  0  0  3  0  0  0  0  0  0
  184.2820  179.0810  146.2820 O   0  0  0  0  0  0  0  0  0  0  0  0
  186.7520  178.4580  142.1750 C   0  0  0  0  0  3  0  0  0  0  0  0
  185.5820  178.6230  142.9180 C   0  0  0  0  0  0  0  0  0  0  0  0
  183.1140  179.1710  143.0370 C   0  0  0  0  0  2  0  0  0  0  0  0
  184.3320  178.8910  140.8370 C   0  0  0  0  0  0  0  0  0  0  0  0
  185.5250  178.7140  140.0990 C   0  0  0  0  0  0  0  0  0  0  0  0
  183.0810  178.4350  144.3660 C   0  0  0  0  0  2  0  0  0  0  0  0
  183.0250  179.1130  140.1230 C   0  0  0  0  0  2  0  0  0  0  0  0
  182.3630  175.4980  139.2070 C   0  0  0  0  0  3  0  0  0  0  0  0
  181.8920  175.6170  137.8950 C   0  0  0  0  0  0  0  0  0  0  0  0
  182.1520  178.0270  138.0380 C   0  0  0  0  0  3  0  0  0  0  0  0
  182.7280  176.6340  139.9320 C   0  0  0  0  0  3  0  0  0  0  0  0
  182.6230  177.9000  139.3490 C   0  0  0  0  0  0  0  0  0  0  0  0
  181.7870  176.8910  137.3130 C   0  0  0  0  0  3  0  0  0  0  0  0
  181.5370  174.4600  137.1970 O   0  0  0  0  0  0  0  0  0  0  0  0
  181.8660  174.2570  135.8300 C   0  0  0  0  0  1  0  0  0  0  0  0
  188.0120  178.3010  140.1280 N   0  0  0  0  0  2  0  0  0  0  0  0
  189.0480  177.3500  140.5040 C   0  0  0  0  0  2  0  0  0  0  0  0
  190.2330  177.4860  139.5660 C   0  0  1  0  0  3  0  0  0  0  0  0
  191.5220  177.3980  140.3570 C   0  0  0  0  0  1  0  0  0  0  0  0
  190.1990  176.3680  138.5280 C   0  0  0  0  0  2  0  0  0  0  0  0
  190.4130  176.8210  137.1470 N   0  0  0  0  0  0  0  0  0  0  0  0
  188.9240  176.8910  136.2390 S   0  0  0  0  0  0  0  0  0  0  0  0
  188.2610  178.2290  136.4210 O   0  0  0  0  0  0  0  0  0  0  0  0
  189.2280  176.6910  134.7800 O   0  0  0  0  0  0  0  0  0  0  0  0
  187.8500  175.6450  136.7930 N   0  0  0  0  0  0  0  0  0  0  0  0
  187.1750  173.2850  136.3310 C   0  0  0  0  0  2  0  0  0  0  0  0
  185.4640  175.0270  136.9690 C   0  0  0  0  0  2  0  0  0  0  0  0
  186.1050  173.6880  137.3470 C   0  0  0  0  0  2  0  0  0  0  0  0
  186.4870  176.0350  136.4300 C   0  0  0  0  0  2  0  0  0  0  0  0
  188.1900  174.4110  136.0740 C   0  0  0  0  0  2  0  0  0  0  0  0
  191.4670  176.0720  136.4500 C   0  0  0  0  0  2  0  0  0  0  0  0
  193.6560  175.9790  136.1760 C   0  0  0  0  0  1  0  0  0  0  0  0
  192.6720  176.0870  137.1590 O   0  0  0  0  0  0  0  0  0  0  0  0
  186.4200  177.3450  144.9470 C   0  0  0  0  0  2  0  0  0  0  0  0
  187.6940  177.7120  145.7020 C   0  0  0  0  0  2  0  0  0  0  0  0
  187.4280  177.7680  147.1960 C   0  0  0  0  0  2  0  0  0  0  0  0
  188.7240  177.9820  147.9590 C   0  0  0  0  0  1  0  0  0  0  0  0
  1 11  1  0  0  0  0
  2  8  1  0  0  0  0
  2  9  1  0  0  0  0
  3  7  1  0  0  0  0
  4  6  2  0  0  0  0
  5 40  1  6  0  0  0
  5  4  1  0  0  0  0
  7  8  2  0  0  0  0
  8  5  1  0  0  0  0
  9 12  1  0  0  0  0
 10  2  2  0  0  0  0
 11  3  2  0  0  0  0
 11 10  1  0  0  0  0
 12  4  1  0  0  0  0
 13 10  1  0  0  0  0
 14 17  1  0  0  0  0
 15 14  2  0  0  0  0
 16 18  1  0  0  0  0
 18 17  2  0  0  0  0
 18 13  1  0  0  0  0
 19 15  1  0  0  0  0
 19 16  2  0  0  0  0
 20 15  1  0  0  0  0
 21 20  1  0  0  0  0
 22 23  1  0  0  0  0
 22  3  1  0  0  0  0
 24 25  1  1  0  0  0
 24 23  1  0  0  0  0
 26 24  1  0  0  0  0
 27 26  1  0  0  0  0
 28 29  2  0  0  0  0
 28 31  1  0  0  0  0
 28 27  1  0  0  0  0
 30 28  2  0  0  0  0
 32 34  1  0  0  0  0
 33 34  1  0  0  0  0
 35 31  1  0  0  0  0
 35 33  1  0  0  0  0
 36 32  1  0  0  0  0
 36 31  1  0  0  0  0
 37 27  1  0  0  0  0
 37 39  1  0  0  0  0
 38 39  1  0  0  0  0
 40 41  1  0  0  0  0
 41 42  1  0  0  0  0
 42 43  1  0  0  0  0
M  END
>  <MODEL>
3

>  <REMARK>
 VINA RESULT:      -8.1      3.548      7.638
  Name = 
  15 active torsions:
  status: ('A' for Active; 'I' for Inactive)
    1  A    between atoms: C_1  and  C_34
    2  A    between atoms: C_1  and  C_35
    3  A    between atoms: N_2  and  C_6
    4  A    between atoms: N_2  and  C_13
    5  A    between atoms: C_3  and  N_4
    6  A    between atoms: C_3  and  C_12
    7  A    between atoms: N_4  and  S_14
    8  A    between atoms: N_4  and  C_42
    9  A    between atoms: C_5  and  C_18
   10  A    between atoms: C_6  and  C_12
   11  A    between atoms: N_11  and  S_14
   12  A    between atoms: O_15  and  C_42
   13  A    between atoms: C_18  and  C_24
   14  A    between atoms: C_19  and  O_25
   15  A    between atoms: C_21  and  C_24
                            x       y       z     vdW  Elec       q    Type
                         _______ _______ _______ _____ _____    ______ ____

>  <TORSDO>
F 15

$$$$
=
 OpenBabel10272414303D

 43 46  0  0  1  0  0  0  0  0999 V2000
  185.8600  178.6900  138.5270 C   0  0  0  0  0  1  0  0  0  0  0  0
  184.5430  178.8580  142.0940 C   0  0  0  0  0  0  0  0  0  0  0  0
  187.0060  178.4400  140.7810 C   0  0  0  0  0  0  0  0  0  0  0  0
  184.3460  178.7890  144.9560 C   0  0  0  0  0  0  0  0  0  0  0  0
  185.7160  178.6020  144.3580 C   0  0  2  0  0  3  0  0  0  0  0  0
  184.2280  179.1590  146.1140 O   0  0  0  0  0  0  0  0  0  0  0  0
  186.9260  178.4240  142.1720 C   0  0  0  0  0  3  0  0  0  0  0  0
  185.7170  178.6220  142.8410 C   0  0  0  0  0  0  0  0  0  0  0  0
  183.2580  179.2150  142.8030 C   0  0  0  0  0  2  0  0  0  0  0  0
  184.5980  178.8750  140.6850 C   0  0  0  0  0  0  0  0  0  0  0  0
  185.8300  178.6650  140.0230 C   0  0  0  0  0  0  0  0  0  0  0  0
  183.1320  178.5010  144.1390 C   0  0  0  0  0  2  0  0  0  0  0  0
  183.3410  179.1090  139.8900 C   0  0  0  0  0  2  0  0  0  0  0  0
  182.1960  176.6270  137.2660 C   0  0  0  0  0  3  0  0  0  0  0  0
  181.9650  175.4830  138.0370 C   0  0  0  0  0  0  0  0  0  0  0  0
  182.6420  176.7040  140.0240 C   0  0  0  0  0  3  0  0  0  0  0  0
  182.6460  177.8050  137.8680 C   0  0  0  0  0  3  0  0  0  0  0  0
  182.8710  177.8450  139.2470 C   0  0  0  0  0  0  0  0  0  0  0  0
  182.1920  175.5270  139.4230 C   0  0  0  0  0  3  0  0  0  0  0  0
  181.5130  174.3220  137.4040 O   0  0  0  0  0  0  0  0  0  0  0  0
  180.3110  173.6640  137.7770 C   0  0  0  0  0  1  0  0  0  0  0  0
  188.3030  178.2100  140.2070 N   0  0  0  0  0  2  0  0  0  0  0  0
  189.2930  177.2420  140.6530 C   0  0  0  0  0  2  0  0  0  0  0  0
  190.5400  177.3520  139.7950 C   0  0  1  0  0  3  0  0  0  0  0  0
  191.7450  177.6100  140.6770 C   0  0  0  0  0  1  0  0  0  0  0  0
  190.7490  176.0530  139.0230 C   0  0  0  0  0  2  0  0  0  0  0  0
  190.9980  176.2400  137.5860 N   0  0  0  0  0  0  0  0  0  0  0  0
  190.2350  175.0030  136.6200 S   0  0  0  0  0  0  0  0  0  0  0  0
  191.1120  174.6330  135.4550 O   0  0  0  0  0  0  0  0  0  0  0  0
  190.0110  173.7820  137.4700 O   0  0  0  0  0  0  0  0  0  0  0  0
  188.7150  175.5900  136.0220 N   0  0  0  0  0  0  0  0  0  0  0  0
  187.4860  177.7070  135.5220 C   0  0  0  0  0  2  0  0  0  0  0  0
  186.3040  175.7270  136.5470 C   0  0  0  0  0  2  0  0  0  0  0  0
  186.3620  176.6840  135.3530 C   0  0  0  0  0  2  0  0  0  0  0  0
  187.6990  175.3200  137.0400 C   0  0  0  0  0  2  0  0  0  0  0  0
  188.8330  177.0430  135.8540 C   0  0  0  0  0  2  0  0  0  0  0  0
  192.4200  176.4140  137.2640 C   0  0  0  0  0  2  0  0  0  0  0  0
  193.9880  174.8660  137.4080 C   0  0  0  0  0  1  0  0  0  0  0  0
  193.2460  175.7580  138.1820 O   0  0  0  0  0  0  0  0  0  0  0  0
  186.4100  177.3640  144.9360 C   0  0  0  0  0  2  0  0  0  0  0  0
  187.2460  177.6900  146.1700 C   0  0  0  0  0  2  0  0  0  0  0  0
  188.7210  177.4670  145.8870 C   0  0  0  0  0  2  0  0  0  0  0  0
  188.9090  176.8090  144.5310 C   0  0  0  0  0  1  0  0  0  0  0  0
  1 11  1  0  0  0  0
  2  9  1  0  0  0  0
  2  8  1  0  0  0  0
  3  7  1  0  0  0  0
  4  6  2  0  0  0  0
  5 40  1  6  0  0  0
  5  4  1  0  0  0  0
  7  8  2  0  0  0  0
  8  5  1  0  0  0  0
  9 12  1  0  0  0  0
 10  2  2  0  0  0  0
 11 10  1  0  0  0  0
 11  3  2  0  0  0  0
 12  4  1  0  0  0  0
 13 10  1  0  0  0  0
 14 17  2  0  0  0  0
 14 15  1  0  0  0  0
 15 19  2  0  0  0  0
 17 18  1  0  0  0  0
 18 13  1  0  0  0  0
 18 16  2  0  0  0  0
 19 16  1  0  0  0  0
 20 21  1  0  0  0  0
 20 15  1  0  0  0  0
 22 23  1  0  0  0  0
 22  3  1  0  0  0  0
 24 23  1  0  0  0  0
 24 25  1  1  0  0  0
 26 24  1  0  0  0  0
 27 26  1  0  0  0  0
 28 30  2  0  0  0  0
 28 27  1  0  0  0  0
 29 28  2  0  0  0  0
 31 28  1  0  0  0  0
 31 35  1  0  0  0  0
 32 36  1  0  0  0  0
 33 35  1  0  0  0  0
 34 32  1  0  0  0  0
 34 33  1  0  0  0  0
 36 31  1  0  0  0  0
 37 27  1  0  0  0  0
 37 39  1  0  0  0  0
 38 39  1  0  0  0  0
 40 41  1  0  0  0  0
 42 41  1  0  0  0  0
 43 42  1  0  0  0  0
M  END
>  <MODEL>
4

>  <REMARK>
 VINA RESULT:      -8.1      3.540      7.443
  Name = 
  15 active torsions:
  status: ('A' for Active; 'I' for Inactive)
    1  A    between atoms: C_1  and  C_34
    2  A    between atoms: C_1  and  C_35
    3  A    between atoms: N_2  and  C_6
    4  A    between atoms: N_2  and  C_13
    5  A    between atoms: C_3  and  N_4
    6  A    between atoms: C_3  and  C_12
    7  A    between atoms: N_4  and  S_14
    8  A    between atoms: N_4  and  C_42
    9  A    between atoms: C_5  and  C_18
   10  A    between atoms: C_6  and  C_12
   11  A    between atoms: N_11  and  S_14
   12  A    between atoms: O_15  and  C_42
   13  A    between atoms: C_18  and  C_24
   14  A    between atoms: C_19  and  O_25
   15  A    between atoms: C_21  and  C_24
                            x       y       z     vdW  Elec       q    Type
                         _______ _______ _______ _____ _____    ______ ____

>  <TORSDO>
F 15

$$$$
=
 OpenBabel10272414303D

 43 46  0  0  1  0  0  0  0  0999 V2000
  187.7940  177.3450  136.8020 C   0  0  0  0  0  1  0  0  0  0  0  0
  184.4240  177.8210  138.5100 C   0  0  0  0  0  0  0  0  0  0  0  0
  187.1490  178.3190  139.0590 C   0  0  0  0  0  0  0  0  0  0  0  0
  182.3770  178.4550  140.4180 C   0  0  0  0  0  0  0  0  0  0  0  0
  183.7940  178.8050  140.7900 C   0  0  2  0  0  3  0  0  0  0  0  0
  181.4420  179.0210  140.9610 O   0  0  0  0  0  0  0  0  0  0  0  0
  186.1610  178.6490  139.9850 C   0  0  0  0  0  3  0  0  0  0  0  0
  184.8090  178.4050  139.7360 C   0  0  0  0  0  0  0  0  0  0  0  0
  182.9610  177.6820  138.1670 C   0  0  0  0  0  2  0  0  0  0  0  0
  185.4070  177.4750  137.5590 C   0  0  0  0  0  0  0  0  0  0  0  0
  186.7730  177.7210  137.8300 C   0  0  0  0  0  0  0  0  0  0  0  0
  182.1160  177.3970  139.3980 C   0  0  0  0  0  2  0  0  0  0  0  0
  184.9960  176.8340  136.2590 C   0  0  0  0  0  2  0  0  0  0  0  0
  185.1380  173.2000  137.3230 C   0  0  0  0  0  3  0  0  0  0  0  0
  183.9250  172.7100  136.8260 C   0  0  0  0  0  0  0  0  0  0  0  0
  183.4040  174.9190  135.9640 C   0  0  0  0  0  3  0  0  0  0  0  0
  185.4850  174.5420  137.1410 C   0  0  0  0  0  3  0  0  0  0  0  0
  184.6180  175.4030  136.4630 C   0  0  0  0  0  0  0  0  0  0  0  0
  183.0570  173.5790  136.1450 C   0  0  0  0  0  3  0  0  0  0  0  0
  183.6100  171.3630  137.0230 O   0  0  0  0  0  0  0  0  0  0  0  0
  182.7950  170.6270  136.1230 C   0  0  0  0  0  1  0  0  0  0  0  0
  188.5060  178.6050  139.4340 N   0  0  0  0  0  2  0  0  0  0  0  0
  189.0870  178.4780  140.7620 C   0  0  0  0  0  2  0  0  0  0  0  0
  189.9770  177.2500  140.8160 C   0  0  1  0  0  3  0  0  0  0  0  0
  190.8000  177.1610  139.5470 C   0  0  0  0  0  1  0  0  0  0  0  0
  190.9110  177.3450  142.0190 C   0  0  0  0  0  2  0  0  0  0  0  0
  190.2920  176.9570  143.2940 N   0  0  0  0  0  0  0  0  0  0  0  0
  190.6040  178.1200  144.5580 S   0  0  0  0  0  0  0  0  0  0  0  0
  191.8120  177.7160  145.3560 O   0  0  0  0  0  0  0  0  0  0  0  0
  190.8570  179.4660  143.9360 O   0  0  0  0  0  0  0  0  0  0  0  0
  189.2290  178.2090  145.6140 N   0  0  0  0  0  0  0  0  0  0  0  0
  188.2910  177.2180  147.7060 C   0  0  0  0  0  2  0  0  0  0  0  0
  186.8020  177.7620  145.7420 C   0  0  0  0  0  2  0  0  0  0  0  0
  187.0920  178.0340  147.2210 C   0  0  0  0  0  2  0  0  0  0  0  0
  188.0830  177.6350  144.9080 C   0  0  0  0  0  2  0  0  0  0  0  0
  189.5160  177.3820  146.7910 C   0  0  0  0  0  2  0  0  0  0  0  0
  190.6130  175.5820  143.6980 C   0  0  0  0  0  2  0  0  0  0  0  0
  192.2280  174.4440  144.6830 C   0  0  0  0  0  1  0  0  0  0  0  0
  191.9860  175.3270  143.6300 O   0  0  0  0  0  0  0  0  0  0  0  0
  184.1480  178.2790  142.1850 C   0  0  0  0  0  2  0  0  0  0  0  0
  184.5820  179.3940  143.1330 C   0  0  0  0  0  2  0  0  0  0  0  0
  183.8490  179.2800  144.4580 C   0  0  0  0  0  2  0  0  0  0  0  0
  182.4460  178.7390  144.2450 C   0  0  0  0  0  1  0  0  0  0  0  0
  1 11  1  0  0  0  0
  2  8  1  0  0  0  0
  3 22  1  0  0  0  0
  3  7  1  0  0  0  0
  4  5  1  0  0  0  0
  4  6  2  0  0  0  0
  5 40  1  1  0  0  0
  8  7  2  0  0  0  0
  8  5  1  0  0  0  0
  9  2  1  0  0  0  0
  9 12  1  0  0  0  0
 10 11  1  0  0  0  0
 10  2  2  0  0  0  0
 11  3  2  0  0  0  0
 12  4  1  0  0  0  0
 13 18  1  0  0  0  0
 13 10  1  0  0  0  0
 15 20  1  0  0  0  0
 15 14  2  0  0  0  0
 16 19  2  0  0  0  0
 16 18  1  0  0  0  0
 17 14  1  0  0  0  0
 18 17  2  0  0  0  0
 19 15  1  0  0  0  0
 21 20  1  0  0  0  0
 22 23  1  0  0  0  0
 23 24  1  0  0  0  0
 24 25  1  6  0  0  0
 24 26  1  0  0  0  0
 26 27  1  0  0  0  0
 27 37  1  0  0  0  0
 27 28  1  0  0  0  0
 28 29  2  0  0  0  0
 28 31  1  0  0  0  0
 30 28  2  0  0  0  0
 31 36  1  0  0  0  0
 33 34  1  0  0  0  0
 34 32  1  0  0  0  0
 35 31  1  0  0  0  0
 35 33  1  0  0  0  0
 36 32  1  0  0  0  0
 39 37  1  0  0  0  0
 39 38  1  0  0  0  0
 40 41  1  0  0  0  0
 41 42  1  0  0  0  0
 43 42  1  0  0  0  0
M  END
>  <MODEL>
5

>  <REMARK>
 VINA RESULT:      -8.1      2.397      3.464
  Name = 
  15 active torsions:
  status: ('A' for Active; 'I' for Inactive)
    1  A    between atoms: C_1  and  C_34
    2  A    between atoms: C_1  and  C_35
    3  A    between atoms: N_2  and  C_6
    4  A    between atoms: N_2  and  C_13
    5  A    between atoms: C_3  and  N_4
    6  A    between atoms: C_3  and  C_12
    7  A    between atoms: N_4  and  S_14
    8  A    between atoms: N_4  and  C_42
    9  A    between atoms: C_5  and  C_18
   10  A    between atoms: C_6  and  C_12
   11  A    between atoms: N_11  and  S_14
   12  A    between atoms: O_15  and  C_42
   13  A    between atoms: C_18  and  C_24
   14  A    between atoms: C_19  and  O_25
   15  A    between atoms: C_21  and  C_24
                            x       y       z     vdW  Elec       q    Type
                         _______ _______ _______ _____ _____    ______ ____

>  <TORSDO>
F 15

$$$$
=
 OpenBabel10272414303D

 43 46  0  0  1  0  0  0  0  0999 V2000
  185.3810  179.1980  141.7490 C   0  0  0  0  0  1  0  0  0  0  0  0
  186.4220  178.1060  138.2530 C   0  0  0  0  0  0  0  0  0  0  0  0
  187.5070  178.1250  140.8600 C   0  0  0  0  0  0  0  0  0  0  0  0
  187.9210  177.1050  136.0200 C   0  0  0  0  0  0  0  0  0  0  0  0
  188.5740  177.0260  137.3760 C   0  0  2  0  0  3  0  0  0  0  0  0
  188.2950  176.3760  135.1160 O   0  0  0  0  0  0  0  0  0  0  0  0
  188.2360  177.6180  139.7860 C   0  0  0  0  0  3  0  0  0  0  0  0
  187.7210  177.6060  138.4890 C   0  0  0  0  0  0  0  0  0  0  0  0
  185.7980  177.9700  136.8850 C   0  0  0  0  0  2  0  0  0  0  0  0
  185.6670  178.6280  139.3240 C   0  0  0  0  0  0  0  0  0  0  0  0
  186.2060  178.6400  140.6310 C   0  0  0  0  0  0  0  0  0  0  0  0
  186.8300  178.0940  135.7770 C   0  0  0  0  0  2  0  0  0  0  0  0
  184.2890  179.1790  139.0680 C   0  0  0  0  0  2  0  0  0  0  0  0
  182.3710  175.9550  139.5950 C   0  0  0  0  0  3  0  0  0  0  0  0
  181.4480  175.9960  138.5450 C   0  0  0  0  0  0  0  0  0  0  0  0
  182.3740  178.1260  137.8370 C   0  0  0  0  0  3  0  0  0  0  0  0
  183.2930  176.9910  139.7670 C   0  0  0  0  0  3  0  0  0  0  0  0
  183.2950  178.0780  138.8900 C   0  0  0  0  0  0  0  0  0  0  0  0
  181.4540  177.0910  137.6650 C   0  0  0  0  0  3  0  0  0  0  0  0
  180.5420  174.9430  138.4000 O   0  0  0  0  0  0  0  0  0  0  0  0
  180.6360  173.9880  137.3530 C   0  0  0  0  0  1  0  0  0  0  0  0
  188.1480  178.0970  142.1450 N   0  0  0  0  0  2  0  0  0  0  0  0
  189.5180  178.4860  142.4430 C   0  0  0  0  0  2  0  0  0  0  0  0
  190.1260  177.5040  143.4280 C   0  0  1  0  0  3  0  0  0  0  0  0
  191.5360  177.1550  142.9950 C   0  0  0  0  0  1  0  0  0  0  0  0
  190.1650  178.1290  144.8200 C   0  0  0  0  0  2  0  0  0  0  0  0
  190.2440  177.1530  145.9150 N   0  0  0  0  0  0  0  0  0  0  0  0
  189.0370  177.4420  147.1430 S   0  0  0  0  0  0  0  0  0  0  0  0
  188.6720  176.1570  147.8330 O   0  0  0  0  0  0  0  0  0  0  0  0
  189.5910  178.4030  148.1600 O   0  0  0  0  0  0  0  0  0  0  0  0
  187.6160  178.1170  146.4090 N   0  0  0  0  0  0  0  0  0  0  0  0
  185.2680  178.7930  146.9290 C   0  0  0  0  0  2  0  0  0  0  0  0
  185.8440  177.6640  144.7470 C   0  0  0  0  0  2  0  0  0  0  0  0
  185.2650  178.9190  145.4050 C   0  0  0  0  0  2  0  0  0  0  0  0
  187.0550  177.1100  145.5090 C   0  0  0  0  0  2  0  0  0  0  0  0
  186.6450  178.3820  147.4770 C   0  0  0  0  0  2  0  0  0  0  0  0
  191.5960  177.0160  146.4710 C   0  0  0  0  0  2  0  0  0  0  0  0
  192.3570  175.4170  147.7900 C   0  0  0  0  0  1  0  0  0  0  0  0
  192.0320  175.6880  146.4600 O   0  0  0  0  0  0  0  0  0  0  0  0
  189.9900  177.6110  137.3460 C   0  0  0  0  0  2  0  0  0  0  0  0
  191.0650  176.5280  137.3490 C   0  0  0  0  0  2  0  0  0  0  0  0
  191.7210  176.4340  138.7150 C   0  0  0  0  0  2  0  0  0  0  0  0
  193.2300  176.5490  138.5890 C   0  0  0  0  0  1  0  0  0  0  0  0
  2  8  2  0  0  0  0
  2 10  1  0  0  0  0
  3 22  1  0  0  0  0
  4  5  1  0  0  0  0
  5 40  1  6  0  0  0
  5  8  1  0  0  0  0
  6  4  2  0  0  0  0
  7  3  2  0  0  0  0
  8  7  1  0  0  0  0
  9  2  1  0  0  0  0
 10 11  2  0  0  0  0
 11  3  1  0  0  0  0
 11  1  1  0  0  0  0
 12  4  1  0  0  0  0
 12  9  1  0  0  0  0
 13 10  1  0  0  0  0
 14 17  1  0  0  0  0
 15 14  2  0  0  0  0
 16 18  1  0  0  0  0
 18 13  1  0  0  0  0
 18 17  2  0  0  0  0
 19 16  2  0  0  0  0
 19 15  1  0  0  0  0
 20 15  1  0  0  0  0
 21 20  1  0  0  0  0
 22 23  1  0  0  0  0
 23 24  1  0  0  0  0
 24 25  1  6  0  0  0
 24 26  1  0  0  0  0
 26 27  1  0  0  0  0
 27 37  1  0  0  0  0
 27 28  1  0  0  0  0
 28 29  2  0  0  0  0
 28 30  2  0  0  0  0
 31 28  1  0  0  0  0
 31 36  1  0  0  0  0
 32 36  1  0  0  0  0
 33 34  1  0  0  0  0
 33 35  1  0  0  0  0
 34 32  1  0  0  0  0
 35 31  1  0  0  0  0
 39 37  1  0  0  0  0
 39 38  1  0  0  0  0
 40 41  1  0  0  0  0
 41 42  1  0  0  0  0
 43 42  1  0  0  0  0
M  END
>  <MODEL>
6

>  <REMARK>
 VINA RESULT:      -7.7      2.216      5.019
  Name = 
  15 active torsions:
  status: ('A' for Active; 'I' for Inactive)
    1  A    between atoms: C_1  and  C_34
    2  A    between atoms: C_1  and  C_35
    3  A    between atoms: N_2  and  C_6
    4  A    between atoms: N_2  and  C_13
    5  A    between atoms: C_3  and  N_4
    6  A    between atoms: C_3  and  C_12
    7  A    between atoms: N_4  and  S_14
    8  A    between atoms: N_4  and  C_42
    9  A    between atoms: C_5  and  C_18
   10  A    between atoms: C_6  and  C_12
   11  A    between atoms: N_11  and  S_14
   12  A    between atoms: O_15  and  C_42
   13  A    between atoms: C_18  and  C_24
   14  A    between atoms: C_19  and  O_25
   15  A    between atoms: C_21  and  C_24
                            x       y       z     vdW  Elec       q    Type
                         _______ _______ _______ _____ _____    ______ ____

>  <TORSDO>
F 15

$$$$
=
 OpenBabel10272414303D

 43 46  0  0  1  0  0  0  0  0999 V2000
  186.1610  178.7940  140.2830 C   0  0  0  0  0  1  0  0  0  0  0  0
  189.2500  177.8810  142.3140 C   0  0  0  0  0  0  0  0  0  0  0  0
  186.4500  177.9670  142.6690 C   0  0  0  0  0  0  0  0  0  0  0  0
  191.0000  177.0850  144.4440 C   0  0  0  0  0  0  0  0  0  0  0  0
  189.5210  177.0500  144.7230 C   0  0  2  0  0  3  0  0  0  0  0  0
  191.7680  176.4160  145.1170 O   0  0  0  0  0  0  0  0  0  0  0  0
  187.2900  177.5600  143.7040 C   0  0  0  0  0  3  0  0  0  0  0  0
  188.6770  177.5170  143.5520 C   0  0  0  0  0  0  0  0  0  0  0  0
  190.7320  177.7040  142.0880 C   0  0  0  0  0  2  0  0  0  0  0  0
  188.4200  178.3010  141.2530 C   0  0  0  0  0  0  0  0  0  0  0  0
  187.0170  178.3460  141.4260 C   0  0  0  0  0  0  0  0  0  0  0  0
  191.5320  177.9570  143.3560 C   0  0  0  0  0  2  0  0  0  0  0  0
  189.0340  178.7080  139.9400 C   0  0  0  0  0  2  0  0  0  0  0  0
  190.7500  175.8200  138.1880 C   0  0  0  0  0  3  0  0  0  0  0  0
  189.7120  175.3040  137.4040 C   0  0  0  0  0  0  0  0  0  0  0  0
  188.2230  177.0080  138.2840 C   0  0  0  0  0  3  0  0  0  0  0  0
  190.5290  176.9250  139.0140 C   0  0  0  0  0  3  0  0  0  0  0  0
  189.2660  177.5190  139.0640 C   0  0  0  0  0  0  0  0  0  0  0  0
  188.4440  175.9050  137.4580 C   0  0  0  0  0  3  0  0  0  0  0  0
  189.9670  174.2000  136.5870 O   0  0  0  0  0  0  0  0  0  0  0  0
  191.1930  173.4850  136.6240 C   0  0  0  0  0  1  0  0  0  0  0  0
  185.0410  177.9840  142.9500 N   0  0  0  0  0  2  0  0  0  0  0  0
  184.1180  179.0820  142.7060 C   0  0  0  0  0  2  0  0  0  0  0  0
  182.7340  178.5310  142.4140 C   0  0  1  0  0  3  0  0  0  0  0  0
  181.7010  179.2940  143.2200 C   0  0  0  0  0  1  0  0  0  0  0  0
  182.4250  178.6790  140.9270 C   0  0  0  0  0  2  0  0  0  0  0  0
  181.0760  178.2380  140.5470 N   0  0  0  0  0  0  0  0  0  0  0  0
  181.1110  176.8680  139.4660 S   0  0  0  0  0  0  0  0  0  0  0  0
  180.9490  175.5870  140.2390 O   0  0  0  0  0  0  0  0  0  0  0  0
  179.9820  176.9890  138.4800 O   0  0  0  0  0  0  0  0  0  0  0  0
  182.6280  176.8350  138.6230 N   0  0  0  0  0  0  0  0  0  0  0  0
  183.6740  177.4420  136.4380 C   0  0  0  0  0  2  0  0  0  0  0  0
  184.3100  175.3160  137.6380 C   0  0  0  0  0  2  0  0  0  0  0  0
  184.8130  176.6510  137.0830 C   0  0  0  0  0  2  0  0  0  0  0  0
  182.9340  175.4400  138.3050 C   0  0  0  0  0  2  0  0  0  0  0  0
  182.4560  177.5740  137.3670 C   0  0  0  0  0  2  0  0  0  0  0  0
  180.2310  179.3310  140.0480 C   0  0  0  0  0  2  0  0  0  0  0  0
  180.2570  181.4430  139.4030 C   0  0  0  0  0  1  0  0  0  0  0  0
  180.9600  180.2440  139.2790 O   0  0  0  0  0  0  0  0  0  0  0  0
  189.1840  177.7820  146.0260 C   0  0  0  0  0  2  0  0  0  0  0  0
  188.1430  177.0370  146.8570 C   0  0  0  0  0  2  0  0  0  0  0  0
  187.7960  177.8280  148.1070 C   0  0  0  0  0  2  0  0  0  0  0  0
  189.0580  178.3330  148.7840 C   0  0  0  0  0  1  0  0  0  0  0  0
  1 11  1  0  0  0  0
  2  8  1  0  0  0  0
  3 22  1  0  0  0  0
  3  7  1  0  0  0  0
  4  5  1  0  0  0  0
  4  6  2  0  0  0  0
  5 40  1  1  0  0  0
  8  7  2  0  0  0  0
  8  5  1  0  0  0  0
  9  2  1  0  0  0  0
  9 12  1  0  0  0  0
 10 11  1  0  0  0  0
 10  2  2  0  0  0  0
 11  3  2  0  0  0  0
 12  4  1  0  0  0  0
 13 10  1  0  0  0  0
 14 17  1  0  0  0  0
 15 19  1  0  0  0  0
 15 14  2  0  0  0  0
 16 18  1  0  0  0  0
 17 18  2  0  0  0  0
 18 13  1  0  0  0  0
 19 16  2  0  0  0  0
 20 21  1  0  0  0  0
 20 15  1  0  0  0  0
 23 22  1  0  0  0  0
 24 23  1  0  0  0  0
 24 25  1  1  0  0  0
 26 24  1  0  0  0  0
 27 26  1  0  0  0  0
 28 29  2  0  0  0  0
 28 27  1  0  0  0  0
 30 28  2  0  0  0  0
 31 28  1  0  0  0  0
 32 34  1  0  0  0  0
 32 36  1  0  0  0  0
 33 35  1  0  0  0  0
 34 33  1  0  0  0  0
 35 31  1  0  0  0  0
 36 31  1  0  0  0  0
 37 27  1  0  0  0  0
 39 38  1  0  0  0  0
 39 37  1  0  0  0  0
 40 41  1  0  0  0  0
 41 42  1  0  0  0  0
 42 43  1  0  0  0  0
M  END
>  <MODEL>
7

>  <REMARK>
 VINA RESULT:      -7.5      3.338      8.059
  Name = 
  15 active torsions:
  status: ('A' for Active; 'I' for Inactive)
    1  A    between atoms: C_1  and  C_34
    2  A    between atoms: C_1  and  C_35
    3  A    between atoms: N_2  and  C_6
    4  A    between atoms: N_2  and  C_13
    5  A    between atoms: C_3  and  N_4
    6  A    between atoms: C_3  and  C_12
    7  A    between atoms: N_4  and  S_14
    8  A    between atoms: N_4  and  C_42
    9  A    between atoms: C_5  and  C_18
   10  A    between atoms: C_6  and  C_12
   11  A    between atoms: N_11  and  S_14
   12  A    between atoms: O_15  and  C_42
   13  A    between atoms: C_18  and  C_24
   14  A    between atoms: C_19  and  O_25
   15  A    between atoms: C_21  and  C_24
                            x       y       z     vdW  Elec       q    Type
                         _______ _______ _______ _____ _____    ______ ____

>  <TORSDO>
F 15

$$$$
=
 OpenBabel10272414303D

 43 46  0  0  1  0  0  0  0  0999 V2000
  186.9820  178.5700  140.2380 C   0  0  0  0  0  1  0  0  0  0  0  0
  188.8980  177.0850  137.3030 C   0  0  0  0  0  0  0  0  0  0  0  0
  189.2350  177.4050  140.0870 C   0  0  0  0  0  0  0  0  0  0  0  0
  190.9160  175.8360  135.6890 C   0  0  0  0  0  0  0  0  0  0  0  0
  191.1730  175.9140  137.1710 C   0  0  2  0  0  3  0  0  0  0  0  0
  191.4980  175.0080  135.0070 O   0  0  0  0  0  0  0  0  0  0  0  0
  190.2130  176.7790  139.3160 C   0  0  0  0  0  3  0  0  0  0  0  0
  190.0690  176.6170  137.9370 C   0  0  0  0  0  0  0  0  0  0  0  0
  188.6640  176.7910  135.8400 C   0  0  0  0  0  2  0  0  0  0  0  0
  187.8970  177.7250  138.0620 C   0  0  0  0  0  0  0  0  0  0  0  0
  188.0610  177.8880  139.4570 C   0  0  0  0  0  0  0  0  0  0  0  0
  189.9620  176.7880  135.0490 C   0  0  0  0  0  2  0  0  0  0  0  0
  186.6570  178.2410  137.3800 C   0  0  0  0  0  2  0  0  0  0  0  0
  184.5770  175.0860  137.1060 C   0  0  0  0  0  3  0  0  0  0  0  0
  183.3980  175.4650  137.7570 C   0  0  0  0  0  0  0  0  0  0  0  0
  184.3500  177.6590  138.1720 C   0  0  0  0  0  3  0  0  0  0  0  0
  185.6380  175.9880  136.9860 C   0  0  0  0  0  3  0  0  0  0  0  0
  185.5260  177.2740  137.5200 C   0  0  0  0  0  0  0  0  0  0  0  0
  183.2900  176.7590  138.2920 C   0  0  0  0  0  3  0  0  0  0  0  0
  182.3550  174.5390  137.8570 O   0  0  0  0  0  0  0  0  0  0  0  0
  182.0730  173.5890  136.8410 C   0  0  0  0  0  1  0  0  0  0  0  0
  189.5030  177.5250  141.4940 N   0  0  0  0  0  2  0  0  0  0  0  0
  189.5120  176.4500  142.4730 C   0  0  0  0  0  2  0  0  0  0  0  0
  190.6240  176.6840  143.4800 C   0  0  1  0  0  3  0  0  0  0  0  0
  191.7620  177.4340  142.8170 C   0  0  0  0  0  1  0  0  0  0  0  0
  190.0930  177.5040  144.6520 C   0  0  0  0  0  2  0  0  0  0  0  0
  190.1780  176.8220  145.9510 N   0  0  0  0  0  0  0  0  0  0  0  0
  188.9240  177.3400  147.0490 S   0  0  0  0  0  0  0  0  0  0  0  0
  188.3830  176.1660  147.8190 O   0  0  0  0  0  0  0  0  0  0  0  0
  189.5000  178.3360  148.0190 O   0  0  0  0  0  0  0  0  0  0  0  0
  187.6340  178.0730  146.1500 N   0  0  0  0  0  0  0  0  0  0  0  0
  185.2690  178.8430  146.3800 C   0  0  0  0  0  2  0  0  0  0  0  0
  186.0660  177.6960  144.2780 C   0  0  0  0  0  2  0  0  0  0  0  0
  185.4590  178.9730  144.8680 C   0  0  0  0  0  2  0  0  0  0  0  0
  187.1490  177.0910  145.1800 C   0  0  0  0  0  2  0  0  0  0  0  0
  186.5490  178.3750  147.0910 C   0  0  0  0  0  2  0  0  0  0  0  0
  191.5180  176.8860  146.5490 C   0  0  0  0  0  2  0  0  0  0  0  0
  192.6100  175.7100  148.0660 C   0  0  0  0  0  1  0  0  0  0  0  0
  192.0380  175.6120  146.7980 O   0  0  0  0  0  0  0  0  0  0  0  0
  192.5610  176.4930  137.4640 C   0  0  0  0  0  2  0  0  0  0  0  0
  193.4830  175.4800  138.1360 C   0  0  0  0  0  2  0  0  0  0  0  0
  194.5370  174.9900  137.1590 C   0  0  0  0  0  2  0  0  0  0  0  0
  195.1360  173.6780  137.6360 C   0  0  0  0  0  1  0  0  0  0  0  0
  2  8  2  0  0  0  0
  2 10  1  0  0  0  0
  3 22  1  0  0  0  0
  4  5  1  0  0  0  0
  5 40  1  6  0  0  0
  5  8  1  0  0  0  0
  6  4  2  0  0  0  0
  7  3  2  0  0  0  0
  8  7  1  0  0  0  0
  9  2  1  0  0  0  0
 10 11  2  0  0  0  0
 11  3  1  0  0  0  0
 11  1  1  0  0  0  0
 12  4  1  0  0  0  0
 12  9  1  0  0  0  0
 13 18  1  0  0  0  0
 13 10  1  0  0  0  0
 14 15  1  0  0  0  0
 15 20  1  0  0  0  0
 15 19  2  0  0  0  0
 16 19  1  0  0  0  0
 17 14  2  0  0  0  0
 17 18  1  0  0  0  0
 18 16  2  0  0  0  0
 21 20  1  0  0  0  0
 22 23  1  0  0  0  0
 23 24  1  0  0  0  0
 24 25  1  6  0  0  0
 24 26  1  0  0  0  0
 26 27  1  0  0  0  0
 27 37  1  0  0  0  0
 27 28  1  0  0  0  0
 28 29  2  0  0  0  0
 28 30  2  0  0  0  0
 31 28  1  0  0  0  0
 31 36  1  0  0  0  0
 32 36  1  0  0  0  0
 33 34  1  0  0  0  0
 33 35  1  0  0  0  0
 34 32  1  0  0  0  0
 35 31  1  0  0  0  0
 37 39  1  0  0  0  0
 39 38  1  0  0  0  0
 40 41  1  0  0  0  0
 42 43  1  0  0  0  0
 42 41  1  0  0  0  0
M  END
>  <MODEL>
8

>  <REMARK>
 VINA RESULT:      -7.5      2.268      5.373
  Name = 
  15 active torsions:
  status: ('A' for Active; 'I' for Inactive)
    1  A    between atoms: C_1  and  C_34
    2  A    between atoms: C_1  and  C_35
    3  A    between atoms: N_2  and  C_6
    4  A    between atoms: N_2  and  C_13
    5  A    between atoms: C_3  and  N_4
    6  A    between atoms: C_3  and  C_12
    7  A    between atoms: N_4  and  S_14
    8  A    between atoms: N_4  and  C_42
    9  A    between atoms: C_5  and  C_18
   10  A    between atoms: C_6  and  C_12
   11  A    between atoms: N_11  and  S_14
   12  A    between atoms: O_15  and  C_42
   13  A    between atoms: C_18  and  C_24
   14  A    between atoms: C_19  and  O_25
   15  A    between atoms: C_21  and  C_24
                            x       y       z     vdW  Elec       q    Type
                         _______ _______ _______ _____ _____    ______ ____

>  <TORSDO>
F 15

$$$$
=
 OpenBabel10272414303D

 43 46  0  0  1  0  0  0  0  0999 V2000
  186.0980  178.8120  138.6680 C   0  0  0  0  0  1  0  0  0  0  0  0
  184.6130  178.8540  142.1730 C   0  0  0  0  0  0  0  0  0  0  0  0
  187.1400  178.5020  140.9640 C   0  0  0  0  0  0  0  0  0  0  0  0
  184.2840  178.6930  145.0190 C   0  0  0  0  0  0  0  0  0  0  0  0
  185.6820  178.5380  144.4800 C   0  0  2  0  0  3  0  0  0  0  0  0
  184.1070  179.0250  146.1800 O   0  0  0  0  0  0  0  0  0  0  0  0
  186.9950  178.4420  142.3490 C   0  0  0  0  0  3  0  0  0  0  0  0
  185.7540  178.6060  142.9660 C   0  0  0  0  0  0  0  0  0  0  0  0
  183.2920  179.1750  142.8310 C   0  0  0  0  0  2  0  0  0  0  0  0
  184.7340  178.9160  140.7690 C   0  0  0  0  0  0  0  0  0  0  0  0
  185.9980  178.7400  140.1590 C   0  0  0  0  0  0  0  0  0  0  0  0
  183.1120  178.4190  144.1370 C   0  0  0  0  0  2  0  0  0  0  0  0
  183.5130  179.1620  139.9230 C   0  0  0  0  0  2  0  0  0  0  0  0
  182.6780  176.4180  137.4490 C   0  0  0  0  0  3  0  0  0  0  0  0
  181.9980  175.5010  138.2580 C   0  0  0  0  0  0  0  0  0  0  0  0
  182.3150  176.9720  140.1630 C   0  0  0  0  0  3  0  0  0  0  0  0
  183.1730  177.6060  137.9900 C   0  0  0  0  0  3  0  0  0  0  0  0
  182.9930  177.8850  139.3480 C   0  0  0  0  0  0  0  0  0  0  0  0
  181.8200  175.7850  139.6220 C   0  0  0  0  0  3  0  0  0  0  0  0
  181.5130  174.3220  137.6830 O   0  0  0  0  0  0  0  0  0  0  0  0
  182.1500  173.6860  136.5860 C   0  0  0  0  0  1  0  0  0  0  0  0
  188.4650  178.3040  140.4450 N   0  0  0  0  0  2  0  0  0  0  0  0
  189.2160  177.0570  140.4300 C   0  0  0  0  0  2  0  0  0  0  0  0
  189.6940  176.7650  139.0200 C   0  0  1  0  0  3  0  0  0  0  0  0
  189.7360  178.0510  138.2190 C   0  0  0  0  0  1  0  0  0  0  0  0
  191.0910  176.1530  139.0660 C   0  0  0  0  0  2  0  0  0  0  0  0
  191.3370  175.1360  138.0350 N   0  0  0  0  0  0  0  0  0  0  0  0
  192.8680  175.3710  137.2300 S   0  0  0  0  0  0  0  0  0  0  0  0
  192.6800  175.3840  135.7380 O   0  0  0  0  0  0  0  0  0  0  0  0
  193.4530  176.6890  137.6610 O   0  0  0  0  0  0  0  0  0  0  0  0
  193.9490  174.0810  137.6560 N   0  0  0  0  0  0  0  0  0  0  0  0
  196.3680  173.5920  138.0420 C   0  0  0  0  0  2  0  0  0  0  0  0
  194.8780  171.9360  136.8560 C   0  0  0  0  0  2  0  0  0  0  0  0
  195.7890  172.1760  138.0630 C   0  0  0  0  0  2  0  0  0  0  0  0
  194.0120  173.1580  136.5230 C   0  0  0  0  0  2  0  0  0  0  0  0
  195.2810  174.6640  137.8590 C   0  0  0  0  0  2  0  0  0  0  0  0
  190.2200  174.9850  137.0940 C   0  0  0  0  0  2  0  0  0  0  0  0
  189.2810  173.2530  136.0970 C   0  0  0  0  0  1  0  0  0  0  0  0
  189.4740  173.8310  137.3520 O   0  0  0  0  0  0  0  0  0  0  0  0
  186.3620  177.2900  145.0520 C   0  0  0  0  0  2  0  0  0  0  0  0
  187.6570  177.6200  145.7880 C   0  0  0  0  0  2  0  0  0  0  0  0
  187.3630  178.0470  147.2160 C   0  0  0  0  0  2  0  0  0  0  0  0
  188.2810  177.3250  148.1860 C   0  0  0  0  0  1  0  0  0  0  0  0
  1 11  1  0  0  0  0
  2  9  1  0  0  0  0
  2  8  1  0  0  0  0
  3  7  1  0  0  0  0
  4  6  2  0  0  0  0
  5  4  1  0  0  0  0
  5 40  1  6  0  0  0
  7  8  2  0  0  0  0
  8  5  1  0  0  0  0
  9 12  1  0  0  0  0
 10  2  2  0  0  0  0
 11 10  1  0  0  0  0
 11  3  2  0  0  0  0
 12  4  1  0  0  0  0
 13 10  1  0  0  0  0
 14 17  2  0  0  0  0
 14 15  1  0  0  0  0
 15 19  2  0  0  0  0
 17 18  1  0  0  0  0
 18 13  1  0  0  0  0
 18 16  2  0  0  0  0
 19 16  1  0  0  0  0
 20 15  1  0  0  0  0
 21 20  1  0  0  0  0
 22  3  1  0  0  0  0
 23 22  1  0  0  0  0
 24 25  1  6  0  0  0
 24 26  1  0  0  0  0
 24 23  1  0  0  0  0
 27 26  1  0  0  0  0
 28 31  1  0  0  0  0
 28 30  2  0  0  0  0
 28 27  1  0  0  0  0
 29 28  2  0  0  0  0
 31 36  1  0  0  0  0
 32 34  1  0  0  0  0
 33 34  1  0  0  0  0
 35 33  1  0  0  0  0
 35 31  1  0  0  0  0
 36 32  1  0  0  0  0
 37 39  1  0  0  0  0
 37 27  1  0  0  0  0
 38 39  1  0  0  0  0
 40 41  1  0  0  0  0
 41 42  1  0  0  0  0
 42 43  1  0  0  0  0
M  END
>  <MODEL>
9

>  <REMARK>
 VINA RESULT:      -7.5      3.891      8.196
  Name = 
  15 active torsions:
  status: ('A' for Active; 'I' for Inactive)
    1  A    between atoms: C_1  and  C_34
    2  A    between atoms: C_1  and  C_35
    3  A    between atoms: N_2  and  C_6
    4  A    between atoms: N_2  and  C_13
    5  A    between atoms: C_3  and  N_4
    6  A    between atoms: C_3  and  C_12
    7  A    between atoms: N_4  and  S_14
    8  A    between atoms: N_4  and  C_42
    9  A    between atoms: C_5  and  C_18
   10  A    between atoms: C_6  and  C_12
   11  A    between atoms: N_11  and  S_14
   12  A    between atoms: O_15  and  C_42
   13  A    between atoms: C_18  and  C_24
   14  A    between atoms: C_19  and  O_25
   15  A    between atoms: C_21  and  C_24
                            x       y       z     vdW  Elec       q    Type
                         _______ _______ _______ _____ _____    ______ ____

>  <TORSDO>
F 15

$$$$
