=
 OpenBabel10272401093D

 27 31  0  0  1  0  0  0  0  0999 V2000
  187.3820  178.7810  141.4690 C   0  0  0  0  0  3  0  0  0  0  0  0
  187.4580  178.0040  143.8650 C   0  0  0  0  0  0  0  0  0  0  0  0
  189.7790  177.6310  142.9700 C   0  0  0  0  0  3  0  0  0  0  0  0
  189.3450  176.6470  147.1170 N   0  0  0  0  0  0  0  0  0  0  0  0
  191.6840  175.7440  147.2880 C   0  0  0  0  0  1  0  0  0  0  0  0
  186.6950  177.7270  145.1210 C   0  0  0  0  0  3  0  0  0  0  0  0
  190.8500  177.5330  145.6600 C   0  0  0  0  0  0  0  0  0  0  0  0
  190.1390  176.1820  139.4900 C   0  0  0  0  0  3  0  0  0  0  0  0
  191.9460  177.7480  145.0790 O   0  0  0  0  0  0  0  0  0  0  0  0
  189.8290  176.9940  138.4810 C   0  0  0  0  0  3  0  0  0  0  0  0
  189.5430  178.1860  145.3440 C   0  0  2  0  0  3  0  0  0  0  0  0
  186.7690  178.3590  142.7470 C   0  0  0  0  0  0  0  0  0  0  0  0
  190.6970  176.6790  146.7780 N   0  0  0  0  0  0  0  0  0  0  0  0
  188.6960  177.4680  146.3540 C   0  0  0  0  0  0  0  0  0  0  0  0
  188.5150  178.3740  140.9040 C   0  0  0  0  0  0  0  0  0  0  0  0
  188.9550  177.9410  143.9730 C   0  0  0  0  0  0  0  0  0  0  0  0
  190.1360  176.5000  140.9250 C   0  0  0  0  0  3  0  0  0  0  0  0
  187.2750  177.4510  146.2520 N   0  0  0  0  0  0  0  0  0  0  0  0
  189.3930  178.3930  138.5660 C   0  0  0  0  0  3  0  0  0  0  0  0
  188.8200  178.9900  139.6080 C   0  0  0  0  0  3  0  0  0  0  0  0
  189.4350  177.4350  141.5660 C   0  0  0  0  0  0  0  0  0  0  0  0
  182.5170  178.6980  142.7760 C   0  0  0  0  0  3  0  0  0  0  0  0
  185.2880  178.4450  142.7530 C   0  0  0  0  0  0  0  0  0  0  0  0
  184.5350  178.0260  141.6480 C   0  0  0  0  0  3  0  0  0  0  0  0
  183.1450  178.1470  141.6580 C   0  0  0  0  0  3  0  0  0  0  0  0
  183.2590  179.1140  143.8380 N   0  0  0  0  0  0  0  0  0  0  0  0
  184.6140  179.0050  143.8470 C   0  0  0  0  0  3  0  0  0  0  0  0
  1 12  1  0  0  0  0
  2 16  1  0  0  0  0
  2  6  1  0  0  0  0
  3 16  2  0  0  0  0
  6 18  2  0  0  0  0
  7 13  1  0  0  0  0
  8 17  1  0  0  0  0
  9  7  2  0  0  0  0
 10 19  1  0  0  0  0
 10  8  2  0  0  0  0
 11 16  1  6  0  0  0
 11  7  1  0  0  0  0
 11 14  1  0  0  0  0
 12 23  1  0  0  0  0
 12  2  2  0  0  0  0
 13  4  1  0  0  0  0
 13  5  1  0  0  0  0
 14  4  2  0  0  0  0
 15  1  2  0  0  0  0
 15 21  1  0  0  0  0
 17 21  2  0  0  0  0
 18 14  1  0  0  0  0
 19 20  2  0  0  0  0
 20 15  1  0  0  0  0
 21  3  1  0  0  0  0
 22 26  1  0  0  0  0
 23 27  1  0  0  0  0
 24 25  1  0  0  0  0
 24 23  2  0  0  0  0
 25 22  2  0  0  0  0
 26 27  2  0  0  0  0
M  END
>  <MODEL>
1

>  <REMARK>
 VINA RESULT:      -9.2      0.000      0.000
  Name = 
  1 active torsions:
  status: ('A' for Active; 'I' for Inactive)
    1  A    between atoms: C_9  and  C_15
                            x       y       z     vdW  Elec       q    Type
                         _______ _______ _______ _____ _____    ______ ____

>  <TORSDO>
F 1

$$$$
=
 OpenBabel10272401093D

 27 31  0  0  1  0  0  0  0  0999 V2000
  187.5500  178.7710  140.6710 C   0  0  0  0  0  3  0  0  0  0  0  0
  187.6620  178.0960  143.0960 C   0  0  0  0  0  0  0  0  0  0  0  0
  189.9660  177.6710  142.1800 C   0  0  0  0  0  3  0  0  0  0  0  0
  189.5960  176.8670  146.3720 N   0  0  0  0  0  0  0  0  0  0  0  0
  191.9320  175.9590  146.5420 C   0  0  0  0  0  1  0  0  0  0  0  0
  186.9190  177.8770  144.3750 C   0  0  0  0  0  3  0  0  0  0  0  0
  191.0800  177.6810  144.8540 C   0  0  0  0  0  0  0  0  0  0  0  0
  190.2590  176.0730  138.7590 C   0  0  0  0  0  3  0  0  0  0  0  0
  192.1680  177.8650  144.2460 O   0  0  0  0  0  0  0  0  0  0  0  0
  189.9370  176.8430  137.7220 C   0  0  0  0  0  3  0  0  0  0  0  0
  189.7720  178.3290  144.5310 C   0  0  2  0  0  3  0  0  0  0  0  0
  186.9560  178.4070  141.9750 C   0  0  0  0  0  0  0  0  0  0  0  0
  190.9420  176.8770  146.0090 N   0  0  0  0  0  0  0  0  0  0  0  0
  188.9390  177.6590  145.5850 C   0  0  0  0  0  0  0  0  0  0  0  0
  188.6710  178.3330  140.1050 C   0  0  0  0  0  0  0  0  0  0  0  0
  189.1600  178.0290  143.1820 C   0  0  0  0  0  0  0  0  0  0  0  0
  190.2820  176.4520  140.1790 C   0  0  0  0  0  3  0  0  0  0  0  0
  187.5160  177.6470  145.5080 N   0  0  0  0  0  0  0  0  0  0  0  0
  189.5090  178.2470  137.7540 C   0  0  0  0  0  3  0  0  0  0  0  0
  188.9570  178.8910  138.7790 C   0  0  0  0  0  3  0  0  0  0  0  0
  189.5970  177.4180  140.7910 C   0  0  0  0  0  0  0  0  0  0  0  0
  182.6950  178.6030  142.0020 C   0  0  0  0  0  3  0  0  0  0  0  0
  185.4760  178.5020  142.0030 C   0  0  0  0  0  0  0  0  0  0  0  0
  184.7700  178.4360  143.2120 C   0  0  0  0  0  3  0  0  0  0  0  0
  183.3750  178.4910  143.2150 C   0  0  0  0  0  3  0  0  0  0  0  0
  183.3900  178.6530  140.8330 N   0  0  0  0  0  0  0  0  0  0  0  0
  184.7480  178.6000  140.8090 C   0  0  0  0  0  3  0  0  0  0  0  0
  1 12  1  0  0  0  0
  2 16  1  0  0  0  0
  2  6  1  0  0  0  0
  3 16  2  0  0  0  0
  6 18  2  0  0  0  0
  7 13  1  0  0  0  0
  8 17  1  0  0  0  0
  9  7  2  0  0  0  0
 10 19  1  0  0  0  0
 10  8  2  0  0  0  0
 11 16  1  6  0  0  0
 11  7  1  0  0  0  0
 11 14  1  0  0  0  0
 12 23  1  0  0  0  0
 12  2  2  0  0  0  0
 13  4  1  0  0  0  0
 13  5  1  0  0  0  0
 14  4  2  0  0  0  0
 15  1  2  0  0  0  0
 15 21  1  0  0  0  0
 17 21  2  0  0  0  0
 18 14  1  0  0  0  0
 19 20  2  0  0  0  0
 20 15  1  0  0  0  0
 21  3  1  0  0  0  0
 22 25  1  0  0  0  0
 23 24  1  0  0  0  0
 24 25  2  0  0  0  0
 26 22  2  0  0  0  0
 27 26  1  0  0  0  0
 27 23  2  0  0  0  0
M  END
>  <MODEL>
2

>  <REMARK>
 VINA RESULT:      -8.9      0.989      1.204
  Name = 
  1 active torsions:
  status: ('A' for Active; 'I' for Inactive)
    1  A    between atoms: C_9  and  C_15
                            x       y       z     vdW  Elec       q    Type
                         _______ _______ _______ _____ _____    ______ ____

>  <TORSDO>
F 1

$$$$
=
 OpenBabel10272401093D

 27 31  0  0  1  0  0  0  0  0999 V2000
  186.3500  177.3480  145.4840 C   0  0  0  0  0  3  0  0  0  0  0  0
  187.1740  177.7480  143.1370 C   0  0  0  0  0  0  0  0  0  0  0  0
  189.2310  177.2090  144.4810 C   0  0  0  0  0  3  0  0  0  0  0  0
  189.9990  177.8130  140.3100 N   0  0  0  0  0  0  0  0  0  0  0  0
  192.4870  177.6240  140.6020 C   0  0  0  0  0  1  0  0  0  0  0  0
  186.8400  178.1770  141.7440 C   0  0  0  0  0  3  0  0  0  0  0  0
  190.6890  176.5460  142.0680 C   0  0  0  0  0  0  0  0  0  0  0  0
  189.5690  178.7530  147.9230 C   0  0  0  0  0  3  0  0  0  0  0  0
  191.4640  175.9570  142.8680 O   0  0  0  0  0  0  0  0  0  0  0  0
  188.7660  178.2650  148.8670 C   0  0  0  0  0  3  0  0  0  0  0  0
  189.1960  176.5420  142.1250 C   0  0  2  0  0  3  0  0  0  0  0  0
  186.2150  177.8430  144.0980 C   0  0  0  0  0  0  0  0  0  0  0  0
  191.1200  177.2540  140.9210 N   0  0  0  0  0  0  0  0  0  0  0  0
  188.9360  177.4320  140.9440 C   0  0  0  0  0  0  0  0  0  0  0  0
  187.4290  177.3020  146.2610 C   0  0  0  0  0  0  0  0  0  0  0  0
  188.5420  177.1640  143.3380 C   0  0  0  0  0  0  0  0  0  0  0  0
  189.6790  178.3070  146.5260 C   0  0  0  0  0  3  0  0  0  0  0  0
  187.6700  178.0550  140.7500 N   0  0  0  0  0  0  0  0  0  0  0  0
  187.7880  177.1780  148.7290 C   0  0  0  0  0  3  0  0  0  0  0  0
  187.2050  176.7650  147.6070 C   0  0  0  0  0  3  0  0  0  0  0  0
  188.7650  177.6870  145.7790 C   0  0  0  0  0  0  0  0  0  0  0  0
  182.3200  179.3220  143.1840 C   0  0  0  0  0  3  0  0  0  0  0  0
  184.8700  178.3870  143.7880 C   0  0  0  0  0  0  0  0  0  0  0  0
  184.0910  178.9960  144.7820 C   0  0  0  0  0  3  0  0  0  0  0  0
  182.8130  179.4710  144.4810 C   0  0  0  0  0  3  0  0  0  0  0  0
  183.0800  178.7180  142.2300 N   0  0  0  0  0  0  0  0  0  0  0  0
  184.3260  178.2490  142.5040 C   0  0  0  0  0  3  0  0  0  0  0  0
  1 15  1  0  0  0  0
  2 16  2  0  0  0  0
  2 12  1  0  0  0  0
  3 21  2  0  0  0  0
  4 13  1  0  0  0  0
  4 14  2  0  0  0  0
  5 13  1  0  0  0  0
  6  2  1  0  0  0  0
  7 11  1  0  0  0  0
  7  9  2  0  0  0  0
  8 10  1  0  0  0  0
 11 14  1  6  0  0  0
 11 16  1  0  0  0  0
 12  1  2  0  0  0  0
 13  7  1  0  0  0  0
 15 20  2  0  0  0  0
 16  3  1  0  0  0  0
 17  8  2  0  0  0  0
 18 14  1  0  0  0  0
 18  6  2  0  0  0  0
 19 10  2  0  0  0  0
 20 19  1  0  0  0  0
 21 15  1  0  0  0  0
 21 17  1  0  0  0  0
 22 25  1  0  0  0  0
 23 12  1  0  0  0  0
 23 24  1  0  0  0  0
 25 24  2  0  0  0  0
 26 27  1  0  0  0  0
 26 22  2  0  0  0  0
 27 23  2  0  0  0  0
M  END
>  <MODEL>
3

>  <REMARK>
 VINA RESULT:      -8.7      2.515      5.252
  Name = 
  1 active torsions:
  status: ('A' for Active; 'I' for Inactive)
    1  A    between atoms: C_9  and  C_15
                            x       y       z     vdW  Elec       q    Type
                         _______ _______ _______ _____ _____    ______ ____

>  <TORSDO>
F 1

$$$$
=
 OpenBabel10272401093D

 27 31  0  0  1  0  0  0  0  0999 V2000
  187.5990  177.3140  143.9260 C   0  0  0  0  0  3  0  0  0  0  0  0
  186.7790  178.0990  141.6770 C   0  0  0  0  0  0  0  0  0  0  0  0
  189.2360  177.6530  141.3710 C   0  0  0  0  0  3  0  0  0  0  0  0
  187.2360  178.8590  137.7790 N   0  0  0  0  0  0  0  0  0  0  0  0
  189.3700  178.9410  136.4560 C   0  0  0  0  0  1  0  0  0  0  0  0
  185.6440  178.6530  140.8760 C   0  0  0  0  0  3  0  0  0  0  0  0
  188.8930  177.4780  138.4990 C   0  0  0  0  0  0  0  0  0  0  0  0
  191.6080  178.7890  144.0950 C   0  0  0  0  0  3  0  0  0  0  0  0
  190.0080  176.8940  138.5450 O   0  0  0  0  0  0  0  0  0  0  0  0
  191.5750  178.0940  145.2300 C   0  0  0  0  0  3  0  0  0  0  0  0
  187.7580  177.2840  139.4530 C   0  0  2  0  0  3  0  0  0  0  0  0
  186.6230  177.9560  143.0210 C   0  0  0  0  0  0  0  0  0  0  0  0
  188.5050  178.3700  137.4720 N   0  0  0  0  0  0  0  0  0  0  0  0
  186.8040  178.2750  138.8510 C   0  0  0  0  0  0  0  0  0  0  0  0
  188.9280  177.3050  143.8620 C   0  0  0  0  0  0  0  0  0  0  0  0
  187.9880  177.6660  140.8980 C   0  0  0  0  0  0  0  0  0  0  0  0
  190.8360  178.5360  142.8700 C   0  0  0  0  0  3  0  0  0  0  0  0
  185.6790  178.7570  139.5800 N   0  0  0  0  0  0  0  0  0  0  0  0
  190.7440  176.9210  145.5320 C   0  0  0  0  0  3  0  0  0  0  0  0
  189.5990  176.5820  144.9470 C   0  0  0  0  0  3  0  0  0  0  0  0
  189.6680  177.9070  142.7410 C   0  0  0  0  0  0  0  0  0  0  0  0
  183.0480  179.2170  144.9770 C   0  0  0  0  0  3  0  0  0  0  0  0
  185.3660  178.3660  143.6950 C   0  0  0  0  0  0  0  0  0  0  0  0
  184.1540  178.4190  142.9920 C   0  0  0  0  0  3  0  0  0  0  0  0
  182.9890  178.8410  143.6340 C   0  0  0  0  0  3  0  0  0  0  0  0
  184.2330  179.1740  145.6450 N   0  0  0  0  0  0  0  0  0  0  0  0
  185.3780  178.7670  145.0380 C   0  0  0  0  0  3  0  0  0  0  0  0
  2 12  1  0  0  0  0
  3 21  2  0  0  0  0
  4 14  2  0  0  0  0
  5 13  1  0  0  0  0
  6  2  1  0  0  0  0
  7  9  2  0  0  0  0
  8 10  1  0  0  0  0
 10 19  2  0  0  0  0
 11  7  1  6  0  0  0
 11 16  1  0  0  0  0
 12 23  1  0  0  0  0
 12  1  2  0  0  0  0
 13  4  1  0  0  0  0
 13  7  1  0  0  0  0
 14 11  1  0  0  0  0
 14 18  1  0  0  0  0
 15  1  1  0  0  0  0
 15 20  2  0  0  0  0
 16  3  1  0  0  0  0
 16  2  2  0  0  0  0
 17  8  2  0  0  0  0
 18  6  2  0  0  0  0
 20 19  1  0  0  0  0
 21 17  1  0  0  0  0
 21 15  1  0  0  0  0
 22 26  1  0  0  0  0
 23 27  1  0  0  0  0
 24 25  1  0  0  0  0
 24 23  2  0  0  0  0
 25 22  2  0  0  0  0
 27 26  2  0  0  0  0
M  END
>  <MODEL>
4

>  <REMARK>
 VINA RESULT:      -8.5      2.960      5.537
  Name = 
  1 active torsions:
  status: ('A' for Active; 'I' for Inactive)
    1  A    between atoms: C_9  and  C_15
                            x       y       z     vdW  Elec       q    Type
                         _______ _______ _______ _____ _____    ______ ____

>  <TORSDO>
F 1

$$$$
=
 OpenBabel10272401093D

 27 31  0  0  1  0  0  0  0  0999 V2000
  185.2330  179.1450  140.8200 C   0  0  0  0  0  3  0  0  0  0  0  0
  187.5330  178.1210  140.9120 C   0  0  0  0  0  0  0  0  0  0  0  0
  186.9170  178.1570  138.4730 C   0  0  0  0  0  3  0  0  0  0  0  0
  190.8610  176.6670  139.2400 N   0  0  0  0  0  0  0  0  0  0  0  0
  191.2480  176.0660  136.8310 C   0  0  0  0  0  1  0  0  0  0  0  0
  188.6470  177.6080  141.7670 C   0  0  0  0  0  3  0  0  0  0  0  0
  189.7030  177.9000  137.7190 C   0  0  0  0  0  0  0  0  0  0  0  0
  183.3930  177.1670  137.5070 C   0  0  0  0  0  3  0  0  0  0  0  0
  189.2930  178.3200  136.6050 O   0  0  0  0  0  0  0  0  0  0  0  0
  182.4330  178.0380  137.8110 C   0  0  0  0  0  3  0  0  0  0  0  0
  189.2820  178.4080  139.0610 C   0  0  2  0  0  3  0  0  0  0  0  0
  186.3740  178.5060  141.5100 C   0  0  0  0  0  0  0  0  0  0  0  0
  190.7050  176.9140  137.8770 N   0  0  0  0  0  0  0  0  0  0  0  0
  190.1000  177.4760  139.9070 C   0  0  0  0  0  0  0  0  0  0  0  0
  184.7840  178.9550  139.5830 C   0  0  0  0  0  0  0  0  0  0  0  0
  187.8290  178.2430  139.4450 C   0  0  0  0  0  0  0  0  0  0  0  0
  184.8390  177.3190  137.7230 C   0  0  0  0  0  3  0  0  0  0  0  0
  189.8130  177.2850  141.2890 N   0  0  0  0  0  0  0  0  0  0  0  0
  182.5930  179.3500  138.4510 C   0  0  0  0  0  3  0  0  0  0  0  0
  183.6030  179.7460  139.2210 C   0  0  0  0  0  3  0  0  0  0  0  0
  185.4680  178.0770  138.6210 C   0  0  0  0  0  0  0  0  0  0  0  0
  185.7710  178.1660  145.7190 C   0  0  0  0  0  3  0  0  0  0  0  0
  186.1950  178.3960  142.9790 C   0  0  0  0  0  0  0  0  0  0  0  0
  186.9380  177.4750  143.7300 C   0  0  0  0  0  3  0  0  0  0  0  0
  186.7320  177.3600  145.1060 C   0  0  0  0  0  3  0  0  0  0  0  0
  185.0460  179.0470  144.9790 N   0  0  0  0  0  0  0  0  0  0  0  0
  185.2320  179.1720  143.6380 C   0  0  0  0  0  3  0  0  0  0  0  0
  1 12  1  0  0  0  0
  2 12  2  0  0  0  0
  2  6  1  0  0  0  0
  3 21  1  0  0  0  0
  3 16  2  0  0  0  0
  4 14  2  0  0  0  0
  5 13  1  0  0  0  0
  7 13  1  0  0  0  0
  8 17  1  0  0  0  0
  8 10  2  0  0  0  0
  9  7  2  0  0  0  0
 10 19  1  0  0  0  0
 11  7  1  6  0  0  0
 11 16  1  0  0  0  0
 11 14  1  0  0  0  0
 12 23  1  0  0  0  0
 13  4  1  0  0  0  0
 14 18  1  0  0  0  0
 15  1  2  0  0  0  0
 16  2  1  0  0  0  0
 17 21  2  0  0  0  0
 18  6  2  0  0  0  0
 19 20  2  0  0  0  0
 20 15  1  0  0  0  0
 21 15  1  0  0  0  0
 23 27  2  0  0  0  0
 23 24  1  0  0  0  0
 24 25  2  0  0  0  0
 25 22  1  0  0  0  0
 26 22  2  0  0  0  0
 27 26  1  0  0  0  0
M  END
>  <MODEL>
5

>  <REMARK>
 VINA RESULT:      -8.5      3.653      5.822
  Name = 
  1 active torsions:
  status: ('A' for Active; 'I' for Inactive)
    1  A    between atoms: C_9  and  C_15
                            x       y       z     vdW  Elec       q    Type
                         _______ _______ _______ _____ _____    ______ ____

>  <TORSDO>
F 1

$$$$
=
 OpenBabel10272401093D

 27 31  0  0  1  0  0  0  0  0999 V2000
  186.7470  178.8630  144.2340 C   0  0  0  0  0  3  0  0  0  0  0  0
  188.3490  177.6450  142.7190 C   0  0  0  0  0  0  0  0  0  0  0  0
  186.4490  178.3660  141.2360 C   0  0  0  0  0  3  0  0  0  0  0  0
  189.6150  176.3750  139.1460 N   0  0  0  0  0  0  0  0  0  0  0  0
  188.3640  176.3830  136.9670 C   0  0  0  0  0  1  0  0  0  0  0  0
  189.5970  176.8290  142.6050 C   0  0  0  0  0  3  0  0  0  0  0  0
  188.1090  178.0590  138.8820 C   0  0  0  0  0  0  0  0  0  0  0  0
  182.9180  177.9840  142.5490 C   0  0  0  0  0  3  0  0  0  0  0  0
  187.2340  178.7880  138.3440 O   0  0  0  0  0  0  0  0  0  0  0  0
  182.5530  178.8320  143.5090 C   0  0  0  0  0  3  0  0  0  0  0  0
  188.6870  178.2400  140.2490 C   0  0  2  0  0  3  0  0  0  0  0  0
  187.8890  177.9660  143.9580 C   0  0  0  0  0  0  0  0  0  0  0  0
  188.7510  176.9780  138.2320 N   0  0  0  0  0  0  0  0  0  0  0  0
  189.6030  177.0510  140.2510 C   0  0  0  0  0  0  0  0  0  0  0  0
  185.6290  179.0420  143.5370 C   0  0  0  0  0  0  0  0  0  0  0  0
  187.7460  178.1140  141.4260 C   0  0  0  0  0  0  0  0  0  0  0  0
  184.2020  177.9430  141.8340 C   0  0  0  0  0  3  0  0  0  0  0  0
  190.1470  176.5360  141.4630 N   0  0  0  0  0  0  0  0  0  0  0  0
  183.3560  179.9140  144.0930 C   0  0  0  0  0  3  0  0  0  0  0  0
  184.6830  180.0040  144.1120 C   0  0  0  0  0  3  0  0  0  0  0  0
  185.3920  178.3830  142.2420 C   0  0  0  0  0  0  0  0  0  0  0  0
  189.9480  176.6960  147.4710 C   0  0  0  0  0  3  0  0  0  0  0  0
  188.5870  177.4970  145.1810 C   0  0  0  0  0  0  0  0  0  0  0  0
  187.8870  177.2900  146.3770 C   0  0  0  0  0  3  0  0  0  0  0  0
  188.5660  176.8830  147.5270 C   0  0  0  0  0  3  0  0  0  0  0  0
  190.6190  176.9130  146.3080 N   0  0  0  0  0  0  0  0  0  0  0  0
  189.9760  177.3100  145.1780 C   0  0  0  0  0  3  0  0  0  0  0  0
  2 12  2  0  0  0  0
  3 16  2  0  0  0  0
  3 21  1  0  0  0  0
  4 14  2  0  0  0  0
  5 13  1  0  0  0  0
  6  2  1  0  0  0  0
  8 10  2  0  0  0  0
  9  7  2  0  0  0  0
 10 19  1  0  0  0  0
 11  7  1  6  0  0  0
 11 14  1  0  0  0  0
 11 16  1  0  0  0  0
 12  1  1  0  0  0  0
 12 23  1  0  0  0  0
 13  7  1  0  0  0  0
 13  4  1  0  0  0  0
 14 18  1  0  0  0  0
 15 20  1  0  0  0  0
 15  1  2  0  0  0  0
 16  2  1  0  0  0  0
 17 21  2  0  0  0  0
 17  8  1  0  0  0  0
 18  6  2  0  0  0  0
 19 20  2  0  0  0  0
 21 15  1  0  0  0  0
 22 25  1  0  0  0  0
 23 24  1  0  0  0  0
 24 25  2  0  0  0  0
 26 22  2  0  0  0  0
 27 23  2  0  0  0  0
 27 26  1  0  0  0  0
M  END
>  <MODEL>
6

>  <REMARK>
 VINA RESULT:      -8.4      3.040      6.532
  Name = 
  1 active torsions:
  status: ('A' for Active; 'I' for Inactive)
    1  A    between atoms: C_9  and  C_15
                            x       y       z     vdW  Elec       q    Type
                         _______ _______ _______ _____ _____    ______ ____

>  <TORSDO>
F 1

$$$$
=
 OpenBabel10272401093D

 27 31  0  0  1  0  0  0  0  0999 V2000
  191.2560  177.2880  140.2360 C   0  0  0  0  0  3  0  0  0  0  0  0
  189.5320  176.8500  138.4510 C   0  0  0  0  0  0  0  0  0  0  0  0
  188.2400  177.7250  140.4240 C   0  0  0  0  0  3  0  0  0  0  0  0
  185.8210  176.9630  136.9710 N   0  0  0  0  0  0  0  0  0  0  0  0
  183.6840  177.4800  138.1860 C   0  0  0  0  0  1  0  0  0  0  0  0
  189.2430  176.2970  137.0920 C   0  0  0  0  0  3  0  0  0  0  0  0
  186.0060  178.4130  138.7130 C   0  0  0  0  0  0  0  0  0  0  0  0
  189.1640  176.4530  143.8690 C   0  0  0  0  0  3  0  0  0  0  0  0
  185.6720  179.1440  139.6830 O   0  0  0  0  0  0  0  0  0  0  0  0
  190.3160  176.8940  144.3690 C   0  0  0  0  0  3  0  0  0  0  0  0
  187.3920  178.2340  138.1830 C   0  0  2  0  0  3  0  0  0  0  0  0
  190.7810  176.6960  138.9680 C   0  0  0  0  0  0  0  0  0  0  0  0
  185.0910  177.6950  137.9070 N   0  0  0  0  0  0  0  0  0  0  0  0
  187.0780  177.2470  137.0960 C   0  0  0  0  0  0  0  0  0  0  0  0
  190.5850  177.5170  141.3610 C   0  0  0  0  0  0  0  0  0  0  0  0
  188.4160  177.6120  139.1060 C   0  0  0  0  0  0  0  0  0  0  0  0
  188.5470  176.8210  142.5870 C   0  0  0  0  0  3  0  0  0  0  0  0
  188.1000  176.4600  136.4930 N   0  0  0  0  0  0  0  0  0  0  0  0
  191.2530  177.8390  143.7460 C   0  0  0  0  0  3  0  0  0  0  0  0
  191.3740  178.1050  142.4480 C   0  0  0  0  0  3  0  0  0  0  0  0
  189.1380  177.2740  141.4810 C   0  0  0  0  0  0  0  0  0  0  0  0
  193.8690  174.6110  136.8910 C   0  0  0  0  0  3  0  0  0  0  0  0
  191.8370  175.9690  138.2190 C   0  0  0  0  0  0  0  0  0  0  0  0
  191.6100  174.6780  137.7210 C   0  0  0  0  0  3  0  0  0  0  0  0
  192.6260  173.9960  137.0500 C   0  0  0  0  0  3  0  0  0  0  0  0
  194.0820  175.8580  137.3900 N   0  0  0  0  0  0  0  0  0  0  0  0
  193.1060  176.5380  138.0470 C   0  0  0  0  0  3  0  0  0  0  0  0
  1 15  1  0  0  0  0
  2 12  1  0  0  0  0
  2 16  2  0  0  0  0
  3 21  2  0  0  0  0
  4 14  2  0  0  0  0
  4 13  1  0  0  0  0
  6  2  1  0  0  0  0
  7  9  2  0  0  0  0
  8 10  1  0  0  0  0
 11 14  1  6  0  0  0
 11  7  1  0  0  0  0
 11 16  1  0  0  0  0
 12  1  2  0  0  0  0
 13  5  1  0  0  0  0
 13  7  1  0  0  0  0
 15 21  1  0  0  0  0
 15 20  2  0  0  0  0
 16  3  1  0  0  0  0
 17  8  2  0  0  0  0
 18  6  2  0  0  0  0
 18 14  1  0  0  0  0
 19 10  2  0  0  0  0
 20 19  1  0  0  0  0
 21 17  1  0  0  0  0
 22 25  2  0  0  0  0
 22 26  1  0  0  0  0
 23 12  1  0  0  0  0
 24 23  2  0  0  0  0
 25 24  1  0  0  0  0
 26 27  2  0  0  0  0
 27 23  1  0  0  0  0
M  END
>  <MODEL>
7

>  <REMARK>
 VINA RESULT:      -8.4      4.434      8.168
  Name = 
  1 active torsions:
  status: ('A' for Active; 'I' for Inactive)
    1  A    between atoms: C_9  and  C_15
                            x       y       z     vdW  Elec       q    Type
                         _______ _______ _______ _____ _____    ______ ____

>  <TORSDO>
F 1

$$$$
=
 OpenBabel10272401093D

 27 31  0  0  1  0  0  0  0  0999 V2000
  183.5730  178.8400  142.5860 C   0  0  0  0  0  3  0  0  0  0  0  0
  185.9610  178.2790  142.0100 C   0  0  0  0  0  0  0  0  0  0  0  0
  184.6860  178.0600  139.8520 C   0  0  0  0  0  3  0  0  0  0  0  0
  188.8990  177.3920  139.4480 N   0  0  0  0  0  0  0  0  0  0  0  0
  188.7010  176.7400  137.0300 C   0  0  0  0  0  1  0  0  0  0  0  0
  187.3500  178.0360  142.5070 C   0  0  0  0  0  3  0  0  0  0  0  0
  187.1380  178.2940  138.3270 C   0  0  0  0  0  0  0  0  0  0  0  0
  181.3020  176.3640  139.9430 C   0  0  0  0  0  3  0  0  0  0  0  0
  186.3550  178.5650  137.3790 O   0  0  0  0  0  0  0  0  0  0  0  0
  180.3140  177.0530  140.5110 C   0  0  0  0  0  3  0  0  0  0  0  0
  187.0220  178.7880  139.7330 C   0  0  2  0  0  3  0  0  0  0  0  0
  184.9650  178.4690  142.9170 C   0  0  0  0  0  0  0  0  0  0  0  0
  188.3190  177.5270  138.1880 N   0  0  0  0  0  0  0  0  0  0  0  0
  188.2140  178.0780  140.3070 C   0  0  0  0  0  0  0  0  0  0  0  0
  182.8390  178.4990  141.5310 C   0  0  0  0  0  0  0  0  0  0  0  0
  185.7990  178.3720  140.5200 C   0  0  0  0  0  0  0  0  0  0  0  0
  182.6890  176.8000  139.7320 C   0  0  0  0  0  3  0  0  0  0  0  0
  188.3730  177.9150  141.7130 N   0  0  0  0  0  0  0  0  0  0  0  0
  180.3850  178.4060  141.0790 C   0  0  0  0  0  3  0  0  0  0  0  0
  181.4720  179.0290  141.5250 C   0  0  0  0  0  3  0  0  0  0  0  0
  183.3840  177.7140  140.4110 C   0  0  0  0  0  0  0  0  0  0  0  0
  185.6640  178.2480  147.1190 C   0  0  0  0  0  3  0  0  0  0  0  0
  185.2350  178.4100  144.3750 C   0  0  0  0  0  0  0  0  0  0  0  0
  186.4160  177.8390  144.8690 C   0  0  0  0  0  3  0  0  0  0  0  0
  186.6360  177.7600  146.2450 C   0  0  0  0  0  3  0  0  0  0  0  0
  184.5160  178.7890  146.6300 N   0  0  0  0  0  0  0  0  0  0  0  0
  184.2820  178.8730  145.2930 C   0  0  0  0  0  3  0  0  0  0  0  0
  1 12  1  0  0  0  0
  2  6  1  0  0  0  0
  2 12  2  0  0  0  0
  3 21  1  0  0  0  0
  3 16  2  0  0  0  0
  4 14  2  0  0  0  0
  5 13  1  0  0  0  0
  8 10  2  0  0  0  0
  9  7  2  0  0  0  0
 10 19  1  0  0  0  0
 11  7  1  6  0  0  0
 11 14  1  0  0  0  0
 11 16  1  0  0  0  0
 12 23  1  0  0  0  0
 13  7  1  0  0  0  0
 13  4  1  0  0  0  0
 14 18  1  0  0  0  0
 15  1  2  0  0  0  0
 16  2  1  0  0  0  0
 17  8  1  0  0  0  0
 17 21  2  0  0  0  0
 18  6  2  0  0  0  0
 19 20  2  0  0  0  0
 20 15  1  0  0  0  0
 21 15  1  0  0  0  0
 23 24  2  0  0  0  0
 23 27  1  0  0  0  0
 24 25  1  0  0  0  0
 25 22  2  0  0  0  0
 26 22  1  0  0  0  0
 27 26  2  0  0  0  0
M  END
>  <MODEL>
8

>  <REMARK>
 VINA RESULT:      -8.0      3.339      6.492
  Name = 
  1 active torsions:
  status: ('A' for Active; 'I' for Inactive)
    1  A    between atoms: C_9  and  C_15
                            x       y       z     vdW  Elec       q    Type
                         _______ _______ _______ _____ _____    ______ ____

>  <TORSDO>
F 1

$$$$
=
 OpenBabel10272401093D

 27 31  0  0  1  0  0  0  0  0999 V2000
  189.6160  178.4830  141.6440 C   0  0  0  0  0  3  0  0  0  0  0  0
  187.1840  178.3990  140.9950 C   0  0  0  0  0  0  0  0  0  0  0  0
  187.1980  178.5110  143.5080 C   0  0  0  0  0  3  0  0  0  0  0  0
  183.2700  178.5340  141.7980 N   0  0  0  0  0  0  0  0  0  0  0  0
  182.1450  178.4340  144.0420 C   0  0  0  0  0  1  0  0  0  0  0  0
  186.1810  178.2400  139.8970 C   0  0  0  0  0  3  0  0  0  0  0  0
  184.4480  179.4210  143.5280 C   0  0  0  0  0  0  0  0  0  0  0  0
  189.7240  176.3950  145.3730 C   0  0  0  0  0  3  0  0  0  0  0  0
  184.7290  179.7940  144.6980 O   0  0  0  0  0  0  0  0  0  0  0  0
  190.9930  176.7950  145.3010 C   0  0  0  0  0  3  0  0  0  0  0  0
  185.3250  179.5580  142.3260 C   0  0  2  0  0  3  0  0  0  0  0  0
  188.5030  178.2390  140.7030 C   0  0  0  0  0  0  0  0  0  0  0  0
  183.2000  178.8740  143.1470 N   0  0  0  0  0  0  0  0  0  0  0  0
  184.4170  178.9050  141.3250 C   0  0  0  0  0  0  0  0  0  0  0  0
  189.6630  178.2970  142.9600 C   0  0  0  0  0  0  0  0  0  0  0  0
  186.6390  178.8100  142.3330 C   0  0  0  0  0  0  0  0  0  0  0  0
  188.5460  177.0530  144.7900 C   0  0  0  0  0  3  0  0  0  0  0  0
  184.9080  178.4450  140.0690 N   0  0  0  0  0  0  0  0  0  0  0  0
  191.5150  177.9770  144.6050 C   0  0  0  0  0  3  0  0  0  0  0  0
  190.9460  178.6240  143.5910 C   0  0  0  0  0  3  0  0  0  0  0  0
  188.4890  177.8720  143.7390 C   0  0  0  0  0  0  0  0  0  0  0  0
  189.7140  177.1560  136.7590 C   0  0  0  0  0  3  0  0  0  0  0  0
  188.9480  177.8840  139.3330 C   0  0  0  0  0  0  0  0  0  0  0  0
  188.9570  178.8380  138.3070 C   0  0  0  0  0  3  0  0  0  0  0  0
  189.3450  178.4780  137.0150 C   0  0  0  0  0  3  0  0  0  0  0  0
  189.6890  176.2350  137.7600 N   0  0  0  0  0  0  0  0  0  0  0  0
  189.3130  176.5670  139.0240 C   0  0  0  0  0  3  0  0  0  0  0  0
  1 15  1  0  0  0  0
  2 16  2  0  0  0  0
  3 21  2  0  0  0  0
  4 13  1  0  0  0  0
  6 18  2  0  0  0  0
  6  2  1  0  0  0  0
  7  9  2  0  0  0  0
 10  8  1  0  0  0  0
 11 14  1  6  0  0  0
 11 16  1  0  0  0  0
 11  7  1  0  0  0  0
 12  2  1  0  0  0  0
 12  1  2  0  0  0  0
 13  7  1  0  0  0  0
 13  5  1  0  0  0  0
 14  4  2  0  0  0  0
 15 20  2  0  0  0  0
 15 21  1  0  0  0  0
 16  3  1  0  0  0  0
 17  8  2  0  0  0  0
 18 14  1  0  0  0  0
 19 10  2  0  0  0  0
 20 19  1  0  0  0  0
 21 17  1  0  0  0  0
 22 25  2  0  0  0  0
 22 26  1  0  0  0  0
 23 12  1  0  0  0  0
 24 23  2  0  0  0  0
 25 24  1  0  0  0  0
 26 27  2  0  0  0  0
 27 23  1  0  0  0  0
M  END
>  <MODEL>
9

>  <REMARK>
 VINA RESULT:      -7.8      3.047      6.267
  Name = 
  1 active torsions:
  status: ('A' for Active; 'I' for Inactive)
    1  A    between atoms: C_9  and  C_15
                            x       y       z     vdW  Elec       q    Type
                         _______ _______ _______ _____ _____    ______ ____

>  <TORSDO>
F 1

$$$$
