=
 OpenBabel11122411413D

 37 44  0  0  1  0  0  0  0  0999 V2000
  189.2580  176.6770  140.7170 C   0  0  0  0  0  2  0  0  0  0  0  0
  190.2430  177.1050  145.6680 C   0  0  0  0  0  0  0  0  0  0  0  0
  186.1180  177.7250  144.4110 C   0  0  1  0  0  3  0  0  0  0  0  0
  190.1550  177.2230  139.6050 C   0  0  1  0  0  0  0  0  0  0  0  0
  185.6880  178.7240  140.6950 C   0  0  0  0  0  2  0  0  0  0  0  0
  187.9250  178.0360  146.1350 C   0  0  1  0  0  3  0  0  0  0  0  0
  186.5450  178.1260  143.0100 C   0  0  2  0  0  3  0  0  0  0  0  0
  188.2760  177.9020  137.9380 C   0  0  2  0  0  3  0  0  0  0  0  0
  187.3440  177.1020  145.0780 C   0  0  2  0  0  3  0  0  0  0  0  0
  185.4020  177.9470  141.9890 C   0  0  1  0  0  3  0  0  0  0  0  0
  186.9060  178.2690  147.1450 N   0  0  0  0  0  2  0  0  0  0  0  0
  189.6690  178.1950  138.5200 C   0  0  0  0  0  2  0  0  0  0  0  0
  188.3550  176.7610  143.9720 C   0  0  2  0  0  3  0  0  0  0  0  0
  190.6760  175.6580  145.8060 C   0  0  0  0  0  1  0  0  0  0  0  0
  184.5150  179.6620  144.6660 C   0  0  0  0  0  3  0  0  0  0  0  0
  185.9220  179.2090  146.5980 C   0  0  0  0  0  2  0  0  0  0  0  0
  189.7540  177.3580  144.2310 C   0  0  0  0  0  2  0  0  0  0  0  0
  187.1430  178.6650  138.6320 C   0  0  0  0  0  2  0  0  0  0  0  0
  187.0080  178.2690  140.0930 C   0  0  1  0  0  3  0  0  0  0  0  0
  185.4770  178.8750  145.1870 C   0  0  0  0  0  0  0  0  0  0  0  0
  187.7090  177.2050  142.6560 C   0  0  2  0  0  3  0  0  0  0  0  0
  189.1750  177.4070  146.7370 C   0  0  0  0  0  2  0  0  0  0  0  0
  184.0210  178.2820  142.5890 C   0  0  1  0  0  3  0  0  0  0  0  0
  191.4450  177.9900  145.9250 C   0  0  0  0  0  1  0  0  0  0  0  0
  188.0700  178.8200  140.8300 O   0  0  0  0  0  0  0  0  0  0  0  0
  188.0060  176.5320  137.8750 O   0  0  0  0  0  1  0  0  0  0  0  0
  188.6640  177.7890  141.5930 C   0  0  2  0  0  3  0  0  0  0  0  0
  183.9900  179.6590  143.2480 C   0  0  0  0  0  2  0  0  0  0  0  0
  191.5740  177.2810  139.9120 C   0  0  0  0  0  2  0  0  0  0  0  0
  191.0480  176.1930  139.0650 N   0  0  0  0  0  2  0  0  0  0  0  0
  181.6850  178.7520  141.8340 C   0  0  0  0  0  3  0  0  0  0  0  0
  182.8870  178.0630  141.6310 C   0  0  0  0  0  0  0  0  0  0  0  0
  182.9910  177.1560  140.5640 C   0  0  0  0  0  3  0  0  0  0  0  0
  182.0150  176.0820  138.6730 F   0  0  0  0  0  0  0  0  0  0  0  0
  180.7150  177.6520  139.9080 C   0  0  0  0  0  3  0  0  0  0  0  0
  181.9080  176.9550  139.7040 C   0  0  0  0  0  0  0  0  0  0  0  0
  180.6030  178.5500  140.9730 C   0  0  0  0  0  3  0  0  0  0  0  0
  1 27  1  0  0  0  0
  2 14  1  0  0  0  0
  2 24  1  0  0  0  0
  2 22  1  0  0  0  0
  3  9  1  0  0  0  0
  3 20  1  1  0  0  0
  4 12  1  6  0  0  0
  4 29  1  0  0  0  0
  4  1  1  0  0  0  0
  5 10  1  0  0  0  0
  6 22  1  1  0  0  0
  6 11  1  0  0  0  0
  7  3  1  0  0  0  0
  8 12  1  0  0  0  0
  8 18  1  0  0  0  0
  9  6  1  0  0  0  0
 10 23  1  0  0  0  0
 10  7  1  0  0  0  0
 13 17  1  0  0  0  0
 13  9  1  0  0  0  0
 15 20  2  0  0  0  0
 16 11  1  0  0  0  0
 17  2  1  0  0  0  0
 18 19  1  0  0  0  0
 19  5  1  0  0  0  0
 19 25  1  0  0  0  0
 20 16  1  0  0  0  0
 21  7  1  0  0  0  0
 21 13  1  0  0  0  0
 23 28  1  0  0  0  0
 25 27  1  0  0  0  0
 26  8  1  0  0  0  0
 27 21  1  0  0  0  0
 28 15  1  0  0  0  0
 30  4  1  0  0  0  0
 30 29  1  0  0  0  0
 32 31  1  0  0  0  0
 32 23  1  0  0  0  0
 33 32  2  0  0  0  0
 34 36  1  0  0  0  0
 35 37  1  0  0  0  0
 36 35  2  0  0  0  0
 36 33  1  0  0  0  0
 37 31  2  0  0  0  0
M  END
>  <MODEL>
1

>  <REMARK>
 VINA RESULT:     -10.2      0.000      0.000
  Name = 
  1 active torsions:
  status: ('A' for Active; 'I' for Inactive)
    1  A    between atoms: C_23  and  C_30
                            x       y       z     vdW  Elec       q    Type
                         _______ _______ _______ _____ _____    ______ ____

>  <TORSDO>
F 1

$$$$
=
 OpenBabel11122411413D

 37 44  0  0  1  0  0  0  0  0999 V2000
  186.3400  176.7250  137.7950 C   0  0  0  0  0  2  0  0  0  0  0  0
  190.9290  175.9030  135.8130 C   0  0  0  0  0  0  0  0  0  0  0  0
  190.7200  176.5580  140.1160 C   0  0  1  0  0  3  0  0  0  0  0  0
  185.2640  177.6020  137.1530 C   0  0  1  0  0  0  0  0  0  0  0  0
  187.5730  178.4660  141.3140 C   0  0  0  0  0  2  0  0  0  0  0  0
  192.0760  176.5230  137.9950 C   0  0  1  0  0  3  0  0  0  0  0  0
  189.4250  177.3390  139.9910 C   0  0  2  0  0  3  0  0  0  0  0  0
  184.2440  178.5690  139.3430 C   0  0  2  0  0  3  0  0  0  0  0  0
  190.9400  175.8640  138.7710 C   0  0  2  0  0  3  0  0  0  0  0  0
  188.6380  177.3590  141.3180 C   0  0  1  0  0  3  0  0  0  0  0  0
  193.2900  176.4150  138.7860 N   0  0  0  0  0  2  0  0  0  0  0  0
  184.5990  178.7910  137.8630 C   0  0  0  0  0  2  0  0  0  0  0  0
  189.6070  175.8920  138.0070 C   0  0  2  0  0  3  0  0  0  0  0  0
  190.5830  174.5020  135.3450 C   0  0  0  0  0  1  0  0  0  0  0  0
  191.7990  178.2490  141.6510 C   0  0  0  0  0  3  0  0  0  0  0  0
  193.2210  177.3980  139.8710 C   0  0  0  0  0  2  0  0  0  0  0  0
  189.7380  176.4910  136.5910 C   0  0  0  0  0  2  0  0  0  0  0  0
  185.3270  179.0470  140.3160 C   0  0  0  0  0  2  0  0  0  0  0  0
  186.6230  178.2740  140.1430 C   0  0  1  0  0  3  0  0  0  0  0  0
  191.8890  177.4180  140.5940 C   0  0  0  0  0  0  0  0  0  0  0  0
  188.6140  176.6220  138.9160 C   0  0  2  0  0  3  0  0  0  0  0  0
  192.2270  175.8430  136.6410 C   0  0  0  0  0  2  0  0  0  0  0  0
  189.5650  177.4340  142.5490 C   0  0  1  0  0  3  0  0  0  0  0  0
  191.1750  176.7660  134.5940 C   0  0  0  0  0  1  0  0  0  0  0  0
  187.2580  178.6800  138.9570 O   0  0  0  0  0  0  0  0  0  0  0  0
  183.8670  177.2490  139.6050 O   0  0  0  0  0  1  0  0  0  0  0  0
  187.5820  177.5270  138.2070 C   0  0  2  0  0  3  0  0  0  0  0  0
  190.5650  178.5830  142.4580 C   0  0  0  0  0  2  0  0  0  0  0  0
  185.2900  177.6710  135.7010 C   0  0  0  0  0  2  0  0  0  0  0  0
  184.3000  176.8110  136.3790 N   0  0  0  0  0  2  0  0  0  0  0  0
  187.4520  177.1260  143.8490 C   0  0  0  0  0  3  0  0  0  0  0  0
  188.8250  177.3990  143.8550 C   0  0  0  0  0  0  0  0  0  0  0  0
  189.4710  177.6690  145.0720 C   0  0  0  0  0  3  0  0  0  0  0  0
  189.3770  177.9130  147.4410 F   0  0  0  0  0  0  0  0  0  0  0  0
  187.3810  177.3740  146.2570 C   0  0  0  0  0  3  0  0  0  0  0  0
  188.7500  177.6540  146.2690 C   0  0  0  0  0  0  0  0  0  0  0  0
  186.7320  177.1100  145.0470 C   0  0  0  0  0  3  0  0  0  0  0  0
  1 27  1  0  0  0  0
  2 17  1  0  0  0  0
  2 22  1  0  0  0  0
  3 20  1  6  0  0  0
  4 29  1  6  0  0  0
  4  1  1  0  0  0  0
  4 12  1  0  0  0  0
  5 10  1  0  0  0  0
  6 22  1  6  0  0  0
  6  9  1  0  0  0  0
  6 11  1  0  0  0  0
  7  3  1  0  0  0  0
  7 10  1  0  0  0  0
  8 26  1  0  0  0  0
  8 18  1  0  0  0  0
  9  3  1  0  0  0  0
 10 23  1  0  0  0  0
 11 16  1  0  0  0  0
 12  8  1  0  0  0  0
 13  9  1  0  0  0  0
 13 21  1  0  0  0  0
 14  2  1  0  0  0  0
 15 28  1  0  0  0  0
 16 20  1  0  0  0  0
 17 13  1  0  0  0  0
 19 18  1  0  0  0  0
 19  5  1  0  0  0  0
 20 15  2  0  0  0  0
 21  7  1  0  0  0  0
 23 32  1  0  0  0  0
 24  2  1  0  0  0  0
 25 19  1  0  0  0  0
 27 21  1  0  0  0  0
 27 25  1  0  0  0  0
 28 23  1  0  0  0  0
 29 30  1  0  0  0  0
 30  4  1  0  0  0  0
 31 32  2  0  0  0  0
 31 37  1  0  0  0  0
 32 33  1  0  0  0  0
 33 36  2  0  0  0  0
 35 36  1  0  0  0  0
 36 34  1  0  0  0  0
 37 35  2  0  0  0  0
M  END
>  <MODEL>
2

>  <REMARK>
 VINA RESULT:      -8.1      3.288      7.272
  Name = 
  1 active torsions:
  status: ('A' for Active; 'I' for Inactive)
    1  A    between atoms: C_23  and  C_30
                            x       y       z     vdW  Elec       q    Type
                         _______ _______ _______ _____ _____    ______ ____

>  <TORSDO>
F 1

$$$$
=
 OpenBabel11122411413D

 37 44  0  0  1  0  0  0  0  0999 V2000
  189.6180  176.8020  142.0720 C   0  0  0  0  0  2  0  0  0  0  0  0
  188.7140  177.5000  147.0080 C   0  0  0  0  0  0  0  0  0  0  0  0
  185.3090  177.8170  144.3090 C   0  0  1  0  0  3  0  0  0  0  0  0
  190.8350  177.3530  141.3280 C   0  0  1  0  0  0  0  0  0  0  0  0
  186.2210  178.6290  140.6360 C   0  0  0  0  0  2  0  0  0  0  0  0
  186.3500  178.3090  146.5480 C   0  0  1  0  0  3  0  0  0  0  0  0
  186.2000  178.1820  143.1360 C   0  0  2  0  0  3  0  0  0  0  0  0
  189.6660  177.8460  139.0550 C   0  0  2  0  0  3  0  0  0  0  0  0
  186.2320  177.2980  145.4110 C   0  0  2  0  0  3  0  0  0  0  0  0
  185.5160  177.8910  141.7840 C   0  0  1  0  0  3  0  0  0  0  0  0
  185.0250  178.5230  147.1040 N   0  0  0  0  0  2  0  0  0  0  0  0
  190.7380  178.2470  140.0820 C   0  0  0  0  0  2  0  0  0  0  0  0
  187.5890  176.9700  144.7680 C   0  0  2  0  0  3  0  0  0  0  0  0
  189.1260  176.0880  147.3820 C   0  0  0  0  0  1  0  0  0  0  0  0
  183.6470  179.6630  143.8480 C   0  0  0  0  0  3  0  0  0  0  0  0
  184.2710  179.3780  146.1820 C   0  0  0  0  0  2  0  0  0  0  0  0
  188.7720  177.6610  145.4780 C   0  0  0  0  0  2  0  0  0  0  0  0
  188.3280  178.5690  139.2460 C   0  0  0  0  0  2  0  0  0  0  0  0
  187.6870  178.2290  140.5800 C   0  0  1  0  0  3  0  0  0  0  0  0
  184.3830  178.9570  144.7300 C   0  0  0  0  0  0  0  0  0  0  0  0
  187.4490  177.3180  143.2840 C   0  0  2  0  0  3  0  0  0  0  0  0
  187.3200  177.7820  147.5970 C   0  0  0  0  0  2  0  0  0  0  0  0
  183.9980  178.1690  141.8220 C   0  0  1  0  0  3  0  0  0  0  0  0
  189.7040  178.4650  147.6260 C   0  0  0  0  0  1  0  0  0  0  0  0
  188.3850  178.8730  141.6160 O   0  0  0  0  0  0  0  0  0  0  0  0
  189.4930  176.4610  138.9840 O   0  0  0  0  0  1  0  0  0  0  0  0
  188.7020  177.9130  142.6040 C   0  0  2  0  0  3  0  0  0  0  0  0
  183.6740  179.5670  142.3400 C   0  0  0  0  0  2  0  0  0  0  0  0
  192.0420  177.5090  142.1220 C   0  0  0  0  0  2  0  0  0  0  0  0
  191.9050  176.3560  141.2110 N   0  0  0  0  0  2  0  0  0  0  0  0
  183.0560  176.4990  140.2190 C   0  0  0  0  0  3  0  0  0  0  0  0
  183.3000  177.8410  140.5350 C   0  0  0  0  0  0  0  0  0  0  0  0
  182.9210  178.8440  139.6280 C   0  0  0  0  0  3  0  0  0  0  0  0
  181.9290  179.4760  137.5550 F   0  0  0  0  0  0  0  0  0  0  0  0
  182.0480  177.1640  138.1200 C   0  0  0  0  0  3  0  0  0  0  0  0
  182.2950  178.5050  138.4260 C   0  0  0  0  0  0  0  0  0  0  0  0
  182.4290  176.1610  139.0160 C   0  0  0  0  0  3  0  0  0  0  0  0
  1 27  1  0  0  0  0
  2 14  1  0  0  0  0
  2 22  1  0  0  0  0
  2 24  1  0  0  0  0
  3 20  1  1  0  0  0
  3  9  1  0  0  0  0
  4 12  1  6  0  0  0
  4  1  1  0  0  0  0
  4 29  1  0  0  0  0
  5 10  1  0  0  0  0
  6 11  1  0  0  0  0
  6 22  1  1  0  0  0
  7 21  1  0  0  0  0
  7  3  1  0  0  0  0
  8 18  1  0  0  0  0
  8 12  1  0  0  0  0
  9  6  1  0  0  0  0
 10 23  1  0  0  0  0
 10  7  1  0  0  0  0
 13  9  1  0  0  0  0
 13 17  1  0  0  0  0
 15 20  2  0  0  0  0
 16 11  1  0  0  0  0
 17  2  1  0  0  0  0
 18 19  1  0  0  0  0
 19  5  1  0  0  0  0
 19 25  1  0  0  0  0
 20 16  1  0  0  0  0
 21 13  1  0  0  0  0
 23 28  1  0  0  0  0
 25 27  1  0  0  0  0
 26  8  1  0  0  0  0
 27 21  1  0  0  0  0
 28 15  1  0  0  0  0
 30  4  1  0  0  0  0
 30 29  1  0  0  0  0
 31 32  1  0  0  0  0
 32 23  1  0  0  0  0
 33 32  2  0  0  0  0
 34 36  1  0  0  0  0
 35 36  2  0  0  0  0
 35 37  1  0  0  0  0
 36 33  1  0  0  0  0
 37 31  2  0  0  0  0
M  END
>  <MODEL>
3

>  <REMARK>
 VINA RESULT:      -8.1      1.490      1.805
  Name = 
  1 active torsions:
  status: ('A' for Active; 'I' for Inactive)
    1  A    between atoms: C_23  and  C_30
                            x       y       z     vdW  Elec       q    Type
                         _______ _______ _______ _____ _____    ______ ____

>  <TORSDO>
F 1

$$$$
=
 OpenBabel11122411413D

 37 44  0  0  1  0  0  0  0  0999 V2000
  186.3020  176.7020  137.9660 C   0  0  0  0  0  2  0  0  0  0  0  0
  190.8130  175.8430  135.8250 C   0  0  0  0  0  0  0  0  0  0  0  0
  190.7620  176.5180  140.1290 C   0  0  1  0  0  3  0  0  0  0  0  0
  185.2090  177.5820  137.3590 C   0  0  1  0  0  0  0  0  0  0  0  0
  187.6710  178.4520  141.4300 C   0  0  0  0  0  2  0  0  0  0  0  0
  192.0400  176.4660  137.9610 C   0  0  1  0  0  3  0  0  0  0  0  0
  189.4670  177.3070  140.0470 C   0  0  2  0  0  3  0  0  0  0  0  0
  184.2740  178.5650  139.5800 C   0  0  2  0  0  3  0  0  0  0  0  0
  190.9290  175.8170  138.7810 C   0  0  2  0  0  3  0  0  0  0  0  0
  188.7290  177.3380  141.4010 C   0  0  1  0  0  3  0  0  0  0  0  0
  193.2810  176.3550  138.7090 N   0  0  0  0  0  2  0  0  0  0  0  0
  184.5770  178.7780  138.0870 C   0  0  0  0  0  2  0  0  0  0  0  0
  189.5700  175.8500  138.0650 C   0  0  2  0  0  3  0  0  0  0  0  0
  190.4420  174.4420  135.3770 C   0  0  0  0  0  1  0  0  0  0  0  0
  191.9050  178.2110  141.6170 C   0  0  0  0  0  3  0  0  0  0  0  0
  193.2570  177.3430  139.7910 C   0  0  0  0  0  2  0  0  0  0  0  0
  189.6540  176.4420  136.6430 C   0  0  0  0  0  2  0  0  0  0  0  0
  185.3940  179.0410  140.5110 C   0  0  0  0  0  2  0  0  0  0  0  0
  186.6780  178.2590  140.2950 C   0  0  1  0  0  3  0  0  0  0  0  0
  191.9520  177.3740  140.5610 C   0  0  0  0  0  0  0  0  0  0  0  0
  188.6150  176.5900  139.0050 C   0  0  2  0  0  3  0  0  0  0  0  0
  192.1390  175.7790  136.6060 C   0  0  0  0  0  2  0  0  0  0  0  0
  189.7000  177.4130  142.5990 C   0  0  1  0  0  3  0  0  0  0  0  0
  191.0190  176.6990  134.5940 C   0  0  0  0  0  1  0  0  0  0  0  0
  187.2730  178.6560  139.0850 O   0  0  0  0  0  0  0  0  0  0  0  0
  183.8990  177.2490  139.8610 O   0  0  0  0  0  1  0  0  0  0  0  0
  187.5630  177.4970  138.3290 C   0  0  2  0  0  3  0  0  0  0  0  0
  190.7020  178.5560  142.4660 C   0  0  0  0  0  2  0  0  0  0  0  0
  185.1830  177.6440  135.9070 C   0  0  0  0  0  2  0  0  0  0  0  0
  184.2140  176.7930  136.6240 N   0  0  0  0  0  2  0  0  0  0  0  0
  189.7730  177.2140  145.0890 C   0  0  0  0  0  3  0  0  0  0  0  0
  189.0070  177.3880  143.9300 C   0  0  0  0  0  0  0  0  0  0  0  0
  187.6110  177.4980  144.0340 C   0  0  0  0  0  3  0  0  0  0  0  0
  185.6460  177.5550  145.3820 F   0  0  0  0  0  0  0  0  0  0  0  0
  187.7640  177.2790  146.4400 C   0  0  0  0  0  3  0  0  0  0  0  0
  186.9930  177.4460  145.2860 C   0  0  0  0  0  0  0  0  0  0  0  0
  189.1540  177.1630  146.3410 C   0  0  0  0  0  3  0  0  0  0  0  0
  1 27  1  0  0  0  0
  2 22  1  0  0  0  0
  2 17  1  0  0  0  0
  3 20  1  6  0  0  0
  4 29  1  6  0  0  0
  4  1  1  0  0  0  0
  4 12  1  0  0  0  0
  6 22  1  6  0  0  0
  6 11  1  0  0  0  0
  6  9  1  0  0  0  0
  7  3  1  0  0  0  0
  7 10  1  0  0  0  0
  8 26  1  0  0  0  0
  8 18  1  0  0  0  0
  9  3  1  0  0  0  0
 10  5  1  0  0  0  0
 10 23  1  0  0  0  0
 11 16  1  0  0  0  0
 12  8  1  0  0  0  0
 13  9  1  0  0  0  0
 13 21  1  0  0  0  0
 14  2  1  0  0  0  0
 15 28  1  0  0  0  0
 16 20  1  0  0  0  0
 17 13  1  0  0  0  0
 19 18  1  0  0  0  0
 19  5  1  0  0  0  0
 20 15  2  0  0  0  0
 21  7  1  0  0  0  0
 23 32  1  0  0  0  0
 24  2  1  0  0  0  0
 25 19  1  0  0  0  0
 27 21  1  0  0  0  0
 27 25  1  0  0  0  0
 28 23  1  0  0  0  0
 29 30  1  0  0  0  0
 30  4  1  0  0  0  0
 31 37  1  0  0  0  0
 32 33  1  0  0  0  0
 32 31  2  0  0  0  0
 33 36  2  0  0  0  0
 36 34  1  0  0  0  0
 36 35  1  0  0  0  0
 37 35  2  0  0  0  0
M  END
>  <MODEL>
4

>  <REMARK>
 VINA RESULT:      -7.9      2.935      7.212
  Name = 
  1 active torsions:
  status: ('A' for Active; 'I' for Inactive)
    1  A    between atoms: C_23  and  C_30
                            x       y       z     vdW  Elec       q    Type
                         _______ _______ _______ _____ _____    ______ ____

>  <TORSDO>
F 1

$$$$
=
 OpenBabel11122411413D

 37 44  0  0  1  0  0  0  0  0999 V2000
  185.9140  179.1530  144.0670 C   0  0  0  0  0  2  0  0  0  0  0  0
  190.1210  177.2910  141.9450 C   0  0  0  0  0  0  0  0  0  0  0  0
  186.8720  178.3930  139.2600 C   0  0  1  0  0  3  0  0  0  0  0  0
  185.2760  178.6110  145.3470 C   0  0  1  0  0  0  0  0  0  0  0  0
  183.3680  178.4800  140.9050 C   0  0  0  0  0  2  0  0  0  0  0  0
  188.9960  177.1070  139.6740 C   0  0  1  0  0  3  0  0  0  0  0  0
  185.8310  178.2070  140.3510 C   0  0  2  0  0  3  0  0  0  0  0  0
  182.7870  179.0030  144.6950 C   0  0  2  0  0  3  0  0  0  0  0  0
  188.2330  178.3990  139.9550 C   0  0  2  0  0  3  0  0  0  0  0  0
  184.5360  178.9880  140.0460 C   0  0  1  0  0  3  0  0  0  0  0  0
  189.1990  177.0030  138.2390 N   0  0  0  0  0  2  0  0  0  0  0  0
  183.8180  178.1350  145.4360 C   0  0  0  0  0  2  0  0  0  0  0  0
  187.9920  178.6280  141.4560 C   0  0  2  0  0  3  0  0  0  0  0  0
  190.9890  178.4370  142.4300 C   0  0  0  0  0  1  0  0  0  0  0  0
  185.5520  177.1000  137.5370 C   0  0  0  0  0  3  0  0  0  0  0  0
  187.9310  176.5990  137.6230 C   0  0  0  0  0  2  0  0  0  0  0  0
  188.6570  177.5550  142.3420 C   0  0  0  0  0  2  0  0  0  0  0  0
  182.4880  178.5240  143.2710 C   0  0  0  0  0  2  0  0  0  0  0  0
  183.7160  178.5940  142.3800 C   0  0  1  0  0  3  0  0  0  0  0  0
  186.7320  177.3780  138.1270 C   0  0  0  0  0  0  0  0  0  0  0  0
  186.4740  178.7410  141.6270 C   0  0  2  0  0  3  0  0  0  0  0  0
  190.3200  177.1250  140.4270 C   0  0  0  0  0  2  0  0  0  0  0  0
  184.2010  179.0050  138.5400 C   0  0  1  0  0  3  0  0  0  0  0  0
  190.5790  176.0220  142.6330 C   0  0  0  0  0  1  0  0  0  0  0  0
  184.6090  177.5660  142.7280 O   0  0  0  0  0  0  0  0  0  0  0  0
  183.1230  180.3590  144.7180 O   0  0  0  0  0  1  0  0  0  0  0  0
  185.8890  178.1330  142.9210 C   0  0  2  0  0  3  0  0  0  0  0  0
  184.1840  177.6050  137.9310 C   0  0  0  0  0  2  0  0  0  0  0  0
  186.1930  178.0120  146.3040 C   0  0  0  0  0  2  0  0  0  0  0  0
  185.6810  179.3780  146.5300 N   0  0  0  0  0  2  0  0  0  0  0  0
  182.8580  181.1050  138.7190 C   0  0  0  0  0  3  0  0  0  0  0  0
  182.9750  179.8060  138.2120 C   0  0  0  0  0  0  0  0  0  0  0  0
  181.9310  179.2680  137.4420 C   0  0  0  0  0  3  0  0  0  0  0  0
  179.7870  179.5080  136.4280 F   0  0  0  0  0  0  0  0  0  0  0  0
  180.6840  181.3290  137.6770 C   0  0  0  0  0  3  0  0  0  0  0  0
  180.7900  180.0300  137.1740 C   0  0  0  0  0  0  0  0  0  0  0  0
  181.7170  181.8670  138.4490 C   0  0  0  0  0  3  0  0  0  0  0  0
  2 17  1  0  0  0  0
  2 14  1  0  0  0  0
  2 24  1  0  0  0  0
  3 20  1  6  0  0  0
  3  9  1  0  0  0  0
  3  7  1  0  0  0  0
  4  1  1  6  0  0  0
  4 12  1  0  0  0  0
  4 29  1  0  0  0  0
  4 30  1  0  0  0  0
  5 19  1  0  0  0  0
  6  9  1  0  0  0  0
  6 22  1  1  0  0  0
  7 21  1  0  0  0  0
  8 26  1  0  0  0  0
  8 12  1  0  0  0  0
  9 13  1  0  0  0  0
 10  7  1  0  0  0  0
 10  5  1  0  0  0  0
 11  6  1  0  0  0  0
 13 21  1  0  0  0  0
 13 17  1  0  0  0  0
 15 28  1  0  0  0  0
 15 20  2  0  0  0  0
 16 20  1  0  0  0  0
 16 11  1  0  0  0  0
 18  8  1  0  0  0  0
 19 25  1  0  0  0  0
 19 18  1  0  0  0  0
 21 27  1  0  0  0  0
 22  2  1  0  0  0  0
 23 10  1  0  0  0  0
 25 27  1  0  0  0  0
 27  1  1  0  0  0  0
 28 23  1  0  0  0  0
 29 30  1  0  0  0  0
 32 23  1  0  0  0  0
 32 31  2  0  0  0  0
 33 32  1  0  0  0  0
 34 36  1  0  0  0  0
 35 37  2  0  0  0  0
 36 33  2  0  0  0  0
 36 35  1  0  0  0  0
 37 31  1  0  0  0  0
M  END
>  <MODEL>
5

>  <REMARK>
 VINA RESULT:      -7.6      2.549      5.865
  Name = 
  1 active torsions:
  status: ('A' for Active; 'I' for Inactive)
    1  A    between atoms: C_23  and  C_30
                            x       y       z     vdW  Elec       q    Type
                         _______ _______ _______ _____ _____    ______ ____

>  <TORSDO>
F 1

$$$$
