=
 OpenBabel11122412043D

 34 40  0  0  1  0  0  0  0  0999 V2000
  182.1190  178.7490  143.5190 C   0  0  0  0  0  0  0  0  0  0  0  0
  183.7500  178.8680  145.4650 C   0  0  0  0  0  2  0  0  0  0  0  0
  180.2930  176.9720  137.5010 C   0  0  0  0  0  0  0  0  0  0  0  0
  180.7080  178.3030  141.6140 C   0  0  0  0  0  0  0  0  0  0  0  0
  181.7440  178.2220  139.2500 C   0  0  2  0  0  3  0  0  0  0  0  0
  182.4410  178.0240  136.8520 C   0  0  0  0  0  1  0  0  0  0  0  0
  180.1230  175.8250  137.0150 O   0  0  0  0  0  0  0  0  0  0  0  0
  179.2660  179.2030  138.1410 C   0  0  0  0  0  2  0  0  0  0  0  0
  184.5520  179.3480  143.2350 C   0  0  2  0  0  3  0  0  0  0  0  0
  187.3050  177.7620  142.6040 C   0  0  0  0  0  3  0  0  0  0  0  0
  183.0220  177.8790  140.0070 C   0  0  0  0  0  2  0  0  0  0  0  0
  179.4010  179.1140  139.6620 C   0  0  0  0  0  2  0  0  0  0  0  0
  184.4990  178.5380  141.9310 C   0  0  1  0  0  3  0  0  0  0  0  0
  185.2390  179.1630  145.5500 C   0  0  0  0  0  2  0  0  0  0  0  0
  180.4740  178.1240  140.1320 C   0  0  2  0  0  3  0  0  0  0  0  0
  179.1830  177.8760  137.5490 N   0  0  0  0  0  2  0  0  0  0  0  0
  186.4400  177.7370  143.8390 C   0  0  2  0  0  3  0  0  0  0  0  0
  181.9800  178.6030  142.1300 C   0  0  0  0  0  0  0  0  0  0  0  0
  181.6710  177.3580  137.9780 C   0  0  2  0  0  3  0  0  0  0  0  0
  183.1660  178.8000  141.2120 C   0  0  2  0  0  3  0  0  0  0  0  0
  179.8270  178.2570  143.8150 C   0  0  0  0  0  3  0  0  0  0  0  0
  186.9560  178.2490  141.4000 C   0  0  0  0  0  3  0  0  0  0  0  0
  179.6670  178.1270  142.4720 N   0  0  0  0  0  0  0  0  0  0  0  0
  185.6710  178.9540  141.0530 C   0  0  0  0  0  2  0  0  0  0  0  0
  185.7840  179.1030  144.1200 C   0  0  1  0  0  3  0  0  0  0  0  0
  181.0450  178.5650  144.3300 N   0  0  0  0  0  0  0  0  0  0  0  0
  183.4060  179.0470  144.0710 N   0  0  0  0  0  0  0  0  0  0  0  0
  187.2210  177.3230  144.9230 O   0  0  0  0  0  0  0  0  0  0  0  0
  188.4600  176.9940  144.3670 C   0  0  0  0  0  2  0  0  0  0  0  0
  190.5630  176.6610  147.3190 C   0  0  0  0  0  2  0  0  0  0  0  0
  190.8810  176.8060  144.9360 C   0  0  0  0  0  2  0  0  0  0  0  0
  189.5800  177.5070  145.2550 C   0  0  0  0  0  3  0  0  0  0  0  0
  191.6290  176.7550  146.2470 C   0  0  0  0  0  2  0  0  0  0  0  0
  189.2780  177.1920  146.7070 C   0  0  0  0  0  2  0  0  0  0  0  0
  1 27  1  0  0  0  0
  1 26  1  0  0  0  0
  2 14  1  0  0  0  0
  3 16  1  0  0  0  0
  3 19  1  0  0  0  0
  4 18  1  0  0  0  0
  4 23  2  0  0  0  0
  5 11  1  1  0  0  0
  5 15  1  0  0  0  0
  7  3  2  0  0  0  0
  8 12  1  0  0  0  0
  9 27  1  1  0  0  0
  9 25  1  0  0  0  0
 10 17  1  0  0  0  0
 13 24  1  6  0  0  0
 13  9  1  0  0  0  0
 15 12  1  6  0  0  0
 15  4  1  0  0  0  0
 16  8  1  0  0  0  0
 17 25  1  0  0  0  0
 17 28  1  1  0  0  0
 18  1  2  0  0  0  0
 19  6  1  6  0  0  0
 19  5  1  0  0  0  0
 20 11  1  6  0  0  0
 20 13  1  0  0  0  0
 20 18  1  0  0  0  0
 21 26  2  0  0  0  0
 22 10  2  0  0  0  0
 23 21  1  0  0  0  0
 24 22  1  0  0  0  0
 25 14  1  1  0  0  0
 27  2  1  0  0  0  0
 29 28  1  0  0  0  0
 29 32  1  0  0  0  0
 31 32  1  0  0  0  0
 31 33  1  0  0  0  0
 32 34  1  0  0  0  0
 33 30  1  0  0  0  0
 34 30  1  0  0  0  0
M  END
>  <MODEL>
1

>  <REMARK>
 VINA RESULT:      -9.6      0.000      0.000
  Name = 
  3 active torsions:
  status: ('A' for Active; 'I' for Inactive)
    1  A    between atoms: C_17  and  O_28
    2  A    between atoms: O_28  and  C_29
    3  A    between atoms: C_29  and  C_32
                            x       y       z     vdW  Elec       q    Type
                         _______ _______ _______ _____ _____    ______ ____

>  <TORSDO>
F 3

$$$$
=
 OpenBabel11122412043D

 34 40  0  0  1  0  0  0  0  0999 V2000
  187.8970  177.9330  140.2960 C   0  0  0  0  0  0  0  0  0  0  0  0
  185.9730  178.1290  138.6470 C   0  0  0  0  0  2  0  0  0  0  0  0
  190.4820  176.6730  146.1640 C   0  0  0  0  0  0  0  0  0  0  0  0
  189.5390  177.4650  142.0000 C   0  0  0  0  0  0  0  0  0  0  0  0
  188.9840  177.9480  144.4750 C   0  0  2  0  0  3  0  0  0  0  0  0
  188.7400  178.2510  146.9500 C   0  0  0  0  0  1  0  0  0  0  0  0
  190.5220  175.5970  146.8150 O   0  0  0  0  0  0  0  0  0  0  0  0
  191.7690  178.5110  144.9800 C   0  0  0  0  0  2  0  0  0  0  0  0
  185.7230  179.0850  140.8530 C   0  0  2  0  0  3  0  0  0  0  0  0
  182.8950  178.2450  142.1900 C   0  0  0  0  0  3  0  0  0  0  0  0
  187.5410  177.7890  144.0060 C   0  0  0  0  0  2  0  0  0  0  0  0
  191.3280  178.2390  143.5410 C   0  0  0  0  0  2  0  0  0  0  0  0
  185.8730  178.4760  142.2570 C   0  0  1  0  0  3  0  0  0  0  0  0
  184.5790  178.7280  138.7490 C   0  0  0  0  0  2  0  0  0  0  0  0
  190.0170  177.4510  143.4330 C   0  0  2  0  0  3  0  0  0  0  0  0
  191.7130  177.2960  145.7790 N   0  0  0  0  0  2  0  0  0  0  0  0
  183.4830  177.8570  140.8580 C   0  0  2  0  0  3  0  0  0  0  0  0
  188.2710  177.9600  141.6480 C   0  0  0  0  0  0  0  0  0  0  0  0
  189.1360  177.2800  145.8530 C   0  0  2  0  0  3  0  0  0  0  0  0
  187.3450  178.5390  142.6940 C   0  0  2  0  0  3  0  0  0  0  0  0
  189.9520  176.9140  139.7300 C   0  0  0  0  0  3  0  0  0  0  0  0
  183.5550  178.8100  143.2170 C   0  0  0  0  0  3  0  0  0  0  0  0
  190.3420  176.9450  141.0320 N   0  0  0  0  0  0  0  0  0  0  0  0
  184.9930  179.2590  143.2210 C   0  0  0  0  0  2  0  0  0  0  0  0
  184.3200  178.9910  140.2360 C   0  0  1  0  0  3  0  0  0  0  0  0
  188.7380  177.4050  139.3700 N   0  0  0  0  0  0  0  0  0  0  0  0
  186.6070  178.4240  139.9130 N   0  0  0  0  0  0  0  0  0  0  0  0
  182.4430  177.4730  140.0050 O   0  0  0  0  0  0  0  0  0  0  0  0
  181.3260  178.1770  140.4630 C   0  0  0  0  0  2  0  0  0  0  0  0
  181.3570  180.6290  137.7740 C   0  0  0  0  0  2  0  0  0  0  0  0
  181.0480  178.2490  137.9860 C   0  0  0  0  0  2  0  0  0  0  0  0
  180.6380  178.8710  139.3020 C   0  0  0  0  0  3  0  0  0  0  0  0
  181.0040  179.3830  136.9890 C   0  0  0  0  0  2  0  0  0  0  0  0
  181.0690  180.3230  139.2340 C   0  0  0  0  0  2  0  0  0  0  0  0
  1 18  1  0  0  0  0
  2 14  1  0  0  0  0
  2 27  1  0  0  0  0
  3  7  2  0  0  0  0
  4 15  1  0  0  0  0
  5 11  1  6  0  0  0
  5 19  1  0  0  0  0
  8 16  1  0  0  0  0
  9 27  1  6  0  0  0
  9 13  1  0  0  0  0
 10 22  2  0  0  0  0
 12  8  1  0  0  0  0
 13 20  1  0  0  0  0
 13 24  1  1  0  0  0
 15 12  1  6  0  0  0
 15  5  1  0  0  0  0
 16  3  1  0  0  0  0
 17 28  1  6  0  0  0
 17 10  1  0  0  0  0
 18  4  2  0  0  0  0
 18 20  1  0  0  0  0
 19  3  1  0  0  0  0
 19  6  1  1  0  0  0
 20 11  1  1  0  0  0
 21 23  2  0  0  0  0
 22 24  1  0  0  0  0
 23  4  1  0  0  0  0
 25 14  1  6  0  0  0
 25  9  1  0  0  0  0
 25 17  1  0  0  0  0
 26 21  1  0  0  0  0
 26  1  2  0  0  0  0
 27  1  1  0  0  0  0
 28 29  1  0  0  0  0
 30 34  1  0  0  0  0
 31 32  1  0  0  0  0
 32 29  1  0  0  0  0
 33 30  1  0  0  0  0
 33 31  1  0  0  0  0
 34 32  1  0  0  0  0
M  END
>  <MODEL>
2

>  <REMARK>
 VINA RESULT:      -9.1      3.116      9.510
  Name = 
  3 active torsions:
  status: ('A' for Active; 'I' for Inactive)
    1  A    between atoms: C_17  and  O_28
    2  A    between atoms: O_28  and  C_29
    3  A    between atoms: C_29  and  C_32
                            x       y       z     vdW  Elec       q    Type
                         _______ _______ _______ _____ _____    ______ ____

>  <TORSDO>
F 3

$$$$
=
 OpenBabel11122412043D

 34 40  0  0  1  0  0  0  0  0999 V2000
  182.0750  178.7440  142.6580 C   0  0  0  0  0  0  0  0  0  0  0  0
  183.1610  178.9210  144.9500 C   0  0  0  0  0  2  0  0  0  0  0  0
  181.7400  176.6530  136.4760 C   0  0  0  0  0  0  0  0  0  0  0  0
  181.1720  178.2350  140.4810 C   0  0  0  0  0  0  0  0  0  0  0  0
  182.7690  177.9510  138.4710 C   0  0  2  0  0  3  0  0  0  0  0  0
  184.0410  177.5640  136.3470 C   0  0  0  0  0  1  0  0  0  0  0  0
  181.6310  175.4850  136.0240 O   0  0  0  0  0  0  0  0  0  0  0  0
  180.7190  178.9650  136.7100 C   0  0  0  0  0  2  0  0  0  0  0  0
  184.5320  179.2160  142.9810 C   0  0  2  0  0  3  0  0  0  0  0  0
  187.2550  177.4720  143.1650 C   0  0  0  0  0  3  0  0  0  0  0  0
  183.7900  177.6030  139.5500 C   0  0  0  0  0  2  0  0  0  0  0  0
  180.4570  178.9720  138.2170 C   0  0  0  0  0  2  0  0  0  0  0  0
  184.7640  178.3240  141.7510 C   0  0  1  0  0  3  0  0  0  0  0  0
  184.5940  179.1550  145.4000 C   0  0  0  0  0  2  0  0  0  0  0  0
  181.3130  177.9680  139.0000 C   0  0  2  0  0  3  0  0  0  0  0  0
  180.7100  177.6070  136.1880 N   0  0  0  0  0  2  0  0  0  0  0  0
  186.1040  177.5670  144.1350 C   0  0  2  0  0  3  0  0  0  0  0  0
  182.2870  178.5130  141.2910 C   0  0  0  0  0  0  0  0  0  0  0  0
  182.9720  177.0090  137.2710 C   0  0  2  0  0  3  0  0  0  0  0  0
  183.6760  178.5960  140.7000 C   0  0  2  0  0  3  0  0  0  0  0  0
  179.7580  178.3740  142.3790 C   0  0  0  0  0  3  0  0  0  0  0  0
  187.2540  177.8920  141.8880 C   0  0  0  0  0  3  0  0  0  0  0  0
  179.9380  178.1630  141.0490 N   0  0  0  0  0  0  0  0  0  0  0  0
  186.1440  178.6290  141.1840 C   0  0  0  0  0  2  0  0  0  0  0  0
  185.4810  178.9760  144.1640 C   0  0  1  0  0  3  0  0  0  0  0  0
  180.8210  178.6620  143.1740 N   0  0  0  0  0  0  0  0  0  0  0  0
  183.1950  179.0210  143.5070 N   0  0  0  0  0  0  0  0  0  0  0  0
  186.5570  177.1910  145.4040 O   0  0  0  0  0  0  0  0  0  0  0  0
  187.9510  177.2240  145.3110 C   0  0  0  0  0  2  0  0  0  0  0  0
  188.2870  178.0330  148.8430 C   0  0  0  0  0  2  0  0  0  0  0  0
  189.7510  177.4430  147.0240 C   0  0  0  0  0  2  0  0  0  0  0  0
  188.5250  178.0900  146.4180 C   0  0  0  0  0  3  0  0  0  0  0  0
  189.7470  177.8780  148.4700 C   0  0  0  0  0  2  0  0  0  0  0  0
  187.5210  178.2260  147.5450 C   0  0  0  0  0  2  0  0  0  0  0  0
  1 26  1  0  0  0  0
  1 27  1  0  0  0  0
  2 14  1  0  0  0  0
  3 19  1  0  0  0  0
  4 23  2  0  0  0  0
  4 18  1  0  0  0  0
  5 15  1  0  0  0  0
  5 11  1  1  0  0  0
  7  3  2  0  0  0  0
  8 12  1  0  0  0  0
  9 27  1  1  0  0  0
  9 25  1  0  0  0  0
 10 17  1  0  0  0  0
 13 24  1  6  0  0  0
 13  9  1  0  0  0  0
 15 12  1  6  0  0  0
 15  4  1  0  0  0  0
 16  3  1  0  0  0  0
 16  8  1  0  0  0  0
 17 25  1  0  0  0  0
 17 28  1  1  0  0  0
 18  1  2  0  0  0  0
 19  6  1  6  0  0  0
 19  5  1  0  0  0  0
 20 11  1  6  0  0  0
 20 18  1  0  0  0  0
 20 13  1  0  0  0  0
 21 26  2  0  0  0  0
 22 10  2  0  0  0  0
 23 21  1  0  0  0  0
 24 22  1  0  0  0  0
 25 14  1  1  0  0  0
 27  2  1  0  0  0  0
 29 28  1  0  0  0  0
 29 32  1  0  0  0  0
 31 33  1  0  0  0  0
 32 31  1  0  0  0  0
 32 34  1  0  0  0  0
 33 30  1  0  0  0  0
 34 30  1  0  0  0  0
M  END
>  <MODEL>
3

>  <REMARK>
 VINA RESULT:      -9.0      1.233      1.489
  Name = 
  3 active torsions:
  status: ('A' for Active; 'I' for Inactive)
    1  A    between atoms: C_17  and  O_28
    2  A    between atoms: O_28  and  C_29
    3  A    between atoms: C_29  and  C_32
                            x       y       z     vdW  Elec       q    Type
                         _______ _______ _______ _____ _____    ______ ____

>  <TORSDO>
F 3

$$$$
=
 OpenBabel11122412043D

 34 40  0  0  1  0  0  0  0  0999 V2000
  187.8480  177.9510  140.0370 C   0  0  0  0  0  0  0  0  0  0  0  0
  185.9200  178.1210  138.3900 C   0  0  0  0  0  2  0  0  0  0  0  0
  190.4600  176.7080  145.8970 C   0  0  0  0  0  0  0  0  0  0  0  0
  189.5000  177.5030  141.7370 C   0  0  0  0  0  0  0  0  0  0  0  0
  188.9390  177.9660  144.2150 C   0  0  2  0  0  3  0  0  0  0  0  0
  188.6910  178.2520  146.6920 C   0  0  0  0  0  1  0  0  0  0  0  0
  190.5190  175.6310  146.5420 O   0  0  0  0  0  0  0  0  0  0  0  0
  191.7150  178.5750  144.7200 C   0  0  0  0  0  2  0  0  0  0  0  0
  185.6550  179.0620  140.6010 C   0  0  2  0  0  3  0  0  0  0  0  0
  182.8430  178.1670  141.9370 C   0  0  0  0  0  3  0  0  0  0  0  0
  187.4990  177.7840  143.7460 C   0  0  0  0  0  2  0  0  0  0  0  0
  191.2770  178.3020  143.2810 C   0  0  0  0  0  2  0  0  0  0  0  0
  185.8170  178.4500  142.0020 C   0  0  1  0  0  3  0  0  0  0  0  0
  184.5160  178.6950  138.4970 C   0  0  0  0  0  2  0  0  0  0  0  0
  189.9790  177.4910  143.1700 C   0  0  2  0  0  3  0  0  0  0  0  0
  191.6800  177.3550  145.5130 N   0  0  0  0  0  2  0  0  0  0  0  0
  183.4370  177.7950  140.6020 C   0  0  2  0  0  3  0  0  0  0  0  0
  188.2230  177.9780  141.3890 C   0  0  0  0  0  0  0  0  0  0  0  0
  189.1040  177.2930  145.5890 C   0  0  2  0  0  3  0  0  0  0  0  0
  187.2880  178.5360  142.4380 C   0  0  2  0  0  3  0  0  0  0  0  0
  189.9210  176.9710  139.4650 C   0  0  0  0  0  3  0  0  0  0  0  0
  183.4950  178.7380  142.9650 C   0  0  0  0  0  3  0  0  0  0  0  0
  190.3110  177.0020  140.7660 N   0  0  0  0  0  0  0  0  0  0  0  0
  184.9250  179.2120  142.9710 C   0  0  0  0  0  2  0  0  0  0  0  0
  184.2540  178.9470  139.9850 C   0  0  1  0  0  3  0  0  0  0  0  0
  188.6980  177.4420  139.1080 N   0  0  0  0  0  0  0  0  0  0  0  0
  186.5500  178.4210  139.6570 N   0  0  0  0  0  0  0  0  0  0  0  0
  182.4030  177.3980  139.7480 O   0  0  0  0  0  0  0  0  0  0  0  0
  182.3840  176.0030  139.8330 C   0  0  0  0  0  2  0  0  0  0  0  0
  182.6960  176.3490  136.2240 C   0  0  0  0  0  2  0  0  0  0  0  0
  183.7470  175.0620  137.9680 C   0  0  0  0  0  2  0  0  0  0  0  0
  182.3510  175.3980  138.4410 C   0  0  0  0  0  3  0  0  0  0  0  0
  183.7070  175.2470  136.4700 C   0  0  0  0  0  2  0  0  0  0  0  0
  181.8010  176.4040  137.4500 C   0  0  0  0  0  2  0  0  0  0  0  0
  1 18  1  0  0  0  0
  2 14  1  0  0  0  0
  2 27  1  0  0  0  0
  3  7  2  0  0  0  0
  4 15  1  0  0  0  0
  5 11  1  6  0  0  0
  5 19  1  0  0  0  0
  8 16  1  0  0  0  0
  9 27  1  6  0  0  0
  9 13  1  0  0  0  0
 10 22  2  0  0  0  0
 12  8  1  0  0  0  0
 13 20  1  0  0  0  0
 13 24  1  1  0  0  0
 15 12  1  6  0  0  0
 15  5  1  0  0  0  0
 16  3  1  0  0  0  0
 17 28  1  6  0  0  0
 17 10  1  0  0  0  0
 18  4  2  0  0  0  0
 18 20  1  0  0  0  0
 19  3  1  0  0  0  0
 19  6  1  1  0  0  0
 20 11  1  1  0  0  0
 21 23  2  0  0  0  0
 22 24  1  0  0  0  0
 23  4  1  0  0  0  0
 25 14  1  6  0  0  0
 25  9  1  0  0  0  0
 25 17  1  0  0  0  0
 26 21  1  0  0  0  0
 26  1  2  0  0  0  0
 27  1  1  0  0  0  0
 28 29  1  0  0  0  0
 30 33  1  0  0  0  0
 30 34  1  0  0  0  0
 31 32  1  0  0  0  0
 32 29  1  0  0  0  0
 33 31  1  0  0  0  0
 34 32  1  0  0  0  0
M  END
>  <MODEL>
4

>  <REMARK>
 VINA RESULT:      -8.8      3.200      9.300
  Name = 
  3 active torsions:
  status: ('A' for Active; 'I' for Inactive)
    1  A    between atoms: C_17  and  O_28
    2  A    between atoms: O_28  and  C_29
    3  A    between atoms: C_29  and  C_32
                            x       y       z     vdW  Elec       q    Type
                         _______ _______ _______ _____ _____    ______ ____

>  <TORSDO>
F 3

$$$$
=
 OpenBabel11122412043D

 34 40  0  0  1  0  0  0  0  0999 V2000
  183.4540  178.6650  143.5620 C   0  0  0  0  0  0  0  0  0  0  0  0
  181.1890  179.2540  142.5700 C   0  0  0  0  0  2  0  0  0  0  0  0
  189.9870  178.4880  143.5640 C   0  0  0  0  0  0  0  0  0  0  0  0
  185.7170  178.4190  144.3580 C   0  0  0  0  0  0  0  0  0  0  0  0
  187.6150  177.9260  142.6780 C   0  0  2  0  0  3  0  0  0  0  0  0
  189.6720  177.5030  141.3120 C   0  0  0  0  0  1  0  0  0  0  0  0
  190.8200  179.4300  143.5930 O   0  0  0  0  0  0  0  0  0  0  0  0
  189.0220  176.4430  144.7150 C   0  0  0  0  0  2  0  0  0  0  0  0
  182.8610  178.2420  141.1480 C   0  0  2  0  0  3  0  0  0  0  0  0
  183.1490  179.8370  138.3430 C   0  0  0  0  0  3  0  0  0  0  0  0
  186.6720  178.5880  141.6790 C   0  0  0  0  0  2  0  0  0  0  0  0
  187.6210  176.9700  145.0310 C   0  0  0  0  0  2  0  0  0  0  0  0
  184.3090  178.6410  140.8240 C   0  0  1  0  0  3  0  0  0  0  0  0
  180.6110  179.1370  141.1690 C   0  0  0  0  0  2  0  0  0  0  0  0
  187.1890  178.1490  144.1500 C   0  0  2  0  0  3  0  0  0  0  0  0
  189.9810  177.5340  144.6330 N   0  0  0  0  0  2  0  0  0  0  0  0
  182.2670  180.1280  139.5310 C   0  0  2  0  0  3  0  0  0  0  0  0
  184.8040  178.3980  143.2900 C   0  0  0  0  0  0  0  0  0  0  0  0
  189.0540  178.3840  142.3820 C   0  0  2  0  0  3  0  0  0  0  0  0
  185.2570  178.0630  141.8870 C   0  0  2  0  0  3  0  0  0  0  0  0
  183.9640  179.0030  145.8450 C   0  0  0  0  0  3  0  0  0  0  0  0
  184.2010  178.9990  138.3210 C   0  0  0  0  0  3  0  0  0  0  0  0
  185.2740  178.7320  145.6070 N   0  0  0  0  0  0  0  0  0  0  0  0
  184.6630  178.1060  139.4430 C   0  0  0  0  0  2  0  0  0  0  0  0
  181.7860  178.8420  140.2300 C   0  0  1  0  0  3  0  0  0  0  0  0
  183.0650  178.9690  144.8280 N   0  0  0  0  0  0  0  0  0  0  0  0
  182.5050  178.6580  142.4900 N   0  0  0  0  0  0  0  0  0  0  0  0
  181.1840  180.9040  139.1040 O   0  0  0  0  0  0  0  0  0  0  0  0
  181.7570  181.9450  138.3690 C   0  0  0  0  0  2  0  0  0  0  0  0
  180.8060  184.2610  135.7280 C   0  0  0  0  0  2  0  0  0  0  0  0
  180.4300  181.9410  136.2580 C   0  0  0  0  0  2  0  0  0  0  0  0
  180.6890  182.6600  137.5620 C   0  0  0  0  0  3  0  0  0  0  0  0
  180.0460  183.0280  135.2820 C   0  0  0  0  0  2  0  0  0  0  0  0
  181.1620  184.0510  137.1900 C   0  0  0  0  0  2  0  0  0  0  0  0
  1 26  1  0  0  0  0
  3  7  2  0  0  0  0
  3 16  1  0  0  0  0
  4 23  2  0  0  0  0
  5 11  1  6  0  0  0
  5 15  1  0  0  0  0
  8 12  1  0  0  0  0
  9 27  1  1  0  0  0
 10 17  1  0  0  0  0
 13 24  1  6  0  0  0
 13  9  1  0  0  0  0
 13 20  1  0  0  0  0
 14  2  1  0  0  0  0
 15  4  1  0  0  0  0
 15 12  1  1  0  0  0
 16  8  1  0  0  0  0
 17 28  1  6  0  0  0
 17 25  1  0  0  0  0
 18  1  2  0  0  0  0
 18  4  1  0  0  0  0
 19  6  1  6  0  0  0
 19  5  1  0  0  0  0
 19  3  1  0  0  0  0
 20 11  1  6  0  0  0
 20 18  1  0  0  0  0
 22 10  2  0  0  0  0
 22 24  1  0  0  0  0
 23 21  1  0  0  0  0
 25  9  1  0  0  0  0
 25 14  1  1  0  0  0
 26 21  2  0  0  0  0
 27  2  1  0  0  0  0
 27  1  1  0  0  0  0
 29 28  1  0  0  0  0
 30 34  1  0  0  0  0
 31 32  1  0  0  0  0
 32 29  1  0  0  0  0
 33 30  1  0  0  0  0
 33 31  1  0  0  0  0
 34 32  1  0  0  0  0
M  END
>  <MODEL>
5

>  <REMARK>
 VINA RESULT:      -8.7      2.856      8.843
  Name = 
  3 active torsions:
  status: ('A' for Active; 'I' for Inactive)
    1  A    between atoms: C_17  and  O_28
    2  A    between atoms: O_28  and  C_29
    3  A    between atoms: C_29  and  C_32
                            x       y       z     vdW  Elec       q    Type
                         _______ _______ _______ _____ _____    ______ ____

>  <TORSDO>
F 3

$$$$
=
 OpenBabel11122412043D

 34 40  0  0  1  0  0  0  0  0999 V2000
  187.8350  177.9980  140.0810 C   0  0  0  0  0  0  0  0  0  0  0  0
  185.9010  178.1370  138.4370 C   0  0  0  0  0  2  0  0  0  0  0  0
  190.4830  176.7600  145.9260 C   0  0  0  0  0  0  0  0  0  0  0  0
  189.4980  177.5730  141.7750 C   0  0  0  0  0  0  0  0  0  0  0  0
  188.9290  177.9970  144.2580 C   0  0  2  0  0  3  0  0  0  0  0  0
  188.6770  178.2520  146.7380 C   0  0  0  0  0  1  0  0  0  0  0  0
  190.5690  175.6770  146.5600 O   0  0  0  0  0  0  0  0  0  0  0  0
  191.6900  178.6680  144.7670 C   0  0  0  0  0  2  0  0  0  0  0  0
  185.6160  179.0490  140.6580 C   0  0  2  0  0  3  0  0  0  0  0  0
  182.8280  178.0720  141.9870 C   0  0  0  0  0  3  0  0  0  0  0  0
  187.4930  177.7840  143.7880 C   0  0  0  0  0  2  0  0  0  0  0  0
  191.2570  178.3990  143.3250 C   0  0  0  0  0  2  0  0  0  0  0  0
  185.7940  178.4270  142.0520 C   0  0  1  0  0  3  0  0  0  0  0  0
  184.4830  178.6750  138.5510 C   0  0  0  0  0  2  0  0  0  0  0  0
  189.9790  177.5580  143.2070 C   0  0  2  0  0  3  0  0  0  0  0  0
  191.6860  177.4400  145.5480 N   0  0  0  0  0  2  0  0  0  0  0  0
  183.4290  177.7280  140.6480 C   0  0  2  0  0  3  0  0  0  0  0  0
  188.2100  178.0190  141.4330 C   0  0  0  0  0  0  0  0  0  0  0  0
  189.1120  177.3140  145.6250 C   0  0  2  0  0  3  0  0  0  0  0  0
  187.2630  178.5440  142.4880 C   0  0  2  0  0  3  0  0  0  0  0  0
  189.9300  177.0740  139.4970 C   0  0  0  0  0  3  0  0  0  0  0  0
  183.4670  178.6490  143.0200 C   0  0  0  0  0  3  0  0  0  0  0  0
  190.3200  177.1020  140.7980 N   0  0  0  0  0  0  0  0  0  0  0  0
  184.8850  179.1580  143.0300 C   0  0  0  0  0  2  0  0  0  0  0  0
  184.2170  178.9060  140.0420 C   0  0  1  0  0  3  0  0  0  0  0  0
  188.6960  177.5190  139.1460 N   0  0  0  0  0  0  0  0  0  0  0  0
  186.5250  178.4390  139.7070 N   0  0  0  0  0  0  0  0  0  0  0  0
  182.4040  177.3140  139.7900 O   0  0  0  0  0  0  0  0  0  0  0  0
  181.2270  177.5190  140.5150 C   0  0  0  0  0  2  0  0  0  0  0  0
  179.9700  174.4080  139.1060 C   0  0  0  0  0  2  0  0  0  0  0  0
  179.4310  175.8470  140.9610 C   0  0  0  0  0  2  0  0  0  0  0  0
  180.0970  176.7050  139.9100 C   0  0  0  0  0  3  0  0  0  0  0  0
  178.9660  174.6150  140.2220 C   0  0  0  0  0  2  0  0  0  0  0  0
  180.6450  175.7480  138.8690 C   0  0  0  0  0  2  0  0  0  0  0  0
  1 18  1  0  0  0  0
  2 14  1  0  0  0  0
  2 27  1  0  0  0  0
  3  7  2  0  0  0  0
  4 15  1  0  0  0  0
  5 11  1  6  0  0  0
  5 19  1  0  0  0  0
  8 16  1  0  0  0  0
  9 27  1  6  0  0  0
  9 13  1  0  0  0  0
 10 22  2  0  0  0  0
 12  8  1  0  0  0  0
 13 20  1  0  0  0  0
 13 24  1  1  0  0  0
 15 12  1  6  0  0  0
 15  5  1  0  0  0  0
 16  3  1  0  0  0  0
 17 28  1  6  0  0  0
 17 10  1  0  0  0  0
 18  4  2  0  0  0  0
 18 20  1  0  0  0  0
 19  3  1  0  0  0  0
 19  6  1  1  0  0  0
 20 11  1  1  0  0  0
 21 23  2  0  0  0  0
 22 24  1  0  0  0  0
 23  4  1  0  0  0  0
 25 14  1  6  0  0  0
 25 17  1  0  0  0  0
 25  9  1  0  0  0  0
 26 21  1  0  0  0  0
 26  1  2  0  0  0  0
 27  1  1  0  0  0  0
 28 29  1  0  0  0  0
 30 33  1  0  0  0  0
 32 29  1  0  0  0  0
 32 31  1  0  0  0  0
 33 31  1  0  0  0  0
 34 30  1  0  0  0  0
 34 32  1  0  0  0  0
M  END
>  <MODEL>
6

>  <REMARK>
 VINA RESULT:      -8.6      3.215      9.466
  Name = 
  3 active torsions:
  status: ('A' for Active; 'I' for Inactive)
    1  A    between atoms: C_17  and  O_28
    2  A    between atoms: O_28  and  C_29
    3  A    between atoms: C_29  and  C_32
                            x       y       z     vdW  Elec       q    Type
                         _______ _______ _______ _____ _____    ______ ____

>  <TORSDO>
F 3

$$$$
=
 OpenBabel11122412043D

 34 40  0  0  1  0  0  0  0  0999 V2000
  187.9500  177.8320  140.5880 C   0  0  0  0  0  0  0  0  0  0  0  0
  186.1950  178.0620  138.7650 C   0  0  0  0  0  2  0  0  0  0  0  0
  189.9420  176.5670  146.6830 C   0  0  0  0  0  0  0  0  0  0  0  0
  189.4130  177.3380  142.4420 C   0  0  0  0  0  0  0  0  0  0  0  0
  188.6430  177.8640  144.8500 C   0  0  2  0  0  3  0  0  0  0  0  0
  188.1780  178.1990  147.2890 C   0  0  0  0  0  1  0  0  0  0  0  0
  189.8910  175.4970  147.3430 O   0  0  0  0  0  0  0  0  0  0  0  0
  191.3840  178.3570  145.6080 C   0  0  0  0  0  2  0  0  0  0  0  0
  185.7670  179.0470  140.9300 C   0  0  2  0  0  3  0  0  0  0  0  0
  182.8040  178.2980  142.0040 C   0  0  0  0  0  3  0  0  0  0  0  0
  187.2470  177.7380  144.2490 C   0  0  0  0  0  2  0  0  0  0  0  0
  191.0720  178.0810  144.1370 C   0  0  0  0  0  2  0  0  0  0  0  0
  185.7690  178.4500  142.3460 C   0  0  1  0  0  3  0  0  0  0  0  0
  184.8140  178.6980  138.7320 C   0  0  0  0  0  2  0  0  0  0  0  0
  189.7540  177.3270  143.9130 C   0  0  2  0  0  3  0  0  0  0  0  0
  191.2200  177.1530  146.4090 N   0  0  0  0  0  2  0  0  0  0  0  0
  183.5030  177.8800  140.7360 C   0  0  2  0  0  3  0  0  0  0  0  0
  188.1970  177.8630  141.9690 C   0  0  0  0  0  0  0  0  0  0  0  0
  188.6480  177.2060  146.2410 C   0  0  2  0  0  3  0  0  0  0  0  0
  187.1940  178.4790  142.9190 C   0  0  2  0  0  3  0  0  0  0  0  0
  190.0200  176.7530  140.2250 C   0  0  0  0  0  3  0  0  0  0  0  0
  183.3810  178.8560  143.0830 C   0  0  0  0  0  3  0  0  0  0  0  0
  190.2880  176.7870  141.5570 N   0  0  0  0  0  0  0  0  0  0  0  0
  184.8250  179.2670  143.2180 C   0  0  0  0  0  2  0  0  0  0  0  0
  184.4250  178.9850  140.1850 C   0  0  1  0  0  3  0  0  0  0  0  0
  188.8590  177.2720  139.7490 N   0  0  0  0  0  0  0  0  0  0  0  0
  186.7160  178.3530  140.0820 N   0  0  0  0  0  0  0  0  0  0  0  0
  182.5370  177.5150  139.7920 O   0  0  0  0  0  0  0  0  0  0  0  0
  182.5090  176.1180  139.8300 C   0  0  0  0  0  2  0  0  0  0  0  0
  178.9600  176.7180  139.2870 C   0  0  0  0  0  2  0  0  0  0  0  0
  180.8320  175.9260  137.9940 C   0  0  0  0  0  2  0  0  0  0  0  0
  181.1290  175.6170  139.4440 C   0  0  0  0  0  3  0  0  0  0  0  0
  179.3380  176.1400  137.9390 C   0  0  0  0  0  2  0  0  0  0  0  0
  180.0680  176.3360  140.2540 C   0  0  0  0  0  2  0  0  0  0  0  0
  1 18  1  0  0  0  0
  2 27  1  0  0  0  0
  3  7  2  0  0  0  0
  4 15  1  0  0  0  0
  5 11  1  6  0  0  0
  5 19  1  0  0  0  0
  8 16  1  0  0  0  0
  9 27  1  6  0  0  0
  9 13  1  0  0  0  0
 10 22  2  0  0  0  0
 12  8  1  0  0  0  0
 13 20  1  0  0  0  0
 13 24  1  1  0  0  0
 14  2  1  0  0  0  0
 15 12  1  6  0  0  0
 15  5  1  0  0  0  0
 16  3  1  0  0  0  0
 17 28  1  6  0  0  0
 17 10  1  0  0  0  0
 18  4  2  0  0  0  0
 18 20  1  0  0  0  0
 19  3  1  0  0  0  0
 19  6  1  1  0  0  0
 20 11  1  1  0  0  0
 21 23  2  0  0  0  0
 22 24  1  0  0  0  0
 23  4  1  0  0  0  0
 25 14  1  6  0  0  0
 25 17  1  0  0  0  0
 25  9  1  0  0  0  0
 26 21  1  0  0  0  0
 26  1  2  0  0  0  0
 27  1  1  0  0  0  0
 28 29  1  0  0  0  0
 30 34  1  0  0  0  0
 31 32  1  0  0  0  0
 32 29  1  0  0  0  0
 32 34  1  0  0  0  0
 33 31  1  0  0  0  0
 33 30  1  0  0  0  0
M  END
>  <MODEL>
7

>  <REMARK>
 VINA RESULT:      -8.3      3.042      9.486
  Name = 
  3 active torsions:
  status: ('A' for Active; 'I' for Inactive)
    1  A    between atoms: C_17  and  O_28
    2  A    between atoms: O_28  and  C_29
    3  A    between atoms: C_29  and  C_32
                            x       y       z     vdW  Elec       q    Type
                         _______ _______ _______ _____ _____    ______ ____

>  <TORSDO>
F 3

$$$$
=
 OpenBabel11122412043D

 34 40  0  0  1  0  0  0  0  0999 V2000
  186.3920  178.2010  140.9090 C   0  0  0  0  0  0  0  0  0  0  0  0
  188.8360  177.8320  141.5010 C   0  0  0  0  0  2  0  0  0  0  0  0
  180.2660  180.0750  142.1970 C   0  0  0  0  0  0  0  0  0  0  0  0
  184.0950  178.8470  140.5570 C   0  0  0  0  0  0  0  0  0  0  0  0
  182.3980  178.6280  142.4910 C   0  0  2  0  0  3  0  0  0  0  0  0
  180.5320  178.5890  144.1630 C   0  0  0  0  0  1  0  0  0  0  0  0
  179.8120  181.2130  142.4810 O   0  0  0  0  0  0  0  0  0  0  0  0
  180.2970  178.1210  140.5780 C   0  0  0  0  0  2  0  0  0  0  0  0
  187.1330  177.1150  143.0610 C   0  0  2  0  0  3  0  0  0  0  0  0
  187.8060  178.0910  146.0750 C   0  0  0  0  0  3  0  0  0  0  0  0
  183.6410  178.7370  143.3680 C   0  0  0  0  0  2  0  0  0  0  0  0
  181.7350  178.2400  140.0700 C   0  0  0  0  0  2  0  0  0  0  0  0
  185.9710  177.8680  143.7270 C   0  0  1  0  0  3  0  0  0  0  0  0
  189.5280  177.2470  142.7230 C   0  0  0  0  0  2  0  0  0  0  0  0
  182.6640  179.0120  141.0150 C   0  0  2  0  0  3  0  0  0  0  0  0
  179.7940  179.4140  141.0170 N   0  0  0  0  0  2  0  0  0  0  0  0
  188.5590  178.3370  144.7930 C   0  0  2  0  0  3  0  0  0  0  0  0
  185.0850  178.3180  141.4040 C   0  0  0  0  0  0  0  0  0  0  0  0
  181.2600  179.4390  143.1370 C   0  0  2  0  0  3  0  0  0  0  0  0
  184.7440  177.8520  142.8020 C   0  0  2  0  0  3  0  0  0  0  0  0
  185.7170  179.1540  138.8550 C   0  0  0  0  0  3  0  0  0  0  0  0
  186.5450  177.6390  146.1820 C   0  0  0  0  0  3  0  0  0  0  0  0
  184.4410  179.2610  139.3080 N   0  0  0  0  0  0  0  0  0  0  0  0
  185.6520  177.1920  145.0530 C   0  0  0  0  0  2  0  0  0  0  0  0
  188.4660  177.1430  143.8230 C   0  0  1  0  0  3  0  0  0  0  0  0
  186.6820  178.6280  139.6520 N   0  0  0  0  0  0  0  0  0  0  0  0
  187.4210  177.6720  141.7540 N   0  0  0  0  0  0  0  0  0  0  0  0
  189.8920  178.6280  145.1050 O   0  0  0  0  0  0  0  0  0  0  0  0
  190.1060  178.0320  146.3510 C   0  0  0  0  0  2  0  0  0  0  0  0
  192.2510  175.3030  147.4460 C   0  0  0  0  0  2  0  0  0  0  0  0
  191.5060  176.2270  145.3500 C   0  0  0  0  0  2  0  0  0  0  0  0
  191.4580  177.3420  146.3700 C   0  0  0  0  0  3  0  0  0  0  0  0
  192.4310  175.1920  145.9460 C   0  0  0  0  0  2  0  0  0  0  0  0
  191.6890  176.6880  147.7190 C   0  0  0  0  0  2  0  0  0  0  0  0
  1 18  1  0  0  0  0
  1 27  1  0  0  0  0
  2 27  1  0  0  0  0
  2 14  1  0  0  0  0
  3  7  2  0  0  0  0
  3 19  1  0  0  0  0
  4 15  1  0  0  0  0
  4 18  2  0  0  0  0
  5 19  1  0  0  0  0
  5 11  1  1  0  0  0
  8 16  1  0  0  0  0
  9 27  1  6  0  0  0
  9 13  1  0  0  0  0
  9 25  1  0  0  0  0
 10 22  2  0  0  0  0
 12  8  1  0  0  0  0
 13 24  1  1  0  0  0
 15 12  1  6  0  0  0
 15  5  1  0  0  0  0
 16  3  1  0  0  0  0
 17 28  1  1  0  0  0
 17 10  1  0  0  0  0
 18 20  1  0  0  0  0
 19  6  1  1  0  0  0
 20 11  1  1  0  0  0
 20 13  1  0  0  0  0
 21 23  2  0  0  0  0
 21 26  1  0  0  0  0
 23  4  1  0  0  0  0
 24 22  1  0  0  0  0
 25 14  1  6  0  0  0
 25 17  1  0  0  0  0
 26  1  2  0  0  0  0
 28 29  1  0  0  0  0
 29 32  1  0  0  0  0
 30 34  1  0  0  0  0
 31 33  1  0  0  0  0
 31 32  1  0  0  0  0
 32 34  1  0  0  0  0
 33 30  1  0  0  0  0
M  END
>  <MODEL>
8

>  <REMARK>
 VINA RESULT:      -8.2      2.417      4.417
  Name = 
  3 active torsions:
  status: ('A' for Active; 'I' for Inactive)
    1  A    between atoms: C_17  and  O_28
    2  A    between atoms: O_28  and  C_29
    3  A    between atoms: C_29  and  C_32
                            x       y       z     vdW  Elec       q    Type
                         _______ _______ _______ _____ _____    ______ ____

>  <TORSDO>
F 3

$$$$
=
 OpenBabel11122412043D

 34 40  0  0  1  0  0  0  0  0999 V2000
  189.6720  176.2900  136.9820 C   0  0  0  0  0  0  0  0  0  0  0  0
  187.7890  177.3870  138.2900 C   0  0  0  0  0  2  0  0  0  0  0  0
  195.2140  172.8710  136.4370 C   0  0  0  0  0  0  0  0  0  0  0  0
  191.4490  174.9910  135.9970 C   0  0  0  0  0  0  0  0  0  0  0  0
  193.7500  174.8840  137.1650 C   0  0  2  0  0  3  0  0  0  0  0  0
  196.0610  174.5350  138.0680 C   0  0  0  0  0  1  0  0  0  0  0  0
  195.4620  171.6800  136.7530 O   0  0  0  0  0  0  0  0  0  0  0  0
  195.0320  174.6070  134.5940 C   0  0  0  0  0  2  0  0  0  0  0  0
  190.0690  177.7220  139.0190 C   0  0  2  0  0  3  0  0  0  0  0  0
  190.3720  177.2400  142.2080 C   0  0  0  0  0  3  0  0  0  0  0  0
  192.9400  175.2080  138.4160 C   0  0  0  0  0  2  0  0  0  0  0  0
  193.5240  174.8580  134.6350 C   0  0  0  0  0  2  0  0  0  0  0  0
  191.1870  176.7300  139.3780 C   0  0  1  0  0  3  0  0  0  0  0  0
  187.7640  178.2470  139.5440 C   0  0  0  0  0  2  0  0  0  0  0  0
  192.8660  174.4660  135.9640 C   0  0  2  0  0  3  0  0  0  0  0  0
  195.3480  173.2670  135.0660 N   0  0  0  0  0  2  0  0  0  0  0  0
  189.1580  177.1090  141.3250 C   0  0  2  0  0  3  0  0  0  0  0  0
  191.0030  175.8500  137.0170 C   0  0  0  0  0  0  0  0  0  0  0  0
  194.8240  173.8420  137.5240 C   0  0  2  0  0  3  0  0  0  0  0  0
  191.9430  176.3180  138.1050 C   0  0  2  0  0  3  0  0  0  0  0  0
  189.2830  175.0120  135.0330 C   0  0  0  0  0  3  0  0  0  0  0  0
  191.6500  177.3230  141.7950 C   0  0  0  0  0  3  0  0  0  0  0  0
  190.5730  174.5860  135.0380 N   0  0  0  0  0  0  0  0  0  0  0  0
  192.1300  177.3990  140.3690 C   0  0  0  0  0  2  0  0  0  0  0  0
  189.1540  178.1400  140.1800 C   0  0  1  0  0  3  0  0  0  0  0  0
  188.8400  175.8570  135.9990 N   0  0  0  0  0  0  0  0  0  0  0  0
  189.1900  177.1590  138.0130 N   0  0  0  0  0  0  0  0  0  0  0  0
  188.0120  177.2360  142.1190 O   0  0  0  0  0  0  0  0  0  0  0  0
  188.4920  177.5820  143.3850 C   0  0  0  0  0  2  0  0  0  0  0  0
  186.9380  177.9810  146.6530 C   0  0  0  0  0  2  0  0  0  0  0  0
  186.2110  177.8520  144.3590 C   0  0  0  0  0  2  0  0  0  0  0  0
  187.5240  177.1060  144.4540 C   0  0  0  0  0  3  0  0  0  0  0  0
  185.7020  177.9260  145.7790 C   0  0  0  0  0  2  0  0  0  0  0  0
  188.0810  177.4070  145.8310 C   0  0  0  0  0  2  0  0  0  0  0  0
  1 18  1  0  0  0  0
  1 27  1  0  0  0  0
  2 14  1  0  0  0  0
  3  7  2  0  0  0  0
  3 19  1  0  0  0  0
  4 18  2  0  0  0  0
  5 19  1  0  0  0  0
  5 11  1  1  0  0  0
  8 12  1  0  0  0  0
  8 16  1  0  0  0  0
  9 27  1  6  0  0  0
  9 13  1  0  0  0  0
  9 25  1  0  0  0  0
 13 24  1  1  0  0  0
 15 12  1  6  0  0  0
 15  4  1  0  0  0  0
 15  5  1  0  0  0  0
 16  3  1  0  0  0  0
 17 28  1  1  0  0  0
 17 10  1  0  0  0  0
 18 20  1  0  0  0  0
 19  6  1  6  0  0  0
 20 11  1  1  0  0  0
 20 13  1  0  0  0  0
 21 23  2  0  0  0  0
 21 26  1  0  0  0  0
 22 10  2  0  0  0  0
 23  4  1  0  0  0  0
 24 22  1  0  0  0  0
 25 14  1  6  0  0  0
 25 17  1  0  0  0  0
 26  1  2  0  0  0  0
 27  2  1  0  0  0  0
 28 29  1  0  0  0  0
 29 32  1  0  0  0  0
 31 32  1  0  0  0  0
 31 33  1  0  0  0  0
 32 34  1  0  0  0  0
 33 30  1  0  0  0  0
 34 30  1  0  0  0  0
M  END
>  <MODEL>
9

>  <REMARK>
 VINA RESULT:      -8.2      7.258     10.320
  Name = 
  3 active torsions:
  status: ('A' for Active; 'I' for Inactive)
    1  A    between atoms: C_17  and  O_28
    2  A    between atoms: O_28  and  C_29
    3  A    between atoms: C_29  and  C_32
                            x       y       z     vdW  Elec       q    Type
                         _______ _______ _______ _____ _____    ______ ____

>  <TORSDO>
F 3

$$$$
