=
 OpenBabel11122411553D

 28 32  0  0  1  0  0  0  0  0999 V2000
  180.0740  178.0600  142.0530 C   0  0  0  0  0  0  0  0  0  0  0  0
  180.2270  180.6760  139.2470 O   0  0  0  0  0  0  0  0  0  0  0  0
  181.6300  174.5400  137.0050 O   0  0  0  0  0  0  0  0  0  0  0  0
  182.1990  178.9650  143.6400 C   0  0  0  0  0  3  0  0  0  0  0  0
  183.5070  175.7580  137.9360 C   0  0  2  0  0  3  0  0  0  0  0  0
  178.9310  177.5090  141.2620 C   0  0  0  0  0  2  0  0  0  0  0  0
  182.2990  181.6220  138.3370 O   0  0  0  0  0  0  0  0  0  0  0  0
  181.4860  180.3660  138.4890 S   0  0  0  0  0  0  0  0  0  0  0  0
  181.6700  178.4200  136.8130 C   0  0  1  0  0  3  0  0  0  0  0  0
  182.4530  179.1400  139.3580 C   0  0  2  0  0  3  0  0  0  0  0  0
  179.5330  173.9780  140.4990 O   0  0  0  0  0  0  0  0  0  0  0  0
  182.1650  176.7220  139.7530 C   0  0  2  0  0  3  0  0  0  0  0  0
  183.0630  178.4860  137.0150 O   0  0  0  0  0  0  0  0  0  0  0  0
  181.0880  179.7510  136.9200 N   0  0  0  0  0  2  0  0  0  0  0  0
  179.4430  175.2170  140.3060 C   0  0  0  0  0  0  0  0  0  0  0  0
  181.3240  178.3310  141.4600 C   0  0  0  0  0  0  0  0  0  0  0  0
  182.0940  175.3320  137.8670 C   0  0  0  0  0  0  0  0  0  0  0  0
  181.3840  177.8570  135.4360 C   0  0  0  0  0  1  0  0  0  0  0  0
  179.8650  175.7870  138.9910 C   0  0  0  0  0  2  0  0  0  0  0  0
  182.3850  178.7700  142.2700 C   0  0  0  0  0  3  0  0  0  0  0  0
  179.8980  178.2540  143.4280 C   0  0  0  0  0  3  0  0  0  0  0  0
  180.9560  178.7110  144.2180 C   0  0  0  0  0  3  0  0  0  0  0  0
  178.9320  176.0550  141.3450 N   0  0  0  0  0  2  0  0  0  0  0  0
  183.4540  176.9300  138.9450 C   0  0  2  0  0  3  0  0  0  0  0  0
  181.3180  175.8860  138.9120 N   0  0  0  0  0  0  0  0  0  0  0  0
  183.3750  178.3690  138.4000 C   0  0  2  0  0  3  0  0  0  0  0  0
  184.0090  176.1170  136.6830 O   0  0  0  0  0  1  0  0  0  0  0  0
  181.5420  178.0940  139.9900 C   0  0  1  0  0  3  0  0  0  0  0  0
  1 21  1  0  0  0  0
  3 17  2  0  0  0  0
  4 22  1  0  0  0  0
  5 27  1  6  0  0  0
  5 24  1  0  0  0  0
  6 23  1  0  0  0  0
  6  1  1  0  0  0  0
  7  8  2  0  0  0  0
  8  2  2  0  0  0  0
  9 18  1  6  0  0  0
  9 14  1  0  0  0  0
  9 13  1  0  0  0  0
 10  8  1  6  0  0  0
 10 28  1  0  0  0  0
 12 25  1  6  0  0  0
 12 28  1  0  0  0  0
 13 26  1  0  0  0  0
 14  8  1  0  0  0  0
 15 11  2  0  0  0  0
 15 23  1  0  0  0  0
 16  1  2  0  0  0  0
 16 20  1  0  0  0  0
 17  5  1  0  0  0  0
 17 25  1  0  0  0  0
 19 15  1  0  0  0  0
 20  4  2  0  0  0  0
 21 22  2  0  0  0  0
 24 12  1  0  0  0  0
 25 19  1  0  0  0  0
 26 24  1  0  0  0  0
 26 10  1  0  0  0  0
 28 16  1  0  0  0  0
M  END
>  <MODEL>
1

>  <REMARK>
 VINA RESULT:      -5.9      0.000      0.000
  Name = 
  0 active torsions:
  status: ('A' for Active; 'I' for Inactive)
                            x       y       z     vdW  Elec       q    Type
                         _______ _______ _______ _____ _____    ______ ____

>  <TORSDO>
F 0

$$$$
=
 OpenBabel11122411553D

 28 32  0  0  1  0  0  0  0  0999 V2000
  182.4570  176.3660  138.1070 C   0  0  0  0  0  0  0  0  0  0  0  0
  184.8170  173.3410  137.9650 O   0  0  0  0  0  0  0  0  0  0  0  0
  188.1060  179.1000  137.1540 O   0  0  0  0  0  0  0  0  0  0  0  0
  180.9200  175.8570  135.8190 C   0  0  0  0  0  3  0  0  0  0  0  0
  187.1460  178.1610  135.1360 C   0  0  2  0  0  3  0  0  0  0  0  0
  183.2320  176.7140  139.3380 C   0  0  0  0  0  2  0  0  0  0  0  0
  185.7270  172.3810  135.9000 O   0  0  0  0  0  0  0  0  0  0  0  0
  185.7120  173.5960  136.7860 S   0  0  0  0  0  0  0  0  0  0  0  0
  187.6840  175.2490  136.8560 C   0  0  1  0  0  3  0  0  0  0  0  0
  185.1270  175.0010  135.8490 C   0  0  2  0  0  3  0  0  0  0  0  0
  184.5890  180.1020  139.0390 O   0  0  0  0  0  0  0  0  0  0  0  0
  185.0980  177.4300  136.2780 C   0  0  2  0  0  3  0  0  0  0  0  0
  187.5850  175.2980  135.4510 O   0  0  0  0  0  0  0  0  0  0  0  0
  187.3210  173.9220  137.3340 N   0  0  0  0  0  2  0  0  0  0  0  0
  184.5750  178.8440  139.0550 C   0  0  0  0  0  0  0  0  0  0  0  0
  183.0970  176.0750  136.8850 C   0  0  0  0  0  0  0  0  0  0  0  0
  187.1690  178.4870  136.5770 C   0  0  0  0  0  0  0  0  0  0  0  0
  189.1050  175.5620  137.2750 C   0  0  0  0  0  1  0  0  0  0  0  0
  185.8130  178.0930  138.6860 C   0  0  0  0  0  2  0  0  0  0  0  0
  182.3140  175.8360  135.7420 C   0  0  0  0  0  3  0  0  0  0  0  0
  181.0590  176.3890  138.1730 C   0  0  0  0  0  3  0  0  0  0  0  0
  180.2930  176.1300  137.0340 C   0  0  0  0  0  3  0  0  0  0  0  0
  183.3800  178.1590  139.4330 N   0  0  0  0  0  2  0  0  0  0  0  0
  185.9630  177.1690  135.0380 C   0  0  2  0  0  3  0  0  0  0  0  0
  185.9910  178.0680  137.2380 N   0  0  0  0  0  0  0  0  0  0  0  0
  186.2650  175.6570  135.0530 C   0  0  2  0  0  3  0  0  0  0  0  0
  188.3620  177.6330  134.6990 O   0  0  0  0  0  1  0  0  0  0  0  0
  184.5990  176.0810  136.7860 C   0  0  1  0  0  3  0  0  0  0  0  0
  1 21  1  0  0  0  0
  1  6  1  0  0  0  0
  4 22  1  0  0  0  0
  5 27  1  1  0  0  0
  5 17  1  0  0  0  0
  6 23  1  0  0  0  0
  7  8  2  0  0  0  0
  8 14  1  0  0  0  0
  8  2  2  0  0  0  0
  9 18  1  6  0  0  0
  9 14  1  0  0  0  0
 10 28  1  0  0  0  0
 10  8  1  1  0  0  0
 11 15  2  0  0  0  0
 12 28  1  0  0  0  0
 12 25  1  1  0  0  0
 13  9  1  0  0  0  0
 15 23  1  0  0  0  0
 16  1  2  0  0  0  0
 17  3  2  0  0  0  0
 17 25  1  0  0  0  0
 19 15  1  0  0  0  0
 20  4  2  0  0  0  0
 20 16  1  0  0  0  0
 22 21  2  0  0  0  0
 24 26  1  0  0  0  0
 24  5  1  0  0  0  0
 24 12  1  0  0  0  0
 25 19  1  0  0  0  0
 26 13  1  0  0  0  0
 26 10  1  0  0  0  0
 28 16  1  0  0  0  0
M  END
>  <MODEL>
2

>  <REMARK>
 VINA RESULT:      -5.5      3.863      6.666
  Name = 
  0 active torsions:
  status: ('A' for Active; 'I' for Inactive)
                            x       y       z     vdW  Elec       q    Type
                         _______ _______ _______ _____ _____    ______ ____

>  <TORSDO>
F 0

$$$$
=
 OpenBabel11122411553D

 28 32  0  0  1  0  0  0  0  0999 V2000
  190.3860  173.8180  136.2050 C   0  0  0  0  0  0  0  0  0  0  0  0
  190.9300  175.5630  139.5810 O   0  0  0  0  0  0  0  0  0  0  0  0
  185.1830  177.4180  136.7220 O   0  0  0  0  0  0  0  0  0  0  0  0
  192.5230  174.9220  134.7670 C   0  0  0  0  0  3  0  0  0  0  0  0
  187.1400  178.6620  136.0190 C   0  0  2  0  0  3  0  0  0  0  0  0
  189.2190  173.1870  136.8970 C   0  0  0  0  0  2  0  0  0  0  0  0
  191.6960  177.8780  139.8440 O   0  0  0  0  0  0  0  0  0  0  0  0
  190.5810  177.0040  139.3390 S   0  0  0  0  0  0  0  0  0  0  0  0
  188.1550  177.8510  139.1870 C   0  0  1  0  0  3  0  0  0  0  0  0
  190.3400  177.3050  137.5940 C   0  0  2  0  0  3  0  0  0  0  0  0
  186.1540  173.8130  134.9940 O   0  0  0  0  0  0  0  0  0  0  0  0
  188.5750  176.6690  135.9930 C   0  0  2  0  0  3  0  0  0  0  0  0
  188.6730  178.9550  138.4780 O   0  0  0  0  0  0  0  0  0  0  0  0
  189.1210  177.4000  140.1800 N   0  0  0  0  0  2  0  0  0  0  0  0
  187.0040  173.9290  135.9130 C   0  0  0  0  0  0  0  0  0  0  0  0
  190.5860  175.2140  136.2110 C   0  0  0  0  0  0  0  0  0  0  0  0
  186.4070  177.4470  136.4280 C   0  0  0  0  0  0  0  0  0  0  0  0
  186.8710  178.2530  139.8820 C   0  0  0  0  0  1  0  0  0  0  0  0
  186.8290  174.9970  136.9430 C   0  0  0  0  0  2  0  0  0  0  0  0
  191.6530  175.7550  135.4730 C   0  0  0  0  0  3  0  0  0  0  0  0
  191.2600  172.9910  135.4900 C   0  0  0  0  0  3  0  0  0  0  0  0
  192.3290  173.5410  134.7790 C   0  0  0  0  0  3  0  0  0  0  0  0
  188.1170  173.0330  135.9600 N   0  0  0  0  0  2  0  0  0  0  0  0
  188.6150  178.2010  136.0850 C   0  0  2  0  0  3  0  0  0  0  0  0
  187.2310  176.2960  136.4150 N   0  0  0  0  0  0  0  0  0  0  0  0
  189.4310  178.5190  137.3540 C   0  0  2  0  0  3  0  0  0  0  0  0
  186.8520  179.7510  136.8440 O   0  0  0  0  0  1  0  0  0  0  0  0
  189.6350  176.1210  136.9430 C   0  0  1  0  0  3  0  0  0  0  0  0
  1 16  1  0  0  0  0
  1  6  1  0  0  0  0
  4 22  2  0  0  0  0
  4 20  1  0  0  0  0
  5 24  1  0  0  0  0
  5 17  1  0  0  0  0
  5 27  1  1  0  0  0
  8  2  2  0  0  0  0
  8  7  2  0  0  0  0
  8 14  1  0  0  0  0
  9 18  1  1  0  0  0
  9 14  1  0  0  0  0
 10  8  1  1  0  0  0
 11 15  2  0  0  0  0
 12 24  1  0  0  0  0
 12 25  1  1  0  0  0
 12 28  1  0  0  0  0
 13  9  1  0  0  0  0
 15 23  1  0  0  0  0
 15 19  1  0  0  0  0
 16 28  1  0  0  0  0
 17  3  2  0  0  0  0
 20 16  2  0  0  0  0
 21  1  2  0  0  0  0
 22 21  1  0  0  0  0
 23  6  1  0  0  0  0
 24 26  1  0  0  0  0
 25 17  1  0  0  0  0
 25 19  1  0  0  0  0
 26 10  1  0  0  0  0
 26 13  1  0  0  0  0
 28 10  1  0  0  0  0
M  END
>  <MODEL>
3

>  <REMARK>
 VINA RESULT:      -5.3      6.623      9.496
  Name = 
  0 active torsions:
  status: ('A' for Active; 'I' for Inactive)
                            x       y       z     vdW  Elec       q    Type
                         _______ _______ _______ _____ _____    ______ ____

>  <TORSDO>
F 0

$$$$
=
 OpenBabel11122411553D

 28 32  0  0  1  0  0  0  0  0999 V2000
  180.4280  180.9620  138.6280 C   0  0  0  0  0  0  0  0  0  0  0  0
  184.2090  180.4850  139.0940 O   0  0  0  0  0  0  0  0  0  0  0  0
  181.5950  175.8380  135.0660 O   0  0  0  0  0  0  0  0  0  0  0  0
  179.5770  180.4820  141.2550 C   0  0  0  0  0  3  0  0  0  0  0  0
  181.4690  175.3460  137.4360 C   0  0  2  0  0  3  0  0  0  0  0  0
  180.7950  181.2250  137.2030 C   0  0  0  0  0  2  0  0  0  0  0  0
  185.2290  178.8150  140.5710 O   0  0  0  0  0  0  0  0  0  0  0  0
  184.3920  179.0140  139.3380 S   0  0  0  0  0  0  0  0  0  0  0  0
  184.3080  177.2600  137.4560 C   0  0  1  0  0  3  0  0  0  0  0  0
  182.8100  178.2160  139.5660 C   0  0  2  0  0  3  0  0  0  0  0  0
  178.9310  178.9730  134.9980 O   0  0  0  0  0  0  0  0  0  0  0  0
  180.9510  177.6700  138.0380 C   0  0  2  0  0  3  0  0  0  0  0  0
  184.0170  176.3160  138.4620 O   0  0  0  0  0  0  0  0  0  0  0  0
  185.1910  178.2920  137.9830 N   0  0  0  0  0  2  0  0  0  0  0  0
  179.9080  179.4400  135.6370 C   0  0  0  0  0  0  0  0  0  0  0  0
  180.8770  179.8120  139.3100 C   0  0  0  0  0  0  0  0  0  0  0  0
  181.4250  176.2280  136.2520 C   0  0  0  0  0  0  0  0  0  0  0  0
  184.9850  176.5670  136.2920 C   0  0  0  0  0  1  0  0  0  0  0  0
  181.1980  178.6860  135.6600 C   0  0  0  0  0  2  0  0  0  0  0  0
  180.4310  179.5760  140.6220 C   0  0  0  0  0  3  0  0  0  0  0  0
  179.5680  181.8610  139.2700 C   0  0  0  0  0  3  0  0  0  0  0  0
  179.1490  181.6250  140.5810 C   0  0  0  0  0  3  0  0  0  0  0  0
  179.7690  180.6860  136.3230 N   0  0  0  0  0  2  0  0  0  0  0  0
  181.5120  176.3590  138.6050 C   0  0  2  0  0  3  0  0  0  0  0  0
  181.1270  177.5680  136.5940 N   0  0  0  0  0  0  0  0  0  0  0  0
  182.8790  176.7210  139.2160 C   0  0  2  0  0  3  0  0  0  0  0  0
  182.5620  174.4770  137.4030 O   0  0  0  0  0  1  0  0  0  0  0  0
  181.7720  178.8150  138.6240 C   0  0  1  0  0  3  0  0  0  0  0  0
  1 21  2  0  0  0  0
  1 16  1  0  0  0  0
  2  8  2  0  0  0  0
  3 17  2  0  0  0  0
  5 27  1  6  0  0  0
  5 24  1  0  0  0  0
  6  1  1  0  0  0  0
  8  7  2  0  0  0  0
  9 18  1  6  0  0  0
  9 14  1  0  0  0  0
  9 13  1  0  0  0  0
 10  8  1  6  0  0  0
 11 15  2  0  0  0  0
 12 25  1  6  0  0  0
 12 24  1  0  0  0  0
 12 28  1  0  0  0  0
 13 26  1  0  0  0  0
 14  8  1  0  0  0  0
 15 19  1  0  0  0  0
 15 23  1  0  0  0  0
 16 20  2  0  0  0  0
 17 25  1  0  0  0  0
 17  5  1  0  0  0  0
 19 25  1  0  0  0  0
 20  4  1  0  0  0  0
 21 22  1  0  0  0  0
 22  4  2  0  0  0  0
 23  6  1  0  0  0  0
 24 26  1  0  0  0  0
 26 10  1  0  0  0  0
 28 16  1  0  0  0  0
 28 10  1  0  0  0  0
M  END
>  <MODEL>
4

>  <REMARK>
 VINA RESULT:      -5.2      2.574      3.995
  Name = 
  0 active torsions:
  status: ('A' for Active; 'I' for Inactive)
                            x       y       z     vdW  Elec       q    Type
                         _______ _______ _______ _____ _____    ______ ____

>  <TORSDO>
F 0

$$$$
=
 OpenBabel11122411553D

 28 32  0  0  1  0  0  0  0  0999 V2000
  185.6150  176.7870  137.4210 C   0  0  0  0  0  0  0  0  0  0  0  0
  182.8160  177.6250  134.9310 O   0  0  0  0  0  0  0  0  0  0  0  0
  181.1990  179.3800  141.1710 O   0  0  0  0  0  0  0  0  0  0  0  0
  185.5890  173.9910  137.2180 C   0  0  0  0  0  3  0  0  0  0  0  0
  180.7230  177.0770  140.5860 C   0  0  2  0  0  3  0  0  0  0  0  0
  185.6920  178.2700  137.5940 C   0  0  0  0  0  2  0  0  0  0  0  0
  180.7730  176.3020  134.6360 O   0  0  0  0  0  0  0  0  0  0  0  0
  181.5500  177.1620  135.5930 S   0  0  0  0  0  0  0  0  0  0  0  0
  180.3940  178.4790  137.4790 C   0  0  1  0  0  3  0  0  0  0  0  0
  181.9220  176.2200  137.0650 C   0  0  2  0  0  3  0  0  0  0  0  0
  185.3050  179.1360  141.1310 O   0  0  0  0  0  0  0  0  0  0  0  0
  182.7950  176.8270  139.2910 C   0  0  2  0  0  3  0  0  0  0  0  0
  179.7770  177.2630  137.8370 O   0  0  0  0  0  0  0  0  0  0  0  0
  180.5890  178.5320  136.0370 N   0  0  0  0  0  2  0  0  0  0  0  0
  184.9980  179.0030  139.9190 C   0  0  0  0  0  0  0  0  0  0  0  0
  184.3950  176.0890  137.5290 C   0  0  0  0  0  0  0  0  0  0  0  0
  181.5180  178.3220  140.5680 C   0  0  0  0  0  0  0  0  0  0  0  0
  179.5180  179.6370  137.9100 C   0  0  0  0  0  1  0  0  0  0  0  0
  183.5980  179.2900  139.4820 C   0  0  0  0  0  2  0  0  0  0  0  0
  184.3980  174.6870  137.4400 C   0  0  0  0  0  3  0  0  0  0  0  0
  186.8050  176.0810  137.2040 C   0  0  0  0  0  3  0  0  0  0  0  0
  186.7910  174.6880  137.0970 C   0  0  0  0  0  3  0  0  0  0  0  0
  185.9940  178.5890  138.9820 N   0  0  0  0  0  2  0  0  0  0  0  0
  181.3870  176.2400  139.4670 C   0  0  2  0  0  3  0  0  0  0  0  0
  182.7120  178.1820  139.8230 N   0  0  0  0  0  0  0  0  0  0  0  0
  180.7530  176.2510  138.0620 C   0  0  2  0  0  3  0  0  0  0  0  0
  179.3630  177.3200  140.3760 O   0  0  0  0  0  1  0  0  0  0  0  0
  183.1110  176.8280  137.7990 C   0  0  1  0  0  3  0  0  0  0  0  0
  1 16  1  0  0  0  0
  1  6  1  0  0  0  0
  2  8  2  0  0  0  0
  4 20  1  0  0  0  0
  5 27  1  6  0  0  0
  6 23  1  0  0  0  0
  7  8  2  0  0  0  0
  8 14  1  0  0  0  0
  9 13  1  0  0  0  0
  9 18  1  6  0  0  0
 10  8  1  6  0  0  0
 10 28  1  0  0  0  0
 10 26  1  0  0  0  0
 12 24  1  0  0  0  0
 12 25  1  6  0  0  0
 13 26  1  0  0  0  0
 14  9  1  0  0  0  0
 15 11  2  0  0  0  0
 16 28  1  0  0  0  0
 17  5  1  0  0  0  0
 17  3  2  0  0  0  0
 19 25  1  0  0  0  0
 19 15  1  0  0  0  0
 20 16  2  0  0  0  0
 21  1  2  0  0  0  0
 22 21  1  0  0  0  0
 22  4  2  0  0  0  0
 23 15  1  0  0  0  0
 24  5  1  0  0  0  0
 25 17  1  0  0  0  0
 26 24  1  0  0  0  0
 28 12  1  0  0  0  0
M  END
>  <MODEL>
5

>  <REMARK>
 VINA RESULT:      -5.2      2.648      5.787
  Name = 
  0 active torsions:
  status: ('A' for Active; 'I' for Inactive)
                            x       y       z     vdW  Elec       q    Type
                         _______ _______ _______ _____ _____    ______ ____

>  <TORSDO>
F 0

$$$$
=
 OpenBabel11122411553D

 28 32  0  0  1  0  0  0  0  0999 V2000
  184.5700  175.1060  135.8400 C   0  0  0  0  0  0  0  0  0  0  0  0
  181.5490  177.3070  134.9650 O   0  0  0  0  0  0  0  0  0  0  0  0
  184.8980  179.6660  140.2430 O   0  0  0  0  0  0  0  0  0  0  0  0
  183.2300  172.7580  136.5790 C   0  0  0  0  0  3  0  0  0  0  0  0
  183.2360  177.9750  140.7410 C   0  0  2  0  0  3  0  0  0  0  0  0
  185.3630  176.3190  135.4680 C   0  0  0  0  0  2  0  0  0  0  0  0
  179.4130  177.2810  136.1690 O   0  0  0  0  0  0  0  0  0  0  0  0
  180.8790  177.5950  136.2780 S   0  0  0  0  0  0  0  0  0  0  0  0
  181.7750  179.3290  137.9560 C   0  0  1  0  0  3  0  0  0  0  0  0
  181.5990  176.6030  137.5780 C   0  0  2  0  0  3  0  0  0  0  0  0
  187.5670  177.2630  138.2360 O   0  0  0  0  0  0  0  0  0  0  0  0
  183.7730  176.6530  138.7420 C   0  0  2  0  0  3  0  0  0  0  0  0
  181.0440  178.6330  138.9400 O   0  0  0  0  0  0  0  0  0  0  0  0
  181.0770  179.2670  136.6800 N   0  0  0  0  0  2  0  0  0  0  0  0
  186.5820  177.3130  137.4560 C   0  0  0  0  0  0  0  0  0  0  0  0
  183.5020  175.1700  136.7580 C   0  0  0  0  0  0  0  0  0  0  0  0
  184.3030  178.6010  139.9330 C   0  0  0  0  0  0  0  0  0  0  0  0
  181.9320  180.7770  138.3730 C   0  0  0  0  0  1  0  0  0  0  0  0
  185.4930  178.3040  137.7120 C   0  0  0  0  0  2  0  0  0  0  0  0
  182.8490  173.9830  137.1310 C   0  0  0  0  0  3  0  0  0  0  0  0
  184.9490  173.8730  135.2960 C   0  0  0  0  0  3  0  0  0  0  0  0
  184.2760  172.7040  135.6590 C   0  0  0  0  0  3  0  0  0  0  0  0
  186.5270  176.4280  136.3350 N   0  0  0  0  0  2  0  0  0  0  0  0
  182.6660  176.9100  139.7740 C   0  0  2  0  0  3  0  0  0  0  0  0
  184.6150  177.8420  138.7810 N   0  0  0  0  0  0  0  0  0  0  0  0
  181.4070  177.2560  138.9550 C   0  0  2  0  0  3  0  0  0  0  0  0
  182.2900  178.9070  141.1740 O   0  0  0  0  0  1  0  0  0  0  0  0
  183.1060  176.4810  137.3820 C   0  0  1  0  0  3  0  0  0  0  0  0
  1 16  1  0  0  0  0
  2  8  2  0  0  0  0
  4 20  1  0  0  0  0
  5 27  1  6  0  0  0
  6  1  1  0  0  0  0
  6 23  1  0  0  0  0
  7  8  2  0  0  0  0
  8 14  1  0  0  0  0
  9 18  1  1  0  0  0
  9 13  1  0  0  0  0
 10  8  1  6  0  0  0
 10 26  1  0  0  0  0
 12 25  1  6  0  0  0
 12 24  1  0  0  0  0
 13 26  1  0  0  0  0
 14  9  1  0  0  0  0
 15 19  1  0  0  0  0
 15 11  2  0  0  0  0
 16 20  2  0  0  0  0
 16 28  1  0  0  0  0
 17  3  2  0  0  0  0
 17  5  1  0  0  0  0
 19 25  1  0  0  0  0
 21 22  1  0  0  0  0
 21  1  2  0  0  0  0
 22  4  2  0  0  0  0
 23 15  1  0  0  0  0
 24  5  1  0  0  0  0
 25 17  1  0  0  0  0
 26 24  1  0  0  0  0
 28 10  1  0  0  0  0
 28 12  1  0  0  0  0
M  END
>  <MODEL>
6

>  <REMARK>
 VINA RESULT:      -5.1      2.979      6.210
  Name = 
  0 active torsions:
  status: ('A' for Active; 'I' for Inactive)
                            x       y       z     vdW  Elec       q    Type
                         _______ _______ _______ _____ _____    ______ ____

>  <TORSDO>
F 0

$$$$
=
 OpenBabel11122411553D

 28 32  0  0  1  0  0  0  0  0999 V2000
  180.8460  177.8810  140.9870 C   0  0  0  0  0  0  0  0  0  0  0  0
  179.9620  179.3070  137.5330 O   0  0  0  0  0  0  0  0  0  0  0  0
  179.5230  172.6410  137.6570 O   0  0  0  0  0  0  0  0  0  0  0  0
  183.5450  178.6250  141.1140 C   0  0  0  0  0  3  0  0  0  0  0  0
  181.7340  173.5260  137.2070 C   0  0  2  0  0  3  0  0  0  0  0  0
  179.4160  177.4420  140.9970 C   0  0  0  0  0  2  0  0  0  0  0  0
  181.4680  179.3010  135.5980 O   0  0  0  0  0  0  0  0  0  0  0  0
  180.6900  178.4350  136.5500 S   0  0  0  0  0  0  0  0  0  0  0  0
  179.8760  176.0840  135.8910 C   0  0  1  0  0  3  0  0  0  0  0  0
  181.8150  177.3370  137.4010 C   0  0  2  0  0  3  0  0  0  0  0  0
  179.2250  173.8320  141.5840 O   0  0  0  0  0  0  0  0  0  0  0  0
  181.4890  175.3540  138.8300 C   0  0  2  0  0  3  0  0  0  0  0  0
  181.2040  175.8240  135.4970 O   0  0  0  0  0  0  0  0  0  0  0  0
  179.5520  177.4850  135.6580 N   0  0  0  0  0  2  0  0  0  0  0  0
  179.1880  174.9180  140.9500 C   0  0  0  0  0  0  0  0  0  0  0  0
  181.7030  177.5910  139.9050 C   0  0  0  0  0  0  0  0  0  0  0  0
  180.4120  173.5080  137.8670 C   0  0  0  0  0  0  0  0  0  0  0  0
  178.9310  175.2100  135.0930 C   0  0  0  0  0  1  0  0  0  0  0  0
  179.0130  174.8960  139.4660 C   0  0  0  0  0  2  0  0  0  0  0  0
  183.0570  177.9570  139.9890 C   0  0  0  0  0  3  0  0  0  0  0  0
  181.3450  178.5470  142.1120 C   0  0  0  0  0  3  0  0  0  0  0  0
  182.6890  178.9230  142.1730 C   0  0  0  0  0  3  0  0  0  0  0  0
  179.3040  176.1520  141.6620 N   0  0  0  0  0  2  0  0  0  0  0  0
  182.2740  174.9260  137.5820 C   0  0  2  0  0  3  0  0  0  0  0  0
  180.2680  174.5590  138.8030 N   0  0  0  0  0  0  0  0  0  0  0  0
  182.1050  176.0780  136.5710 C   0  0  2  0  0  3  0  0  0  0  0  0
  181.6360  173.3100  135.8310 O   0  0  0  0  0  1  0  0  0  0  0  0
  181.1930  176.8440  138.7020 C   0  0  1  0  0  3  0  0  0  0  0  0
  1  6  1  0  0  0  0
  1 21  1  0  0  0  0
  3 17  2  0  0  0  0
  4 22  1  0  0  0  0
  5 27  1  6  0  0  0
  5 24  1  0  0  0  0
  5 17  1  0  0  0  0
  6 23  1  0  0  0  0
  7  8  2  0  0  0  0
  8  2  2  0  0  0  0
  9 18  1  6  0  0  0
 10  8  1  6  0  0  0
 10 28  1  0  0  0  0
 12 25  1  6  0  0  0
 13  9  1  0  0  0  0
 13 26  1  0  0  0  0
 14  9  1  0  0  0  0
 14  8  1  0  0  0  0
 15 11  2  0  0  0  0
 15 23  1  0  0  0  0
 16 20  1  0  0  0  0
 16  1  2  0  0  0  0
 17 25  1  0  0  0  0
 19 15  1  0  0  0  0
 20  4  2  0  0  0  0
 21 22  2  0  0  0  0
 24 12  1  0  0  0  0
 25 19  1  0  0  0  0
 26 10  1  0  0  0  0
 26 24  1  0  0  0  0
 28 12  1  0  0  0  0
 28 16  1  0  0  0  0
M  END
>  <MODEL>
7

>  <REMARK>
 VINA RESULT:      -4.8      1.809      2.520
  Name = 
  0 active torsions:
  status: ('A' for Active; 'I' for Inactive)
                            x       y       z     vdW  Elec       q    Type
                         _______ _______ _______ _____ _____    ______ ____

>  <TORSDO>
F 0

$$$$
=
 OpenBabel11122411553D

 28 32  0  0  1  0  0  0  0  0999 V2000
  190.3740  174.4530  136.5710 C   0  0  0  0  0  0  0  0  0  0  0  0
  189.5310  177.4880  138.7660 O   0  0  0  0  0  0  0  0  0  0  0  0
  184.0680  174.8570  135.9600 O   0  0  0  0  0  0  0  0  0  0  0  0
  191.8980  175.7260  134.5940 C   0  0  0  0  0  3  0  0  0  0  0  0
  185.2650  176.4610  134.5940 C   0  0  2  0  0  3  0  0  0  0  0  0
  189.5680  173.6980  137.5800 C   0  0  0  0  0  2  0  0  0  0  0  0
  189.0460  179.7340  137.9090 O   0  0  0  0  0  0  0  0  0  0  0  0
  188.5720  178.3080  137.9510 S   0  0  0  0  0  0  0  0  0  0  0  0
  186.0860  177.6970  137.6800 C   0  0  1  0  0  3  0  0  0  0  0  0
  188.4650  177.6730  136.2850 C   0  0  2  0  0  3  0  0  0  0  0  0
  186.8830  171.8560  135.9050 O   0  0  0  0  0  0  0  0  0  0  0  0
  187.4680  175.6400  135.3060 C   0  0  2  0  0  3  0  0  0  0  0  0
  186.1050  178.4860  136.5120 O   0  0  0  0  0  0  0  0  0  0  0  0
  186.9980  178.2510  138.6710 N   0  0  0  0  0  2  0  0  0  0  0  0
  187.4340  172.7550  136.5910 C   0  0  0  0  0  0  0  0  0  0  0  0
  189.8770  175.6140  135.9440 C   0  0  0  0  0  0  0  0  0  0  0  0
  185.1560  175.3530  135.5650 C   0  0  0  0  0  0  0  0  0  0  0  0
  184.6830  177.6680  138.2490 C   0  0  0  0  0  1  0  0  0  0  0  0
  186.6240  173.9200  137.0590 C   0  0  0  0  0  2  0  0  0  0  0  0
  190.6450  176.2330  134.9430 C   0  0  0  0  0  3  0  0  0  0  0  0
  191.6290  173.9490  136.2100 C   0  0  0  0  0  3  0  0  0  0  0  0
  192.3910  174.5870  135.2290 C   0  0  0  0  0  3  0  0  0  0  0  0
  188.8200  172.6390  136.9180 N   0  0  0  0  0  2  0  0  0  0  0  0
  186.7550  176.8630  134.7120 C   0  0  2  0  0  3  0  0  0  0  0  0
  186.4230  174.8780  135.9770 N   0  0  0  0  0  0  0  0  0  0  0  0
  187.1290  178.0470  135.6260 C   0  0  2  0  0  3  0  0  0  0  0  0
  184.3770  177.5000  134.8800 O   0  0  0  0  0  1  0  0  0  0  0  0
  188.5140  176.1500  136.2920 C   0  0  1  0  0  3  0  0  0  0  0  0
  1  6  1  0  0  0  0
  4 20  2  0  0  0  0
  4 22  1  0  0  0  0
  5 24  1  0  0  0  0
  5 27  1  1  0  0  0
  5 17  1  0  0  0  0
  7  8  2  0  0  0  0
  8 14  1  0  0  0  0
  8  2  2  0  0  0  0
  9 18  1  1  0  0  0
  9 14  1  0  0  0  0
 10 28  1  0  0  0  0
 10  8  1  1  0  0  0
 11 15  2  0  0  0  0
 12 25  1  1  0  0  0
 12 28  1  0  0  0  0
 13  9  1  0  0  0  0
 15 23  1  0  0  0  0
 15 19  1  0  0  0  0
 16 28  1  0  0  0  0
 16  1  2  0  0  0  0
 17  3  2  0  0  0  0
 17 25  1  0  0  0  0
 20 16  1  0  0  0  0
 21  1  1  0  0  0  0
 22 21  2  0  0  0  0
 23  6  1  0  0  0  0
 24 12  1  0  0  0  0
 24 26  1  0  0  0  0
 25 19  1  0  0  0  0
 26 10  1  0  0  0  0
 26 13  1  0  0  0  0
M  END
>  <MODEL>
8

>  <REMARK>
 VINA RESULT:      -4.7      5.841      8.618
  Name = 
  0 active torsions:
  status: ('A' for Active; 'I' for Inactive)
                            x       y       z     vdW  Elec       q    Type
                         _______ _______ _______ _____ _____    ______ ____

>  <TORSDO>
F 0

$$$$
=
 OpenBabel11122411553D

 28 32  0  0  1  0  0  0  0  0999 V2000
  187.7770  176.1600  136.5420 C   0  0  0  0  0  0  0  0  0  0  0  0
  186.2240  178.2070  139.3960 O   0  0  0  0  0  0  0  0  0  0  0  0
  182.0830  173.4380  137.2170 O   0  0  0  0  0  0  0  0  0  0  0  0
  187.9740  178.1650  134.5940 C   0  0  0  0  0  3  0  0  0  0  0  0
  182.0050  175.5220  135.9820 C   0  0  2  0  0  3  0  0  0  0  0  0
  187.7030  175.0320  137.5210 C   0  0  0  0  0  2  0  0  0  0  0  0
  184.5550  179.9760  139.0910 O   0  0  0  0  0  0  0  0  0  0  0  0
  184.8220  178.5040  138.9480 S   0  0  0  0  0  0  0  0  0  0  0  0
  182.9250  176.7650  139.0380 C   0  0  1  0  0  3  0  0  0  0  0  0
  184.5960  178.0260  137.2410 C   0  0  2  0  0  3  0  0  0  0  0  0
  185.8440  172.2360  136.0610 O   0  0  0  0  0  0  0  0  0  0  0  0
  184.4370  175.8470  136.0970 C   0  0  2  0  0  3  0  0  0  0  0  0
  182.2750  177.5460  138.0600 O   0  0  0  0  0  0  0  0  0  0  0  0
  183.6980  177.6220  139.9260 N   0  0  0  0  0  2  0  0  0  0  0  0
  186.0730  173.2340  136.7900 C   0  0  0  0  0  0  0  0  0  0  0  0
  186.6570  176.9670  136.2530 C   0  0  0  0  0  0  0  0  0  0  0  0
  182.6750  174.4350  136.7270 C   0  0  0  0  0  0  0  0  0  0  0  0
  181.8940  176.0040  139.8450 C   0  0  0  0  0  1  0  0  0  0  0  0
  184.9680  173.8080  137.6160 C   0  0  0  0  0  2  0  0  0  0  0  0
  186.7660  177.9590  135.2630 C   0  0  0  0  0  3  0  0  0  0  0  0
  188.9820  176.3710  135.8620 C   0  0  0  0  0  3  0  0  0  0  0  0
  189.0820  177.3750  134.8950 C   0  0  0  0  0  3  0  0  0  0  0  0
  187.3870  173.7950  136.8220 N   0  0  0  0  0  2  0  0  0  0  0  0
  183.1140  176.5970  135.8930 C   0  0  2  0  0  3  0  0  0  0  0  0
  184.0760  174.6190  136.7950 N   0  0  0  0  0  0  0  0  0  0  0  0
  183.1190  177.7390  136.9290 C   0  0  2  0  0  3  0  0  0  0  0  0
  180.8450  175.9600  136.6250 O   0  0  0  0  0  1  0  0  0  0  0  0
  185.3430  176.7310  136.9480 C   0  0  1  0  0  3  0  0  0  0  0  0
  1  6  1  0  0  0  0
  4 22  2  0  0  0  0
  4 20  1  0  0  0  0
  5 27  1  1  0  0  0
  5 17  1  0  0  0  0
  8  7  2  0  0  0  0
  8  2  2  0  0  0  0
  8 14  1  0  0  0  0
  9 18  1  1  0  0  0
  9 14  1  0  0  0  0
 10  8  1  1  0  0  0
 11 15  2  0  0  0  0
 12 25  1  1  0  0  0
 12 28  1  0  0  0  0
 13  9  1  0  0  0  0
 15 23  1  0  0  0  0
 15 19  1  0  0  0  0
 16  1  1  0  0  0  0
 16 28  1  0  0  0  0
 17 25  1  0  0  0  0
 17  3  2  0  0  0  0
 20 16  2  0  0  0  0
 21  1  2  0  0  0  0
 22 21  1  0  0  0  0
 23  6  1  0  0  0  0
 24  5  1  0  0  0  0
 24 12  1  0  0  0  0
 24 26  1  0  0  0  0
 25 19  1  0  0  0  0
 26 10  1  0  0  0  0
 26 13  1  0  0  0  0
 28 10  1  0  0  0  0
M  END
>  <MODEL>
9

>  <REMARK>
 VINA RESULT:      -4.7      3.627      6.558
  Name = 
  0 active torsions:
  status: ('A' for Active; 'I' for Inactive)
                            x       y       z     vdW  Elec       q    Type
                         _______ _______ _______ _____ _____    ______ ____

>  <TORSDO>
F 0

$$$$
