=
 OpenBabel11122412023D

 34 41  0  0  1  0  0  0  0  0999 V2000
  187.8230  178.3590  141.5930 C   0  0  1  0  0  3  0  0  0  0  0  0
  185.8380  178.4930  139.9360 C   0  0  0  0  0  3  0  0  0  0  0  0
  189.9630  177.2620  147.6510 C   0  0  0  0  0  0  0  0  0  0  0  0
  189.3920  177.5040  143.3580 C   0  0  0  0  0  0  0  0  0  0  0  0
  188.6350  177.0890  145.6240 C   0  0  0  0  0  0  0  0  0  0  0  0
  187.9870  177.1160  148.0020 C   0  0  0  0  0  2  0  0  0  0  0  0
  189.0690  177.7260  148.6830 O   0  0  0  0  0  0  0  0  0  0  0  0
  191.7720  176.8990  146.1520 C   0  0  0  0  0  3  0  0  0  0  0  0
  185.3900  178.3060  142.1950 C   0  0  0  0  0  0  0  0  0  0  0  0
  182.8930  179.4810  143.4950 C   0  0  0  0  0  3  0  0  0  0  0  0
  187.3700  177.4090  145.2350 N   0  0  0  0  0  0  0  0  0  0  0  0
  191.1070  176.7720  144.9910 C   0  0  0  0  0  3  0  0  0  0  0  0
  185.6290  178.1730  143.6640 C   0  0  1  0  0  3  0  0  0  0  0  0
  184.4160  178.6930  140.2070 N   0  0  0  0  0  0  0  0  0  0  0  0
  189.6940  177.1350  144.6800 C   0  0  0  0  0  0  0  0  0  0  0  0
  191.2110  177.4140  147.3650 N   0  0  0  0  0  0  0  0  0  0  0  0
  182.9550  178.8470  142.3150 C   0  0  0  0  0  0  0  0  0  0  0  0
  188.0810  177.8620  143.0020 C   0  0  0  0  0  0  0  0  0  0  0  0
  188.8440  176.5400  147.0050 C   0  0  2  0  0  3  0  0  0  0  0  0
  187.0630  177.8150  143.9760 C   0  0  0  0  0  0  0  0  0  0  0  0
  190.1510  177.6280  141.0850 C   0  0  0  0  0  3  0  0  0  0  0  0
  184.0210  179.9670  144.3200 C   0  0  0  0  0  3  0  0  0  0  0  0
  190.4220  177.5320  142.3530 N   0  0  0  0  0  0  0  0  0  0  0  0
  185.2410  179.4290  144.3790 C   0  0  0  0  0  3  0  0  0  0  0  0
  184.2410  178.5860  141.6160 C   0  0  0  0  0  0  0  0  0  0  0  0
  188.7290  177.6300  140.5980 C   0  0  0  0  0  2  0  0  0  0  0  0
  186.4220  178.1800  141.2350 N   0  0  0  0  0  0  0  0  0  0  0  0
  181.7070  178.4790  141.7140 N   0  0  0  0  0  2  0  0  0  0  0  0
  180.6890  179.4200  141.2700 C   0  0  0  0  0  2  0  0  0  0  0  0
  179.6570  177.9500  143.9960 O   0  0  0  0  0  0  0  0  0  0  0  0
  179.1690  180.0810  143.1080 C   0  0  0  0  0  2  0  0  0  0  0  0
  179.3660  179.1320  141.9620 C   0  0  2  0  0  3  0  0  0  0  0  0
  179.0580  179.1780  144.3110 C   0  0  0  0  0  2  0  0  0  0  0  0
  179.4280  177.7740  142.6230 C   0  0  0  0  0  2  0  0  0  0  0  0
  1 26  1  6  0  0  0
  1 18  1  0  0  0  0
  2 14  2  0  0  0  0
  2 27  1  0  0  0  0
  3  7  1  0  0  0  0
  4 15  1  0  0  0  0
  5 19  1  0  0  0  0
  6  7  1  0  0  0  0
  8 16  1  0  0  0  0
  9 13  1  0  0  0  0
 10 22  1  0  0  0  0
 11  5  1  0  0  0  0
 12  8  2  0  0  0  0
 13 20  1  0  0  0  0
 13 24  1  1  0  0  0
 14 25  1  0  0  0  0
 15 12  1  0  0  0  0
 15  5  2  0  0  0  0
 16  3  2  0  0  0  0
 17 10  2  0  0  0  0
 18  4  2  0  0  0  0
 18 20  1  0  0  0  0
 19  3  1  0  0  0  0
 19  6  1  1  0  0  0
 20 11  2  0  0  0  0
 21 23  2  0  0  0  0
 22 24  2  0  0  0  0
 23  4  1  0  0  0  0
 25  9  2  0  0  0  0
 25 17  1  0  0  0  0
 26 21  1  0  0  0  0
 27  1  1  0  0  0  0
 27  9  1  0  0  0  0
 28 17  1  0  0  0  0
 29 28  1  0  0  0  0
 30 33  1  0  0  0  0
 31 33  1  0  0  0  0
 32 29  1  1  0  0  0
 32 34  1  0  0  0  0
 32 31  1  0  0  0  0
 34 30  1  0  0  0  0
M  END
>  <MODEL>
1

>  <REMARK>
 VINA RESULT:      -9.6      0.000      0.000
  Name = 
  3 active torsions:
  status: ('A' for Active; 'I' for Inactive)
    1  A    between atoms: C_17  and  N_28
    2  A    between atoms: N_28  and  C_29
    3  A    between atoms: C_29  and  C_32
                            x       y       z     vdW  Elec       q    Type
                         _______ _______ _______ _____ _____    ______ ____

>  <TORSDO>
F 3

$$$$
=
 OpenBabel11122412023D

 34 41  0  0  1  0  0  0  0  0999 V2000
  188.6630  178.2310  139.0330 C   0  0  1  0  0  3  0  0  0  0  0  0
  187.1300  178.5390  141.0970 C   0  0  0  0  0  3  0  0  0  0  0  0
  193.8880  175.4130  136.3440 C   0  0  0  0  0  0  0  0  0  0  0  0
  190.0070  177.1410  137.2130 C   0  0  0  0  0  0  0  0  0  0  0  0
  191.9150  175.7340  137.7230 C   0  0  0  0  0  0  0  0  0  0  0  0
  194.1000  174.7070  138.2160 C   0  0  0  0  0  2  0  0  0  0  0  0
  194.9940  175.2340  137.2530 O   0  0  0  0  0  0  0  0  0  0  0  0
  192.4180  176.0640  134.5930 C   0  0  0  0  0  3  0  0  0  0  0  0
  189.1290  177.4100  141.3560 C   0  0  0  0  0  0  0  0  0  0  0  0
  190.7090  177.4080  143.9650 C   0  0  0  0  0  3  0  0  0  0  0  0
  191.6440  175.8870  139.0490 N   0  0  0  0  0  0  0  0  0  0  0  0
  191.2790  176.2440  135.2830 C   0  0  0  0  0  3  0  0  0  0  0  0
  190.4390  176.7830  141.0050 C   0  0  1  0  0  3  0  0  0  0  0  0
  187.4170  178.2980  142.5100 N   0  0  0  0  0  0  0  0  0  0  0  0
  191.0930  176.3720  136.7580 C   0  0  0  0  0  0  0  0  0  0  0  0
  193.7190  175.9370  135.1790 N   0  0  0  0  0  0  0  0  0  0  0  0
  189.3780  177.3040  143.8380 C   0  0  0  0  0  0  0  0  0  0  0  0
  189.7780  177.3050  138.5890 C   0  0  0  0  0  0  0  0  0  0  0  0
  192.9830  174.7610  137.3170 C   0  0  2  0  0  3  0  0  0  0  0  0
  190.6290  176.6630  139.5120 C   0  0  0  0  0  0  0  0  0  0  0  0
  187.9790  178.2900  136.6380 C   0  0  0  0  0  3  0  0  0  0  0  0
  191.6900  177.7810  142.9220 C   0  0  0  0  0  3  0  0  0  0  0  0
  189.1200  177.7800  136.2760 N   0  0  0  0  0  0  0  0  0  0  0  0
  191.5720  177.5490  141.6120 C   0  0  0  0  0  3  0  0  0  0  0  0
  188.6700  177.6240  142.5720 C   0  0  0  0  0  0  0  0  0  0  0  0
  187.4900  178.1590  138.0530 C   0  0  0  0  0  2  0  0  0  0  0  0
  188.2240  177.8940  140.3810 N   0  0  0  0  0  0  0  0  0  0  0  0
  188.6460  176.9240  145.0110 N   0  0  0  0  0  2  0  0  0  0  0  0
  188.4230  177.7830  146.1660 C   0  0  0  0  0  2  0  0  0  0  0  0
  185.7620  179.4780  147.0030 O   0  0  0  0  0  0  0  0  0  0  0  0
  186.0060  177.5260  145.7010 C   0  0  0  0  0  2  0  0  0  0  0  0
  187.0570  177.5060  146.7730 C   0  0  2  0  0  3  0  0  0  0  0  0
  185.0680  178.6260  146.1330 C   0  0  0  0  0  2  0  0  0  0  0  0
  186.6680  178.6500  147.6820 C   0  0  0  0  0  2  0  0  0  0  0  0
  1 26  1  6  0  0  0
  1 27  1  0  0  0  0
  2 14  2  0  0  0  0
  3  7  1  0  0  0  0
  3 19  1  0  0  0  0
  4 18  1  0  0  0  0
  5 11  2  0  0  0  0
  7  6  1  0  0  0  0
  8 16  1  0  0  0  0
  8 12  2  0  0  0  0
  9 25  2  0  0  0  0
 11 20  1  0  0  0  0
 12 15  1  0  0  0  0
 13  9  1  0  0  0  0
 13 24  1  6  0  0  0
 14 25  1  0  0  0  0
 15  4  2  0  0  0  0
 15  5  1  0  0  0  0
 16  3  2  0  0  0  0
 17 10  2  0  0  0  0
 17 28  1  0  0  0  0
 18  1  1  0  0  0  0
 18 20  2  0  0  0  0
 19  5  1  0  0  0  0
 19  6  1  1  0  0  0
 20 13  1  0  0  0  0
 21 26  1  0  0  0  0
 22 10  1  0  0  0  0
 23 21  2  0  0  0  0
 23  4  1  0  0  0  0
 24 22  2  0  0  0  0
 25 17  1  0  0  0  0
 27  2  1  0  0  0  0
 27  9  1  0  0  0  0
 28 29  1  0  0  0  0
 30 34  1  0  0  0  0
 31 33  1  0  0  0  0
 31 32  1  0  0  0  0
 32 29  1  6  0  0  0
 32 34  1  0  0  0  0
 33 30  1  0  0  0  0
M  END
>  <MODEL>
2

>  <REMARK>
 VINA RESULT:      -9.6      4.250      7.878
  Name = 
  3 active torsions:
  status: ('A' for Active; 'I' for Inactive)
    1  A    between atoms: C_17  and  N_28
    2  A    between atoms: N_28  and  C_29
    3  A    between atoms: C_29  and  C_32
                            x       y       z     vdW  Elec       q    Type
                         _______ _______ _______ _____ _____    ______ ____

>  <TORSDO>
F 3

$$$$
=
 OpenBabel11122412023D

 34 41  0  0  1  0  0  0  0  0999 V2000
  187.6120  178.4360  141.6070 C   0  0  1  0  0  3  0  0  0  0  0  0
  185.5980  178.5360  139.9830 C   0  0  0  0  0  3  0  0  0  0  0  0
  189.8750  177.3090  147.6140 C   0  0  0  0  0  0  0  0  0  0  0  0
  189.2320  177.6010  143.3350 C   0  0  0  0  0  0  0  0  0  0  0  0
  188.5220  177.1280  145.6050 C   0  0  0  0  0  0  0  0  0  0  0  0
  187.9110  177.0990  147.9920 C   0  0  0  0  0  2  0  0  0  0  0  0
  188.9840  177.7300  148.6670 O   0  0  0  0  0  0  0  0  0  0  0  0
  191.6710  177.0230  146.0830 C   0  0  0  0  0  3  0  0  0  0  0  0
  185.1910  178.3010  142.2440 C   0  0  0  0  0  0  0  0  0  0  0  0
  182.6810  179.3800  143.6000 C   0  0  0  0  0  3  0  0  0  0  0  0
  187.2420  177.4160  145.2400 N   0  0  0  0  0  0  0  0  0  0  0  0
  190.9930  176.8940  144.9300 C   0  0  0  0  0  3  0  0  0  0  0  0
  185.4560  178.1520  143.7080 C   0  0  1  0  0  3  0  0  0  0  0  0
  184.1750  178.6900  140.2780 N   0  0  0  0  0  0  0  0  0  0  0  0
  189.5650  177.2200  144.6470 C   0  0  0  0  0  0  0  0  0  0  0  0
  191.1140  177.5020  147.3120 N   0  0  0  0  0  0  0  0  0  0  0  0
  182.7430  178.7660  142.4090 C   0  0  0  0  0  0  0  0  0  0  0  0
  187.9050  177.9250  143.0040 C   0  0  0  0  0  0  0  0  0  0  0  0
  188.7690  176.5640  146.9740 C   0  0  2  0  0  3  0  0  0  0  0  0
  186.9050  177.8320  143.9920 C   0  0  0  0  0  0  0  0  0  0  0  0
  189.9520  177.7830  141.0530 C   0  0  0  0  0  3  0  0  0  0  0  0
  183.8060  179.8870  144.4160 C   0  0  0  0  0  3  0  0  0  0  0  0
  190.2460  177.6750  142.3150 N   0  0  0  0  0  0  0  0  0  0  0  0
  185.0420  179.3840  144.4480 C   0  0  0  0  0  3  0  0  0  0  0  0
  184.0250  178.5550  141.6870 C   0  0  0  0  0  0  0  0  0  0  0  0
  188.5230  177.7500  140.5870 C   0  0  0  0  0  2  0  0  0  0  0  0
  186.2110  178.2210  141.2670 N   0  0  0  0  0  0  0  0  0  0  0  0
  181.4980  178.3700  141.8210 N   0  0  0  0  0  2  0  0  0  0  0  0
  180.2450  178.2190  142.5490 C   0  0  0  0  0  2  0  0  0  0  0  0
  179.5650  181.3390  141.8700 O   0  0  0  0  0  0  0  0  0  0  0  0
  179.5790  179.4230  140.4930 C   0  0  0  0  0  2  0  0  0  0  0  0
  179.1390  179.0070  141.8660 C   0  0  2  0  0  3  0  0  0  0  0  0
  179.5080  180.9300  140.5310 C   0  0  0  0  0  2  0  0  0  0  0  0
  178.9310  180.3170  142.5920 C   0  0  0  0  0  2  0  0  0  0  0  0
  1 26  1  6  0  0  0
  1 18  1  0  0  0  0
  2 14  2  0  0  0  0
  2 27  1  0  0  0  0
  3  7  1  0  0  0  0
  4 15  1  0  0  0  0
  5 19  1  0  0  0  0
  6  7  1  0  0  0  0
  8 16  1  0  0  0  0
  9 13  1  0  0  0  0
 10 22  1  0  0  0  0
 11  5  1  0  0  0  0
 12  8  2  0  0  0  0
 13 20  1  0  0  0  0
 13 24  1  1  0  0  0
 14 25  1  0  0  0  0
 15 12  1  0  0  0  0
 15  5  2  0  0  0  0
 16  3  2  0  0  0  0
 17 10  2  0  0  0  0
 18  4  2  0  0  0  0
 18 20  1  0  0  0  0
 19  3  1  0  0  0  0
 19  6  1  1  0  0  0
 20 11  2  0  0  0  0
 21 23  2  0  0  0  0
 22 24  2  0  0  0  0
 23  4  1  0  0  0  0
 25  9  2  0  0  0  0
 25 17  1  0  0  0  0
 26 21  1  0  0  0  0
 27  1  1  0  0  0  0
 27  9  1  0  0  0  0
 28 17  1  0  0  0  0
 28 29  1  0  0  0  0
 30 34  1  0  0  0  0
 31 33  1  0  0  0  0
 31 32  1  0  0  0  0
 32 29  1  1  0  0  0
 32 34  1  0  0  0  0
 33 30  1  0  0  0  0
M  END
>  <MODEL>
3

>  <REMARK>
 VINA RESULT:      -9.6      0.850      1.239
  Name = 
  3 active torsions:
  status: ('A' for Active; 'I' for Inactive)
    1  A    between atoms: C_17  and  N_28
    2  A    between atoms: N_28  and  C_29
    3  A    between atoms: C_29  and  C_32
                            x       y       z     vdW  Elec       q    Type
                         _______ _______ _______ _____ _____    ______ ____

>  <TORSDO>
F 3

$$$$
=
 OpenBabel11122412023D

 34 41  0  0  1  0  0  0  0  0999 V2000
  190.9340  177.7250  142.9950 C   0  0  1  0  0  3  0  0  0  0  0  0
  192.5600  176.8850  141.1630 C   0  0  0  0  0  3  0  0  0  0  0  0
  184.8160  178.9260  144.8920 C   0  0  0  0  0  0  0  0  0  0  0  0
  188.9990  177.8200  144.5930 C   0  0  0  0  0  0  0  0  0  0  0  0
  186.7080  177.8680  143.7980 C   0  0  0  0  0  0  0  0  0  0  0  0
  184.4380  178.3840  142.9920 C   0  0  0  0  0  2  0  0  0  0  0  0
  183.9580  179.4130  143.8400 O   0  0  0  0  0  0  0  0  0  0  0  0
  186.1490  178.6370  146.8390 C   0  0  0  0  0  3  0  0  0  0  0  0
  190.3420  177.2210  140.6120 C   0  0  0  0  0  0  0  0  0  0  0  0
  189.4310  178.0320  137.8160 C   0  0  0  0  0  3  0  0  0  0  0  0
  187.1720  177.7340  142.5240 N   0  0  0  0  0  0  0  0  0  0  0  0
  187.2250  178.0290  146.3120 C   0  0  0  0  0  3  0  0  0  0  0  0
  188.8960  177.5640  140.7690 C   0  0  1  0  0  3  0  0  0  0  0  0
  192.3570  176.7830  139.7190 N   0  0  0  0  0  0  0  0  0  0  0  0
  187.6260  177.9200  144.8790 C   0  0  0  0  0  0  0  0  0  0  0  0
  185.1340  179.3060  146.0830 N   0  0  0  0  0  0  0  0  0  0  0  0
  190.3810  177.1340  138.1170 C   0  0  0  0  0  0  0  0  0  0  0  0
  189.4420  177.7190  143.2630 C   0  0  0  0  0  0  0  0  0  0  0  0
  185.2280  177.7930  144.0340 C   0  0  2  0  0  3  0  0  0  0  0  0
  188.4950  177.6840  142.2200 C   0  0  0  0  0  0  0  0  0  0  0  0
  191.2140  177.5010  145.4610 C   0  0  0  0  0  3  0  0  0  0  0  0
  188.7780  178.9980  138.7270 C   0  0  0  0  0  3  0  0  0  0  0  0
  189.9710  177.8310  145.6550 N   0  0  0  0  0  0  0  0  0  0  0  0
  188.5680  178.8260  140.0350 C   0  0  0  0  0  3  0  0  0  0  0  0
  190.9760  177.0280  139.4740 C   0  0  0  0  0  0  0  0  0  0  0  0
  191.6810  177.0060  144.1210 C   0  0  0  0  0  2  0  0  0  0  0  0
  191.2260  177.1030  141.7100 N   0  0  0  0  0  0  0  0  0  0  0  0
  190.8510  176.3090  137.0430 N   0  0  0  0  0  2  0  0  0  0  0  0
  191.2280  174.9080  137.1760 C   0  0  0  0  0  2  0  0  0  0  0  0
  194.2400  176.1610  137.0600 O   0  0  0  0  0  0  0  0  0  0  0  0
  193.4990  173.9400  137.3480 C   0  0  0  0  0  2  0  0  0  0  0  0
  192.5310  174.6410  136.4400 C   0  0  2  0  0  3  0  0  0  0  0  0
  194.6790  174.8780  137.4120 C   0  0  0  0  0  2  0  0  0  0  0  0
  193.2130  175.9530  136.1270 C   0  0  0  0  0  2  0  0  0  0  0  0
  1 18  1  0  0  0  0
  1 26  1  1  0  0  0
  2 27  1  0  0  0  0
  3 16  2  0  0  0  0
  4 15  1  0  0  0  0
  4 23  1  0  0  0  0
  5 19  1  0  0  0  0
  5 15  2  0  0  0  0
  6  7  1  0  0  0  0
  7  3  1  0  0  0  0
  9 13  1  0  0  0  0
  9 27  1  0  0  0  0
 10 17  2  0  0  0  0
 10 22  1  0  0  0  0
 11  5  1  0  0  0  0
 12  8  2  0  0  0  0
 13 24  1  6  0  0  0
 13 20  1  0  0  0  0
 14  2  2  0  0  0  0
 15 12  1  0  0  0  0
 16  8  1  0  0  0  0
 17 25  1  0  0  0  0
 18  4  2  0  0  0  0
 19  6  1  6  0  0  0
 19  3  1  0  0  0  0
 20 11  2  0  0  0  0
 20 18  1  0  0  0  0
 21 23  2  0  0  0  0
 22 24  2  0  0  0  0
 25 14  1  0  0  0  0
 25  9  2  0  0  0  0
 26 21  1  0  0  0  0
 27  1  1  0  0  0  0
 28 29  1  0  0  0  0
 28 17  1  0  0  0  0
 30 33  1  0  0  0  0
 31 33  1  0  0  0  0
 32 29  1  1  0  0  0
 32 31  1  0  0  0  0
 34 32  1  0  0  0  0
 34 30  1  0  0  0  0
M  END
>  <MODEL>
4

>  <REMARK>
 VINA RESULT:      -9.3      3.744      8.382
  Name = 
  3 active torsions:
  status: ('A' for Active; 'I' for Inactive)
    1  A    between atoms: C_17  and  N_28
    2  A    between atoms: N_28  and  C_29
    3  A    between atoms: C_29  and  C_32
                            x       y       z     vdW  Elec       q    Type
                         _______ _______ _______ _____ _____    ______ ____

>  <TORSDO>
F 3

$$$$
=
 OpenBabel11122412023D

 34 41  0  0  1  0  0  0  0  0999 V2000
  190.9190  177.6620  142.9830 C   0  0  1  0  0  3  0  0  0  0  0  0
  192.4840  176.8090  141.1060 C   0  0  0  0  0  3  0  0  0  0  0  0
  184.8710  178.9530  145.0400 C   0  0  0  0  0  0  0  0  0  0  0  0
  189.0260  177.7790  144.6290 C   0  0  0  0  0  0  0  0  0  0  0  0
  186.7170  177.8710  143.8910 C   0  0  0  0  0  0  0  0  0  0  0  0
  184.4370  178.4320  143.1460 C   0  0  0  0  0  2  0  0  0  0  0  0
  183.9960  179.4620  144.0120 O   0  0  0  0  0  0  0  0  0  0  0  0
  186.2470  178.6280  146.9510 C   0  0  0  0  0  3  0  0  0  0  0  0
  190.2590  177.1870  140.6120 C   0  0  0  0  0  0  0  0  0  0  0  0
  189.2940  178.0320  137.8450 C   0  0  0  0  0  3  0  0  0  0  0  0
  187.1470  177.7390  142.6060 N   0  0  0  0  0  0  0  0  0  0  0  0
  187.2990  178.0060  146.3930 C   0  0  0  0  0  3  0  0  0  0  0  0
  188.8240  177.5530  140.8070 C   0  0  1  0  0  3  0  0  0  0  0  0
  192.2440  176.7210  139.6670 N   0  0  0  0  0  0  0  0  0  0  0  0
  187.6620  177.9000  144.9500 C   0  0  0  0  0  0  0  0  0  0  0  0
  185.2240  179.3190  146.2240 N   0  0  0  0  0  0  0  0  0  0  0  0
  190.2350  177.1170  138.1160 C   0  0  0  0  0  0  0  0  0  0  0  0
  189.4340  177.6800  143.2880 C   0  0  0  0  0  0  0  0  0  0  0  0
  185.2420  177.8210  144.1630 C   0  0  2  0  0  3  0  0  0  0  0  0
  188.4610  177.6690  142.2690 C   0  0  0  0  0  0  0  0  0  0  0  0
  191.2550  177.4160  145.4400 C   0  0  0  0  0  3  0  0  0  0  0  0
  188.6810  179.0030  138.7790 C   0  0  0  0  0  3  0  0  0  0  0  0
  190.0230  177.7660  145.6670 N   0  0  0  0  0  0  0  0  0  0  0  0
  188.5000  178.8260  140.0900 C   0  0  0  0  0  3  0  0  0  0  0  0
  190.8620  176.9910  139.4570 C   0  0  0  0  0  0  0  0  0  0  0  0
  191.6800  176.9230  144.0860 C   0  0  0  0  0  2  0  0  0  0  0  0
  191.1680  177.0450  141.6870 N   0  0  0  0  0  0  0  0  0  0  0  0
  190.6650  176.2910  137.0260 N   0  0  0  0  0  2  0  0  0  0  0  0
  190.5440  174.8410  136.9840 C   0  0  0  0  0  2  0  0  0  0  0  0
  187.3860  175.4170  136.3930 O   0  0  0  0  0  0  0  0  0  0  0  0
  189.2720  175.5390  134.9800 C   0  0  0  0  0  2  0  0  0  0  0  0
  189.4960  174.4280  135.9630 C   0  0  2  0  0  3  0  0  0  0  0  0
  187.8070  175.8690  135.1350 C   0  0  0  0  0  2  0  0  0  0  0  0
  188.1580  174.2740  136.6480 C   0  0  0  0  0  2  0  0  0  0  0  0
  1 18  1  0  0  0  0
  1 26  1  1  0  0  0
  2 27  1  0  0  0  0
  3 16  2  0  0  0  0
  4 15  1  0  0  0  0
  4 23  1  0  0  0  0
  5 19  1  0  0  0  0
  5 15  2  0  0  0  0
  6  7  1  0  0  0  0
  7  3  1  0  0  0  0
  9 13  1  0  0  0  0
  9 27  1  0  0  0  0
 10 17  2  0  0  0  0
 10 22  1  0  0  0  0
 11  5  1  0  0  0  0
 12  8  2  0  0  0  0
 13 24  1  6  0  0  0
 13 20  1  0  0  0  0
 14  2  2  0  0  0  0
 15 12  1  0  0  0  0
 16  8  1  0  0  0  0
 17 25  1  0  0  0  0
 18  4  2  0  0  0  0
 19  6  1  6  0  0  0
 19  3  1  0  0  0  0
 20 11  2  0  0  0  0
 20 18  1  0  0  0  0
 21 23  2  0  0  0  0
 22 24  2  0  0  0  0
 25 14  1  0  0  0  0
 25  9  2  0  0  0  0
 26 21  1  0  0  0  0
 27  1  1  0  0  0  0
 28 17  1  0  0  0  0
 29 28  1  0  0  0  0
 30 34  1  0  0  0  0
 31 33  1  0  0  0  0
 31 32  1  0  0  0  0
 32 34  1  0  0  0  0
 32 29  1  1  0  0  0
 33 30  1  0  0  0  0
M  END
>  <MODEL>
5

>  <REMARK>
 VINA RESULT:      -8.9      3.478      7.299
  Name = 
  3 active torsions:
  status: ('A' for Active; 'I' for Inactive)
    1  A    between atoms: C_17  and  N_28
    2  A    between atoms: N_28  and  C_29
    3  A    between atoms: C_29  and  C_32
                            x       y       z     vdW  Elec       q    Type
                         _______ _______ _______ _____ _____    ______ ____

>  <TORSDO>
F 3

$$$$
=
 OpenBabel11122412023D

 34 41  0  0  1  0  0  0  0  0999 V2000
  185.6660  178.1100  142.6110 C   0  0  1  0  0  3  0  0  0  0  0  0
  185.1310  178.8370  140.1850 C   0  0  0  0  0  3  0  0  0  0  0  0
  190.1200  176.8510  147.1990 C   0  0  0  0  0  0  0  0  0  0  0  0
  186.6400  178.0890  144.9260 C   0  0  0  0  0  0  0  0  0  0  0  0
  189.0290  177.8760  145.2860 C   0  0  0  0  0  0  0  0  0  0  0  0
  191.3680  177.1970  145.6590 C   0  0  0  0  0  2  0  0  0  0  0  0
  191.3240  176.2340  146.6970 O   0  0  0  0  0  0  0  0  0  0  0  0
  188.0710  177.3740  148.2840 C   0  0  0  0  0  3  0  0  0  0  0  0
  187.3210  178.3630  140.7460 C   0  0  0  0  0  0  0  0  0  0  0  0
  189.3450  177.2590  138.7490 C   0  0  0  0  0  3  0  0  0  0  0  0
  189.2120  177.9080  143.9370 N   0  0  0  0  0  0  0  0  0  0  0  0
  187.4070  177.9720  147.2810 C   0  0  0  0  0  3  0  0  0  0  0  0
  188.5030  177.9800  141.5760 C   0  0  1  0  0  3  0  0  0  0  0  0
  185.9800  178.7950  138.9960 N   0  0  0  0  0  0  0  0  0  0  0  0
  187.7170  177.9620  145.8210 C   0  0  0  0  0  0  0  0  0  0  0  0
  189.2640  176.5980  148.1290 N   0  0  0  0  0  0  0  0  0  0  0  0
  188.4360  178.2170  138.5170 C   0  0  0  0  0  0  0  0  0  0  0  0
  186.8640  178.0820  143.5390 C   0  0  0  0  0  0  0  0  0  0  0  0
  190.2370  177.9140  146.1760 C   0  0  2  0  0  3  0  0  0  0  0  0
  188.1840  177.9810  143.0530 C   0  0  0  0  0  0  0  0  0  0  0  0
  184.3070  178.5750  144.6470 C   0  0  0  0  0  3  0  0  0  0  0  0
  189.4290  176.3580  139.9200 C   0  0  0  0  0  3  0  0  0  0  0  0
  185.2920  178.2150  145.4160 N   0  0  0  0  0  0  0  0  0  0  0  0
  189.0300  176.6430  141.1610 C   0  0  0  0  0  3  0  0  0  0  0  0
  187.2960  178.4740  139.4340 C   0  0  0  0  0  0  0  0  0  0  0  0
  184.5450  178.9600  143.2150 C   0  0  0  0  0  2  0  0  0  0  0  0
  186.0440  178.6190  141.3000 N   0  0  0  0  0  0  0  0  0  0  0  0
  188.5760  178.9560  137.2960 N   0  0  0  0  0  2  0  0  0  0  0  0
  189.2600  178.4720  136.1050 C   0  0  0  0  0  2  0  0  0  0  0  0
  187.2300  175.9160  136.1220 O   0  0  0  0  0  0  0  0  0  0  0  0
  186.8670  178.1760  135.5510 C   0  0  0  0  0  2  0  0  0  0  0  0
  188.2700  177.8160  135.1580 C   0  0  2  0  0  3  0  0  0  0  0  0
  186.2190  176.8450  135.8430 C   0  0  0  0  0  2  0  0  0  0  0  0
  188.3210  176.3160  135.3340 C   0  0  0  0  0  2  0  0  0  0  0  0
  1 26  1  1  0  0  0
  1 18  1  0  0  0  0
  2 27  1  0  0  0  0
  3 16  2  0  0  0  0
  4 23  1  0  0  0  0
  4 15  1  0  0  0  0
  5 15  2  0  0  0  0
  5 19  1  0  0  0  0
  6  7  1  0  0  0  0
  7  3  1  0  0  0  0
  9 27  1  0  0  0  0
  9 13  1  0  0  0  0
 10 22  1  0  0  0  0
 11  5  1  0  0  0  0
 12  8  2  0  0  0  0
 13 24  1  6  0  0  0
 13 20  1  0  0  0  0
 14 25  1  0  0  0  0
 14  2  2  0  0  0  0
 15 12  1  0  0  0  0
 16  8  1  0  0  0  0
 17 10  2  0  0  0  0
 17 25  1  0  0  0  0
 18  4  2  0  0  0  0
 19  6  1  6  0  0  0
 19  3  1  0  0  0  0
 20 18  1  0  0  0  0
 20 11  2  0  0  0  0
 21 23  2  0  0  0  0
 22 24  2  0  0  0  0
 25  9  2  0  0  0  0
 26 21  1  0  0  0  0
 27  1  1  0  0  0  0
 28 17  1  0  0  0  0
 29 28  1  0  0  0  0
 31 33  1  0  0  0  0
 32 34  1  0  0  0  0
 32 31  1  0  0  0  0
 32 29  1  1  0  0  0
 33 30  1  0  0  0  0
 34 30  1  0  0  0  0
M  END
>  <MODEL>
6

>  <REMARK>
 VINA RESULT:      -8.8      3.127      6.103
  Name = 
  3 active torsions:
  status: ('A' for Active; 'I' for Inactive)
    1  A    between atoms: C_17  and  N_28
    2  A    between atoms: N_28  and  C_29
    3  A    between atoms: C_29  and  C_32
                            x       y       z     vdW  Elec       q    Type
                         _______ _______ _______ _____ _____    ______ ____

>  <TORSDO>
F 3

$$$$
=
 OpenBabel11122412023D

 34 41  0  0  1  0  0  0  0  0999 V2000
  184.8760  178.0900  143.9270 C   0  0  1  0  0  3  0  0  0  0  0  0
  182.4320  178.8460  144.3230 C   0  0  0  0  0  3  0  0  0  0  0  0
  189.9350  177.4940  139.8620 C   0  0  0  0  0  0  0  0  0  0  0  0
  187.2920  178.1220  143.2420 C   0  0  0  0  0  0  0  0  0  0  0  0
  187.9420  178.3900  140.9210 C   0  0  0  0  0  0  0  0  0  0  0  0
  188.5800  178.1920  138.5500 C   0  0  0  0  0  2  0  0  0  0  0  0
  189.5660  177.1760  138.5040 O   0  0  0  0  0  0  0  0  0  0  0  0
  190.7730  177.5060  142.0870 C   0  0  0  0  0  3  0  0  0  0  0  0
  183.2450  178.8040  142.1610 C   0  0  0  0  0  0  0  0  0  0  0  0
  181.4770  178.2790  139.7320 C   0  0  0  0  0  3  0  0  0  0  0  0
  186.6290  178.5470  140.5960 N   0  0  0  0  0  0  0  0  0  0  0  0
  189.7180  178.0150  142.7440 C   0  0  0  0  0  3  0  0  0  0  0  0
  184.2020  178.6230  141.0280 C   0  0  1  0  0  3  0  0  0  0  0  0
  181.3580  179.0590  143.3540 N   0  0  0  0  0  0  0  0  0  0  0  0
  188.3100  178.1650  142.2740 C   0  0  0  0  0  0  0  0  0  0  0  0
  190.7390  177.0070  140.7440 N   0  0  0  0  0  0  0  0  0  0  0  0
  181.1700  179.0400  140.7930 C   0  0  0  0  0  0  0  0  0  0  0  0
  185.9450  178.2530  142.8640 C   0  0  0  0  0  0  0  0  0  0  0  0
  188.9770  178.6210  139.8590 C   0  0  2  0  0  3  0  0  0  0  0  0
  185.6260  178.4620  141.5080 C   0  0  0  0  0  0  0  0  0  0  0  0
  186.7410  178.1270  145.5780 C   0  0  0  0  0  3  0  0  0  0  0  0
  182.6130  177.3410  139.5900 C   0  0  0  0  0  3  0  0  0  0  0  0
  187.6130  177.9320  144.6330 N   0  0  0  0  0  0  0  0  0  0  0  0
  183.8050  177.4550  140.1820 C   0  0  0  0  0  3  0  0  0  0  0  0
  181.9460  178.9920  142.0590 C   0  0  0  0  0  0  0  0  0  0  0  0
  185.3660  178.6460  145.2650 C   0  0  0  0  0  2  0  0  0  0  0  0
  183.6430  178.7510  143.5180 N   0  0  0  0  0  0  0  0  0  0  0  0
  180.0070  179.8690  140.6770 N   0  0  0  0  0  2  0  0  0  0  0  0
  180.0150  181.2530  140.2230 C   0  0  0  0  0  2  0  0  0  0  0  0
  179.8770  183.5110  137.8690 O   0  0  0  0  0  0  0  0  0  0  0  0
  181.5020  181.8670  138.3430 C   0  0  0  0  0  2  0  0  0  0  0  0
  180.1570  181.3130  138.7110 C   0  0  2  0  0  3  0  0  0  0  0  0
  181.1770  183.1040  137.5420 C   0  0  0  0  0  2  0  0  0  0  0  0
  179.1830  182.3240  138.1520 C   0  0  0  0  0  2  0  0  0  0  0  0
  1 26  1  1  0  0  0
  3 16  2  0  0  0  0
  4 23  1  0  0  0  0
  5 15  1  0  0  0  0
  7  6  1  0  0  0  0
  7  3  1  0  0  0  0
  8 12  2  0  0  0  0
  9 27  1  0  0  0  0
 10 17  2  0  0  0  0
 11  5  2  0  0  0  0
 11 20  1  0  0  0  0
 13 24  1  1  0  0  0
 13 20  1  0  0  0  0
 13  9  1  0  0  0  0
 14  2  2  0  0  0  0
 15 12  1  0  0  0  0
 15  4  2  0  0  0  0
 16  8  1  0  0  0  0
 17 25  1  0  0  0  0
 18  4  1  0  0  0  0
 18  1  1  0  0  0  0
 19  6  1  6  0  0  0
 19  3  1  0  0  0  0
 19  5  1  0  0  0  0
 20 18  2  0  0  0  0
 22 10  1  0  0  0  0
 22 24  2  0  0  0  0
 23 21  2  0  0  0  0
 25  9  2  0  0  0  0
 25 14  1  0  0  0  0
 26 21  1  0  0  0  0
 27  1  1  0  0  0  0
 27  2  1  0  0  0  0
 28 17  1  0  0  0  0
 29 28  1  0  0  0  0
 30 34  1  0  0  0  0
 31 32  1  0  0  0  0
 32 29  1  1  0  0  0
 33 30  1  0  0  0  0
 33 31  1  0  0  0  0
 34 32  1  0  0  0  0
M  END
>  <MODEL>
7

>  <REMARK>
 VINA RESULT:      -8.8      3.087      5.270
  Name = 
  3 active torsions:
  status: ('A' for Active; 'I' for Inactive)
    1  A    between atoms: C_17  and  N_28
    2  A    between atoms: N_28  and  C_29
    3  A    between atoms: C_29  and  C_32
                            x       y       z     vdW  Elec       q    Type
                         _______ _______ _______ _____ _____    ______ ____

>  <TORSDO>
F 3

$$$$
=
 OpenBabel11122412023D

 34 41  0  0  1  0  0  0  0  0999 V2000
  187.7440  178.4020  141.6460 C   0  0  1  0  0  3  0  0  0  0  0  0
  185.7730  178.4950  139.9700 C   0  0  0  0  0  3  0  0  0  0  0  0
  189.8490  177.3210  147.7180 C   0  0  0  0  0  0  0  0  0  0  0  0
  189.3170  177.5770  143.4220 C   0  0  0  0  0  0  0  0  0  0  0  0
  188.5470  177.1270  145.6770 C   0  0  0  0  0  0  0  0  0  0  0  0
  187.8750  177.1200  148.0480 C   0  0  0  0  0  2  0  0  0  0  0  0
  188.9330  177.7530  148.7450 O   0  0  0  0  0  0  0  0  0  0  0  0
  191.6830  177.0160  146.2360 C   0  0  0  0  0  3  0  0  0  0  0  0
  185.3070  178.2810  142.2220 C   0  0  0  0  0  0  0  0  0  0  0  0
  182.7670  179.3800  143.5030 C   0  0  0  0  0  3  0  0  0  0  0  0
  187.2780  177.4160  145.2770 N   0  0  0  0  0  0  0  0  0  0  0  0
  191.0340  176.8790  145.0680 C   0  0  0  0  0  3  0  0  0  0  0  0
  185.5340  178.1440  143.6930 C   0  0  1  0  0  3  0  0  0  0  0  0
  184.3440  178.6560  140.2270 N   0  0  0  0  0  0  0  0  0  0  0  0
  189.6150  177.2070  144.7450 C   0  0  0  0  0  0  0  0  0  0  0  0
  191.0950  177.5070  147.4470 N   0  0  0  0  0  0  0  0  0  0  0  0
  182.8580  178.7560  142.3190 C   0  0  0  0  0  0  0  0  0  0  0  0
  188.0000  177.9020  143.0540 C   0  0  0  0  0  0  0  0  0  0  0  0
  188.7560  176.5740  147.0570 C   0  0  2  0  0  3  0  0  0  0  0  0
  186.9740  177.8220  144.0170 C   0  0  0  0  0  0  0  0  0  0  0  0
  190.0950  177.7370  141.1570 C   0  0  0  0  0  3  0  0  0  0  0  0
  183.8730  179.8900  144.3440 C   0  0  0  0  0  3  0  0  0  0  0  0
  190.3560  177.6400  142.4280 N   0  0  0  0  0  0  0  0  0  0  0  0
  185.1060  179.3840  144.4120 C   0  0  0  0  0  3  0  0  0  0  0  0
  184.1570  178.5340  141.6330 C   0  0  0  0  0  0  0  0  0  0  0  0
  188.6790  177.7050  140.6550 C   0  0  0  0  0  2  0  0  0  0  0  0
  186.3520  178.1890  141.2720 N   0  0  0  0  0  0  0  0  0  0  0  0
  181.6260  178.3590  141.7030 N   0  0  0  0  0  2  0  0  0  0  0  0
  181.4450  178.1380  140.2750 C   0  0  0  0  0  2  0  0  0  0  0  0
  180.6210  176.2920  137.7120 O   0  0  0  0  0  0  0  0  0  0  0  0
  182.1540  175.9110  139.4650 C   0  0  0  0  0  2  0  0  0  0  0  0
  181.0070  176.7060  140.0140 C   0  0  2  0  0  3  0  0  0  0  0  0
  181.6590  175.4420  138.1190 C   0  0  0  0  0  2  0  0  0  0  0  0
  179.9860  176.6860  138.9000 C   0  0  0  0  0  2  0  0  0  0  0  0
  1 26  1  6  0  0  0
  1 18  1  0  0  0  0
  2 14  2  0  0  0  0
  2 27  1  0  0  0  0
  3  7  1  0  0  0  0
  4 15  1  0  0  0  0
  5 19  1  0  0  0  0
  6  7  1  0  0  0  0
  8 16  1  0  0  0  0
  9 13  1  0  0  0  0
 10 22  1  0  0  0  0
 11  5  1  0  0  0  0
 12  8  2  0  0  0  0
 13 20  1  0  0  0  0
 13 24  1  1  0  0  0
 14 25  1  0  0  0  0
 15 12  1  0  0  0  0
 15  5  2  0  0  0  0
 16  3  2  0  0  0  0
 17 10  2  0  0  0  0
 18  4  2  0  0  0  0
 18 20  1  0  0  0  0
 19  3  1  0  0  0  0
 19  6  1  1  0  0  0
 20 11  2  0  0  0  0
 21 23  2  0  0  0  0
 22 24  2  0  0  0  0
 23  4  1  0  0  0  0
 25  9  2  0  0  0  0
 25 17  1  0  0  0  0
 26 21  1  0  0  0  0
 27  1  1  0  0  0  0
 27  9  1  0  0  0  0
 28 17  1  0  0  0  0
 29 28  1  0  0  0  0
 30 33  1  0  0  0  0
 30 34  1  0  0  0  0
 31 32  1  0  0  0  0
 32 29  1  6  0  0  0
 33 31  1  0  0  0  0
 34 32  1  0  0  0  0
M  END
>  <MODEL>
8

>  <REMARK>
 VINA RESULT:      -8.8      1.817      2.257
  Name = 
  3 active torsions:
  status: ('A' for Active; 'I' for Inactive)
    1  A    between atoms: C_17  and  N_28
    2  A    between atoms: N_28  and  C_29
    3  A    between atoms: C_29  and  C_32
                            x       y       z     vdW  Elec       q    Type
                         _______ _______ _______ _____ _____    ______ ____

>  <TORSDO>
F 3

$$$$
=
 OpenBabel11122412023D

 34 41  0  0  1  0  0  0  0  0999 V2000
  184.1660  178.2470  142.7800 C   0  0  1  0  0  3  0  0  0  0  0  0
  181.7270  179.1110  142.6980 C   0  0  0  0  0  3  0  0  0  0  0  0
  189.8960  177.4410  139.7810 C   0  0  0  0  0  0  0  0  0  0  0  0
  186.6690  178.1730  142.5840 C   0  0  0  0  0  0  0  0  0  0  0  0
  187.7740  178.4220  140.4400 C   0  0  0  0  0  0  0  0  0  0  0  0
  188.8580  178.2050  138.2370 C   0  0  0  0  0  2  0  0  0  0  0  0
  189.7880  177.1460  138.3730 O   0  0  0  0  0  0  0  0  0  0  0  0
  190.2790  177.4050  142.1270 C   0  0  0  0  0  3  0  0  0  0  0  0
  182.9480  179.0420  140.7380 C   0  0  0  0  0  0  0  0  0  0  0  0
  181.6720  178.6070  138.0020 C   0  0  0  0  0  3  0  0  0  0  0  0
  186.5590  178.6390  139.8650 N   0  0  0  0  0  0  0  0  0  0  0  0
  189.1390  177.9590  142.5710 C   0  0  0  0  0  3  0  0  0  0  0  0
  184.1000  178.8220  139.8120 C   0  0  1  0  0  3  0  0  0  0  0  0
  180.8760  179.3760  141.5400 N   0  0  0  0  0  0  0  0  0  0  0  0
  187.8590  178.1740  141.8350 C   0  0  0  0  0  0  0  0  0  0  0  0
  190.4890  176.9150  140.7980 N   0  0  0  0  0  0  0  0  0  0  0  0
  181.1950  179.3760  138.9910 C   0  0  0  0  0  0  0  0  0  0  0  0
  185.4300  178.3660  141.9500 C   0  0  0  0  0  0  0  0  0  0  0  0
  189.0070  178.6100  139.6050 C   0  0  2  0  0  3  0  0  0  0  0  0
  185.3930  178.5950  140.5600 C   0  0  0  0  0  0  0  0  0  0  0  0
  185.6690  178.1930  144.7660 C   0  0  0  0  0  3  0  0  0  0  0  0
  182.7710  177.6190  138.0740 C   0  0  0  0  0  3  0  0  0  0  0  0
  186.7010  177.9630  144.0080 N   0  0  0  0  0  0  0  0  0  0  0  0
  183.8270  177.6770  138.8890 C   0  0  0  0  0  3  0  0  0  0  0  0
  181.7030  179.2880  140.3840 C   0  0  0  0  0  0  0  0  0  0  0  0
  184.4070  178.7750  144.1960 C   0  0  0  0  0  2  0  0  0  0  0  0
  183.0680  178.9650  142.1460 N   0  0  0  0  0  0  0  0  0  0  0  0
  180.1150  180.2580  138.6590 N   0  0  0  0  0  2  0  0  0  0  0  0
  180.2030  181.7110  138.6440 C   0  0  0  0  0  2  0  0  0  0  0  0
  179.9930  183.0980  135.6960 O   0  0  0  0  0  0  0  0  0  0  0  0
  181.2910  183.6640  137.5830 C   0  0  0  0  0  2  0  0  0  0  0  0
  181.1490  182.1710  137.5460 C   0  0  2  0  0  3  0  0  0  0  0  0
  180.8080  184.1080  136.2240 C   0  0  0  0  0  2  0  0  0  0  0  0
  180.5250  181.9000  136.1960 C   0  0  0  0  0  2  0  0  0  0  0  0
  1 26  1  1  0  0  0
  3 16  2  0  0  0  0
  4 23  1  0  0  0  0
  5 15  1  0  0  0  0
  6  7  1  0  0  0  0
  7  3  1  0  0  0  0
  8 12  2  0  0  0  0
  9 27  1  0  0  0  0
 10 22  1  0  0  0  0
 10 17  2  0  0  0  0
 11  5  2  0  0  0  0
 11 20  1  0  0  0  0
 13 24  1  1  0  0  0
 13 20  1  0  0  0  0
 13  9  1  0  0  0  0
 14  2  2  0  0  0  0
 15 12  1  0  0  0  0
 15  4  2  0  0  0  0
 16  8  1  0  0  0  0
 17 25  1  0  0  0  0
 18  4  1  0  0  0  0
 18  1  1  0  0  0  0
 19  6  1  6  0  0  0
 19  3  1  0  0  0  0
 19  5  1  0  0  0  0
 20 18  2  0  0  0  0
 22 24  2  0  0  0  0
 23 21  2  0  0  0  0
 25  9  2  0  0  0  0
 25 14  1  0  0  0  0
 26 21  1  0  0  0  0
 27  2  1  0  0  0  0
 27  1  1  0  0  0  0
 28 17  1  0  0  0  0
 29 28  1  0  0  0  0
 30 34  1  0  0  0  0
 30 33  1  0  0  0  0
 32 31  1  0  0  0  0
 32 29  1  1  0  0  0
 33 31  1  0  0  0  0
 34 32  1  0  0  0  0
M  END
>  <MODEL>
9

>  <REMARK>
 VINA RESULT:      -8.7      3.597      5.873
  Name = 
  3 active torsions:
  status: ('A' for Active; 'I' for Inactive)
    1  A    between atoms: C_17  and  N_28
    2  A    between atoms: N_28  and  C_29
    3  A    between atoms: C_29  and  C_32
                            x       y       z     vdW  Elec       q    Type
                         _______ _______ _______ _____ _____    ______ ____

>  <TORSDO>
F 3

$$$$
