=
 OpenBabel11122412173D

 34 41  0  0  1  0  0  0  0  0999 V2000
  189.1670  177.3430  143.4000 C   0  0  0  0  0  0  0  0  0  0  0  0
  187.4010  177.5250  145.2720 C   0  0  0  0  0  3  0  0  0  0  0  0
  191.4390  175.5080  138.0280 C   0  0  2  0  0  3  0  0  0  0  0  0
  190.6880  177.2320  141.4850 C   0  0  0  0  0  0  0  0  0  0  0  0
  189.8890  177.7940  139.3270 C   0  0  0  0  0  0  0  0  0  0  0  0
  189.5960  176.8500  137.0130 C   0  0  0  0  0  2  0  0  0  0  0  0
  190.7320  175.8530  136.7330 C   0  0  0  0  0  2  0  0  0  0  0  0
  192.4030  176.6660  138.2040 C   0  0  1  0  0  3  0  0  0  0  0  0
  186.8880  178.0160  143.0220 C   0  0  0  0  0  0  0  0  0  0  0  0
  184.0760  178.9280  142.0610 C   0  0  0  0  0  3  0  0  0  0  0  0
  188.6650  178.0330  139.8620 N   0  0  0  0  0  0  0  0  0  0  0  0
  192.3080  177.1140  139.6550 C   0  0  0  0  0  2  0  0  0  0  0  0
  187.1260  178.1610  141.6740 N   0  0  0  0  0  0  0  0  0  0  0  0
  186.0130  177.9220  145.1170 N   0  0  0  0  0  0  0  0  0  0  0  0
  190.9270  177.3740  140.1400 N   0  0  0  0  0  0  0  0  0  0  0  0
  192.9330  175.2710  137.9540 C   0  0  0  0  0  2  0  0  0  0  0  0
  184.4330  178.6360  143.3020 C   0  0  0  0  0  0  0  0  0  0  0  0
  189.4020  177.4970  142.0170 C   0  0  0  0  0  0  0  0  0  0  0  0
  190.0320  177.9260  137.9060 N   0  0  0  0  0  2  0  0  0  0  0  0
  188.3980  177.8970  141.1900 C   0  0  0  0  0  0  0  0  0  0  0  0
  191.4650  176.6720  143.7340 C   0  0  0  0  0  3  0  0  0  0  0  0
  184.8800  178.8920  140.8470 C   0  0  0  0  0  3  0  0  0  0  0  0
  191.7080  176.8190  142.3670 C   0  0  0  0  0  3  0  0  0  0  0  0
  186.1580  178.5700  140.6890 C   0  0  0  0  0  3  0  0  0  0  0  0
  185.7740  178.2040  143.7350 C   0  0  0  0  0  0  0  0  0  0  0  0
  190.1970  176.9330  144.2500 C   0  0  0  0  0  3  0  0  0  0  0  0
  187.8930  177.6120  143.8770 C   0  0  0  0  0  0  0  0  0  0  0  0
  183.3720  178.7830  144.3420 C   0  0  0  0  0  2  0  0  0  0  0  0
  182.2430  179.6590  143.8220 C   0  0  0  0  0  2  0  0  0  0  0  0
  178.9310  178.9230  144.0380 C   0  0  0  0  0  2  0  0  0  0  0  0
  180.4140  179.6870  142.3570 C   0  0  0  0  0  2  0  0  0  0  0  0
  181.2070  178.8300  143.2290 N   0  0  0  0  0  0  0  0  0  0  0  0
  178.9620  179.3690  142.6050 C   0  0  0  0  0  2  0  0  0  0  0  0
  180.3280  178.4060  144.3140 C   0  0  0  0  0  2  0  0  0  0  0  0
  1 27  2  0  0  0  0
  1 26  1  0  0  0  0
  3  7  1  6  0  0  0
  3  8  1  0  0  0  0
  4 18  1  0  0  0  0
  4 23  2  0  0  0  0
  5 11  2  0  0  0  0
  5 15  1  0  0  0  0
  6 19  1  0  0  0  0
  7  6  1  0  0  0  0
  8 16  1  1  0  0  0
  8 12  1  0  0  0  0
  9 25  2  0  0  0  0
  9 27  1  0  0  0  0
 10 17  2  0  0  0  0
 11 20  1  0  0  0  0
 12 15  1  0  0  0  0
 13  9  1  0  0  0  0
 14  2  2  0  0  0  0
 15  4  1  0  0  0  0
 16  3  1  0  0  0  0
 17 25  1  0  0  0  0
 17 28  1  0  0  0  0
 18  1  1  0  0  0  0
 19  5  1  0  0  0  0
 20 13  1  0  0  0  0
 20 18  2  0  0  0  0
 21 26  2  0  0  0  0
 22 10  1  0  0  0  0
 23 21  1  0  0  0  0
 24 22  2  0  0  0  0
 24 13  1  0  0  0  0
 25 14  1  0  0  0  0
 27  2  1  0  0  0  0
 29 28  1  0  0  0  0
 30 34  1  0  0  0  0
 31 33  1  0  0  0  0
 31 32  1  0  0  0  0
 32 29  1  0  0  0  0
 32 34  1  0  0  0  0
 33 30  1  0  0  0  0
M  END
>  <MODEL>
1

>  <REMARK>
 VINA RESULT:      -9.8      0.000      0.000
  Name = 
  3 active torsions:
  status: ('A' for Active; 'I' for Inactive)
    1  A    between atoms: C_17  and  C_28
    2  A    between atoms: C_28  and  C_29
    3  A    between atoms: C_29  and  N_32
                            x       y       z     vdW  Elec       q    Type
                         _______ _______ _______ _____ _____    ______ ____

>  <TORSDO>
F 3

$$$$
=
 OpenBabel11122412173D

 34 41  0  0  1  0  0  0  0  0999 V2000
  184.6580  178.5050  144.5030 C   0  0  0  0  0  0  0  0  0  0  0  0
  182.1300  178.7480  144.0480 C   0  0  0  0  0  3  0  0  0  0  0  0
  190.2240  176.0450  143.9150 C   0  0  2  0  0  3  0  0  0  0  0  0
  187.0860  178.2780  144.7200 C   0  0  0  0  0  0  0  0  0  0  0  0
  188.4320  178.2350  142.7710 C   0  0  0  0  0  0  0  0  0  0  0  0
  190.0930  176.8000  141.5390 C   0  0  0  0  0  2  0  0  0  0  0  0
  190.9030  175.9860  142.5610 C   0  0  0  0  0  2  0  0  0  0  0  0
  190.7110  177.3680  144.4770 C   0  0  1  0  0  3  0  0  0  0  0  0
  183.7100  178.6690  142.2980 C   0  0  0  0  0  0  0  0  0  0  0  0
  182.9510  178.8480  139.2880 C   0  0  0  0  0  3  0  0  0  0  0  0
  187.3110  178.3550  142.0160 N   0  0  0  0  0  0  0  0  0  0  0  0
  189.5000  178.0790  145.0640 C   0  0  0  0  0  2  0  0  0  0  0  0
  184.9580  178.5750  141.7250 N   0  0  0  0  0  0  0  0  0  0  0  0
  181.4910  178.8510  142.7490 N   0  0  0  0  0  0  0  0  0  0  0  0
  188.3320  178.1820  144.1500 N   0  0  0  0  0  0  0  0  0  0  0  0
  191.1230  176.0680  145.1340 C   0  0  0  0  0  2  0  0  0  0  0  0
  182.1190  178.8850  140.3190 C   0  0  0  0  0  0  0  0  0  0  0  0
  185.9340  178.4120  143.9060 C   0  0  0  0  0  0  0  0  0  0  0  0
  189.6850  178.0970  142.0870 N   0  0  0  0  0  2  0  0  0  0  0  0
  186.0630  178.4490  142.5520 C   0  0  0  0  0  0  0  0  0  0  0  0
  185.6530  178.3370  146.6990 C   0  0  0  0  0  3  0  0  0  0  0  0
  184.4000  178.7090  139.2890 C   0  0  0  0  0  3  0  0  0  0  0  0
  186.9190  178.2420  146.1200 C   0  0  0  0  0  3  0  0  0  0  0  0
  185.2390  178.5950  140.3120 C   0  0  0  0  0  3  0  0  0  0  0  0
  182.5030  178.7970  141.7390 C   0  0  0  0  0  0  0  0  0  0  0  0
  184.5230  178.4690  145.8930 C   0  0  0  0  0  3  0  0  0  0  0  0
  183.5580  178.6340  143.6690 C   0  0  0  0  0  0  0  0  0  0  0  0
  180.6730  179.0500  139.9900 C   0  0  0  0  0  2  0  0  0  0  0  0
  180.5090  179.9470  138.7730 C   0  0  0  0  0  2  0  0  0  0  0  0
  180.6660  183.1100  137.5370 C   0  0  0  0  0  2  0  0  0  0  0  0
  179.2060  181.8870  138.9450 C   0  0  0  0  0  2  0  0  0  0  0  0
  180.5370  181.3410  139.1800 N   0  0  0  0  0  0  0  0  0  0  0  0
  179.3760  183.2360  138.2940 C   0  0  0  0  0  2  0  0  0  0  0  0
  181.4420  182.0330  138.2680 C   0  0  0  0  0  2  0  0  0  0  0  0
  1 26  1  0  0  0  0
  3  7  1  6  0  0  0
  3  8  1  0  0  0  0
  3 16  1  0  0  0  0
  4 23  2  0  0  0  0
  5 15  1  0  0  0  0
  6 19  1  0  0  0  0
  6  7  1  0  0  0  0
  8 12  1  1  0  0  0
  8 16  1  0  0  0  0
  9 27  1  0  0  0  0
 10 22  1  0  0  0  0
 10 17  2  0  0  0  0
 11 20  1  0  0  0  0
 11  5  2  0  0  0  0
 13  9  1  0  0  0  0
 13 20  1  0  0  0  0
 14  2  2  0  0  0  0
 15  4  1  0  0  0  0
 15 12  1  0  0  0  0
 17 25  1  0  0  0  0
 18  1  1  0  0  0  0
 18  4  1  0  0  0  0
 19  5  1  0  0  0  0
 20 18  2  0  0  0  0
 22 24  2  0  0  0  0
 23 21  1  0  0  0  0
 24 13  1  0  0  0  0
 25  9  2  0  0  0  0
 25 14  1  0  0  0  0
 26 21  2  0  0  0  0
 27  2  1  0  0  0  0
 27  1  2  0  0  0  0
 28 17  1  0  0  0  0
 29 32  1  0  0  0  0
 29 28  1  0  0  0  0
 30 34  1  0  0  0  0
 30 33  1  0  0  0  0
 31 32  1  0  0  0  0
 33 31  1  0  0  0  0
 34 32  1  0  0  0  0
M  END
>  <MODEL>
2

>  <REMARK>
 VINA RESULT:      -9.8      2.493      5.033
  Name = 
  3 active torsions:
  status: ('A' for Active; 'I' for Inactive)
    1  A    between atoms: C_17  and  C_28
    2  A    between atoms: C_28  and  C_29
    3  A    between atoms: C_29  and  N_32
                            x       y       z     vdW  Elec       q    Type
                         _______ _______ _______ _____ _____    ______ ____

>  <TORSDO>
F 3

$$$$
=
 OpenBabel11122412173D

 34 41  0  0  1  0  0  0  0  0999 V2000
  185.6590  178.3050  145.0540 C   0  0  0  0  0  0  0  0  0  0  0  0
  183.2310  178.6450  144.2510 C   0  0  0  0  0  3  0  0  0  0  0  0
  191.1650  175.6530  145.2200 C   0  0  2  0  0  3  0  0  0  0  0  0
  188.0220  177.9890  145.6100 C   0  0  0  0  0  0  0  0  0  0  0  0
  189.6290  177.9180  143.8700 C   0  0  0  0  0  0  0  0  0  0  0  0
  191.3980  176.4380  142.8630 C   0  0  0  0  0  2  0  0  0  0  0  0
  192.0270  175.5840  143.9760 C   0  0  0  0  0  2  0  0  0  0  0  0
  191.6120  176.9510  145.8670 C   0  0  1  0  0  3  0  0  0  0  0  0
  185.0390  178.5270  142.7410 C   0  0  0  0  0  0  0  0  0  0  0  0
  184.7210  178.7670  139.6570 C   0  0  0  0  0  3  0  0  0  0  0  0
  188.6310  178.0870  142.9660 N   0  0  0  0  0  0  0  0  0  0  0  0
  190.3550  177.6990  146.2880 C   0  0  0  0  0  2  0  0  0  0  0  0
  186.3530  178.3950  142.3490 N   0  0  0  0  0  0  0  0  0  0  0  0
  182.7860  178.7840  142.8760 N   0  0  0  0  0  0  0  0  0  0  0  0
  189.3330  177.8530  145.2200 N   0  0  0  0  0  0  0  0  0  0  0  0
  191.8820  175.6300  146.5540 C   0  0  0  0  0  2  0  0  0  0  0  0
  183.7540  178.8230  140.5600 C   0  0  0  0  0  0  0  0  0  0  0  0
  187.0020  178.1730  144.6430 C   0  0  0  0  0  0  0  0  0  0  0  0
  190.9610  177.7430  143.3670 N   0  0  0  0  0  2  0  0  0  0  0  0
  187.3230  178.2200  143.3220 C   0  0  0  0  0  0  0  0  0  0  0  0
  186.3260  178.0770  147.3670 C   0  0  0  0  0  3  0  0  0  0  0  0
  186.1510  178.5760  139.8610 C   0  0  0  0  0  3  0  0  0  0  0  0
  187.6580  177.9430  146.9710 C   0  0  0  0  0  3  0  0  0  0  0  0
  186.8310  178.4200  140.9900 C   0  0  0  0  0  3  0  0  0  0  0  0
  183.9290  178.7050  142.0190 C   0  0  0  0  0  0  0  0  0  0  0  0
  185.3270  178.2580  146.4110 C   0  0  0  0  0  3  0  0  0  0  0  0
  184.6930  178.4830  144.0760 C   0  0  0  0  0  0  0  0  0  0  0  0
  182.3750  179.0430  140.0330 C   0  0  0  0  0  2  0  0  0  0  0  0
  181.9050  177.8200  139.2630 C   0  0  0  0  0  2  0  0  0  0  0  0
  179.1480  176.1230  140.3010 C   0  0  0  0  0  2  0  0  0  0  0  0
  181.2750  175.5680  139.4190 C   0  0  0  0  0  2  0  0  0  0  0  0
  181.4700  176.7890  140.1900 N   0  0  0  0  0  0  0  0  0  0  0  0
  179.9770  174.9480  139.8680 C   0  0  0  0  0  2  0  0  0  0  0  0
  180.1550  177.1880  140.6840 C   0  0  0  0  0  2  0  0  0  0  0  0
  1 26  1  0  0  0  0
  3  7  1  6  0  0  0
  3  8  1  0  0  0  0
  3 16  1  0  0  0  0
  4 23  2  0  0  0  0
  5 15  1  0  0  0  0
  6 19  1  0  0  0  0
  6  7  1  0  0  0  0
  8 12  1  1  0  0  0
  8 16  1  0  0  0  0
  9 27  1  0  0  0  0
 10 22  1  0  0  0  0
 10 17  2  0  0  0  0
 11 20  1  0  0  0  0
 11  5  2  0  0  0  0
 13  9  1  0  0  0  0
 13 20  1  0  0  0  0
 14  2  2  0  0  0  0
 15  4  1  0  0  0  0
 15 12  1  0  0  0  0
 17 25  1  0  0  0  0
 18  1  1  0  0  0  0
 18  4  1  0  0  0  0
 19  5  1  0  0  0  0
 20 18  2  0  0  0  0
 22 24  2  0  0  0  0
 23 21  1  0  0  0  0
 24 13  1  0  0  0  0
 25  9  2  0  0  0  0
 25 14  1  0  0  0  0
 26 21  2  0  0  0  0
 27  2  1  0  0  0  0
 27  1  2  0  0  0  0
 28 17  1  0  0  0  0
 29 28  1  0  0  0  0
 29 32  1  0  0  0  0
 30 34  1  0  0  0  0
 31 33  1  0  0  0  0
 31 32  1  0  0  0  0
 32 34  1  0  0  0  0
 33 30  1  0  0  0  0
M  END
>  <MODEL>
3

>  <REMARK>
 VINA RESULT:      -9.8      2.891      4.882
  Name = 
  3 active torsions:
  status: ('A' for Active; 'I' for Inactive)
    1  A    between atoms: C_17  and  C_28
    2  A    between atoms: C_28  and  C_29
    3  A    between atoms: C_29  and  N_32
                            x       y       z     vdW  Elec       q    Type
                         _______ _______ _______ _____ _____    ______ ____

>  <TORSDO>
F 3

$$$$
=
 OpenBabel11122412173D

 34 41  0  0  1  0  0  0  0  0999 V2000
  184.7940  178.4900  144.6280 C   0  0  0  0  0  0  0  0  0  0  0  0
  182.2580  178.7370  144.2260 C   0  0  0  0  0  3  0  0  0  0  0  0
  190.3470  176.0320  143.9160 C   0  0  2  0  0  3  0  0  0  0  0  0
  187.2260  178.2620  144.7960 C   0  0  0  0  0  0  0  0  0  0  0  0
  188.5320  178.2280  142.8200 C   0  0  0  0  0  0  0  0  0  0  0  0
  190.1670  176.7990  141.5480 C   0  0  0  0  0  2  0  0  0  0  0  0
  190.9980  175.9800  142.5490 C   0  0  0  0  0  2  0  0  0  0  0  0
  190.8450  177.3520  144.4750 C   0  0  1  0  0  3  0  0  0  0  0  0
  183.8020  178.6650  142.4440 C   0  0  0  0  0  0  0  0  0  0  0  0
  182.9820  178.8590  139.4510 C   0  0  0  0  0  3  0  0  0  0  0  0
  187.3960  178.3520  142.0880 N   0  0  0  0  0  0  0  0  0  0  0  0
  189.6470  178.0610  145.0890 C   0  0  0  0  0  2  0  0  0  0  0  0
  185.0390  178.5740  141.8460 N   0  0  0  0  0  0  0  0  0  0  0  0
  181.5920  178.8450  142.9400 N   0  0  0  0  0  0  0  0  0  0  0  0
  188.4600  178.1680  144.2000 N   0  0  0  0  0  0  0  0  0  0  0  0
  191.2700  176.0490  145.1170 C   0  0  0  0  0  2  0  0  0  0  0  0
  182.1720  178.8920  140.4980 C   0  0  0  0  0  0  0  0  0  0  0  0
  186.0580  178.4000  144.0060 C   0  0  0  0  0  0  0  0  0  0  0  0
  189.7710  178.0930  142.1090 N   0  0  0  0  0  2  0  0  0  0  0  0
  186.1590  178.4430  142.6500 C   0  0  0  0  0  0  0  0  0  0  0  0
  185.8330  178.3120  146.8040 C   0  0  0  0  0  3  0  0  0  0  0  0
  184.4310  178.7200  139.4220 C   0  0  0  0  0  3  0  0  0  0  0  0
  187.0880  178.2190  146.1980 C   0  0  0  0  0  3  0  0  0  0  0  0
  185.2900  178.6010  140.4270 C   0  0  0  0  0  3  0  0  0  0  0  0
  182.5840  178.7960  141.9100 C   0  0  0  0  0  0  0  0  0  0  0  0
  184.6880  178.4470  146.0210 C   0  0  0  0  0  3  0  0  0  0  0  0
  183.6780  178.6240  143.8180 C   0  0  0  0  0  0  0  0  0  0  0  0
  180.7190  179.0580  140.1990 C   0  0  0  0  0  2  0  0  0  0  0  0
  180.3960  178.4870  138.8280 C   0  0  0  0  0  2  0  0  0  0  0  0
  180.4470  175.2530  139.8770 C   0  0  0  0  0  2  0  0  0  0  0  0
  179.1950  177.2010  140.3760 C   0  0  0  0  0  2  0  0  0  0  0  0
  179.5560  177.3090  138.9680 N   0  0  0  0  0  0  0  0  0  0  0  0
  179.3570  175.7570  140.7780 C   0  0  0  0  0  2  0  0  0  0  0  0
  180.3900  176.1520  138.6580 C   0  0  0  0  0  2  0  0  0  0  0  0
  1 26  1  0  0  0  0
  3  7  1  6  0  0  0
  3  8  1  0  0  0  0
  3 16  1  0  0  0  0
  4 23  2  0  0  0  0
  5 15  1  0  0  0  0
  6 19  1  0  0  0  0
  6  7  1  0  0  0  0
  8 12  1  1  0  0  0
  8 16  1  0  0  0  0
  9 27  1  0  0  0  0
 10 17  2  0  0  0  0
 11 20  1  0  0  0  0
 11  5  2  0  0  0  0
 13  9  1  0  0  0  0
 13 20  1  0  0  0  0
 14  2  2  0  0  0  0
 15  4  1  0  0  0  0
 15 12  1  0  0  0  0
 17 25  1  0  0  0  0
 18  1  1  0  0  0  0
 18  4  1  0  0  0  0
 19  5  1  0  0  0  0
 20 18  2  0  0  0  0
 22 10  1  0  0  0  0
 22 24  2  0  0  0  0
 23 21  1  0  0  0  0
 24 13  1  0  0  0  0
 25  9  2  0  0  0  0
 25 14  1  0  0  0  0
 26 21  2  0  0  0  0
 27  2  1  0  0  0  0
 27  1  2  0  0  0  0
 28 17  1  0  0  0  0
 29 32  1  0  0  0  0
 29 28  1  0  0  0  0
 30 33  1  0  0  0  0
 31 33  1  0  0  0  0
 32 31  1  0  0  0  0
 34 32  1  0  0  0  0
 34 30  1  0  0  0  0
M  END
>  <MODEL>
4

>  <REMARK>
 VINA RESULT:      -9.7      2.409      4.776
  Name = 
  3 active torsions:
  status: ('A' for Active; 'I' for Inactive)
    1  A    between atoms: C_17  and  C_28
    2  A    between atoms: C_28  and  C_29
    3  A    between atoms: C_29  and  N_32
                            x       y       z     vdW  Elec       q    Type
                         _______ _______ _______ _____ _____    ______ ____

>  <TORSDO>
F 3

$$$$
=
 OpenBabel11122412173D

 34 41  0  0  1  0  0  0  0  0999 V2000
  190.0520  177.2460  142.1600 C   0  0  0  0  0  0  0  0  0  0  0  0
  190.5650  177.5030  139.6440 C   0  0  0  0  0  3  0  0  0  0  0  0
  187.8970  178.9520  147.6210 C   0  0  2  0  0  3  0  0  0  0  0  0
  189.3620  177.0540  144.5010 C   0  0  0  0  0  0  0  0  0  0  0  0
  187.1010  177.4500  145.0860 C   0  0  0  0  0  0  0  0  0  0  0  0
  185.6530  178.9210  146.5260 C   0  0  0  0  0  2  0  0  0  0  0  0
  186.4300  179.2910  147.8000 C   0  0  0  0  0  2  0  0  0  0  0  0
  187.9400  177.4690  147.9410 C   0  0  1  0  0  3  0  0  0  0  0  0
  188.4000  177.8450  140.5180 C   0  0  0  0  0  0  0  0  0  0  0  0
  185.9470  178.6280  138.7740 C   0  0  0  0  0  3  0  0  0  0  0  0
  186.8280  177.7080  143.7810 N   0  0  0  0  0  0  0  0  0  0  0  0
  188.7840  176.8020  146.8650 C   0  0  0  0  0  2  0  0  0  0  0  0
  187.4240  177.9160  141.4870 N   0  0  0  0  0  0  0  0  0  0  0  0
  189.6200  177.8620  138.6010 N   0  0  0  0  0  0  0  0  0  0  0  0
  188.3900  177.1280  145.4690 N   0  0  0  0  0  0  0  0  0  0  0  0
  188.6420  178.4590  148.8440 C   0  0  0  0  0  2  0  0  0  0  0  0
  187.1860  178.4220  138.3530 C   0  0  0  0  0  0  0  0  0  0  0  0
  189.0450  177.3190  143.1460 C   0  0  0  0  0  0  0  0  0  0  0  0
  186.0320  177.5950  146.0320 N   0  0  0  0  0  2  0  0  0  0  0  0
  187.7700  177.6470  142.8010 C   0  0  0  0  0  0  0  0  0  0  0  0
  191.6800  176.6460  143.8430 C   0  0  0  0  0  3  0  0  0  0  0  0
  185.4200  178.5520  140.1290 C   0  0  0  0  0  3  0  0  0  0  0  0
  190.6920  176.7190  144.8270 C   0  0  0  0  0  3  0  0  0  0  0  0
  186.0410  178.2550  141.2640 C   0  0  0  0  0  3  0  0  0  0  0  0
  188.3350  178.0520  139.2000 C   0  0  0  0  0  0  0  0  0  0  0  0
  191.3620  176.9090  142.5120 C   0  0  0  0  0  3  0  0  0  0  0  0
  189.6990  177.5140  140.8470 C   0  0  0  0  0  0  0  0  0  0  0  0
  187.4120  178.5640  136.8840 C   0  0  0  0  0  2  0  0  0  0  0  0
  186.6020  177.5260  136.1250 C   0  0  0  0  0  2  0  0  0  0  0  0
  189.6620  176.3050  135.2820 C   0  0  0  0  0  2  0  0  0  0  0  0
  187.4150  175.5740  135.1130 C   0  0  0  0  0  2  0  0  0  0  0  0
  187.3720  177.0260  134.9980 N   0  0  0  0  0  0  0  0  0  0  0  0
  188.8310  175.1380  134.8350 C   0  0  0  0  0  2  0  0  0  0  0  0
  188.7410  177.5030  135.1720 C   0  0  0  0  0  2  0  0  0  0  0  0
  1 26  1  0  0  0  0
  1 18  1  0  0  0  0
  2 27  1  0  0  0  0
  3  7  1  1  0  0  0
  3  8  1  0  0  0  0
  3 16  1  0  0  0  0
  4 23  2  0  0  0  0
  4 15  1  0  0  0  0
  5 15  1  0  0  0  0
  5 19  1  0  0  0  0
  6  7  1  0  0  0  0
  8 12  1  6  0  0  0
  8 16  1  0  0  0  0
  9 27  1  0  0  0  0
  9 13  1  0  0  0  0
 10 22  1  0  0  0  0
 11  5  2  0  0  0  0
 13 20  1  0  0  0  0
 14 25  1  0  0  0  0
 14  2  2  0  0  0  0
 15 12  1  0  0  0  0
 17 10  2  0  0  0  0
 17 25  1  0  0  0  0
 18  4  1  0  0  0  0
 19  6  1  0  0  0  0
 20 18  2  0  0  0  0
 20 11  1  0  0  0  0
 21 23  1  0  0  0  0
 22 24  2  0  0  0  0
 24 13  1  0  0  0  0
 25  9  2  0  0  0  0
 26 21  2  0  0  0  0
 27  1  2  0  0  0  0
 28 17  1  0  0  0  0
 29 28  1  0  0  0  0
 32 31  1  0  0  0  0
 32 34  1  0  0  0  0
 32 29  1  0  0  0  0
 33 31  1  0  0  0  0
 33 30  1  0  0  0  0
 34 30  1  0  0  0  0
M  END
>  <MODEL>
5

>  <REMARK>
 VINA RESULT:      -9.3      2.948      7.704
  Name = 
  3 active torsions:
  status: ('A' for Active; 'I' for Inactive)
    1  A    between atoms: C_17  and  C_28
    2  A    between atoms: C_28  and  C_29
    3  A    between atoms: C_29  and  N_32
                            x       y       z     vdW  Elec       q    Type
                         _______ _______ _______ _____ _____    ______ ____

>  <TORSDO>
F 3

$$$$
=
 OpenBabel11122412173D

 34 41  0  0  1  0  0  0  0  0999 V2000
  185.1380  178.4880  144.3420 C   0  0  0  0  0  0  0  0  0  0  0  0
  182.6490  178.7050  143.6980 C   0  0  0  0  0  3  0  0  0  0  0  0
  190.7460  176.0560  144.2180 C   0  0  2  0  0  3  0  0  0  0  0  0
  187.5440  178.2830  144.7430 C   0  0  0  0  0  0  0  0  0  0  0  0
  189.0310  178.2090  142.9000 C   0  0  0  0  0  0  0  0  0  0  0  0
  190.7860  176.7610  141.8240 C   0  0  0  0  0  2  0  0  0  0  0  0
  191.5230  175.9740  142.9200 C   0  0  0  0  0  2  0  0  0  0  0  0
  191.1820  177.3930  144.7870 C   0  0  1  0  0  3  0  0  0  0  0  0
  184.3540  178.6000  142.0710 C   0  0  0  0  0  0  0  0  0  0  0  0
  183.8180  178.7120  139.0100 C   0  0  0  0  0  3  0  0  0  0  0  0
  187.9680  178.3060  142.0620 N   0  0  0  0  0  0  0  0  0  0  0  0
  189.9280  178.1080  145.2670 C   0  0  0  0  0  2  0  0  0  0  0  0
  185.6420  178.5030  141.5940 N   0  0  0  0  0  0  0  0  0  0  0  0
  182.1070  178.7760  142.3530 N   0  0  0  0  0  0  0  0  0  0  0  0
  188.8300  178.1830  144.2680 N   0  0  0  0  0  0  0  0  0  0  0  0
  191.5520  176.1100  145.4990 C   0  0  0  0  0  2  0  0  0  0  0  0
  182.9130  178.7640  139.9760 C   0  0  0  0  0  0  0  0  0  0  0  0
  186.4550  178.3920  143.8440 C   0  0  0  0  0  0  0  0  0  0  0  0
  190.3310  178.0660  142.3120 N   0  0  0  0  0  2  0  0  0  0  0  0
  186.6830  178.4010  142.5020 C   0  0  0  0  0  0  0  0  0  0  0  0
  185.9690  178.3730  146.6100 C   0  0  0  0  0  3  0  0  0  0  0  0
  185.2640  178.5830  139.1210 C   0  0  0  0  0  3  0  0  0  0  0  0
  187.2750  178.2750  146.1270 C   0  0  0  0  0  3  0  0  0  0  0  0
  186.0260  178.4960  140.2050 C   0  0  0  0  0  3  0  0  0  0  0  0
  183.1910  178.7080  141.4220 C   0  0  0  0  0  0  0  0  0  0  0  0
  184.9010  178.4800  145.7200 C   0  0  0  0  0  3  0  0  0  0  0  0
  184.1020  178.5930  143.4280 C   0  0  0  0  0  0  0  0  0  0  0  0
  181.4940  178.9120  139.5380 C   0  0  0  0  0  2  0  0  0  0  0  0
  181.0190  177.6390  138.8560 C   0  0  0  0  0  2  0  0  0  0  0  0
  180.8520  180.0590  136.4740 C   0  0  0  0  0  2  0  0  0  0  0  0
  181.3870  177.7530  136.5450 C   0  0  0  0  0  2  0  0  0  0  0  0
  180.3900  177.9630  137.5870 N   0  0  0  0  0  0  0  0  0  0  0  0
  181.3160  178.9270  135.6030 C   0  0  0  0  0  2  0  0  0  0  0  0
  180.0990  179.3930  137.6080 C   0  0  0  0  0  2  0  0  0  0  0  0
  1 26  1  0  0  0  0
  3  7  1  6  0  0  0
  3  8  1  0  0  0  0
  3 16  1  0  0  0  0
  4 23  2  0  0  0  0
  5 15  1  0  0  0  0
  6 19  1  0  0  0  0
  6  7  1  0  0  0  0
  8 12  1  1  0  0  0
  8 16  1  0  0  0  0
  9 27  1  0  0  0  0
 10 22  1  0  0  0  0
 10 17  2  0  0  0  0
 11 20  1  0  0  0  0
 11  5  2  0  0  0  0
 13  9  1  0  0  0  0
 13 20  1  0  0  0  0
 14  2  2  0  0  0  0
 15  4  1  0  0  0  0
 15 12  1  0  0  0  0
 17 25  1  0  0  0  0
 18  1  1  0  0  0  0
 18  4  1  0  0  0  0
 19  5  1  0  0  0  0
 20 18  2  0  0  0  0
 22 24  2  0  0  0  0
 23 21  1  0  0  0  0
 24 13  1  0  0  0  0
 25  9  2  0  0  0  0
 25 14  1  0  0  0  0
 26 21  2  0  0  0  0
 27  2  1  0  0  0  0
 27  1  2  0  0  0  0
 28 17  1  0  0  0  0
 29 28  1  0  0  0  0
 30 34  1  0  0  0  0
 31 32  1  0  0  0  0
 32 34  1  0  0  0  0
 32 29  1  0  0  0  0
 33 30  1  0  0  0  0
 33 31  1  0  0  0  0
M  END
>  <MODEL>
6

>  <REMARK>
 VINA RESULT:      -9.0      2.699      5.087
  Name = 
  3 active torsions:
  status: ('A' for Active; 'I' for Inactive)
    1  A    between atoms: C_17  and  C_28
    2  A    between atoms: C_28  and  C_29
    3  A    between atoms: C_29  and  N_32
                            x       y       z     vdW  Elec       q    Type
                         _______ _______ _______ _____ _____    ______ ____

>  <TORSDO>
F 3

$$$$
=
 OpenBabel11122412173D

 34 41  0  0  1  0  0  0  0  0999 V2000
  189.0130  177.6230  141.8670 C   0  0  0  0  0  0  0  0  0  0  0  0
  188.1080  178.2880  139.5450 C   0  0  0  0  0  3  0  0  0  0  0  0
  190.0360  178.2820  147.8590 C   0  0  2  0  0  3  0  0  0  0  0  0
  189.6740  177.0250  144.1470 C   0  0  0  0  0  0  0  0  0  0  0  0
  188.0570  177.0670  145.8780 C   0  0  0  0  0  0  0  0  0  0  0  0
  187.5550  178.1410  148.0980 C   0  0  0  0  0  2  0  0  0  0  0  0
  188.8800  178.4180  148.8290 C   0  0  0  0  0  2  0  0  0  0  0  0
  190.2810  176.7850  147.8350 C   0  0  1  0  0  3  0  0  0  0  0  0
  186.7270  178.2470  141.4570 C   0  0  0  0  0  0  0  0  0  0  0  0
  183.7040  178.9730  141.4090 C   0  0  0  0  0  3  0  0  0  0  0  0
  187.1270  177.4710  144.9750 N   0  0  0  0  0  0  0  0  0  0  0  0
  190.4430  176.3790  146.3780 C   0  0  0  0  0  2  0  0  0  0  0  0
  186.4120  178.0670  142.7850 N   0  0  0  0  0  0  0  0  0  0  0  0
  186.7450  178.6750  139.2260 N   0  0  0  0  0  0  0  0  0  0  0  0
  189.3610  176.8480  145.4740 N   0  0  0  0  0  0  0  0  0  0  0  0
  191.3290  177.7150  148.4060 C   0  0  0  0  0  2  0  0  0  0  0  0
  184.5360  178.9750  140.3780 C   0  0  0  0  0  0  0  0  0  0  0  0
  188.6800  177.4380  143.2260 C   0  0  0  0  0  0  0  0  0  0  0  0
  187.6490  176.9510  147.2480 N   0  0  0  0  0  2  0  0  0  0  0  0
  187.4080  177.6590  143.6570 C   0  0  0  0  0  0  0  0  0  0  0  0
  191.3010  176.9890  142.3240 C   0  0  0  0  0  3  0  0  0  0  0  0
  183.9770  178.6470  142.8020 C   0  0  0  0  0  3  0  0  0  0  0  0
  190.9830  176.8060  143.6710 C   0  0  0  0  0  3  0  0  0  0  0  0
  185.1120  178.2680  143.3760 C   0  0  0  0  0  3  0  0  0  0  0  0
  185.9670  178.6280  140.4260 C   0  0  0  0  0  0  0  0  0  0  0  0
  190.3180  177.3960  141.4230 C   0  0  0  0  0  3  0  0  0  0  0  0
  188.0110  178.0290  141.0000 C   0  0  0  0  0  0  0  0  0  0  0  0
  183.9450  179.3470  139.0590 C   0  0  0  0  0  2  0  0  0  0  0  0
  182.8360  178.3760  138.6870 C   0  0  0  0  0  2  0  0  0  0  0  0
  180.2540  180.1580  139.9990 C   0  0  0  0  0  2  0  0  0  0  0  0
  181.9600  180.5310  138.3990 C   0  0  0  0  0  2  0  0  0  0  0  0
  181.6390  179.1120  138.3160 N   0  0  0  0  0  0  0  0  0  0  0  0
  180.8120  181.2170  139.0930 C   0  0  0  0  0  2  0  0  0  0  0  0
  180.6390  178.8460  139.3450 C   0  0  0  0  0  2  0  0  0  0  0  0
  1 18  1  0  0  0  0
  2 27  1  0  0  0  0
  3 16  1  1  0  0  0
  3  7  1  0  0  0  0
  4 15  1  0  0  0  0
  5 19  1  0  0  0  0
  6  7  1  0  0  0  0
  8 12  1  6  0  0  0
  8  3  1  0  0  0  0
  8 16  1  0  0  0  0
  9 13  1  0  0  0  0
 10 22  1  0  0  0  0
 11  5  2  0  0  0  0
 13 24  1  0  0  0  0
 13 20  1  0  0  0  0
 14  2  2  0  0  0  0
 14 25  1  0  0  0  0
 15  5  1  0  0  0  0
 15 12  1  0  0  0  0
 17 25  1  0  0  0  0
 17 10  2  0  0  0  0
 18 20  2  0  0  0  0
 18  4  1  0  0  0  0
 19  6  1  0  0  0  0
 20 11  1  0  0  0  0
 21 23  1  0  0  0  0
 22 24  2  0  0  0  0
 23  4  2  0  0  0  0
 25  9  2  0  0  0  0
 26  1  1  0  0  0  0
 26 21  2  0  0  0  0
 27  9  1  0  0  0  0
 27  1  2  0  0  0  0
 28 17  1  0  0  0  0
 29 28  1  0  0  0  0
 31 33  1  0  0  0  0
 32 31  1  0  0  0  0
 32 29  1  0  0  0  0
 32 34  1  0  0  0  0
 33 30  1  0  0  0  0
 34 30  1  0  0  0  0
M  END
>  <MODEL>
7

>  <REMARK>
 VINA RESULT:      -8.9      2.578      5.862
  Name = 
  3 active torsions:
  status: ('A' for Active; 'I' for Inactive)
    1  A    between atoms: C_17  and  C_28
    2  A    between atoms: C_28  and  C_29
    3  A    between atoms: C_29  and  N_32
                            x       y       z     vdW  Elec       q    Type
                         _______ _______ _______ _____ _____    ______ ____

>  <TORSDO>
F 3

$$$$
=
 OpenBabel11122412173D

 34 41  0  0  1  0  0  0  0  0999 V2000
  184.7260  178.5520  143.0970 C   0  0  0  0  0  0  0  0  0  0  0  0
  187.1330  178.1860  143.9520 C   0  0  0  0  0  3  0  0  0  0  0  0
  180.3140  181.2210  139.8120 C   0  0  2  0  0  3  0  0  0  0  0  0
  182.5220  178.8890  142.0870 C   0  0  0  0  0  0  0  0  0  0  0  0
  182.3140  178.9160  139.7270 C   0  0  0  0  0  0  0  0  0  0  0  0
  181.5560  180.3730  137.8200 C   0  0  0  0  0  2  0  0  0  0  0  0
  180.3930  181.2580  138.2990 C   0  0  0  0  0  2  0  0  0  0  0  0
  179.5420  179.9410  140.0770 C   0  0  1  0  0  3  0  0  0  0  0  0
  186.6260  178.2670  141.6490 C   0  0  0  0  0  0  0  0  0  0  0  0
  188.7560  177.9440  139.4080 C   0  0  0  0  0  3  0  0  0  0  0  0
  183.6530  178.7210  139.6250 N   0  0  0  0  0  0  0  0  0  0  0  0
  180.2660  179.2020  141.1920 C   0  0  0  0  0  2  0  0  0  0  0  0
  185.8280  178.3920  140.5340 N   0  0  0  0  0  0  0  0  0  0  0  0
  188.3220  178.0090  143.1380 N   0  0  0  0  0  0  0  0  0  0  0  0
  181.7250  179.0170  140.9750 N   0  0  0  0  0  0  0  0  0  0  0  0
  178.9320  181.2810  140.4290 C   0  0  0  0  0  2  0  0  0  0  0  0
  188.9690  177.9110  140.7150 C   0  0  0  0  0  0  0  0  0  0  0  0
  183.9160  178.6760  141.9480 C   0  0  0  0  0  0  0  0  0  0  0  0
  181.5700  179.0810  138.5120 N   0  0  0  0  0  2  0  0  0  0  0  0
  184.4680  178.5950  140.7070 C   0  0  0  0  0  0  0  0  0  0  0  0
  182.7900  178.8430  144.5150 C   0  0  0  0  0  3  0  0  0  0  0  0
  187.5040  178.1440  138.6920 C   0  0  0  0  0  3  0  0  0  0  0  0
  181.9800  178.9700  143.3860 C   0  0  0  0  0  3  0  0  0  0  0  0
  186.2790  178.3310  139.1670 C   0  0  0  0  0  3  0  0  0  0  0  0
  187.9420  178.0680  141.7600 C   0  0  0  0  0  0  0  0  0  0  0  0
  184.1610  178.6350  144.3730 C   0  0  0  0  0  3  0  0  0  0  0  0
  186.0850  178.3460  142.9160 C   0  0  0  0  0  0  0  0  0  0  0  0
  190.3790  177.6730  141.1440 C   0  0  0  0  0  2  0  0  0  0  0  0
  190.4770  176.3770  141.9320 C   0  0  0  0  0  2  0  0  0  0  0  0
  191.5130  178.0090  144.7300 C   0  0  0  0  0  2  0  0  0  0  0  0
  191.1610  175.7570  144.0870 C   0  0  0  0  0  2  0  0  0  0  0  0
  191.5780  176.4560  142.8780 N   0  0  0  0  0  0  0  0  0  0  0  0
  191.5600  176.6080  145.2650 C   0  0  0  0  0  2  0  0  0  0  0  0
  191.7310  177.8620  143.2370 C   0  0  0  0  0  2  0  0  0  0  0  0
  1 26  1  0  0  0  0
  3  7  1  6  0  0  0
  3  8  1  0  0  0  0
  3 16  1  0  0  0  0
  4 23  2  0  0  0  0
  5 15  1  0  0  0  0
  6  7  1  0  0  0  0
  6 19  1  0  0  0  0
  8 16  1  1  0  0  0
  8 12  1  0  0  0  0
  9 25  2  0  0  0  0
  9 27  1  0  0  0  0
 10 17  2  0  0  0  0
 11  5  2  0  0  0  0
 11 20  1  0  0  0  0
 13 20  1  0  0  0  0
 13  9  1  0  0  0  0
 14  2  2  0  0  0  0
 15 12  1  0  0  0  0
 15  4  1  0  0  0  0
 17 28  1  0  0  0  0
 17 25  1  0  0  0  0
 18  4  1  0  0  0  0
 18  1  1  0  0  0  0
 19  5  1  0  0  0  0
 20 18  2  0  0  0  0
 22 24  2  0  0  0  0
 22 10  1  0  0  0  0
 23 21  1  0  0  0  0
 24 13  1  0  0  0  0
 25 14  1  0  0  0  0
 26 21  2  0  0  0  0
 27  1  2  0  0  0  0
 27  2  1  0  0  0  0
 28 29  1  0  0  0  0
 29 32  1  0  0  0  0
 30 33  1  0  0  0  0
 31 33  1  0  0  0  0
 32 34  1  0  0  0  0
 32 31  1  0  0  0  0
 34 30  1  0  0  0  0
M  END
>  <MODEL>
8

>  <REMARK>
 VINA RESULT:      -8.9      2.307      8.587
  Name = 
  3 active torsions:
  status: ('A' for Active; 'I' for Inactive)
    1  A    between atoms: C_17  and  C_28
    2  A    between atoms: C_28  and  C_29
    3  A    between atoms: C_29  and  N_32
                            x       y       z     vdW  Elec       q    Type
                         _______ _______ _______ _____ _____    ______ ____

>  <TORSDO>
F 3

$$$$
=
 OpenBabel11122412173D

 34 41  0  0  1  0  0  0  0  0999 V2000
  187.4160  177.8260  142.8930 C   0  0  0  0  0  0  0  0  0  0  0  0
  185.3330  178.0510  144.4000 C   0  0  0  0  0  3  0  0  0  0  0  0
  190.6690  175.7970  138.1310 C   0  0  2  0  0  3  0  0  0  0  0  0
  189.2650  177.6650  141.2980 C   0  0  0  0  0  0  0  0  0  0  0  0
  188.8670  178.1010  139.0040 C   0  0  0  0  0  0  0  0  0  0  0  0
  189.0210  177.0390  136.7270 C   0  0  0  0  0  2  0  0  0  0  0  0
  190.2070  176.0610  136.7120 C   0  0  0  0  0  2  0  0  0  0  0  0
  191.5640  176.9880  138.4200 C   0  0  1  0  0  3  0  0  0  0  0  0
  185.2340  178.4190  142.0720 C   0  0  0  0  0  0  0  0  0  0  0  0
  182.6310  179.2090  140.5660 C   0  0  0  0  0  3  0  0  0  0  0  0
  187.5610  178.3320  139.2930 N   0  0  0  0  0  0  0  0  0  0  0  0
  191.1960  177.5030  139.8030 C   0  0  0  0  0  2  0  0  0  0  0  0
  185.7140  178.5060  140.7840 N   0  0  0  0  0  0  0  0  0  0  0  0
  183.9910  178.4030  143.9730 N   0  0  0  0  0  0  0  0  0  0  0  0
  189.7450  177.7480  140.0130 N   0  0  0  0  0  0  0  0  0  0  0  0
  192.1550  175.5970  138.3440 C   0  0  0  0  0  2  0  0  0  0  0  0
  182.7580  178.9870  141.8650 C   0  0  0  0  0  0  0  0  0  0  0  0
  187.8980  177.9200  141.5710 C   0  0  0  0  0  0  0  0  0  0  0  0
  189.2670  178.1690  137.6280 N   0  0  0  0  0  2  0  0  0  0  0  0
  187.0570  178.2530  140.5550 C   0  0  0  0  0  0  0  0  0  0  0  0
  189.6250  177.2340  143.6760 C   0  0  0  0  0  3  0  0  0  0  0  0
  183.6450  179.1370  139.5240 C   0  0  0  0  0  3  0  0  0  0  0  0
  190.1120  177.3210  142.3710 C   0  0  0  0  0  3  0  0  0  0  0  0
  184.9360  178.8420  139.6180 C   0  0  0  0  0  3  0  0  0  0  0  0
  184.0050  178.6110  142.5570 C   0  0  0  0  0  0  0  0  0  0  0  0
  188.2790  177.4860  143.9390 C   0  0  0  0  0  3  0  0  0  0  0  0
  186.0720  178.0840  143.1160 C   0  0  0  0  0  0  0  0  0  0  0  0
  181.5220  179.1550  142.6840 C   0  0  0  0  0  2  0  0  0  0  0  0
  180.4410  179.8460  141.8690 C   0  0  0  0  0  2  0  0  0  0  0  0
  179.1780  177.5180  139.7360 C   0  0  0  0  0  2  0  0  0  0  0  0
  179.7660  177.6070  142.0290 C   0  0  0  0  0  2  0  0  0  0  0  0
  179.3140  178.9480  141.6810 N   0  0  0  0  0  0  0  0  0  0  0  0
  179.2540  176.6650  140.9690 C   0  0  0  0  0  2  0  0  0  0  0  0
  179.0150  178.9340  140.2530 C   0  0  0  0  0  2  0  0  0  0  0  0
  1 27  2  0  0  0  0
  1 26  1  0  0  0  0
  3  7  1  6  0  0  0
  3 16  1  0  0  0  0
  3  8  1  0  0  0  0
  4 18  1  0  0  0  0
  4 23  2  0  0  0  0
  5 11  2  0  0  0  0
  5 15  1  0  0  0  0
  6 19  1  0  0  0  0
  7  6  1  0  0  0  0
  8 16  1  1  0  0  0
  8 12  1  0  0  0  0
  9 25  2  0  0  0  0
  9 27  1  0  0  0  0
 10 17  2  0  0  0  0
 11 20  1  0  0  0  0
 12 15  1  0  0  0  0
 13  9  1  0  0  0  0
 14  2  2  0  0  0  0
 15  4  1  0  0  0  0
 17 25  1  0  0  0  0
 17 28  1  0  0  0  0
 18  1  1  0  0  0  0
 19  5  1  0  0  0  0
 20 13  1  0  0  0  0
 20 18  2  0  0  0  0
 21 26  2  0  0  0  0
 22 24  2  0  0  0  0
 22 10  1  0  0  0  0
 23 21  1  0  0  0  0
 24 13  1  0  0  0  0
 25 14  1  0  0  0  0
 27  2  1  0  0  0  0
 29 28  1  0  0  0  0
 30 34  1  0  0  0  0
 30 33  1  0  0  0  0
 32 29  1  0  0  0  0
 32 31  1  0  0  0  0
 33 31  1  0  0  0  0
 34 32  1  0  0  0  0
M  END
>  <MODEL>
9

>  <REMARK>
 VINA RESULT:      -8.7      1.482      2.075
  Name = 
  3 active torsions:
  status: ('A' for Active; 'I' for Inactive)
    1  A    between atoms: C_17  and  C_28
    2  A    between atoms: C_28  and  C_29
    3  A    between atoms: C_29  and  N_32
                            x       y       z     vdW  Elec       q    Type
                         _______ _______ _______ _____ _____    ______ ____

>  <TORSDO>
F 3

$$$$
