=
 OpenBabel11122410553D

 31 35  0  0  1  0  0  0  0  0999 V2000
  189.9780  175.9740  142.6670 C   0  0  0  0  0  0  0  0  0  0  0  0
  186.6650  177.5520  143.4860 N   0  0  0  0  0  0  0  0  0  0  0  0
  186.6440  177.9260  144.8860 C   0  0  0  0  0  0  0  0  0  0  0  0
  187.6810  178.0280  147.0850 C   0  0  0  0  0  0  0  0  0  0  0  0
  187.8950  177.2110  142.8170 C   0  0  0  0  0  0  0  0  0  0  0  0
  190.2570  176.5880  141.4430 C   0  0  0  0  0  3  0  0  0  0  0  0
  187.6930  177.5920  145.7580 C   0  0  0  0  0  3  0  0  0  0  0  0
  186.0670  179.1200  141.7050 C   0  0  2  0  0  3  0  0  0  0  0  0
  190.8500  175.0800  143.1910 F   0  0  0  0  0  0  0  0  0  0  0  0
  184.5320  179.0480  144.5230 O   0  0  0  0  0  0  0  0  0  0  0  0
  188.9950  177.5990  148.1580 Cl  0  0  0  0  0  0  0  0  0  0  0  0
  187.2590  178.7180  141.0190 O   0  0  0  0  0  0  0  0  0  0  0  0
  185.5720  177.9710  142.5910 C   0  0  2  0  0  3  0  0  0  0  0  0
  188.7980  176.2800  143.3520 C   0  0  0  0  0  3  0  0  0  0  0  0
  186.6280  178.8190  147.5510 C   0  0  0  0  0  3  0  0  0  0  0  0
  188.1770  177.8180  141.5780 C   0  0  0  0  0  0  0  0  0  0  0  0
  189.3570  177.5070  140.8970 C   0  0  0  0  0  3  0  0  0  0  0  0
  184.2770  178.2930  143.3450 C   0  0  0  0  0  2  0  0  0  0  0  0
  185.5820  178.7090  145.3710 C   0  0  0  0  0  0  0  0  0  0  0  0
  185.5810  179.1610  146.6940 C   0  0  0  0  0  3  0  0  0  0  0  0
  185.0560  179.4970  140.7280 N   0  0  0  0  0  2  0  0  0  0  0  0
  183.4310  177.7490  140.2820 C   0  0  0  0  0  1  0  0  0  0  0  0
  184.7870  178.3300  139.8970 C   0  0  1  0  0  3  0  0  0  0  0  0
  184.8140  176.2640  136.9000 C   0  0  1  0  0  3  0  0  0  0  0  0
  183.6170  178.0260  137.6790 C   0  0  0  0  0  2  0  0  0  0  0  0
  187.2360  178.7600  138.2270 O   0  0  0  0  0  1  0  0  0  0  0  0
  184.8500  174.7580  136.7440 C   0  0  0  0  0  1  0  0  0  0  0  0
  183.7390  176.6230  137.7360 O   0  0  0  0  0  0  0  0  0  0  0  0
  186.0700  178.2590  137.6480 C   0  0  2  0  0  3  0  0  0  0  0  0
  184.7980  178.6970  138.3990 C   0  0  2  0  0  3  0  0  0  0  0  0
  186.1360  176.7420  137.5000 C   0  0  0  0  0  2  0  0  0  0  0  0
  1  9  1  0  0  0  0
  1 14  1  0  0  0  0
  2  3  1  0  0  0  0
  3 19  2  0  0  0  0
  3  7  1  0  0  0  0
  4 15  1  0  0  0  0
  4 11  1  0  0  0  0
  5 14  2  0  0  0  0
  5  2  1  0  0  0  0
  6  1  2  0  0  0  0
  7  4  2  0  0  0  0
  8 21  1  6  0  0  0
  8 13  1  0  0  0  0
 10 19  1  0  0  0  0
 12 16  1  0  0  0  0
 12  8  1  0  0  0  0
 13 18  1  1  0  0  0
 13  2  1  0  0  0  0
 16  5  1  0  0  0  0
 17  6  1  0  0  0  0
 17 16  2  0  0  0  0
 18 10  1  0  0  0  0
 19 20  1  0  0  0  0
 20 15  2  0  0  0  0
 23 22  1  1  0  0  0
 23 21  1  0  0  0  0
 24 27  1  1  0  0  0
 24 31  1  0  0  0  0
 24 28  1  0  0  0  0
 25 28  1  0  0  0  0
 25 30  1  0  0  0  0
 29 26  1  1  0  0  0
 29 30  1  0  0  0  0
 30 23  1  1  0  0  0
 31 29  1  0  0  0  0
M  END
>  <MODEL>
1

>  <REMARK>
 VINA RESULT:     -10.1      0.000      0.000
  Name = 
  3 active torsions:
  status: ('A' for Active; 'I' for Inactive)
    1  A    between atoms: C_5  and  N_16
    2  A    between atoms: C_5  and  C_30
    3  A    between atoms: C_10  and  N_16
                            x       y       z     vdW  Elec       q    Type
                         _______ _______ _______ _____ _____    ______ ____

>  <TORSDO>
F 3

$$$$
=
 OpenBabel11122410553D

 31 35  0  0  1  0  0  0  0  0999 V2000
  191.3100  176.3480  144.4030 C   0  0  0  0  0  0  0  0  0  0  0  0
  187.7960  177.4190  143.6010 N   0  0  0  0  0  0  0  0  0  0  0  0
  187.1310  177.8360  144.8200 C   0  0  0  0  0  0  0  0  0  0  0  0
  187.1060  178.1790  147.2280 C   0  0  0  0  0  0  0  0  0  0  0  0
  189.2260  177.2490  143.5450 C   0  0  0  0  0  0  0  0  0  0  0  0
  192.0060  176.9520  143.3530 C   0  0  0  0  0  3  0  0  0  0  0  0
  187.7390  177.7010  146.0790 C   0  0  0  0  0  3  0  0  0  0  0  0
  187.8260  178.8090  141.5870 C   0  0  2  0  0  3  0  0  0  0  0  0
  191.9780  175.6200  145.3280 F   0  0  0  0  0  0  0  0  0  0  0  0
  185.2550  178.6020  143.4980 O   0  0  0  0  0  0  0  0  0  0  0  0
  187.8770  177.9990  148.7890 Cl  0  0  0  0  0  0  0  0  0  0  0  0
  189.2370  178.5730  141.5050 O   0  0  0  0  0  0  0  0  0  0  0  0
  187.1480  177.6300  142.2950 C   0  0  2  0  0  3  0  0  0  0  0  0
  189.9220  176.4910  144.4980 C   0  0  0  0  0  3  0  0  0  0  0  0
  185.8650  178.8120  147.1320 C   0  0  0  0  0  3  0  0  0  0  0  0
  189.9320  177.8480  142.4830 C   0  0  0  0  0  0  0  0  0  0  0  0
  191.3190  177.6990  142.3920 C   0  0  0  0  0  3  0  0  0  0  0  0
  185.6260  177.7740  142.4030 C   0  0  0  0  0  2  0  0  0  0  0  0
  185.8750  178.4610  144.7360 C   0  0  0  0  0  0  0  0  0  0  0  0
  185.2510  178.9560  145.8860 C   0  0  0  0  0  3  0  0  0  0  0  0
  187.2920  178.9880  140.2450 N   0  0  0  0  0  2  0  0  0  0  0  0
  186.8310  177.6060  138.3030 C   0  0  0  0  0  1  0  0  0  0  0  0
  187.8310  177.9220  139.4090 C   0  0  1  0  0  3  0  0  0  0  0  0
  189.1950  177.4920  136.0620 C   0  0  1  0  0  3  0  0  0  0  0  0
  188.9660  179.1940  137.5440 C   0  0  0  0  0  2  0  0  0  0  0  0
  190.3060  176.2360  139.3850 O   0  0  0  0  0  1  0  0  0  0  0  0
  188.6060  176.8230  134.8390 C   0  0  0  0  0  1  0  0  0  0  0  0
  188.2930  178.4570  136.5490 O   0  0  0  0  0  0  0  0  0  0  0  0
  190.0620  177.1400  138.3510 C   0  0  2  0  0  3  0  0  0  0  0  0
  189.1870  178.3270  138.7950 C   0  0  2  0  0  3  0  0  0  0  0  0
  189.4730  176.4370  137.1320 C   0  0  0  0  0  2  0  0  0  0  0  0
  1 14  1  0  0  0  0
  1  9  1  0  0  0  0
  2  3  1  0  0  0  0
  3  7  1  0  0  0  0
  4 11  1  0  0  0  0
  5  2  1  0  0  0  0
  5 14  2  0  0  0  0
  6  1  2  0  0  0  0
  7  4  2  0  0  0  0
  8 21  1  6  0  0  0
  8 13  1  0  0  0  0
 10 19  1  0  0  0  0
 12  8  1  0  0  0  0
 12 16  1  0  0  0  0
 13 18  1  1  0  0  0
 13  2  1  0  0  0  0
 15  4  1  0  0  0  0
 16  5  1  0  0  0  0
 17 16  2  0  0  0  0
 17  6  1  0  0  0  0
 18 10  1  0  0  0  0
 19  3  2  0  0  0  0
 19 20  1  0  0  0  0
 20 15  2  0  0  0  0
 23 22  1  6  0  0  0
 23 21  1  0  0  0  0
 24 27  1  6  0  0  0
 24 28  1  0  0  0  0
 24 31  1  0  0  0  0
 25 30  1  0  0  0  0
 28 25  1  0  0  0  0
 29 30  1  0  0  0  0
 29 26  1  1  0  0  0
 30 23  1  6  0  0  0
 31 29  1  0  0  0  0
M  END
>  <MODEL>
2

>  <REMARK>
 VINA RESULT:      -8.5      2.053      2.834
  Name = 
  3 active torsions:
  status: ('A' for Active; 'I' for Inactive)
    1  A    between atoms: C_5  and  N_16
    2  A    between atoms: C_5  and  C_30
    3  A    between atoms: C_10  and  N_16
                            x       y       z     vdW  Elec       q    Type
                         _______ _______ _______ _____ _____    ______ ____

>  <TORSDO>
F 3

$$$$
=
 OpenBabel11122410553D

 31 35  0  0  1  0  0  0  0  0999 V2000
  189.2260  176.5630  142.0730 C   0  0  0  0  0  0  0  0  0  0  0  0
  186.5970  177.6720  144.5220 N   0  0  0  0  0  0  0  0  0  0  0  0
  187.1960  177.8250  145.8330 C   0  0  0  0  0  0  0  0  0  0  0  0
  189.1030  177.6910  147.3380 C   0  0  0  0  0  0  0  0  0  0  0  0
  187.4060  177.5560  143.3350 C   0  0  0  0  0  0  0  0  0  0  0  0
  188.9180  177.3800  140.9810 C   0  0  0  0  0  3  0  0  0  0  0  0
  188.5300  177.4640  146.0850 C   0  0  0  0  0  3  0  0  0  0  0  0
  185.2390  179.4270  143.4920 C   0  0  2  0  0  3  0  0  0  0  0  0
  190.2560  175.6870  141.9950 F   0  0  0  0  0  0  0  0  0  0  0  0
  185.1240  178.7810  146.6340 O   0  0  0  0  0  0  0  0  0  0  0  0
  190.7660  177.2320  147.6350 Cl  0  0  0  0  0  0  0  0  0  0  0  0
  186.0060  179.2520  142.2960 O   0  0  0  0  0  0  0  0  0  0  0  0
  185.2120  178.1150  144.2840 C   0  0  2  0  0  3  0  0  0  0  0  0
  188.4700  176.6470  143.2460 C   0  0  0  0  0  3  0  0  0  0  0  0
  188.3550  178.2970  148.3500 C   0  0  0  0  0  3  0  0  0  0  0  0
  187.0940  178.3690  142.2280 C   0  0  0  0  0  0  0  0  0  0  0  0
  187.8520  178.2800  141.0570 C   0  0  0  0  0  3  0  0  0  0  0  0
  184.3840  178.1930  145.5720 C   0  0  0  0  0  2  0  0  0  0  0  0
  186.4480  178.4190  146.8640 C   0  0  0  0  0  0  0  0  0  0  0  0
  187.0290  178.6630  148.1120 C   0  0  0  0  0  3  0  0  0  0  0  0
  183.8910  179.8500  143.1390 N   0  0  0  0  0  2  0  0  0  0  0  0
  182.2010  178.1070  143.1750 C   0  0  0  0  0  1  0  0  0  0  0  0
  183.2880  178.7850  142.3470 C   0  0  1  0  0  3  0  0  0  0  0  0
  182.3210  177.1360  139.2500 C   0  0  1  0  0  3  0  0  0  0  0  0
  181.3790  178.6010  140.7020 C   0  0  0  0  0  2  0  0  0  0  0  0
  184.8560  179.7600  139.9890 O   0  0  0  0  0  1  0  0  0  0  0  0
  182.4160  175.6820  138.8390 C   0  0  0  0  0  1  0  0  0  0  0  0
  181.6280  177.2330  140.4720 O   0  0  0  0  0  0  0  0  0  0  0  0
  183.6020  179.1770  139.8070 C   0  0  2  0  0  3  0  0  0  0  0  0
  182.6880  179.3350  141.0370 C   0  0  2  0  0  3  0  0  0  0  0  0
  183.7290  177.7160  139.3900 C   0  0  0  0  0  2  0  0  0  0  0  0
  1 14  1  0  0  0  0
  2  3  1  0  0  0  0
  3  7  2  0  0  0  0
  3 19  1  0  0  0  0
  4 11  1  0  0  0  0
  4 15  2  0  0  0  0
  5  2  1  0  0  0  0
  6 17  1  0  0  0  0
  6  1  2  0  0  0  0
  7  4  1  0  0  0  0
  8 21  1  6  0  0  0
  8 13  1  0  0  0  0
  9  1  1  0  0  0  0
 10 19  1  0  0  0  0
 12  8  1  0  0  0  0
 13  2  1  0  0  0  0
 13 18  1  1  0  0  0
 14  5  2  0  0  0  0
 16 12  1  0  0  0  0
 16  5  1  0  0  0  0
 17 16  2  0  0  0  0
 18 10  1  0  0  0  0
 19 20  2  0  0  0  0
 20 15  1  0  0  0  0
 23 21  1  0  0  0  0
 23 22  1  1  0  0  0
 24 27  1  1  0  0  0
 24 31  1  0  0  0  0
 24 28  1  0  0  0  0
 25 30  1  0  0  0  0
 28 25  1  0  0  0  0
 29 26  1  1  0  0  0
 29 30  1  0  0  0  0
 30 23  1  1  0  0  0
 31 29  1  0  0  0  0
M  END
>  <MODEL>
3

>  <REMARK>
 VINA RESULT:      -8.4      1.888      2.355
  Name = 
  3 active torsions:
  status: ('A' for Active; 'I' for Inactive)
    1  A    between atoms: C_5  and  N_16
    2  A    between atoms: C_5  and  C_30
    3  A    between atoms: C_10  and  N_16
                            x       y       z     vdW  Elec       q    Type
                         _______ _______ _______ _____ _____    ______ ____

>  <TORSDO>
F 3

$$$$
=
 OpenBabel11122410553D

 31 35  0  0  1  0  0  0  0  0999 V2000
  184.3750  178.4490  143.0150 C   0  0  0  0  0  0  0  0  0  0  0  0
  183.2480  178.1630  139.4390 N   0  0  0  0  0  0  0  0  0  0  0  0
  182.0070  178.8930  139.2670 C   0  0  0  0  0  0  0  0  0  0  0  0
  180.1780  180.2330  140.1490 C   0  0  0  0  0  0  0  0  0  0  0  0
  184.0690  178.3430  140.6090 C   0  0  0  0  0  0  0  0  0  0  0  0
  185.7410  178.6860  142.8340 C   0  0  0  0  0  3  0  0  0  0  0  0
  181.3330  179.4740  140.3540 C   0  0  0  0  0  3  0  0  0  0  0  0
  185.1740  178.4960  137.9680 C   0  0  2  0  0  3  0  0  0  0  0  0
  183.8590  178.3860  144.2650 F   0  0  0  0  0  0  0  0  0  0  0  0
  182.1540  178.5190  136.8820 O   0  0  0  0  0  0  0  0  0  0  0  0
  179.3490  180.9480  141.5150 Cl  0  0  0  0  0  0  0  0  0  0  0  0
  185.9900  178.6030  139.1400 O   0  0  0  0  0  0  0  0  0  0  0  0
  183.9540  177.6170  138.2670 C   0  0  2  0  0  3  0  0  0  0  0  0
  183.5410  178.2730  141.9060 C   0  0  0  0  0  3  0  0  0  0  0  0
  179.6930  180.4350  138.8550 C   0  0  0  0  0  3  0  0  0  0  0  0
  185.4480  178.5720  140.4340 C   0  0  0  0  0  0  0  0  0  0  0  0
  186.2780  178.7440  141.5450 C   0  0  0  0  0  3  0  0  0  0  0  0
  183.0330  177.4150  137.0590 C   0  0  0  0  0  2  0  0  0  0  0  0
  181.5010  179.0890  137.9710 C   0  0  0  0  0  0  0  0  0  0  0  0
  180.3560  179.8650  137.7660 C   0  0  0  0  0  3  0  0  0  0  0  0
  185.9660  177.9340  136.8830 N   0  0  0  0  0  2  0  0  0  0  0  0
  186.5300  175.5970  137.2210 C   0  0  0  0  0  1  0  0  0  0  0  0
  186.9540  177.0400  137.4740 C   0  0  1  0  0  3  0  0  0  0  0  0
  190.2370  177.2200  139.0350 C   0  0  1  0  0  3  0  0  0  0  0  0
  189.3070  176.1430  137.2690 C   0  0  0  0  0  2  0  0  0  0  0  0
  188.2450  179.7190  137.1260 O   0  0  0  0  0  1  0  0  0  0  0  0
  190.6430  177.1020  140.4880 C   0  0  0  0  0  1  0  0  0  0  0  0
  189.4760  176.0940  138.6670 O   0  0  0  0  0  0  0  0  0  0  0  0
  189.0260  178.5890  137.3680 C   0  0  2  0  0  3  0  0  0  0  0  0
  188.3570  177.2890  136.8840 C   0  0  2  0  0  3  0  0  0  0  0  0
  189.4230  178.4990  138.8380 C   0  0  0  0  0  2  0  0  0  0  0  0
  1  9  1  0  0  0  0
  2  5  1  0  0  0  0
  3  2  1  0  0  0  0
  3  7  1  0  0  0  0
  4  7  2  0  0  0  0
  4 11  1  0  0  0  0
  5 14  1  0  0  0  0
  6  1  1  0  0  0  0
  8 21  1  6  0  0  0
  8 13  1  0  0  0  0
  8 12  1  0  0  0  0
 10 18  1  0  0  0  0
 10 19  1  0  0  0  0
 12 16  1  0  0  0  0
 13 18  1  6  0  0  0
 13  2  1  0  0  0  0
 14  1  2  0  0  0  0
 15  4  1  0  0  0  0
 16  5  2  0  0  0  0
 16 17  1  0  0  0  0
 17  6  2  0  0  0  0
 19  3  2  0  0  0  0
 20 19  1  0  0  0  0
 20 15  2  0  0  0  0
 21 23  1  0  0  0  0
 23 22  1  6  0  0  0
 24 27  1  1  0  0  0
 25 28  1  0  0  0  0
 28 24  1  0  0  0  0
 29 26  1  1  0  0  0
 29 31  1  0  0  0  0
 30 25  1  0  0  0  0
 30 29  1  0  0  0  0
 30 23  1  1  0  0  0
 31 24  1  0  0  0  0
M  END
>  <MODEL>
4

>  <REMARK>
 VINA RESULT:      -8.2      3.689      6.535
  Name = 
  3 active torsions:
  status: ('A' for Active; 'I' for Inactive)
    1  A    between atoms: C_5  and  N_16
    2  A    between atoms: C_5  and  C_30
    3  A    between atoms: C_10  and  N_16
                            x       y       z     vdW  Elec       q    Type
                         _______ _______ _______ _____ _____    ______ ____

>  <TORSDO>
F 3

$$$$
=
 OpenBabel11122410553D

 31 35  0  0  1  0  0  0  0  0999 V2000
  191.0160  176.9350  142.2940 C   0  0  0  0  0  0  0  0  0  0  0  0
  190.0140  177.7540  138.7640 N   0  0  0  0  0  0  0  0  0  0  0  0
  190.7310  176.8890  137.8480 C   0  0  0  0  0  0  0  0  0  0  0  0
  192.3500  175.1300  137.3980 C   0  0  0  0  0  0  0  0  0  0  0  0
  189.9590  177.4730  140.1760 C   0  0  0  0  0  0  0  0  0  0  0  0
  189.7690  176.9560  142.9250 C   0  0  0  0  0  3  0  0  0  0  0  0
  191.7270  176.0030  138.2920 C   0  0  0  0  0  3  0  0  0  0  0  0
  187.5840  178.0290  138.6690 C   0  0  2  0  0  3  0  0  0  0  0  0
  192.1330  176.6630  143.0110 F   0  0  0  0  0  0  0  0  0  0  0  0
  189.3900  177.7540  136.0300 O   0  0  0  0  0  0  0  0  0  0  0  0
  193.5910  174.0350  137.9690 Cl  0  0  0  0  0  0  0  0  0  0  0  0
  187.5540  177.8180  140.0850 O   0  0  0  0  0  0  0  0  0  0  0  0
  188.9370  178.6280  138.2670 C   0  0  2  0  0  3  0  0  0  0  0  0
  191.1130  177.1970  140.9240 C   0  0  0  0  0  3  0  0  0  0  0  0
  191.9750  175.1200  136.0530 C   0  0  0  0  0  3  0  0  0  0  0  0
  188.7070  177.5030  140.8200 C   0  0  0  0  0  0  0  0  0  0  0  0
  188.6150  177.2420  142.1900 C   0  0  0  0  0  3  0  0  0  0  0  0
  189.0550  178.9230  136.7670 C   0  0  0  0  0  2  0  0  0  0  0  0
  190.3730  176.8810  136.4890 C   0  0  0  0  0  0  0  0  0  0  0  0
  190.9840  175.9930  135.6000 C   0  0  0  0  0  3  0  0  0  0  0  0
  186.4910  178.9140  138.2940 N   0  0  0  0  0  2  0  0  0  0  0  0
  186.0050  176.7920  137.2190 C   0  0  0  0  0  1  0  0  0  0  0  0
  185.4130  178.0860  137.7670 C   0  0  1  0  0  3  0  0  0  0  0  0
  181.9000  178.9830  138.0860 C   0  0  1  0  0  3  0  0  0  0  0  0
  183.1390  177.0890  138.2330 C   0  0  0  0  0  2  0  0  0  0  0  0
  184.8690  179.7530  140.1950 O   0  0  0  0  0  1  0  0  0  0  0  0
  181.0140  179.8210  137.1890 C   0  0  0  0  0  1  0  0  0  0  0  0
  182.5030  177.9610  137.3270 O   0  0  0  0  0  0  0  0  0  0  0  0
  183.8460  179.0050  139.6120 C   0  0  2  0  0  3  0  0  0  0  0  0
  184.3690  177.7690  138.8570 C   0  0  2  0  0  3  0  0  0  0  0  0
  182.9680  179.8750  138.7190 C   0  0  0  0  0  2  0  0  0  0  0  0
  1  6  1  0  0  0  0
  1  9  1  0  0  0  0
  2  5  1  0  0  0  0
  3  7  1  0  0  0  0
  3  2  1  0  0  0  0
  4 11  1  0  0  0  0
  4  7  2  0  0  0  0
  5 16  2  0  0  0  0
  5 14  1  0  0  0  0
  8 21  1  1  0  0  0
  8 12  1  0  0  0  0
 10 19  1  0  0  0  0
 10 18  1  0  0  0  0
 12 16  1  0  0  0  0
 13 18  1  6  0  0  0
 13  8  1  0  0  0  0
 13  2  1  0  0  0  0
 14  1  2  0  0  0  0
 15  4  1  0  0  0  0
 16 17  1  0  0  0  0
 17  6  2  0  0  0  0
 19  3  2  0  0  0  0
 20 15  2  0  0  0  0
 20 19  1  0  0  0  0
 23 22  1  1  0  0  0
 23 21  1  0  0  0  0
 24 27  1  6  0  0  0
 24 31  1  0  0  0  0
 25 30  1  0  0  0  0
 28 24  1  0  0  0  0
 28 25  1  0  0  0  0
 29 26  1  6  0  0  0
 30 23  1  6  0  0  0
 30 29  1  0  0  0  0
 31 29  1  0  0  0  0
M  END
>  <MODEL>
5

>  <REMARK>
 VINA RESULT:      -8.1      3.588      6.372
  Name = 
  3 active torsions:
  status: ('A' for Active; 'I' for Inactive)
    1  A    between atoms: C_5  and  N_16
    2  A    between atoms: C_5  and  C_30
    3  A    between atoms: C_10  and  N_16
                            x       y       z     vdW  Elec       q    Type
                         _______ _______ _______ _____ _____    ______ ____

>  <TORSDO>
F 3

$$$$
=
 OpenBabel11122410553D

 31 35  0  0  1  0  0  0  0  0999 V2000
  184.9800  179.3950  144.9570 C   0  0  0  0  0  0  0  0  0  0  0  0
  185.4130  179.1620  141.2300 N   0  0  0  0  0  0  0  0  0  0  0  0
  186.7210  178.6120  140.9320 C   0  0  0  0  0  0  0  0  0  0  0  0
  188.8890  177.7610  141.6320 C   0  0  0  0  0  0  0  0  0  0  0  0
  184.8490  179.0850  142.5540 C   0  0  0  0  0  0  0  0  0  0  0  0
  183.6720  178.9220  145.0920 C   0  0  0  0  0  3  0  0  0  0  0  0
  187.6650  178.3590  141.9400 C   0  0  0  0  0  3  0  0  0  0  0  0
  183.3620  178.2630  140.2440 C   0  0  2  0  0  3  0  0  0  0  0  0
  185.6800  179.7740  146.0530 F   0  0  0  0  0  0  0  0  0  0  0  0
  186.1050  178.4970  138.5950 O   0  0  0  0  0  0  0  0  0  0  0  0
  190.0560  177.4560  142.9010 Cl  0  0  0  0  0  0  0  0  0  0  0  0
  182.7900  178.2590  141.5580 O   0  0  0  0  0  0  0  0  0  0  0  0
  184.4290  179.3590  140.1510 C   0  0  2  0  0  3  0  0  0  0  0  0
  185.5670  179.4820  143.6910 C   0  0  0  0  0  3  0  0  0  0  0  0
  189.1770  177.3930  140.3160 C   0  0  0  0  0  3  0  0  0  0  0  0
  183.5280  178.6180  142.6950 C   0  0  0  0  0  0  0  0  0  0  0  0
  182.9450  178.5360  143.9630 C   0  0  0  0  0  3  0  0  0  0  0  0
  185.0790  179.4660  138.7670 C   0  0  0  0  0  2  0  0  0  0  0  0
  187.0270  178.2520  139.6080 C   0  0  0  0  0  0  0  0  0  0  0  0
  188.2460  177.6350  139.3050 C   0  0  0  0  0  3  0  0  0  0  0  0
  182.3060  178.4790  139.2640 N   0  0  0  0  0  2  0  0  0  0  0  0
  181.6500  180.7940  138.9420 C   0  0  0  0  0  1  0  0  0  0  0  0
  181.4390  179.5340  139.7740 C   0  0  1  0  0  3  0  0  0  0  0  0
  178.9310  179.1940  142.3890 C   0  0  1  0  0  3  0  0  0  0  0  0
  179.0720  180.1960  140.3590 C   0  0  0  0  0  2  0  0  0  0  0  0
  180.4190  176.7300  140.0300 O   0  0  0  0  0  1  0  0  0  0  0  0
  179.0360  179.4000  143.8850 C   0  0  0  0  0  1  0  0  0  0  0  0
  179.3870  180.3490  141.7240 O   0  0  0  0  0  0  0  0  0  0  0  0
  179.6460  177.8020  140.4740 C   0  0  2  0  0  3  0  0  0  0  0  0
  179.9570  179.1100  139.7240 C   0  0  2  0  0  3  0  0  0  0  0  0
  179.7680  177.9820  141.9840 C   0  0  0  0  0  2  0  0  0  0  0  0
  1  6  1  0  0  0  0
  1  9  1  0  0  0  0
  2  5  1  0  0  0  0
  3  2  1  0  0  0  0
  3  7  1  0  0  0  0
  4  7  2  0  0  0  0
  4 11  1  0  0  0  0
  5 16  2  0  0  0  0
  5 14  1  0  0  0  0
  8 21  1  6  0  0  0
  8 12  1  0  0  0  0
 10 18  1  0  0  0  0
 10 19  1  0  0  0  0
 12 16  1  0  0  0  0
 13 18  1  6  0  0  0
 13  8  1  0  0  0  0
 13  2  1  0  0  0  0
 14  1  2  0  0  0  0
 15  4  1  0  0  0  0
 16 17  1  0  0  0  0
 17  6  2  0  0  0  0
 19  3  2  0  0  0  0
 20 19  1  0  0  0  0
 20 15  2  0  0  0  0
 21 23  1  0  0  0  0
 23 22  1  6  0  0  0
 24 27  1  1  0  0  0
 25 28  1  0  0  0  0
 28 24  1  0  0  0  0
 29 26  1  6  0  0  0
 29 31  1  0  0  0  0
 30 23  1  1  0  0  0
 30 25  1  0  0  0  0
 30 29  1  0  0  0  0
 31 24  1  0  0  0  0
M  END
>  <MODEL>
6

>  <REMARK>
 VINA RESULT:      -8.0      3.292      6.013
  Name = 
  3 active torsions:
  status: ('A' for Active; 'I' for Inactive)
    1  A    between atoms: C_5  and  N_16
    2  A    between atoms: C_5  and  C_30
    3  A    between atoms: C_10  and  N_16
                            x       y       z     vdW  Elec       q    Type
                         _______ _______ _______ _____ _____    ______ ____

>  <TORSDO>
F 3

$$$$
=
 OpenBabel11122410553D

 31 35  0  0  1  0  0  0  0  0999 V2000
  185.2350  178.7260  139.4570 C   0  0  0  0  0  0  0  0  0  0  0  0
  188.8520  177.8450  139.9820 N   0  0  0  0  0  0  0  0  0  0  0  0
  189.0420  177.3850  141.3430 C   0  0  0  0  0  0  0  0  0  0  0  0
  188.1940  176.9050  143.5720 C   0  0  0  0  0  0  0  0  0  0  0  0
  187.5370  177.9600  139.4030 C   0  0  0  0  0  0  0  0  0  0  0  0
  185.0130  178.1560  138.2000 C   0  0  0  0  0  3  0  0  0  0  0  0
  188.0040  177.4220  142.2890 C   0  0  0  0  0  3  0  0  0  0  0  0
  189.6510  176.5740  138.0500 C   0  0  2  0  0  3  0  0  0  0  0  0
  184.2300  179.3720  140.0940 F   0  0  0  0  0  0  0  0  0  0  0  0
  191.3150  176.7730  140.7870 O   0  0  0  0  0  0  0  0  0  0  0  0
  186.8900  176.9630  144.7390 Cl  0  0  0  0  0  0  0  0  0  0  0  0
  188.3600  176.7580  137.4570 O   0  0  0  0  0  0  0  0  0  0  0  0
  189.9490  177.7360  139.0040 C   0  0  2  0  0  3  0  0  0  0  0  0
  186.4950  178.6330  140.0570 C   0  0  0  0  0  3  0  0  0  0  0  0
  189.4170  176.3280  143.9210 C   0  0  0  0  0  3  0  0  0  0  0  0
  187.3110  177.3970  138.1330 C   0  0  0  0  0  0  0  0  0  0  0  0
  186.0500  177.4940  137.5370 C   0  0  0  0  0  3  0  0  0  0  0  0
  191.3290  177.6480  139.6660 C   0  0  0  0  0  2  0  0  0  0  0  0
  190.2740  176.8170  141.7100 C   0  0  0  0  0  0  0  0  0  0  0  0
  190.4560  176.2820  142.9890 C   0  0  0  0  0  3  0  0  0  0  0  0
  190.6540  176.4950  136.9970 N   0  0  0  0  0  2  0  0  0  0  0  0
  190.4430  174.0760  137.0070 C   0  0  0  0  0  1  0  0  0  0  0  0
  191.3950  175.2540  137.1850 C   0  0  1  0  0  3  0  0  0  0  0  0
  194.5120  173.3780  137.3020 C   0  0  1  0  0  3  0  0  0  0  0  0
  192.8180  173.6720  135.8230 C   0  0  0  0  0  2  0  0  0  0  0  0
  193.8070  177.0290  137.1240 O   0  0  0  0  0  1  0  0  0  0  0  0
  195.0780  172.4780  138.3800 C   0  0  0  0  0  1  0  0  0  0  0  0
  193.2150  172.9480  136.9650 O   0  0  0  0  0  0  0  0  0  0  0  0
  193.9010  175.7000  136.7090 C   0  0  2  0  0  3  0  0  0  0  0  0
  192.5640  175.1450  136.1850 C   0  0  2  0  0  3  0  0  0  0  0  0
  194.4780  174.8190  137.8120 C   0  0  0  0  0  2  0  0  0  0  0  0
  1 14  1  0  0  0  0
  1  9  1  0  0  0  0
  2  3  1  0  0  0  0
  3 19  2  0  0  0  0
  3  7  1  0  0  0  0
  4 15  1  0  0  0  0
  4 11  1  0  0  0  0
  5  2  1  0  0  0  0
  5 14  2  0  0  0  0
  6  1  2  0  0  0  0
  7  4  2  0  0  0  0
  8 21  1  6  0  0  0
  8 13  1  0  0  0  0
 10 19  1  0  0  0  0
 12  8  1  0  0  0  0
 12 16  1  0  0  0  0
 13 18  1  1  0  0  0
 13  2  1  0  0  0  0
 16  5  1  0  0  0  0
 17 16  2  0  0  0  0
 17  6  1  0  0  0  0
 18 10  1  0  0  0  0
 19 20  1  0  0  0  0
 20 15  2  0  0  0  0
 21 23  1  0  0  0  0
 23 22  1  6  0  0  0
 24 31  1  0  0  0  0
 24 27  1  1  0  0  0
 25 30  1  0  0  0  0
 25 28  1  0  0  0  0
 28 24  1  0  0  0  0
 29 26  1  1  0  0  0
 29 31  1  0  0  0  0
 30 29  1  0  0  0  0
 30 23  1  1  0  0  0
M  END
>  <MODEL>
7

>  <REMARK>
 VINA RESULT:      -7.9      4.515      6.967
  Name = 
  3 active torsions:
  status: ('A' for Active; 'I' for Inactive)
    1  A    between atoms: C_5  and  N_16
    2  A    between atoms: C_5  and  C_30
    3  A    between atoms: C_10  and  N_16
                            x       y       z     vdW  Elec       q    Type
                         _______ _______ _______ _____ _____    ______ ____

>  <TORSDO>
F 3

$$$$
=
 OpenBabel11122410553D

 31 35  0  0  1  0  0  0  0  0999 V2000
  189.0780  177.8800  143.5480 C   0  0  0  0  0  0  0  0  0  0  0  0
  186.5860  178.7150  140.8590 N   0  0  0  0  0  0  0  0  0  0  0  0
  187.0740  178.2270  139.5840 C   0  0  0  0  0  0  0  0  0  0  0  0
  188.7680  177.1340  138.2230 C   0  0  0  0  0  0  0  0  0  0  0  0
  187.1690  178.2800  142.1030 C   0  0  0  0  0  0  0  0  0  0  0  0
  188.2220  177.4350  144.5590 C   0  0  0  0  0  3  0  0  0  0  0  0
  188.3520  177.6610  139.4470 C   0  0  0  0  0  3  0  0  0  0  0  0
  184.3350  178.2120  141.6750 C   0  0  2  0  0  3  0  0  0  0  0  0
  190.4160  177.9010  143.7540 F   0  0  0  0  0  0  0  0  0  0  0  0
  184.9510  178.8120  138.5830 O   0  0  0  0  0  0  0  0  0  0  0  0
  190.3660  176.4350  138.0700 Cl  0  0  0  0  0  0  0  0  0  0  0  0
  184.9230  177.8500  142.9300 O   0  0  0  0  0  0  0  0  0  0  0  0
  185.2170  179.2490  140.9730 C   0  0  2  0  0  3  0  0  0  0  0  0
  188.5540  178.3060  142.3240 C   0  0  0  0  0  3  0  0  0  0  0  0
  187.9050  177.1500  137.1250 C   0  0  0  0  0  3  0  0  0  0  0  0
  186.3110  177.8400  143.1300 C   0  0  0  0  0  0  0  0  0  0  0  0
  186.8400  177.4170  144.3530 C   0  0  0  0  0  3  0  0  0  0  0  0
  184.6530  179.7270  139.6300 C   0  0  0  0  0  2  0  0  0  0  0  0
  186.2200  178.2530  138.4680 C   0  0  0  0  0  0  0  0  0  0  0  0
  186.6310  177.7070  137.2480 C   0  0  0  0  0  3  0  0  0  0  0  0
  182.9970  178.7380  141.9080 N   0  0  0  0  0  2  0  0  0  0  0  0
  182.6240  176.8950  140.3730 C   0  0  0  0  0  1  0  0  0  0  0  0
  182.1430  178.2690  140.8240 C   0  0  1  0  0  3  0  0  0  0  0  0
  179.1200  179.7680  139.4580 C   0  0  1  0  0  3  0  0  0  0  0  0
  179.7870  177.7000  140.1100 C   0  0  0  0  0  2  0  0  0  0  0  0
  180.8080  180.1280  142.7570 O   0  0  0  0  0  1  0  0  0  0  0  0
  178.9310  180.6970  138.2780 C   0  0  0  0  0  1  0  0  0  0  0  0
  179.8230  178.6210  139.0430 O   0  0  0  0  0  0  0  0  0  0  0  0
  180.0730  179.5370  141.7290 C   0  0  2  0  0  3  0  0  0  0  0  0
  180.6680  178.1920  141.2700 C   0  0  2  0  0  3  0  0  0  0  0  0
  179.8950  180.4960  140.5570 C   0  0  0  0  0  2  0  0  0  0  0  0
  1  9  1  0  0  0  0
  1  6  1  0  0  0  0
  2 13  1  0  0  0  0
  2  5  1  0  0  0  0
  3  2  1  0  0  0  0
  4  7  2  0  0  0  0
  5 14  1  0  0  0  0
  5 16  2  0  0  0  0
  7  3  1  0  0  0  0
  8 21  1  1  0  0  0
  8 12  1  0  0  0  0
 10 18  1  0  0  0  0
 11  4  1  0  0  0  0
 12 16  1  0  0  0  0
 13 18  1  6  0  0  0
 13  8  1  0  0  0  0
 14  1  2  0  0  0  0
 15 20  2  0  0  0  0
 15  4  1  0  0  0  0
 16 17  1  0  0  0  0
 17  6  2  0  0  0  0
 19 10  1  0  0  0  0
 19  3  2  0  0  0  0
 20 19  1  0  0  0  0
 23 22  1  1  0  0  0
 23 21  1  0  0  0  0
 24 27  1  6  0  0  0
 24 31  1  0  0  0  0
 25 30  1  0  0  0  0
 28 24  1  0  0  0  0
 28 25  1  0  0  0  0
 29 26  1  1  0  0  0
 30 23  1  6  0  0  0
 30 29  1  0  0  0  0
 31 29  1  0  0  0  0
M  END
>  <MODEL>
8

>  <REMARK>
 VINA RESULT:      -7.6      3.216      5.772
  Name = 
  3 active torsions:
  status: ('A' for Active; 'I' for Inactive)
    1  A    between atoms: C_5  and  N_16
    2  A    between atoms: C_5  and  C_30
    3  A    between atoms: C_10  and  N_16
                            x       y       z     vdW  Elec       q    Type
                         _______ _______ _______ _____ _____    ______ ____

>  <TORSDO>
F 3

$$$$
=
 OpenBabel11122410553D

 31 35  0  0  1  0  0  0  0  0999 V2000
  191.2380  177.4380  141.8440 C   0  0  0  0  0  0  0  0  0  0  0  0
  190.1130  177.6180  138.2600 N   0  0  0  0  0  0  0  0  0  0  0  0
  190.8590  176.6550  137.4740 C   0  0  0  0  0  0  0  0  0  0  0  0
  192.5660  174.9350  137.2630 C   0  0  0  0  0  0  0  0  0  0  0  0
  190.1060  177.5680  139.7000 C   0  0  0  0  0  0  0  0  0  0  0  0
  190.0060  177.4950  142.5010 C   0  0  0  0  0  3  0  0  0  0  0  0
  191.9130  175.9070  138.0240 C   0  0  0  0  0  3  0  0  0  0  0  0
  187.6710  177.7450  138.1980 C   0  0  2  0  0  3  0  0  0  0  0  0
  192.3840  177.3460  142.5590 F   0  0  0  0  0  0  0  0  0  0  0  0
  189.4310  177.1410  135.5820 O   0  0  0  0  0  0  0  0  0  0  0  0
  193.8800  174.0140  137.9630 Cl  0  0  0  0  0  0  0  0  0  0  0  0
  187.6830  177.7650  139.6300 O   0  0  0  0  0  0  0  0  0  0  0  0
  188.9770  178.3420  137.6620 C   0  0  2  0  0  3  0  0  0  0  0  0
  191.2900  177.4790  140.4470 C   0  0  0  0  0  3  0  0  0  0  0  0
  192.1620  174.6860  135.9490 C   0  0  0  0  0  3  0  0  0  0  0  0
  188.8680  177.6350  140.3690 C   0  0  0  0  0  0  0  0  0  0  0  0
  188.8220  177.5960  141.7650 C   0  0  0  0  0  3  0  0  0  0  0  0
  189.0460  178.3940  136.1320 C   0  0  0  0  0  2  0  0  0  0  0  0
  190.4710  176.4080  136.1450 C   0  0  0  0  0  0  0  0  0  0  0  0
  191.1130  175.4200  135.3920 C   0  0  0  0  0  3  0  0  0  0  0  0
  186.5200  178.4980  137.7190 N   0  0  0  0  0  2  0  0  0  0  0  0
  184.6980  178.9060  139.2700 C   0  0  0  0  0  1  0  0  0  0  0  0
  185.3270  177.9040  138.3080 C   0  0  1  0  0  3  0  0  0  0  0  0
  184.1640  174.6510  137.1620 C   0  0  1  0  0  3  0  0  0  0  0  0
  183.2160  176.6030  137.8220 C   0  0  0  0  0  2  0  0  0  0  0  0
  185.9610  177.4080  135.4230 O   0  0  0  0  0  1  0  0  0  0  0  0
  184.5630  173.2560  137.5940 C   0  0  0  0  0  1  0  0  0  0  0  0
  183.7770  175.3980  138.2910 O   0  0  0  0  0  0  0  0  0  0  0  0
  184.9140  176.7230  136.0400 C   0  0  2  0  0  3  0  0  0  0  0  0
  184.3070  177.5040  137.2210 C   0  0  2  0  0  3  0  0  0  0  0  0
  185.3440  175.3220  136.4600 C   0  0  0  0  0  2  0  0  0  0  0  0
  1  6  1  0  0  0  0
  1  9  1  0  0  0  0
  2  5  1  0  0  0  0
  3  7  1  0  0  0  0
  3  2  1  0  0  0  0
  4 11  1  0  0  0  0
  4  7  2  0  0  0  0
  5 16  2  0  0  0  0
  5 14  1  0  0  0  0
  8 21  1  6  0  0  0
  8 12  1  0  0  0  0
 10 18  1  0  0  0  0
 10 19  1  0  0  0  0
 12 16  1  0  0  0  0
 13 18  1  6  0  0  0
 13  8  1  0  0  0  0
 13  2  1  0  0  0  0
 14  1  2  0  0  0  0
 15  4  1  0  0  0  0
 16 17  1  0  0  0  0
 17  6  2  0  0  0  0
 19  3  2  0  0  0  0
 20 15  2  0  0  0  0
 20 19  1  0  0  0  0
 21 23  1  0  0  0  0
 23 22  1  1  0  0  0
 24 27  1  1  0  0  0
 24 28  1  0  0  0  0
 25 28  1  0  0  0  0
 29 26  1  1  0  0  0
 29 31  1  0  0  0  0
 29 30  1  0  0  0  0
 30 25  1  0  0  0  0
 30 23  1  1  0  0  0
 31 24  1  0  0  0  0
M  END
>  <MODEL>
9

>  <REMARK>
 VINA RESULT:      -7.5      3.834      6.409
  Name = 
  3 active torsions:
  status: ('A' for Active; 'I' for Inactive)
    1  A    between atoms: C_5  and  N_16
    2  A    between atoms: C_5  and  C_30
    3  A    between atoms: C_10  and  N_16
                            x       y       z     vdW  Elec       q    Type
                         _______ _______ _______ _____ _____    ______ ____

>  <TORSDO>
F 3

$$$$
