=
 OpenBabel11122410433D

 32 38  0  0  1  0  0  0  0  0999 V2000
  179.5460  178.3840  141.9690 C   0  0  1  0  0  3  0  0  0  0  0  0
  184.5010  178.4940  143.2410 C   0  0  0  0  0  0  0  0  0  0  0  0
  187.0790  178.4530  139.1390 N   0  0  0  0  0  0  0  0  0  0  0  0
  188.2260  178.2280  139.8300 C   0  0  0  0  0  3  0  0  0  0  0  0
  185.6550  178.1360  145.4070 C   0  0  0  0  0  0  0  0  0  0  0  0
  186.8630  177.9000  146.0490 C   0  0  0  0  0  0  0  0  0  0  0  0
  182.1040  179.0590  143.1870 C   0  0  1  0  0  3  0  0  0  0  0  0
  183.2960  178.8560  141.0340 C   0  0  0  0  0  2  0  0  0  0  0  0
  189.0290  177.5620  146.2010 N   0  0  0  0  0  0  0  0  0  0  0  0
  180.7510  178.6290  141.0500 C   0  0  2  0  0  3  0  0  0  0  0  0
  185.8810  178.5740  139.7690 C   0  0  0  0  0  3  0  0  0  0  0  0
  184.5610  178.5880  141.8270 C   0  0  0  0  0  0  0  0  0  0  0  0
  185.7950  178.4680  141.1670 C   0  0  0  0  0  0  0  0  0  0  0  0
  186.9280  178.1220  143.3020 C   0  0  0  0  0  0  0  0  0  0  0  0
  188.5420  177.5320  147.4350 N   0  0  0  0  0  0  0  0  0  0  0  0
  179.9390  177.9220  143.2700 O   0  0  0  0  0  0  0  0  0  0  0  0
  182.0680  178.4050  141.8110 C   0  0  2  0  0  3  0  0  0  0  0  0
  187.1980  177.7380  147.3830 C   0  0  0  0  0  3  0  0  0  0  0  0
  180.8130  178.7970  143.9650 C   0  0  0  0  0  2  0  0  0  0  0  0
  179.9350  179.8110  141.5670 C   0  0  1  0  0  3  0  0  0  0  0  0
  188.1970  178.1140  141.2190 C   0  0  0  0  0  3  0  0  0  0  0  0
  186.9790  178.2330  141.9020 C   0  0  0  0  0  0  0  0  0  0  0  0
  188.0810  177.8900  144.0080 N   0  0  0  0  0  0  0  0  0  0  0  0
  183.2590  178.6170  143.8900 O   0  0  0  0  0  0  0  0  0  0  0  0
  184.4860  178.2500  146.1520 O   0  0  0  0  0  1  0  0  0  0  0  0
  190.4310  177.3810  145.8650 C   0  0  0  0  0  1  0  0  0  0  0  0
  185.6740  178.2520  143.9880 C   0  0  0  0  0  0  0  0  0  0  0  0
  188.0200  177.7850  145.3540 C   0  0  0  0  0  0  0  0  0  0  0  0
  179.0070  180.2930  140.4700 C   0  0  0  0  0  2  0  0  0  0  0  0
  179.5550  181.5300  139.8510 C   0  0  0  0  0  0  0  0  0  0  0  0
  180.7720  181.4920  139.1840 O   0  0  0  0  0  0  0  0  0  0  0  0
  178.9320  182.6180  139.9610 O   0  0  0  0  0  1  0  0  0  0  0  0
  1 16  1  1  0  0  0
  2 24  1  0  0  0  0
  2 27  1  0  0  0  0
  3 11  2  0  0  0  0
  3  4  1  0  0  0  0
  4 21  2  0  0  0  0
  5  6  1  0  0  0  0
  5 25  1  0  0  0  0
  6 18  1  0  0  0  0
  7 24  1  0  0  0  0
  7 19  1  1  0  0  0
  8 17  1  0  0  0  0
  8 12  1  0  0  0  0
  9 15  1  0  0  0  0
 10 20  1  0  0  0  0
 10 17  1  0  0  0  0
 10  1  1  0  0  0  0
 11 13  1  0  0  0  0
 12  2  2  0  0  0  0
 13 12  1  0  0  0  0
 13 22  2  0  0  0  0
 14 27  1  0  0  0  0
 14 23  2  0  0  0  0
 16 19  1  0  0  0  0
 17  7  1  0  0  0  0
 18 15  2  0  0  0  0
 20  1  1  0  0  0  0
 21 22  1  0  0  0  0
 22 14  1  0  0  0  0
 23 28  1  0  0  0  0
 26  9  1  0  0  0  0
 27  5  2  0  0  0  0
 28  6  2  0  0  0  0
 28  9  1  0  0  0  0
 29 20  1  0  0  0  0
 30 32  1  0  0  0  0
 30 29  1  0  0  0  0
 31 30  2  0  0  0  0
M  END
>  <MODEL>
1

>  <REMARK>
 VINA RESULT:     -10.0      0.000      0.000
  Name = 
  2 active torsions:
  status: ('A' for Active; 'I' for Inactive)
    1  A    between atoms: C_20  and  C_29
    2  A    between atoms: C_29  and  C_30
                            x       y       z     vdW  Elec       q    Type
                         _______ _______ _______ _____ _____    ______ ____

>  <TORSDO>
F 2

$$$$
=
 OpenBabel11122410433D

 32 38  0  0  1  0  0  0  0  0999 V2000
  189.0670  178.2630  137.3000 C   0  0  1  0  0  3  0  0  0  0  0  0
  188.0440  177.6810  142.2800 C   0  0  0  0  0  0  0  0  0  0  0  0
  183.4660  179.0850  143.0200 N   0  0  0  0  0  0  0  0  0  0  0  0
  183.6440  179.0520  144.3660 C   0  0  0  0  0  3  0  0  0  0  0  0
  189.5210  177.2720  144.2290 C   0  0  0  0  0  0  0  0  0  0  0  0
  189.6350  177.2650  145.6130 C   0  0  0  0  0  0  0  0  0  0  0  0
  188.8310  177.1910  139.9980 C   0  0  1  0  0  3  0  0  0  0  0  0
  186.5510  178.1000  140.2670 C   0  0  0  0  0  2  0  0  0  0  0  0
  188.9600  177.5100  147.6900 N   0  0  0  0  0  0  0  0  0  0  0  0
  187.7010  178.3330  137.9970 C   0  0  2  0  0  3  0  0  0  0  0  0
  184.4710  178.7690  142.1610 C   0  0  0  0  0  3  0  0  0  0  0  0
  186.7810  178.0720  141.7660 C   0  0  0  0  0  0  0  0  0  0  0  0
  185.7340  178.3960  142.6460 C   0  0  0  0  0  0  0  0  0  0  0  0
  187.1910  177.9870  144.5630 C   0  0  0  0  0  0  0  0  0  0  0  0
  190.2290  177.1250  147.7360 N   0  0  0  0  0  0  0  0  0  0  0  0
  190.1560  178.2530  138.2360 O   0  0  0  0  0  0  0  0  0  0  0  0
  187.8680  178.2730  139.5250 C   0  0  2  0  0  3  0  0  0  0  0  0
  190.6850  176.9630  146.4640 C   0  0  0  0  0  3  0  0  0  0  0  0
  190.1180  177.1860  139.1700 C   0  0  0  0  0  2  0  0  0  0  0  0
  188.1260  177.0540  137.2820 C   0  0  1  0  0  3  0  0  0  0  0  0
  184.8790  178.6880  144.9000 C   0  0  0  0  0  3  0  0  0  0  0  0
  185.9390  178.3560  144.0440 C   0  0  0  0  0  0  0  0  0  0  0  0
  187.3820  177.9550  145.9210 N   0  0  0  0  0  0  0  0  0  0  0  0
  189.0820  177.3570  141.3880 O   0  0  0  0  0  0  0  0  0  0  0  0
  190.6140  176.9240  143.4430 O   0  0  0  0  0  1  0  0  0  0  0  0
  188.1390  177.7810  148.8580 C   0  0  0  0  0  1  0  0  0  0  0  0
  188.2640  177.6440  143.6730 C   0  0  0  0  0  0  0  0  0  0  0  0
  188.5910  177.5970  146.4080 C   0  0  0  0  0  0  0  0  0  0  0  0
  187.4310  176.9810  135.9370 C   0  0  0  0  0  2  0  0  0  0  0  0
  186.0050  176.5980  136.1240 C   0  0  0  0  0  0  0  0  0  0  0  0
  185.6690  175.5890  137.0160 O   0  0  0  0  0  1  0  0  0  0  0  0
  185.1070  177.1660  135.4500 O   0  0  0  0  0  0  0  0  0  0  0  0
  1 10  1  0  0  0  0
  1 16  1  1  0  0  0
  2 27  1  0  0  0  0
  3  4  1  0  0  0  0
  4 21  2  0  0  0  0
  5  6  1  0  0  0  0
  6 28  2  0  0  0  0
  6 18  1  0  0  0  0
  7 19  1  6  0  0  0
  7 24  1  0  0  0  0
  8 12  1  0  0  0  0
  9 15  1  0  0  0  0
  9 26  1  0  0  0  0
 10 17  1  0  0  0  0
 11 13  1  0  0  0  0
 11  3  2  0  0  0  0
 12  2  2  0  0  0  0
 12 13  1  0  0  0  0
 13 22  2  0  0  0  0
 14 23  2  0  0  0  0
 16 19  1  0  0  0  0
 17  7  1  0  0  0  0
 17  8  1  0  0  0  0
 18 15  2  0  0  0  0
 20  1  1  0  0  0  0
 20 10  1  0  0  0  0
 22 14  1  0  0  0  0
 22 21  1  0  0  0  0
 23 28  1  0  0  0  0
 24  2  1  0  0  0  0
 25  5  1  0  0  0  0
 27  5  2  0  0  0  0
 27 14  1  0  0  0  0
 28  9  1  0  0  0  0
 29 30  1  0  0  0  0
 29 20  1  0  0  0  0
 30 31  1  0  0  0  0
 32 30  2  0  0  0  0
M  END
>  <MODEL>
2

>  <REMARK>
 VINA RESULT:      -9.8      3.980      6.228
  Name = 
  2 active torsions:
  status: ('A' for Active; 'I' for Inactive)
    1  A    between atoms: C_20  and  C_29
    2  A    between atoms: C_29  and  C_30
                            x       y       z     vdW  Elec       q    Type
                         _______ _______ _______ _____ _____    ______ ____

>  <TORSDO>
F 2

$$$$
=
 OpenBabel11122410433D

 32 38  0  0  1  0  0  0  0  0999 V2000
  180.6710  178.5340  141.3830 C   0  0  1  0  0  3  0  0  0  0  0  0
  185.3040  178.4140  143.5540 C   0  0  0  0  0  0  0  0  0  0  0  0
  188.5740  177.8450  140.0230 N   0  0  0  0  0  0  0  0  0  0  0  0
  189.5530  177.6020  140.9320 C   0  0  0  0  0  3  0  0  0  0  0  0
  186.0110  178.1660  145.9170 C   0  0  0  0  0  0  0  0  0  0  0  0
  187.0580  177.9040  146.7910 C   0  0  0  0  0  0  0  0  0  0  0  0
  183.0120  179.1340  143.0090 C   0  0  1  0  0  3  0  0  0  0  0  0
  184.5550  178.6660  141.1390 C   0  0  0  0  0  2  0  0  0  0  0  0
  189.1250  177.4340  147.3720 N   0  0  0  0  0  0  0  0  0  0  0  0
  182.0400  178.6160  140.6920 C   0  0  2  0  0  3  0  0  0  0  0  0
  187.2950  178.1010  140.4070 C   0  0  0  0  0  3  0  0  0  0  0  0
  185.6280  178.3810  142.1730 C   0  0  0  0  0  0  0  0  0  0  0  0
  186.9480  178.1210  141.7670 C   0  0  0  0  0  0  0  0  0  0  0  0
  187.6400  177.8830  144.0960 C   0  0  0  0  0  0  0  0  0  0  0  0
  188.4200  177.5430  148.4910 N   0  0  0  0  0  0  0  0  0  0  0  0
  180.7820  178.1590  142.7650 O   0  0  0  0  0  0  0  0  0  0  0  0
  183.1730  178.3690  141.7020 C   0  0  2  0  0  3  0  0  0  0  0  0
  187.1300  177.8340  148.1720 C   0  0  0  0  0  3  0  0  0  0  0  0
  181.5830  179.0290  143.5470 C   0  0  0  0  0  2  0  0  0  0  0  0
  181.2450  179.8900  140.9600 C   0  0  1  0  0  3  0  0  0  0  0  0
  189.2620  177.6100  142.2950 C   0  0  0  0  0  3  0  0  0  0  0  0
  187.9540  177.8710  142.7270 C   0  0  0  0  0  0  0  0  0  0  0  0
  188.6220  177.6350  145.0220 N   0  0  0  0  0  0  0  0  0  0  0  0
  183.9790  178.6770  143.9460 O   0  0  0  0  0  0  0  0  0  0  0  0
  184.7390  178.4220  146.4190 O   0  0  0  0  0  1  0  0  0  0  0  0
  190.5440  177.1290  147.3190 C   0  0  0  0  0  1  0  0  0  0  0  0
  186.2970  178.1580  144.5230 C   0  0  0  0  0  0  0  0  0  0  0  0
  188.3080  177.6510  146.3360 C   0  0  0  0  0  0  0  0  0  0  0  0
  180.5750  180.3380  139.6770 C   0  0  0  0  0  2  0  0  0  0  0  0
  181.6000  180.5560  138.6200 C   0  0  0  0  0  0  0  0  0  0  0  0
  182.6220  181.4730  138.8230 O   0  0  0  0  0  1  0  0  0  0  0  0
  181.5210  179.9350  137.5280 O   0  0  0  0  0  0  0  0  0  0  0  0
  1 16  1  1  0  0  0
  2 24  1  0  0  0  0
  2 27  1  0  0  0  0
  3 11  2  0  0  0  0
  3  4  1  0  0  0  0
  4 21  2  0  0  0  0
  5 25  1  0  0  0  0
  5  6  1  0  0  0  0
  6 18  1  0  0  0  0
  7 19  1  1  0  0  0
  7 24  1  0  0  0  0
  8 17  1  0  0  0  0
  8 12  1  0  0  0  0
  9 15  1  0  0  0  0
 10 20  1  0  0  0  0
 10  1  1  0  0  0  0
 10 17  1  0  0  0  0
 11 13  1  0  0  0  0
 12  2  2  0  0  0  0
 13 12  1  0  0  0  0
 13 22  2  0  0  0  0
 14 27  1  0  0  0  0
 14 23  2  0  0  0  0
 16 19  1  0  0  0  0
 17  7  1  0  0  0  0
 18 15  2  0  0  0  0
 20  1  1  0  0  0  0
 21 22  1  0  0  0  0
 22 14  1  0  0  0  0
 23 28  1  0  0  0  0
 26  9  1  0  0  0  0
 27  5  2  0  0  0  0
 28  6  2  0  0  0  0
 28  9  1  0  0  0  0
 29 20  1  0  0  0  0
 30 31  1  0  0  0  0
 30 29  1  0  0  0  0
 32 30  2  0  0  0  0
M  END
>  <MODEL>
3

>  <REMARK>
 VINA RESULT:      -9.5      1.304      1.511
  Name = 
  2 active torsions:
  status: ('A' for Active; 'I' for Inactive)
    1  A    between atoms: C_20  and  C_29
    2  A    between atoms: C_29  and  C_30
                            x       y       z     vdW  Elec       q    Type
                         _______ _______ _______ _____ _____    ______ ____

>  <TORSDO>
F 2

$$$$
=
 OpenBabel11122410433D

 32 38  0  0  1  0  0  0  0  0999 V2000
  183.0410  179.8830  138.7410 C   0  0  1  0  0  3  0  0  0  0  0  0
  186.3120  178.0820  142.2400 C   0  0  0  0  0  0  0  0  0  0  0  0
  184.2830  178.6770  146.6010 N   0  0  0  0  0  0  0  0  0  0  0  0
  185.4540  178.3690  147.2170 C   0  0  0  0  0  3  0  0  0  0  0  0
  188.7040  177.4480  142.0880 C   0  0  0  0  0  0  0  0  0  0  0  0
  189.8680  177.1480  142.7830 C   0  0  0  0  0  0  0  0  0  0  0  0
  184.9290  178.2180  140.2070 C   0  0  1  0  0  3  0  0  0  0  0  0
  183.8610  178.7390  142.3710 C   0  0  0  0  0  2  0  0  0  0  0  0
  191.1320  176.8370  144.5540 N   0  0  0  0  0  0  0  0  0  0  0  0
  182.7780  179.6170  140.2300 C   0  0  2  0  0  3  0  0  0  0  0  0
  184.1760  178.6930  145.2460 C   0  0  0  0  0  3  0  0  0  0  0  0
  185.1840  178.4090  143.0360 C   0  0  0  0  0  0  0  0  0  0  0  0
  185.2840  178.3910  144.4380 C   0  0  0  0  0  0  0  0  0  0  0  0
  187.6380  177.7600  144.2830 C   0  0  0  0  0  0  0  0  0  0  0  0
  191.8930  176.6200  143.4890 N   0  0  0  0  0  0  0  0  0  0  0  0
  184.4370  179.8080  138.4140 O   0  0  0  0  0  0  0  0  0  0  0  0
  184.0830  179.2420  140.9530 C   0  0  2  0  0  3  0  0  0  0  0  0
  191.1440  176.8050  142.3680 C   0  0  0  0  0  3  0  0  0  0  0  0
  185.0470  178.5650  138.7210 C   0  0  0  0  0  2  0  0  0  0  0  0
  182.3380  178.5960  139.1860 C   0  0  1  0  0  3  0  0  0  0  0  0
  186.5840  178.0610  146.4620 C   0  0  0  0  0  3  0  0  0  0  0  0
  186.5100  178.0690  145.0620 C   0  0  0  0  0  0  0  0  0  0  0  0
  188.8250  177.4530  144.8970 N   0  0  0  0  0  0  0  0  0  0  0  0
  186.1970  178.1030  140.8390 O   0  0  0  0  0  0  0  0  0  0  0  0
  188.7040  177.4290  140.6970 O   0  0  0  0  0  1  0  0  0  0  0  0
  191.5910  176.7320  145.9280 C   0  0  0  0  0  1  0  0  0  0  0  0
  187.5440  177.7660  142.8510 C   0  0  0  0  0  0  0  0  0  0  0  0
  189.9030  177.1570  144.1370 C   0  0  0  0  0  0  0  0  0  0  0  0
  180.8470  178.7330  138.9510 C   0  0  0  0  0  2  0  0  0  0  0  0
  180.1190  178.6150  140.2440 C   0  0  0  0  0  0  0  0  0  0  0  0
  180.2560  177.4690  141.0160 O   0  0  0  0  0  1  0  0  0  0  0  0
  179.3520  179.5390  140.6220 O   0  0  0  0  0  0  0  0  0  0  0  0
  1 16  1  1  0  0  0
  1 20  1  0  0  0  0
  1 10  1  0  0  0  0
  2 27  2  0  0  0  0
  2 12  1  0  0  0  0
  3  4  1  0  0  0  0
  5  6  2  0  0  0  0
  5 27  1  0  0  0  0
  6 28  1  0  0  0  0
  7 19  1  6  0  0  0
  7 24  1  0  0  0  0
  7 17  1  0  0  0  0
  8 12  1  0  0  0  0
  9 26  1  0  0  0  0
 10 17  1  0  0  0  0
 11  3  2  0  0  0  0
 12 13  2  0  0  0  0
 13 22  1  0  0  0  0
 13 11  1  0  0  0  0
 14 23  1  0  0  0  0
 14 22  2  0  0  0  0
 15  9  1  0  0  0  0
 16 19  1  0  0  0  0
 17  8  1  0  0  0  0
 18  6  1  0  0  0  0
 18 15  2  0  0  0  0
 20 10  1  0  0  0  0
 21  4  2  0  0  0  0
 22 21  1  0  0  0  0
 24  2  1  0  0  0  0
 25  5  1  0  0  0  0
 27 14  1  0  0  0  0
 28  9  1  0  0  0  0
 28 23  2  0  0  0  0
 29 20  1  0  0  0  0
 29 30  1  0  0  0  0
 30 32  2  0  0  0  0
 30 31  1  0  0  0  0
M  END
>  <MODEL>
4

>  <REMARK>
 VINA RESULT:      -9.3      2.454      4.418
  Name = 
  2 active torsions:
  status: ('A' for Active; 'I' for Inactive)
    1  A    between atoms: C_20  and  C_29
    2  A    between atoms: C_29  and  C_30
                            x       y       z     vdW  Elec       q    Type
                         _______ _______ _______ _____ _____    ______ ____

>  <TORSDO>
F 2

$$$$
=
 OpenBabel11122410433D

 32 38  0  0  1  0  0  0  0  0999 V2000
  190.1390  175.7340  137.4160 C   0  0  1  0  0  3  0  0  0  0  0  0
  188.4570  177.4200  141.9450 C   0  0  0  0  0  0  0  0  0  0  0  0
  191.8430  176.3870  145.2540 N   0  0  0  0  0  0  0  0  0  0  0  0
  190.9920  176.7040  146.2640 C   0  0  0  0  0  3  0  0  0  0  0  0
  186.2200  178.1840  142.6920 C   0  0  0  0  0  0  0  0  0  0  0  0
  185.4010  178.4870  143.7730 C   0  0  0  0  0  0  0  0  0  0  0  0
  189.0190  177.3740  139.5480 C   0  0  1  0  0  3  0  0  0  0  0  0
  190.7400  176.6330  141.1570 C   0  0  0  0  0  2  0  0  0  0  0  0
  184.8710  178.7230  145.8920 N   0  0  0  0  0  0  0  0  0  0  0  0
  190.9290  175.8700  138.7250 C   0  0  2  0  0  3  0  0  0  0  0  0
  191.4630  176.4710  143.9520 C   0  0  0  0  0  3  0  0  0  0  0  0
  189.7660  176.9760  142.2670 C   0  0  0  0  0  0  0  0  0  0  0  0
  190.1680  176.8910  143.6100 C   0  0  0  0  0  0  0  0  0  0  0  0
  187.9650  177.6490  144.3410 C   0  0  0  0  0  0  0  0  0  0  0  0
  183.8010  179.0600  145.1820 N   0  0  0  0  0  0  0  0  0  0  0  0
  188.7270  175.9050  137.6130 O   0  0  0  0  0  0  0  0  0  0  0  0
  189.9950  176.2530  139.8860 C   0  0  2  0  0  3  0  0  0  0  0  0
  184.0900  178.9250  143.8600 C   0  0  0  0  0  3  0  0  0  0  0  0
  188.3590  177.1490  138.1850 C   0  0  0  0  0  2  0  0  0  0  0  0
  191.0470  176.9460  137.6500 C   0  0  1  0  0  3  0  0  0  0  0  0
  189.6940  177.1270  145.9800 C   0  0  0  0  0  3  0  0  0  0  0  0
  189.2690  177.2240  144.6480 C   0  0  0  0  0  0  0  0  0  0  0  0
  187.0970  177.9670  145.3540 N   0  0  0  0  0  0  0  0  0  0  0  0
  188.0680  177.5030  140.5960 O   0  0  0  0  0  0  0  0  0  0  0  0
  185.7300  178.3110  141.3970 O   0  0  0  0  0  1  0  0  0  0  0  0
  184.9350  178.7430  147.3430 C   0  0  0  0  0  1  0  0  0  0  0  0
  187.5460  177.7490  142.9720 C   0  0  0  0  0  0  0  0  0  0  0  0
  185.8450  178.3750  145.0470 C   0  0  0  0  0  0  0  0  0  0  0  0
  192.3450  176.7530  136.8920 C   0  0  0  0  0  2  0  0  0  0  0  0
  193.4490  176.4560  137.8450 C   0  0  0  0  0  0  0  0  0  0  0  0
  193.5550  177.1750  139.0280 O   0  0  0  0  0  1  0  0  0  0  0  0
  194.3050  175.5780  137.5640 O   0  0  0  0  0  0  0  0  0  0  0  0
  1 16  1  1  0  0  0
  1 20  1  0  0  0  0
  1 10  1  0  0  0  0
  2 12  2  0  0  0  0
  2 27  1  0  0  0  0
  3  4  1  0  0  0  0
  5 27  2  0  0  0  0
  5  6  1  0  0  0  0
  6 18  1  0  0  0  0
  6 28  2  0  0  0  0
  7 19  1  6  0  0  0
  7 17  1  0  0  0  0
  7 24  1  0  0  0  0
  8 12  1  0  0  0  0
  9 26  1  0  0  0  0
 10 17  1  0  0  0  0
 11  3  2  0  0  0  0
 12 13  1  0  0  0  0
 13 11  1  0  0  0  0
 13 22  2  0  0  0  0
 14 22  1  0  0  0  0
 14 23  2  0  0  0  0
 15  9  1  0  0  0  0
 16 19  1  0  0  0  0
 17  8  1  0  0  0  0
 18 15  2  0  0  0  0
 20 10  1  0  0  0  0
 21  4  2  0  0  0  0
 22 21  1  0  0  0  0
 24  2  1  0  0  0  0
 25  5  1  0  0  0  0
 27 14  1  0  0  0  0
 28 23  1  0  0  0  0
 28  9  1  0  0  0  0
 29 20  1  0  0  0  0
 29 30  1  0  0  0  0
 30 31  1  0  0  0  0
 32 30  2  0  0  0  0
M  END
>  <MODEL>
5

>  <REMARK>
 VINA RESULT:      -9.3      4.445      8.265
  Name = 
  2 active torsions:
  status: ('A' for Active; 'I' for Inactive)
    1  A    between atoms: C_20  and  C_29
    2  A    between atoms: C_29  and  C_30
                            x       y       z     vdW  Elec       q    Type
                         _______ _______ _______ _____ _____    ______ ____

>  <TORSDO>
F 2

$$$$
=
 OpenBabel11122410433D

 32 38  0  0  1  0  0  0  0  0999 V2000
  189.6330  178.1380  147.9100 C   0  0  1  0  0  3  0  0  0  0  0  0
  186.0540  178.1450  144.2530 C   0  0  0  0  0  0  0  0  0  0  0  0
  188.3190  177.9940  139.9710 N   0  0  0  0  0  0  0  0  0  0  0  0
  187.1600  178.2660  139.3180 C   0  0  0  0  0  3  0  0  0  0  0  0
  183.6230  178.6280  144.3260 C   0  0  0  0  0  0  0  0  0  0  0  0
  182.4770  178.9090  143.5950 C   0  0  0  0  0  0  0  0  0  0  0  0
  187.2680  177.5540  146.3130 C   0  0  1  0  0  3  0  0  0  0  0  0
  188.5460  177.6550  144.2030 C   0  0  0  0  0  2  0  0  0  0  0  0
  181.2810  179.2760  141.7880 N   0  0  0  0  0  0  0  0  0  0  0  0
  189.8140  177.8570  146.4120 C   0  0  2  0  0  3  0  0  0  0  0  0
  188.3650  177.8940  141.3260 C   0  0  0  0  0  3  0  0  0  0  0  0
  187.2430  177.9770  143.4970 C   0  0  0  0  0  0  0  0  0  0  0  0
  187.2040  178.0740  142.0960 C   0  0  0  0  0  0  0  0  0  0  0  0
  184.8090  178.5440  142.1730 C   0  0  0  0  0  0  0  0  0  0  0  0
  180.4580  179.3670  142.8250 N   0  0  0  0  0  0  0  0  0  0  0  0
  188.3350  178.6720  148.2100 O   0  0  0  0  0  0  0  0  0  0  0  0
  188.5100  178.1340  145.6460 C   0  0  2  0  0  3  0  0  0  0  0  0
  181.1630  179.1460  143.9670 C   0  0  0  0  0  3  0  0  0  0  0  0
  187.2530  177.8450  147.8150 C   0  0  0  0  0  2  0  0  0  0  0  0
  189.7140  176.6960  147.3970 C   0  0  1  0  0  3  0  0  0  0  0  0
  185.9790  178.4540  140.0350 C   0  0  0  0  0  3  0  0  0  0  0  0
  185.9900  178.3590  141.4330 C   0  0  0  0  0  0  0  0  0  0  0  0
  183.6350  178.8240  141.5220 N   0  0  0  0  0  0  0  0  0  0  0  0
  186.1060  178.0440  145.6550 O   0  0  0  0  0  0  0  0  0  0  0  0
  183.5560  178.5430  145.7130 O   0  0  0  0  0  1  0  0  0  0  0  0
  180.8810  179.4530  140.4030 C   0  0  0  0  0  1  0  0  0  0  0  0
  184.8350  178.4370  143.6040 C   0  0  0  0  0  0  0  0  0  0  0  0
  182.5060  178.9990  142.2450 C   0  0  0  0  0  0  0  0  0  0  0  0
  191.1010  176.1480  147.6640 C   0  0  0  0  0  2  0  0  0  0  0  0
  191.8720  176.0820  146.3920 C   0  0  0  0  0  0  0  0  0  0  0  0
  192.4220  174.8780  145.9750 O   0  0  0  0  0  1  0  0  0  0  0  0
  192.0550  177.1250  145.7120 O   0  0  0  0  0  0  0  0  0  0  0  0
  1 16  1  6  0  0  0
  2 24  1  0  0  0  0
  3 11  1  0  0  0  0
  4  3  2  0  0  0  0
  4 21  1  0  0  0  0
  5 25  1  0  0  0  0
  6 18  1  0  0  0  0
  6  5  2  0  0  0  0
  7 19  1  1  0  0  0
  8 17  1  0  0  0  0
  9 28  1  0  0  0  0
  9 15  1  0  0  0  0
 10 20  1  0  0  0  0
 10  1  1  0  0  0  0
 11 13  2  0  0  0  0
 12  8  1  0  0  0  0
 12  2  2  0  0  0  0
 13 12  1  0  0  0  0
 14 27  2  0  0  0  0
 15 18  2  0  0  0  0
 17  7  1  0  0  0  0
 17 10  1  0  0  0  0
 19 16  1  0  0  0  0
 20 29  1  0  0  0  0
 20  1  1  0  0  0  0
 21 22  2  0  0  0  0
 22 13  1  0  0  0  0
 22 14  1  0  0  0  0
 23 14  1  0  0  0  0
 23 28  2  0  0  0  0
 24  7  1  0  0  0  0
 26  9  1  0  0  0  0
 27  2  1  0  0  0  0
 27  5  1  0  0  0  0
 28  6  1  0  0  0  0
 30 29  1  0  0  0  0
 31 30  1  0  0  0  0
 32 30  2  0  0  0  0
M  END
>  <MODEL>
6

>  <REMARK>
 VINA RESULT:      -9.3      3.085      8.062
  Name = 
  2 active torsions:
  status: ('A' for Active; 'I' for Inactive)
    1  A    between atoms: C_20  and  C_29
    2  A    between atoms: C_29  and  C_30
                            x       y       z     vdW  Elec       q    Type
                         _______ _______ _______ _____ _____    ______ ____

>  <TORSDO>
F 2

$$$$
=
 OpenBabel11122410433D

 32 38  0  0  1  0  0  0  0  0999 V2000
  189.1650  178.1300  147.6020 C   0  0  1  0  0  3  0  0  0  0  0  0
  186.4370  178.0580  143.2740 C   0  0  0  0  0  0  0  0  0  0  0  0
  189.5540  178.0500  139.5640 N   0  0  0  0  0  0  0  0  0  0  0  0
  188.5490  178.2900  138.6830 C   0  0  0  0  0  3  0  0  0  0  0  0
  184.0280  178.4510  142.8370 C   0  0  0  0  0  0  0  0  0  0  0  0
  183.0500  178.7010  141.8830 C   0  0  0  0  0  0  0  0  0  0  0  0
  187.2130  177.4830  145.5400 C   0  0  1  0  0  3  0  0  0  0  0  0
  188.9010  177.6600  143.7460 C   0  0  0  0  0  2  0  0  0  0  0  0
  182.2480  179.0490  139.8670 N   0  0  0  0  0  0  0  0  0  0  0  0
  189.6680  177.8770  146.1740 C   0  0  2  0  0  3  0  0  0  0  0  0
  189.3180  177.9340  140.8970 C   0  0  0  0  0  3  0  0  0  0  0  0
  187.7640  177.9440  142.7840 C   0  0  0  0  0  0  0  0  0  0  0  0
  188.0160  178.0600  141.4070 C   0  0  0  0  0  0  0  0  0  0  0  0
  185.6420  178.4410  140.9810 C   0  0  0  0  0  0  0  0  0  0  0  0
  181.2220  179.0950  140.7080 N   0  0  0  0  0  0  0  0  0  0  0  0
  187.8130  178.6130  147.6250 O   0  0  0  0  0  0  0  0  0  0  0  0
  188.5440  178.1170  145.1520 C   0  0  2  0  0  3  0  0  0  0  0  0
  181.6800  178.8840  141.9720 C   0  0  0  0  0  3  0  0  0  0  0  0
  186.8710  177.7520  147.0070 C   0  0  0  0  0  2  0  0  0  0  0  0
  189.4080  176.7000  147.1090 C   0  0  1  0  0  3  0  0  0  0  0  0
  187.2370  178.4240  139.1360 C   0  0  0  0  0  3  0  0  0  0  0  0
  186.9580  178.3090  140.5050 C   0  0  0  0  0  0  0  0  0  0  0  0
  184.6210  178.6870  140.0990 N   0  0  0  0  0  0  0  0  0  0  0  0
  186.1980  177.9390  144.6540 O   0  0  0  0  0  0  0  0  0  0  0  0
  183.6740  178.3440  144.1780 O   0  0  0  0  0  1  0  0  0  0  0  0
  182.1410  179.2310  138.4290 C   0  0  0  0  0  1  0  0  0  0  0  0
  185.3710  178.3150  142.3850 C   0  0  0  0  0  0  0  0  0  0  0  0
  183.3590  178.8100  140.5690 C   0  0  0  0  0  0  0  0  0  0  0  0
  190.7290  176.1990  147.6580 C   0  0  0  0  0  2  0  0  0  0  0  0
  191.7340  176.1190  146.5630 C   0  0  0  0  0  0  0  0  0  0  0  0
  192.3870  174.9210  146.3070 O   0  0  0  0  0  1  0  0  0  0  0  0
  192.0180  177.1450  145.8920 O   0  0  0  0  0  0  0  0  0  0  0  0
  1 16  1  6  0  0  0
  2 24  1  0  0  0  0
  3 11  2  0  0  0  0
  4 21  2  0  0  0  0
  4  3  1  0  0  0  0
  5 25  1  0  0  0  0
  6 18  1  0  0  0  0
  6  5  2  0  0  0  0
  7 19  1  1  0  0  0
  8 17  1  0  0  0  0
  9 28  1  0  0  0  0
  9 15  1  0  0  0  0
 10 20  1  0  0  0  0
 10  1  1  0  0  0  0
 11 13  1  0  0  0  0
 12  2  1  0  0  0  0
 12  8  1  0  0  0  0
 13 12  2  0  0  0  0
 14 27  1  0  0  0  0
 15 18  2  0  0  0  0
 17  7  1  0  0  0  0
 17 10  1  0  0  0  0
 19 16  1  0  0  0  0
 20  1  1  0  0  0  0
 20 29  1  0  0  0  0
 21 22  1  0  0  0  0
 22 14  2  0  0  0  0
 22 13  1  0  0  0  0
 23 28  2  0  0  0  0
 23 14  1  0  0  0  0
 24  7  1  0  0  0  0
 26  9  1  0  0  0  0
 27  5  1  0  0  0  0
 27  2  2  0  0  0  0
 28  6  1  0  0  0  0
 30 29  1  0  0  0  0
 31 30  1  0  0  0  0
 32 30  2  0  0  0  0
M  END
>  <MODEL>
7

>  <REMARK>
 VINA RESULT:      -9.0      3.129      8.057
  Name = 
  2 active torsions:
  status: ('A' for Active; 'I' for Inactive)
    1  A    between atoms: C_20  and  C_29
    2  A    between atoms: C_29  and  C_30
                            x       y       z     vdW  Elec       q    Type
                         _______ _______ _______ _____ _____    ______ ____

>  <TORSDO>
F 2

$$$$
=
 OpenBabel11122410433D

 32 38  0  0  1  0  0  0  0  0999 V2000
  190.0660  176.5460  146.7320 C   0  0  1  0  0  3  0  0  0  0  0  0
  188.3110  177.9300  142.1300 C   0  0  0  0  0  0  0  0  0  0  0  0
  183.5360  178.6560  142.5270 N   0  0  0  0  0  0  0  0  0  0  0  0
  183.4070  178.7270  141.1770 C   0  0  0  0  0  3  0  0  0  0  0  0
  189.3440  177.8440  139.8770 C   0  0  0  0  0  0  0  0  0  0  0  0
  189.1390  177.9210  138.5060 C   0  0  0  0  0  0  0  0  0  0  0  0
  189.7190  177.8450  144.1490 C   0  0  1  0  0  3  0  0  0  0  0  0
  187.2730  178.0080  144.4470 C   0  0  0  0  0  2  0  0  0  0  0  0
  187.9800  178.1630  136.6550 N   0  0  0  0  0  0  0  0  0  0  0  0
  188.6850  177.1190  146.3820 C   0  0  2  0  0  3  0  0  0  0  0  0
  184.7430  178.4440  143.1160 C   0  0  0  0  0  3  0  0  0  0  0  0
  187.1520  178.0660  142.9360 C   0  0  0  0  0  0  0  0  0  0  0  0
  185.9010  178.2890  142.3370 C   0  0  0  0  0  0  0  0  0  0  0  0
  186.9240  178.2090  140.1210 C   0  0  0  0  0  0  0  0  0  0  0  0
  189.2460  177.9800  136.3010 N   0  0  0  0  0  0  0  0  0  0  0  0
  190.8140  176.1770  145.5640 O   0  0  0  0  0  0  0  0  0  0  0  0
  188.5160  177.2340  144.8580 C   0  0  2  0  0  3  0  0  0  0  0  0
  189.9990  177.8250  137.4240 C   0  0  0  0  0  3  0  0  0  0  0  0
  191.0320  177.2350  144.6460 C   0  0  0  0  0  2  0  0  0  0  0  0
  189.7660  178.0330  146.9520 C   0  0  1  0  0  3  0  0  0  0  0  0
  184.5250  178.5790  140.3570 C   0  0  0  0  0  3  0  0  0  0  0  0
  185.7850  178.3590  140.9300 C   0  0  0  0  0  0  0  0  0  0  0  0
  186.8030  178.2740  138.7570 N   0  0  0  0  0  0  0  0  0  0  0  0
  189.5570  177.7090  142.7420 O   0  0  0  0  0  0  0  0  0  0  0  0
  190.6260  177.6300  140.3740 O   0  0  0  0  0  1  0  0  0  0  0  0
  186.8860  178.3640  135.7210 C   0  0  0  0  0  1  0  0  0  0  0  0
  188.2090  177.9900  140.7230 C   0  0  0  0  0  0  0  0  0  0  0  0
  187.9060  178.1290  137.9890 C   0  0  0  0  0  0  0  0  0  0  0  0
  189.4890  178.2760  148.4220 C   0  0  0  0  0  2  0  0  0  0  0  0
  188.0230  178.2200  148.6760 C   0  0  0  0  0  0  0  0  0  0  0  0
  187.1730  179.1130  148.0390 O   0  0  0  0  0  0  0  0  0  0  0  0
  187.5580  177.3850  149.4950 O   0  0  0  0  0  1  0  0  0  0  0  0
  1 16  1  6  0  0  0
  1 20  1  0  0  0  0
  2 24  1  0  0  0  0
  2 12  1  0  0  0  0
  3 11  2  0  0  0  0
  4  3  1  0  0  0  0
  5 25  1  0  0  0  0
  5 27  1  0  0  0  0
  6  5  2  0  0  0  0
  7 19  1  1  0  0  0
  7 17  1  0  0  0  0
  8 17  1  0  0  0  0
  9 28  1  0  0  0  0
 10  1  1  0  0  0  0
 10 20  1  0  0  0  0
 12  8  1  0  0  0  0
 13 12  2  0  0  0  0
 13 11  1  0  0  0  0
 14 27  1  0  0  0  0
 14 22  2  0  0  0  0
 15  9  1  0  0  0  0
 15 18  2  0  0  0  0
 17 10  1  0  0  0  0
 18  6  1  0  0  0  0
 19 16  1  0  0  0  0
 20 29  1  0  0  0  0
 21 22  1  0  0  0  0
 21  4  2  0  0  0  0
 22 13  1  0  0  0  0
 23 14  1  0  0  0  0
 24  7  1  0  0  0  0
 26  9  1  0  0  0  0
 27  2  2  0  0  0  0
 28  6  1  0  0  0  0
 28 23  2  0  0  0  0
 29 30  1  0  0  0  0
 30 32  1  0  0  0  0
 31 30  2  0  0  0  0
M  END
>  <MODEL>
8

>  <REMARK>
 VINA RESULT:      -9.0      4.376      8.413
  Name = 
  2 active torsions:
  status: ('A' for Active; 'I' for Inactive)
    1  A    between atoms: C_20  and  C_29
    2  A    between atoms: C_29  and  C_30
                            x       y       z     vdW  Elec       q    Type
                         _______ _______ _______ _____ _____    ______ ____

>  <TORSDO>
F 2

$$$$
=
 OpenBabel11122410433D

 32 38  0  0  1  0  0  0  0  0999 V2000
  191.6180  175.7980  147.0000 C   0  0  1  0  0  3  0  0  0  0  0  0
  188.2120  177.8010  143.7490 C   0  0  0  0  0  0  0  0  0  0  0  0
  184.1460  178.6900  146.2320 N   0  0  0  0  0  0  0  0  0  0  0  0
  183.4640  178.9270  145.0820 C   0  0  0  0  0  3  0  0  0  0  0  0
  188.1790  177.9390  141.2730 C   0  0  0  0  0  0  0  0  0  0  0  0
  187.4200  178.1890  140.1380 C   0  0  0  0  0  0  0  0  0  0  0  0
  190.3290  177.4110  144.9460 C   0  0  1  0  0  3  0  0  0  0  0  0
  188.2670  177.6480  146.2840 C   0  0  0  0  0  2  0  0  0  0  0  0
  185.6120  178.7020  138.9980 N   0  0  0  0  0  0  0  0  0  0  0  0
  190.2780  176.4700  147.3320 C   0  0  2  0  0  3  0  0  0  0  0  0
  185.4630  178.3540  146.2200 C   0  0  0  0  0  3  0  0  0  0  0  0
  187.5220  177.8920  144.9860 C   0  0  0  0  0  0  0  0  0  0  0  0
  186.1620  178.2420  145.0080 C   0  0  0  0  0  0  0  0  0  0  0  0
  186.1360  178.3810  142.5700 C   0  0  0  0  0  0  0  0  0  0  0  0
  186.5860  178.5060  138.1180 N   0  0  0  0  0  0  0  0  0  0  0  0
  191.7620  175.5380  145.5960 O   0  0  0  0  0  0  0  0  0  0  0  0
  189.4900  176.7750  146.0470 C   0  0  2  0  0  3  0  0  0  0  0  0
  187.7260  178.1840  138.7870 C   0  0  0  0  0  3  0  0  0  0  0  0
  191.6660  176.6880  144.7720 C   0  0  0  0  0  2  0  0  0  0  0  0
  191.5780  177.2600  147.4580 C   0  0  1  0  0  3  0  0  0  0  0  0
  184.1090  178.8290  143.8500 C   0  0  0  0  0  3  0  0  0  0  0  0
  185.4680  178.4850  143.8010 C   0  0  0  0  0  0  0  0  0  0  0  0
  185.4540  178.6150  141.4030 N   0  0  0  0  0  0  0  0  0  0  0  0
  189.5740  177.4520  143.7410 O   0  0  0  0  0  0  0  0  0  0  0  0
  189.5250  177.6090  141.1470 O   0  0  0  0  0  1  0  0  0  0  0  0
  184.2490  179.0630  138.6500 C   0  0  0  0  0  1  0  0  0  0  0  0
  187.5290  178.0340  142.5360 C   0  0  0  0  0  0  0  0  0  0  0  0
  186.1080  178.5130  140.2250 C   0  0  0  0  0  0  0  0  0  0  0  0
  191.9740  177.3380  148.9190 C   0  0  0  0  0  2  0  0  0  0  0  0
  193.2910  176.6750  149.1210 C   0  0  0  0  0  0  0  0  0  0  0  0
  194.2480  177.2660  149.9350 O   0  0  0  0  0  1  0  0  0  0  0  0
  193.5520  175.5960  148.5280 O   0  0  0  0  0  0  0  0  0  0  0  0
  1 16  1  6  0  0  0
  1 10  1  0  0  0  0
  1 20  1  0  0  0  0
  2 12  1  0  0  0  0
  4  3  1  0  0  0  0
  5 27  1  0  0  0  0
  6 28  1  0  0  0  0
  6  5  2  0  0  0  0
  7 19  1  6  0  0  0
  7 17  1  0  0  0  0
  9 28  1  0  0  0  0
 10 20  1  0  0  0  0
 11  3  2  0  0  0  0
 12 13  2  0  0  0  0
 12  8  1  0  0  0  0
 13 11  1  0  0  0  0
 14 22  2  0  0  0  0
 15 18  2  0  0  0  0
 15  9  1  0  0  0  0
 17  8  1  0  0  0  0
 17 10  1  0  0  0  0
 18  6  1  0  0  0  0
 19 16  1  0  0  0  0
 20 29  1  0  0  0  0
 21  4  2  0  0  0  0
 22 21  1  0  0  0  0
 22 13  1  0  0  0  0
 23 14  1  0  0  0  0
 24  2  1  0  0  0  0
 24  7  1  0  0  0  0
 25  5  1  0  0  0  0
 26  9  1  0  0  0  0
 27 14  1  0  0  0  0
 27  2  2  0  0  0  0
 28 23  2  0  0  0  0
 29 30  1  0  0  0  0
 30 31  1  0  0  0  0
 32 30  2  0  0  0  0
M  END
>  <MODEL>
9

>  <REMARK>
 VINA RESULT:      -8.9      4.448      9.554
  Name = 
  2 active torsions:
  status: ('A' for Active; 'I' for Inactive)
    1  A    between atoms: C_20  and  C_29
    2  A    between atoms: C_29  and  C_30
                            x       y       z     vdW  Elec       q    Type
                         _______ _______ _______ _____ _____    ______ ____

>  <TORSDO>
F 2

$$$$
