=
 OpenBabel11122412013D

 28 32  0  0  1  0  0  0  0  0999 V2000
  182.4580  177.2120  137.3870 C   0  0  2  0  0  3  0  0  0  0  0  0
  184.9770  173.2950  137.9570 O   0  0  0  0  0  1  0  0  0  0  0  0
  187.6090  179.5430  136.6450 O   0  0  0  0  0  0  0  0  0  0  0  0
  182.5460  177.9700  134.5940 C   0  0  0  0  0  2  0  0  0  0  0  0
  187.7870  177.1990  136.5950 N   0  0  0  0  0  0  0  0  0  0  0  0
  182.7040  177.5480  138.8660 C   0  0  0  0  0  2  0  0  0  0  0  0
  183.0710  173.5110  136.5590 C   0  0  0  0  0  1  0  0  0  0  0  0
  184.5850  173.5830  136.6460 C   0  0  1  0  0  0  0  0  0  0  0  0
  186.6390  172.7060  135.4820 C   0  0  0  0  0  0  0  0  0  0  0  0
  185.0680  174.9900  136.2330 C   0  0  2  0  0  3  0  0  0  0  0  0
  185.1440  179.0370  141.2210 C   0  0  0  0  0  1  0  0  0  0  0  0
  185.8460  176.6630  137.8690 C   0  0  1  0  0  3  0  0  0  0  0  0
  187.3750  173.8170  136.1660 C   0  0  0  0  0  2  0  0  0  0  0  0
  185.1620  172.5280  135.6970 C   0  0  0  0  0  2  0  0  0  0  0  0
  184.9470  178.5120  139.8140 C   0  0  2  0  0  3  0  0  0  0  0  0
  183.7160  177.1400  136.6080 N   0  0  2  0  0  0  0  0  0  0  0  0
  187.1660  178.4100  136.9730 C   0  0  0  0  0  0  0  0  0  0  0  0
  187.2460  171.9250  134.7690 O   0  0  0  0  0  0  0  0  0  0  0  0
  186.0840  178.8120  139.0370 O   0  0  0  0  0  0  0  0  0  0  0  0
  183.4080  176.8690  135.1910 C   0  0  0  0  0  2  0  0  0  0  0  0
  181.4820  178.2470  136.8100 C   0  0  0  0  0  2  0  0  0  0  0  0
  181.2230  177.9930  135.3340 C   0  0  0  0  0  2  0  0  0  0  0  0
  183.4180  179.2140  139.1110 S   0  0  0  0  0  0  0  0  0  0  0  0
  187.0790  176.0730  137.1720 C   0  0  1  0  0  3  0  0  0  0  0  0
  185.9430  178.2050  137.7740 C   0  0  2  0  0  3  0  0  0  0  0  0
  186.5930  175.1320  136.0840 C   0  0  2  0  0  3  0  0  0  0  0  0
  189.0940  177.1060  135.9650 C   0  0  0  0  0  1  0  0  0  0  0  0
  184.5900  176.0880  137.1960 C   0  0  1  0  0  3  0  0  0  0  0  0
  1 21  1  6  0  0  0
  1  6  1  0  0  0  0
  3 17  2  0  0  0  0
  4 20  1  0  0  0  0
  4 22  1  0  0  0  0
  5 17  1  0  0  0  0
  5 24  1  0  0  0  0
  6 23  1  0  0  0  0
  8  7  1  6  0  0  0
  8  2  1  0  0  0  0
  9 14  1  0  0  0  0
  9 13  1  0  0  0  0
 10  8  1  0  0  0  0
 10 28  1  0  0  0  0
 14  8  1  0  0  0  0
 15 11  1  0  0  0  0
 16 28  1  0  0  0  0
 16  1  1  0  0  0  0
 17 25  1  0  0  0  0
 18  9  2  0  0  0  0
 19 15  1  0  0  0  0
 20 16  1  0  0  0  0
 22 21  1  0  0  0  0
 23 15  1  0  0  0  0
 24 12  1  0  0  0  0
 25 12  1  0  0  0  0
 25 19  1  0  0  0  0
 26 13  1  0  0  0  0
 26 10  1  0  0  0  0
 26 24  1  0  0  0  0
 27  5  1  0  0  0  0
 28 12  1  0  0  0  0
M  END
>  <MODEL>
1

>  <REMARK>
 VINA RESULT:      -5.4      0.000      0.000
  Name = 
  0 active torsions:
  status: ('A' for Active; 'I' for Inactive)
                            x       y       z     vdW  Elec       q    Type
                         _______ _______ _______ _____ _____    ______ ____

>  <TORSDO>
F 0

$$$$
=
 OpenBabel11122412013D

 28 32  0  0  1  0  0  0  0  0999 V2000
  180.5420  178.9070  142.4530 C   0  0  2  0  0  3  0  0  0  0  0  0
  180.9470  174.6480  140.5290 O   0  0  0  0  0  1  0  0  0  0  0  0
  185.0340  180.0340  139.1260 O   0  0  0  0  0  0  0  0  0  0  0  0
  179.5490  180.7400  140.4430 C   0  0  0  0  0  2  0  0  0  0  0  0
  184.0950  177.9680  138.5130 N   0  0  0  0  0  0  0  0  0  0  0  0
  181.6140  178.5120  143.4800 C   0  0  0  0  0  2  0  0  0  0  0  0
  178.9310  175.8870  140.7130 C   0  0  0  0  0  1  0  0  0  0  0  0
  180.1290  175.5520  139.8430 C   0  0  1  0  0  0  0  0  0  0  0  0
  180.6790  174.7960  137.5060 C   0  0  0  0  0  0  0  0  0  0  0  0
  180.9090  176.8410  139.5080 C   0  0  2  0  0  3  0  0  0  0  0  0
  185.2670  178.2260  144.0200 C   0  0  0  0  0  1  0  0  0  0  0  0
  183.0520  177.4180  140.5840 C   0  0  1  0  0  3  0  0  0  0  0  0
  182.0630  175.2980  137.7790 C   0  0  0  0  0  2  0  0  0  0  0  0
  179.6120  174.8990  138.5590 C   0  0  0  0  0  2  0  0  0  0  0  0
  184.1830  178.4150  142.9800 C   0  0  2  0  0  3  0  0  0  0  0  0
  181.0540  178.8790  141.0630 N   0  0  2  0  0  0  0  0  0  0  0  0
  184.3630  179.0110  139.4270 C   0  0  0  0  0  0  0  0  0  0  0  0
  180.4250  174.2740  136.4340 O   0  0  0  0  0  0  0  0  0  0  0  0
  184.7730  178.7380  141.7410 O   0  0  0  0  0  0  0  0  0  0  0  0
  179.9960  179.3200  140.1360 C   0  0  0  0  0  2  0  0  0  0  0  0
  179.9910  180.2890  142.8350 C   0  0  0  0  0  2  0  0  0  0  0  0
  178.9490  180.7590  141.8350 C   0  0  0  0  0  2  0  0  0  0  0  0
  183.0110  179.6910  143.5470 S   0  0  0  0  0  0  0  0  0  0  0  0
  183.3550  176.9070  139.1690 C   0  0  1  0  0  3  0  0  0  0  0  0
  183.7650  178.7810  140.7570 C   0  0  2  0  0  3  0  0  0  0  0  0
  182.0300  176.6660  138.4670 C   0  0  2  0  0  3  0  0  0  0  0  0
  184.7070  177.8450  137.2010 C   0  0  0  0  0  1  0  0  0  0  0  0
  181.5270  177.5010  140.7510 C   0  0  1  0  0  3  0  0  0  0  0  0
  1 21  1  1  0  0  0
  1  6  1  0  0  0  0
  3 17  2  0  0  0  0
  4 22  1  0  0  0  0
  5 24  1  0  0  0  0
  5 17  1  0  0  0  0
  6 23  1  0  0  0  0
  8  2  1  0  0  0  0
  8  7  1  1  0  0  0
  9 13  1  0  0  0  0
  9 14  1  0  0  0  0
 10  8  1  0  0  0  0
 10 28  1  0  0  0  0
 12 28  1  0  0  0  0
 12 25  1  0  0  0  0
 13 26  1  0  0  0  0
 14  8  1  0  0  0  0
 15 23  1  0  0  0  0
 15 11  1  0  0  0  0
 16  1  1  0  0  0  0
 17 25  1  0  0  0  0
 18  9  2  0  0  0  0
 19 15  1  0  0  0  0
 20  4  1  0  0  0  0
 20 16  1  0  0  0  0
 22 21  1  0  0  0  0
 24 12  1  0  0  0  0
 25 19  1  0  0  0  0
 26 24  1  0  0  0  0
 26 10  1  0  0  0  0
 27  5  1  0  0  0  0
 28 16  1  0  0  0  0
M  END
>  <MODEL>
2

>  <REMARK>
 VINA RESULT:      -5.4      3.495      5.341
  Name = 
  0 active torsions:
  status: ('A' for Active; 'I' for Inactive)
                            x       y       z     vdW  Elec       q    Type
                         _______ _______ _______ _____ _____    ______ ____

>  <TORSDO>
F 0

$$$$
=
 OpenBabel11122412013D

 28 32  0  0  1  0  0  0  0  0999 V2000
  189.6590  178.1250  138.4640 C   0  0  2  0  0  3  0  0  0  0  0  0
  192.5720  175.8890  135.5460 O   0  0  0  0  0  1  0  0  0  0  0  0
  186.2480  173.7160  137.2660 O   0  0  0  0  0  0  0  0  0  0  0  0
  189.4830  176.6190  140.9300 C   0  0  0  0  0  2  0  0  0  0  0  0
  188.4210  173.2680  136.4900 N   0  0  0  0  0  0  0  0  0  0  0  0
  188.9790  178.7660  137.2440 C   0  0  0  0  0  2  0  0  0  0  0  0
  193.1530  176.7340  137.6860 C   0  0  0  0  0  1  0  0  0  0  0  0
  192.6680  175.5330  136.8940 C   0  0  1  0  0  0  0  0  0  0  0  0
  193.1860  173.0910  136.5620 C   0  0  0  0  0  0  0  0  0  0  0  0
  191.2970  175.0710  137.4310 C   0  0  2  0  0  3  0  0  0  0  0  0
  186.4560  178.1970  134.5940 C   0  0  0  0  0  1  0  0  0  0  0  0
  189.1840  175.5110  136.2390 C   0  0  1  0  0  3  0  0  0  0  0  0
  191.8070  172.9820  135.9900 C   0  0  0  0  0  2  0  0  0  0  0  0
  193.7010  174.4140  137.0560 C   0  0  0  0  0  2  0  0  0  0  0  0
  187.2870  177.5340  135.6720 C   0  0  2  0  0  3  0  0  0  0  0  0
  189.5500  176.6480  138.4590 N   0  0  2  0  0  0  0  0  0  0  0  0
  187.3680  174.1310  136.8640 C   0  0  0  0  0  0  0  0  0  0  0  0
  193.9060  172.1080  136.6010 O   0  0  0  0  0  0  0  0  0  0  0  0
  186.8580  176.2010  135.8400 O   0  0  0  0  0  0  0  0  0  0  0  0
  190.1730  176.1010  139.6780 C   0  0  0  0  0  2  0  0  0  0  0  0
  189.0570  178.7420  139.7350 C   0  0  0  0  0  2  0  0  0  0  0  0
  189.6610  178.1230  140.9840 C   0  0  0  0  0  2  0  0  0  0  0  0
  187.1690  178.5020  137.2130 S   0  0  0  0  0  0  0  0  0  0  0  0
  189.5550  174.0380  136.0170 C   0  0  1  0  0  3  0  0  0  0  0  0
  187.7230  175.5590  136.7480 C   0  0  2  0  0  3  0  0  0  0  0  0
  190.7890  173.7390  136.8490 C   0  0  2  0  0  3  0  0  0  0  0  0
  188.2900  171.8290  136.3330 C   0  0  0  0  0  1  0  0  0  0  0  0
  190.1940  176.1200  137.2230 C   0  0  1  0  0  3  0  0  0  0  0  0
  1  6  1  6  0  0  0
  1 21  1  0  0  0  0
  2  8  1  0  0  0  0
  4 22  1  0  0  0  0
  5 17  1  0  0  0  0
  8 14  1  0  0  0  0
  8 10  1  0  0  0  0
  8  7  1  1  0  0  0
  9 18  2  0  0  0  0
  9 14  1  0  0  0  0
 11 15  1  0  0  0  0
 12 25  1  0  0  0  0
 12 28  1  0  0  0  0
 13  9  1  0  0  0  0
 13 26  1  0  0  0  0
 15 19  1  0  0  0  0
 15 23  1  0  0  0  0
 16  1  1  0  0  0  0
 16 20  1  0  0  0  0
 17  3  2  0  0  0  0
 19 25  1  0  0  0  0
 20  4  1  0  0  0  0
 21 22  1  0  0  0  0
 23  6  1  0  0  0  0
 24 12  1  0  0  0  0
 24  5  1  0  0  0  0
 24 26  1  0  0  0  0
 25 17  1  0  0  0  0
 26 10  1  0  0  0  0
 27  5  1  0  0  0  0
 28 10  1  0  0  0  0
 28 16  1  0  0  0  0
M  END
>  <MODEL>
3

>  <REMARK>
 VINA RESULT:      -5.0      3.732      6.651
  Name = 
  0 active torsions:
  status: ('A' for Active; 'I' for Inactive)
                            x       y       z     vdW  Elec       q    Type
                         _______ _______ _______ _____ _____    ______ ____

>  <TORSDO>
F 0

$$$$
=
 OpenBabel11122412013D

 28 32  0  0  1  0  0  0  0  0999 V2000
  188.7360  173.6340  135.2610 C   0  0  2  0  0  3  0  0  0  0  0  0
  186.3620  177.6710  135.0020 O   0  0  0  0  0  1  0  0  0  0  0  0
  190.8050  176.0030  140.0180 O   0  0  0  0  0  0  0  0  0  0  0  0
  187.6410  172.0540  137.4270 C   0  0  0  0  0  2  0  0  0  0  0  0
  188.9670  177.2500  139.2480 N   0  0  0  0  0  0  0  0  0  0  0  0
  189.9320  174.3300  134.5950 C   0  0  0  0  0  2  0  0  0  0  0  0
  185.4220  175.5070  134.7500 C   0  0  0  0  0  1  0  0  0  0  0  0
  185.7360  176.6410  135.7090 C   0  0  1  0  0  0  0  0  0  0  0  0
  184.6210  178.0640  137.4610 C   0  0  0  0  0  0  0  0  0  0  0  0
  186.6500  176.1290  136.8430 C   0  0  2  0  0  3  0  0  0  0  0  0
  192.8600  176.5030  135.2430 C   0  0  0  0  0  1  0  0  0  0  0  0
  189.0590  176.6450  136.9450 C   0  0  1  0  0  3  0  0  0  0  0  0
  186.0050  178.3870  137.9330 C   0  0  0  0  0  2  0  0  0  0  0  0
  184.4120  177.1480  136.2880 C   0  0  0  0  0  2  0  0  0  0  0  0
  191.5670  175.9680  135.8200 C   0  0  2  0  0  3  0  0  0  0  0  0
  188.3770  174.2490  136.5600 N   0  0  2  0  0  0  0  0  0  0  0  0
  190.0590  176.3720  139.0720 C   0  0  0  0  0  0  0  0  0  0  0  0
  183.6580  178.5700  138.0130 O   0  0  0  0  0  0  0  0  0  0  0  0
  191.4830  176.3150  137.1840 O   0  0  0  0  0  0  0  0  0  0  0  0
  187.2610  173.5040  137.1710 C   0  0  0  0  0  2  0  0  0  0  0  0
  189.0620  172.1400  135.4040 C   0  0  0  0  0  2  0  0  0  0  0  0
  187.9310  171.3950  136.0930 C   0  0  0  0  0  2  0  0  0  0  0  0
  191.4810  174.1660  135.5540 S   0  0  0  0  0  0  0  0  0  0  0  0
  188.3410  177.5320  137.9710 C   0  0  1  0  0  3  0  0  0  0  0  0
  190.2200  175.9270  137.6740 C   0  0  2  0  0  3  0  0  0  0  0  0
  186.8770  177.1290  137.9910 C   0  0  2  0  0  3  0  0  0  0  0  0
  188.6870  177.9810  140.4730 C   0  0  0  0  0  1  0  0  0  0  0  0
  188.0300  175.6810  136.3360 C   0  0  1  0  0  3  0  0  0  0  0  0
  1  6  1  1  0  0  0
  1 21  1  0  0  0  0
  1 16  1  0  0  0  0
  2  8  1  0  0  0  0
  5 27  1  0  0  0  0
  6 23  1  0  0  0  0
  8  7  1  6  0  0  0
  8 14  1  0  0  0  0
  8 10  1  0  0  0  0
  9 13  1  0  0  0  0
  9 18  2  0  0  0  0
 10 26  1  0  0  0  0
 11 15  1  0  0  0  0
 12 25  1  0  0  0  0
 12 24  1  0  0  0  0
 13 26  1  0  0  0  0
 14  9  1  0  0  0  0
 15 19  1  0  0  0  0
 16 20  1  0  0  0  0
 17  5  1  0  0  0  0
 17  3  2  0  0  0  0
 19 25  1  0  0  0  0
 20  4  1  0  0  0  0
 21 22  1  0  0  0  0
 22  4  1  0  0  0  0
 23 15  1  0  0  0  0
 24 26  1  0  0  0  0
 24  5  1  0  0  0  0
 25 17  1  0  0  0  0
 28 16  1  0  0  0  0
 28 10  1  0  0  0  0
 28 12  1  0  0  0  0
M  END
>  <MODEL>
4

>  <REMARK>
 VINA RESULT:      -4.8      3.394      6.306
  Name = 
  0 active torsions:
  status: ('A' for Active; 'I' for Inactive)
                            x       y       z     vdW  Elec       q    Type
                         _______ _______ _______ _____ _____    ______ ____

>  <TORSDO>
F 0

$$$$
=
 OpenBabel11122412013D

 28 32  0  0  1  0  0  0  0  0999 V2000
  179.4060  177.0240  139.1420 C   0  0  2  0  0  3  0  0  0  0  0  0
  180.7190  180.0910  142.4400 O   0  0  0  0  0  1  0  0  0  0  0  0
  184.8210  177.6310  137.4600 O   0  0  0  0  0  0  0  0  0  0  0  0
  180.6580  174.4740  139.7000 C   0  0  0  0  0  2  0  0  0  0  0  0
  184.5410  178.5940  139.5860 N   0  0  0  0  0  0  0  0  0  0  0  0
  179.1540  178.2030  138.1900 C   0  0  0  0  0  2  0  0  0  0  0  0
  179.5410  178.0690  142.8360 C   0  0  0  0  0  1  0  0  0  0  0  0
  180.9000  178.7410  142.7570 C   0  0  1  0  0  0  0  0  0  0  0  0
  183.0210  178.9890  144.0890 C   0  0  0  0  0  0  0  0  0  0  0  0
  181.7660  178.0450  141.6850 C   0  0  2  0  0  3  0  0  0  0  0  0
  180.8030  180.5530  135.8500 C   0  0  0  0  0  1  0  0  0  0  0  0
  182.2030  179.0430  139.4730 C   0  0  1  0  0  3  0  0  0  0  0  0
  183.6590  179.4130  142.8020 C   0  0  0  0  0  2  0  0  0  0  0  0
  181.5650  178.6220  144.1310 C   0  0  0  0  0  2  0  0  0  0  0  0
  181.0360  179.5290  136.9410 C   0  0  2  0  0  3  0  0  0  0  0  0
  180.8220  176.9370  139.5700 N   0  0  2  0  0  0  0  0  0  0  0  0
  184.0750  178.1650  138.3240 C   0  0  0  0  0  0  0  0  0  0  0  0
  183.6810  178.9680  145.1140 O   0  0  0  0  0  0  0  0  0  0  0  0
  182.4140  179.2460  137.0320 O   0  0  0  0  0  0  0  0  0  0  0  0
  181.0070  175.7570  140.4350 C   0  0  0  0  0  2  0  0  0  0  0  0
  178.9330  175.7350  138.4540 C   0  0  0  0  0  2  0  0  0  0  0  0
  179.1880  174.5210  139.3300 C   0  0  0  0  0  2  0  0  0  0  0  0
  180.0400  178.0390  136.5980 S   0  0  0  0  0  0  0  0  0  0  0  0
  183.4650  179.2190  140.3300 C   0  0  1  0  0  3  0  0  0  0  0  0
  182.6290  178.3940  138.1340 C   0  0  2  0  0  3  0  0  0  0  0  0
  183.2360  178.5000  141.6470 C   0  0  2  0  0  3  0  0  0  0  0  0
  185.9420  178.6580  139.9680 C   0  0  0  0  0  1  0  0  0  0  0  0
  181.1940  178.2000  140.2670 C   0  0  1  0  0  3  0  0  0  0  0  0
  1  6  1  6  0  0  0
  1 16  1  0  0  0  0
  2  8  1  0  0  0  0
  3 17  2  0  0  0  0
  4 20  1  0  0  0  0
  5 27  1  0  0  0  0
  5 24  1  0  0  0  0
  8  7  1  1  0  0  0
  8 14  1  0  0  0  0
  9 14  1  0  0  0  0
  9 18  2  0  0  0  0
 10  8  1  0  0  0  0
 11 15  1  0  0  0  0
 12 28  1  0  0  0  0
 12 24  1  0  0  0  0
 13  9  1  0  0  0  0
 15 19  1  0  0  0  0
 16 28  1  0  0  0  0
 16 20  1  0  0  0  0
 17  5  1  0  0  0  0
 19 25  1  0  0  0  0
 21  1  1  0  0  0  0
 21 22  1  0  0  0  0
 22  4  1  0  0  0  0
 23 15  1  0  0  0  0
 23  6  1  0  0  0  0
 24 26  1  0  0  0  0
 25 17  1  0  0  0  0
 25 12  1  0  0  0  0
 26 10  1  0  0  0  0
 26 13  1  0  0  0  0
 28 10  1  0  0  0  0
M  END
>  <MODEL>
5

>  <REMARK>
 VINA RESULT:      -4.7      3.937      6.780
  Name = 
  0 active torsions:
  status: ('A' for Active; 'I' for Inactive)
                            x       y       z     vdW  Elec       q    Type
                         _______ _______ _______ _____ _____    ______ ____

>  <TORSDO>
F 0

$$$$
=
 OpenBabel11122412013D

 28 32  0  0  1  0  0  0  0  0999 V2000
  181.1330  179.0510  137.8410 C   0  0  2  0  0  3  0  0  0  0  0  0
  180.6670  174.5030  138.8930 O   0  0  0  0  0  1  0  0  0  0  0  0
  186.3600  177.4000  136.2700 O   0  0  0  0  0  0  0  0  0  0  0  0
  181.1780  179.3340  134.9590 C   0  0  0  0  0  2  0  0  0  0  0  0
  185.0080  175.5110  136.6270 N   0  0  0  0  0  0  0  0  0  0  0  0
  181.7950  179.2680  139.2100 C   0  0  0  0  0  2  0  0  0  0  0  0
  179.1150  175.7890  137.6410 C   0  0  0  0  0  1  0  0  0  0  0  0
  180.3190  174.8660  137.5890 C   0  0  1  0  0  0  0  0  0  0  0  0
  181.1090  172.7720  136.4350 C   0  0  0  0  0  0  0  0  0  0  0  0
  181.4970  175.5800  136.8920 C   0  0  2  0  0  3  0  0  0  0  0  0
  184.9980  179.0020  141.0500 C   0  0  0  0  0  1  0  0  0  0  0  0
  183.4320  176.4740  138.1310 C   0  0  1  0  0  3  0  0  0  0  0  0
  182.4870  173.1890  136.8460 C   0  0  0  0  0  2  0  0  0  0  0  0
  179.9200  173.6160  136.8000 C   0  0  0  0  0  2  0  0  0  0  0  0
  184.2660  178.6170  139.7820 C   0  0  2  0  0  3  0  0  0  0  0  0
  181.8990  178.1150  136.9850 N   0  0  2  0  0  0  0  0  0  0  0  0
  185.3700  176.8600  136.8310 C   0  0  0  0  0  0  0  0  0  0  0  0
  180.9470  171.7280  135.8270 O   0  0  0  0  0  0  0  0  0  0  0  0
  185.1760  178.0400  138.8730 O   0  0  0  0  0  0  0  0  0  0  0  0
  181.2420  177.9920  135.6710 C   0  0  0  0  0  2  0  0  0  0  0  0
  180.9450  180.4200  137.1690 C   0  0  0  0  0  2  0  0  0  0  0  0
  180.3260  180.2730  135.7900 C   0  0  0  0  0  2  0  0  0  0  0  0
  183.4290  180.0830  139.0930 S   0  0  0  0  0  0  0  0  0  0  0  0
  183.8660  175.1680  137.4520 C   0  0  1  0  0  3  0  0  0  0  0  0
  184.4600  177.5670  137.7550 C   0  0  2  0  0  3  0  0  0  0  0  0
  182.7120  174.6830  136.5940 C   0  0  2  0  0  3  0  0  0  0  0  0
  185.8240  174.5380  135.9180 C   0  0  0  0  0  1  0  0  0  0  0  0
  182.0000  176.8000  137.6790 C   0  0  1  0  0  3  0  0  0  0  0  0
  1 21  1  6  0  0  0
  1  6  1  0  0  0  0
  3 17  2  0  0  0  0
  4 20  1  0  0  0  0
  4 22  1  0  0  0  0
  5 17  1  0  0  0  0
  5 24  1  0  0  0  0
  8  7  1  1  0  0  0
  8  2  1  0  0  0  0
  9 14  1  0  0  0  0
  9 13  1  0  0  0  0
 10  8  1  0  0  0  0
 10 28  1  0  0  0  0
 14  8  1  0  0  0  0
 15 11  1  0  0  0  0
 16 28  1  0  0  0  0
 16  1  1  0  0  0  0
 17 25  1  0  0  0  0
 18  9  2  0  0  0  0
 19 15  1  0  0  0  0
 20 16  1  0  0  0  0
 22 21  1  0  0  0  0
 23  6  1  0  0  0  0
 23 15  1  0  0  0  0
 24 12  1  0  0  0  0
 25 12  1  0  0  0  0
 25 19  1  0  0  0  0
 26 13  1  0  0  0  0
 26 10  1  0  0  0  0
 26 24  1  0  0  0  0
 27  5  1  0  0  0  0
 28 12  1  0  0  0  0
M  END
>  <MODEL>
6

>  <REMARK>
 VINA RESULT:      -4.7      2.216      3.404
  Name = 
  0 active torsions:
  status: ('A' for Active; 'I' for Inactive)
                            x       y       z     vdW  Elec       q    Type
                         _______ _______ _______ _____ _____    ______ ____

>  <TORSDO>
F 0

$$$$
=
 OpenBabel11122412013D

 28 32  0  0  1  0  0  0  0  0999 V2000
  179.4690  179.1500  137.9270 C   0  0  2  0  0  3  0  0  0  0  0  0
  180.9270  174.7170  137.4510 O   0  0  0  0  0  1  0  0  0  0  0  0
  184.9150  180.0140  139.3790 O   0  0  0  0  0  0  0  0  0  0  0  0
  180.5820  180.7270  135.7690 C   0  0  0  0  0  2  0  0  0  0  0  0
  184.6770  177.8710  138.4430 N   0  0  0  0  0  0  0  0  0  0  0  0
  179.2830  178.8950  139.4310 C   0  0  0  0  0  2  0  0  0  0  0  0
  179.6420  175.9190  135.8580 C   0  0  0  0  0  1  0  0  0  0  0  0
  181.0350  175.5200  136.3110 C   0  0  1  0  0  0  0  0  0  0  0  0
  183.1610  174.5260  135.4000 C   0  0  0  0  0  0  0  0  0  0  0  0
  181.8680  176.7830  136.6160 C   0  0  2  0  0  3  0  0  0  0  0  0
  181.0640  178.7580  142.6750 C   0  0  0  0  0  1  0  0  0  0  0  0
  182.3670  177.5260  138.9140 C   0  0  1  0  0  3  0  0  0  0  0  0
  183.8250  175.0880  136.6180 C   0  0  0  0  0  2  0  0  0  0  0  0
  181.6870  174.7190  135.1810 C   0  0  0  0  0  2  0  0  0  0  0  0
  181.2370  178.8050  141.1720 C   0  0  2  0  0  3  0  0  0  0  0  0
  180.8760  178.9820  137.4960 N   0  0  2  0  0  0  0  0  0  0  0  0
  184.1950  179.0140  139.1170 C   0  0  0  0  0  0  0  0  0  0  0  0
  183.8140  173.8840  134.5950 O   0  0  0  0  0  0  0  0  0  0  0  0
  182.5980  179.0060  140.8630 O   0  0  0  0  0  0  0  0  0  0  0  0
  180.9950  179.2930  136.0590 C   0  0  0  0  0  2  0  0  0  0  0  0
  178.9310  180.5520  137.6030 C   0  0  0  0  0  2  0  0  0  0  0  0
  179.1190  180.8840  136.1330 C   0  0  0  0  0  2  0  0  0  0  0  0
  180.1670  180.1080  140.4770 S   0  0  0  0  0  0  0  0  0  0  0  0
  183.6320  176.8710  138.3430 C   0  0  1  0  0  3  0  0  0  0  0  0
  182.7640  178.9160  139.4670 C   0  0  2  0  0  3  0  0  0  0  0  0
  183.3600  176.5220  136.8900 C   0  0  2  0  0  3  0  0  0  0  0  0
  186.0770  177.6200  138.1450 C   0  0  0  0  0  1  0  0  0  0  0  0
  181.3110  177.5900  137.7990 C   0  0  1  0  0  3  0  0  0  0  0  0
  1 21  1  1  0  0  0
  1  6  1  0  0  0  0
  4 20  1  0  0  0  0
  4 22  1  0  0  0  0
  5 17  1  0  0  0  0
  6 23  1  0  0  0  0
  8  7  1  6  0  0  0
  8 10  1  0  0  0  0
  8  2  1  0  0  0  0
  9 13  1  0  0  0  0
 10 26  1  0  0  0  0
 10 28  1  0  0  0  0
 12 25  1  0  0  0  0
 13 26  1  0  0  0  0
 14  9  1  0  0  0  0
 14  8  1  0  0  0  0
 15 11  1  0  0  0  0
 16 28  1  0  0  0  0
 16  1  1  0  0  0  0
 17  3  2  0  0  0  0
 17 25  1  0  0  0  0
 18  9  2  0  0  0  0
 19 15  1  0  0  0  0
 20 16  1  0  0  0  0
 22 21  1  0  0  0  0
 23 15  1  0  0  0  0
 24  5  1  0  0  0  0
 24 12  1  0  0  0  0
 25 19  1  0  0  0  0
 26 24  1  0  0  0  0
 27  5  1  0  0  0  0
 28 12  1  0  0  0  0
M  END
>  <MODEL>
7

>  <REMARK>
 VINA RESULT:      -4.6      2.633      3.813
  Name = 
  0 active torsions:
  status: ('A' for Active; 'I' for Inactive)
                            x       y       z     vdW  Elec       q    Type
                         _______ _______ _______ _____ _____    ______ ____

>  <TORSDO>
F 0

$$$$
=
 OpenBabel11122412013D

 28 32  0  0  1  0  0  0  0  0999 V2000
  187.2360  177.3900  137.4220 C   0  0  2  0  0  3  0  0  0  0  0  0
  186.4190  172.8030  137.9670 O   0  0  0  0  0  1  0  0  0  0  0  0
  192.4560  175.5510  136.0470 O   0  0  0  0  0  0  0  0  0  0  0  0
  187.5120  177.9510  134.5940 C   0  0  0  0  0  2  0  0  0  0  0  0
  190.9690  173.7320  136.1150 N   0  0  0  0  0  0  0  0  0  0  0  0
  187.8070  177.4260  138.8470 C   0  0  0  0  0  2  0  0  0  0  0  0
  185.0450  174.3080  136.7510 C   0  0  0  0  0  1  0  0  0  0  0  0
  186.1910  173.3140  136.6860 C   0  0  1  0  0  0  0  0  0  0  0  0
  186.9360  171.2960  135.3790 C   0  0  0  0  0  0  0  0  0  0  0  0
  187.4580  174.0120  136.1480 C   0  0  2  0  0  3  0  0  0  0  0  0
  190.8420  176.7650  140.8630 C   0  0  0  0  0  1  0  0  0  0  0  0
  189.3470  174.6470  137.6010 C   0  0  1  0  0  3  0  0  0  0  0  0
  188.3030  171.5760  135.9230 C   0  0  0  0  0  2  0  0  0  0  0  0
  185.7770  172.1780  135.7480 C   0  0  0  0  0  2  0  0  0  0  0  0
  190.1850  176.5560  139.5160 C   0  0  2  0  0  3  0  0  0  0  0  0
  188.0050  176.4920  136.5280 N   0  0  2  0  0  0  0  0  0  0  0  0
  191.3960  175.0270  136.4810 C   0  0  0  0  0  0  0  0  0  0  0  0
  186.7570  170.3290  134.6570 O   0  0  0  0  0  0  0  0  0  0  0  0
  191.1230  176.0110  138.6150 O   0  0  0  0  0  0  0  0  0  0  0  0
  187.4410  176.5440  135.1670 C   0  0  0  0  0  2  0  0  0  0  0  0
  187.1820  178.8270  136.8840 C   0  0  0  0  0  2  0  0  0  0  0  0
  186.6590  178.8600  135.4570 C   0  0  0  0  0  2  0  0  0  0  0  0
  189.4910  178.1360  138.9260 S   0  0  0  0  0  0  0  0  0  0  0  0
  189.7510  173.3880  136.8220 C   0  0  1  0  0  3  0  0  0  0  0  0
  190.4650  175.7000  137.4090 C   0  0  2  0  0  3  0  0  0  0  0  0
  188.6360  173.0690  135.8420 C   0  0  2  0  0  3  0  0  0  0  0  0
  191.7740  172.7810  135.3660 C   0  0  0  0  0  1  0  0  0  0  0  0
  187.9750  175.1120  137.0880 C   0  0  1  0  0  3  0  0  0  0  0  0
  1 21  1  6  0  0  0
  1  6  1  0  0  0  0
  3 17  2  0  0  0  0
  4 20  1  0  0  0  0
  4 22  1  0  0  0  0
  5 17  1  0  0  0  0
  5 24  1  0  0  0  0
  6 23  1  0  0  0  0
  8  7  1  1  0  0  0
  8  2  1  0  0  0  0
  9 14  1  0  0  0  0
  9 13  1  0  0  0  0
 10  8  1  0  0  0  0
 10 28  1  0  0  0  0
 14  8  1  0  0  0  0
 15 11  1  0  0  0  0
 16 28  1  0  0  0  0
 16  1  1  0  0  0  0
 17 25  1  0  0  0  0
 18  9  2  0  0  0  0
 19 15  1  0  0  0  0
 20 16  1  0  0  0  0
 22 21  1  0  0  0  0
 23 15  1  0  0  0  0
 24 12  1  0  0  0  0
 25 12  1  0  0  0  0
 25 19  1  0  0  0  0
 26 13  1  0  0  0  0
 26 10  1  0  0  0  0
 26 24  1  0  0  0  0
 27  5  1  0  0  0  0
 28 12  1  0  0  0  0
M  END
>  <MODEL>
8

>  <REMARK>
 VINA RESULT:      -4.6      3.267      4.378
  Name = 
  0 active torsions:
  status: ('A' for Active; 'I' for Inactive)
                            x       y       z     vdW  Elec       q    Type
                         _______ _______ _______ _____ _____    ______ ____

>  <TORSDO>
F 0

$$$$
=
 OpenBabel11122412013D

 28 32  0  0  1  0  0  0  0  0999 V2000
  185.5770  174.5270  135.5130 C   0  0  2  0  0  3  0  0  0  0  0  0
  182.7240  178.2410  135.7630 O   0  0  0  0  0  1  0  0  0  0  0  0
  188.3110  177.2650  139.7020 O   0  0  0  0  0  0  0  0  0  0  0  0
  185.1760  172.8920  137.8700 C   0  0  0  0  0  2  0  0  0  0  0  0
  186.2110  178.2600  139.3450 N   0  0  0  0  0  0  0  0  0  0  0  0
  186.5070  175.3410  134.6010 C   0  0  0  0  0  2  0  0  0  0  0  0
  182.0260  175.9740  135.7270 C   0  0  0  0  0  1  0  0  0  0  0  0
  182.3960  177.1650  136.5920 C   0  0  1  0  0  0  0  0  0  0  0  0
  181.5160  178.4950  138.5400 C   0  0  0  0  0  0  0  0  0  0  0  0
  183.5890  176.8000  137.5020 C   0  0  2  0  0  3  0  0  0  0  0  0
  189.2150  177.8670  134.5940 C   0  0  0  0  0  1  0  0  0  0  0  0
  185.8810  177.6030  137.0790 C   0  0  1  0  0  3  0  0  0  0  0  0
  182.9190  178.9950  138.7000 C   0  0  0  0  0  2  0  0  0  0  0  0
  181.1760  177.5270  137.4420 C   0  0  0  0  0  2  0  0  0  0  0  0
  188.1520  177.1980  135.4390 C   0  0  2  0  0  3  0  0  0  0  0  0
  185.4320  175.1330  136.8570 N   0  0  2  0  0  0  0  0  0  0  0  0
  187.3390  177.5140  138.9390 C   0  0  0  0  0  0  0  0  0  0  0  0
  180.6400  178.8990  139.2860 O   0  0  0  0  0  0  0  0  0  0  0  0
  188.3220  177.5720  136.7880 O   0  0  0  0  0  0  0  0  0  0  0  0
  184.5740  174.2770  137.6980 C   0  0  0  0  0  2  0  0  0  0  0  0
  186.1080  173.0870  135.5860 C   0  0  0  0  0  2  0  0  0  0  0  0
  185.2510  172.2330  136.5060 C   0  0  0  0  0  2  0  0  0  0  0  0
  188.2340  175.3920  135.2020 S   0  0  0  0  0  0  0  0  0  0  0  0
  185.2960  178.4280  138.2330 C   0  0  1  0  0  3  0  0  0  0  0  0
  187.2510  177.0510  137.5400 C   0  0  2  0  0  3  0  0  0  0  0  0
  183.9320  177.8530  138.5710 C   0  0  2  0  0  3  0  0  0  0  0  0
  186.1130  178.9880  140.6000 C   0  0  0  0  0  1  0  0  0  0  0  0
  184.8720  176.5050  136.7100 C   0  0  1  0  0  3  0  0  0  0  0  0
  1  6  1  6  0  0  0
  1 21  1  0  0  0  0
  1 16  1  0  0  0  0
  2  8  1  0  0  0  0
  5 27  1  0  0  0  0
  6 23  1  0  0  0  0
  8  7  1  6  0  0  0
  8 14  1  0  0  0  0
  8 10  1  0  0  0  0
  9 13  1  0  0  0  0
  9 18  2  0  0  0  0
 10 26  1  0  0  0  0
 11 15  1  0  0  0  0
 12 25  1  0  0  0  0
 12 24  1  0  0  0  0
 14  9  1  0  0  0  0
 15 19  1  0  0  0  0
 16 20  1  0  0  0  0
 17  5  1  0  0  0  0
 17  3  2  0  0  0  0
 19 25  1  0  0  0  0
 20  4  1  0  0  0  0
 21 22  1  0  0  0  0
 22  4  1  0  0  0  0
 23 15  1  0  0  0  0
 24 26  1  0  0  0  0
 24  5  1  0  0  0  0
 25 17  1  0  0  0  0
 26 13  1  0  0  0  0
 28 16  1  0  0  0  0
 28 12  1  0  0  0  0
 28 10  1  0  0  0  0
M  END
>  <MODEL>
9

>  <REMARK>
 VINA RESULT:      -4.5      2.582      5.434
  Name = 
  0 active torsions:
  status: ('A' for Active; 'I' for Inactive)
                            x       y       z     vdW  Elec       q    Type
                         _______ _______ _______ _____ _____    ______ ____

>  <TORSDO>
F 0

$$$$
