=
 OpenBabel11122410403D

 32 38  0  0  1  0  0  0  0  0999 V2000
  189.0900  177.8740  147.9410 C   0  0  1  0  0  3  0  0  0  0  0  0
  186.1840  178.2150  143.5250 C   0  0  0  0  0  0  0  0  0  0  0  0
  189.4960  177.8850  139.9420 C   0  0  0  0  0  3  0  0  0  0  0  0
  188.5010  178.1020  138.9910 C   0  0  0  0  0  3  0  0  0  0  0  0
  183.7810  178.6130  142.9410 C   0  0  0  0  0  0  0  0  0  0  0  0
  182.8500  178.8220  141.9310 C   0  0  0  0  0  0  0  0  0  0  0  0
  186.9120  177.5990  145.8730 C   0  0  1  0  0  3  0  0  0  0  0  0
  188.6260  177.7030  144.0890 C   0  0  0  0  0  2  0  0  0  0  0  0
  182.0750  179.0650  139.9200 N   0  0  0  0  0  0  0  0  0  0  0  0
  189.4410  177.7180  146.4610 C   0  0  2  0  0  3  0  0  0  0  0  0
  189.1690  177.8610  141.2970 C   0  0  0  0  0  3  0  0  0  0  0  0
  187.5270  178.0330  143.0970 C   0  0  0  0  0  0  0  0  0  0  0  0
  187.8430  178.0530  141.7260 C   0  0  0  0  0  0  0  0  0  0  0  0
  185.4970  178.4570  141.1670 C   0  0  0  0  0  0  0  0  0  0  0  0
  181.0760  179.1630  140.7890 N   0  0  0  0  0  0  0  0  0  0  0  0
  187.6640  178.4110  148.1910 C   0  0  0  0  0  2  0  0  0  0  0  0
  188.2990  178.1320  145.5090 C   0  0  2  0  0  3  0  0  0  0  0  0
  181.5210  179.0170  142.0360 N   0  0  0  0  0  0  0  0  0  0  0  0
  186.5530  177.7670  147.3520 C   0  0  0  0  0  2  0  0  0  0  0  0
  189.1340  176.4870  147.3080 C   0  0  1  0  0  3  0  0  0  0  0  0
  187.1810  178.2930  139.3970 C   0  0  0  0  0  3  0  0  0  0  0  0
  186.8330  178.2720  140.7620 C   0  0  0  0  0  0  0  0  0  0  0  0
  184.4960  178.6740  140.1910 C   0  0  0  0  0  3  0  0  0  0  0  0
  185.8840  178.3040  145.0060 C   0  0  0  0  0  2  0  0  0  0  0  0
  183.3410  178.5820  144.2600 O   0  0  0  0  0  1  0  0  0  0  0  0
  181.9370  179.1740  138.4790 C   0  0  0  0  0  1  0  0  0  0  0  0
  185.1540  178.4290  142.5670 C   0  0  0  0  0  0  0  0  0  0  0  0
  183.1930  178.8520  140.6230 C   0  0  0  0  0  0  0  0  0  0  0  0
  190.3500  175.8480  147.6630 O   0  0  0  0  0  0  0  0  0  0  0  0
  191.5840  176.2550  147.1510 C   0  0  0  0  0  0  0  0  0  0  0  0
  191.9450  176.0410  145.7180 C   0  0  0  0  0  1  0  0  0  0  0  0
  192.4140  176.8140  147.9140 O   0  0  0  0  0  0  0  0  0  0  0  0
  1 16  1  6  0  0  0
  2 24  1  0  0  0  0
  3 11  2  0  0  0  0
  4 21  2  0  0  0  0
  4  3  1  0  0  0  0
  5 25  1  0  0  0  0
  6 18  1  0  0  0  0
  6  5  2  0  0  0  0
  7 24  1  6  0  0  0
  7 19  1  0  0  0  0
  8 17  1  0  0  0  0
  9 28  1  0  0  0  0
  9 15  1  0  0  0  0
 10 20  1  0  0  0  0
 10  1  1  0  0  0  0
 11 13  1  0  0  0  0
 12  2  1  0  0  0  0
 12  8  1  0  0  0  0
 13 12  2  0  0  0  0
 14 27  1  0  0  0  0
 15 18  2  0  0  0  0
 17  7  1  0  0  0  0
 17 10  1  0  0  0  0
 19 16  1  0  0  0  0
 20 29  1  0  0  0  0
 20  1  1  0  0  0  0
 21 22  1  0  0  0  0
 22 14  2  0  0  0  0
 22 13  1  0  0  0  0
 23 28  2  0  0  0  0
 23 14  1  0  0  0  0
 26  9  1  0  0  0  0
 27  5  1  0  0  0  0
 27  2  2  0  0  0  0
 28  6  1  0  0  0  0
 30 29  1  0  0  0  0
 30 32  2  0  0  0  0
 31 30  1  0  0  0  0
M  END
>  <MODEL>
1

>  <REMARK>
 VINA RESULT:     -11.2      0.000      0.000
  Name = 
  2 active torsions:
  status: ('A' for Active; 'I' for Inactive)
    1  A    between atoms: C_20  and  O_29
    2  A    between atoms: O_29  and  C_30
                            x       y       z     vdW  Elec       q    Type
                         _______ _______ _______ _____ _____    ______ ____

>  <TORSDO>
F 2

$$$$
=
 OpenBabel11122410403D

 32 38  0  0  1  0  0  0  0  0999 V2000
  188.0090  178.3430  136.9760 C   0  0  1  0  0  3  0  0  0  0  0  0
  187.6400  177.9150  142.2440 C   0  0  0  0  0  0  0  0  0  0  0  0
  182.9520  178.9680  143.1570 C   0  0  0  0  0  3  0  0  0  0  0  0
  183.1910  178.8820  144.5270 C   0  0  0  0  0  3  0  0  0  0  0  0
  189.1960  177.4870  144.1590 C   0  0  0  0  0  0  0  0  0  0  0  0
  189.3500  177.4190  145.5380 C   0  0  0  0  0  0  0  0  0  0  0  0
  188.3050  177.4520  139.8420 C   0  0  1  0  0  3  0  0  0  0  0  0
  186.0070  178.2500  140.3030 C   0  0  0  0  0  2  0  0  0  0  0  0
  188.8040  177.4970  147.6350 N   0  0  0  0  0  0  0  0  0  0  0  0
  186.8190  178.4070  137.9360 C   0  0  2  0  0  3  0  0  0  0  0  0
  183.9930  178.7520  142.2540 C   0  0  0  0  0  3  0  0  0  0  0  0
  186.3330  178.2370  141.7840 C   0  0  0  0  0  0  0  0  0  0  0  0
  185.2900  178.4460  142.7050 C   0  0  0  0  0  0  0  0  0  0  0  0
  186.8220  178.0430  144.5680 C   0  0  0  0  0  0  0  0  0  0  0  0
  190.0910  177.1900  147.5300 N   0  0  0  0  0  0  0  0  0  0  0  0
  189.3810  178.3350  137.6840 C   0  0  0  0  0  2  0  0  0  0  0  0
  187.2280  178.4540  139.4230 C   0  0  2  0  0  3  0  0  0  0  0  0
  190.4580  177.1340  146.2500 N   0  0  0  0  0  0  0  0  0  0  0  0
  189.5030  177.3970  138.8910 C   0  0  0  0  0  2  0  0  0  0  0  0
  187.1660  177.0980  137.2330 C   0  0  1  0  0  3  0  0  0  0  0  0
  184.4700  178.5790  144.9910 C   0  0  0  0  0  3  0  0  0  0  0  0
  185.5330  178.3570  144.0940 C   0  0  0  0  0  0  0  0  0  0  0  0
  187.0500  177.9550  145.9620 C   0  0  0  0  0  3  0  0  0  0  0  0
  188.7710  177.8060  141.2430 C   0  0  0  0  0  2  0  0  0  0  0  0
  190.2970  177.2270  143.3500 O   0  0  0  0  0  1  0  0  0  0  0  0
  188.0830  177.6360  148.8880 C   0  0  0  0  0  1  0  0  0  0  0  0
  187.9000  177.8140  143.6390 C   0  0  0  0  0  0  0  0  0  0  0  0
  188.3270  177.6440  146.3940 C   0  0  0  0  0  0  0  0  0  0  0  0
  186.2760  176.9010  136.1450 O   0  0  0  0  0  0  0  0  0  0  0  0
  184.9210  176.6230  136.3300 C   0  0  0  0  0  0  0  0  0  0  0  0
  184.4600  175.5970  137.3130 C   0  0  0  0  0  1  0  0  0  0  0  0
  184.0640  177.2490  135.6540 O   0  0  0  0  0  0  0  0  0  0  0  0
  1 20  1  0  0  0  0
  1 16  1  1  0  0  0
  1 10  1  0  0  0  0
  2 27  1  0  0  0  0
  3  4  1  0  0  0  0
  4 21  2  0  0  0  0
  5  6  1  0  0  0  0
  6 18  1  0  0  0  0
  6 28  2  0  0  0  0
  7 19  1  6  0  0  0
  7 24  1  0  0  0  0
  8 12  1  0  0  0  0
  9 26  1  0  0  0  0
 10 17  1  0  0  0  0
 11 13  1  0  0  0  0
 11  3  2  0  0  0  0
 12  2  2  0  0  0  0
 12 13  1  0  0  0  0
 13 22  2  0  0  0  0
 14 23  2  0  0  0  0
 15  9  1  0  0  0  0
 16 19  1  0  0  0  0
 17  7  1  0  0  0  0
 17  8  1  0  0  0  0
 18 15  2  0  0  0  0
 20 10  1  0  0  0  0
 22 14  1  0  0  0  0
 22 21  1  0  0  0  0
 23 28  1  0  0  0  0
 24  2  1  0  0  0  0
 25  5  1  0  0  0  0
 27  5  2  0  0  0  0
 27 14  1  0  0  0  0
 28  9  1  0  0  0  0
 29 30  1  0  0  0  0
 29 20  1  0  0  0  0
 30 31  1  0  0  0  0
 32 30  2  0  0  0  0
M  END
>  <MODEL>
2

>  <REMARK>
 VINA RESULT:     -11.0      4.096      8.369
  Name = 
  2 active torsions:
  status: ('A' for Active; 'I' for Inactive)
    1  A    between atoms: C_20  and  O_29
    2  A    between atoms: O_29  and  C_30
                            x       y       z     vdW  Elec       q    Type
                         _______ _______ _______ _____ _____    ______ ____

>  <TORSDO>
F 2

$$$$
=
 OpenBabel11122410403D

 32 38  0  0  1  0  0  0  0  0999 V2000
  180.4580  178.7360  141.2910 C   0  0  1  0  0  3  0  0  0  0  0  0
  185.1380  178.3130  143.7370 C   0  0  0  0  0  0  0  0  0  0  0  0
  188.3370  178.0020  140.0510 C   0  0  0  0  0  3  0  0  0  0  0  0
  189.3760  177.8060  140.9580 C   0  0  0  0  0  3  0  0  0  0  0  0
  185.9600  178.1110  146.0940 C   0  0  0  0  0  0  0  0  0  0  0  0
  187.0500  177.9110  146.9310 C   0  0  0  0  0  0  0  0  0  0  0  0
  182.7740  179.0510  143.1960 C   0  0  1  0  0  3  0  0  0  0  0  0
  184.3390  178.6240  141.3260 C   0  0  0  0  0  2  0  0  0  0  0  0
  189.1120  177.5760  147.5130 N   0  0  0  0  0  0  0  0  0  0  0  0
  181.8960  178.7290  140.7710 C   0  0  2  0  0  3  0  0  0  0  0  0
  187.0330  178.1740  140.5140 C   0  0  0  0  0  3  0  0  0  0  0  0
  185.4230  178.3220  142.3440 C   0  0  0  0  0  0  0  0  0  0  0  0
  186.7440  178.1530  141.8900 C   0  0  0  0  0  0  0  0  0  0  0  0
  187.5340  177.9410  144.1950 C   0  0  0  0  0  0  0  0  0  0  0  0
  188.3580  177.6540  148.6030 N   0  0  0  0  0  0  0  0  0  0  0  0
  180.3320  178.3690  142.7850 C   0  0  0  0  0  2  0  0  0  0  0  0
  182.9380  178.3520  141.8450 C   0  0  2  0  0  3  0  0  0  0  0  0
  187.0820  177.8600  148.2770 N   0  0  0  0  0  0  0  0  0  0  0  0
  181.3370  179.0470  143.7250 C   0  0  0  0  0  2  0  0  0  0  0  0
  181.1830  180.0520  141.0290 C   0  0  1  0  0  3  0  0  0  0  0  0
  189.1090  177.7840  142.3270 C   0  0  0  0  0  3  0  0  0  0  0  0
  187.7980  177.9560  142.8120 C   0  0  0  0  0  0  0  0  0  0  0  0
  188.5990  177.7440  145.1060 C   0  0  0  0  0  3  0  0  0  0  0  0
  183.6970  178.3820  144.1990 C   0  0  0  0  0  2  0  0  0  0  0  0
  184.7050  178.2990  146.6640 O   0  0  0  0  0  1  0  0  0  0  0  0
  190.5480  177.3590  147.5110 C   0  0  0  0  0  1  0  0  0  0  0  0
  186.1880  178.1230  144.6780 C   0  0  0  0  0  0  0  0  0  0  0  0
  188.3050  177.7350  146.4580 C   0  0  0  0  0  0  0  0  0  0  0  0
  180.7410  180.5940  139.7940 O   0  0  0  0  0  0  0  0  0  0  0  0
  181.5790  180.6990  138.6830 C   0  0  0  0  0  0  0  0  0  0  0  0
  181.2880  179.9710  137.4120 C   0  0  0  0  0  1  0  0  0  0  0  0
  182.6060  181.4220  138.7510 O   0  0  0  0  0  0  0  0  0  0  0  0
  1 16  1  1  0  0  0
  2 24  1  0  0  0  0
  2 27  1  0  0  0  0
  3 11  2  0  0  0  0
  3  4  1  0  0  0  0
  4 21  2  0  0  0  0
  5 25  1  0  0  0  0
  5  6  1  0  0  0  0
  6 18  1  0  0  0  0
  7 19  1  1  0  0  0
  7 24  1  0  0  0  0
  8 17  1  0  0  0  0
  8 12  1  0  0  0  0
  9 15  1  0  0  0  0
 10 20  1  0  0  0  0
 10  1  1  0  0  0  0
 10 17  1  0  0  0  0
 11 13  1  0  0  0  0
 12  2  2  0  0  0  0
 13 12  1  0  0  0  0
 13 22  2  0  0  0  0
 14 27  1  0  0  0  0
 14 23  2  0  0  0  0
 16 19  1  0  0  0  0
 17  7  1  0  0  0  0
 18 15  2  0  0  0  0
 20  1  1  0  0  0  0
 21 22  1  0  0  0  0
 22 14  1  0  0  0  0
 23 28  1  0  0  0  0
 26  9  1  0  0  0  0
 27  5  2  0  0  0  0
 28  6  2  0  0  0  0
 28  9  1  0  0  0  0
 29 20  1  0  0  0  0
 30 32  2  0  0  0  0
 30 29  1  0  0  0  0
 31 30  1  0  0  0  0
M  END
>  <MODEL>
3

>  <REMARK>
 VINA RESULT:     -10.6      3.568      7.906
  Name = 
  2 active torsions:
  status: ('A' for Active; 'I' for Inactive)
    1  A    between atoms: C_20  and  O_29
    2  A    between atoms: O_29  and  C_30
                            x       y       z     vdW  Elec       q    Type
                         _______ _______ _______ _____ _____    ______ ____

>  <TORSDO>
F 2

$$$$
=
 OpenBabel11122410403D

 32 38  0  0  1  0  0  0  0  0999 V2000
  191.8120  175.6580  146.7500 C   0  0  1  0  0  3  0  0  0  0  0  0
  188.0820  177.6030  143.5300 C   0  0  0  0  0  0  0  0  0  0  0  0
  184.3520  178.5680  146.5420 C   0  0  0  0  0  3  0  0  0  0  0  0
  183.5590  178.9320  145.4560 C   0  0  0  0  0  3  0  0  0  0  0  0
  187.7930  177.9570  141.0680 C   0  0  0  0  0  0  0  0  0  0  0  0
  186.9380  178.3380  140.0410 C   0  0  0  0  0  0  0  0  0  0  0  0
  190.3480  177.1290  144.5620 C   0  0  1  0  0  3  0  0  0  0  0  0
  188.3870  177.3530  146.0580 C   0  0  0  0  0  2  0  0  0  0  0  0
  185.1210  179.0320  139.0820 N   0  0  0  0  0  0  0  0  0  0  0  0
  190.4420  176.2820  147.0170 C   0  0  2  0  0  3  0  0  0  0  0  0
  185.6650  178.1470  146.3340 C   0  0  0  0  0  3  0  0  0  0  0  0
  187.5330  177.6530  144.8400 C   0  0  0  0  0  0  0  0  0  0  0  0
  186.2090  178.0850  145.0380 C   0  0  0  0  0  0  0  0  0  0  0  0
  185.9310  178.4110  142.6300 C   0  0  0  0  0  0  0  0  0  0  0  0
  186.0510  178.8230  138.1580 N   0  0  0  0  0  0  0  0  0  0  0  0
  192.0860  175.3710  145.2580 C   0  0  0  0  0  2  0  0  0  0  0  0
  189.6030  176.4990  145.7400 C   0  0  2  0  0  3  0  0  0  0  0  0
  187.1820  178.3950  138.7170 N   0  0  0  0  0  0  0  0  0  0  0  0
  191.7140  176.4960  144.2840 C   0  0  0  0  0  2  0  0  0  0  0  0
  191.7010  177.1390  147.0930 C   0  0  1  0  0  3  0  0  0  0  0  0
  184.0810  178.8780  144.1650 C   0  0  0  0  0  3  0  0  0  0  0  0
  185.4050  178.4570  143.9360 C   0  0  0  0  0  0  0  0  0  0  0  0
  185.1160  178.7880  141.5360 C   0  0  0  0  0  3  0  0  0  0  0  0
  189.4690  177.0290  143.3290 C   0  0  0  0  0  2  0  0  0  0  0  0
  189.0930  177.5800  140.7490 O   0  0  0  0  0  1  0  0  0  0  0  0
  183.7740  179.5040  138.8130 C   0  0  0  0  0  1  0  0  0  0  0  0
  187.2900  177.9820  142.4100 C   0  0  0  0  0  0  0  0  0  0  0  0
  185.6640  178.7320  140.2670 C   0  0  0  0  0  0  0  0  0  0  0  0
  192.0540  177.3340  148.4530 O   0  0  0  0  0  0  0  0  0  0  0  0
  193.1420  176.6880  149.0420 C   0  0  0  0  0  0  0  0  0  0  0  0
  193.8020  177.2270  150.2680 C   0  0  0  0  0  1  0  0  0  0  0  0
  193.5810  175.6270  148.5280 O   0  0  0  0  0  0  0  0  0  0  0  0
  1 16  1  6  0  0  0
  1 10  1  0  0  0  0
  1 20  1  0  0  0  0
  2 12  1  0  0  0  0
  4  3  1  0  0  0  0
  5 27  1  0  0  0  0
  6 28  1  0  0  0  0
  6  5  2  0  0  0  0
  7 24  1  6  0  0  0
  7 17  1  0  0  0  0
  9 28  1  0  0  0  0
 10 20  1  0  0  0  0
 11  3  2  0  0  0  0
 12 13  2  0  0  0  0
 12  8  1  0  0  0  0
 13 11  1  0  0  0  0
 14 22  2  0  0  0  0
 15 18  2  0  0  0  0
 15  9  1  0  0  0  0
 17  8  1  0  0  0  0
 17 10  1  0  0  0  0
 18  6  1  0  0  0  0
 19  7  1  0  0  0  0
 19 16  1  0  0  0  0
 20 29  1  0  0  0  0
 21  4  2  0  0  0  0
 22 21  1  0  0  0  0
 22 13  1  0  0  0  0
 23 14  1  0  0  0  0
 24  2  1  0  0  0  0
 25  5  1  0  0  0  0
 26  9  1  0  0  0  0
 27 14  1  0  0  0  0
 27  2  2  0  0  0  0
 28 23  2  0  0  0  0
 29 30  1  0  0  0  0
 30 31  1  0  0  0  0
 32 30  2  0  0  0  0
M  END
>  <MODEL>
4

>  <REMARK>
 VINA RESULT:     -10.4      2.281      4.371
  Name = 
  2 active torsions:
  status: ('A' for Active; 'I' for Inactive)
    1  A    between atoms: C_20  and  O_29
    2  A    between atoms: O_29  and  C_30
                            x       y       z     vdW  Elec       q    Type
                         _______ _______ _______ _____ _____    ______ ____

>  <TORSDO>
F 2

$$$$
=
 OpenBabel11122410403D

 32 38  0  0  1  0  0  0  0  0999 V2000
  181.6650  179.4720  139.2460 C   0  0  1  0  0  3  0  0  0  0  0  0
  186.0030  178.2500  142.0310 C   0  0  0  0  0  0  0  0  0  0  0  0
  184.4940  178.4990  146.6770 C   0  0  0  0  0  3  0  0  0  0  0  0
  185.7920  178.2530  147.1200 C   0  0  0  0  0  3  0  0  0  0  0  0
  188.4140  177.7750  141.5490 C   0  0  0  0  0  0  0  0  0  0  0  0
  189.6780  177.5330  142.0720 C   0  0  0  0  0  0  0  0  0  0  0  0
  184.2390  178.2320  140.2110 C   0  0  1  0  0  3  0  0  0  0  0  0
  183.5270  178.6280  142.5490 C   0  0  0  0  0  2  0  0  0  0  0  0
  191.2180  177.2340  143.5700 N   0  0  0  0  0  0  0  0  0  0  0  0
  181.9000  179.2320  140.7380 C   0  0  2  0  0  3  0  0  0  0  0  0
  184.2270  178.5610  145.3090 C   0  0  0  0  0  3  0  0  0  0  0  0
  184.9680  178.4490  142.9850 C   0  0  0  0  0  0  0  0  0  0  0  0
  185.2500  178.3780  144.3620 C   0  0  0  0  0  0  0  0  0  0  0  0
  187.6050  177.9300  143.8800 C   0  0  0  0  0  0  0  0  0  0  0  0
  191.7570  177.1280  142.3610 N   0  0  0  0  0  0  0  0  0  0  0  0
  182.9650  179.5550  138.4160 C   0  0  0  0  0  2  0  0  0  0  0  0
  183.3910  179.1240  141.1200 C   0  0  2  0  0  3  0  0  0  0  0  0
  190.8340  177.3070  141.4170 N   0  0  0  0  0  0  0  0  0  0  0  0
  184.0170  178.4800  138.7170 C   0  0  0  0  0  2  0  0  0  0  0  0
  181.3960  178.0980  139.8510 C   0  0  1  0  0  3  0  0  0  0  0  0
  186.8190  178.0670  146.1950 C   0  0  0  0  0  3  0  0  0  0  0  0
  186.5670  178.1260  144.8110 C   0  0  0  0  0  0  0  0  0  0  0  0
  188.9190  177.6770  144.3440 C   0  0  0  0  0  3  0  0  0  0  0  0
  185.7020  178.4440  140.5600 C   0  0  0  0  0  2  0  0  0  0  0  0
  188.2550  177.7880  140.1670 O   0  0  0  0  0  1  0  0  0  0  0  0
  191.9460  177.0920  144.8190 C   0  0  0  0  0  1  0  0  0  0  0  0
  187.3330  177.9880  142.4660 C   0  0  0  0  0  0  0  0  0  0  0  0
  189.9160  177.4890  143.4030 C   0  0  0  0  0  0  0  0  0  0  0  0
  180.0000  177.9360  140.0460 O   0  0  0  0  0  0  0  0  0  0  0  0
  179.4750  177.0300  140.9690 C   0  0  0  0  0  0  0  0  0  0  0  0
  179.1090  175.6370  140.5770 C   0  0  0  0  0  1  0  0  0  0  0  0
  179.3040  177.3950  142.1610 O   0  0  0  0  0  0  0  0  0  0  0  0
  1 16  1  6  0  0  0
  1 20  1  0  0  0  0
  1 10  1  0  0  0  0
  2 27  2  0  0  0  0
  2 12  1  0  0  0  0
  3  4  1  0  0  0  0
  5  6  2  0  0  0  0
  5 27  1  0  0  0  0
  6 28  1  0  0  0  0
  7 19  1  6  0  0  0
  7 24  1  0  0  0  0
  7 17  1  0  0  0  0
  8 12  1  0  0  0  0
  9 26  1  0  0  0  0
 10 17  1  0  0  0  0
 11  3  2  0  0  0  0
 12 13  2  0  0  0  0
 13 22  1  0  0  0  0
 13 11  1  0  0  0  0
 14 23  1  0  0  0  0
 14 22  2  0  0  0  0
 15  9  1  0  0  0  0
 16 19  1  0  0  0  0
 17  8  1  0  0  0  0
 18  6  1  0  0  0  0
 18 15  2  0  0  0  0
 20 29  1  0  0  0  0
 20 10  1  0  0  0  0
 21  4  2  0  0  0  0
 22 21  1  0  0  0  0
 24  2  1  0  0  0  0
 25  5  1  0  0  0  0
 27 14  1  0  0  0  0
 28  9  1  0  0  0  0
 28 23  2  0  0  0  0
 29 30  1  0  0  0  0
 30 32  2  0  0  0  0
 31 30  1  0  0  0  0
M  END
>  <MODEL>
5

>  <REMARK>
 VINA RESULT:     -10.3      3.938      8.621
  Name = 
  2 active torsions:
  status: ('A' for Active; 'I' for Inactive)
    1  A    between atoms: C_20  and  O_29
    2  A    between atoms: O_29  and  C_30
                            x       y       z     vdW  Elec       q    Type
                         _______ _______ _______ _____ _____    ______ ____

>  <TORSDO>
F 2

$$$$
=
 OpenBabel11122410403D

 32 38  0  0  1  0  0  0  0  0999 V2000
  190.2590  177.7470  147.8620 C   0  0  1  0  0  3  0  0  0  0  0  0
  186.3120  178.1960  144.3570 C   0  0  0  0  0  0  0  0  0  0  0  0
  188.5840  177.9760  140.0320 C   0  0  0  0  0  3  0  0  0  0  0  0
  187.3780  178.2150  139.3770 C   0  0  0  0  0  3  0  0  0  0  0  0
  183.8410  178.5990  144.4250 C   0  0  0  0  0  0  0  0  0  0  0  0
  182.6810  178.8320  143.6970 C   0  0  0  0  0  0  0  0  0  0  0  0
  187.6210  177.5200  146.4200 C   0  0  1  0  0  3  0  0  0  0  0  0
  188.8160  177.6790  144.2570 C   0  0  0  0  0  2  0  0  0  0  0  0
  181.4140  179.1260  141.9620 N   0  0  0  0  0  0  0  0  0  0  0  0
  190.2160  177.6330  146.3370 C   0  0  2  0  0  3  0  0  0  0  0  0
  188.6190  177.9150  141.4250 C   0  0  0  0  0  3  0  0  0  0  0  0
  187.4990  178.0310  143.5920 C   0  0  0  0  0  0  0  0  0  0  0  0
  187.4490  178.0900  142.1870 C   0  0  0  0  0  0  0  0  0  0  0  0
  185.0400  178.4990  142.2650 C   0  0  0  0  0  0  0  0  0  0  0  0
  180.6730  179.1970  143.0610 N   0  0  0  0  0  0  0  0  0  0  0  0
  188.9480  178.2710  148.4860 C   0  0  0  0  0  2  0  0  0  0  0  0
  188.8680  178.0680  145.7240 C   0  0  2  0  0  3  0  0  0  0  0  0
  181.4250  179.0190  144.1470 N   0  0  0  0  0  0  0  0  0  0  0  0
  187.6560  177.6460  147.9450 C   0  0  0  0  0  2  0  0  0  0  0  0
  190.1340  176.3780  147.2010 C   0  0  1  0  0  3  0  0  0  0  0  0
  186.2090  178.3900  140.1160 C   0  0  0  0  0  3  0  0  0  0  0  0
  186.2250  178.3300  141.5230 C   0  0  0  0  0  0  0  0  0  0  0  0
  183.8210  178.7380  141.5870 C   0  0  0  0  0  3  0  0  0  0  0  0
  186.4050  178.2430  145.8680 C   0  0  0  0  0  2  0  0  0  0  0  0
  183.7570  178.5300  145.8120 O   0  0  0  0  0  1  0  0  0  0  0  0
  180.9070  179.2740  140.6090 C   0  0  0  0  0  1  0  0  0  0  0  0
  185.0700  178.4310  143.7040 C   0  0  0  0  0  0  0  0  0  0  0  0
  182.6750  178.8990  142.3460 C   0  0  0  0  0  0  0  0  0  0  0  0
  191.3990  175.7350  147.2110 O   0  0  0  0  0  0  0  0  0  0  0  0
  192.3110  175.8990  148.2560 C   0  0  0  0  0  0  0  0  0  0  0  0
  192.7590  174.7450  149.0910 C   0  0  0  0  0  1  0  0  0  0  0  0
  192.7670  177.0450  148.5020 O   0  0  0  0  0  0  0  0  0  0  0  0
  1 16  1  1  0  0  0
  2 24  1  0  0  0  0
  3 11  1  0  0  0  0
  4  3  2  0  0  0  0
  4 21  1  0  0  0  0
  5 25  1  0  0  0  0
  6 18  1  0  0  0  0
  6  5  2  0  0  0  0
  7 24  1  6  0  0  0
  7 19  1  0  0  0  0
  8 17  1  0  0  0  0
  9 28  1  0  0  0  0
  9 15  1  0  0  0  0
 10 20  1  0  0  0  0
 10  1  1  0  0  0  0
 11 13  2  0  0  0  0
 12  8  1  0  0  0  0
 12  2  2  0  0  0  0
 13 12  1  0  0  0  0
 14 27  2  0  0  0  0
 15 18  2  0  0  0  0
 17 10  1  0  0  0  0
 17  7  1  0  0  0  0
 19 16  1  0  0  0  0
 20 29  1  0  0  0  0
 20  1  1  0  0  0  0
 21 22  2  0  0  0  0
 22 13  1  0  0  0  0
 22 14  1  0  0  0  0
 23 14  1  0  0  0  0
 23 28  2  0  0  0  0
 26  9  1  0  0  0  0
 27  2  1  0  0  0  0
 27  5  1  0  0  0  0
 28  6  1  0  0  0  0
 29 30  1  0  0  0  0
 30 32  2  0  0  0  0
 30 31  1  0  0  0  0
M  END
>  <MODEL>
6

>  <REMARK>
 VINA RESULT:      -9.6      1.148      1.466
  Name = 
  2 active torsions:
  status: ('A' for Active; 'I' for Inactive)
    1  A    between atoms: C_20  and  O_29
    2  A    between atoms: O_29  and  C_30
                            x       y       z     vdW  Elec       q    Type
                         _______ _______ _______ _____ _____    ______ ____

>  <TORSDO>
F 2

$$$$
=
 OpenBabel11122410403D

 32 38  0  0  1  0  0  0  0  0999 V2000
  184.7080  179.1010  137.8800 C   0  0  1  0  0  3  0  0  0  0  0  0
  187.2300  177.9010  142.3820 C   0  0  0  0  0  0  0  0  0  0  0  0
  183.8880  178.7830  145.8420 C   0  0  0  0  0  3  0  0  0  0  0  0
  184.8260  178.4980  146.8320 C   0  0  0  0  0  3  0  0  0  0  0  0
  189.5390  177.2040  143.0570 C   0  0  0  0  0  0  0  0  0  0  0  0
  190.4120  176.9350  144.1030 C   0  0  0  0  0  0  0  0  0  0  0  0
  186.4450  177.8000  139.9730 C   0  0  1  0  0  3  0  0  0  0  0  0
  184.8360  178.5100  141.7160 C   0  0  0  0  0  2  0  0  0  0  0  0
  191.1010  176.7010  146.1450 N   0  0  0  0  0  0  0  0  0  0  0  0
  184.2400  179.0170  139.3340 C   0  0  2  0  0  3  0  0  0  0  0  0
  184.2520  178.7080  144.4970 C   0  0  0  0  0  3  0  0  0  0  0  0
  185.9130  178.2800  142.7590 C   0  0  0  0  0  0  0  0  0  0  0  0
  185.5570  178.3460  144.1190 C   0  0  0  0  0  0  0  0  0  0  0  0
  187.8190  177.6810  144.7670 C   0  0  0  0  0  0  0  0  0  0  0  0
  192.0970  176.4190  145.3130 N   0  0  0  0  0  0  0  0  0  0  0  0
  186.2390  178.9970  137.7110 C   0  0  0  0  0  2  0  0  0  0  0  0
  185.3940  178.8480  140.3450 C   0  0  2  0  0  3  0  0  0  0  0  0
  191.7040  176.5540  144.0470 N   0  0  0  0  0  0  0  0  0  0  0  0
  186.9250  177.8920  138.5230 C   0  0  0  0  0  2  0  0  0  0  0  0
  184.0480  177.8280  138.3980 C   0  0  1  0  0  3  0  0  0  0  0  0
  186.1250  178.1360  146.4760 C   0  0  0  0  0  3  0  0  0  0  0  0
  186.5080  178.0550  145.1230 C   0  0  0  0  0  0  0  0  0  0  0  0
  188.7610  177.3900  145.7830 C   0  0  0  0  0  3  0  0  0  0  0  0
  187.6230  177.9470  140.9200 C   0  0  0  0  0  2  0  0  0  0  0  0
  190.0000  177.0720  141.7510 O   0  0  0  0  0  1  0  0  0  0  0  0
  191.1910  176.6500  147.5940 C   0  0  0  0  0  1  0  0  0  0  0  0
  188.1980  177.5970  143.3790 C   0  0  0  0  0  0  0  0  0  0  0  0
  190.0400  177.0260  145.4000 C   0  0  0  0  0  0  0  0  0  0  0  0
  182.6970  177.7890  137.9630 O   0  0  0  0  0  0  0  0  0  0  0  0
  181.6800  177.2280  138.7370 C   0  0  0  0  0  0  0  0  0  0  0  0
  180.6400  178.0740  139.3930 C   0  0  0  0  0  1  0  0  0  0  0  0
  181.6370  175.9790  138.8880 O   0  0  0  0  0  0  0  0  0  0  0  0
  1 16  1  1  0  0  0
  1 20  1  0  0  0  0
  1 10  1  0  0  0  0
  2 12  2  0  0  0  0
  2 27  1  0  0  0  0
  3  4  1  0  0  0  0
  5 27  2  0  0  0  0
  5  6  1  0  0  0  0
  6 28  2  0  0  0  0
  7 19  1  6  0  0  0
  7 17  1  0  0  0  0
  7 24  1  0  0  0  0
  8 12  1  0  0  0  0
  9 26  1  0  0  0  0
 10 17  1  0  0  0  0
 11  3  2  0  0  0  0
 12 13  1  0  0  0  0
 13 11  1  0  0  0  0
 13 22  2  0  0  0  0
 14 22  1  0  0  0  0
 14 23  2  0  0  0  0
 15  9  1  0  0  0  0
 16 19  1  0  0  0  0
 17  8  1  0  0  0  0
 18  6  1  0  0  0  0
 18 15  2  0  0  0  0
 20 10  1  0  0  0  0
 21  4  2  0  0  0  0
 22 21  1  0  0  0  0
 24  2  1  0  0  0  0
 25  5  1  0  0  0  0
 27 14  1  0  0  0  0
 28 23  1  0  0  0  0
 28  9  1  0  0  0  0
 29 20  1  0  0  0  0
 29 30  1  0  0  0  0
 30 32  2  0  0  0  0
 30 31  1  0  0  0  0
M  END
>  <MODEL>
7

>  <REMARK>
 VINA RESULT:      -9.3      4.077      8.736
  Name = 
  2 active torsions:
  status: ('A' for Active; 'I' for Inactive)
    1  A    between atoms: C_20  and  O_29
    2  A    between atoms: O_29  and  C_30
                            x       y       z     vdW  Elec       q    Type
                         _______ _______ _______ _____ _____    ______ ____

>  <TORSDO>
F 2

$$$$
=
 OpenBabel11122410403D

 32 38  0  0  1  0  0  0  0  0999 V2000
  190.0670  176.6390  146.8270 C   0  0  1  0  0  3  0  0  0  0  0  0
  188.3710  177.7180  141.9260 C   0  0  0  0  0  0  0  0  0  0  0  0
  183.5890  178.5550  142.5220 C   0  0  0  0  0  3  0  0  0  0  0  0
  183.4330  178.6890  141.1450 C   0  0  0  0  0  3  0  0  0  0  0  0
  189.3420  177.7450  139.6170 C   0  0  0  0  0  0  0  0  0  0  0  0
  189.1010  177.8950  138.2570 C   0  0  0  0  0  0  0  0  0  0  0  0
  189.8310  177.6530  143.9970 C   0  0  1  0  0  3  0  0  0  0  0  0
  187.3760  177.8030  144.2810 C   0  0  0  0  0  2  0  0  0  0  0  0
  187.9810  178.2410  136.4330 N   0  0  0  0  0  0  0  0  0  0  0  0
  188.7190  177.1150  146.2830 C   0  0  2  0  0  3  0  0  0  0  0  0
  184.8490  178.2790  143.0550 C   0  0  0  0  0  3  0  0  0  0  0  0
  187.2360  177.8510  142.7710 C   0  0  0  0  0  0  0  0  0  0  0  0
  185.9720  178.1350  142.2220 C   0  0  0  0  0  0  0  0  0  0  0  0
  186.9270  178.1420  139.9700 C   0  0  0  0  0  0  0  0  0  0  0  0
  189.2580  178.0430  136.1310 N   0  0  0  0  0  0  0  0  0  0  0  0
  191.0690  176.2170  145.7300 C   0  0  0  0  0  2  0  0  0  0  0  0
  188.6270  177.0760  144.7430 C   0  0  2  0  0  3  0  0  0  0  0  0
  189.9750  177.8270  137.2330 N   0  0  0  0  0  0  0  0  0  0  0  0
  191.1810  177.1670  144.5300 C   0  0  0  0  0  2  0  0  0  0  0  0
  189.7260  178.1250  146.8250 C   0  0  1  0  0  3  0  0  0  0  0  0
  184.5360  178.5510  140.3030 C   0  0  0  0  0  3  0  0  0  0  0  0
  185.8140  178.2740  140.8240 C   0  0  0  0  0  0  0  0  0  0  0  0
  186.7550  178.2850  138.5730 C   0  0  0  0  0  3  0  0  0  0  0  0
  189.6970  177.3010  142.5260 C   0  0  0  0  0  2  0  0  0  0  0  0
  190.6430  177.4980  140.0420 O   0  0  0  0  0  1  0  0  0  0  0  0
  186.9300  178.5070  135.4660 C   0  0  0  0  0  1  0  0  0  0  0  0
  188.2310  177.8630  140.5170 C   0  0  0  0  0  0  0  0  0  0  0  0
  187.8680  178.1510  137.7630 C   0  0  0  0  0  0  0  0  0  0  0  0
  189.3370  178.5190  148.1320 O   0  0  0  0  0  0  0  0  0  0  0  0
  188.0280  178.3730  148.5960 C   0  0  0  0  0  0  0  0  0  0  0  0
  186.8970  179.1490  148.0060 C   0  0  0  0  0  1  0  0  0  0  0  0
  187.7930  177.5710  149.5360 O   0  0  0  0  0  0  0  0  0  0  0  0
  1 16  1  6  0  0  0
  2 24  1  0  0  0  0
  2 12  1  0  0  0  0
  3 11  2  0  0  0  0
  4  3  1  0  0  0  0
  5 25  1  0  0  0  0
  5 27  1  0  0  0  0
  6  5  2  0  0  0  0
  7 24  1  6  0  0  0
  7 19  1  0  0  0  0
  7 17  1  0  0  0  0
  8 17  1  0  0  0  0
  9 28  1  0  0  0  0
 10 20  1  0  0  0  0
 10  1  1  0  0  0  0
 12  8  1  0  0  0  0
 13 12  2  0  0  0  0
 13 11  1  0  0  0  0
 14 27  1  0  0  0  0
 14 22  2  0  0  0  0
 15  9  1  0  0  0  0
 15 18  2  0  0  0  0
 17 10  1  0  0  0  0
 18  6  1  0  0  0  0
 19 16  1  0  0  0  0
 20  1  1  0  0  0  0
 20 29  1  0  0  0  0
 21 22  1  0  0  0  0
 21  4  2  0  0  0  0
 22 13  1  0  0  0  0
 23 14  1  0  0  0  0
 26  9  1  0  0  0  0
 27  2  2  0  0  0  0
 28  6  1  0  0  0  0
 28 23  2  0  0  0  0
 29 30  1  0  0  0  0
 30 32  2  0  0  0  0
 31 30  1  0  0  0  0
M  END
>  <MODEL>
8

>  <REMARK>
 VINA RESULT:      -9.3      3.090      4.992
  Name = 
  2 active torsions:
  status: ('A' for Active; 'I' for Inactive)
    1  A    between atoms: C_20  and  O_29
    2  A    between atoms: O_29  and  C_30
                            x       y       z     vdW  Elec       q    Type
                         _______ _______ _______ _____ _____    ______ ____

>  <TORSDO>
F 2

$$$$
=
 OpenBabel11122410403D

 32 38  0  0  1  0  0  0  0  0999 V2000
  190.3350  177.9050  145.5820 C   0  0  1  0  0  3  0  0  0  0  0  0
  185.6720  178.2950  143.0970 C   0  0  0  0  0  0  0  0  0  0  0  0
  186.8940  178.3520  138.3620 C   0  0  0  0  0  3  0  0  0  0  0  0
  185.5610  178.5570  138.0120 C   0  0  0  0  0  3  0  0  0  0  0  0
  183.2700  178.5740  143.7470 C   0  0  0  0  0  0  0  0  0  0  0  0
  181.9650  178.7780  143.3150 C   0  0  0  0  0  0  0  0  0  0  0  0
  187.4460  177.6050  144.7720 C   0  0  1  0  0  3  0  0  0  0  0  0
  188.1030  177.9050  142.4030 C   0  0  0  0  0  2  0  0  0  0  0  0
  180.3220  179.0770  141.9320 N   0  0  0  0  0  0  0  0  0  0  0  0
  189.9450  177.8470  144.1040 C   0  0  2  0  0  3  0  0  0  0  0  0
  187.2510  178.2390  139.7060 C   0  0  0  0  0  3  0  0  0  0  0  0
  186.6560  178.2180  142.0740 C   0  0  0  0  0  0  0  0  0  0  0  0
  186.2820  178.3280  140.7220 C   0  0  0  0  0  0  0  0  0  0  0  0
  183.9420  178.6160  141.3680 C   0  0  0  0  0  0  0  0  0  0  0  0
  179.8520  179.0680  143.1740 N   0  0  0  0  0  0  0  0  0  0  0  0
  189.1830  178.3400  146.5140 C   0  0  0  0  0  2  0  0  0  0  0  0
  188.4770  178.2400  143.8370 C   0  0  2  0  0  3  0  0  0  0  0  0
  180.8400  178.8860  144.0490 N   0  0  0  0  0  0  0  0  0  0  0  0
  187.8270  177.6740  146.2530 C   0  0  0  0  0  2  0  0  0  0  0  0
  190.1140  176.5580  144.9020 C   0  0  1  0  0  3  0  0  0  0  0  0
  184.5870  178.6460  139.0070 C   0  0  0  0  0  3  0  0  0  0  0  0
  184.9300  178.5330  140.3680 C   0  0  0  0  0  0  0  0  0  0  0  0
  182.5910  178.8200  140.9990 C   0  0  0  0  0  3  0  0  0  0  0  0
  186.1090  178.2890  144.5470 C   0  0  0  0  0  2  0  0  0  0  0  0
  183.5090  178.4490  145.1110 O   0  0  0  0  0  1  0  0  0  0  0  0
  179.5120  179.2510  140.7390 C   0  0  0  0  0  1  0  0  0  0  0  0
  184.3050  178.4940  142.7580 C   0  0  0  0  0  0  0  0  0  0  0  0
  181.6450  178.8960  142.0060 C   0  0  0  0  0  0  0  0  0  0  0  0
  191.3710  175.9770  144.5920 O   0  0  0  0  0  0  0  0  0  0  0  0
  192.0850  175.2090  145.5130 C   0  0  0  0  0  0  0  0  0  0  0  0
  192.2300  175.6310  146.9380 C   0  0  0  0  0  1  0  0  0  0  0  0
  192.6220  174.1360  145.1360 O   0  0  0  0  0  0  0  0  0  0  0  0
  1 16  1  1  0  0  0
  2 24  1  0  0  0  0
  3 11  1  0  0  0  0
  4  3  2  0  0  0  0
  4 21  1  0  0  0  0
  5 25  1  0  0  0  0
  6  5  1  0  0  0  0
  6 18  1  0  0  0  0
  7 24  1  1  0  0  0
  7 19  1  0  0  0  0
  8 17  1  0  0  0  0
  9 28  1  0  0  0  0
  9 15  1  0  0  0  0
 10 20  1  0  0  0  0
 10  1  1  0  0  0  0
 11 13  2  0  0  0  0
 12  8  1  0  0  0  0
 12  2  2  0  0  0  0
 13 12  1  0  0  0  0
 14 27  1  0  0  0  0
 15 18  2  0  0  0  0
 17 10  1  0  0  0  0
 17  7  1  0  0  0  0
 19 16  1  0  0  0  0
 20  1  1  0  0  0  0
 21 22  2  0  0  0  0
 22 13  1  0  0  0  0
 22 14  1  0  0  0  0
 23 14  2  0  0  0  0
 23 28  1  0  0  0  0
 26  9  1  0  0  0  0
 27  2  1  0  0  0  0
 27  5  2  0  0  0  0
 28  6  2  0  0  0  0
 29 20  1  0  0  0  0
 29 30  1  0  0  0  0
 30 31  1  0  0  0  0
 32 30  2  0  0  0  0
M  END
>  <MODEL>
9

>  <REMARK>
 VINA RESULT:      -9.3      1.551      2.201
  Name = 
  2 active torsions:
  status: ('A' for Active; 'I' for Inactive)
    1  A    between atoms: C_20  and  O_29
    2  A    between atoms: O_29  and  C_30
                            x       y       z     vdW  Elec       q    Type
                         _______ _______ _______ _____ _____    ______ ____

>  <TORSDO>
F 2

$$$$
