=
 OpenBabel11122411083D

 31 35  0  0  0  0  0  0  0  0999 V2000
  184.6820  178.7040  144.7710 C   0  0  0  0  0  0  0  0  0  0  0  0
  188.2560  177.6260  144.2820 C   0  0  0  0  0  0  0  0  0  0  0  0
  188.8430  177.5030  145.5760 C   0  0  0  0  0  0  0  0  0  0  0  0
  187.8850  177.5340  139.0350 O   0  0  0  0  0  0  0  0  0  0  0  0
  189.0560  177.2000  139.3580 C   0  0  0  0  0  0  0  0  0  0  0  0
  188.7540  177.6230  148.0140 C   0  0  0  0  0  0  0  0  0  0  0  0
  186.9070  178.0160  144.0330 C   0  0  0  0  0  0  0  0  0  0  0  0
  184.2520  178.7800  143.4480 C   0  0  0  0  0  3  0  0  0  0  0  0
  188.1390  177.7560  146.7660 C   0  0  0  0  0  3  0  0  0  0  0  0
  188.5770  177.4390  141.8610 C   0  0  0  0  0  0  0  0  0  0  0  0
  183.8050  179.0030  145.8050 O   0  0  0  0  0  1  0  0  0  0  0  0
  190.9140  176.8500  144.5590 N   0  0  0  0  0  0  0  0  0  0  0  0
  188.0350  177.8800  149.1720 O   0  0  0  0  0  1  0  0  0  0  0  0
  187.2870  177.8120  141.6650 N   0  0  0  0  0  0  0  0  0  0  0  0
  189.0830  177.3390  143.1630 C   0  0  0  0  0  0  0  0  0  0  0  0
  189.4270  177.1440  140.7440 N   0  0  0  0  0  2  0  0  0  0  0  0
  185.9950  178.3250  145.0580 C   0  0  0  0  0  3  0  0  0  0  0  0
  190.0900  177.2300  148.0930 C   0  0  0  0  0  3  0  0  0  0  0  0
  186.4520  178.1000  142.6930 C   0  0  0  0  0  0  0  0  0  0  0  0
  185.1360  178.4780  142.4110 C   0  0  0  0  0  3  0  0  0  0  0  0
  190.3760  176.9630  143.3470 N   0  0  0  0  0  0  0  0  0  0  0  0
  190.1980  177.1050  145.6780 C   0  0  0  0  0  0  0  0  0  0  0  0
  190.8100  176.9720  146.9280 C   0  0  0  0  0  3  0  0  0  0  0  0
  192.0910  176.2180  136.4730 C   0  0  0  0  0  0  0  0  0  0  0  0
  191.3980  176.6960  138.7360 C   0  0  0  0  0  3  0  0  0  0  0  0
  188.1390  176.8720  136.2800 Cl  0  0  0  0  0  0  0  0  0  0  0  0
  193.0650  175.9090  135.5840 F   0  0  0  0  0  0  0  0  0  0  0  0
  192.4030  176.3780  137.8220 C   0  0  0  0  0  3  0  0  0  0  0  0
  189.7580  176.6970  136.9460 C   0  0  0  0  0  0  0  0  0  0  0  0
  190.0650  176.8620  138.3220 C   0  0  0  0  0  0  0  0  0  0  0  0
  190.7750  176.3780  136.0400 C   0  0  0  0  0  3  0  0  0  0  0  0
  1 17  1  0  0  0  0
  1 11  1  0  0  0  0
  2  3  1  0  0  0  0
  3 22  2  0  0  0  0
  3  9  1  0  0  0  0
  4  5  2  0  0  0  0
  5 16  1  0  0  0  0
  6 18  1  0  0  0  0
  6 13  1  0  0  0  0
  7  2  1  0  0  0  0
  7 17  2  0  0  0  0
  8  1  2  0  0  0  0
  9  6  2  0  0  0  0
 10 15  1  0  0  0  0
 12 22  1  0  0  0  0
 14 10  2  0  0  0  0
 14 19  1  0  0  0  0
 15 21  1  0  0  0  0
 15  2  2  0  0  0  0
 16 10  1  0  0  0  0
 19  7  1  0  0  0  0
 20 19  2  0  0  0  0
 20  8  1  0  0  0  0
 21 12  2  0  0  0  0
 22 23  1  0  0  0  0
 23 18  2  0  0  0  0
 24 28  1  0  0  0  0
 26 29  1  0  0  0  0
 27 24  1  0  0  0  0
 28 25  2  0  0  0  0
 29 30  2  0  0  0  0
 30 25  1  0  0  0  0
 30  5  1  0  0  0  0
 31 24  2  0  0  0  0
 31 29  1  0  0  0  0
M  END
>  <MODEL>
1

>  <REMARK>
 VINA RESULT:     -11.5      0.000      0.000
  Name = 
  1 active torsions:
  status: ('A' for Active; 'I' for Inactive)
    1  A    between atoms: C_5  and  C_30
                            x       y       z     vdW  Elec       q    Type
                         _______ _______ _______ _____ _____    ______ ____

>  <TORSDO>
F 1

$$$$
=
 OpenBabel11122411083D

 31 35  0  0  0  0  0  0  0  0999 V2000
  190.7350  177.4190  141.6390 C   0  0  0  0  0  0  0  0  0  0  0  0
  187.3430  178.0670  143.1390 C   0  0  0  0  0  0  0  0  0  0  0  0
  187.4570  177.8680  144.5470 C   0  0  0  0  0  0  0  0  0  0  0  0
  185.1110  179.1730  138.5060 O   0  0  0  0  0  0  0  0  0  0  0  0
  184.2350  179.2780  139.4060 C   0  0  0  0  0  0  0  0  0  0  0  0
  188.7250  177.3150  146.5600 C   0  0  0  0  0  0  0  0  0  0  0  0
  188.4120  177.9180  142.2060 C   0  0  0  0  0  0  0  0  0  0  0  0
  190.4690  177.6470  140.2900 C   0  0  0  0  0  3  0  0  0  0  0  0
  188.6590  177.4990  145.1760 C   0  0  0  0  0  3  0  0  0  0  0  0
  185.8800  178.6510  141.2640 C   0  0  0  0  0  0  0  0  0  0  0  0
  192.0130  177.0570  142.0440 O   0  0  0  0  0  1  0  0  0  0  0  0
  185.1340  178.4060  144.7960 N   0  0  0  0  0  0  0  0  0  0  0  0
  189.9240  176.9500  147.1540 O   0  0  0  0  0  1  0  0  0  0  0  0
  186.9220  178.5000  140.4080 N   0  0  0  0  0  0  0  0  0  0  0  0
  186.0680  178.4390  142.6360 C   0  0  0  0  0  0  0  0  0  0  0  0
  184.5840  179.0270  140.7750 N   0  0  0  0  0  2  0  0  0  0  0  0
  189.7170  177.5540  142.5850 C   0  0  0  0  0  3  0  0  0  0  0  0
  187.5850  177.4990  147.3430 C   0  0  0  0  0  3  0  0  0  0  0  0
  188.1600  178.1460  140.8300 C   0  0  0  0  0  0  0  0  0  0  0  0
  189.1830  178.0100  139.8870 C   0  0  0  0  0  3  0  0  0  0  0  0
  185.0170  178.5940  143.4840 N   0  0  0  0  0  0  0  0  0  0  0  0
  186.3120  178.0510  145.3590 C   0  0  0  0  0  0  0  0  0  0  0  0
  186.3820  177.8660  146.7430 C   0  0  0  0  0  3  0  0  0  0  0  0
  180.2460  180.5330  138.4040 C   0  0  0  0  0  0  0  0  0  0  0  0
  182.6010  180.9860  138.6760 C   0  0  0  0  0  3  0  0  0  0  0  0
  181.8840  177.0740  139.6020 Cl  0  0  0  0  0  0  0  0  0  0  0  0
  178.9990  180.9520  138.0830 F   0  0  0  0  0  0  0  0  0  0  0  0
  181.3170  181.4220  138.3450 C   0  0  0  0  0  3  0  0  0  0  0  0
  181.7410  178.7620  139.1270 C   0  0  0  0  0  0  0  0  0  0  0  0
  182.8400  179.6600  139.0700 C   0  0  0  0  0  0  0  0  0  0  0  0
  180.4590  179.2100  138.7930 C   0  0  0  0  0  3  0  0  0  0  0  0
  1 11  1  0  0  0  0
  1 17  1  0  0  0  0
  2  3  1  0  0  0  0
  3  9  2  0  0  0  0
  3 22  1  0  0  0  0
  4  5  2  0  0  0  0
  5 16  1  0  0  0  0
  6 13  1  0  0  0  0
  6 18  2  0  0  0  0
  7 17  2  0  0  0  0
  7  2  1  0  0  0  0
  8  1  2  0  0  0  0
  9  6  1  0  0  0  0
 10 15  1  0  0  0  0
 12 22  1  0  0  0  0
 14 19  1  0  0  0  0
 14 10  2  0  0  0  0
 15  2  2  0  0  0  0
 15 21  1  0  0  0  0
 16 10  1  0  0  0  0
 19  7  1  0  0  0  0
 20  8  1  0  0  0  0
 20 19  2  0  0  0  0
 21 12  2  0  0  0  0
 22 23  2  0  0  0  0
 23 18  1  0  0  0  0
 24 31  1  0  0  0  0
 25 30  2  0  0  0  0
 27 24  1  0  0  0  0
 28 24  2  0  0  0  0
 28 25  1  0  0  0  0
 29 26  1  0  0  0  0
 30 29  1  0  0  0  0
 30  5  1  0  0  0  0
 31 29  2  0  0  0  0
M  END
>  <MODEL>
2

>  <REMARK>
 VINA RESULT:     -11.0      4.318      6.716
  Name = 
  1 active torsions:
  status: ('A' for Active; 'I' for Inactive)
    1  A    between atoms: C_5  and  C_30
                            x       y       z     vdW  Elec       q    Type
                         _______ _______ _______ _____ _____    ______ ____

>  <TORSDO>
F 1

$$$$
=
 OpenBabel11122411083D

 31 35  0  0  0  0  0  0  0  0999 V2000
  186.8330  178.0170  147.3210 C   0  0  0  0  0  0  0  0  0  0  0  0
  187.6030  177.8610  143.6380 C   0  0  0  0  0  0  0  0  0  0  0  0
  188.9990  177.6010  143.5080 C   0  0  0  0  0  0  0  0  0  0  0  0
  182.6280  178.7810  142.1950 O   0  0  0  0  0  0  0  0  0  0  0  0
  183.3280  178.6480  141.1560 C   0  0  0  0  0  0  0  0  0  0  0  0
  191.2210  177.1910  144.4350 C   0  0  0  0  0  0  0  0  0  0  0  0
  186.9120  177.9940  144.8790 C   0  0  0  0  0  0  0  0  0  0  0  0
  185.4630  178.2710  147.2870 C   0  0  0  0  0  3  0  0  0  0  0  0
  189.8590  177.4450  144.6090 C   0  0  0  0  0  3  0  0  0  0  0  0
  185.4760  178.2530  142.4890 C   0  0  0  0  0  0  0  0  0  0  0  0
  187.4890  177.8990  148.5380 O   0  0  0  0  0  1  0  0  0  0  0  0
  188.7680  177.6360  141.1210 N   0  0  0  0  0  0  0  0  0  0  0  0
  192.0460  177.0420  145.5410 O   0  0  0  0  0  1  0  0  0  0  0  0
  184.8540  178.3720  143.6900 N   0  0  0  0  0  0  0  0  0  0  0  0
  186.8530  177.9970  142.4400 C   0  0  0  0  0  0  0  0  0  0  0  0
  184.7340  178.3860  141.2680 N   0  0  0  0  0  2  0  0  0  0  0  0
  187.5480  177.8800  146.1290 C   0  0  0  0  0  3  0  0  0  0  0  0
  191.7520  177.0880  143.1490 C   0  0  0  0  0  3  0  0  0  0  0  0
  185.5180  178.2530  144.8650 C   0  0  0  0  0  0  0  0  0  0  0  0
  184.8080  178.3890  146.0610 C   0  0  0  0  0  3  0  0  0  0  0  0
  187.4640  177.8790  141.2330 N   0  0  0  0  0  0  0  0  0  0  0  0
  189.5570  177.4930  142.2110 C   0  0  0  0  0  0  0  0  0  0  0  0
  190.9210  177.2390  142.0400 C   0  0  0  0  0  3  0  0  0  0  0  0
  181.5560  179.1230  137.2660 C   0  0  0  0  0  0  0  0  0  0  0  0
  182.4410  180.0430  139.3150 C   0  0  0  0  0  3  0  0  0  0  0  0
  182.6810  175.9700  139.4730 Cl  0  0  0  0  0  0  0  0  0  0  0  0
  180.9980  179.3000  136.0450 F   0  0  0  0  0  0  0  0  0  0  0  0
  181.8660  180.2280  138.0560 C   0  0  0  0  0  3  0  0  0  0  0  0
  182.3950  177.6380  138.9940 C   0  0  0  0  0  0  0  0  0  0  0  0
  182.7150  178.7570  139.8070 C   0  0  0  0  0  0  0  0  0  0  0  0
  181.8200  177.8360  137.7340 C   0  0  0  0  0  3  0  0  0  0  0  0
  1 11  1  0  0  0  0
  2  7  1  0  0  0  0
  3  2  1  0  0  0  0
  3  9  1  0  0  0  0
  5 16  1  0  0  0  0
  5  4  2  0  0  0  0
  6  9  2  0  0  0  0
  6 13  1  0  0  0  0
  7 17  1  0  0  0  0
  8  1  1  0  0  0  0
 10 14  2  0  0  0  0
 12 21  2  0  0  0  0
 12 22  1  0  0  0  0
 14 19  1  0  0  0  0
 15 10  1  0  0  0  0
 15  2  2  0  0  0  0
 16 10  1  0  0  0  0
 17  1  2  0  0  0  0
 18  6  1  0  0  0  0
 19  7  2  0  0  0  0
 19 20  1  0  0  0  0
 20  8  2  0  0  0  0
 21 15  1  0  0  0  0
 22  3  2  0  0  0  0
 23 22  1  0  0  0  0
 23 18  2  0  0  0  0
 24 31  2  0  0  0  0
 24 28  1  0  0  0  0
 25 30  1  0  0  0  0
 27 24  1  0  0  0  0
 28 25  2  0  0  0  0
 29 26  1  0  0  0  0
 29 30  2  0  0  0  0
 30  5  1  0  0  0  0
 31 29  1  0  0  0  0
M  END
>  <MODEL>
3

>  <REMARK>
 VINA RESULT:     -10.8      3.870      5.953
  Name = 
  1 active torsions:
  status: ('A' for Active; 'I' for Inactive)
    1  A    between atoms: C_5  and  C_30
                            x       y       z     vdW  Elec       q    Type
                         _______ _______ _______ _____ _____    ______ ____

>  <TORSDO>
F 1

$$$$
=
 OpenBabel11122411083D

 31 35  0  0  0  0  0  0  0  0999 V2000
  191.4790  177.3530  141.3900 C   0  0  0  0  0  0  0  0  0  0  0  0
  188.6620  177.5360  143.8820 C   0  0  0  0  0  0  0  0  0  0  0  0
  189.2170  177.2740  145.1700 C   0  0  0  0  0  0  0  0  0  0  0  0
  185.0320  178.6380  140.2370 O   0  0  0  0  0  0  0  0  0  0  0  0
  184.4680  178.5950  141.3630 C   0  0  0  0  0  0  0  0  0  0  0  0
  191.0830  176.7560  146.6580 C   0  0  0  0  0  0  0  0  0  0  0  0
  189.4040  177.5580  142.6640 C   0  0  0  0  0  0  0  0  0  0  0  0
  190.7940  177.6240  140.2070 C   0  0  0  0  0  3  0  0  0  0  0  0
  190.5820  177.0070  145.3790 C   0  0  0  0  0  3  0  0  0  0  0  0
  186.6500  178.0550  142.5860 C   0  0  0  0  0  0  0  0  0  0  0  0
  192.8460  177.1140  141.3630 O   0  0  0  0  0  1  0  0  0  0  0  0
  187.0430  177.5350  146.1450 N   0  0  0  0  0  0  0  0  0  0  0  0
  192.4340  176.4950  146.8350 O   0  0  0  0  0  1  0  0  0  0  0  0
  187.3910  178.0680  141.4490 N   0  0  0  0  0  0  0  0  0  0  0  0
  187.2660  177.7900  143.8160 C   0  0  0  0  0  0  0  0  0  0  0  0
  185.2390  178.3100  142.5390 N   0  0  0  0  0  2  0  0  0  0  0  0
  190.7890  177.3210  142.6040 C   0  0  0  0  0  3  0  0  0  0  0  0
  190.2250  176.7690  147.7580 C   0  0  0  0  0  3  0  0  0  0  0  0
  188.7250  177.8320  141.4500 C   0  0  0  0  0  0  0  0  0  0  0  0
  189.4200  177.8620  140.2380 C   0  0  0  0  0  3  0  0  0  0  0  0
  186.5150  177.7800  144.9480 N   0  0  0  0  0  0  0  0  0  0  0  0
  188.3630  177.2830  146.2980 C   0  0  0  0  0  0  0  0  0  0  0  0
  188.8680  177.0320  147.5770 C   0  0  0  0  0  3  0  0  0  0  0  0
  180.2590  179.3030  141.8970 C   0  0  0  0  0  0  0  0  0  0  0  0
  182.4860  179.0110  142.7840 C   0  0  0  0  0  3  0  0  0  0  0  0
  182.6240  178.7020  138.7150 Cl  0  0  0  0  0  0  0  0  0  0  0  0
  178.9380  179.5270  142.0920 F   0  0  0  0  0  0  0  0  0  0  0  0
  181.1240  179.2420  142.9880 C   0  0  0  0  0  3  0  0  0  0  0  0
  182.1180  178.9000  140.3870 C   0  0  0  0  0  0  0  0  0  0  0  0
  183.0080  178.8360  141.4920 C   0  0  0  0  0  0  0  0  0  0  0  0
  180.7560  179.1330  140.6050 C   0  0  0  0  0  3  0  0  0  0  0  0
  1 17  1  0  0  0  0
  2  3  1  0  0  0  0
  3  9  2  0  0  0  0
  3 22  1  0  0  0  0
  4  5  2  0  0  0  0
  5 30  1  0  0  0  0
  5 16  1  0  0  0  0
  6 13  1  0  0  0  0
  6 18  2  0  0  0  0
  7  2  1  0  0  0  0
  8 20  1  0  0  0  0
  8  1  2  0  0  0  0
  9  6  1  0  0  0  0
 10 15  1  0  0  0  0
 11  1  1  0  0  0  0
 12 22  1  0  0  0  0
 14 19  1  0  0  0  0
 14 10  2  0  0  0  0
 15  2  2  0  0  0  0
 15 21  1  0  0  0  0
 16 10  1  0  0  0  0
 17  7  2  0  0  0  0
 19  7  1  0  0  0  0
 20 19  2  0  0  0  0
 21 12  2  0  0  0  0
 22 23  2  0  0  0  0
 23 18  1  0  0  0  0
 24 27  1  0  0  0  0
 24 28  1  0  0  0  0
 25 28  2  0  0  0  0
 26 29  1  0  0  0  0
 29 31  1  0  0  0  0
 29 30  2  0  0  0  0
 30 25  1  0  0  0  0
 31 24  2  0  0  0  0
M  END
>  <MODEL>
4

>  <REMARK>
 VINA RESULT:     -10.5      3.979      6.837
  Name = 
  1 active torsions:
  status: ('A' for Active; 'I' for Inactive)
    1  A    between atoms: C_5  and  C_30
                            x       y       z     vdW  Elec       q    Type
                         _______ _______ _______ _____ _____    ______ ____

>  <TORSDO>
F 1

$$$$
=
 OpenBabel11122411083D

 31 35  0  0  0  0  0  0  0  0999 V2000
  183.6870  178.9790  139.6670 C   0  0  0  0  0  0  0  0  0  0  0  0
  187.3340  178.0960  139.9840 C   0  0  0  0  0  0  0  0  0  0  0  0
  187.8710  178.0320  138.6640 C   0  0  0  0  0  0  0  0  0  0  0  0
  187.1920  177.8760  145.2380 O   0  0  0  0  0  0  0  0  0  0  0  0
  188.3650  177.6150  144.8590 C   0  0  0  0  0  0  0  0  0  0  0  0
  187.6720  178.1960  136.2360 C   0  0  0  0  0  0  0  0  0  0  0  0
  185.9770  178.4040  140.2970 C   0  0  0  0  0  0  0  0  0  0  0  0
  183.3110  179.0040  141.0090 C   0  0  0  0  0  3  0  0  0  0  0  0
  187.1050  178.2700  137.5100 C   0  0  0  0  0  3  0  0  0  0  0  0
  187.7670  177.8770  142.3850 C   0  0  0  0  0  0  0  0  0  0  0  0
  182.7530  179.2490  138.6770 O   0  0  0  0  0  1  0  0  0  0  0  0
  190.0160  177.4770  139.5800 N   0  0  0  0  0  0  0  0  0  0  0  0
  186.8910  178.4360  135.1140 O   0  0  0  0  0  1  0  0  0  0  0  0
  186.4680  178.1740  142.6420 N   0  0  0  0  0  0  0  0  0  0  0  0
  188.2220  177.8330  141.0600 C   0  0  0  0  0  0  0  0  0  0  0  0
  188.6790  177.6080  143.4590 N   0  0  0  0  0  2  0  0  0  0  0  0
  185.0060  178.6820  139.3180 C   0  0  0  0  0  3  0  0  0  0  0  0
  189.0230  177.8820  136.0920 C   0  0  0  0  0  3  0  0  0  0  0  0
  185.5750  178.4340  141.6560 C   0  0  0  0  0  0  0  0  0  0  0  0
  184.2530  178.7320  142.0010 C   0  0  0  0  0  3  0  0  0  0  0  0
  189.5250  177.5350  140.8150 N   0  0  0  0  0  0  0  0  0  0  0  0
  189.2410  177.7150  138.4970 C   0  0  0  0  0  0  0  0  0  0  0  0
  189.8050  177.6420  137.2200 C   0  0  0  0  0  3  0  0  0  0  0  0
  191.5530  176.6860  147.5920 C   0  0  0  0  0  0  0  0  0  0  0  0
  190.6290  176.7540  145.3630 C   0  0  0  0  0  3  0  0  0  0  0  0
  187.8830  178.2530  147.9870 Cl  0  0  0  0  0  0  0  0  0  0  0  0
  192.5720  176.3850  148.4320 F   0  0  0  0  0  0  0  0  0  0  0  0
  191.6810  176.4420  146.2260 C   0  0  0  0  0  3  0  0  0  0  0  0
  189.3140  177.5580  147.2380 C   0  0  0  0  0  0  0  0  0  0  0  0
  189.4340  177.3130  145.8450 C   0  0  0  0  0  0  0  0  0  0  0  0
  190.3760  177.2410  148.0930 C   0  0  0  0  0  3  0  0  0  0  0  0
  1  8  1  0  0  0  0
  2  7  1  0  0  0  0
  2 15  1  0  0  0  0
  3  2  2  0  0  0  0
  5  4  2  0  0  0  0
  5 30  1  0  0  0  0
  6  9  2  0  0  0  0
  7 19  2  0  0  0  0
  8 20  2  0  0  0  0
  9  3  1  0  0  0  0
 10 14  2  0  0  0  0
 10 16  1  0  0  0  0
 11  1  1  0  0  0  0
 12 21  1  0  0  0  0
 13  6  1  0  0  0  0
 15 10  1  0  0  0  0
 16  5  1  0  0  0  0
 17  1  2  0  0  0  0
 17  7  1  0  0  0  0
 18  6  1  0  0  0  0
 18 23  2  0  0  0  0
 19 20  1  0  0  0  0
 19 14  1  0  0  0  0
 21 15  2  0  0  0  0
 22  3  1  0  0  0  0
 22 12  2  0  0  0  0
 23 22  1  0  0  0  0
 24 31  1  0  0  0  0
 24 27  1  0  0  0  0
 25 30  2  0  0  0  0
 25 28  1  0  0  0  0
 28 24  2  0  0  0  0
 29 26  1  0  0  0  0
 29 31  2  0  0  0  0
 30 29  1  0  0  0  0
M  END
>  <MODEL>
5

>  <REMARK>
 VINA RESULT:     -10.2      3.755      7.832
  Name = 
  1 active torsions:
  status: ('A' for Active; 'I' for Inactive)
    1  A    between atoms: C_5  and  C_30
                            x       y       z     vdW  Elec       q    Type
                         _______ _______ _______ _____ _____    ______ ____

>  <TORSDO>
F 1

$$$$
=
 OpenBabel11122411083D

 31 35  0  0  0  0  0  0  0  0999 V2000
  186.5780  177.9330  145.5410 C   0  0  0  0  0  0  0  0  0  0  0  0
  187.0620  178.2700  141.8220 C   0  0  0  0  0  0  0  0  0  0  0  0
  188.4350  177.9990  141.5470 C   0  0  0  0  0  0  0  0  0  0  0  0
  182.0270  179.4950  140.9170 O   0  0  0  0  0  0  0  0  0  0  0  0
  182.6400  179.4910  139.8170 C   0  0  0  0  0  0  0  0  0  0  0  0
  190.7050  177.4130  142.2300 C   0  0  0  0  0  0  0  0  0  0  0  0
  186.4710  178.2460  143.1210 C   0  0  0  0  0  0  0  0  0  0  0  0
  185.2190  178.2210  145.6510 C   0  0  0  0  0  3  0  0  0  0  0  0
  189.3690  177.6720  142.5460 C   0  0  0  0  0  3  0  0  0  0  0  0
  184.8690  178.8660  140.9100 C   0  0  0  0  0  0  0  0  0  0  0  0
  187.3190  177.6330  146.6760 O   0  0  0  0  0  1  0  0  0  0  0  0
  188.0250  178.3690  139.2140 N   0  0  0  0  0  0  0  0  0  0  0  0
  191.6060  177.0940  143.2370 O   0  0  0  0  0  1  0  0  0  0  0  0
  184.3440  178.8320  142.1610 N   0  0  0  0  0  0  0  0  0  0  0  0
  186.2280  178.5870  140.7170 C   0  0  0  0  0  0  0  0  0  0  0  0
  184.0420  179.1840  139.7810 N   0  0  0  0  0  2  0  0  0  0  0  0
  187.1950  177.9460  144.2890 C   0  0  0  0  0  3  0  0  0  0  0  0
  191.1340  177.4770  140.9050 C   0  0  0  0  0  3  0  0  0  0  0  0
  185.0900  178.5370  143.2530 C   0  0  0  0  0  0  0  0  0  0  0  0
  184.4770  178.5230  144.5090 C   0  0  0  0  0  3  0  0  0  0  0  0
  186.7430  178.6230  139.4600 N   0  0  0  0  0  0  0  0  0  0  0  0
  188.8890  178.0570  140.2070 C   0  0  0  0  0  0  0  0  0  0  0  0
  190.2270  177.7980  139.8960 C   0  0  0  0  0  3  0  0  0  0  0  0
  180.5730  180.5370  136.1930 C   0  0  0  0  0  0  0  0  0  0  0  0
  181.4790  181.1150  138.3550 C   0  0  0  0  0  3  0  0  0  0  0  0
  182.1980  177.1620  137.6260 Cl  0  0  0  0  0  0  0  0  0  0  0  0
  179.9190  180.8910  135.0620 F   0  0  0  0  0  0  0  0  0  0  0  0
  180.8050  181.4830  137.1900 C   0  0  0  0  0  3  0  0  0  0  0  0
  181.6910  178.8430  137.5280 C   0  0  0  0  0  0  0  0  0  0  0  0
  181.9320  179.8000  138.5480 C   0  0  0  0  0  0  0  0  0  0  0  0
  181.0140  179.2240  136.3640 C   0  0  0  0  0  3  0  0  0  0  0  0
  1  8  1  0  0  0  0
  1 11  1  0  0  0  0
  2  7  1  0  0  0  0
  3  2  1  0  0  0  0
  3  9  1  0  0  0  0
  5  4  2  0  0  0  0
  6  9  2  0  0  0  0
  6 13  1  0  0  0  0
  7 19  2  0  0  0  0
  7 17  1  0  0  0  0
 10 14  2  0  0  0  0
 12 21  2  0  0  0  0
 12 22  1  0  0  0  0
 14 19  1  0  0  0  0
 15 10  1  0  0  0  0
 15  2  2  0  0  0  0
 16  5  1  0  0  0  0
 16 10  1  0  0  0  0
 17  1  2  0  0  0  0
 18  6  1  0  0  0  0
 19 20  1  0  0  0  0
 20  8  2  0  0  0  0
 21 15  1  0  0  0  0
 22  3  2  0  0  0  0
 23 22  1  0  0  0  0
 23 18  2  0  0  0  0
 24 31  2  0  0  0  0
 24 28  1  0  0  0  0
 25 30  1  0  0  0  0
 27 24  1  0  0  0  0
 28 25  2  0  0  0  0
 29 26  1  0  0  0  0
 29 30  2  0  0  0  0
 30  5  1  0  0  0  0
 31 29  1  0  0  0  0
M  END
>  <MODEL>
6

>  <REMARK>
 VINA RESULT:     -10.2      4.575      6.841
  Name = 
  1 active torsions:
  status: ('A' for Active; 'I' for Inactive)
    1  A    between atoms: C_5  and  C_30
                            x       y       z     vdW  Elec       q    Type
                         _______ _______ _______ _____ _____    ______ ____

>  <TORSDO>
F 1

$$$$
=
 OpenBabel11122411083D

 31 35  0  0  0  0  0  0  0  0999 V2000
  188.7430  177.5710  147.2290 C   0  0  0  0  0  0  0  0  0  0  0  0
  187.4800  177.8800  143.6950 C   0  0  0  0  0  0  0  0  0  0  0  0
  186.1060  178.2530  143.7670 C   0  0  0  0  0  0  0  0  0  0  0  0
  192.1100  176.6010  141.5500 O   0  0  0  0  0  0  0  0  0  0  0  0
  191.2860  176.8160  140.6210 C   0  0  0  0  0  0  0  0  0  0  0  0
  184.0770  178.8160  145.0050 C   0  0  0  0  0  0  0  0  0  0  0  0
  188.3250  177.6610  144.8240 C   0  0  0  0  0  0  0  0  0  0  0  0
  190.0690  177.2090  146.9980 C   0  0  0  0  0  3  0  0  0  0  0  0
  185.4250  178.4500  144.9820 C   0  0  0  0  0  3  0  0  0  0  0  0
  189.3860  177.3480  142.2510 C   0  0  0  0  0  0  0  0  0  0  0  0
  188.2760  177.7100  148.5290 O   0  0  0  0  0  1  0  0  0  0  0  0
  185.9960  178.2590  141.3720 N   0  0  0  0  0  0  0  0  0  0  0  0
  183.4300  179.0030  146.2190 O   0  0  0  0  0  1  0  0  0  0  0  0
  190.1580  177.1490  143.3500 N   0  0  0  0  0  0  0  0  0  0  0  0
  188.0410  177.7140  142.4010 C   0  0  0  0  0  0  0  0  0  0  0  0
  189.9350  177.1850  140.9360 N   0  0  0  0  0  2  0  0  0  0  0  0
  187.8820  177.7940  146.1520 C   0  0  0  0  0  3  0  0  0  0  0  0
  183.3820  178.9930  143.8090 C   0  0  0  0  0  3  0  0  0  0  0  0
  189.6770  177.2920  144.6090 C   0  0  0  0  0  0  0  0  0  0  0  0
  190.5340  177.0700  145.6900 C   0  0  0  0  0  3  0  0  0  0  0  0
  187.2780  177.9110  141.2940 N   0  0  0  0  0  0  0  0  0  0  0  0
  185.3830  178.4380  142.5640 C   0  0  0  0  0  0  0  0  0  0  0  0
  184.0340  178.8040  142.5920 C   0  0  0  0  0  3  0  0  0  0  0  0
  192.6140  176.4720  136.5450 C   0  0  0  0  0  0  0  0  0  0  0  0
  193.0630  176.7530  138.9010 C   0  0  0  0  0  3  0  0  0  0  0  0
  189.0310  176.4210  138.3450 Cl  0  0  0  0  0  0  0  0  0  0  0  0
  193.0580  176.3660  135.2700 F   0  0  0  0  0  0  0  0  0  0  0  0
  193.5230  176.6440  137.5880 C   0  0  0  0  0  3  0  0  0  0  0  0
  190.7740  176.5160  138.1290 C   0  0  0  0  0  0  0  0  0  0  0  0
  191.6920  176.6920  139.1980 C   0  0  0  0  0  0  0  0  0  0  0  0
  191.2480  176.4080  136.8170 C   0  0  0  0  0  3  0  0  0  0  0  0
  1 11  1  0  0  0  0
  2  3  1  0  0  0  0
  2  7  1  0  0  0  0
  3  9  1  0  0  0  0
  5 16  1  0  0  0  0
  5  4  2  0  0  0  0
  6 13  1  0  0  0  0
  7 17  1  0  0  0  0
  8  1  1  0  0  0  0
  9  6  2  0  0  0  0
 10 15  1  0  0  0  0
 10 14  2  0  0  0  0
 12 22  1  0  0  0  0
 14 19  1  0  0  0  0
 15  2  2  0  0  0  0
 16 10  1  0  0  0  0
 17  1  2  0  0  0  0
 18  6  1  0  0  0  0
 19  7  2  0  0  0  0
 19 20  1  0  0  0  0
 20  8  2  0  0  0  0
 21 12  2  0  0  0  0
 21 15  1  0  0  0  0
 22 23  1  0  0  0  0
 22  3  2  0  0  0  0
 23 18  2  0  0  0  0
 24 31  2  0  0  0  0
 24 28  1  0  0  0  0
 25 30  1  0  0  0  0
 27 24  1  0  0  0  0
 28 25  2  0  0  0  0
 29 26  1  0  0  0  0
 29 30  2  0  0  0  0
 30  5  1  0  0  0  0
 31 29  1  0  0  0  0
M  END
>  <MODEL>
7

>  <REMARK>
 VINA RESULT:     -10.1      1.319      4.160
  Name = 
  1 active torsions:
  status: ('A' for Active; 'I' for Inactive)
    1  A    between atoms: C_5  and  C_30
                            x       y       z     vdW  Elec       q    Type
                         _______ _______ _______ _____ _____    ______ ____

>  <TORSDO>
F 1

$$$$
=
 OpenBabel11122411083D

 31 35  0  0  0  0  0  0  0  0999 V2000
  191.6540  175.9750  146.3550 C   0  0  0  0  0  0  0  0  0  0  0  0
  188.6470  177.3630  144.5650 C   0  0  0  0  0  0  0  0  0  0  0  0
  187.7410  177.8340  145.5600 C   0  0  0  0  0  0  0  0  0  0  0  0
  190.5490  176.2780  139.7810 O   0  0  0  0  0  0  0  0  0  0  0  0
  189.4190  176.8180  139.6480 C   0  0  0  0  0  0  0  0  0  0  0  0
  187.0870  178.2300  147.8800 C   0  0  0  0  0  0  0  0  0  0  0  0
  189.9130  176.7620  144.8340 C   0  0  0  0  0  0  0  0  0  0  0  0
  192.4310  175.5630  145.2740 C   0  0  0  0  0  3  0  0  0  0  0  0
  188.0040  177.7560  146.9390 C   0  0  0  0  0  3  0  0  0  0  0  0
  189.0910  177.0650  142.1740 C   0  0  0  0  0  0  0  0  0  0  0  0
  192.1170  175.7970  147.6520 O   0  0  0  0  0  1  0  0  0  0  0  0
  186.2180  178.5080  143.8340 N   0  0  0  0  0  0  0  0  0  0  0  0
  187.3740  178.1390  149.2340 O   0  0  0  0  0  1  0  0  0  0  0  0
  190.2880  176.4990  142.4710 N   0  0  0  0  0  0  0  0  0  0  0  0
  188.2530  177.5050  143.2070 C   0  0  0  0  0  0  0  0  0  0  0  0
  188.6760  177.2170  140.8100 N   0  0  0  0  0  2  0  0  0  0  0  0
  190.4090  176.5680  146.1350 C   0  0  0  0  0  3  0  0  0  0  0  0
  185.8840  178.7950  147.4570 C   0  0  0  0  0  3  0  0  0  0  0  0
  190.7160  176.3360  143.7470 C   0  0  0  0  0  0  0  0  0  0  0  0
  191.9620  175.7440  143.9720 C   0  0  0  0  0  3  0  0  0  0  0  0
  187.0570  178.0710  142.8980 N   0  0  0  0  0  0  0  0  0  0  0  0
  186.5140  178.4120  145.1510 C   0  0  0  0  0  0  0  0  0  0  0  0
  185.5990  178.8860  146.0950 C   0  0  0  0  0  3  0  0  0  0  0  0
  187.6830  177.6320  135.7980 C   0  0  0  0  0  0  0  0  0  0  0  0
  188.1300  178.2450  138.0900 C   0  0  0  0  0  3  0  0  0  0  0  0
  189.8200  174.6050  137.3320 Cl  0  0  0  0  0  0  0  0  0  0  0  0
  187.1270  177.9110  134.5950 F   0  0  0  0  0  0  0  0  0  0  0  0
  187.5560  178.5350  136.8510 C   0  0  0  0  0  3  0  0  0  0  0  0
  188.9630  176.1370  137.2210 C   0  0  0  0  0  0  0  0  0  0  0  0
  188.8390  177.0510  138.3000 C   0  0  0  0  0  0  0  0  0  0  0  0
  188.3830  176.4400  135.9840 C   0  0  0  0  0  3  0  0  0  0  0  0
  1 11  1  0  0  0  0
  2  7  1  0  0  0  0
  2  3  1  0  0  0  0
  3  9  1  0  0  0  0
  5  4  2  0  0  0  0
  5 16  1  0  0  0  0
  6 13  1  0  0  0  0
  7 17  2  0  0  0  0
  8  1  2  0  0  0  0
  9  6  2  0  0  0  0
 10 14  2  0  0  0  0
 10 15  1  0  0  0  0
 12 22  1  0  0  0  0
 14 19  1  0  0  0  0
 15  2  2  0  0  0  0
 16 10  1  0  0  0  0
 17  1  1  0  0  0  0
 18  6  1  0  0  0  0
 19 20  2  0  0  0  0
 19  7  1  0  0  0  0
 20  8  1  0  0  0  0
 21 15  1  0  0  0  0
 21 12  2  0  0  0  0
 22  3  2  0  0  0  0
 22 23  1  0  0  0  0
 23 18  2  0  0  0  0
 24 31  2  0  0  0  0
 24 28  1  0  0  0  0
 25 30  1  0  0  0  0
 27 24  1  0  0  0  0
 28 25  2  0  0  0  0
 29 26  1  0  0  0  0
 29 30  2  0  0  0  0
 30  5  1  0  0  0  0
 31 29  1  0  0  0  0
M  END
>  <MODEL>
8

>  <REMARK>
 VINA RESULT:      -9.9      2.297      4.368
  Name = 
  1 active torsions:
  status: ('A' for Active; 'I' for Inactive)
    1  A    between atoms: C_5  and  C_30
                            x       y       z     vdW  Elec       q    Type
                         _______ _______ _______ _____ _____    ______ ____

>  <TORSDO>
F 1

$$$$
=
 OpenBabel11122411083D

 31 35  0  0  0  0  0  0  0  0999 V2000
  190.7700  177.0490  145.7650 C   0  0  0  0  0  0  0  0  0  0  0  0
  188.9320  177.6180  142.5280 C   0  0  0  0  0  0  0  0  0  0  0  0
  189.8890  177.5230  141.4750 C   0  0  0  0  0  0  0  0  0  0  0  0
  184.2730  178.2890  144.8760 O   0  0  0  0  0  0  0  0  0  0  0  0
  184.1140  178.4090  143.6320 C   0  0  0  0  0  0  0  0  0  0  0  0
  192.1560  177.1740  140.6340 C   0  0  0  0  0  0  0  0  0  0  0  0
  189.2290  177.4630  143.9150 C   0  0  0  0  0  0  0  0  0  0  0  0
  189.7250  177.1700  146.6790 C   0  0  0  0  0  3  0  0  0  0  0  0
  191.2530  177.2590  141.6960 C   0  0  0  0  0  3  0  0  0  0  0  0
  186.5920  177.9970  143.1410 C   0  0  0  0  0  0  0  0  0  0  0  0
  192.0570  176.7830  146.2110 O   0  0  0  0  0  1  0  0  0  0  0  0
  188.1540  177.9540  139.8780 N   0  0  0  0  0  0  0  0  0  0  0  0
  193.4960  176.9140  140.8820 O   0  0  0  0  0  1  0  0  0  0  0  0
  186.9140  177.8420  144.4500 N   0  0  0  0  0  0  0  0  0  0  0  0
  187.5870  177.8890  142.1610 C   0  0  0  0  0  0  0  0  0  0  0  0
  185.2380  178.2710  142.7510 N   0  0  0  0  0  2  0  0  0  0  0  0
  190.5220  177.1930  144.3980 C   0  0  0  0  0  3  0  0  0  0  0  0
  191.7100  177.3510  139.3240 C   0  0  0  0  0  3  0  0  0  0  0  0
  188.1790  177.5840  144.8600 C   0  0  0  0  0  0  0  0  0  0  0  0
  188.4320  177.4380  146.2270 C   0  0  0  0  0  3  0  0  0  0  0  0
  187.2530  178.0450  140.8530 N   0  0  0  0  0  0  0  0  0  0  0  0
  189.4560  177.6980  140.1380 C   0  0  0  0  0  0  0  0  0  0  0  0
  190.3630  177.6120  139.0780 C   0  0  0  0  0  3  0  0  0  0  0  0
  180.1780  179.2620  142.1220 C   0  0  0  0  0  0  0  0  0  0  0  0
  181.7440  179.0470  143.9470 C   0  0  0  0  0  3  0  0  0  0  0  0
  183.6620  178.2020  140.4420 Cl  0  0  0  0  0  0  0  0  0  0  0  0
  178.9310  179.5350  141.6710 F   0  0  0  0  0  0  0  0  0  0  0  0
  180.4570  179.3290  143.4860 C   0  0  0  0  0  3  0  0  0  0  0  0
  182.4790  178.6280  141.6720 C   0  0  0  0  0  0  0  0  0  0  0  0
  182.7730  178.6940  143.0590 C   0  0  0  0  0  0  0  0  0  0  0  0
  181.1850  178.9130  141.2220 C   0  0  0  0  0  3  0  0  0  0  0  0
  1 11  1  0  0  0  0
  1  8  1  0  0  0  0
  2  7  1  0  0  0  0
  3  9  1  0  0  0  0
  3  2  2  0  0  0  0
  5  4  2  0  0  0  0
  6 13  1  0  0  0  0
  6  9  2  0  0  0  0
  7 17  1  0  0  0  0
  7 19  2  0  0  0  0
 10 14  2  0  0  0  0
 12 22  2  0  0  0  0
 12 21  1  0  0  0  0
 14 19  1  0  0  0  0
 15  2  1  0  0  0  0
 15 10  1  0  0  0  0
 16 10  1  0  0  0  0
 16  5  1  0  0  0  0
 17  1  2  0  0  0  0
 18  6  1  0  0  0  0
 19 20  1  0  0  0  0
 20  8  2  0  0  0  0
 21 15  2  0  0  0  0
 22  3  1  0  0  0  0
 23 18  2  0  0  0  0
 23 22  1  0  0  0  0
 24 28  1  0  0  0  0
 26 29  1  0  0  0  0
 27 24  1  0  0  0  0
 28 25  2  0  0  0  0
 29 30  2  0  0  0  0
 30  5  1  0  0  0  0
 30 25  1  0  0  0  0
 31 29  1  0  0  0  0
 31 24  2  0  0  0  0
M  END
>  <MODEL>
9

>  <REMARK>
 VINA RESULT:      -9.9      3.833      7.747
  Name = 
  1 active torsions:
  status: ('A' for Active; 'I' for Inactive)
    1  A    between atoms: C_5  and  C_30
                            x       y       z     vdW  Elec       q    Type
                         _______ _______ _______ _____ _____    ______ ____

>  <TORSDO>
F 1

$$$$
