=
 OpenBabel11122410413D

 32 38  0  0  1  0  0  0  0  0999 V2000
  188.5040  177.8140  136.9300 C   0  0  1  0  0  3  0  0  0  0  0  0
  188.1420  177.9140  142.1760 C   0  0  0  0  0  0  0  0  0  0  0  0
  183.4220  178.9720  142.8370 C   0  0  0  0  0  3  0  0  0  0  0  0
  183.5770  178.8500  144.2170 C   0  0  0  0  0  3  0  0  0  0  0  0
  189.5990  177.4420  144.1820 C   0  0  0  0  0  0  0  0  0  0  0  0
  189.6630  177.3460  145.5730 C   0  0  0  0  0  0  0  0  0  0  0  0
  188.8040  177.2930  139.8290 C   0  0  1  0  0  3  0  0  0  0  0  0
  186.6660  178.3660  140.2380 N   0  0  0  0  0  2  0  0  0  0  0  0
  188.9430  177.3950  147.6470 N   0  0  0  0  0  0  0  0  0  0  0  0
  187.3210  178.0590  137.8730 C   0  0  2  0  0  3  0  0  0  0  0  0
  184.5150  178.7730  141.9940 C   0  0  0  0  0  3  0  0  0  0  0  0
  186.8650  178.2580  141.6600 C   0  0  0  0  0  0  0  0  0  0  0  0
  185.7770  178.4510  142.5180 C   0  0  0  0  0  0  0  0  0  0  0  0
  187.2010  177.9980  144.4520 C   0  0  0  0  0  0  0  0  0  0  0  0
  190.2310  177.0820  147.6940 N   0  0  0  0  0  0  0  0  0  0  0  0
  189.8150  177.8900  137.6220 N   0  0  0  0  0  2  0  0  0  0  0  0
  187.7890  178.3070  139.3160 C   0  0  2  0  0  3  0  0  0  0  0  0
  190.7140  177.0430  146.4260 C   0  0  0  0  0  3  0  0  0  0  0  0
  189.9570  177.0840  138.8470 C   0  0  0  0  0  2  0  0  0  0  0  0
  187.6120  176.6520  137.3570 C   0  0  1  0  0  3  0  0  0  0  0  0
  184.8250  178.5290  144.7510 C   0  0  0  0  0  3  0  0  0  0  0  0
  185.9400  178.3240  143.9140 C   0  0  0  0  0  0  0  0  0  0  0  0
  187.3420  177.8820  145.8520 C   0  0  0  0  0  3  0  0  0  0  0  0
  189.2870  177.7590  141.1930 C   0  0  0  0  0  2  0  0  0  0  0  0
  190.8570  177.1700  143.4180 C   0  0  0  0  0  1  0  0  0  0  0  0
  188.0920  177.5280  148.8180 C   0  0  0  0  0  1  0  0  0  0  0  0
  188.3340  177.7830  143.5850 C   0  0  0  0  0  0  0  0  0  0  0  0
  188.5840  177.5580  146.3670 C   0  0  0  0  0  0  0  0  0  0  0  0
  186.6440  176.3220  136.2320 C   0  0  0  0  0  2  0  0  0  0  0  0
  185.2710  175.9520  136.7210 C   0  0  0  0  0  0  0  0  0  0  0  0
  184.0910  176.8560  136.5540 C   0  0  0  0  0  1  0  0  0  0  0  0
  185.1150  174.8770  137.2740 O   0  0  0  0  0  0  0  0  0  0  0  0
  1 20  1  0  0  0  0
  1 16  1  1  0  0  0
  1 10  1  0  0  0  0
  2 27  1  0  0  0  0
  3  4  1  0  0  0  0
  4 21  2  0  0  0  0
  5  6  1  0  0  0  0
  6 28  2  0  0  0  0
  6 18  1  0  0  0  0
  7 19  1  6  0  0  0
  7 24  1  0  0  0  0
  8 12  1  0  0  0  0
  9 15  1  0  0  0  0
  9 26  1  0  0  0  0
 10 17  1  0  0  0  0
 11 13  1  0  0  0  0
 11  3  2  0  0  0  0
 12  2  2  0  0  0  0
 12 13  1  0  0  0  0
 13 22  2  0  0  0  0
 14 23  2  0  0  0  0
 16 19  1  0  0  0  0
 17  7  1  0  0  0  0
 17  8  1  0  0  0  0
 18 15  2  0  0  0  0
 20 10  1  0  0  0  0
 22 14  1  0  0  0  0
 22 21  1  0  0  0  0
 23 28  1  0  0  0  0
 24  2  1  0  0  0  0
 25  5  1  0  0  0  0
 27  5  2  0  0  0  0
 27 14  1  0  0  0  0
 28  9  1  0  0  0  0
 29 30  1  0  0  0  0
 29 20  1  0  0  0  0
 30 32  2  0  0  0  0
 31 30  1  0  0  0  0
M  END
>  <MODEL>
1

>  <REMARK>
 VINA RESULT:     -11.3      0.000      0.000
  Name = 
  2 active torsions:
  status: ('A' for Active; 'I' for Inactive)
    1  A    between atoms: C_20  and  C_29
    2  A    between atoms: C_29  and  C_30
                            x       y       z     vdW  Elec       q    Type
                         _______ _______ _______ _____ _____    ______ ____

>  <TORSDO>
F 2

$$$$
=
 OpenBabel11122410413D

 32 38  0  0  1  0  0  0  0  0999 V2000
  186.1710  178.4270  136.9640 C   0  0  1  0  0  3  0  0  0  0  0  0
  187.7020  178.1020  141.9840 C   0  0  0  0  0  0  0  0  0  0  0  0
  183.5040  178.8360  144.3660 C   0  0  0  0  0  3  0  0  0  0  0  0
  184.1440  178.6170  145.5840 C   0  0  0  0  0  3  0  0  0  0  0  0
  189.7910  177.5610  143.2940 C   0  0  0  0  0  0  0  0  0  0  0  0
  190.3500  177.3610  144.5570 C   0  0  0  0  0  0  0  0  0  0  0  0
  187.4980  177.7020  139.5090 C   0  0  1  0  0  3  0  0  0  0  0  0
  185.6210  178.6170  140.7440 N   0  0  0  0  0  2  0  0  0  0  0  0
  190.4170  177.2090  146.7470 N   0  0  0  0  0  0  0  0  0  0  0  0
  185.3960  178.5320  138.2820 C   0  0  2  0  0  3  0  0  0  0  0  0
  184.2290  178.7650  143.1760 C   0  0  0  0  0  3  0  0  0  0  0  0
  186.3170  178.4120  141.9870 C   0  0  0  0  0  0  0  0  0  0  0  0
  185.6030  178.4750  143.1880 C   0  0  0  0  0  0  0  0  0  0  0  0
  187.6340  177.9570  144.4440 C   0  0  0  0  0  0  0  0  0  0  0  0
  191.6450  176.9680  146.3070 N   0  0  0  0  0  0  0  0  0  0  0  0
  187.6390  178.5240  137.1520 N   0  0  0  0  0  2  0  0  0  0  0  0
  186.3410  178.6930  139.4840 C   0  0  2  0  0  3  0  0  0  0  0  0
  191.6440  177.0540  144.9520 C   0  0  0  0  0  3  0  0  0  0  0  0
  188.2300  177.6350  138.1680 C   0  0  0  0  0  2  0  0  0  0  0  0
  185.5190  177.1860  137.5700 C   0  0  1  0  0  3  0  0  0  0  0  0
  185.5090  178.3270  145.6110 C   0  0  0  0  0  3  0  0  0  0  0  0
  186.2570  178.2510  144.4190 C   0  0  0  0  0  0  0  0  0  0  0  0
  188.2690  177.7410  145.6870 C   0  0  0  0  0  3  0  0  0  0  0  0
  188.4250  178.0890  140.6510 C   0  0  0  0  0  2  0  0  0  0  0  0
  190.7000  177.4190  142.1130 C   0  0  0  0  0  1  0  0  0  0  0  0
  190.0380  177.2030  148.1500 C   0  0  0  0  0  1  0  0  0  0  0  0
  188.3880  177.8740  143.2160 C   0  0  0  0  0  0  0  0  0  0  0  0
  189.6210  177.4500  145.6980 C   0  0  0  0  0  0  0  0  0  0  0  0
  184.2220  176.8900  136.8340 C   0  0  0  0  0  2  0  0  0  0  0  0
  183.0140  176.9240  137.7280 C   0  0  0  0  0  0  0  0  0  0  0  0
  182.8190  175.9520  138.8480 C   0  0  0  0  0  1  0  0  0  0  0  0
  182.1620  177.7730  137.5320 O   0  0  0  0  0  0  0  0  0  0  0  0
  1 16  1  1  0  0  0
  1 20  1  0  0  0  0
  1 10  1  0  0  0  0
  2 12  2  0  0  0  0
  2 27  1  0  0  0  0
  3  4  1  0  0  0  0
  4 21  2  0  0  0  0
  5  6  1  0  0  0  0
  6 18  1  0  0  0  0
  6 28  2  0  0  0  0
  7 19  1  6  0  0  0
  7 24  1  0  0  0  0
  8 12  1  0  0  0  0
  9 26  1  0  0  0  0
 10 17  1  0  0  0  0
 11 13  1  0  0  0  0
 11  3  2  0  0  0  0
 12 13  1  0  0  0  0
 13 22  2  0  0  0  0
 14 23  2  0  0  0  0
 15  9  1  0  0  0  0
 16 19  1  0  0  0  0
 17  7  1  0  0  0  0
 17  8  1  0  0  0  0
 18 15  2  0  0  0  0
 20 10  1  0  0  0  0
 22 14  1  0  0  0  0
 22 21  1  0  0  0  0
 23 28  1  0  0  0  0
 24  2  1  0  0  0  0
 25  5  1  0  0  0  0
 27  5  2  0  0  0  0
 27 14  1  0  0  0  0
 28  9  1  0  0  0  0
 29 20  1  0  0  0  0
 29 30  1  0  0  0  0
 30 31  1  0  0  0  0
 32 30  2  0  0  0  0
M  END
>  <MODEL>
2

>  <REMARK>
 VINA RESULT:     -10.3      1.462      1.760
  Name = 
  2 active torsions:
  status: ('A' for Active; 'I' for Inactive)
    1  A    between atoms: C_20  and  C_29
    2  A    between atoms: C_29  and  C_30
                            x       y       z     vdW  Elec       q    Type
                         _______ _______ _______ _____ _____    ______ ____

>  <TORSDO>
F 2

$$$$
=
 OpenBabel11122410413D

 32 38  0  0  1  0  0  0  0  0999 V2000
  181.5090  179.0950  139.1330 C   0  0  1  0  0  3  0  0  0  0  0  0
  185.9250  178.3800  141.8980 C   0  0  0  0  0  0  0  0  0  0  0  0
  184.2740  178.5530  146.4900 C   0  0  0  0  0  3  0  0  0  0  0  0
  185.5490  178.2610  146.9710 C   0  0  0  0  0  3  0  0  0  0  0  0
  188.3600  177.8680  141.4750 C   0  0  0  0  0  0  0  0  0  0  0  0
  189.6020  177.5850  142.0450 C   0  0  0  0  0  0  0  0  0  0  0  0
  184.1630  178.2190  140.1100 C   0  0  1  0  0  3  0  0  0  0  0  0
  183.5400  178.8600  142.3650 N   0  0  0  0  0  2  0  0  0  0  0  0
  191.0700  177.2170  143.6370 N   0  0  0  0  0  0  0  0  0  0  0  0
  181.7730  179.0070  140.6390 C   0  0  2  0  0  3  0  0  0  0  0  0
  184.0550  178.6570  145.1160 C   0  0  0  0  0  3  0  0  0  0  0  0
  184.8730  178.5830  142.8300 C   0  0  0  0  0  0  0  0  0  0  0  0
  185.1070  178.4710  144.2050 C   0  0  0  0  0  0  0  0  0  0  0  0
  187.4640  177.9830  143.7810 C   0  0  0  0  0  0  0  0  0  0  0  0
  191.7180  177.1140  142.4840 N   0  0  0  0  0  0  0  0  0  0  0  0
  182.7510  179.2820  138.3420 N   0  0  0  0  0  2  0  0  0  0  0  0
  183.2730  179.1170  140.9590 C   0  0  2  0  0  3  0  0  0  0  0  0
  190.8410  177.3360  141.4730 C   0  0  0  0  0  3  0  0  0  0  0  0
  183.8510  178.3420  138.6170 C   0  0  0  0  0  2  0  0  0  0  0  0
  181.3940  177.7540  139.8530 C   0  0  1  0  0  3  0  0  0  0  0  0
  186.6030  178.0730  146.0760 C   0  0  0  0  0  3  0  0  0  0  0  0
  186.4010  178.1740  144.6860 C   0  0  0  0  0  0  0  0  0  0  0  0
  188.7510  177.6910  144.2850 C   0  0  0  0  0  3  0  0  0  0  0  0
  185.6110  178.5560  140.4250 C   0  0  0  0  0  2  0  0  0  0  0  0
  188.2860  177.9150  139.9810 C   0  0  0  0  0  1  0  0  0  0  0  0
  191.6890  177.0410  144.9400 C   0  0  0  0  0  1  0  0  0  0  0  0
  187.2430  178.0810  142.3590 C   0  0  0  0  0  0  0  0  0  0  0  0
  189.7850  177.5020  143.3870 C   0  0  0  0  0  0  0  0  0  0  0  0
  179.9280  177.4370  140.0940 C   0  0  0  0  0  2  0  0  0  0  0  0
  179.6780  175.9860  140.3990 C   0  0  0  0  0  0  0  0  0  0  0  0
  180.2320  174.8830  139.5530 C   0  0  0  0  0  1  0  0  0  0  0  0
  179.0000  175.6980  141.3700 O   0  0  0  0  0  0  0  0  0  0  0  0
  1 16  1  6  0  0  0
  1 20  1  0  0  0  0
  1 10  1  0  0  0  0
  2 27  2  0  0  0  0
  2 12  1  0  0  0  0
  3  4  1  0  0  0  0
  5  6  2  0  0  0  0
  5 27  1  0  0  0  0
  6 28  1  0  0  0  0
  7 19  1  6  0  0  0
  7 24  1  0  0  0  0
  7 17  1  0  0  0  0
  8 12  1  0  0  0  0
  9 26  1  0  0  0  0
 10 17  1  0  0  0  0
 11  3  2  0  0  0  0
 12 13  2  0  0  0  0
 13 22  1  0  0  0  0
 13 11  1  0  0  0  0
 14 23  1  0  0  0  0
 14 22  2  0  0  0  0
 15  9  1  0  0  0  0
 16 19  1  0  0  0  0
 17  8  1  0  0  0  0
 18  6  1  0  0  0  0
 18 15  2  0  0  0  0
 20 29  1  0  0  0  0
 20 10  1  0  0  0  0
 21  4  2  0  0  0  0
 22 21  1  0  0  0  0
 24  2  1  0  0  0  0
 25  5  1  0  0  0  0
 27 14  1  0  0  0  0
 28  9  1  0  0  0  0
 28 23  2  0  0  0  0
 29 30  1  0  0  0  0
 30 32  2  0  0  0  0
 31 30  1  0  0  0  0
M  END
>  <MODEL>
3

>  <REMARK>
 VINA RESULT:     -10.1      3.014      4.723
  Name = 
  2 active torsions:
  status: ('A' for Active; 'I' for Inactive)
    1  A    between atoms: C_20  and  C_29
    2  A    between atoms: C_29  and  C_30
                            x       y       z     vdW  Elec       q    Type
                         _______ _______ _______ _____ _____    ______ ____

>  <TORSDO>
F 2

$$$$
=
 OpenBabel11122410413D

 32 38  0  0  1  0  0  0  0  0999 V2000
  191.0010  177.2730  147.4700 C   0  0  1  0  0  3  0  0  0  0  0  0
  186.9380  178.1980  144.2640 C   0  0  0  0  0  0  0  0  0  0  0  0
  189.0670  178.0430  139.8730 C   0  0  0  0  0  3  0  0  0  0  0  0
  187.8300  178.2140  139.2550 C   0  0  0  0  0  3  0  0  0  0  0  0
  184.4360  178.5000  144.4180 C   0  0  0  0  0  0  0  0  0  0  0  0
  183.2430  178.6730  143.7150 C   0  0  0  0  0  0  0  0  0  0  0  0
  188.3370  177.3740  146.1850 C   0  0  1  0  0  3  0  0  0  0  0  0
  189.3860  177.8850  144.0580 N   0  0  0  0  0  2  0  0  0  0  0  0
  181.9260  178.8910  141.9710 N   0  0  0  0  0  0  0  0  0  0  0  0
  190.8970  177.3530  145.9440 C   0  0  2  0  0  3  0  0  0  0  0  0
  189.1500  178.0010  141.2640 C   0  0  0  0  0  3  0  0  0  0  0  0
  188.0970  178.0880  143.4520 C   0  0  0  0  0  0  0  0  0  0  0  0
  187.9980  178.1290  142.0570 C   0  0  0  0  0  0  0  0  0  0  0  0
  185.5770  178.4270  142.2210 C   0  0  0  0  0  0  0  0  0  0  0  0
  181.1530  178.9510  143.0470 N   0  0  0  0  0  0  0  0  0  0  0  0
  189.8060  177.8210  148.1580 N   0  0  0  0  0  2  0  0  0  0  0  0
  189.5600  177.9690  145.4990 C   0  0  2  0  0  3  0  0  0  0  0  0
  181.9340  178.8200  144.1490 C   0  0  0  0  0  3  0  0  0  0  0  0
  188.5000  177.3130  147.7050 C   0  0  0  0  0  2  0  0  0  0  0  0
  190.7570  176.0070  146.6530 C   0  0  1  0  0  3  0  0  0  0  0  0
  186.6760  178.3420  140.0300 C   0  0  0  0  0  3  0  0  0  0  0  0
  186.7410  178.3000  141.4370 C   0  0  0  0  0  0  0  0  0  0  0  0
  184.3320  178.6030  141.5790 C   0  0  0  0  0  3  0  0  0  0  0  0
  187.1210  178.1860  145.7690 C   0  0  0  0  0  2  0  0  0  0  0  0
  184.3510  178.4460  145.9110 C   0  0  0  0  0  1  0  0  0  0  0  0
  181.4360  178.9950  140.6060 C   0  0  0  0  0  1  0  0  0  0  0  0
  185.6550  178.3760  143.6610 C   0  0  0  0  0  0  0  0  0  0  0  0
  183.1970  178.7230  142.3600 C   0  0  0  0  0  0  0  0  0  0  0  0
  192.0600  175.2350  146.5200 C   0  0  0  0  0  2  0  0  0  0  0  0
  192.2720  174.6630  145.1460 C   0  0  0  0  0  0  0  0  0  0  0  0
  191.8230  175.3700  143.9060 C   0  0  0  0  0  1  0  0  0  0  0  0
  192.8290  173.5840  145.0390 O   0  0  0  0  0  0  0  0  0  0  0  0
  1 16  1  1  0  0  0
  2 24  1  0  0  0  0
  3 11  1  0  0  0  0
  4  3  2  0  0  0  0
  4 21  1  0  0  0  0
  5 25  1  0  0  0  0
  6 18  1  0  0  0  0
  6  5  1  0  0  0  0
  7 24  1  1  0  0  0
  7 19  1  0  0  0  0
  8 17  1  0  0  0  0
  9 28  1  0  0  0  0
  9 15  1  0  0  0  0
 10 20  1  0  0  0  0
 10  1  1  0  0  0  0
 11 13  2  0  0  0  0
 12  8  1  0  0  0  0
 12  2  2  0  0  0  0
 13 12  1  0  0  0  0
 14 27  1  0  0  0  0
 15 18  2  0  0  0  0
 17 10  1  0  0  0  0
 17  7  1  0  0  0  0
 19 16  1  0  0  0  0
 20  1  1  0  0  0  0
 21 22  2  0  0  0  0
 22 13  1  0  0  0  0
 22 14  1  0  0  0  0
 23 14  2  0  0  0  0
 23 28  1  0  0  0  0
 26  9  1  0  0  0  0
 27  2  1  0  0  0  0
 27  5  2  0  0  0  0
 28  6  2  0  0  0  0
 29 20  1  0  0  0  0
 30 29  1  0  0  0  0
 31 30  1  0  0  0  0
 32 30  2  0  0  0  0
M  END
>  <MODEL>
4

>  <REMARK>
 VINA RESULT:      -9.8      2.901      7.645
  Name = 
  2 active torsions:
  status: ('A' for Active; 'I' for Inactive)
    1  A    between atoms: C_20  and  C_29
    2  A    between atoms: C_29  and  C_30
                            x       y       z     vdW  Elec       q    Type
                         _______ _______ _______ _____ _____    ______ ____

>  <TORSDO>
F 2

$$$$
=
 OpenBabel11122410413D

 32 38  0  0  1  0  0  0  0  0999 V2000
  189.0700  177.8270  147.9460 C   0  0  1  0  0  3  0  0  0  0  0  0
  186.0340  178.4260  143.6950 C   0  0  0  0  0  0  0  0  0  0  0  0
  189.2610  177.8850  140.0710 C   0  0  0  0  0  3  0  0  0  0  0  0
  188.2390  177.9900  139.1300 C   0  0  0  0  0  3  0  0  0  0  0  0
  183.5890  178.7240  143.1430 C   0  0  0  0  0  0  0  0  0  0  0  0
  182.6310  178.8230  142.1320 C   0  0  0  0  0  0  0  0  0  0  0  0
  186.8510  177.7910  145.9880 C   0  0  1  0  0  3  0  0  0  0  0  0
  188.4420  178.1130  144.1850 N   0  0  0  0  0  2  0  0  0  0  0  0
  181.8360  178.8710  140.0860 N   0  0  0  0  0  0  0  0  0  0  0  0
  189.3810  177.7660  146.4470 C   0  0  2  0  0  3  0  0  0  0  0  0
  188.9670  177.9710  141.4320 C   0  0  0  0  0  3  0  0  0  0  0  0
  187.3670  178.2510  143.2380 C   0  0  0  0  0  0  0  0  0  0  0  0
  187.6460  178.1620  141.8700 C   0  0  0  0  0  0  0  0  0  0  0  0
  185.2770  178.4570  141.3500 C   0  0  0  0  0  0  0  0  0  0  0  0
  180.8030  179.0250  140.9040 N   0  0  0  0  0  0  0  0  0  0  0  0
  187.7440  178.4270  148.2340 N   0  0  0  0  0  2  0  0  0  0  0  0
  188.2240  178.3290  145.6060 C   0  0  2  0  0  3  0  0  0  0  0  0
  181.2560  179.0000  142.1830 C   0  0  0  0  0  3  0  0  0  0  0  0
  186.5990  177.8710  147.4940 C   0  0  0  0  0  2  0  0  0  0  0  0
  189.0320  176.4900  147.2100 C   0  0  1  0  0  3  0  0  0  0  0  0
  186.9220  178.1800  139.5520 C   0  0  0  0  0  3  0  0  0  0  0  0
  186.6060  178.2680  140.9220 C   0  0  0  0  0  0  0  0  0  0  0  0
  184.2530  178.5650  140.3830 C   0  0  0  0  0  3  0  0  0  0  0  0
  185.8060  178.5540  145.1890 C   0  0  0  0  0  2  0  0  0  0  0  0
  183.1050  178.8060  144.5560 C   0  0  0  0  0  1  0  0  0  0  0  0
  181.7320  178.8470  138.6360 C   0  0  0  0  0  1  0  0  0  0  0  0
  184.9640  178.5390  142.7560 C   0  0  0  0  0  0  0  0  0  0  0  0
  182.9520  178.7480  140.8160 C   0  0  0  0  0  0  0  0  0  0  0  0
  190.3080  175.7180  147.5030 C   0  0  0  0  0  2  0  0  0  0  0  0
  191.5290  176.3350  146.8810 C   0  0  0  0  0  0  0  0  0  0  0  0
  191.7390  176.3780  145.4000 C   0  0  0  0  0  1  0  0  0  0  0  0
  192.3800  176.8190  147.6090 O   0  0  0  0  0  0  0  0  0  0  0  0
  1 16  1  6  0  0  0
  2 24  1  0  0  0  0
  3 11  2  0  0  0  0
  4 21  2  0  0  0  0
  4  3  1  0  0  0  0
  5 25  1  0  0  0  0
  6 18  1  0  0  0  0
  6  5  2  0  0  0  0
  7 24  1  6  0  0  0
  7 19  1  0  0  0  0
  8 17  1  0  0  0  0
  9 28  1  0  0  0  0
  9 15  1  0  0  0  0
 10 20  1  0  0  0  0
 10  1  1  0  0  0  0
 11 13  1  0  0  0  0
 12  2  1  0  0  0  0
 12  8  1  0  0  0  0
 13 12  2  0  0  0  0
 14 27  1  0  0  0  0
 15 18  2  0  0  0  0
 17  7  1  0  0  0  0
 17 10  1  0  0  0  0
 19 16  1  0  0  0  0
 20 29  1  0  0  0  0
 20  1  1  0  0  0  0
 21 22  1  0  0  0  0
 22 14  2  0  0  0  0
 22 13  1  0  0  0  0
 23 28  2  0  0  0  0
 23 14  1  0  0  0  0
 26  9  1  0  0  0  0
 27  5  1  0  0  0  0
 27  2  2  0  0  0  0
 28  6  1  0  0  0  0
 30 29  1  0  0  0  0
 30 32  2  0  0  0  0
 31 30  1  0  0  0  0
M  END
>  <MODEL>
5

>  <REMARK>
 VINA RESULT:      -9.4      3.164      8.262
  Name = 
  2 active torsions:
  status: ('A' for Active; 'I' for Inactive)
    1  A    between atoms: C_20  and  C_29
    2  A    between atoms: C_29  and  C_30
                            x       y       z     vdW  Elec       q    Type
                         _______ _______ _______ _____ _____    ______ ____

>  <TORSDO>
F 2

$$$$
=
 OpenBabel11122410413D

 32 38  0  0  1  0  0  0  0  0999 V2000
  181.7860  178.9310  140.2330 C   0  0  1  0  0  3  0  0  0  0  0  0
  185.9330  178.0970  143.3580 C   0  0  0  0  0  0  0  0  0  0  0  0
  189.5520  177.6120  140.1170 C   0  0  0  0  0  3  0  0  0  0  0  0
  190.4790  177.5030  141.1520 C   0  0  0  0  0  3  0  0  0  0  0  0
  186.4650  178.0580  145.8250 C   0  0  0  0  0  0  0  0  0  0  0  0
  187.4610  177.9350  146.7960 C   0  0  0  0  0  0  0  0  0  0  0  0
  183.7570  178.9650  142.4420 C   0  0  1  0  0  3  0  0  0  0  0  0
  185.4650  178.1480  140.9260 N   0  0  0  0  0  2  0  0  0  0  0  0
  189.4850  177.6760  147.6070 N   0  0  0  0  0  0  0  0  0  0  0  0
  183.2720  178.7120  139.9300 C   0  0  2  0  0  3  0  0  0  0  0  0
  188.1990  177.7820  140.4090 C   0  0  0  0  0  3  0  0  0  0  0  0
  186.3930  178.0130  142.0180 C   0  0  0  0  0  0  0  0  0  0  0  0
  187.7540  177.8460  141.7400 C   0  0  0  0  0  0  0  0  0  0  0  0
  188.2540  177.8040  144.1320 C   0  0  0  0  0  0  0  0  0  0  0  0
  188.6670  177.7980  148.6440 N   0  0  0  0  0  0  0  0  0  0  0  0
  181.4260  178.5720  141.6270 N   0  0  0  0  0  2  0  0  0  0  0  0
  184.0310  178.1890  141.1600 C   0  0  2  0  0  3  0  0  0  0  0  0
  187.4020  177.9600  148.1810 C   0  0  0  0  0  3  0  0  0  0  0  0
  182.2600  179.1590  142.6910 C   0  0  0  0  0  2  0  0  0  0  0  0
  182.7230  180.1280  140.0920 C   0  0  1  0  0  3  0  0  0  0  0  0
  190.0510  177.5660  142.4790 C   0  0  0  0  0  3  0  0  0  0  0  0
  188.6880  177.7380  142.7930 C   0  0  0  0  0  0  0  0  0  0  0  0
  189.2060  177.6880  145.1690 C   0  0  0  0  0  3  0  0  0  0  0  0
  184.4410  178.2380  143.5890 C   0  0  0  0  0  2  0  0  0  0  0  0
  185.0630  178.2670  146.3040 C   0  0  0  0  0  1  0  0  0  0  0  0
  190.9220  177.4870  147.7190 C   0  0  0  0  0  1  0  0  0  0  0  0
  186.8570  177.9880  144.4410 C   0  0  0  0  0  0  0  0  0  0  0  0
  188.7680  177.7570  146.4790 C   0  0  0  0  0  0  0  0  0  0  0  0
  182.5370  180.7520  138.7180 C   0  0  0  0  0  2  0  0  0  0  0  0
  181.0990  181.0450  138.3910 C   0  0  0  0  0  0  0  0  0  0  0  0
  180.4100  180.4490  137.2040 C   0  0  0  0  0  1  0  0  0  0  0  0
  180.4720  181.7960  139.1190 O   0  0  0  0  0  0  0  0  0  0  0  0
  1 16  1  1  0  0  0
  2 24  1  0  0  0  0
  2 27  1  0  0  0  0
  3 11  2  0  0  0  0
  3  4  1  0  0  0  0
  4 21  2  0  0  0  0
  5 25  1  0  0  0  0
  5  6  1  0  0  0  0
  6 18  1  0  0  0  0
  7 19  1  1  0  0  0
  7 24  1  0  0  0  0
  8 17  1  0  0  0  0
  8 12  1  0  0  0  0
  9 26  1  0  0  0  0
  9 15  1  0  0  0  0
 10 20  1  0  0  0  0
 10  1  1  0  0  0  0
 10 17  1  0  0  0  0
 11 13  1  0  0  0  0
 12  2  2  0  0  0  0
 13 12  1  0  0  0  0
 13 22  2  0  0  0  0
 14 27  1  0  0  0  0
 14 23  2  0  0  0  0
 16 19  1  0  0  0  0
 17  7  1  0  0  0  0
 18 15  2  0  0  0  0
 20  1  1  0  0  0  0
 21 22  1  0  0  0  0
 22 14  1  0  0  0  0
 23 28  1  0  0  0  0
 27  5  2  0  0  0  0
 28  6  2  0  0  0  0
 28  9  1  0  0  0  0
 29 20  1  0  0  0  0
 30 29  1  0  0  0  0
 30 32  2  0  0  0  0
 31 30  1  0  0  0  0
M  END
>  <MODEL>
6

>  <REMARK>
 VINA RESULT:      -9.3      2.646      5.111
  Name = 
  2 active torsions:
  status: ('A' for Active; 'I' for Inactive)
    1  A    between atoms: C_20  and  C_29
    2  A    between atoms: C_29  and  C_30
                            x       y       z     vdW  Elec       q    Type
                         _______ _______ _______ _____ _____    ______ ____

>  <TORSDO>
F 2

$$$$
=
 OpenBabel11122410413D

 32 38  0  0  1  0  0  0  0  0999 V2000
  179.7160  179.2640  141.0540 C   0  0  1  0  0  3  0  0  0  0  0  0
  184.5400  178.3470  142.9360 C   0  0  0  0  0  0  0  0  0  0  0  0
  187.2120  178.2530  138.8510 C   0  0  0  0  0  3  0  0  0  0  0  0
  188.3760  178.0990  139.6020 C   0  0  0  0  0  3  0  0  0  0  0  0
  185.6900  178.1360  145.1740 C   0  0  0  0  0  0  0  0  0  0  0  0
  186.9030  177.9750  145.8440 C   0  0  0  0  0  0  0  0  0  0  0  0
  182.1880  179.2000  142.6830 C   0  0  1  0  0  3  0  0  0  0  0  0
  183.4620  178.5690  140.7170 N   0  0  0  0  0  2  0  0  0  0  0  0
  189.0720  177.7310  146.0880 N   0  0  0  0  0  0  0  0  0  0  0  0
  181.0780  179.1260  140.3640 C   0  0  2  0  0  3  0  0  0  0  0  0
  185.9770  178.3490  139.4920 C   0  0  0  0  0  3  0  0  0  0  0  0
  184.6420  178.3850  141.5210 C   0  0  0  0  0  0  0  0  0  0  0  0
  185.8880  178.2920  140.8920 C   0  0  0  0  0  0  0  0  0  0  0  0
  186.9870  178.0820  143.0650 C   0  0  0  0  0  0  0  0  0  0  0  0
  188.5460  177.7400  147.3060 N   0  0  0  0  0  0  0  0  0  0  0  0
  179.7330  178.7840  142.4580 N   0  0  0  0  0  2  0  0  0  0  0  0
  182.1360  178.5380  141.3120 C   0  0  2  0  0  3  0  0  0  0  0  0
  187.2020  177.8890  147.1960 C   0  0  0  0  0  3  0  0  0  0  0  0
  180.8020  179.3170  143.3200 C   0  0  0  0  0  2  0  0  0  0  0  0
  180.5650  180.5030  140.7810 C   0  0  1  0  0  3  0  0  0  0  0  0
  188.3020  178.0420  140.9950 C   0  0  0  0  0  3  0  0  0  0  0  0
  187.0630  178.1370  141.6590 C   0  0  0  0  0  0  0  0  0  0  0  0
  188.1750  177.9220  143.8110 C   0  0  0  0  0  3  0  0  0  0  0  0
  183.1550  178.4130  143.5510 C   0  0  0  0  0  2  0  0  0  0  0  0
  184.4540  178.2530  146.0100 C   0  0  0  0  0  1  0  0  0  0  0  0
  190.4920  177.5880  145.8130 C   0  0  0  0  0  1  0  0  0  0  0  0
  185.7140  178.1880  143.7350 C   0  0  0  0  0  0  0  0  0  0  0  0
  188.0870  177.8720  145.1910 C   0  0  0  0  0  0  0  0  0  0  0  0
  180.0220  181.2250  139.5590 C   0  0  0  0  0  2  0  0  0  0  0  0
  181.0400  181.3830  138.4640 C   0  0  0  0  0  0  0  0  0  0  0  0
  180.8060  180.8830  137.0730 C   0  0  0  0  0  1  0  0  0  0  0  0
  182.0950  181.9400  138.7180 O   0  0  0  0  0  0  0  0  0  0  0  0
  1 16  1  1  0  0  0
  2 24  1  0  0  0  0
  2 27  1  0  0  0  0
  3 11  2  0  0  0  0
  3  4  1  0  0  0  0
  4 21  2  0  0  0  0
  5  6  1  0  0  0  0
  5 25  1  0  0  0  0
  6 18  1  0  0  0  0
  7 19  1  1  0  0  0
  7 24  1  0  0  0  0
  8 17  1  0  0  0  0
  8 12  1  0  0  0  0
  9 15  1  0  0  0  0
 10 20  1  0  0  0  0
 10  1  1  0  0  0  0
 10 17  1  0  0  0  0
 11 13  1  0  0  0  0
 12  2  2  0  0  0  0
 13 12  1  0  0  0  0
 13 22  2  0  0  0  0
 14 27  1  0  0  0  0
 14 23  2  0  0  0  0
 16 19  1  0  0  0  0
 17  7  1  0  0  0  0
 18 15  2  0  0  0  0
 20  1  1  0  0  0  0
 21 22  1  0  0  0  0
 22 14  1  0  0  0  0
 23 28  1  0  0  0  0
 26  9  1  0  0  0  0
 27  5  2  0  0  0  0
 28  6  2  0  0  0  0
 28  9  1  0  0  0  0
 29 20  1  0  0  0  0
 30 32  2  0  0  0  0
 30 29  1  0  0  0  0
 31 30  1  0  0  0  0
M  END
>  <MODEL>
7

>  <REMARK>
 VINA RESULT:      -9.2      2.997      5.807
  Name = 
  2 active torsions:
  status: ('A' for Active; 'I' for Inactive)
    1  A    between atoms: C_20  and  C_29
    2  A    between atoms: C_29  and  C_30
                            x       y       z     vdW  Elec       q    Type
                         _______ _______ _______ _____ _____    ______ ____

>  <TORSDO>
F 2

$$$$
=
 OpenBabel11122410413D

 32 38  0  0  1  0  0  0  0  0999 V2000
  190.6940  177.7110  144.9840 C   0  0  1  0  0  3  0  0  0  0  0  0
  186.0060  178.3960  142.7020 C   0  0  0  0  0  0  0  0  0  0  0  0
  187.1480  178.1420  137.9620 C   0  0  0  0  0  3  0  0  0  0  0  0
  185.8020  178.2530  137.6210 C   0  0  0  0  0  3  0  0  0  0  0  0
  183.5860  178.6290  143.3830 C   0  0  0  0  0  0  0  0  0  0  0  0
  182.2640  178.7400  142.9490 C   0  0  0  0  0  0  0  0  0  0  0  0
  187.8130  177.6860  144.3010 C   0  0  1  0  0  3  0  0  0  0  0  0
  188.3630  178.1480  141.9840 N   0  0  0  0  0  2  0  0  0  0  0  0
  180.5970  178.8550  141.5240 N   0  0  0  0  0  0  0  0  0  0  0  0
  190.2610  177.7310  143.5140 C   0  0  2  0  0  3  0  0  0  0  0  0
  187.5290  178.1530  139.3040 C   0  0  0  0  0  3  0  0  0  0  0  0
  186.9670  178.2910  141.6630 C   0  0  0  0  0  0  0  0  0  0  0  0
  186.5700  178.2760  140.3220 C   0  0  0  0  0  0  0  0  0  0  0  0
  184.2320  178.5080  140.9960 C   0  0  0  0  0  0  0  0  0  0  0  0
  180.0710  178.9320  142.7390 N   0  0  0  0  0  0  0  0  0  0  0  0
  189.6540  178.2490  145.8960 N   0  0  0  0  0  2  0  0  0  0  0  0
  188.8390  178.2910  143.3500 C   0  0  2  0  0  3  0  0  0  0  0  0
  181.0740  178.8650  143.6510 C   0  0  0  0  0  3  0  0  0  0  0  0
  188.3010  177.6860  145.7510 C   0  0  0  0  0  2  0  0  0  0  0  0
  190.3270  176.4090  144.2760 C   0  0  1  0  0  3  0  0  0  0  0  0
  184.8380  178.3750  138.6220 C   0  0  0  0  0  3  0  0  0  0  0  0
  185.2040  178.3880  139.9830 C   0  0  0  0  0  0  0  0  0  0  0  0
  182.8720  178.6240  140.6320 C   0  0  0  0  0  3  0  0  0  0  0  0
  186.5080  178.4460  144.1320 C   0  0  0  0  0  2  0  0  0  0  0  0
  183.8250  178.6280  144.8610 C   0  0  0  0  0  1  0  0  0  0  0  0
  179.8220  178.8940  140.2950 C   0  0  0  0  0  1  0  0  0  0  0  0
  184.6180  178.5130  142.3850 C   0  0  0  0  0  0  0  0  0  0  0  0
  181.9270  178.7390  141.6350 C   0  0  0  0  0  0  0  0  0  0  0  0
  191.5980  175.6720  143.8890 C   0  0  0  0  0  2  0  0  0  0  0  0
  192.1460  174.8150  144.9970 C   0  0  0  0  0  0  0  0  0  0  0  0
  192.1360  175.2530  146.4280 C   0  0  0  0  0  1  0  0  0  0  0  0
  192.6150  173.7250  144.7190 O   0  0  0  0  0  0  0  0  0  0  0  0
  1 16  1  1  0  0  0
  2 24  1  0  0  0  0
  3 11  1  0  0  0  0
  4  3  2  0  0  0  0
  4 21  1  0  0  0  0
  5 25  1  0  0  0  0
  6  5  1  0  0  0  0
  6 18  1  0  0  0  0
  7 24  1  1  0  0  0
  7 19  1  0  0  0  0
  8 17  1  0  0  0  0
  9 28  1  0  0  0  0
  9 15  1  0  0  0  0
 10 20  1  0  0  0  0
 10  1  1  0  0  0  0
 11 13  2  0  0  0  0
 12  8  1  0  0  0  0
 12  2  2  0  0  0  0
 13 12  1  0  0  0  0
 14 27  1  0  0  0  0
 15 18  2  0  0  0  0
 17 10  1  0  0  0  0
 17  7  1  0  0  0  0
 19 16  1  0  0  0  0
 20  1  1  0  0  0  0
 21 22  2  0  0  0  0
 22 13  1  0  0  0  0
 22 14  1  0  0  0  0
 23 14  2  0  0  0  0
 23 28  1  0  0  0  0
 26  9  1  0  0  0  0
 27  2  1  0  0  0  0
 27  5  2  0  0  0  0
 28  6  2  0  0  0  0
 29 20  1  0  0  0  0
 29 30  1  0  0  0  0
 30 31  1  0  0  0  0
 32 30  2  0  0  0  0
M  END
>  <MODEL>
8

>  <REMARK>
 VINA RESULT:      -8.9      3.004      7.475
  Name = 
  2 active torsions:
  status: ('A' for Active; 'I' for Inactive)
    1  A    between atoms: C_20  and  C_29
    2  A    between atoms: C_29  and  C_30
                            x       y       z     vdW  Elec       q    Type
                         _______ _______ _______ _____ _____    ______ ____

>  <TORSDO>
F 2

$$$$
=
 OpenBabel11122410413D

 32 38  0  0  1  0  0  0  0  0999 V2000
  191.8770  176.7810  137.6210 C   0  0  1  0  0  3  0  0  0  0  0  0
  188.8030  177.7480  141.7770 C   0  0  0  0  0  0  0  0  0  0  0  0
  184.5630  178.8970  139.6450 C   0  0  0  0  0  3  0  0  0  0  0  0
  183.9530  179.0050  140.8930 C   0  0  0  0  0  3  0  0  0  0  0  0
  188.9290  177.6170  144.2940 C   0  0  0  0  0  0  0  0  0  0  0  0
  188.2380  177.7520  145.4990 C   0  0  0  0  0  0  0  0  0  0  0  0
  190.5490  176.7480  140.2660 C   0  0  1  0  0  3  0  0  0  0  0  0
  188.6240  177.8720  139.3090 N   0  0  0  0  0  2  0  0  0  0  0  0
  186.5360  178.1430  146.8320 N   0  0  0  0  0  0  0  0  0  0  0  0
  190.4020  177.1780  137.7350 C   0  0  2  0  0  3  0  0  0  0  0  0
  185.9150  178.5620  139.5580 C   0  0  0  0  0  3  0  0  0  0  0  0
  188.0290  178.0010  140.6130 C   0  0  0  0  0  0  0  0  0  0  0  0
  186.6740  178.3320  140.7170 C   0  0  0  0  0  0  0  0  0  0  0  0
  186.8120  178.2070  143.1530 C   0  0  0  0  0  0  0  0  0  0  0  0
  187.5710  177.8440  147.6060 N   0  0  0  0  0  0  0  0  0  0  0  0
  192.6230  176.9720  138.8890 N   0  0  0  0  0  2  0  0  0  0  0  0
  190.0540  177.6620  139.1530 C   0  0  2  0  0  3  0  0  0  0  0  0
  188.6460  177.5960  146.8160 C   0  0  0  0  0  3  0  0  0  0  0  0
  192.0240  176.3800  140.0970 C   0  0  0  0  0  2  0  0  0  0  0  0
  190.7960  175.7050  137.6590 C   0  0  1  0  0  3  0  0  0  0  0  0
  184.6950  178.7780  142.0530 C   0  0  0  0  0  3  0  0  0  0  0  0
  186.0610  178.4390  141.9840 C   0  0  0  0  0  0  0  0  0  0  0  0
  186.1780  178.3250  144.4100 C   0  0  0  0  0  3  0  0  0  0  0  0
  190.2760  177.4340  141.5950 C   0  0  0  0  0  2  0  0  0  0  0  0
  190.3710  177.2220  144.3710 C   0  0  0  0  0  1  0  0  0  0  0  0
  185.2100  178.4680  147.3310 C   0  0  0  0  0  1  0  0  0  0  0  0
  188.2080  177.8530  143.0700 C   0  0  0  0  0  0  0  0  0  0  0  0
  186.9250  178.0920  145.5510 C   0  0  0  0  0  0  0  0  0  0  0  0
  190.5460  175.1930  136.2500 C   0  0  0  0  0  2  0  0  0  0  0  0
  189.2510  174.4420  136.1150 C   0  0  0  0  0  0  0  0  0  0  0  0
  189.1950  172.9490  136.0310 C   0  0  0  0  0  1  0  0  0  0  0  0
  188.2080  175.0720  136.0700 O   0  0  0  0  0  0  0  0  0  0  0  0
  1 20  1  0  0  0  0
  1 10  1  0  0  0  0
  1 16  1  1  0  0  0
  2 27  1  0  0  0  0
  3  4  1  0  0  0  0
  4 21  2  0  0  0  0
  5 25  1  0  0  0  0
  5  6  1  0  0  0  0
  6 28  2  0  0  0  0
  6 18  1  0  0  0  0
  7 19  1  6  0  0  0
  7 24  1  0  0  0  0
  8 12  1  0  0  0  0
  9 26  1  0  0  0  0
  9 15  1  0  0  0  0
 10 17  1  0  0  0  0
 11  3  2  0  0  0  0
 11 13  1  0  0  0  0
 12 13  1  0  0  0  0
 12  2  2  0  0  0  0
 13 22  2  0  0  0  0
 14 23  2  0  0  0  0
 16 19  1  0  0  0  0
 17  8  1  0  0  0  0
 17  7  1  0  0  0  0
 18 15  2  0  0  0  0
 20 10  1  0  0  0  0
 22 21  1  0  0  0  0
 22 14  1  0  0  0  0
 23 28  1  0  0  0  0
 24  2  1  0  0  0  0
 27 14  1  0  0  0  0
 27  5  2  0  0  0  0
 28  9  1  0  0  0  0
 29 20  1  0  0  0  0
 30 29  1  0  0  0  0
 31 30  1  0  0  0  0
 32 30  2  0  0  0  0
M  END
>  <MODEL>
9

>  <REMARK>
 VINA RESULT:      -8.5      1.932      2.779
  Name = 
  2 active torsions:
  status: ('A' for Active; 'I' for Inactive)
    1  A    between atoms: C_20  and  C_29
    2  A    between atoms: C_29  and  C_30
                            x       y       z     vdW  Elec       q    Type
                         _______ _______ _______ _____ _____    ______ ____

>  <TORSDO>
F 2

$$$$
