=
 OpenBabel11122411583D

 28 32  0  0  1  0  0  0  0  0999 V2000
  190.6260  177.3780  144.0260 C   0  0  2  0  0  3  0  0  0  0  0  0
  191.5110  177.5120  141.1530 O   0  0  0  0  0  0  0  0  0  0  0  0
  184.1260  178.5150  143.8670 O   0  0  0  0  0  0  0  0  0  0  0  0
  191.1150  174.4780  143.9540 C   0  0  0  0  0  2  0  0  0  0  0  0
  185.5450  178.6280  141.9760 N   0  0  0  0  0  0  0  0  0  0  0  0
  190.0430  178.6390  144.6770 C   0  0  0  0  0  2  0  0  0  0  0  0
  190.3710  175.7720  139.8320 O   0  0  0  0  0  0  0  0  0  0  0  0
  190.2890  177.1810  140.3460 S   0  0  0  0  0  0  0  0  0  0  0  0
  188.7400  178.5220  138.5480 C   0  0  0  0  0  0  0  0  0  0  0  0
  188.8570  177.3870  141.2880 N   0  0  0  0  0  0  0  0  0  0  0  0
  187.7960  176.7170  146.4890 O   0  0  0  0  0  0  0  0  0  0  0  0
  187.3150  177.4620  142.8880 C   0  0  0  0  0  0  0  0  0  0  0  0
  187.6530  178.5460  139.4860 N   0  0  0  0  0  2  0  0  0  0  0  0
  190.1660  178.3200  138.9810 C   0  0  0  0  0  2  0  0  0  0  0  0
  188.0280  177.7680  145.9140 C   0  0  0  0  0  0  0  0  0  0  0  0
  189.5420  176.3930  143.5540 C   0  0  2  0  0  3  0  0  0  0  0  0
  185.2410  178.2750  143.3340 C   0  0  0  0  0  0  0  0  0  0  0  0
  188.4650  179.0290  137.0220 S   0  0  0  0  0  0  0  0  0  0  0  0
  186.9440  178.4550  145.1400 C   0  0  0  0  0  2  0  0  0  0  0  0
  190.1450  175.1160  142.9690 C   0  0  0  0  0  2  0  0  0  0  0  0
  191.6390  176.7010  144.9540 C   0  0  0  0  0  2  0  0  0  0  0  0
  192.2280  175.4600  144.2970 C   0  0  0  0  0  2  0  0  0  0  0  0
  189.3850  178.3890  146.0370 C   0  0  0  0  0  2  0  0  0  0  0  0
  186.8140  178.0430  141.7930 C   0  0  0  0  0  0  0  0  0  0  0  0
  186.3770  177.5550  144.0450 C   0  0  2  0  0  3  0  0  0  0  0  0
  187.7620  178.0130  140.8060 C   0  0  0  0  0  0  0  0  0  0  0  0
  184.5900  178.9510  140.9300 C   0  0  0  0  0  1  0  0  0  0  0  0
  188.5940  177.0320  142.5800 C   0  0  0  0  0  0  0  0  0  0  0  0
  1  6  1  1  0  0  0
  1 21  1  0  0  0  0
  4 22  1  0  0  0  0
  5 17  1  0  0  0  0
  6 23  1  0  0  0  0
  7  8  2  0  0  0  0
  8  2  2  0  0  0  0
  8 10  1  0  0  0  0
  9 14  1  0  0  0  0
  9 13  1  0  0  0  0
 10 28  1  0  0  0  0
 12 25  1  0  0  0  0
 13 26  1  0  0  0  0
 14  8  1  0  0  0  0
 15 23  1  0  0  0  0
 15 11  2  0  0  0  0
 16 20  1  6  0  0  0
 16  1  1  0  0  0  0
 17  3  2  0  0  0  0
 17 25  1  0  0  0  0
 18  9  2  0  0  0  0
 19 15  1  0  0  0  0
 20  4  1  0  0  0  0
 22 21  1  0  0  0  0
 24  5  1  0  0  0  0
 24 12  1  0  0  0  0
 25 19  1  1  0  0  0
 26 10  1  0  0  0  0
 26 24  2  0  0  0  0
 27  5  1  0  0  0  0
 28 12  2  0  0  0  0
 28 16  1  0  0  0  0
M  END
>  <MODEL>
1

>  <REMARK>
 VINA RESULT:      -7.4      0.000      0.000
  Name = 
  0 active torsions:
  status: ('A' for Active; 'I' for Inactive)
                            x       y       z     vdW  Elec       q    Type
                         _______ _______ _______ _____ _____    ______ ____

>  <TORSDO>
F 0

$$$$
=
 OpenBabel11122411583D

 28 32  0  0  1  0  0  0  0  0999 V2000
  188.1050  175.6350  136.7950 C   0  0  2  0  0  3  0  0  0  0  0  0
  190.4040  175.6230  138.7370 O   0  0  0  0  0  0  0  0  0  0  0  0
  183.4800  179.3830  139.6480 O   0  0  0  0  0  0  0  0  0  0  0  0
  189.7400  177.2950  134.9980 C   0  0  0  0  0  2  0  0  0  0  0  0
  185.5270  178.7810  140.6740 N   0  0  0  0  0  0  0  0  0  0  0  0
  186.7690  175.0210  137.2320 C   0  0  0  0  0  2  0  0  0  0  0  0
  191.2460  177.9150  139.0690 O   0  0  0  0  0  0  0  0  0  0  0  0
  190.2560  176.8860  139.5350 S   0  0  0  0  0  0  0  0  0  0  0  0
  189.7770  177.4720  142.1540 C   0  0  0  0  0  0  0  0  0  0  0  0
  188.6500  177.5070  139.4080 N   0  0  0  0  0  0  0  0  0  0  0  0
  185.0280  177.4490  135.4720 O   0  0  0  0  0  0  0  0  0  0  0  0
  186.6230  178.1360  138.7480 C   0  0  0  0  0  0  0  0  0  0  0  0
  188.4780  177.9800  141.8130 N   0  0  0  0  0  2  0  0  0  0  0  0
  190.5240  176.5220  141.2590 C   0  0  0  0  0  2  0  0  0  0  0  0
  185.0740  176.7090  136.4410 C   0  0  0  0  0  0  0  0  0  0  0  0
  188.1250  177.1690  136.9180 C   0  0  2  0  0  3  0  0  0  0  0  0
  184.6410  178.9060  139.5500 C   0  0  0  0  0  0  0  0  0  0  0  0
  190.3220  177.6820  143.6770 S   0  0  0  0  0  0  0  0  0  0  0  0
  184.5480  177.1750  137.7660 C   0  0  0  0  0  2  0  0  0  0  0  0
  189.4410  177.7660  136.4160 C   0  0  0  0  0  2  0  0  0  0  0  0
  188.4840  175.1750  135.3850 C   0  0  0  0  0  2  0  0  0  0  0  0
  189.8200  175.7740  134.9630 C   0  0  0  0  0  2  0  0  0  0  0  0
  185.6070  175.3190  136.2810 C   0  0  0  0  0  2  0  0  0  0  0  0
  186.7210  178.3480  140.0640 C   0  0  0  0  0  0  0  0  0  0  0  0
  185.2540  178.4430  138.2380 C   0  0  2  0  0  3  0  0  0  0  0  0
  187.9630  177.9520  140.4820 C   0  0  0  0  0  0  0  0  0  0  0  0
  185.4140  179.4710  141.9470 C   0  0  0  0  0  1  0  0  0  0  0  0
  187.8330  177.6210  138.3190 C   0  0  0  0  0  0  0  0  0  0  0  0
  1 21  1  6  0  0  0
  1 16  1  0  0  0  0
  1  6  1  0  0  0  0
  2  8  2  0  0  0  0
  4 20  1  0  0  0  0
  5 27  1  0  0  0  0
  7  8  2  0  0  0  0
  8 14  1  0  0  0  0
  9 18  2  0  0  0  0
 10  8  1  0  0  0  0
 10 26  1  0  0  0  0
 11 15  2  0  0  0  0
 12 24  1  0  0  0  0
 13  9  1  0  0  0  0
 14  9  1  0  0  0  0
 15 19  1  0  0  0  0
 16 20  1  1  0  0  0
 16 28  1  0  0  0  0
 17  3  2  0  0  0  0
 17  5  1  0  0  0  0
 22  4  1  0  0  0  0
 22 21  1  0  0  0  0
 23 15  1  0  0  0  0
 23  6  1  0  0  0  0
 24 26  2  0  0  0  0
 24  5  1  0  0  0  0
 25 19  1  1  0  0  0
 25 12  1  0  0  0  0
 25 17  1  0  0  0  0
 26 13  1  0  0  0  0
 28 12  2  0  0  0  0
 28 10  1  0  0  0  0
M  END
>  <MODEL>
2

>  <REMARK>
 VINA RESULT:      -6.7      3.142      6.407
  Name = 
  0 active torsions:
  status: ('A' for Active; 'I' for Inactive)
                            x       y       z     vdW  Elec       q    Type
                         _______ _______ _______ _____ _____    ______ ____

>  <TORSDO>
F 0

$$$$
=
 OpenBabel11122411583D

 28 32  0  0  1  0  0  0  0  0999 V2000
  185.9650  177.6970  143.3960 C   0  0  2  0  0  3  0  0  0  0  0  0
  184.0790  177.8190  141.0540 O   0  0  0  0  0  0  0  0  0  0  0  0
  191.9980  177.5250  140.7240 O   0  0  0  0  0  0  0  0  0  0  0  0
  185.2460  180.4820  144.0140 C   0  0  0  0  0  2  0  0  0  0  0  0
  189.9870  177.4630  139.4780 N   0  0  0  0  0  0  0  0  0  0  0  0
  186.8530  176.4570  143.5640 C   0  0  0  0  0  2  0  0  0  0  0  0
  184.4900  179.8620  139.7400 O   0  0  0  0  0  0  0  0  0  0  0  0
  184.8760  178.4240  139.9350 S   0  0  0  0  0  0  0  0  0  0  0  0
  185.7410  177.5650  137.4960 C   0  0  0  0  0  0  0  0  0  0  0  0
  186.5690  178.3000  140.2500 N   0  0  0  0  0  0  0  0  0  0  0  0
  189.4480  178.4220  144.7570 O   0  0  0  0  0  0  0  0  0  0  0  0
  188.5990  178.2350  141.1520 C   0  0  0  0  0  0  0  0  0  0  0  0
  187.0980  177.5720  137.9630 N   0  0  0  0  0  2  0  0  0  0  0  0
  184.5710  177.5050  138.4390 C   0  0  0  0  0  2  0  0  0  0  0  0
  189.1050  177.4340  144.1290 C   0  0  0  0  0  0  0  0  0  0  0  0
  186.7070  178.8790  142.7480 C   0  0  2  0  0  3  0  0  0  0  0  0
  190.7490  177.6720  140.6770 C   0  0  0  0  0  0  0  0  0  0  0  0
  185.4630  177.3090  135.9090 S   0  0  0  0  0  0  0  0  0  0  0  0
  189.8720  177.0160  142.9100 C   0  0  0  0  0  2  0  0  0  0  0  0
  185.8250  180.1240  142.6510 C   0  0  0  0  0  2  0  0  0  0  0  0
  185.3240  178.0940  144.7290 C   0  0  0  0  0  2  0  0  0  0  0  0
  184.4290  179.3160  144.5540 C   0  0  0  0  0  2  0  0  0  0  0  0
  187.9510  176.6150  144.6190 C   0  0  0  0  0  2  0  0  0  0  0  0
  188.6990  177.8800  139.8670 C   0  0  0  0  0  0  0  0  0  0  0  0
  189.9090  178.1240  141.8610 C   0  0  2  0  0  3  0  0  0  0  0  0
  187.4510  177.9060  139.3070 C   0  0  0  0  0  0  0  0  0  0  0  0
  190.5020  177.4200  138.1200 C   0  0  0  0  0  1  0  0  0  0  0  0
  187.2680  178.5160  141.4030 C   0  0  0  0  0  0  0  0  0  0  0  0
  1  6  1  1  0  0  0
  1 21  1  0  0  0  0
  4 22  1  0  0  0  0
  5 24  1  0  0  0  0
  5 17  1  0  0  0  0
  6 23  1  0  0  0  0
  7  8  2  0  0  0  0
  8 10  1  0  0  0  0
  8  2  2  0  0  0  0
  9 13  1  0  0  0  0
  9 14  1  0  0  0  0
 10 28  1  0  0  0  0
 12 28  2  0  0  0  0
 12 25  1  0  0  0  0
 13 26  1  0  0  0  0
 14  8  1  0  0  0  0
 15 23  1  0  0  0  0
 15 11  2  0  0  0  0
 16 20  1  6  0  0  0
 16  1  1  0  0  0  0
 17  3  2  0  0  0  0
 17 25  1  0  0  0  0
 18  9  2  0  0  0  0
 19 15  1  0  0  0  0
 20  4  1  0  0  0  0
 22 21  1  0  0  0  0
 24 12  1  0  0  0  0
 25 19  1  1  0  0  0
 26 24  2  0  0  0  0
 26 10  1  0  0  0  0
 27  5  1  0  0  0  0
 28 16  1  0  0  0  0
M  END
>  <MODEL>
3

>  <REMARK>
 VINA RESULT:      -6.0      2.243      5.165
  Name = 
  0 active torsions:
  status: ('A' for Active; 'I' for Inactive)
                            x       y       z     vdW  Elec       q    Type
                         _______ _______ _______ _____ _____    ______ ____

>  <TORSDO>
F 0

$$$$
=
 OpenBabel11122411583D

 28 32  0  0  1  0  0  0  0  0999 V2000
  182.2290  177.0510  138.5210 C   0  0  2  0  0  3  0  0  0  0  0  0
  182.0810  174.4410  137.0300 O   0  0  0  0  0  0  0  0  0  0  0  0
  188.6330  178.6480  138.5410 O   0  0  0  0  0  0  0  0  0  0  0  0
  180.9050  178.3390  136.2310 C   0  0  0  0  0  2  0  0  0  0  0  0
  187.7680  176.6190  137.6800 N   0  0  0  0  0  0  0  0  0  0  0  0
  183.0110  177.1040  139.8400 C   0  0  0  0  0  2  0  0  0  0  0  0
  182.8950  174.7350  134.7230 O   0  0  0  0  0  0  0  0  0  0  0  0
  183.2890  174.4250  136.1390 S   0  0  0  0  0  0  0  0  0  0  0  0
  185.5290  172.8830  135.9510 C   0  0  0  0  0  0  0  0  0  0  0  0
  184.4720  175.5560  136.6880 N   0  0  0  0  0  0  0  0  0  0  0  0
  184.1080  180.3120  139.1120 O   0  0  0  0  0  0  0  0  0  0  0  0
  185.5720  177.3050  137.5090 C   0  0  0  0  0  0  0  0  0  0  0  0
  186.3370  173.9830  136.3940 N   0  0  0  0  0  2  0  0  0  0  0  0
  184.0510  172.8160  136.2200 C   0  0  0  0  0  2  0  0  0  0  0  0
  184.3400  179.2340  139.6350 C   0  0  0  0  0  0  0  0  0  0  0  0
  183.0360  177.5870  137.3260 C   0  0  2  0  0  3  0  0  0  0  0  0
  187.6440  177.9630  138.1690 C   0  0  0  0  0  0  0  0  0  0  0  0
  186.2740  171.5340  135.4150 S   0  0  0  0  0  0  0  0  0  0  0  0
  185.7250  178.6620  139.5900 C   0  0  0  0  0  2  0  0  0  0  0  0
  182.2160  177.5880  136.0350 C   0  0  0  0  0  2  0  0  0  0  0  0
  180.8800  177.7630  138.6570 C   0  0  0  0  0  2  0  0  0  0  0  0
  180.0990  177.6940  137.3500 C   0  0  0  0  0  2  0  0  0  0  0  0
  183.2460  178.5210  140.3680 C   0  0  0  0  0  2  0  0  0  0  0  0
  186.4540  176.3320  137.2620 C   0  0  0  0  0  0  0  0  0  0  0  0
  186.2160  178.4860  138.1560 C   0  0  2  0  0  3  0  0  0  0  0  0
  185.7840  175.2460  136.7670 C   0  0  0  0  0  0  0  0  0  0  0  0
  188.9820  175.9810  137.2010 C   0  0  0  0  0  1  0  0  0  0  0  0
  184.3230  176.8360  137.1410 C   0  0  0  0  0  0  0  0  0  0  0  0
  1 21  1  1  0  0  0
  1  6  1  0  0  0  0
  4 22  1  0  0  0  0
  5 17  1  0  0  0  0
  6 23  1  0  0  0  0
  7  8  2  0  0  0  0
  8 14  1  0  0  0  0
  8 10  1  0  0  0  0
  8  2  2  0  0  0  0
  9 14  1  0  0  0  0
  9 13  1  0  0  0  0
 10 26  1  0  0  0  0
 10 28  1  0  0  0  0
 11 15  2  0  0  0  0
 12 25  1  0  0  0  0
 13 26  1  0  0  0  0
 15 23  1  0  0  0  0
 16 20  1  6  0  0  0
 16  1  1  0  0  0  0
 17  3  2  0  0  0  0
 18  9  2  0  0  0  0
 19 15  1  0  0  0  0
 20  4  1  0  0  0  0
 22 21  1  0  0  0  0
 24 12  1  0  0  0  0
 24  5  1  0  0  0  0
 25 17  1  0  0  0  0
 25 19  1  1  0  0  0
 26 24  2  0  0  0  0
 27  5  1  0  0  0  0
 28 16  1  0  0  0  0
 28 12  2  0  0  0  0
M  END
>  <MODEL>
4

>  <REMARK>
 VINA RESULT:      -5.9      5.524      8.459
  Name = 
  0 active torsions:
  status: ('A' for Active; 'I' for Inactive)
                            x       y       z     vdW  Elec       q    Type
                         _______ _______ _______ _____ _____    ______ ____

>  <TORSDO>
F 0

$$$$
=
 OpenBabel11122411583D

 28 32  0  0  1  0  0  0  0  0999 V2000
  181.8930  177.8610  140.5720 C   0  0  2  0  0  3  0  0  0  0  0  0
  179.9230  175.6310  140.1140 O   0  0  0  0  0  0  0  0  0  0  0  0
  186.5300  177.0180  135.9500 O   0  0  0  0  0  0  0  0  0  0  0  0
  179.8600  179.7460  139.5880 C   0  0  0  0  0  2  0  0  0  0  0  0
  184.7250  175.5300  136.3140 N   0  0  0  0  0  0  0  0  0  0  0  0
  183.3310  177.5030  140.9710 C   0  0  0  0  0  2  0  0  0  0  0  0
  178.9340  175.8220  137.8660 O   0  0  0  0  0  0  0  0  0  0  0  0
  180.0740  175.2610  138.6670 S   0  0  0  0  0  0  0  0  0  0  0  0
  180.8860  173.0370  137.3170 C   0  0  0  0  0  0  0  0  0  0  0  0
  181.5780  175.8310  138.0400 N   0  0  0  0  0  0  0  0  0  0  0  0
  184.5560  180.1480  139.0940 O   0  0  0  0  0  0  0  0  0  0  0  0
  183.4160  176.9780  137.5440 C   0  0  0  0  0  0  0  0  0  0  0  0
  182.0670  173.7230  136.8740 N   0  0  0  0  0  2  0  0  0  0  0  0
  180.1030  173.4850  138.5200 C   0  0  0  0  0  2  0  0  0  0  0  0
  184.7240  179.0160  139.5170 C   0  0  0  0  0  0  0  0  0  0  0  0
  181.7510  178.1750  139.0720 C   0  0  2  0  0  3  0  0  0  0  0  0
  185.4170  176.7770  136.4860 C   0  0  0  0  0  0  0  0  0  0  0  0
  180.5590  171.5650  136.6930 S   0  0  0  0  0  0  0  0  0  0  0  0
  185.3990  177.9880  138.6590 C   0  0  0  0  0  2  0  0  0  0  0  0
  180.3250  178.5930  138.7080 C   0  0  0  0  0  2  0  0  0  0  0  0
  181.3500  178.9970  141.4420 C   0  0  0  0  0  2  0  0  0  0  0  0
  179.9160  179.3370  141.0540 C   0  0  0  0  0  2  0  0  0  0  0  0
  184.3040  178.6840  140.9150 C   0  0  0  0  0  2  0  0  0  0  0  0
  183.4980  175.7790  136.9590 C   0  0  0  0  0  0  0  0  0  0  0  0
  184.6580  177.7800  137.3410 C   0  0  2  0  0  3  0  0  0  0  0  0
  182.3750  175.0600  137.2700 C   0  0  0  0  0  0  0  0  0  0  0  0
  184.9660  174.5430  135.2760 C   0  0  0  0  0  1  0  0  0  0  0  0
  182.2070  177.0300  138.2160 C   0  0  0  0  0  0  0  0  0  0  0  0
  1  6  1  1  0  0  0
  1 21  1  0  0  0  0
  3 17  2  0  0  0  0
  4 22  1  0  0  0  0
  5 17  1  0  0  0  0
  5 24  1  0  0  0  0
  7  8  2  0  0  0  0
  8  2  2  0  0  0  0
  9 14  1  0  0  0  0
 10 28  1  0  0  0  0
 10  8  1  0  0  0  0
 11 15  2  0  0  0  0
 12 28  2  0  0  0  0
 13 26  1  0  0  0  0
 13  9  1  0  0  0  0
 14  8  1  0  0  0  0
 15 23  1  0  0  0  0
 16 20  1  1  0  0  0
 16  1  1  0  0  0  0
 17 25  1  0  0  0  0
 18  9  2  0  0  0  0
 19 15  1  0  0  0  0
 20  4  1  0  0  0  0
 22 21  1  0  0  0  0
 23  6  1  0  0  0  0
 24 26  2  0  0  0  0
 24 12  1  0  0  0  0
 25 12  1  0  0  0  0
 25 19  1  1  0  0  0
 26 10  1  0  0  0  0
 27  5  1  0  0  0  0
 28 16  1  0  0  0  0
M  END
>  <MODEL>
5

>  <REMARK>
 VINA RESULT:      -5.6      6.395      9.188
  Name = 
  0 active torsions:
  status: ('A' for Active; 'I' for Inactive)
                            x       y       z     vdW  Elec       q    Type
                         _______ _______ _______ _____ _____    ______ ____

>  <TORSDO>
F 0

$$$$
=
 OpenBabel11122411583D

 28 32  0  0  1  0  0  0  0  0999 V2000
  181.8770  176.4740  137.8020 C   0  0  2  0  0  3  0  0  0  0  0  0
  183.7760  175.4100  135.7230 O   0  0  0  0  0  0  0  0  0  0  0  0
  185.6950  179.7020  142.1110 O   0  0  0  0  0  0  0  0  0  0  0  0
  180.8610  178.3620  135.7870 C   0  0  0  0  0  2  0  0  0  0  0  0
  186.5180  178.4540  140.2760 N   0  0  0  0  0  0  0  0  0  0  0  0
  182.0110  175.9740  139.2460 C   0  0  0  0  0  2  0  0  0  0  0  0
  184.9400  177.2720  134.6060 O   0  0  0  0  0  0  0  0  0  0  0  0
  184.9670  176.3240  135.7700 S   0  0  0  0  0  0  0  0  0  0  0  0
  187.6000  176.0330  136.4120 C   0  0  0  0  0  0  0  0  0  0  0  0
  185.0060  177.2050  137.2540 N   0  0  0  0  0  0  0  0  0  0  0  0
  181.1690  179.1130  140.4560 O   0  0  0  0  0  0  0  0  0  0  0  0
  184.5350  178.3480  139.1010 C   0  0  0  0  0  0  0  0  0  0  0  0
  187.4120  176.8330  137.5890 N   0  0  0  0  0  2  0  0  0  0  0  0
  186.4550  175.3440  135.7220 C   0  0  0  0  0  2  0  0  0  0  0  0
  181.8100  178.0860  140.6060 C   0  0  0  0  0  0  0  0  0  0  0  0
  182.5410  177.8440  137.5800 C   0  0  2  0  0  3  0  0  0  0  0  0
  185.4790  179.1040  141.0240 C   0  0  0  0  0  0  0  0  0  0  0  0
  189.1180  175.6080  135.9910 S   0  0  0  0  0  0  0  0  0  0  0  0
  183.1910  178.1420  141.1860 C   0  0  0  0  0  2  0  0  0  0  0  0
  182.3400  178.3530  136.1530 C   0  0  0  0  0  2  0  0  0  0  0  0
  180.4120  176.4770  137.3570 C   0  0  0  0  0  2  0  0  0  0  0  0
  180.2860  176.9570  135.9170 C   0  0  0  0  0  2  0  0  0  0  0  0
  181.1840  176.7710  140.2590 C   0  0  0  0  0  2  0  0  0  0  0  0
  185.8430  178.0700  139.1010 C   0  0  0  0  0  0  0  0  0  0  0  0
  184.1140  179.0330  140.3590 C   0  0  2  0  0  3  0  0  0  0  0  0
  186.1400  177.3550  137.9730 C   0  0  0  0  0  0  0  0  0  0  0  0
  187.9480  178.6670  140.4140 C   0  0  0  0  0  1  0  0  0  0  0  0
  183.9990  177.8220  137.9390 C   0  0  0  0  0  0  0  0  0  0  0  0
  1 21  1  1  0  0  0
  1  6  1  0  0  0  0
  2  8  2  0  0  0  0
  4 22  1  0  0  0  0
  4 20  1  0  0  0  0
  5 27  1  0  0  0  0
  5 17  1  0  0  0  0
  6 23  1  0  0  0  0
  7  8  2  0  0  0  0
  8 10  1  0  0  0  0
  9 13  1  0  0  0  0
 10 28  1  0  0  0  0
 10 26  1  0  0  0  0
 11 15  2  0  0  0  0
 12 24  1  0  0  0  0
 12 25  1  0  0  0  0
 13 26  1  0  0  0  0
 14  8  1  0  0  0  0
 14  9  1  0  0  0  0
 15 19  1  0  0  0  0
 16 20  1  6  0  0  0
 16  1  1  0  0  0  0
 16 28  1  0  0  0  0
 17  3  2  0  0  0  0
 18  9  2  0  0  0  0
 22 21  1  0  0  0  0
 23 15  1  0  0  0  0
 24  5  1  0  0  0  0
 25 17  1  0  0  0  0
 25 19  1  1  0  0  0
 26 24  2  0  0  0  0
 28 12  2  0  0  0  0
M  END
>  <MODEL>
6

>  <REMARK>
 VINA RESULT:      -5.3      4.281      7.855
  Name = 
  0 active torsions:
  status: ('A' for Active; 'I' for Inactive)
                            x       y       z     vdW  Elec       q    Type
                         _______ _______ _______ _____ _____    ______ ____

>  <TORSDO>
F 0

$$$$
=
 OpenBabel11122411583D

 28 32  0  0  1  0  0  0  0  0999 V2000
  181.6240  177.9360  139.1610 C   0  0  2  0  0  3  0  0  0  0  0  0
  184.2890  177.7850  137.7700 O   0  0  0  0  0  0  0  0  0  0  0  0
  183.0680  179.0630  145.5030 O   0  0  0  0  0  0  0  0  0  0  0  0
  181.1510  180.4990  137.7940 C   0  0  0  0  0  2  0  0  0  0  0  0
  184.6840  178.6600  143.8190 N   0  0  0  0  0  0  0  0  0  0  0  0
  181.2910  176.8890  140.2310 C   0  0  0  0  0  2  0  0  0  0  0  0
  185.4920  179.9220  138.0060 O   0  0  0  0  0  0  0  0  0  0  0  0
  185.2290  178.5810  138.6290 S   0  0  0  0  0  0  0  0  0  0  0  0
  187.4550  178.0110  140.0960 C   0  0  0  0  0  0  0  0  0  0  0  0
  184.5900  178.7780  140.2200 N   0  0  0  0  0  0  0  0  0  0  0  0
  179.6080  179.2730  142.1030 O   0  0  0  0  0  0  0  0  0  0  0  0
  183.3100  179.0740  142.0120 C   0  0  0  0  0  0  0  0  0  0  0  0
  186.7320  178.2640  141.3100 N   0  0  0  0  0  2  0  0  0  0  0  0
  186.7590  177.6830  138.8040 C   0  0  0  0  0  2  0  0  0  0  0  0
  180.2940  178.2640  142.0910 C   0  0  0  0  0  0  0  0  0  0  0  0
  182.1120  179.2670  139.7600 C   0  0  2  0  0  3  0  0  0  0  0  0
  183.3580  178.9650  144.2810 C   0  0  0  0  0  0  0  0  0  0  0  0
  189.0660  177.7720  140.1830 S   0  0  0  0  0  0  0  0  0  0  0  0
  181.3410  178.0560  143.1440 C   0  0  0  0  0  2  0  0  0  0  0  0
  182.3760  180.3180  138.6810 C   0  0  0  0  0  2  0  0  0  0  0  0
  180.4420  178.1440  138.2110 C   0  0  0  0  0  2  0  0  0  0  0  0
  180.7840  179.1730  137.1400 C   0  0  0  0  0  2  0  0  0  0  0  0
  180.0410  177.2150  141.0530 C   0  0  0  0  0  2  0  0  0  0  0  0
  184.5510  178.8000  142.4240 C   0  0  0  0  0  0  0  0  0  0  0  0
  182.3590  179.1930  143.1580 C   0  0  2  0  0  3  0  0  0  0  0  0
  185.3450  178.6040  141.3260 C   0  0  0  0  0  0  0  0  0  0  0  0
  185.9140  178.7760  144.5820 C   0  0  0  0  0  1  0  0  0  0  0  0
  183.3220  179.0780  140.6290 C   0  0  0  0  0  0  0  0  0  0  0  0
  1 21  1  1  0  0  0
  1 16  1  0  0  0  0
  1  6  1  0  0  0  0
  2  8  2  0  0  0  0
  4 20  1  0  0  0  0
  5 17  1  0  0  0  0
  5 27  1  0  0  0  0
  6 23  1  0  0  0  0
  7  8  2  0  0  0  0
  8 14  1  0  0  0  0
  8 10  1  0  0  0  0
  9 18  2  0  0  0  0
  9 13  1  0  0  0  0
 10 28  1  0  0  0  0
 10 26  1  0  0  0  0
 12 24  1  0  0  0  0
 12 25  1  0  0  0  0
 13 26  1  0  0  0  0
 14  9  1  0  0  0  0
 15 11  2  0  0  0  0
 15 19  1  0  0  0  0
 16 20  1  6  0  0  0
 16 28  1  0  0  0  0
 17  3  2  0  0  0  0
 22  4  1  0  0  0  0
 22 21  1  0  0  0  0
 23 15  1  0  0  0  0
 24  5  1  0  0  0  0
 25 19  1  6  0  0  0
 25 17  1  0  0  0  0
 26 24  2  0  0  0  0
 28 12  2  0  0  0  0
M  END
>  <MODEL>
7

>  <REMARK>
 VINA RESULT:      -5.1      3.885      7.452
  Name = 
  0 active torsions:
  status: ('A' for Active; 'I' for Inactive)
                            x       y       z     vdW  Elec       q    Type
                         _______ _______ _______ _____ _____    ______ ____

>  <TORSDO>
F 0

$$$$
=
 OpenBabel11122411583D

 28 32  0  0  1  0  0  0  0  0999 V2000
  190.2550  177.7410  144.0630 C   0  0  2  0  0  3  0  0  0  0  0  0
  189.6490  178.0900  141.1360 O   0  0  0  0  0  0  0  0  0  0  0  0
  184.3990  178.1430  147.0810 O   0  0  0  0  0  0  0  0  0  0  0  0
  190.8810  174.9190  143.5100 C   0  0  0  0  0  2  0  0  0  0  0  0
  184.7300  178.4920  144.7630 N   0  0  0  0  0  0  0  0  0  0  0  0
  189.9550  178.9000  145.0210 C   0  0  0  0  0  2  0  0  0  0  0  0
  188.1600  176.2880  140.3570 O   0  0  0  0  0  0  0  0  0  0  0  0
  188.2200  177.6570  140.9730 S   0  0  0  0  0  0  0  0  0  0  0  0
  185.9000  178.8870  140.2430 C   0  0  0  0  0  0  0  0  0  0  0  0
  187.4000  177.6620  142.4910 N   0  0  0  0  0  0  0  0  0  0  0  0
  189.0050  176.6640  147.4960 O   0  0  0  0  0  0  0  0  0  0  0  0
  186.8080  177.4970  144.6280 C   0  0  0  0  0  0  0  0  0  0  0  0
  185.3940  178.7500  141.5790 N   0  0  0  0  0  2  0  0  0  0  0  0
  187.3700  178.8290  139.9340 C   0  0  0  0  0  2  0  0  0  0  0  0
  188.8500  177.7580  146.9760 C   0  0  0  0  0  0  0  0  0  0  0  0
  189.1590  176.6600  144.0700 C   0  0  2  0  0  3  0  0  0  0  0  0
  185.1400  178.0520  146.0670 C   0  0  0  0  0  0  0  0  0  0  0  0
  184.8910  179.4210  139.0770 S   0  0  0  0  0  0  0  0  0  0  0  0
  187.4770  178.3490  146.8680 C   0  0  0  0  0  2  0  0  0  0  0  0
  189.5100  175.4830  143.1590 C   0  0  0  0  0  2  0  0  0  0  0  0
  191.6380  177.1450  144.3410 C   0  0  0  0  0  2  0  0  0  0  0  0
  191.9400  176.0060  143.3750 C   0  0  0  0  0  2  0  0  0  0  0  0
  190.0470  178.5230  146.5020 C   0  0  0  0  0  2  0  0  0  0  0  0
  185.8010  178.0620  143.9550 C   0  0  0  0  0  0  0  0  0  0  0  0
  186.5300  177.4360  146.0930 C   0  0  2  0  0  3  0  0  0  0  0  0
  186.1620  178.1790  142.6400 C   0  0  0  0  0  0  0  0  0  0  0  0
  183.3700  178.7470  144.3240 C   0  0  0  0  0  1  0  0  0  0  0  0
  187.8150  177.2270  143.7180 C   0  0  0  0  0  0  0  0  0  0  0  0
  1 16  1  0  0  0  0
  1 21  1  1  0  0  0
  1  6  1  0  0  0  0
  5 17  1  0  0  0  0
  6 23  1  0  0  0  0
  7  8  2  0  0  0  0
  8  2  2  0  0  0  0
  8 10  1  0  0  0  0
  9 13  1  0  0  0  0
 10 26  1  0  0  0  0
 10 28  1  0  0  0  0
 12 25  1  0  0  0  0
 13 26  1  0  0  0  0
 14  9  1  0  0  0  0
 14  8  1  0  0  0  0
 15 11  2  0  0  0  0
 16 20  1  6  0  0  0
 17 25  1  0  0  0  0
 17  3  2  0  0  0  0
 18  9  2  0  0  0  0
 19 15  1  0  0  0  0
 20  4  1  0  0  0  0
 22  4  1  0  0  0  0
 22 21  1  0  0  0  0
 23 15  1  0  0  0  0
 24 12  1  0  0  0  0
 24  5  1  0  0  0  0
 25 19  1  1  0  0  0
 26 24  2  0  0  0  0
 27  5  1  0  0  0  0
 28 16  1  0  0  0  0
 28 12  2  0  0  0  0
M  END
>  <MODEL>
8

>  <REMARK>
 VINA RESULT:      -5.1      1.761      2.214
  Name = 
  0 active torsions:
  status: ('A' for Active; 'I' for Inactive)
                            x       y       z     vdW  Elec       q    Type
                         _______ _______ _______ _____ _____    ______ ____

>  <TORSDO>
F 0

$$$$
=
 OpenBabel11122411583D

 28 32  0  0  1  0  0  0  0  0999 V2000
  180.7220  174.8000  138.2180 C   0  0  2  0  0  3  0  0  0  0  0  0
  182.5100  172.6850  137.0420 O   0  0  0  0  0  0  0  0  0  0  0  0
  184.6170  180.0640  139.0460 O   0  0  0  0  0  0  0  0  0  0  0  0
  179.3670  174.9840  135.6130 C   0  0  0  0  0  2  0  0  0  0  0  0
  185.3770  177.9470  138.3080 N   0  0  0  0  0  0  0  0  0  0  0  0
  181.0280  175.3250  139.6270 C   0  0  0  0  0  2  0  0  0  0  0  0
  183.4020  173.4380  134.8720 O   0  0  0  0  0  0  0  0  0  0  0  0
  183.6160  173.4360  136.3590 S   0  0  0  0  0  0  0  0  0  0  0  0
  186.3120  173.6430  136.7060 C   0  0  0  0  0  0  0  0  0  0  0  0
  183.7130  175.0560  136.9470 N   0  0  0  0  0  0  0  0  0  0  0  0
  180.0280  178.5140  138.7040 O   0  0  0  0  0  0  0  0  0  0  0  0
  183.3120  177.1030  137.7170 C   0  0  0  0  0  0  0  0  0  0  0  0
  186.1630  175.0050  137.1360 N   0  0  0  0  0  2  0  0  0  0  0  0
  185.1740  172.6620  136.7470 C   0  0  0  0  0  2  0  0  0  0  0  0
  180.7680  177.8180  139.3810 C   0  0  0  0  0  0  0  0  0  0  0  0
  181.2410  175.7310  137.1080 C   0  0  2  0  0  3  0  0  0  0  0  0
  184.3570  178.9120  138.6080 C   0  0  0  0  0  0  0  0  0  0  0  0
  187.8170  173.0640  136.4560 S   0  0  0  0  0  0  0  0  0  0  0  0
  182.1860  178.2430  139.6200 C   0  0  0  0  0  2  0  0  0  0  0  0
  180.8680  175.2240  135.7150 C   0  0  0  0  0  2  0  0  0  0  0  0
  179.2280  174.5070  138.0560 C   0  0  0  0  0  2  0  0  0  0  0  0
  178.9310  173.9700  136.6620 C   0  0  0  0  0  2  0  0  0  0  0  0
  180.2300  176.5720  140.0130 C   0  0  0  0  0  2  0  0  0  0  0  0
  184.6340  176.9010  137.7270 C   0  0  0  0  0  0  0  0  0  0  0  0
  182.9490  178.4230  138.3110 C   0  0  2  0  0  3  0  0  0  0  0  0
  184.8890  175.6380  137.2660 C   0  0  0  0  0  0  0  0  0  0  0  0
  186.7900  178.2150  138.1020 C   0  0  0  0  0  1  0  0  0  0  0  0
  182.7220  175.9560  137.2160 C   0  0  0  0  0  0  0  0  0  0  0  0
  1 21  1  1  0  0  0
  1  6  1  0  0  0  0
  4 20  1  0  0  0  0
  4 22  1  0  0  0  0
  5 17  1  0  0  0  0
  6 23  1  0  0  0  0
  7  8  2  0  0  0  0
  8 14  1  0  0  0  0
  8 10  1  0  0  0  0
  8  2  2  0  0  0  0
  9 14  1  0  0  0  0
  9 13  1  0  0  0  0
 10 28  1  0  0  0  0
 10 26  1  0  0  0  0
 11 15  2  0  0  0  0
 12 24  1  0  0  0  0
 12 25  1  0  0  0  0
 13 26  1  0  0  0  0
 15 19  1  0  0  0  0
 15 23  1  0  0  0  0
 16 20  1  6  0  0  0
 16 28  1  0  0  0  0
 16  1  1  0  0  0  0
 17  3  2  0  0  0  0
 18  9  2  0  0  0  0
 22 21  1  0  0  0  0
 24  5  1  0  0  0  0
 25 17  1  0  0  0  0
 25 19  1  1  0  0  0
 26 24  2  0  0  0  0
 27  5  1  0  0  0  0
 28 12  2  0  0  0  0
M  END
>  <MODEL>
9

>  <REMARK>
 VINA RESULT:      -5.0      6.175      9.080
  Name = 
  0 active torsions:
  status: ('A' for Active; 'I' for Inactive)
                            x       y       z     vdW  Elec       q    Type
                         _______ _______ _______ _____ _____    ______ ____

>  <TORSDO>
F 0

$$$$
