=
 OpenBabel11122412293D

 34 37  0  0  1  0  0  0  0  0999 V2000
  189.1070  177.5020  146.4330 C   0  0  2  0  0  3  0  0  0  0  0  0
  187.1430  178.7980  147.1420 N   0  0  0  0  0  2  0  0  0  0  0  0
  191.2140  177.1730  145.1470 C   0  0  0  0  0  2  0  0  0  0  0  0
  186.8690  177.5350  145.0970 C   0  0  2  0  0  3  0  0  0  0  0  0
  184.6930  177.9700  143.0510 C   0  0  0  0  0  2  0  0  0  0  0  0
  187.6220  178.2000  143.9180 C   0  0  1  0  0  3  0  0  0  0  0  0
  185.8830  179.2050  146.5230 C   0  0  0  0  0  2  0  0  0  0  0  0
  184.8110  178.8970  144.2560 C   0  0  2  0  0  3  0  0  0  0  0  0
  189.6850  177.1610  145.0570 C   0  0  2  0  0  3  0  0  0  0  0  0
  189.1640  178.2000  144.0600 C   0  0  1  0  0  3  0  0  0  0  0  0
  191.0980  176.4690  147.5450 C   0  0  0  0  0  2  0  0  0  0  0  0
  185.8640  178.1900  142.1060 C   0  0  0  0  0  2  0  0  0  0  0  0
  191.6870  176.1470  146.1740 C   0  0  0  0  0  2  0  0  0  0  0  0
  187.1410  177.5410  142.6250 C   0  0  0  0  0  2  0  0  0  0  0  0
  185.5470  178.2160  145.4190 C   0  0  1  0  0  3  0  0  0  0  0  0
  189.5730  176.4880  147.4740 C   0  0  0  0  0  2  0  0  0  0  0  0
  187.5800  177.5940  146.4470 C   0  0  1  0  0  3  0  0  0  0  0  0
  189.9490  178.3150  142.7420 C   0  0  0  0  0  2  0  0  0  0  0  0
  189.7260  177.1190  141.8270 C   0  0  0  0  0  2  0  0  0  0  0  0
  191.9270  177.8430  141.2370 O   0  0  0  0  0  1  0  0  0  0  0  0
  190.9240  176.9240  140.9150 C   0  0  2  0  0  3  0  0  0  0  0  0
  190.5040  177.0760  139.4550 C   0  0  1  0  0  3  0  0  0  0  0  0
  190.5270  175.8400  138.8060 O   0  0  0  0  0  1  0  0  0  0  0  0
  189.1130  177.6790  139.3530 C   0  0  0  0  0  2  0  0  0  0  0  0
  189.1830  178.9460  138.7720 O   0  0  0  0  0  0  0  0  0  0  0  0
  188.8240  178.7400  137.4400 C   0  0  0  0  0  2  0  0  0  0  0  0
  187.4920  178.0210  137.3820 C   0  0  0  0  0  1  0  0  0  0  0  0
  183.4190  179.3160  144.7060 C   0  0  0  0  0  2  0  0  0  0  0  0
  182.3660  178.4400  144.0500 C   0  0  0  0  0  2  0  0  0  0  0  0
  181.4790  179.2810  143.1290 C   0  0  1  0  0  3  0  0  0  0  0  0
  182.1850  179.0890  140.8250 O   0  0  0  0  0  1  0  0  0  0  0  0
  181.2430  178.6450  141.7570 C   0  0  0  0  0  2  0  0  0  0  0  0
  180.3040  179.7810  143.7360 O   0  0  0  0  0  0  0  0  0  0  0  0
  179.5400  178.7100  144.2240 C   0  0  0  0  0  1  0  0  0  0  0  0
  1 17  1  0  0  0  0
  1 16  1  1  0  0  0
  3 13  1  0  0  0  0
  4 15  1  0  0  0  0
  4 17  1  0  0  0  0
  5  8  1  0  0  0  0
  6 10  1  0  0  0  0
  6  4  1  0  0  0  0
  7  2  1  0  0  0  0
  8 28  1  0  0  0  0
  8 15  1  0  0  0  0
  9  3  1  0  0  0  0
  9  1  1  0  0  0  0
 10  9  1  0  0  0  0
 12 14  1  0  0  0  0
 12  5  1  0  0  0  0
 13 11  1  0  0  0  0
 14  6  1  0  0  0  0
 15  7  1  0  0  0  0
 16 11  1  0  0  0  0
 17  2  1  0  0  0  0
 18 10  1  0  0  0  0
 19 18  1  0  0  0  0
 21 20  1  0  0  0  0
 21 19  1  0  0  0  0
 22 21  1  0  0  0  0
 23 22  1  0  0  0  0
 24 22  1  0  0  0  0
 25 24  1  0  0  0  0
 26 25  1  0  0  0  0
 27 26  1  0  0  0  0
 29 28  1  0  0  0  0
 30 33  1  0  0  0  0
 30 29  1  0  0  0  0
 31 32  1  0  0  0  0
 32 30  1  0  0  0  0
 33 34  1  0  0  0  0
M  END
>  <MODEL>
1

>  <REMARK>
 VINA RESULT:      -8.2      0.000      0.000
  Name = 
  12 active torsions:
  status: ('A' for Active; 'I' for Inactive)
    1  A    between atoms: C_3  and  C_16
    2  A    between atoms: C_3  and  C_19
    3  A    between atoms: C_5  and  C_11
    4  A    between atoms: C_5  and  C_19
    5  A    between atoms: O_8  and  C_12
    6  A    between atoms: O_8  and  C_16
    7  A    between atoms: C_11  and  C_20
    8  A    between atoms: C_17  and  C_28
    9  A    between atoms: C_28  and  C_29
   10  A    between atoms: C_29  and  C_32
   11  A    between atoms: O_31  and  C_32
   12  A    between atoms: C_32  and  C_34
                            x       y       z     vdW  Elec       q    Type
                         _______ _______ _______ _____ _____    ______ ____

>  <TORSDO>
F 12

$$$$
=
 OpenBabel11122412293D

 34 37  0  0  1  0  0  0  0  0999 V2000
  188.7490  177.2690  145.4270 C   0  0  2  0  0  3  0  0  0  0  0  0
  190.2730  175.9990  143.9750 N   0  0  0  0  0  2  0  0  0  0  0  0
  186.5090  177.8280  146.3590 C   0  0  0  0  0  2  0  0  0  0  0  0
  189.2250  177.9220  142.9490 C   0  0  2  0  0  3  0  0  0  0  0  0
  189.0580  178.4470  139.9810 C   0  0  0  0  0  2  0  0  0  0  0  0
  187.7350  177.6480  142.6260 C   0  0  1  0  0  3  0  0  0  0  0  0
  190.5570  175.9590  142.5430 C   0  0  0  0  0  2  0  0  0  0  0  0
  189.6660  177.1480  140.4990 C   0  0  2  0  0  3  0  0  0  0  0  0
  187.4410  178.0160  145.1580 C   0  0  2  0  0  3  0  0  0  0  0  0
  186.8340  177.4510  143.8700 C   0  0  1  0  0  3  0  0  0  0  0  0
  188.4810  177.6480  147.8870 C   0  0  0  0  0  2  0  0  0  0  0  0
  187.5600  178.4640  140.2440 C   0  0  0  0  0  2  0  0  0  0  0  0
  187.1650  178.3750  147.6240 C   0  0  0  0  0  2  0  0  0  0  0  0
  187.2430  178.7630  141.7030 C   0  0  0  0  0  2  0  0  0  0  0  0
  190.1780  177.3020  141.9380 C   0  0  1  0  0  3  0  0  0  0  0  0
  189.4180  177.8000  146.6920 C   0  0  0  0  0  2  0  0  0  0  0  0
  189.7340  177.3230  144.2580 C   0  0  1  0  0  3  0  0  0  0  0  0
  185.3380  177.7340  143.6550 C   0  0  0  0  0  2  0  0  0  0  0  0
  185.0200  179.2230  143.6790 C   0  0  0  0  0  2  0  0  0  0  0  0
  183.5620  179.1370  145.5730 O   0  0  0  0  0  1  0  0  0  0  0  0
  183.6160  179.4520  144.2120 C   0  0  2  0  0  3  0  0  0  0  0  0
  182.6130  178.6120  143.4260 C   0  0  1  0  0  3  0  0  0  0  0  0
  181.3770  178.5860  144.0770 O   0  0  0  0  0  1  0  0  0  0  0  0
  182.4360  179.1570  142.0190 C   0  0  0  0  0  2  0  0  0  0  0  0
  182.2520  178.1070  141.1190 O   0  0  0  0  0  0  0  0  0  0  0  0
  183.5060  177.9190  140.5390 C   0  0  0  0  0  2  0  0  0  0  0  0
  183.9370  179.1940  139.8440 C   0  0  0  0  0  1  0  0  0  0  0  0
  190.8120  176.7320  139.5890 C   0  0  0  0  0  2  0  0  0  0  0  0
  190.3620  176.7340  138.1380 C   0  0  0  0  0  2  0  0  0  0  0  0
  189.5650  175.4650  137.8300 C   0  0  1  0  0  3  0  0  0  0  0  0
  187.2330  175.8140  137.2990 O   0  0  0  0  0  1  0  0  0  0  0  0
  188.5050  175.6540  136.7430 C   0  0  0  0  0  2  0  0  0  0  0  0
  190.3510  174.3010  137.6650 O   0  0  0  0  0  0  0  0  0  0  0  0
  189.7870  173.4970  136.6620 C   0  0  0  0  0  1  0  0  0  0  0  0
  1 16  1  1  0  0  0
  2 17  1  0  0  0  0
  3 13  1  0  0  0  0
  4 17  1  0  0  0  0
  5 12  1  0  0  0  0
  5  8  1  0  0  0  0
  6  4  1  0  0  0  0
  6 10  1  0  0  0  0
  7  2  1  0  0  0  0
  8 15  1  0  0  0  0
  9  1  1  0  0  0  0
  9  3  1  0  0  0  0
 10  9  1  0  0  0  0
 12 14  1  0  0  0  0
 13 11  1  0  0  0  0
 14  6  1  0  0  0  0
 15  7  1  0  0  0  0
 15  4  1  0  0  0  0
 16 11  1  0  0  0  0
 17  1  1  0  0  0  0
 18 19  1  0  0  0  0
 18 10  1  0  0  0  0
 19 21  1  0  0  0  0
 21 20  1  0  0  0  0
 22 23  1  0  0  0  0
 22 21  1  0  0  0  0
 24 22  1  0  0  0  0
 25 24  1  0  0  0  0
 26 25  1  0  0  0  0
 27 26  1  0  0  0  0
 28  8  1  0  0  0  0
 29 28  1  0  0  0  0
 30 29  1  0  0  0  0
 32 31  1  0  0  0  0
 32 30  1  0  0  0  0
 33 30  1  0  0  0  0
 34 33  1  0  0  0  0
M  END
>  <MODEL>
2

>  <REMARK>
 VINA RESULT:      -8.2      2.050      6.978
  Name = 
  12 active torsions:
  status: ('A' for Active; 'I' for Inactive)
    1  A    between atoms: C_3  and  C_16
    2  A    between atoms: C_3  and  C_19
    3  A    between atoms: C_5  and  C_11
    4  A    between atoms: C_5  and  C_19
    5  A    between atoms: O_8  and  C_12
    6  A    between atoms: O_8  and  C_16
    7  A    between atoms: C_11  and  C_20
    8  A    between atoms: C_17  and  C_28
    9  A    between atoms: C_28  and  C_29
   10  A    between atoms: C_29  and  C_32
   11  A    between atoms: O_31  and  C_32
   12  A    between atoms: C_32  and  C_34
                            x       y       z     vdW  Elec       q    Type
                         _______ _______ _______ _____ _____    ______ ____

>  <TORSDO>
F 12

$$$$
=
 OpenBabel11122412293D

 34 37  0  0  1  0  0  0  0  0999 V2000
  188.7570  177.2810  145.4520 C   0  0  2  0  0  3  0  0  0  0  0  0
  190.2640  176.0030  143.9890 N   0  0  0  0  0  2  0  0  0  0  0  0
  186.5280  177.8440  146.4080 C   0  0  0  0  0  2  0  0  0  0  0  0
  189.2020  177.9190  142.9640 C   0  0  2  0  0  3  0  0  0  0  0  0
  188.9990  178.4260  139.9960 C   0  0  0  0  0  2  0  0  0  0  0  0
  187.7080  177.6420  142.6610 C   0  0  1  0  0  3  0  0  0  0  0  0
  190.5300  175.9540  142.5540 C   0  0  0  0  0  2  0  0  0  0  0  0
  189.6140  177.1290  140.5140 C   0  0  2  0  0  3  0  0  0  0  0  0
  187.4450  178.0250  145.1940 C   0  0  2  0  0  3  0  0  0  0  0  0
  186.8230  177.4510  143.9180 C   0  0  1  0  0  3  0  0  0  0  0  0
  188.5190  177.6750  147.9120 C   0  0  0  0  0  2  0  0  0  0  0  0
  187.5040  178.4430  140.2760 C   0  0  0  0  0  2  0  0  0  0  0  0
  187.1990  178.3990  147.6610 C   0  0  0  0  0  2  0  0  0  0  0  0
  187.2050  178.7510  141.7370 C   0  0  0  0  0  2  0  0  0  0  0  0
  190.1430  177.2920  141.9460 C   0  0  1  0  0  3  0  0  0  0  0  0
  189.4410  177.8200  146.7050 C   0  0  0  0  0  2  0  0  0  0  0  0
  189.7270  177.3280  144.2700 C   0  0  1  0  0  3  0  0  0  0  0  0
  185.3240  177.7330  143.7190 C   0  0  0  0  0  2  0  0  0  0  0  0
  185.0080  179.2220  143.7210 C   0  0  0  0  0  2  0  0  0  0  0  0
  183.5190  179.1270  145.5900 O   0  0  0  0  0  1  0  0  0  0  0  0
  183.5980  179.4590  144.2340 C   0  0  2  0  0  3  0  0  0  0  0  0
  182.5990  178.6400  143.4220 C   0  0  1  0  0  3  0  0  0  0  0  0
  181.3260  178.7090  143.9940 O   0  0  0  0  0  1  0  0  0  0  0  0
  182.5390  179.1300  141.9850 C   0  0  0  0  0  2  0  0  0  0  0  0
  182.4000  178.0480  141.1160 O   0  0  0  0  0  0  0  0  0  0  0  0
  183.6200  177.9790  140.4440 C   0  0  0  0  0  2  0  0  0  0  0  0
  183.8630  179.2770  139.7030 C   0  0  0  0  0  1  0  0  0  0  0  0
  190.7480  176.7080  139.5920 C   0  0  0  0  0  2  0  0  0  0  0  0
  190.2090  176.3500  138.2180 C   0  0  0  0  0  2  0  0  0  0  0  0
  191.1360  175.3440  137.5340 C   0  0  1  0  0  3  0  0  0  0  0  0
  193.2200  176.4680  137.0490 O   0  0  0  0  0  1  0  0  0  0  0  0
  192.6130  175.5300  137.8880 C   0  0  0  0  0  2  0  0  0  0  0  0
  190.6990  174.0000  137.5980 O   0  0  0  0  0  0  0  0  0  0  0  0
  190.7520  173.4320  136.3150 C   0  0  0  0  0  1  0  0  0  0  0  0
  1 16  1  1  0  0  0
  2 17  1  0  0  0  0
  3 13  1  0  0  0  0
  4 17  1  0  0  0  0
  5 12  1  0  0  0  0
  5  8  1  0  0  0  0
  6  4  1  0  0  0  0
  6 10  1  0  0  0  0
  7  2  1  0  0  0  0
  8 15  1  0  0  0  0
  9  1  1  0  0  0  0
  9  3  1  0  0  0  0
 10  9  1  0  0  0  0
 12 14  1  0  0  0  0
 13 11  1  0  0  0  0
 14  6  1  0  0  0  0
 15  7  1  0  0  0  0
 15  4  1  0  0  0  0
 16 11  1  0  0  0  0
 17  1  1  0  0  0  0
 18 19  1  0  0  0  0
 18 10  1  0  0  0  0
 19 21  1  0  0  0  0
 21 20  1  0  0  0  0
 22 23  1  0  0  0  0
 22 21  1  0  0  0  0
 24 22  1  0  0  0  0
 25 24  1  0  0  0  0
 26 25  1  0  0  0  0
 27 26  1  0  0  0  0
 28  8  1  0  0  0  0
 29 28  1  0  0  0  0
 30 33  1  0  0  0  0
 30 32  1  0  0  0  0
 30 29  1  0  0  0  0
 31 32  1  0  0  0  0
 34 33  1  0  0  0  0
M  END
>  <MODEL>
3

>  <REMARK>
 VINA RESULT:      -8.2      2.087      7.433
  Name = 
  12 active torsions:
  status: ('A' for Active; 'I' for Inactive)
    1  A    between atoms: C_3  and  C_16
    2  A    between atoms: C_3  and  C_19
    3  A    between atoms: C_5  and  C_11
    4  A    between atoms: C_5  and  C_19
    5  A    between atoms: O_8  and  C_12
    6  A    between atoms: O_8  and  C_16
    7  A    between atoms: C_11  and  C_20
    8  A    between atoms: C_17  and  C_28
    9  A    between atoms: C_28  and  C_29
   10  A    between atoms: C_29  and  C_32
   11  A    between atoms: O_31  and  C_32
   12  A    between atoms: C_32  and  C_34
                            x       y       z     vdW  Elec       q    Type
                         _______ _______ _______ _____ _____    ______ ____

>  <TORSDO>
F 12

$$$$
=
 OpenBabel11122412293D

 34 37  0  0  1  0  0  0  0  0999 V2000
  189.3100  177.2760  146.6110 C   0  0  2  0  0  3  0  0  0  0  0  0
  187.2040  178.2440  147.4310 N   0  0  0  0  0  2  0  0  0  0  0  0
  191.4900  177.3750  145.4110 C   0  0  0  0  0  2  0  0  0  0  0  0
  187.1350  177.3680  145.1770 C   0  0  2  0  0  3  0  0  0  0  0  0
  185.0130  177.9910  143.1230 C   0  0  0  0  0  2  0  0  0  0  0  0
  187.8690  178.3040  144.1850 C   0  0  1  0  0  3  0  0  0  0  0  0
  185.9380  178.6500  146.8260 C   0  0  0  0  0  2  0  0  0  0  0  0
  184.9930  178.6830  144.4830 C   0  0  2  0  0  3  0  0  0  0  0  0
  189.9730  177.2510  145.2320 C   0  0  2  0  0  3  0  0  0  0  0  0
  189.3970  178.4100  144.4130 C   0  0  1  0  0  3  0  0  0  0  0  0
  191.3420  176.2270  147.6280 C   0  0  0  0  0  2  0  0  0  0  0  0
  186.1960  178.4840  142.3040 C   0  0  0  0  0  2  0  0  0  0  0  0
  192.0150  176.2200  146.2580 C   0  0  0  0  0  2  0  0  0  0  0  0
  187.5060  177.8610  142.7670 C   0  0  0  0  0  2  0  0  0  0  0  0
  185.7420  177.8610  145.5410 C   0  0  1  0  0  3  0  0  0  0  0  0
  189.8270  176.1290  147.4740 C   0  0  0  0  0  2  0  0  0  0  0  0
  187.7820  177.2340  146.5540 C   0  0  1  0  0  3  0  0  0  0  0  0
  190.2210  178.8370  143.1860 C   0  0  0  0  0  2  0  0  0  0  0  0
  191.0990  177.7110  142.6570 C   0  0  0  0  0  2  0  0  0  0  0  0
  190.3840  175.6770  141.6210 O   0  0  0  0  0  1  0  0  0  0  0  0
  190.4490  177.0630  141.4470 C   0  0  2  0  0  3  0  0  0  0  0  0
  191.2320  177.4080  140.1820 C   0  0  1  0  0  3  0  0  0  0  0  0
  192.6060  177.3610  140.4260 O   0  0  0  0  0  1  0  0  0  0  0  0
  190.8820  176.4550  139.0520 C   0  0  0  0  0  2  0  0  0  0  0  0
  189.6190  176.7590  138.5440 O   0  0  0  0  0  0  0  0  0  0  0  0
  189.8740  177.4240  137.3450 C   0  0  0  0  0  2  0  0  0  0  0  0
  189.0650  178.7030  137.2940 C   0  0  0  0  0  1  0  0  0  0  0  0
  183.5510  178.8900  144.9200 C   0  0  0  0  0  2  0  0  0  0  0  0
  182.7710  179.6210  143.8410 C   0  0  0  0  0  2  0  0  0  0  0  0
  181.6820  178.7110  143.2690 C   0  0  1  0  0  3  0  0  0  0  0  0
  179.7000  177.7400  144.2550 O   0  0  0  0  0  1  0  0  0  0  0  0
  180.3000  178.9460  143.8850 C   0  0  0  0  0  2  0  0  0  0  0  0
  181.6700  178.6200  141.8580 O   0  0  0  0  0  0  0  0  0  0  0  0
  180.6330  179.4170  141.3490 C   0  0  0  0  0  1  0  0  0  0  0  0
  1 16  1  1  0  0  0
  3 13  1  0  0  0  0
  4 15  1  0  0  0  0
  4 17  1  0  0  0  0
  5  8  1  0  0  0  0
  6 10  1  0  0  0  0
  6  4  1  0  0  0  0
  7  2  1  0  0  0  0
  8 28  1  0  0  0  0
  8 15  1  0  0  0  0
  9  3  1  0  0  0  0
  9  1  1  0  0  0  0
 10  9  1  0  0  0  0
 12 14  1  0  0  0  0
 12  5  1  0  0  0  0
 13 11  1  0  0  0  0
 14  6  1  0  0  0  0
 15  7  1  0  0  0  0
 16 11  1  0  0  0  0
 17  1  1  0  0  0  0
 17  2  1  0  0  0  0
 18 10  1  0  0  0  0
 19 18  1  0  0  0  0
 21 20  1  0  0  0  0
 21 19  1  0  0  0  0
 22 23  1  0  0  0  0
 22 21  1  0  0  0  0
 24 22  1  0  0  0  0
 25 24  1  0  0  0  0
 26 25  1  0  0  0  0
 27 26  1  0  0  0  0
 29 28  1  0  0  0  0
 30 29  1  0  0  0  0
 30 32  1  0  0  0  0
 32 31  1  0  0  0  0
 33 30  1  0  0  0  0
 34 33  1  0  0  0  0
M  END
>  <MODEL>
4

>  <REMARK>
 VINA RESULT:      -8.1      0.963      1.578
  Name = 
  12 active torsions:
  status: ('A' for Active; 'I' for Inactive)
    1  A    between atoms: C_3  and  C_16
    2  A    between atoms: C_3  and  C_19
    3  A    between atoms: C_5  and  C_11
    4  A    between atoms: C_5  and  C_19
    5  A    between atoms: O_8  and  C_12
    6  A    between atoms: O_8  and  C_16
    7  A    between atoms: C_11  and  C_20
    8  A    between atoms: C_17  and  C_28
    9  A    between atoms: C_28  and  C_29
   10  A    between atoms: C_29  and  C_32
   11  A    between atoms: O_31  and  C_32
   12  A    between atoms: C_32  and  C_34
                            x       y       z     vdW  Elec       q    Type
                         _______ _______ _______ _____ _____    ______ ____

>  <TORSDO>
F 12

$$$$
=
 OpenBabel11122412293D

 34 37  0  0  1  0  0  0  0  0999 V2000
  189.1720  177.4880  146.4030 C   0  0  2  0  0  3  0  0  0  0  0  0
  187.2230  178.8360  147.0540 N   0  0  0  0  0  2  0  0  0  0  0  0
  191.2800  177.0830  145.1390 C   0  0  0  0  0  2  0  0  0  0  0  0
  186.9390  177.4990  145.0580 C   0  0  2  0  0  3  0  0  0  0  0  0
  184.7760  177.8810  142.9880 C   0  0  0  0  0  2  0  0  0  0  0  0
  187.7050  178.1080  143.8570 C   0  0  1  0  0  3  0  0  0  0  0  0
  185.9700  179.2350  146.4150 C   0  0  0  0  0  2  0  0  0  0  0  0
  184.9020  178.8530  144.1580 C   0  0  2  0  0  3  0  0  0  0  0  0
  189.7510  177.0880  145.0430 C   0  0  2  0  0  3  0  0  0  0  0  0
  189.2470  178.0940  144.0050 C   0  0  1  0  0  3  0  0  0  0  0  0
  191.1460  176.4740  147.5620 C   0  0  0  0  0  2  0  0  0  0  0  0
  185.9540  178.0500  142.0400 C   0  0  0  0  0  2  0  0  0  0  0  0
  191.7360  176.0920  146.2070 C   0  0  0  0  0  2  0  0  0  0  0  0
  187.2200  177.4060  142.5880 C   0  0  0  0  0  2  0  0  0  0  0  0
  185.6250  178.2080  145.3480 C   0  0  1  0  0  3  0  0  0  0  0  0
  189.6220  176.5100  147.4850 C   0  0  0  0  0  2  0  0  0  0  0  0
  187.6470  177.6010  146.4070 C   0  0  1  0  0  3  0  0  0  0  0  0
  190.0380  178.1480  142.6870 C   0  0  0  0  0  2  0  0  0  0  0  0
  190.3060  176.7630  142.1140 C   0  0  0  0  0  2  0  0  0  0  0  0
  191.7590  177.9240  140.6120 O   0  0  0  0  0  1  0  0  0  0  0  0
  190.8390  176.8740  140.6960 C   0  0  2  0  0  3  0  0  0  0  0  0
  189.6880  177.0890  139.7170 C   0  0  1  0  0  3  0  0  0  0  0  0
  189.5650  178.4420  139.3920 O   0  0  0  0  0  1  0  0  0  0  0  0
  189.8980  176.2780  138.4490 C   0  0  0  0  0  2  0  0  0  0  0  0
  190.9790  175.4110  138.6110 O   0  0  0  0  0  0  0  0  0  0  0  0
  191.3620  175.0820  137.3110 C   0  0  0  0  0  2  0  0  0  0  0  0
  192.5690  174.1680  137.3560 C   0  0  0  0  0  1  0  0  0  0  0  0
  183.5140  179.3070  144.5850 C   0  0  0  0  0  2  0  0  0  0  0  0
  182.4500  178.4560  143.9140 C   0  0  0  0  0  2  0  0  0  0  0  0
  181.2030  179.2970  143.6330 C   0  0  1  0  0  3  0  0  0  0  0  0
  181.7670  178.6890  141.3630 O   0  0  0  0  0  1  0  0  0  0  0  0
  180.8510  179.3960  142.1470 C   0  0  0  0  0  2  0  0  0  0  0  0
  180.0950  179.0050  144.4630 O   0  0  0  0  0  0  0  0  0  0  0  0
  178.9310  179.5460  143.8940 C   0  0  0  0  0  1  0  0  0  0  0  0
  1 17  1  0  0  0  0
  1 16  1  1  0  0  0
  3 13  1  0  0  0  0
  4 15  1  0  0  0  0
  4 17  1  0  0  0  0
  5  8  1  0  0  0  0
  6 10  1  0  0  0  0
  6  4  1  0  0  0  0
  7  2  1  0  0  0  0
  8 28  1  0  0  0  0
  8 15  1  0  0  0  0
  9  3  1  0  0  0  0
  9  1  1  0  0  0  0
 10  9  1  0  0  0  0
 12 14  1  0  0  0  0
 12  5  1  0  0  0  0
 13 11  1  0  0  0  0
 14  6  1  0  0  0  0
 15  7  1  0  0  0  0
 16 11  1  0  0  0  0
 17  2  1  0  0  0  0
 18 10  1  0  0  0  0
 19 18  1  0  0  0  0
 20 21  1  0  0  0  0
 21 19  1  0  0  0  0
 22 21  1  0  0  0  0
 23 22  1  0  0  0  0
 24 25  1  0  0  0  0
 24 22  1  0  0  0  0
 26 27  1  0  0  0  0
 26 25  1  0  0  0  0
 29 28  1  0  0  0  0
 30 29  1  0  0  0  0
 30 33  1  0  0  0  0
 31 32  1  0  0  0  0
 32 30  1  0  0  0  0
 34 33  1  0  0  0  0
M  END
>  <MODEL>
5

>  <REMARK>
 VINA RESULT:      -8.0      1.028      1.662
  Name = 
  12 active torsions:
  status: ('A' for Active; 'I' for Inactive)
    1  A    between atoms: C_3  and  C_16
    2  A    between atoms: C_3  and  C_19
    3  A    between atoms: C_5  and  C_11
    4  A    between atoms: C_5  and  C_19
    5  A    between atoms: O_8  and  C_12
    6  A    between atoms: O_8  and  C_16
    7  A    between atoms: C_11  and  C_20
    8  A    between atoms: C_17  and  C_28
    9  A    between atoms: C_28  and  C_29
   10  A    between atoms: C_29  and  C_32
   11  A    between atoms: O_31  and  C_32
   12  A    between atoms: C_32  and  C_34
                            x       y       z     vdW  Elec       q    Type
                         _______ _______ _______ _____ _____    ______ ____

>  <TORSDO>
F 12

$$$$
=
 OpenBabel11122412293D

 34 37  0  0  1  0  0  0  0  0999 V2000
  188.2130  177.9480  140.3090 C   0  0  2  0  0  3  0  0  0  0  0  0
  185.7980  178.3690  140.1260 N   0  0  0  0  0  2  0  0  0  0  0  0
  190.1940  176.5620  140.9050 C   0  0  0  0  0  2  0  0  0  0  0  0
  186.7890  178.9250  142.2610 C   0  0  2  0  0  3  0  0  0  0  0  0
  185.2700  179.3720  144.8310 C   0  0  0  0  0  2  0  0  0  0  0  0
  187.1060  177.6510  143.0850 C   0  0  1  0  0  3  0  0  0  0  0  0
  184.7170  178.6660  141.0630 C   0  0  0  0  0  2  0  0  0  0  0  0
  184.5330  178.9350  143.5690 C   0  0  2  0  0  3  0  0  0  0  0  0
  189.1000  177.4770  141.4640 C   0  0  2  0  0  3  0  0  0  0  0  0
  188.2080  176.7500  142.4740 C   0  0  1  0  0  3  0  0  0  0  0  0
  190.1540  177.8060  138.7350 C   0  0  0  0  0  2  0  0  0  0  0  0
  186.1450  178.2390  145.3430 C   0  0  0  0  0  2  0  0  0  0  0  0
  191.0370  177.3160  139.8800 C   0  0  0  0  0  2  0  0  0  0  0  0
  187.4160  178.0860  144.5180 C   0  0  0  0  0  2  0  0  0  0  0  0
  185.3180  179.3090  142.3030 C   0  0  1  0  0  3  0  0  0  0  0  0
  189.0400  178.7010  139.2710 C   0  0  0  0  0  2  0  0  0  0  0  0
  187.0340  178.8120  140.7590 C   0  0  1  0  0  3  0  0  0  0  0  0
  188.9360  175.8300  143.4690 C   0  0  0  0  0  2  0  0  0  0  0  0
  190.4060  176.1950  143.6280 C   0  0  0  0  0  2  0  0  0  0  0  0
  191.6490  178.0410  144.5020 O   0  0  0  0  0  1  0  0  0  0  0  0
  190.5820  177.1780  144.7710 C   0  0  2  0  0  3  0  0  0  0  0  0
  190.8150  176.4270  146.0790 C   0  0  1  0  0  3  0  0  0  0  0  0
  192.0700  176.7380  146.6080 O   0  0  0  0  0  1  0  0  0  0  0  0
  189.7370  176.7640  147.0960 C   0  0  0  0  0  2  0  0  0  0  0  0
  190.2210  177.6950  148.0150 O   0  0  0  0  0  0  0  0  0  0  0  0
  189.0770  178.2630  148.5740 C   0  0  0  0  0  2  0  0  0  0  0  0
  187.8720  177.4090  148.2360 C   0  0  0  0  0  1  0  0  0  0  0  0
  183.1610  179.5920  143.5350 C   0  0  0  0  0  2  0  0  0  0  0  0
  182.1440  178.7270  144.2590 C   0  0  0  0  0  2  0  0  0  0  0  0
  180.8400  178.6660  143.4590 C   0  0  1  0  0  3  0  0  0  0  0  0
  179.3560  177.2570  144.7460 O   0  0  0  0  0  1  0  0  0  0  0  0
  179.5880  178.5720  144.3340 C   0  0  0  0  0  2  0  0  0  0  0  0
  180.7400  179.6190  142.4200 O   0  0  0  0  0  0  0  0  0  0  0  0
  179.5350  179.4270  141.7260 C   0  0  0  0  0  1  0  0  0  0  0  0
  1 16  1  6  0  0  0
  1 17  1  0  0  0  0
  1  9  1  0  0  0  0
  2 17  1  0  0  0  0
  2  7  1  0  0  0  0
  3  9  1  0  0  0  0
  4 15  1  0  0  0  0
  4  6  1  0  0  0  0
  5 12  1  0  0  0  0
  6 14  1  0  0  0  0
  7 15  1  0  0  0  0
  8  5  1  0  0  0  0
  9 10  1  0  0  0  0
 10  6  1  0  0  0  0
 10 18  1  0  0  0  0
 11 16  1  0  0  0  0
 11 13  1  0  0  0  0
 13  3  1  0  0  0  0
 14 12  1  0  0  0  0
 15  8  1  0  0  0  0
 17  4  1  0  0  0  0
 18 19  1  0  0  0  0
 19 21  1  0  0  0  0
 20 21  1  0  0  0  0
 21 22  1  0  0  0  0
 22 23  1  0  0  0  0
 22 24  1  0  0  0  0
 24 25  1  0  0  0  0
 25 26  1  0  0  0  0
 27 26  1  0  0  0  0
 28  8  1  0  0  0  0
 28 29  1  0  0  0  0
 30 29  1  0  0  0  0
 30 32  1  0  0  0  0
 32 31  1  0  0  0  0
 33 30  1  0  0  0  0
 34 33  1  0  0  0  0
M  END
>  <MODEL>
6

>  <REMARK>
 VINA RESULT:      -7.4      2.391      5.467
  Name = 
  12 active torsions:
  status: ('A' for Active; 'I' for Inactive)
    1  A    between atoms: C_3  and  C_16
    2  A    between atoms: C_3  and  C_19
    3  A    between atoms: C_5  and  C_11
    4  A    between atoms: C_5  and  C_19
    5  A    between atoms: O_8  and  C_12
    6  A    between atoms: O_8  and  C_16
    7  A    between atoms: C_11  and  C_20
    8  A    between atoms: C_17  and  C_28
    9  A    between atoms: C_28  and  C_29
   10  A    between atoms: C_29  and  C_32
   11  A    between atoms: O_31  and  C_32
   12  A    between atoms: C_32  and  C_34
                            x       y       z     vdW  Elec       q    Type
                         _______ _______ _______ _____ _____    ______ ____

>  <TORSDO>
F 12

$$$$
=
 OpenBabel11122412293D

 34 37  0  0  1  0  0  0  0  0999 V2000
  188.7320  177.2830  145.4030 C   0  0  2  0  0  3  0  0  0  0  0  0
  190.4820  176.0790  144.1660 N   0  0  0  0  0  2  0  0  0  0  0  0
  186.3720  177.7230  146.0630 C   0  0  0  0  0  2  0  0  0  0  0  0
  189.4480  177.9140  142.9770 C   0  0  2  0  0  3  0  0  0  0  0  0
  189.5880  178.3680  139.9970 C   0  0  0  0  0  2  0  0  0  0  0  0
  188.0220  177.5430  142.4970 C   0  0  1  0  0  3  0  0  0  0  0  0
  190.9290  176.0270  142.7760 C   0  0  0  0  0  2  0  0  0  0  0  0
  190.2080  177.1180  140.6140 C   0  0  2  0  0  3  0  0  0  0  0  0
  187.4220  177.9440  144.9690 C   0  0  2  0  0  3  0  0  0  0  0  0
  186.9990  177.3160  143.6380 C   0  0  1  0  0  3  0  0  0  0  0  0
  188.1650  177.6940  147.8060 C   0  0  0  0  0  2  0  0  0  0  0  0
  188.0720  178.2990  140.0890 C   0  0  0  0  0  2  0  0  0  0  0  0
  186.8470  178.3350  147.3780 C   0  0  0  0  0  2  0  0  0  0  0  0
  187.5740  178.6080  141.4950 C   0  0  0  0  0  2  0  0  0  0  0  0
  190.5430  177.3320  142.0970 C   0  0  1  0  0  3  0  0  0  0  0  0
  189.2220  177.8790  146.7200 C   0  0  0  0  0  2  0  0  0  0  0  0
  189.8390  177.3730  144.3510 C   0  0  1  0  0  3  0  0  0  0  0  0
  185.5230  177.5040  143.2480 C   0  0  0  0  0  2  0  0  0  0  0  0
  185.0880  178.9620  143.3070 C   0  0  0  0  0  2  0  0  0  0  0  0
  182.7640  178.6800  143.7980 O   0  0  0  0  0  1  0  0  0  0  0  0
  183.6600  179.1050  142.8120 C   0  0  2  0  0  3  0  0  0  0  0  0
  183.4660  178.3000  141.5290 C   0  0  1  0  0  3  0  0  0  0  0  0
  182.1070  178.0990  141.2750 O   0  0  0  0  0  1  0  0  0  0  0  0
  184.1060  179.0060  140.3450 C   0  0  0  0  0  2  0  0  0  0  0  0
  183.2580  178.9490  139.2390 O   0  0  0  0  0  0  0  0  0  0  0  0
  183.9450  178.1690  138.3100 C   0  0  0  0  0  2  0  0  0  0  0  0
  183.0350  177.8590  137.1400 C   0  0  0  0  0  1  0  0  0  0  0  0
  191.4720  176.7540  139.8490 C   0  0  0  0  0  2  0  0  0  0  0  0
  191.1670  176.5950  138.3700 C   0  0  0  0  0  2  0  0  0  0  0  0
  192.2020  175.6770  137.7150 C   0  0  1  0  0  3  0  0  0  0  0  0
  190.3210  174.1770  137.4840 O   0  0  0  0  0  1  0  0  0  0  0  0
  191.7160  174.2370  137.5310 C   0  0  0  0  0  2  0  0  0  0  0  0
  192.8290  176.2190  136.5690 O   0  0  0  0  0  0  0  0  0  0  0  0
  194.1160  175.6740  136.4410 C   0  0  0  0  0  1  0  0  0  0  0  0
  1 16  1  1  0  0  0
  2 17  1  0  0  0  0
  3 13  1  0  0  0  0
  4 17  1  0  0  0  0
  5 12  1  0  0  0  0
  5  8  1  0  0  0  0
  6  4  1  0  0  0  0
  6 10  1  0  0  0  0
  7  2  1  0  0  0  0
  8 15  1  0  0  0  0
  9  1  1  0  0  0  0
  9  3  1  0  0  0  0
 10  9  1  0  0  0  0
 12 14  1  0  0  0  0
 13 11  1  0  0  0  0
 14  6  1  0  0  0  0
 15  7  1  0  0  0  0
 15  4  1  0  0  0  0
 16 11  1  0  0  0  0
 17  1  1  0  0  0  0
 18 19  1  0  0  0  0
 18 10  1  0  0  0  0
 21 19  1  0  0  0  0
 21 20  1  0  0  0  0
 22 21  1  0  0  0  0
 23 22  1  0  0  0  0
 24 22  1  0  0  0  0
 25 24  1  0  0  0  0
 26 25  1  0  0  0  0
 27 26  1  0  0  0  0
 28  8  1  0  0  0  0
 29 28  1  0  0  0  0
 30 29  1  0  0  0  0
 31 32  1  0  0  0  0
 32 30  1  0  0  0  0
 33 30  1  0  0  0  0
 34 33  1  0  0  0  0
M  END
>  <MODEL>
7

>  <REMARK>
 VINA RESULT:      -7.3      2.303      7.416
  Name = 
  12 active torsions:
  status: ('A' for Active; 'I' for Inactive)
    1  A    between atoms: C_3  and  C_16
    2  A    between atoms: C_3  and  C_19
    3  A    between atoms: C_5  and  C_11
    4  A    between atoms: C_5  and  C_19
    5  A    between atoms: O_8  and  C_12
    6  A    between atoms: O_8  and  C_16
    7  A    between atoms: C_11  and  C_20
    8  A    between atoms: C_17  and  C_28
    9  A    between atoms: C_28  and  C_29
   10  A    between atoms: C_29  and  C_32
   11  A    between atoms: O_31  and  C_32
   12  A    between atoms: C_32  and  C_34
                            x       y       z     vdW  Elec       q    Type
                         _______ _______ _______ _____ _____    ______ ____

>  <TORSDO>
F 12

$$$$
=
 OpenBabel11122412293D

 34 37  0  0  1  0  0  0  0  0999 V2000
  184.9170  178.9900  142.7920 C   0  0  2  0  0  3  0  0  0  0  0  0
  186.6280  179.7600  141.2050 N   0  0  0  0  0  2  0  0  0  0  0  0
  183.9870  178.6550  145.0780 C   0  0  0  0  0  2  0  0  0  0  0  0
  186.9660  177.5360  142.0950 C   0  0  2  0  0  3  0  0  0  0  0  0
  189.5560  175.9900  142.0040 C   0  0  0  0  0  2  0  0  0  0  0  0
  187.4560  177.5850  143.5640 C   0  0  1  0  0  3  0  0  0  0  0  0
  187.9610  179.3100  140.8090 C   0  0  0  0  0  2  0  0  0  0  0  0
  189.4980  177.4240  141.4880 C   0  0  2  0  0  3  0  0  0  0  0  0
  184.9830  178.1150  144.0460 C   0  0  2  0  0  3  0  0  0  0  0  0
  186.4220  178.1510  144.5680 C   0  0  1  0  0  3  0  0  0  0  0  0
  182.5050  179.4860  143.2420 C   0  0  0  0  0  2  0  0  0  0  0  0
  189.3980  175.9730  143.5170 C   0  0  0  0  0  2  0  0  0  0  0  0
  182.5730  178.6310  144.5060 C   0  0  0  0  0  2  0  0  0  0  0  0
  187.9500  176.1870  143.9380 C   0  0  0  0  0  2  0  0  0  0  0  0
  188.0700  177.8200  141.0880 C   0  0  1  0  0  3  0  0  0  0  0  0
  183.5070  178.9810  142.2070 C   0  0  0  0  0  2  0  0  0  0  0  0
  185.9270  178.5890  141.7150 C   0  0  1  0  0  3  0  0  0  0  0  0
  186.6150  177.7160  146.0310 C   0  0  0  0  0  2  0  0  0  0  0  0
  187.8680  178.3170  146.6540 C   0  0  0  0  0  2  0  0  0  0  0  0
  188.2550  177.4420  148.8460 O   0  0  0  0  0  1  0  0  0  0  0  0
  188.5850  177.2780  147.4970 C   0  0  2  0  0  3  0  0  0  0  0  0
  190.0950  177.3890  147.2960 C   0  0  1  0  0  3  0  0  0  0  0  0
  190.7020  176.1380  147.4270 O   0  0  0  0  0  1  0  0  0  0  0  0
  190.4170  177.9710  145.9300 C   0  0  0  0  0  2  0  0  0  0  0  0
  191.7330  177.6690  145.5800 O   0  0  0  0  0  0  0  0  0  0  0  0
  191.8810  178.1830  144.2930 C   0  0  0  0  0  2  0  0  0  0  0  0
  190.9080  179.3260  144.0900 C   0  0  0  0  0  1  0  0  0  0  0  0
  190.4240  177.5640  140.2890 C   0  0  0  0  0  2  0  0  0  0  0  0
  189.9460  176.6860  139.1460 C   0  0  0  0  0  2  0  0  0  0  0  0
  190.9340  176.7530  137.9800 C   0  0  1  0  0  3  0  0  0  0  0  0
  193.3510  176.7280  138.0160 O   0  0  0  0  0  1  0  0  0  0  0  0
  192.2120  175.9430  138.2120 C   0  0  0  0  0  2  0  0  0  0  0  0
  190.3560  176.5550  136.7050 O   0  0  0  0  0  0  0  0  0  0  0  0
  189.0990  175.9480  136.8520 C   0  0  0  0  0  1  0  0  0  0  0  0
  1 16  1  6  0  0  0
  1  9  1  0  0  0  0
  2 17  1  0  0  0  0
  4  6  1  0  0  0  0
  5 12  1  0  0  0  0
  6 14  1  0  0  0  0
  6 10  1  0  0  0  0
  7 15  1  0  0  0  0
  7  2  1  0  0  0  0
  8  5  1  0  0  0  0
  9 10  1  0  0  0  0
  9  3  1  0  0  0  0
 10 18  1  0  0  0  0
 11 13  1  0  0  0  0
 12 14  1  0  0  0  0
 13  3  1  0  0  0  0
 15  8  1  0  0  0  0
 15  4  1  0  0  0  0
 16 11  1  0  0  0  0
 17  4  1  0  0  0  0
 17  1  1  0  0  0  0
 18 19  1  0  0  0  0
 19 21  1  0  0  0  0
 21 20  1  0  0  0  0
 22 23  1  0  0  0  0
 22 21  1  0  0  0  0
 24 22  1  0  0  0  0
 25 24  1  0  0  0  0
 26 25  1  0  0  0  0
 27 26  1  0  0  0  0
 28  8  1  0  0  0  0
 29 28  1  0  0  0  0
 30 32  1  0  0  0  0
 30 29  1  0  0  0  0
 31 32  1  0  0  0  0
 33 34  1  0  0  0  0
 33 30  1  0  0  0  0
M  END
>  <MODEL>
8

>  <REMARK>
 VINA RESULT:      -7.0      3.043      7.659
  Name = 
  12 active torsions:
  status: ('A' for Active; 'I' for Inactive)
    1  A    between atoms: C_3  and  C_16
    2  A    between atoms: C_3  and  C_19
    3  A    between atoms: C_5  and  C_11
    4  A    between atoms: C_5  and  C_19
    5  A    between atoms: O_8  and  C_12
    6  A    between atoms: O_8  and  C_16
    7  A    between atoms: C_11  and  C_20
    8  A    between atoms: C_17  and  C_28
    9  A    between atoms: C_28  and  C_29
   10  A    between atoms: C_29  and  C_32
   11  A    between atoms: O_31  and  C_32
   12  A    between atoms: C_32  and  C_34
                            x       y       z     vdW  Elec       q    Type
                         _______ _______ _______ _____ _____    ______ ____

>  <TORSDO>
F 12

$$$$
=
 OpenBabel11122412293D

 34 37  0  0  1  0  0  0  0  0999 V2000
  189.0500  177.7520  140.5270 C   0  0  2  0  0  3  0  0  0  0  0  0
  190.5680  178.1880  142.4100 N   0  0  0  0  0  2  0  0  0  0  0  0
  187.2040  178.3530  138.9660 C   0  0  0  0  0  2  0  0  0  0  0  0
  188.4210  177.2490  143.0060 C   0  0  2  0  0  3  0  0  0  0  0  0
  187.2180  177.2520  145.7740 C   0  0  0  0  0  2  0  0  0  0  0  0
  187.2930  178.3050  142.8990 C   0  0  1  0  0  3  0  0  0  0  0  0
  190.4370  178.2440  143.8640 C   0  0  0  0  0  2  0  0  0  0  0  0
  188.5430  177.9610  145.5110 C   0  0  2  0  0  3  0  0  0  0  0  0
  187.5300  177.8470  140.3760 C   0  0  2  0  0  3  0  0  0  0  0  0
  187.0100  178.7970  141.4580 C   0  0  1  0  0  3  0  0  0  0  0  0
  189.2820  177.2790  138.0800 C   0  0  0  0  0  2  0  0  0  0  0  0
  186.0820  177.9980  145.0920 C   0  0  0  0  0  2  0  0  0  0  0  0
  187.7680  177.3950  137.9210 C   0  0  0  0  0  2  0  0  0  0  0  0
  186.0540  177.7380  143.5920 C   0  0  0  0  0  2  0  0  0  0  0  0
  189.2500  177.3880  144.2740 C   0  0  1  0  0  3  0  0  0  0  0  0
  189.6320  176.8000  139.4860 C   0  0  0  0  0  2  0  0  0  0  0  0
  189.4980  177.3260  141.9260 C   0  0  1  0  0  3  0  0  0  0  0  0
  185.6040  179.3760  141.2210 C   0  0  0  0  0  2  0  0  0  0  0  0
  184.6240  178.3280  140.7090 C   0  0  0  0  0  2  0  0  0  0  0  0
  184.3190  180.1280  139.1640 O   0  0  0  0  0  1  0  0  0  0  0  0
  183.7960  178.8970  139.5710 C   0  0  2  0  0  3  0  0  0  0  0  0
  182.3400  179.0490  140.0050 C   0  0  1  0  0  3  0  0  0  0  0  0
  181.4960  178.3320  139.1540 O   0  0  0  0  0  1  0  0  0  0  0  0
  182.1490  178.5680  141.4340 C   0  0  0  0  0  2  0  0  0  0  0  0
  180.8050  178.2710  141.6620 O   0  0  0  0  0  0  0  0  0  0  0  0
  180.4380  179.0990  142.7220 C   0  0  0  0  0  2  0  0  0  0  0  0
  180.2340  178.2650  143.9690 C   0  0  0  0  0  1  0  0  0  0  0  0
  189.4420  177.8150  146.7290 C   0  0  0  0  0  2  0  0  0  0  0  0
  189.9710  176.3940  146.8290 C   0  0  0  0  0  2  0  0  0  0  0  0
  191.5000  176.3970  146.7840 C   0  0  1  0  0  3  0  0  0  0  0  0
  193.1560  176.0150  148.5030 O   0  0  0  0  0  1  0  0  0  0  0  0
  192.1440  175.4060  147.7560 C   0  0  0  0  0  2  0  0  0  0  0  0
  192.0520  176.3600  145.4830 O   0  0  0  0  0  0  0  0  0  0  0  0
  192.0560  175.0360  145.0150 C   0  0  0  0  0  1  0  0  0  0  0  0
  1 16  1  6  0  0  0
  1 17  1  0  0  0  0
  2  7  1  0  0  0  0
  3  9  1  0  0  0  0
  4 15  1  0  0  0  0
  6  4  1  0  0  0  0
  6 14  1  0  0  0  0
  7 15  1  0  0  0  0
  8  5  1  0  0  0  0
  8 28  1  0  0  0  0
  9  1  1  0  0  0  0
  9 10  1  0  0  0  0
 10  6  1  0  0  0  0
 11 16  1  0  0  0  0
 12  5  1  0  0  0  0
 13 11  1  0  0  0  0
 13  3  1  0  0  0  0
 14 12  1  0  0  0  0
 15  8  1  0  0  0  0
 17  2  1  0  0  0  0
 17  4  1  0  0  0  0
 18 10  1  0  0  0  0
 19 18  1  0  0  0  0
 20 21  1  0  0  0  0
 21 22  1  0  0  0  0
 21 19  1  0  0  0  0
 22 24  1  0  0  0  0
 23 22  1  0  0  0  0
 24 25  1  0  0  0  0
 25 26  1  0  0  0  0
 26 27  1  0  0  0  0
 28 29  1  0  0  0  0
 30 29  1  0  0  0  0
 30 32  1  0  0  0  0
 32 31  1  0  0  0  0
 33 30  1  0  0  0  0
 34 33  1  0  0  0  0
M  END
>  <MODEL>
9

>  <REMARK>
 VINA RESULT:      -6.9      2.337      7.855
  Name = 
  12 active torsions:
  status: ('A' for Active; 'I' for Inactive)
    1  A    between atoms: C_3  and  C_16
    2  A    between atoms: C_3  and  C_19
    3  A    between atoms: C_5  and  C_11
    4  A    between atoms: C_5  and  C_19
    5  A    between atoms: O_8  and  C_12
    6  A    between atoms: O_8  and  C_16
    7  A    between atoms: C_11  and  C_20
    8  A    between atoms: C_17  and  C_28
    9  A    between atoms: C_28  and  C_29
   10  A    between atoms: C_29  and  C_32
   11  A    between atoms: O_31  and  C_32
   12  A    between atoms: C_32  and  C_34
                            x       y       z     vdW  Elec       q    Type
                         _______ _______ _______ _____ _____    ______ ____

>  <TORSDO>
F 12

$$$$
