=
 OpenBabel11122410593D

 31 35  0  0  1  0  0  0  0  0999 V2000
  188.8420  178.2250  139.6310 C   0  0  0  0  0  0  0  0  0  0  0  0
  186.0480  179.0810  142.0600 C   0  0  2  0  0  3  0  0  0  0  0  0
  184.7300  178.6250  141.4350 C   0  0  2  0  0  3  0  0  0  0  0  0
  183.4680  177.7340  139.4320 C   0  0  2  0  0  3  0  0  0  0  0  0
  187.2500  178.4170  141.4330 C   0  0  0  0  0  0  0  0  0  0  0  0
  189.4300  177.1750  140.2660 N   0  0  0  0  0  0  0  0  0  0  0  0
  184.6650  178.5350  139.9250 C   0  0  0  0  0  2  0  0  0  0  0  0
  186.2900  177.4450  143.9680 C   0  0  2  0  0  3  0  0  0  0  0  0
  189.4610  178.7700  138.0880 Cl  0  0  0  0  0  0  0  0  0  0  0  0
  183.5850  178.7260  143.6690 C   0  0  0  0  0  2  0  0  0  0  0  0
  183.3730  177.8480  137.9250 C   0  0  0  0  0  1  0  0  0  0  0  0
  187.4570  176.9140  143.3400 O   0  0  0  0  0  0  0  0  0  0  0  0
  186.0820  178.9230  143.5920 C   0  0  2  0  0  3  0  0  0  0  0  0
  187.7420  178.8660  140.2040 C   0  0  0  0  0  3  0  0  0  0  0  0
  182.2110  178.2970  140.0650 C   0  0  0  0  0  2  0  0  0  0  0  0
  187.8830  177.3410  142.0780 C   0  0  0  0  0  0  0  0  0  0  0  0
  188.9790  176.7280  141.4690 C   0  0  0  0  0  3  0  0  0  0  0  0
  184.7980  179.4950  144.1840 C   0  0  0  0  0  2  0  0  0  0  0  0
  183.5820  178.5730  142.1710 C   0  0  2  0  0  3  0  0  0  0  0  0
  182.2820  178.0930  141.5730 C   0  0  0  0  0  2  0  0  0  0  0  0
  186.3900  177.2540  145.4740 C   0  0  0  0  0  2  0  0  0  0  0  0
  186.8120  178.8370  147.3630 C   0  0  0  0  0  1  0  0  0  0  0  0
  187.3600  178.2690  146.0660 C   0  0  1  0  0  3  0  0  0  0  0  0
  191.3270  176.6200  146.9690 C   0  0  2  0  0  3  0  0  0  0  0  0
  188.9830  177.1890  147.6160 C   0  0  0  0  0  2  0  0  0  0  0  0
  189.7880  178.9070  144.5930 O   0  0  0  0  0  0  0  0  0  0  0  0
  192.4680  175.6730  147.2780 C   0  0  0  0  0  1  0  0  0  0  0  0
  190.0570  176.1060  147.6240 C   0  0  0  0  0  2  0  0  0  0  0  0
  189.7570  177.8830  145.3240 C   0  0  0  0  0  0  0  0  0  0  0  0
  188.6880  177.6870  146.2700 N   0  0  0  0  0  0  0  0  0  0  0  0
  191.0610  176.6660  145.1770 S   0  0  0  0  0  0  0  0  0  0  0  0
  1 14  2  0  0  0  0
  1  6  1  0  0  0  0
  2  5  1  6  0  0  0
  2 13  1  0  0  0  0
  3  7  1  6  0  0  0
  3  2  1  0  0  0  0
  3 19  1  0  0  0  0
  4 11  1  6  0  0  0
  4  7  1  0  0  0  0
  4 15  1  0  0  0  0
  5 16  2  0  0  0  0
  6 17  2  0  0  0  0
  8 21  1  1  0  0  0
  9  1  1  0  0  0  0
 10 18  1  0  0  0  0
 12  8  1  0  0  0  0
 13  8  1  0  0  0  0
 13 18  1  1  0  0  0
 14  5  1  0  0  0  0
 15 20  1  0  0  0  0
 16 12  1  0  0  0  0
 17 16  1  0  0  0  0
 19 20  1  1  0  0  0
 19 10  1  0  0  0  0
 21 23  1  0  0  0  0
 23 30  1  0  0  0  0
 23 22  1  1  0  0  0
 24 27  1  6  0  0  0
 24 28  1  0  0  0  0
 25 28  1  0  0  0  0
 26 29  2  0  0  0  0
 29 30  1  0  0  0  0
 30 25  1  0  0  0  0
 31 29  1  0  0  0  0
 31 24  1  0  0  0  0
M  END
>  <MODEL>
1

>  <REMARK>
 VINA RESULT:      -8.7      0.000      0.000
  Name = 
  3 active torsions:
  status: ('A' for Active; 'I' for Inactive)
    1  A    between atoms: C_5  and  C_16
    2  A    between atoms: C_5  and  N_30
    3  A    between atoms: C_10  and  C_16
                            x       y       z     vdW  Elec       q    Type
                         _______ _______ _______ _____ _____    ______ ____

>  <TORSDO>
F 3

$$$$
=
 OpenBabel11122410593D

 31 35  0  0  1  0  0  0  0  0999 V2000
  191.2360  176.0060  143.8020 C   0  0  0  0  0  0  0  0  0  0  0  0
  187.5620  176.9710  143.7120 C   0  0  2  0  0  3  0  0  0  0  0  0
  187.2410  177.7090  145.0110 C   0  0  2  0  0  3  0  0  0  0  0  0
  187.9480  178.4390  147.3280 C   0  0  2  0  0  3  0  0  0  0  0  0
  189.0410  176.9310  143.4160 C   0  0  0  0  0  0  0  0  0  0  0  0
  191.7600  176.8810  142.9020 N   0  0  0  0  0  0  0  0  0  0  0  0
  188.1010  177.4060  146.2200 C   0  0  0  0  0  2  0  0  0  0  0  0
  187.3980  178.8390  142.0210 C   0  0  2  0  0  3  0  0  0  0  0  0
  192.2820  174.8720  144.6280 Cl  0  0  0  0  0  0  0  0  0  0  0  0
  185.1440  178.6590  144.0050 C   0  0  0  0  0  2  0  0  0  0  0  0
  188.6910  177.9680  148.5600 C   0  0  0  0  0  1  0  0  0  0  0  0
  188.7920  178.6940  141.7540 O   0  0  0  0  0  0  0  0  0  0  0  0
  186.7830  177.5110  142.4970 C   0  0  2  0  0  3  0  0  0  0  0  0
  189.8670  176.0140  144.0740 C   0  0  0  0  0  3  0  0  0  0  0  0
  186.4740  178.5910  147.6500 C   0  0  0  0  0  2  0  0  0  0  0  0
  189.6020  177.8140  142.4780 C   0  0  0  0  0  0  0  0  0  0  0  0
  190.9760  177.7730  142.2370 C   0  0  0  0  0  3  0  0  0  0  0  0
  185.3110  177.6560  142.8690 C   0  0  0  0  0  2  0  0  0  0  0  0
  186.0690  178.3920  145.1630 C   0  0  2  0  0  3  0  0  0  0  0  0
  185.7560  179.1510  146.4290 C   0  0  0  0  0  2  0  0  0  0  0  0
  186.6940  179.3760  140.7840 C   0  0  0  0  0  2  0  0  0  0  0  0
  184.7300  178.4150  139.5700 C   0  0  0  0  0  1  0  0  0  0  0  0
  186.1940  178.2210  139.9260 C   0  0  1  0  0  3  0  0  0  0  0  0
  188.3810  177.6280  136.1650 C   0  0  2  0  0  3  0  0  0  0  0  0
  186.3150  178.2220  137.4380 C   0  0  0  0  0  2  0  0  0  0  0  0
  188.6060  176.6140  139.6540 O   0  0  0  0  0  0  0  0  0  0  0  0
  189.0980  177.8630  134.8530 C   0  0  0  0  0  1  0  0  0  0  0  0
  187.2540  178.6360  136.3090 C   0  0  0  0  0  2  0  0  0  0  0  0
  188.3130  177.4510  138.7600 C   0  0  0  0  0  0  0  0  0  0  0  0
  187.0070  178.0570  138.7190 N   0  0  0  0  0  0  0  0  0  0  0  0
  189.5430  177.8820  137.5330 S   0  0  0  0  0  0  0  0  0  0  0  0
  1 14  1  0  0  0  0
  1  9  1  0  0  0  0
  2  5  1  6  0  0  0
  2  3  1  0  0  0  0
  3 19  1  0  0  0  0
  3  7  1  1  0  0  0
  4 15  1  0  0  0  0
  4 11  1  1  0  0  0
  5 14  2  0  0  0  0
  6  1  2  0  0  0  0
  7  4  1  0  0  0  0
  8 21  1  6  0  0  0
  8 13  1  0  0  0  0
 12  8  1  0  0  0  0
 12 16  1  0  0  0  0
 13 18  1  1  0  0  0
 13  2  1  0  0  0  0
 16  5  1  0  0  0  0
 17 16  2  0  0  0  0
 17  6  1  0  0  0  0
 18 10  1  0  0  0  0
 19 10  1  6  0  0  0
 19 20  1  0  0  0  0
 20 15  1  0  0  0  0
 23 22  1  6  0  0  0
 23 21  1  0  0  0  0
 24 27  1  6  0  0  0
 24 28  1  0  0  0  0
 24 31  1  0  0  0  0
 25 30  1  0  0  0  0
 28 25  1  0  0  0  0
 29 26  2  0  0  0  0
 30 29  1  0  0  0  0
 30 23  1  0  0  0  0
 31 29  1  0  0  0  0
M  END
>  <MODEL>
2

>  <REMARK>
 VINA RESULT:      -7.5      2.990      6.940
  Name = 
  3 active torsions:
  status: ('A' for Active; 'I' for Inactive)
    1  A    between atoms: C_5  and  C_16
    2  A    between atoms: C_5  and  N_30
    3  A    between atoms: C_10  and  C_16
                            x       y       z     vdW  Elec       q    Type
                         _______ _______ _______ _____ _____    ______ ____

>  <TORSDO>
F 3

$$$$
=
 OpenBabel11122410593D

 31 35  0  0  1  0  0  0  0  0999 V2000
  190.0540  175.9920  142.8460 C   0  0  0  0  0  0  0  0  0  0  0  0
  186.5150  177.1380  143.6250 C   0  0  2  0  0  3  0  0  0  0  0  0
  186.5530  177.9060  144.9450 C   0  0  2  0  0  3  0  0  0  0  0  0
  187.8340  178.6280  147.0040 C   0  0  2  0  0  3  0  0  0  0  0  0
  187.8750  177.0200  142.9810 C   0  0  0  0  0  0  0  0  0  0  0  0
  190.3820  176.8290  141.8250 N   0  0  0  0  0  0  0  0  0  0  0  0
  187.6660  177.5760  145.9170 C   0  0  0  0  0  2  0  0  0  0  0  0
  186.0300  178.9910  141.9800 C   0  0  2  0  0  3  0  0  0  0  0  0
  191.2160  174.8170  143.4210 Cl  0  0  0  0  0  0  0  0  0  0  0  0
  184.3200  178.9470  144.4540 C   0  0  0  0  0  2  0  0  0  0  0  0
  188.8320  178.1360  148.0310 C   0  0  0  0  0  1  0  0  0  0  0  0
  187.3100  178.7730  141.3870 O   0  0  0  0  0  0  0  0  0  0  0  0
  185.4900  177.7010  142.6220 C   0  0  2  0  0  3  0  0  0  0  0  0
  188.7930  176.0720  143.4410 C   0  0  0  0  0  3  0  0  0  0  0  0
  186.4910  178.8580  147.6690 C   0  0  0  0  0  2  0  0  0  0  0  0
  188.2300  177.8630  141.9150 C   0  0  0  0  0  0  0  0  0  0  0  0
  189.5020  177.7510  141.3490 C   0  0  0  0  0  3  0  0  0  0  0  0
  184.1600  177.9230  143.3350 C   0  0  0  0  0  2  0  0  0  0  0  0
  185.4850  178.6490  145.3590 C   0  0  2  0  0  3  0  0  0  0  0  0
  185.5230  179.4380  146.6460 C   0  0  0  0  0  2  0  0  0  0  0  0
  185.0720  179.5470  140.9370 C   0  0  0  0  0  2  0  0  0  0  0  0
  182.6760  178.9730  140.5110 C   0  0  0  0  0  1  0  0  0  0  0  0
  184.1060  178.4610  140.4840 C   0  0  1  0  0  3  0  0  0  0  0  0
  185.1910  177.2220  136.4150 C   0  0  2  0  0  3  0  0  0  0  0  0
  185.4170  178.7410  138.3850 C   0  0  0  0  0  2  0  0  0  0  0  0
  182.4430  176.8030  138.7640 O   0  0  0  0  0  0  0  0  0  0  0  0
  185.9420  176.6850  135.2140 C   0  0  0  0  0  1  0  0  0  0  0  0
  186.1700  177.9090  137.3520 C   0  0  0  0  0  2  0  0  0  0  0  0
  183.6680  176.9350  138.5030 C   0  0  0  0  0  0  0  0  0  0  0  0
  184.4530  177.9510  139.1560 N   0  0  0  0  0  0  0  0  0  0  0  0
  184.4280  175.8420  137.3070 S   0  0  0  0  0  0  0  0  0  0  0  0
  1  9  1  0  0  0  0
  1 14  1  0  0  0  0
  2  5  1  6  0  0  0
  2  3  1  0  0  0  0
  3 19  1  0  0  0  0
  3  7  1  1  0  0  0
  4 15  1  0  0  0  0
  4 11  1  1  0  0  0
  5 14  2  0  0  0  0
  6  1  2  0  0  0  0
  7  4  1  0  0  0  0
  8 21  1  6  0  0  0
  8 13  1  0  0  0  0
 12 16  1  0  0  0  0
 12  8  1  0  0  0  0
 13 18  1  1  0  0  0
 13  2  1  0  0  0  0
 16  5  1  0  0  0  0
 17  6  1  0  0  0  0
 17 16  2  0  0  0  0
 18 10  1  0  0  0  0
 19 10  1  6  0  0  0
 19 20  1  0  0  0  0
 20 15  1  0  0  0  0
 23 22  1  6  0  0  0
 23 21  1  0  0  0  0
 24 27  1  6  0  0  0
 24 31  1  0  0  0  0
 24 28  1  0  0  0  0
 25 30  1  0  0  0  0
 28 25  1  0  0  0  0
 29 26  2  0  0  0  0
 29 30  1  0  0  0  0
 30 23  1  0  0  0  0
 31 29  1  0  0  0  0
M  END
>  <MODEL>
3

>  <REMARK>
 VINA RESULT:      -7.0      3.098      7.114
  Name = 
  3 active torsions:
  status: ('A' for Active; 'I' for Inactive)
    1  A    between atoms: C_5  and  C_16
    2  A    between atoms: C_5  and  N_30
    3  A    between atoms: C_10  and  C_16
                            x       y       z     vdW  Elec       q    Type
                         _______ _______ _______ _____ _____    ______ ____

>  <TORSDO>
F 3

$$$$
=
 OpenBabel11122410593D

 31 35  0  0  1  0  0  0  0  0999 V2000
  191.5840  176.5670  145.5260 C   0  0  0  0  0  0  0  0  0  0  0  0
  188.0890  177.0280  144.1080 C   0  0  2  0  0  3  0  0  0  0  0  0
  187.2470  177.7430  145.1630 C   0  0  2  0  0  3  0  0  0  0  0  0
  187.0040  178.6110  147.5280 C   0  0  2  0  0  3  0  0  0  0  0  0
  189.5720  177.1800  144.3440 C   0  0  0  0  0  0  0  0  0  0  0  0
  192.2830  177.4850  144.8050 N   0  0  0  0  0  0  0  0  0  0  0  0
  187.6580  177.5850  146.6120 C   0  0  0  0  0  2  0  0  0  0  0  0
  188.3090  178.8200  142.3430 C   0  0  2  0  0  3  0  0  0  0  0  0
  192.4000  175.6020  146.7360 Cl  0  0  0  0  0  0  0  0  0  0  0  0
  185.5410  178.3810  143.4340 C   0  0  0  0  0  2  0  0  0  0  0  0
  187.3170  178.2720  148.9690 C   0  0  0  0  0  1  0  0  0  0  0  0
  189.7150  178.8570  142.5840 O   0  0  0  0  0  0  0  0  0  0  0  0
  187.7280  177.4310  142.6660 C   0  0  2  0  0  3  0  0  0  0  0  0
  190.2160  176.3970  145.3070 C   0  0  0  0  0  3  0  0  0  0  0  0
  185.5050  178.5720  147.3100 C   0  0  0  0  0  2  0  0  0  0  0  0
  190.3170  178.1100  143.6010 C   0  0  0  0  0  0  0  0  0  0  0  0
  191.6830  178.2490  143.8520 C   0  0  0  0  0  3  0  0  0  0  0  0
  186.2130  177.3850  142.4950 C   0  0  0  0  0  2  0  0  0  0  0  0
  186.0250  178.2660  144.8550 C   0  0  2  0  0  3  0  0  0  0  0  0
  185.1990  179.0040  145.8810 C   0  0  0  0  0  2  0  0  0  0  0  0
  188.0270  179.2300  140.9060 C   0  0  0  0  0  2  0  0  0  0  0  0
  186.4460  178.2530  139.2320 C   0  0  0  0  0  1  0  0  0  0  0  0
  187.6890  178.0030  140.0690 C   0  0  1  0  0  3  0  0  0  0  0  0
  191.2420  176.8100  137.7840 C   0  0  2  0  0  3  0  0  0  0  0  0
  189.8700  176.8160  139.8710 C   0  0  0  0  0  2  0  0  0  0  0  0
  188.6640  179.3780  137.6970 O   0  0  0  0  0  0  0  0  0  0  0  0
  192.2720  176.0040  137.0190 C   0  0  0  0  0  1  0  0  0  0  0  0
  190.6500  175.9510  138.8860 C   0  0  0  0  0  2  0  0  0  0  0  0
  189.0520  178.2040  137.9370 C   0  0  0  0  0  0  0  0  0  0  0  0
  188.8150  177.6020  139.2240 N   0  0  0  0  0  0  0  0  0  0  0  0
  189.9040  177.2880  136.6580 S   0  0  0  0  0  0  0  0  0  0  0  0
  1  9  1  0  0  0  0
  2  5  1  1  0  0  0
  2  3  1  0  0  0  0
  3  7  1  1  0  0  0
  4 11  1  1  0  0  0
  5 14  2  0  0  0  0
  6  1  2  0  0  0  0
  7  4  1  0  0  0  0
  8 21  1  6  0  0  0
  8 12  1  0  0  0  0
  8 13  1  0  0  0  0
 12 16  1  0  0  0  0
 13 18  1  1  0  0  0
 13  2  1  0  0  0  0
 14  1  1  0  0  0  0
 15  4  1  0  0  0  0
 16 17  2  0  0  0  0
 16  5  1  0  0  0  0
 17  6  1  0  0  0  0
 18 10  1  0  0  0  0
 19 10  1  6  0  0  0
 19  3  1  0  0  0  0
 19 20  1  0  0  0  0
 20 15  1  0  0  0  0
 23 22  1  6  0  0  0
 23 21  1  0  0  0  0
 24 27  1  6  0  0  0
 24 28  1  0  0  0  0
 26 29  2  0  0  0  0
 28 25  1  0  0  0  0
 29 30  1  0  0  0  0
 30 25  1  0  0  0  0
 30 23  1  0  0  0  0
 31 24  1  0  0  0  0
 31 29  1  0  0  0  0
M  END
>  <MODEL>
4

>  <REMARK>
 VINA RESULT:      -7.0      3.203      6.666
  Name = 
  3 active torsions:
  status: ('A' for Active; 'I' for Inactive)
    1  A    between atoms: C_5  and  C_16
    2  A    between atoms: C_5  and  N_30
    3  A    between atoms: C_10  and  C_16
                            x       y       z     vdW  Elec       q    Type
                         _______ _______ _______ _____ _____    ______ ____

>  <TORSDO>
F 3

$$$$
=
 OpenBabel11122410593D

 31 35  0  0  1  0  0  0  0  0999 V2000
  179.7590  178.6700  142.8750 C   0  0  0  0  0  0  0  0  0  0  0  0
  182.9140  179.1850  140.8190 C   0  0  2  0  0  3  0  0  0  0  0  0
  184.1070  178.7960  141.6900 C   0  0  2  0  0  3  0  0  0  0  0  0
  185.0240  178.1470  143.9580 C   0  0  2  0  0  3  0  0  0  0  0  0
  181.6120  178.6170  141.3290 C   0  0  0  0  0  0  0  0  0  0  0  0
  179.2430  177.5560  142.2890 N   0  0  0  0  0  0  0  0  0  0  0  0
  183.9410  178.8940  143.1920 C   0  0  0  0  0  2  0  0  0  0  0  0
  182.9140  177.3260  139.1100 C   0  0  2  0  0  3  0  0  0  0  0  0
  178.9310  179.4100  144.2270 Cl  0  0  0  0  0  0  0  0  0  0  0  0
  185.5800  178.6050  139.6640 C   0  0  0  0  0  2  0  0  0  0  0  0
  184.8940  178.4470  145.4360 C   0  0  0  0  0  1  0  0  0  0  0  0
  181.6500  176.8910  139.6110 O   0  0  0  0  0  0  0  0  0  0  0  0
  183.1070  178.8370  139.3310 C   0  0  2  0  0  3  0  0  0  0  0  0
  180.9520  179.2220  142.4040 C   0  0  0  0  0  3  0  0  0  0  0  0
  186.3790  178.6130  143.4610 C   0  0  0  0  0  2  0  0  0  0  0  0
  181.0510  177.4770  140.7300 C   0  0  0  0  0  0  0  0  0  0  0  0
  179.8570  176.9570  141.2330 C   0  0  0  0  0  3  0  0  0  0  0  0
  184.4830  179.3160  138.8780 C   0  0  0  0  0  2  0  0  0  0  0  0
  185.3520  178.6390  141.1520 C   0  0  2  0  0  3  0  0  0  0  0  0
  186.5310  178.2230  141.9960 C   0  0  0  0  0  2  0  0  0  0  0  0
  183.0370  176.9500  137.6410 C   0  0  0  0  0  2  0  0  0  0  0  0
  183.2360  174.6810  136.6090 C   0  0  0  0  0  1  0  0  0  0  0  0
  183.9150  175.7150  137.4910 C   0  0  1  0  0  3  0  0  0  0  0  0
  187.7530  176.8070  135.6600 C   0  0  2  0  0  3  0  0  0  0  0  0
  185.2870  177.0920  135.9340 C   0  0  0  0  0  2  0  0  0  0  0  0
  186.2500  173.9800  137.3920 O   0  0  0  0  0  0  0  0  0  0  0  0
  189.0170  177.5460  135.2740 C   0  0  0  0  0  1  0  0  0  0  0  0
  186.6320  177.8080  135.8750 C   0  0  0  0  0  2  0  0  0  0  0  0
  186.3880  175.2170  137.2010 C   0  0  0  0  0  0  0  0  0  0  0  0
  185.2400  176.0560  136.9690 N   0  0  0  0  0  0  0  0  0  0  0  0
  188.0310  175.9260  137.2200 S   0  0  0  0  0  0  0  0  0  0  0  0
  1  9  1  0  0  0  0
  2  5  1  1  0  0  0
  2  3  1  0  0  0  0
  3  7  1  1  0  0  0
  4 11  1  1  0  0  0
  5 14  2  0  0  0  0
  6  1  2  0  0  0  0
  7  4  1  0  0  0  0
  8 21  1  6  0  0  0
  8 13  1  0  0  0  0
  8 12  1  0  0  0  0
 12 16  1  0  0  0  0
 13 18  1  1  0  0  0
 13  2  1  0  0  0  0
 14  1  1  0  0  0  0
 15  4  1  0  0  0  0
 16 17  2  0  0  0  0
 16  5  1  0  0  0  0
 17  6  1  0  0  0  0
 18 10  1  0  0  0  0
 19 10  1  6  0  0  0
 19  3  1  0  0  0  0
 19 20  1  0  0  0  0
 20 15  1  0  0  0  0
 23 22  1  6  0  0  0
 23 21  1  0  0  0  0
 24 27  1  1  0  0  0
 24 28  1  0  0  0  0
 24 31  1  0  0  0  0
 25 30  1  0  0  0  0
 28 25  1  0  0  0  0
 29 31  1  0  0  0  0
 29 26  2  0  0  0  0
 30 29  1  0  0  0  0
 30 23  1  0  0  0  0
M  END
>  <MODEL>
5

>  <REMARK>
 VINA RESULT:      -7.0      4.819      8.309
  Name = 
  3 active torsions:
  status: ('A' for Active; 'I' for Inactive)
    1  A    between atoms: C_5  and  C_16
    2  A    between atoms: C_5  and  N_30
    3  A    between atoms: C_10  and  C_16
                            x       y       z     vdW  Elec       q    Type
                         _______ _______ _______ _____ _____    ______ ____

>  <TORSDO>
F 3

$$$$
=
 OpenBabel11122410593D

 31 35  0  0  1  0  0  0  0  0999 V2000
  189.1570  177.1000  137.1450 C   0  0  0  0  0  0  0  0  0  0  0  0
  185.6690  178.2870  138.0730 C   0  0  2  0  0  3  0  0  0  0  0  0
  184.7250  177.0910  137.9670 C   0  0  2  0  0  3  0  0  0  0  0  0
  184.3250  174.6920  137.2660 C   0  0  2  0  0  3  0  0  0  0  0  0
  187.1180  177.8780  138.1740 C   0  0  0  0  0  0  0  0  0  0  0  0
  189.7640  177.0920  138.3630 N   0  0  0  0  0  0  0  0  0  0  0  0
  185.1140  175.9720  137.0240 C   0  0  0  0  0  2  0  0  0  0  0  0
  185.7270  178.6610  140.5700 C   0  0  2  0  0  3  0  0  0  0  0  0
  190.0480  176.6060  135.7220 Cl  0  0  0  0  0  0  0  0  0  0  0  0
  183.0000  178.2720  139.3600 C   0  0  0  0  0  2  0  0  0  0  0  0
  184.6390  173.6930  136.1730 C   0  0  0  0  0  1  0  0  0  0  0  0
  187.1130  178.3220  140.5690 O   0  0  0  0  0  0  0  0  0  0  0  0
  185.3010  179.2540  139.2140 C   0  0  2  0  0  3  0  0  0  0  0  0
  187.8230  177.4950  137.0290 C   0  0  0  0  0  3  0  0  0  0  0  0
  182.8460  175.0230  137.2440 C   0  0  0  0  0  2  0  0  0  0  0  0
  187.7710  177.8780  139.4180 C   0  0  0  0  0  0  0  0  0  0  0  0
  189.1050  177.4740  139.4900 C   0  0  0  0  0  3  0  0  0  0  0  0
  183.8050  179.5510  139.1580 C   0  0  0  0  0  2  0  0  0  0  0  0
  183.4590  177.1440  138.4740 C   0  0  2  0  0  3  0  0  0  0  0  0
  182.5290  175.9570  138.4050 C   0  0  0  0  0  2  0  0  0  0  0  0
  185.4350  179.6130  141.7200 C   0  0  0  0  0  2  0  0  0  0  0  0
  183.9180  177.6780  142.1760 C   0  0  0  0  0  1  0  0  0  0  0  0
  184.5630  178.9230  142.7600 C   0  0  1  0  0  3  0  0  0  0  0  0
  186.8950  177.6730  146.2640 C   0  0  2  0  0  3  0  0  0  0  0  0
  186.4300  177.6510  143.8100 C   0  0  0  0  0  2  0  0  0  0  0  0
  183.5930  179.0020  145.5030 O   0  0  0  0  0  0  0  0  0  0  0  0
  188.0020  177.5030  147.2830 C   0  0  0  0  0  1  0  0  0  0  0  0
  187.5040  177.8130  144.8800 C   0  0  0  0  0  2  0  0  0  0  0  0
  184.8300  178.9150  145.2850 C   0  0  0  0  0  0  0  0  0  0  0  0
  185.3230  178.5980  143.9690 N   0  0  0  0  0  0  0  0  0  0  0  0
  185.9750  179.1910  146.6320 S   0  0  0  0  0  0  0  0  0  0  0  0
  1  6  1  0  0  0  0
  2  5  1  1  0  0  0
  2 13  1  0  0  0  0
  3  7  1  6  0  0  0
  3  2  1  0  0  0  0
  3 19  1  0  0  0  0
  4 11  1  6  0  0  0
  5 16  2  0  0  0  0
  6 17  2  0  0  0  0
  7  4  1  0  0  0  0
  8 21  1  1  0  0  0
  9  1  1  0  0  0  0
 12  8  1  0  0  0  0
 13 18  1  1  0  0  0
 13  8  1  0  0  0  0
 14  1  2  0  0  0  0
 14  5  1  0  0  0  0
 15  4  1  0  0  0  0
 15 20  1  0  0  0  0
 16 17  1  0  0  0  0
 16 12  1  0  0  0  0
 18 10  1  0  0  0  0
 19 20  1  1  0  0  0
 19 10  1  0  0  0  0
 21 23  1  0  0  0  0
 23 22  1  6  0  0  0
 23 30  1  0  0  0  0
 24 31  1  0  0  0  0
 24 27  1  1  0  0  0
 25 30  1  0  0  0  0
 25 28  1  0  0  0  0
 28 24  1  0  0  0  0
 29 26  2  0  0  0  0
 29 31  1  0  0  0  0
 30 29  1  0  0  0  0
M  END
>  <MODEL>
6

>  <REMARK>
 VINA RESULT:      -6.9      2.531      4.223
  Name = 
  3 active torsions:
  status: ('A' for Active; 'I' for Inactive)
    1  A    between atoms: C_5  and  C_16
    2  A    between atoms: C_5  and  N_30
    3  A    between atoms: C_10  and  C_16
                            x       y       z     vdW  Elec       q    Type
                         _______ _______ _______ _____ _____    ______ ____

>  <TORSDO>
F 3

$$$$
=
 OpenBabel11122410593D

 31 35  0  0  1  0  0  0  0  0999 V2000
  183.9330  178.8660  143.0240 C   0  0  0  0  0  0  0  0  0  0  0  0
  183.3290  177.7040  139.4570 C   0  0  2  0  0  3  0  0  0  0  0  0
  182.3350  178.6690  138.8130 C   0  0  2  0  0  3  0  0  0  0  0  0
  180.7130  180.5970  139.0490 C   0  0  2  0  0  3  0  0  0  0  0  0
  183.9920  178.2830  140.6840 C   0  0  0  0  0  0  0  0  0  0  0  0
  185.1900  179.3770  142.9240 N   0  0  0  0  0  0  0  0  0  0  0  0
  181.3870  179.4130  139.7300 C   0  0  0  0  0  2  0  0  0  0  0  0
  185.4490  178.2560  138.2010 C   0  0  2  0  0  3  0  0  0  0  0  0
  183.0890  178.9160  144.5560 Cl  0  0  0  0  0  0  0  0  0  0  0  0
  182.9840  177.8770  136.5190 C   0  0  0  0  0  2  0  0  0  0  0  0
  179.6530  181.1680  139.9660 C   0  0  0  0  0  1  0  0  0  0  0  0
  186.0250  178.7270  139.4190 O   0  0  0  0  0  0  0  0  0  0  0  0
  184.3880  177.1740  138.4720 C   0  0  2  0  0  3  0  0  0  0  0  0
  183.3120  178.3090  141.9050 C   0  0  0  0  0  3  0  0  0  0  0  0
  180.0690  180.1160  137.7640 C   0  0  0  0  0  2  0  0  0  0  0  0
  185.2950  178.8010  140.6090 C   0  0  0  0  0  0  0  0  0  0  0  0
  185.8790  179.3510  141.7510 C   0  0  0  0  0  3  0  0  0  0  0  0
  183.6970  176.7100  137.1930 C   0  0  0  0  0  2  0  0  0  0  0  0
  182.1120  178.6580  137.4670 C   0  0  2  0  0  3  0  0  0  0  0  0
  181.1570  179.6280  136.8160 C   0  0  0  0  0  2  0  0  0  0  0  0
  186.5480  177.7510  137.2780 C   0  0  0  0  0  2  0  0  0  0  0  0
  187.1760  175.3680  136.8540 C   0  0  0  0  0  1  0  0  0  0  0  0
  187.1900  176.5010  137.8660 C   0  0  1  0  0  3  0  0  0  0  0  0
  191.1560  177.5020  139.4590 C   0  0  2  0  0  3  0  0  0  0  0  0
  188.6900  177.2070  139.7250 C   0  0  0  0  0  2  0  0  0  0  0  0
  189.4650  177.3120  136.2410 O   0  0  0  0  0  0  0  0  0  0  0  0
  192.4640  177.4650  140.2210 C   0  0  0  0  0  1  0  0  0  0  0  0
  190.0610  176.8870  140.3120 C   0  0  0  0  0  2  0  0  0  0  0  0
  189.6550  176.9090  137.4190 C   0  0  0  0  0  0  0  0  0  0  0  0
  188.5520  176.7650  138.3340 N   0  0  0  0  0  0  0  0  0  0  0  0
  191.3190  176.5140  137.9480 S   0  0  0  0  0  0  0  0  0  0  0  0
  1  9  1  0  0  0  0
  2  5  1  1  0  0  0
  3  2  1  0  0  0  0
  3  7  1  1  0  0  0
  4  7  1  0  0  0  0
  4 11  1  1  0  0  0
  5 14  1  0  0  0  0
  6  1  1  0  0  0  0
  8 21  1  6  0  0  0
  8 13  1  0  0  0  0
  8 12  1  0  0  0  0
 10 18  1  0  0  0  0
 12 16  1  0  0  0  0
 13 18  1  6  0  0  0
 13  2  1  0  0  0  0
 14  1  2  0  0  0  0
 15  4  1  0  0  0  0
 16  5  2  0  0  0  0
 16 17  1  0  0  0  0
 17  6  2  0  0  0  0
 19 10  1  6  0  0  0
 19  3  1  0  0  0  0
 20 19  1  0  0  0  0
 20 15  1  0  0  0  0
 21 23  1  0  0  0  0
 23 22  1  6  0  0  0
 23 30  1  0  0  0  0
 24 27  1  1  0  0  0
 24 28  1  0  0  0  0
 25 28  1  0  0  0  0
 26 29  2  0  0  0  0
 29 31  1  0  0  0  0
 29 30  1  0  0  0  0
 30 25  1  0  0  0  0
 31 24  1  0  0  0  0
M  END
>  <MODEL>
7

>  <REMARK>
 VINA RESULT:      -6.5      4.240      6.465
  Name = 
  3 active torsions:
  status: ('A' for Active; 'I' for Inactive)
    1  A    between atoms: C_5  and  C_16
    2  A    between atoms: C_5  and  N_30
    3  A    between atoms: C_10  and  C_16
                            x       y       z     vdW  Elec       q    Type
                         _______ _______ _______ _____ _____    ______ ____

>  <TORSDO>
F 3

$$$$
=
 OpenBabel11122410593D

 31 35  0  0  1  0  0  0  0  0999 V2000
  179.7850  178.9500  143.1670 C   0  0  0  0  0  0  0  0  0  0  0  0
  183.0810  179.2130  141.2920 C   0  0  2  0  0  3  0  0  0  0  0  0
  184.1920  178.7610  142.2380 C   0  0  2  0  0  3  0  0  0  0  0  0
  184.9310  178.0940  144.5640 C   0  0  2  0  0  3  0  0  0  0  0  0
  181.7150  178.7450  141.7340 C   0  0  0  0  0  0  0  0  0  0  0  0
  179.2290  177.8630  142.5680 N   0  0  0  0  0  0  0  0  0  0  0  0
  183.9470  178.8980  143.7260 C   0  0  0  0  0  2  0  0  0  0  0  0
  183.0520  177.3280  139.6130 C   0  0  2  0  0  3  0  0  0  0  0  0
  178.9330  179.7700  144.4570 Cl  0  0  0  0  0  0  0  0  0  0  0  0
  185.7630  178.4340  140.3040 C   0  0  0  0  0  2  0  0  0  0  0  0
  184.7360  178.4290  146.0280 C   0  0  0  0  0  1  0  0  0  0  0  0
  181.7350  176.9890  140.0450 O   0  0  0  0  0  0  0  0  0  0  0  0
  183.3350  178.8270  139.8230 C   0  0  2  0  0  3  0  0  0  0  0  0
  181.0380  179.4120  142.7590 C   0  0  0  0  0  3  0  0  0  0  0  0
  186.3400  178.4580  144.1410 C   0  0  0  0  0  2  0  0  0  0  0  0
  181.1140  177.6340  141.1190 C   0  0  0  0  0  0  0  0  0  0  0  0
  179.8600  177.2050  141.5590 C   0  0  0  0  0  3  0  0  0  0  0  0
  184.7650  179.2030  139.4460 C   0  0  0  0  0  2  0  0  0  0  0  0
  185.4520  178.5110  141.7750 C   0  0  2  0  0  3  0  0  0  0  0  0
  186.5500  178.0320  142.6940 C   0  0  0  0  0  2  0  0  0  0  0  0
  183.2340  176.9170  138.1600 C   0  0  0  0  0  2  0  0  0  0  0  0
  181.9390  177.9230  136.2720 C   0  0  0  0  0  1  0  0  0  0  0  0
  181.8940  176.9500  137.4370 C   0  0  1  0  0  3  0  0  0  0  0  0
  180.7350  173.0440  135.8010 C   0  0  2  0  0  3  0  0  0  0  0  0
  182.0930  175.1390  135.7380 C   0  0  0  0  0  2  0  0  0  0  0  0
  179.3810  175.5980  138.0130 O   0  0  0  0  0  0  0  0  0  0  0  0
  180.7400  171.5900  135.3780 C   0  0  0  0  0  1  0  0  0  0  0  0
  182.1320  173.6170  135.6440 C   0  0  0  0  0  2  0  0  0  0  0  0
  180.3440  174.9410  137.5370 C   0  0  0  0  0  0  0  0  0  0  0  0
  181.4930  175.6150  136.9870 N   0  0  0  0  0  0  0  0  0  0  0  0
  180.2720  173.1530  137.5510 S   0  0  0  0  0  0  0  0  0  0  0  0
  1  9  1  0  0  0  0
  2  5  1  1  0  0  0
  2  3  1  0  0  0  0
  3  7  1  1  0  0  0
  4 11  1  1  0  0  0
  5 14  2  0  0  0  0
  6  1  2  0  0  0  0
  7  4  1  0  0  0  0
  8 21  1  6  0  0  0
  8 13  1  0  0  0  0
  8 12  1  0  0  0  0
 12 16  1  0  0  0  0
 13 18  1  1  0  0  0
 13  2  1  0  0  0  0
 14  1  1  0  0  0  0
 15  4  1  0  0  0  0
 16 17  2  0  0  0  0
 16  5  1  0  0  0  0
 17  6  1  0  0  0  0
 18 10  1  0  0  0  0
 19 10  1  6  0  0  0
 19  3  1  0  0  0  0
 19 20  1  0  0  0  0
 20 15  1  0  0  0  0
 23 22  1  6  0  0  0
 23 21  1  0  0  0  0
 24 27  1  1  0  0  0
 24 31  1  0  0  0  0
 25 30  1  0  0  0  0
 28 25  1  0  0  0  0
 28 24  1  0  0  0  0
 29 31  1  0  0  0  0
 29 26  2  0  0  0  0
 30 23  1  0  0  0  0
 30 29  1  0  0  0  0
M  END
>  <MODEL>
8

>  <REMARK>
 VINA RESULT:      -6.5      5.267      9.504
  Name = 
  3 active torsions:
  status: ('A' for Active; 'I' for Inactive)
    1  A    between atoms: C_5  and  C_16
    2  A    between atoms: C_5  and  N_30
    3  A    between atoms: C_10  and  C_16
                            x       y       z     vdW  Elec       q    Type
                         _______ _______ _______ _____ _____    ______ ____

>  <TORSDO>
F 3

$$$$
=
 OpenBabel11122410593D

 31 35  0  0  1  0  0  0  0  0999 V2000
  193.5630  176.0690  136.7250 C   0  0  0  0  0  0  0  0  0  0  0  0
  189.8670  176.9350  136.9010 C   0  0  2  0  0  3  0  0  0  0  0  0
  189.0750  175.6560  136.6380 C   0  0  2  0  0  3  0  0  0  0  0  0
  189.0410  173.2260  135.9340 C   0  0  2  0  0  3  0  0  0  0  0  0
  191.2960  176.6630  137.3010 C   0  0  0  0  0  0  0  0  0  0  0  0
  193.9090  176.1270  138.0400 N   0  0  0  0  0  0  0  0  0  0  0  0
  189.7460  174.5710  135.8220 C   0  0  0  0  0  2  0  0  0  0  0  0
  189.3840  177.3320  139.3470 C   0  0  2  0  0  3  0  0  0  0  0  0
  194.7640  175.6500  135.5240 Cl  0  0  0  0  0  0  0  0  0  0  0  0
  187.0050  176.6830  137.6240 C   0  0  0  0  0  2  0  0  0  0  0  0
  189.6580  172.2510  134.9530 C   0  0  0  0  0  1  0  0  0  0  0  0
  190.7660  177.1220  139.6340 O   0  0  0  0  0  0  0  0  0  0  0  0
  189.1900  177.8730  137.9190 C   0  0  2  0  0  3  0  0  0  0  0  0
  192.2510  176.3380  136.3330 C   0  0  0  0  0  3  0  0  0  0  0  0
  187.5730  173.4170  135.6060 C   0  0  0  0  0  2  0  0  0  0  0  0
  191.6800  176.7330  138.6510 C   0  0  0  0  0  0  0  0  0  0  0  0
  193.0030  176.4550  139.0010 C   0  0  0  0  0  3  0  0  0  0  0  0
  187.7170  178.0290  137.5550 C   0  0  0  0  0  2  0  0  0  0  0  0
  187.7320  175.5960  136.8780 C   0  0  2  0  0  3  0  0  0  0  0  0
  186.9450  174.3270  136.6540 C   0  0  0  0  0  2  0  0  0  0  0  0
  188.7810  178.2610  140.3900 C   0  0  0  0  0  2  0  0  0  0  0  0
  189.9040  177.8780  142.5910 C   0  0  0  0  0  1  0  0  0  0  0  0
  188.6930  177.5510  141.7340 C   0  0  1  0  0  3  0  0  0  0  0  0
  184.9630  178.2530  143.9390 C   0  0  2  0  0  3  0  0  0  0  0  0
  187.1800  177.1340  143.6680 C   0  0  0  0  0  2  0  0  0  0  0  0
  186.2570  178.6230  140.5570 O   0  0  0  0  0  0  0  0  0  0  0  0
  183.9550  178.6950  144.9790 C   0  0  0  0  0  1  0  0  0  0  0  0
  186.2670  177.8910  144.6280 C   0  0  0  0  0  2  0  0  0  0  0  0
  186.4030  178.6420  141.8080 C   0  0  0  0  0  0  0  0  0  0  0  0
  187.4520  177.8810  142.4370 N   0  0  0  0  0  0  0  0  0  0  0  0
  185.2870  179.6270  142.8020 S   0  0  0  0  0  0  0  0  0  0  0  0
  1  6  1  0  0  0  0
  2  5  1  1  0  0  0
  2 13  1  0  0  0  0
  3  7  1  6  0  0  0
  3 19  1  0  0  0  0
  3  2  1  0  0  0  0
  4 11  1  6  0  0  0
  5 16  2  0  0  0  0
  6 17  2  0  0  0  0
  7  4  1  0  0  0  0
  8 12  1  0  0  0  0
  8 21  1  1  0  0  0
  9  1  1  0  0  0  0
 13 18  1  6  0  0  0
 13  8  1  0  0  0  0
 14  1  2  0  0  0  0
 14  5  1  0  0  0  0
 15  4  1  0  0  0  0
 15 20  1  0  0  0  0
 16 17  1  0  0  0  0
 16 12  1  0  0  0  0
 18 10  1  0  0  0  0
 19 20  1  1  0  0  0
 19 10  1  0  0  0  0
 21 23  1  0  0  0  0
 23 30  1  0  0  0  0
 23 22  1  1  0  0  0
 24 28  1  0  0  0  0
 24 27  1  1  0  0  0
 25 28  1  0  0  0  0
 26 29  2  0  0  0  0
 29 30  1  0  0  0  0
 29 31  1  0  0  0  0
 30 25  1  0  0  0  0
 31 24  1  0  0  0  0
M  END
>  <MODEL>
9

>  <REMARK>
 VINA RESULT:      -6.3      4.160      6.506
  Name = 
  3 active torsions:
  status: ('A' for Active; 'I' for Inactive)
    1  A    between atoms: C_5  and  C_16
    2  A    between atoms: C_5  and  N_30
    3  A    between atoms: C_10  and  C_16
                            x       y       z     vdW  Elec       q    Type
                         _______ _______ _______ _____ _____    ______ ____

>  <TORSDO>
F 3

$$$$
