=
 OpenBabel11122410413D

 32 38  0  0  1  0  0  0  0  0999 V2000
  181.7440  177.6990  137.6360 C   0  0  1  0  0  3  0  0  0  0  0  0
  184.6730  178.9390  141.8580 C   0  0  1  0  0  3  0  0  0  0  0  0
  188.7150  177.6140  139.2910 C   0  0  0  0  0  3  0  0  0  0  0  0
  189.3430  177.1900  140.4620 C   0  0  0  0  0  3  0  0  0  0  0  0
  184.8500  178.9360  144.3730 C   0  0  0  0  0  0  0  0  0  0  0  0
  185.5800  178.6460  145.5230 C   0  0  0  0  0  0  0  0  0  0  0  0
  182.7860  178.2070  140.4060 C   0  0  1  0  0  3  0  0  0  0  0  0
  184.7950  179.3470  139.4160 C   0  0  0  0  0  2  0  0  0  0  0  0
  187.2260  177.9860  146.7060 C   0  0  0  0  0  0  0  0  0  0  0  0
  182.9630  178.5970  137.8530 C   0  0  2  0  0  3  0  0  0  0  0  0
  187.4560  178.2130  139.3520 C   0  0  0  0  0  3  0  0  0  0  0  0
  185.5040  179.0070  140.6480 N   0  0  0  0  0  0  0  0  0  0  0  0
  186.8060  178.3910  140.5850 C   0  0  0  0  0  0  0  0  0  0  0  0
  186.7800  178.1780  143.0690 C   0  0  0  0  0  0  0  0  0  0  0  0
  186.2020  178.3820  147.5520 C   0  0  0  0  0  3  0  0  0  0  0  0
  181.4920  176.6880  138.7790 C   0  0  0  0  0  2  0  0  0  0  0  0
  183.7040  178.3080  139.1720 C   0  0  2  0  0  3  0  0  0  0  0  0
  185.1560  178.8000  146.7940 N   0  0  0  0  0  0  0  0  0  0  0  0
  181.6380  177.2140  140.2160 C   0  0  0  0  0  2  0  0  0  0  0  0
  181.5540  179.1550  138.0360 C   0  0  1  0  0  3  0  0  0  0  0  0
  188.7110  177.3670  141.6940 C   0  0  0  0  0  3  0  0  0  0  0  0
  187.4430  177.9660  141.7660 C   0  0  0  0  0  0  0  0  0  0  0  0
  187.4600  177.9080  144.2710 C   0  0  0  0  0  3  0  0  0  0  0  0
  183.5870  177.8780  141.6640 C   0  0  0  0  0  2  0  0  0  0  0  0
  183.5590  179.4440  144.4640 O   0  0  0  0  0  1  0  0  0  0  0  0
  188.5540  177.4550  147.1250 C   0  0  0  0  0  1  0  0  0  0  0  0
  185.4580  178.6920  143.1220 C   0  0  0  0  0  0  0  0  0  0  0  0
  186.8220  178.1540  145.4410 N   0  0  0  0  0  0  0  0  0  0  0  0
  181.1900  179.9360  136.8580 N   0  0  0  0  0  2  0  0  0  0  0  0
  180.6840  181.2560  137.2450 C   0  0  0  0  0  3  0  0  0  0  0  0
  181.5650  181.9210  138.2930 C   0  0  0  0  0  1  0  0  0  0  0  0
  180.4790  182.1650  136.0420 C   0  0  0  0  0  1  0  0  0  0  0  0
  1 10  1  0  0  0  0
  1 20  1  0  0  0  0
  1 16  1  1  0  0  0
  2 24  1  6  0  0  0
  2 27  1  0  0  0  0
  3 11  2  0  0  0  0
  3  4  1  0  0  0  0
  4 21  2  0  0  0  0
  5 25  1  0  0  0  0
  5  6  1  0  0  0  0
  6 18  2  0  0  0  0
  7 19  1  6  0  0  0
  7 24  1  0  0  0  0
  8 12  1  0  0  0  0
  9 26  1  0  0  0  0
  9 15  2  0  0  0  0
 10 20  1  0  0  0  0
 10 17  1  0  0  0  0
 11 13  1  0  0  0  0
 12  2  1  0  0  0  0
 13 12  1  0  0  0  0
 13 22  2  0  0  0  0
 14 27  1  0  0  0  0
 14 23  2  0  0  0  0
 16 19  1  0  0  0  0
 17  8  1  0  0  0  0
 17  7  1  0  0  0  0
 18 15  1  0  0  0  0
 21 22  1  0  0  0  0
 22 14  1  0  0  0  0
 23 28  1  0  0  0  0
 27  5  2  0  0  0  0
 28  6  1  0  0  0  0
 28  9  1  0  0  0  0
 29 30  1  0  0  0  0
 29 20  1  0  0  0  0
 30 31  1  0  0  0  0
 32 30  1  0  0  0  0
M  END
>  <MODEL>
1

>  <REMARK>
 VINA RESULT:      -9.1      0.000      0.000
  Name = 
  2 active torsions:
  status: ('A' for Active; 'I' for Inactive)
    1  A    between atoms: C_20  and  N_29
    2  A    between atoms: N_29  and  C_30
                            x       y       z     vdW  Elec       q    Type
                         _______ _______ _______ _____ _____    ______ ____

>  <TORSDO>
F 2

$$$$
=
 OpenBabel11122410413D

 32 38  0  0  1  0  0  0  0  0999 V2000
  193.1420  174.9090  137.5690 C   0  0  1  0  0  3  0  0  0  0  0  0
  189.3750  177.8110  139.8790 C   0  0  1  0  0  3  0  0  0  0  0  0
  191.4780  176.8230  144.2700 C   0  0  0  0  0  3  0  0  0  0  0  0
  190.2320  176.8640  144.8970 C   0  0  0  0  0  3  0  0  0  0  0  0
  186.9470  178.4890  139.8880 C   0  0  0  0  0  0  0  0  0  0  0  0
  185.7570  178.6730  140.5860 C   0  0  0  0  0  0  0  0  0  0  0  0
  190.5970  176.3270  138.2930 C   0  0  1  0  0  3  0  0  0  0  0  0
  191.8380  177.6010  140.0690 C   0  0  0  0  0  2  0  0  0  0  0  0
  184.4310  178.7250  142.2550 C   0  0  0  0  0  0  0  0  0  0  0  0
  193.1610  176.0840  138.5490 C   0  0  2  0  0  3  0  0  0  0  0  0
  191.5840  177.1180  142.9110 C   0  0  0  0  0  3  0  0  0  0  0  0
  190.5560  177.7540  140.7530 N   0  0  0  0  0  0  0  0  0  0  0  0
  190.4460  177.4530  142.1590 C   0  0  0  0  0  0  0  0  0  0  0  0
  187.9940  177.8790  142.0170 C   0  0  0  0  0  0  0  0  0  0  0  0
  183.7260  179.0820  141.1170 C   0  0  0  0  0  3  0  0  0  0  0  0
  191.7760  174.1930  137.4670 C   0  0  0  0  0  2  0  0  0  0  0  0
  191.8080  176.3150  139.2460 C   0  0  2  0  0  3  0  0  0  0  0  0
  184.5740  179.0470  140.0570 N   0  0  0  0  0  0  0  0  0  0  0  0
  190.5260  175.0860  137.4020 C   0  0  0  0  0  2  0  0  0  0  0  0
  193.1400  176.3380  137.0440 C   0  0  1  0  0  3  0  0  0  0  0  0
  189.0950  177.2020  144.1630 C   0  0  0  0  0  3  0  0  0  0  0  0
  189.1910  177.4970  142.7930 C   0  0  0  0  0  0  0  0  0  0  0  0
  186.7590  178.0840  142.6590 C   0  0  0  0  0  3  0  0  0  0  0  0
  189.2910  176.5190  139.0630 C   0  0  0  0  0  2  0  0  0  0  0  0
  187.0010  178.6990  138.5140 O   0  0  0  0  0  1  0  0  0  0  0  0
  183.8790  178.6330  143.6360 C   0  0  0  0  0  1  0  0  0  0  0  0
  188.0870  178.0780  140.6140 C   0  0  0  0  0  0  0  0  0  0  0  0
  185.6990  178.4700  141.9080 N   0  0  0  0  0  0  0  0  0  0  0  0
  194.4850  176.6900  136.5970 N   0  0  0  0  0  2  0  0  0  0  0  0
  194.5670  176.6740  135.1340 C   0  0  0  0  0  3  0  0  0  0  0  0
  195.5660  177.6950  134.6080 C   0  0  0  0  0  1  0  0  0  0  0  0
  194.8650  175.2840  134.5940 C   0  0  0  0  0  1  0  0  0  0  0  0
  1 16  1  1  0  0  0
  1 10  1  0  0  0  0
  2 24  1  1  0  0  0
  2 27  1  0  0  0  0
  2 12  1  0  0  0  0
  3  4  1  0  0  0  0
  5  6  1  0  0  0  0
  5 27  2  0  0  0  0
  6 28  1  0  0  0  0
  7 19  1  1  0  0  0
  7 24  1  0  0  0  0
  7 17  1  0  0  0  0
  8 12  1  0  0  0  0
  9 26  1  0  0  0  0
 10 17  1  0  0  0  0
 11  3  2  0  0  0  0
 12 13  1  0  0  0  0
 13 22  2  0  0  0  0
 13 11  1  0  0  0  0
 14 23  2  0  0  0  0
 14 22  1  0  0  0  0
 15  9  2  0  0  0  0
 17  8  1  0  0  0  0
 18  6  2  0  0  0  0
 18 15  1  0  0  0  0
 19 16  1  0  0  0  0
 20  1  1  0  0  0  0
 20 10  1  0  0  0  0
 21  4  2  0  0  0  0
 22 21  1  0  0  0  0
 25  5  1  0  0  0  0
 27 14  1  0  0  0  0
 28  9  1  0  0  0  0
 28 23  1  0  0  0  0
 29 20  1  0  0  0  0
 30 29  1  0  0  0  0
 31 30  1  0  0  0  0
 32 30  1  0  0  0  0
M  END
>  <MODEL>
2

>  <REMARK>
 VINA RESULT:      -8.9      4.142      8.240
  Name = 
  2 active torsions:
  status: ('A' for Active; 'I' for Inactive)
    1  A    between atoms: C_20  and  N_29
    2  A    between atoms: N_29  and  C_30
                            x       y       z     vdW  Elec       q    Type
                         _______ _______ _______ _____ _____    ______ ____

>  <TORSDO>
F 2

$$$$
=
 OpenBabel11122410413D

 32 38  0  0  1  0  0  0  0  0999 V2000
  194.0510  174.2500  137.5190 C   0  0  1  0  0  3  0  0  0  0  0  0
  190.1760  177.4960  139.0640 C   0  0  1  0  0  3  0  0  0  0  0  0
  191.5430  176.6890  143.7720 C   0  0  0  0  0  3  0  0  0  0  0  0
  190.2240  176.8390  144.2000 C   0  0  0  0  0  3  0  0  0  0  0  0
  187.8210  178.3020  138.6670 C   0  0  0  0  0  0  0  0  0  0  0  0
  186.5550  178.5960  139.1660 C   0  0  0  0  0  0  0  0  0  0  0  0
  191.5220  175.8470  137.7680 C   0  0  1  0  0  3  0  0  0  0  0  0
  192.5660  177.1670  139.6350 C   0  0  0  0  0  2  0  0  0  0  0  0
  185.0030  178.8300  140.6110 C   0  0  0  0  0  0  0  0  0  0  0  0
  194.0000  175.4830  138.4220 C   0  0  2  0  0  3  0  0  0  0  0  0
  191.8670  176.8870  142.4290 C   0  0  0  0  0  3  0  0  0  0  0  0
  191.2090  177.4330  140.1080 N   0  0  0  0  0  0  0  0  0  0  0  0
  190.8750  177.2330  141.4960 C   0  0  0  0  0  0  0  0  0  0  0  0
  188.5020  177.7800  140.9610 C   0  0  0  0  0  0  0  0  0  0  0  0
  184.4980  179.1480  139.3600 C   0  0  0  0  0  3  0  0  0  0  0  0
  192.6730  173.6020  137.2530 C   0  0  0  0  0  2  0  0  0  0  0  0
  192.5760  175.8330  138.8920 C   0  0  2  0  0  3  0  0  0  0  0  0
  185.4880  178.9970  138.4440 N   0  0  0  0  0  0  0  0  0  0  0  0
  191.5050  174.5550  136.9490 C   0  0  0  0  0  2  0  0  0  0  0  0
  194.2170  175.6380  136.9180 C   0  0  1  0  0  3  0  0  0  0  0  0
  189.2300  177.1880  143.2840 C   0  0  0  0  0  3  0  0  0  0  0  0
  189.5450  177.3860  141.9300 C   0  0  0  0  0  0  0  0  0  0  0  0
  187.2010  178.0930  141.3970 C   0  0  0  0  0  3  0  0  0  0  0  0
  190.1320  176.1590  138.3200 C   0  0  0  0  0  2  0  0  0  0  0  0
  188.0900  178.4180  137.3070 O   0  0  0  0  0  1  0  0  0  0  0  0
  184.2500  178.8590  141.8950 C   0  0  0  0  0  1  0  0  0  0  0  0
  188.8130  177.8800  139.5800 C   0  0  0  0  0  0  0  0  0  0  0  0
  186.2900  178.4850  140.4730 N   0  0  0  0  0  0  0  0  0  0  0  0
  195.6320  175.8870  136.6600 N   0  0  0  0  0  2  0  0  0  0  0  0
  196.2800  174.6900  136.1160 C   0  0  0  0  0  3  0  0  0  0  0  0
  196.4010  174.7450  134.6010 C   0  0  0  0  0  1  0  0  0  0  0  0
  197.6290  174.4250  136.7680 C   0  0  0  0  0  1  0  0  0  0  0  0
  1 16  1  6  0  0  0
  1 10  1  0  0  0  0
  2 24  1  1  0  0  0
  2 27  1  0  0  0  0
  2 12  1  0  0  0  0
  3  4  1  0  0  0  0
  5  6  1  0  0  0  0
  5 27  2  0  0  0  0
  6 28  1  0  0  0  0
  7 19  1  1  0  0  0
  7 24  1  0  0  0  0
  7 17  1  0  0  0  0
  8 12  1  0  0  0  0
  9 26  1  0  0  0  0
 10 17  1  0  0  0  0
 11  3  2  0  0  0  0
 12 13  1  0  0  0  0
 13 22  2  0  0  0  0
 13 11  1  0  0  0  0
 14 23  2  0  0  0  0
 14 22  1  0  0  0  0
 15  9  2  0  0  0  0
 17  8  1  0  0  0  0
 18  6  2  0  0  0  0
 18 15  1  0  0  0  0
 19 16  1  0  0  0  0
 20  1  1  0  0  0  0
 20 10  1  0  0  0  0
 21  4  2  0  0  0  0
 22 21  1  0  0  0  0
 25  5  1  0  0  0  0
 27 14  1  0  0  0  0
 28  9  1  0  0  0  0
 28 23  1  0  0  0  0
 29 20  1  0  0  0  0
 30 29  1  0  0  0  0
 30 32  1  0  0  0  0
 31 30  1  0  0  0  0
M  END
>  <MODEL>
3

>  <REMARK>
 VINA RESULT:      -7.4      4.837      9.351
  Name = 
  2 active torsions:
  status: ('A' for Active; 'I' for Inactive)
    1  A    between atoms: C_20  and  N_29
    2  A    between atoms: N_29  and  C_30
                            x       y       z     vdW  Elec       q    Type
                         _______ _______ _______ _____ _____    ______ ____

>  <TORSDO>
F 2

$$$$
=
 OpenBabel11122410413D

 32 38  0  0  1  0  0  0  0  0999 V2000
  195.5830  173.4770  137.9520 C   0  0  1  0  0  3  0  0  0  0  0  0
  191.2900  176.4900  137.2930 C   0  0  1  0  0  3  0  0  0  0  0  0
  191.3650  177.4480  142.1680 C   0  0  0  0  0  3  0  0  0  0  0  0
  189.9740  177.5470  142.1880 C   0  0  0  0  0  3  0  0  0  0  0  0
  189.0960  176.7960  136.0900 C   0  0  0  0  0  0  0  0  0  0  0  0
  187.7310  177.0610  136.1370 C   0  0  0  0  0  0  0  0  0  0  0  0
  193.0100  174.7100  137.0160 C   0  0  1  0  0  3  0  0  0  0  0  0
  193.4480  176.6920  138.4970 C   0  0  0  0  0  2  0  0  0  0  0  0
  185.8360  177.5370  136.9940 C   0  0  0  0  0  0  0  0  0  0  0  0
  195.2330  174.9180  138.3270 C   0  0  2  0  0  3  0  0  0  0  0  0
  192.0310  177.2420  140.9590 C   0  0  0  0  0  3  0  0  0  0  0  0
  192.0030  176.9110  138.5090 N   0  0  0  0  0  0  0  0  0  0  0  0
  191.3150  177.1280  139.7560 C   0  0  0  0  0  0  0  0  0  0  0  0
  189.1530  177.1440  138.5140 C   0  0  0  0  0  0  0  0  0  0  0  0
  185.6750  177.3600  135.6290 C   0  0  0  0  0  3  0  0  0  0  0  0
  194.3590  172.5970  137.6070 C   0  0  0  0  0  2  0  0  0  0  0  0
  193.7200  175.2040  138.2920 C   0  0  2  0  0  3  0  0  0  0  0  0
  186.8820  177.0570  135.0880 N   0  0  0  0  0  0  0  0  0  0  0  0
  193.2750  173.2320  136.7200 C   0  0  0  0  0  2  0  0  0  0  0  0
  195.8420  174.6050  136.9630 C   0  0  1  0  0  3  0  0  0  0  0  0
  189.2510  177.4420  141.0000 C   0  0  0  0  0  3  0  0  0  0  0  0
  189.9110  177.2310  139.7790 C   0  0  0  0  0  0  0  0  0  0  0  0
  187.7700  177.4020  138.4890 C   0  0  0  0  0  3  0  0  0  0  0  0
  191.5100  174.9920  137.0750 C   0  0  0  0  0  2  0  0  0  0  0  0
  189.7180  176.5000  134.8820 O   0  0  0  0  0  1  0  0  0  0  0  0
  184.7620  177.8790  137.9680 C   0  0  0  0  0  1  0  0  0  0  0  0
  189.8220  176.8310  137.3010 C   0  0  0  0  0  0  0  0  0  0  0  0
  187.1260  177.3450  137.2970 N   0  0  0  0  0  0  0  0  0  0  0  0
  197.2610  174.9460  136.9800 N   0  0  0  0  0  2  0  0  0  0  0  0
  197.7220  175.3200  135.6400 C   0  0  0  0  0  3  0  0  0  0  0  0
  197.8780  174.1090  134.7320 C   0  0  0  0  0  1  0  0  0  0  0  0
  196.8290  176.3740  135.0020 C   0  0  0  0  0  1  0  0  0  0  0  0
  1 16  1  6  0  0  0
  1 10  1  0  0  0  0
  2 24  1  1  0  0  0
  2 27  1  0  0  0  0
  2 12  1  0  0  0  0
  3  4  1  0  0  0  0
  5  6  1  0  0  0  0
  5 27  2  0  0  0  0
  6 28  1  0  0  0  0
  7 19  1  1  0  0  0
  7 24  1  0  0  0  0
  7 17  1  0  0  0  0
  8 12  1  0  0  0  0
  9 28  1  0  0  0  0
  9 26  1  0  0  0  0
 11  3  2  0  0  0  0
 12 13  1  0  0  0  0
 13 22  2  0  0  0  0
 13 11  1  0  0  0  0
 14 22  1  0  0  0  0
 15  9  2  0  0  0  0
 17 10  1  0  0  0  0
 17  8  1  0  0  0  0
 18 15  1  0  0  0  0
 18  6  2  0  0  0  0
 19 16  1  0  0  0  0
 20 29  1  0  0  0  0
 20  1  1  0  0  0  0
 20 10  1  0  0  0  0
 21  4  2  0  0  0  0
 22 21  1  0  0  0  0
 23 14  2  0  0  0  0
 25  5  1  0  0  0  0
 27 14  1  0  0  0  0
 28 23  1  0  0  0  0
 30 29  1  0  0  0  0
 31 30  1  0  0  0  0
 32 30  1  0  0  0  0
M  END
>  <MODEL>
4

>  <REMARK>
 VINA RESULT:      -6.7      6.028     10.903
  Name = 
  2 active torsions:
  status: ('A' for Active; 'I' for Inactive)
    1  A    between atoms: C_20  and  N_29
    2  A    between atoms: N_29  and  C_30
                            x       y       z     vdW  Elec       q    Type
                         _______ _______ _______ _____ _____    ______ ____

>  <TORSDO>
F 2

$$$$
=
 OpenBabel11122410413D

 32 38  0  0  1  0  0  0  0  0999 V2000
  181.2290  180.1560  139.1540 C   0  0  1  0  0  3  0  0  0  0  0  0
  185.5880  177.9350  141.1560 C   0  0  1  0  0  3  0  0  0  0  0  0
  183.8090  178.8360  145.7070 C   0  0  0  0  0  3  0  0  0  0  0  0
  185.1030  179.0020  146.2000 C   0  0  0  0  0  3  0  0  0  0  0  0
  188.0780  177.6090  140.9330 C   0  0  0  0  0  0  0  0  0  0  0  0
  189.3450  177.6300  141.5090 C   0  0  0  0  0  0  0  0  0  0  0  0
  184.0130  179.1500  139.6560 C   0  0  1  0  0  3  0  0  0  0  0  0
  183.1520  177.8050  141.5970 C   0  0  0  0  0  2  0  0  0  0  0  0
  190.8240  177.8490  143.0300 C   0  0  0  0  0  0  0  0  0  0  0  0
  181.4780  179.0420  140.1710 C   0  0  2  0  0  3  0  0  0  0  0  0
  183.6130  178.4610  144.3770 C   0  0  0  0  0  3  0  0  0  0  0  0
  184.5040  177.8690  142.1470 N   0  0  0  0  0  0  0  0  0  0  0  0
  184.7070  178.2530  143.5220 C   0  0  0  0  0  0  0  0  0  0  0  0
  187.1690  178.1710  143.1380 C   0  0  0  0  0  0  0  0  0  0  0  0
  191.4570  177.5390  141.8370 C   0  0  0  0  0  3  0  0  0  0  0  0
  182.4590  181.0530  138.8830 C   0  0  0  0  0  2  0  0  0  0  0  0
  182.9130  179.0390  140.7300 C   0  0  2  0  0  3  0  0  0  0  0  0
  190.5120  177.4010  140.8720 N   0  0  0  0  0  0  0  0  0  0  0  0
  183.8130  180.3430  138.7180 C   0  0  0  0  0  2  0  0  0  0  0  0
  181.3870  178.7180  138.6820 C   0  0  1  0  0  3  0  0  0  0  0  0
  186.1990  178.7920  145.3630 C   0  0  0  0  0  3  0  0  0  0  0  0
  186.0130  178.4180  144.0220 C   0  0  0  0  0  0  0  0  0  0  0  0
  188.4790  178.1740  143.6540 C   0  0  0  0  0  3  0  0  0  0  0  0
  185.4020  179.1840  140.2900 C   0  0  0  0  0  2  0  0  0  0  0  0
  187.9190  177.3250  139.5810 O   0  0  0  0  0  1  0  0  0  0  0  0
  191.4900  178.0880  144.3410 C   0  0  0  0  0  1  0  0  0  0  0  0
  186.9680  177.8910  141.7610 C   0  0  0  0  0  0  0  0  0  0  0  0
  189.5040  177.9050  142.8090 N   0  0  0  0  0  0  0  0  0  0  0  0
  180.0710  178.1570  138.3920 N   0  0  0  0  0  2  0  0  0  0  0  0
  180.1600  176.7120  138.1650 C   0  0  0  0  0  3  0  0  0  0  0  0
  181.5810  176.2710  137.8470 C   0  0  0  0  0  1  0  0  0  0  0  0
  179.5830  175.9150  139.3250 C   0  0  0  0  0  1  0  0  0  0  0  0
  1 16  1  6  0  0  0
  1 10  1  0  0  0  0
  2 24  1  1  0  0  0
  2 27  1  0  0  0  0
  2 12  1  0  0  0  0
  3  4  1  0  0  0  0
  5  6  1  0  0  0  0
  5 27  2  0  0  0  0
  6 28  1  0  0  0  0
  7 19  1  1  0  0  0
  7 24  1  0  0  0  0
  7 17  1  0  0  0  0
  8 12  1  0  0  0  0
  9 26  1  0  0  0  0
 10 17  1  0  0  0  0
 11  3  2  0  0  0  0
 12 13  1  0  0  0  0
 13 22  2  0  0  0  0
 13 11  1  0  0  0  0
 14 23  2  0  0  0  0
 14 22  1  0  0  0  0
 15  9  2  0  0  0  0
 17  8  1  0  0  0  0
 18  6  2  0  0  0  0
 18 15  1  0  0  0  0
 19 16  1  0  0  0  0
 20  1  1  0  0  0  0
 20 10  1  0  0  0  0
 21  4  2  0  0  0  0
 22 21  1  0  0  0  0
 25  5  1  0  0  0  0
 27 14  1  0  0  0  0
 28  9  1  0  0  0  0
 28 23  1  0  0  0  0
 29 20  1  0  0  0  0
 30 29  1  0  0  0  0
 30 32  1  0  0  0  0
 31 30  1  0  0  0  0
M  END
>  <MODEL>
5

>  <REMARK>
 VINA RESULT:      -6.7      2.257      4.649
  Name = 
  2 active torsions:
  status: ('A' for Active; 'I' for Inactive)
    1  A    between atoms: C_20  and  N_29
    2  A    between atoms: N_29  and  C_30
                            x       y       z     vdW  Elec       q    Type
                         _______ _______ _______ _____ _____    ______ ____

>  <TORSDO>
F 2

$$$$
=
 OpenBabel11122410413D

 32 38  0  0  1  0  0  0  0  0999 V2000
  180.5870  179.1300  139.3770 C   0  0  1  0  0  3  0  0  0  0  0  0
  185.1080  177.4570  137.2080 C   0  0  1  0  0  3  0  0  0  0  0  0
  183.1130  172.9220  136.8440 C   0  0  0  0  0  3  0  0  0  0  0  0
  184.3670  172.3360  137.0220 C   0  0  0  0  0  3  0  0  0  0  0  0
  187.6240  177.6170  137.1970 C   0  0  0  0  0  0  0  0  0  0  0  0
  188.8650  176.9860  137.2130 C   0  0  0  0  0  0  0  0  0  0  0  0
  183.4500  178.7230  138.5710 C   0  0  1  0  0  3  0  0  0  0  0  0
  182.6900  177.1880  136.7320 C   0  0  0  0  0  2  0  0  0  0  0  0
  190.2660  175.3780  137.2230 C   0  0  0  0  0  0  0  0  0  0  0  0
  180.9300  178.3810  138.0890 C   0  0  2  0  0  3  0  0  0  0  0  0
  182.9970  174.3110  136.7690 C   0  0  0  0  0  3  0  0  0  0  0  0
  184.0110  176.5660  136.8040 N   0  0  0  0  0  0  0  0  0  0  0  0
  184.1320  175.1320  136.8770 C   0  0  0  0  0  0  0  0  0  0  0  0
  186.5970  175.3930  137.1370 C   0  0  0  0  0  0  0  0  0  0  0  0
  190.9630  176.5750  137.2640 C   0  0  0  0  0  3  0  0  0  0  0  0
  181.7170  179.1240  140.4320 C   0  0  0  0  0  2  0  0  0  0  0  0
  182.3400  177.7620  138.1030 C   0  0  2  0  0  3  0  0  0  0  0  0
  190.0680  177.5950  137.2580 N   0  0  0  0  0  0  0  0  0  0  0  0
  183.1460  179.3740  139.9210 C   0  0  0  0  0  2  0  0  0  0  0  0
  180.9170  179.9070  138.1110 C   0  0  1  0  0  3  0  0  0  0  0  0
  185.5030  173.1400  137.1250 C   0  0  0  0  0  3  0  0  0  0  0  0
  185.3960  174.5390  137.0540 C   0  0  0  0  0  0  0  0  0  0  0  0
  187.8840  174.8220  137.1550 C   0  0  0  0  0  3  0  0  0  0  0  0
  184.8090  178.0250  138.5970 C   0  0  0  0  0  2  0  0  0  0  0  0
  187.5360  179.0040  137.2200 O   0  0  0  0  0  1  0  0  0  0  0  0
  190.8650  174.0140  137.2180 C   0  0  0  0  0  1  0  0  0  0  0  0
  186.4670  176.8070  137.1650 C   0  0  0  0  0  0  0  0  0  0  0  0
  188.9560  175.6500  137.1940 N   0  0  0  0  0  0  0  0  0  0  0  0
  179.6800  180.3860  137.5020 N   0  0  0  0  0  2  0  0  0  0  0  0
  179.9020  181.6550  136.8030 C   0  0  0  0  0  3  0  0  0  0  0  0
  180.8040  182.5920  137.5930 C   0  0  0  0  0  1  0  0  0  0  0  0
  180.4290  181.4450  135.3920 C   0  0  0  0  0  1  0  0  0  0  0  0
  1 16  1  1  0  0  0
  2 24  1  1  0  0  0
  3  4  1  0  0  0  0
  4 21  2  0  0  0  0
  5  6  1  0  0  0  0
  5 25  1  0  0  0  0
  6 18  2  0  0  0  0
  7 24  1  1  0  0  0
  7 19  1  0  0  0  0
  8 12  1  0  0  0  0
  8 17  1  0  0  0  0
  9 15  2  0  0  0  0
 10 17  1  0  0  0  0
 10 20  1  0  0  0  0
 10  1  1  0  0  0  0
 11  3  2  0  0  0  0
 11 13  1  0  0  0  0
 12 13  1  0  0  0  0
 12  2  1  0  0  0  0
 13 22  2  0  0  0  0
 14 23  2  0  0  0  0
 14 27  1  0  0  0  0
 17  7  1  0  0  0  0
 18 15  1  0  0  0  0
 19 16  1  0  0  0  0
 20  1  1  0  0  0  0
 22 21  1  0  0  0  0
 22 14  1  0  0  0  0
 23 28  1  0  0  0  0
 26  9  1  0  0  0  0
 27  5  2  0  0  0  0
 27  2  1  0  0  0  0
 28  6  1  0  0  0  0
 28  9  1  0  0  0  0
 29 20  1  0  0  0  0
 30 29  1  0  0  0  0
 30 31  1  0  0  0  0
 32 30  1  0  0  0  0
M  END
>  <MODEL>
6

>  <REMARK>
 VINA RESULT:      -6.3      4.777      6.372
  Name = 
  2 active torsions:
  status: ('A' for Active; 'I' for Inactive)
    1  A    between atoms: C_20  and  N_29
    2  A    between atoms: N_29  and  C_30
                            x       y       z     vdW  Elec       q    Type
                         _______ _______ _______ _____ _____    ______ ____

>  <TORSDO>
F 2

$$$$
