=
 OpenBabel11122410403D

 32 37  0  0  1  0  0  0  0  0999 V2000
  180.5380  176.9140  138.4860 C   0  0  0  0  0  2  0  0  0  0  0  0
  185.1110  178.8740  141.2560 C   0  0  1  0  0  3  0  0  0  0  0  0
  186.4440  177.8830  136.7410 C   0  0  0  0  0  2  0  0  0  0  0  0
  187.8630  177.5050  137.1550 C   0  0  0  0  0  2  0  0  0  0  0  0
  186.6390  178.3200  143.2100 C   0  0  0  0  0  0  0  0  0  0  0  0
  187.8820  177.8670  143.6410 C   0  0  0  0  0  0  0  0  0  0  0  0
  182.7910  178.1260  140.7130 C   0  0  1  0  0  3  0  0  0  0  0  0
  183.9650  179.8820  139.3980 C   0  0  0  0  0  2  0  0  0  0  0  0
  190.0900  177.1120  143.4640 C   0  0  1  0  0  3  0  0  0  0  0  0
  181.6740  179.1570  138.6900 C   0  0  0  0  0  2  0  0  0  0  0  0
  185.9180  178.9760  137.6680 C   0  0  0  0  0  2  0  0  0  0  0  0
  185.2880  179.4550  139.9040 N   0  0  2  0  0  0  0  0  0  0  0  0
  185.8850  178.4790  139.0530 N   0  0  2  0  0  0  0  0  0  0  0  0
  187.4710  178.0800  140.9260 C   0  0  0  0  0  0  0  0  0  0  0  0
  189.6650  177.2300  144.9460 C   0  0  0  0  0  2  0  0  0  0  0  0
  181.7970  175.8960  139.3230 S   0  0  0  0  0  0  0  0  0  0  0  0
  182.9860  178.7120  139.3140 C   0  0  2  0  0  3  0  0  0  0  0  0
  188.3120  177.6900  144.9380 O   0  0  0  0  0  0  0  0  0  0  0  0
  181.7790  176.9790  140.7900 C   0  0  0  0  0  2  0  0  0  0  0  0
  181.1710  178.0830  137.7330 C   0  0  2  0  0  3  0  0  0  0  0  0
  187.9140  177.1600  138.6400 C   0  0  0  0  0  2  0  0  0  0  0  0
  187.3000  178.3060  139.4470 C   0  0  1  0  0  3  0  0  0  0  0  0
  188.6770  177.6620  141.4160 N   0  0  0  0  0  0  0  0  0  0  0  0
  184.1390  177.6840  141.2560 C   0  0  0  0  0  2  0  0  0  0  0  0
  185.5810  178.6740  144.2020 C   0  0  0  0  0  1  0  0  0  0  0  0
  190.3940  175.6620  143.1390 C   0  0  0  0  0  1  0  0  0  0  0  0
  186.4310  178.4370  141.8170 C   0  0  0  0  0  0  0  0  0  0  0  0
  188.8600  177.5440  142.7550 C   0  0  0  0  0  0  0  0  0  0  0  0
  180.1880  178.6720  136.8350 N   0  0  0  0  0  2  0  0  0  0  0  0
  180.4330  178.8870  135.4430 C   0  0  0  0  0  0  0  0  0  0  0  0
  181.5800  178.6010  134.9190 N   0  0  0  0  0  2  0  0  0  0  0  0
  179.3650  179.4760  134.5940 C   0  0  0  0  0  1  0  0  0  0  0  0
  1 16  1  0  0  0  0
  2 24  1  6  0  0  0
  2 27  1  0  0  0  0
  3  4  1  0  0  0  0
  3 11  1  0  0  0  0
  4 21  1  0  0  0  0
  5  6  1  0  0  0  0
  5 25  1  0  0  0  0
  6 18  1  0  0  0  0
  7 19  1  6  0  0  0
  7 24  1  0  0  0  0
  9 26  1  6  0  0  0
  9 15  1  0  0  0  0
 12  8  1  6  0  0  0
 12  2  1  0  0  0  0
 13 11  1  6  0  0  0
 13 22  1  0  0  0  0
 13 12  1  0  0  0  0
 14 23  2  0  0  0  0
 14 27  1  0  0  0  0
 16 19  1  0  0  0  0
 17 10  1  1  0  0  0
 17  8  1  0  0  0  0
 17  7  1  0  0  0  0
 18 15  1  0  0  0  0
 20 29  1  6  0  0  0
 20  1  1  0  0  0  0
 20 10  1  0  0  0  0
 22 21  1  6  0  0  0
 22 14  1  0  0  0  0
 23 28  1  0  0  0  0
 27  5  2  0  0  0  0
 28  9  1  0  0  0  0
 28  6  2  0  0  0  0
 30 29  1  0  0  0  0
 31 30  2  0  0  0  0
 32 30  1  0  0  0  0
M  END
>  <MODEL>
1

>  <REMARK>
 VINA RESULT:      -7.0      0.000      0.000
  Name = 
  1 active torsions:
  status: ('A' for Active; 'I' for Inactive)
    1  A    between atoms: C_20  and  N_29
                            x       y       z     vdW  Elec       q    Type
                         _______ _______ _______ _____ _____    ______ ____

>  <TORSDO>
F 1

$$$$
=
 OpenBabel11122410403D

 32 37  0  0  1  0  0  0  0  0999 V2000
  187.2110  174.7130  136.3730 C   0  0  0  0  0  2  0  0  0  0  0  0
  183.9530  178.6740  138.8470 C   0  0  1  0  0  3  0  0  0  0  0  0
  187.5760  177.6710  141.8480 C   0  0  0  0  0  2  0  0  0  0  0  0
  186.7320  177.9410  143.0910 C   0  0  0  0  0  2  0  0  0  0  0  0
  181.5990  179.0400  139.7330 C   0  0  0  0  0  0  0  0  0  0  0  0
  180.7650  179.1760  140.8390 C   0  0  0  0  0  0  0  0  0  0  0  0
  184.8630  177.0070  137.2250 C   0  0  1  0  0  3  0  0  0  0  0  0
  186.2340  178.8820  138.1170 C   0  0  0  0  0  2  0  0  0  0  0  0
  180.1760  179.3320  143.0980 C   0  0  1  0  0  3  0  0  0  0  0  0
  187.2970  177.2260  136.5670 C   0  0  0  0  0  2  0  0  0  0  0  0
  187.1210  178.5860  140.7150 C   0  0  0  0  0  2  0  0  0  0  0  0
  185.3160  179.0840  139.2600 N   0  0  2  0  0  0  0  0  0  0  0  0
  185.7110  178.3130  140.3920 N   0  0  2  0  0  0  0  0  0  0  0  0
  183.4580  178.8320  141.3040 C   0  0  0  0  0  0  0  0  0  0  0  0
  178.9310  179.4770  142.1930 C   0  0  0  0  0  2  0  0  0  0  0  0
  185.8510  174.3970  137.5460 S   0  0  0  0  0  0  0  0  0  0  0  0
  186.2670  177.4230  137.6670 C   0  0  2  0  0  3  0  0  0  0  0  0
  179.4000  179.3640  140.8480 O   0  0  0  0  0  0  0  0  0  0  0  0
  184.7600  175.5770  136.6850 C   0  0  0  0  0  2  0  0  0  0  0  0
  188.0470  175.9190  136.7950 C   0  0  2  0  0  3  0  0  0  0  0  0
  185.2460  177.8530  142.7580 C   0  0  0  0  0  2  0  0  0  0  0  0
  184.9390  178.7660  141.5680 C   0  0  1  0  0  3  0  0  0  0  0  0
  182.5870  178.9930  142.3460 N   0  0  0  0  0  0  0  0  0  0  0  0
  183.9000  177.2090  138.3820 C   0  0  0  0  0  2  0  0  0  0  0  0
  181.0330  179.0840  138.3520 C   0  0  0  0  0  1  0  0  0  0  0  0
  180.0350  178.0880  143.9540 C   0  0  0  0  0  1  0  0  0  0  0  0
  182.9820  178.8720  139.9720 C   0  0  0  0  0  0  0  0  0  0  0  0
  181.2610  179.1430  142.1040 C   0  0  0  0  0  0  0  0  0  0  0  0
  189.2850  175.9450  136.0290 N   0  0  0  0  0  2  0  0  0  0  0  0
  190.5210  175.4230  136.5250 C   0  0  0  0  0  0  0  0  0  0  0  0
  190.6020  174.9340  137.7190 N   0  0  0  0  0  2  0  0  0  0  0  0
  191.7330  175.4710  135.6670 C   0  0  0  0  0  1  0  0  0  0  0  0
  1 20  1  0  0  0  0
  1 16  1  0  0  0  0
  2 24  1  1  0  0  0
  2 12  1  0  0  0  0
  2 27  1  0  0  0  0
  3  4  1  0  0  0  0
  5 27  2  0  0  0  0
  5  6  1  0  0  0  0
  6 18  1  0  0  0  0
  6 28  2  0  0  0  0
  7 19  1  1  0  0  0
  7 17  1  0  0  0  0
  7 24  1  0  0  0  0
  9 26  1  1  0  0  0
 10 20  1  0  0  0  0
 11  3  1  0  0  0  0
 12  8  1  6  0  0  0
 12 13  1  0  0  0  0
 13 11  1  1  0  0  0
 13 22  1  0  0  0  0
 14 22  1  0  0  0  0
 14 23  2  0  0  0  0
 15  9  1  0  0  0  0
 17 10  1  6  0  0  0
 17  8  1  0  0  0  0
 18 15  1  0  0  0  0
 19 16  1  0  0  0  0
 20 29  1  6  0  0  0
 21  4  1  0  0  0  0
 22 21  1  1  0  0  0
 25  5  1  0  0  0  0
 27 14  1  0  0  0  0
 28 23  1  0  0  0  0
 28  9  1  0  0  0  0
 29 30  1  0  0  0  0
 30 31  2  0  0  0  0
 32 30  1  0  0  0  0
M  END
>  <MODEL>
2

>  <REMARK>
 VINA RESULT:      -6.6      3.133      7.012
  Name = 
  1 active torsions:
  status: ('A' for Active; 'I' for Inactive)
    1  A    between atoms: C_20  and  N_29
                            x       y       z     vdW  Elec       q    Type
                         _______ _______ _______ _____ _____    ______ ____

>  <TORSDO>
F 1

$$$$
=
 OpenBabel11122410403D

 32 37  0  0  1  0  0  0  0  0999 V2000
  187.2150  177.1110  143.7820 C   0  0  0  0  0  2  0  0  0  0  0  0
  190.7480  177.4880  139.3320 C   0  0  1  0  0  3  0  0  0  0  0  0
  186.6000  175.6280  137.7580 C   0  0  0  0  0  2  0  0  0  0  0  0
  187.2870  174.7900  136.6840 C   0  0  0  0  0  2  0  0  0  0  0  0
  192.9720  176.6010  138.4800 C   0  0  0  0  0  0  0  0  0  0  0  0
  193.6450  175.7620  137.5970 C   0  0  0  0  0  0  0  0  0  0  0  0
  189.7950  177.6090  141.6370 C   0  0  1  0  0  3  0  0  0  0  0  0
  188.6770  178.6600  139.6780 C   0  0  0  0  0  2  0  0  0  0  0  0
  193.9140  174.2240  135.8540 C   0  0  1  0  0  3  0  0  0  0  0  0
  187.5670  178.7760  141.9200 C   0  0  0  0  0  2  0  0  0  0  0  0
  187.3780  176.9240  137.9680 C   0  0  0  0  0  2  0  0  0  0  0  0
  189.4380  177.8230  138.7240 N   0  0  2  0  0  0  0  0  0  0  0  0
  188.7450  176.6150  138.4170 N   0  0  2  0  0  0  0  0  0  0  0  0
  190.8970  175.8410  137.4410 C   0  0  0  0  0  0  0  0  0  0  0  0
  195.2840  174.6380  136.4390 C   0  0  0  0  0  2  0  0  0  0  0  0
  188.3060  175.7850  143.1690 S   0  0  0  0  0  0  0  0  0  0  0  0
  188.4420  177.9380  141.0030 C   0  0  2  0  0  3  0  0  0  0  0  0
  195.0050  175.5670  137.4890 O   0  0  0  0  0  0  0  0  0  0  0  0
  189.7100  176.9370  143.0110 C   0  0  0  0  0  2  0  0  0  0  0  0
  186.5630  177.8780  142.6330 C   0  0  2  0  0  3  0  0  0  0  0  0
  188.7640  174.6000  137.0150 C   0  0  0  0  0  2  0  0  0  0  0  0
  189.4060  175.9670  137.2650 C   0  0  1  0  0  3  0  0  0  0  0  0
  191.6190  175.0540  136.5880 N   0  0  0  0  0  0  0  0  0  0  0  0
  190.5970  176.7530  140.6730 C   0  0  0  0  0  2  0  0  0  0  0  0
  193.7340  177.4210  139.4690 C   0  0  0  0  0  1  0  0  0  0  0  0
  193.6950  172.7400  136.0830 C   0  0  0  0  0  1  0  0  0  0  0  0
  191.5630  176.6480  138.3950 C   0  0  0  0  0  0  0  0  0  0  0  0
  192.9710  175.0100  136.6880 C   0  0  0  0  0  0  0  0  0  0  0  0
  185.4780  178.6990  143.1500 N   0  0  0  0  0  2  0  0  0  0  0  0
  184.1450  178.6440  142.6350 C   0  0  0  0  0  0  0  0  0  0  0  0
  183.8500  177.8780  141.6380 N   0  0  0  0  0  2  0  0  0  0  0  0
  183.0920  179.5040  143.2380 C   0  0  0  0  0  1  0  0  0  0  0  0
  2 24  1  1  0  0  0
  3 11  1  0  0  0  0
  4 21  1  0  0  0  0
  4  3  1  0  0  0  0
  5 25  1  0  0  0  0
  6  5  2  0  0  0  0
  7 24  1  6  0  0  0
  7 19  1  0  0  0  0
  9 26  1  1  0  0  0
  9 15  1  0  0  0  0
  9 28  1  0  0  0  0
 10 20  1  0  0  0  0
 12  2  1  0  0  0  0
 12  8  1  1  0  0  0
 13 11  1  6  0  0  0
 13 12  1  0  0  0  0
 14 27  2  0  0  0  0
 15 18  1  0  0  0  0
 16  1  1  0  0  0  0
 17  8  1  6  0  0  0
 17  7  1  0  0  0  0
 17 10  1  0  0  0  0
 18  6  1  0  0  0  0
 19 16  1  0  0  0  0
 20 29  1  1  0  0  0
 20  1  1  0  0  0  0
 22 21  1  1  0  0  0
 22 14  1  0  0  0  0
 22 13  1  0  0  0  0
 23 28  2  0  0  0  0
 23 14  1  0  0  0  0
 27  5  1  0  0  0  0
 27  2  1  0  0  0  0
 28  6  1  0  0  0  0
 30 29  1  0  0  0  0
 30 32  1  0  0  0  0
 31 30  2  0  0  0  0
M  END
>  <MODEL>
3

>  <REMARK>
 VINA RESULT:      -6.5      4.397      7.070
  Name = 
  1 active torsions:
  status: ('A' for Active; 'I' for Inactive)
    1  A    between atoms: C_20  and  N_29
                            x       y       z     vdW  Elec       q    Type
                         _______ _______ _______ _____ _____    ______ ____

>  <TORSDO>
F 1

$$$$
=
 OpenBabel11122410403D

 32 37  0  0  1  0  0  0  0  0999 V2000
  188.3920  174.2280  136.1090 C   0  0  0  0  0  2  0  0  0  0  0  0
  184.8630  178.3410  137.8560 C   0  0  1  0  0  3  0  0  0  0  0  0
  188.3050  177.8510  141.1810 C   0  0  0  0  0  2  0  0  0  0  0  0
  187.3720  178.2410  142.3240 C   0  0  0  0  0  2  0  0  0  0  0  0
  182.4460  178.7270  138.5390 C   0  0  0  0  0  0  0  0  0  0  0  0
  181.5360  178.9670  139.5650 C   0  0  0  0  0  0  0  0  0  0  0  0
  185.9270  176.5220  136.5170 C   0  0  1  0  0  3  0  0  0  0  0  0
  187.1810  178.5420  137.2500 C   0  0  0  0  0  2  0  0  0  0  0  0
  180.7930  179.3790  141.7450 C   0  0  1  0  0  3  0  0  0  0  0  0
  188.3920  176.7480  135.9900 C   0  0  0  0  0  2  0  0  0  0  0  0
  187.9000  178.6010  139.9150 C   0  0  0  0  0  2  0  0  0  0  0  0
  186.1830  178.8490  138.2980 N   0  0  2  0  0  0  0  0  0  0  0  0
  186.5240  178.2390  139.5410 N   0  0  2  0  0  0  0  0  0  0  0  0
  184.2000  178.7830  140.2380 C   0  0  0  0  0  0  0  0  0  0  0  0
  179.6070  179.3650  140.7520 C   0  0  0  0  0  2  0  0  0  0  0  0
  186.9670  174.0100  137.2240 S   0  0  0  0  0  0  0  0  0  0  0  0
  187.2860  177.0400  136.9900 C   0  0  2  0  0  3  0  0  0  0  0  0
  180.1680  179.1040  139.4640 O   0  0  0  0  0  0  0  0  0  0  0  0
  185.9020  175.0330  136.1550 C   0  0  0  0  0  2  0  0  0  0  0  0
  189.1630  175.5070  136.4270 C   0  0  2  0  0  3  0  0  0  0  0  0
  185.9140  178.0580  141.9130 C   0  0  0  0  0  2  0  0  0  0  0  0
  185.6620  178.8050  140.6000 C   0  0  1  0  0  3  0  0  0  0  0  0
  183.2570  179.0390  141.1940 N   0  0  0  0  0  0  0  0  0  0  0  0
  184.8840  176.8290  137.5760 C   0  0  0  0  0  2  0  0  0  0  0  0
  181.9720  178.5790  137.1310 C   0  0  0  0  0  1  0  0  0  0  0  0
  180.6310  178.2450  142.7400 C   0  0  0  0  0  1  0  0  0  0  0  0
  183.8130  178.6400  138.8840 C   0  0  0  0  0  0  0  0  0  0  0  0
  181.9460  179.1090  140.8520 C   0  0  0  0  0  0  0  0  0  0  0  0
  190.4490  175.4840  135.7430 N   0  0  0  0  0  2  0  0  0  0  0  0
  191.6660  175.9150  136.3560 C   0  0  0  0  0  0  0  0  0  0  0  0
  191.6710  176.3960  137.5560 N   0  0  0  0  0  2  0  0  0  0  0  0
  192.9380  175.8370  135.5910 C   0  0  0  0  0  1  0  0  0  0  0  0
  1 20  1  0  0  0  0
  1 16  1  0  0  0  0
  2 24  1  1  0  0  0
  2 12  1  0  0  0  0
  2 27  1  0  0  0  0
  3  4  1  0  0  0  0
  5 27  2  0  0  0  0
  5  6  1  0  0  0  0
  6 28  2  0  0  0  0
  7 19  1  1  0  0  0
  7 17  1  0  0  0  0
  7 24  1  0  0  0  0
  9 26  1  1  0  0  0
 10 20  1  0  0  0  0
 11  3  1  0  0  0  0
 12  8  1  6  0  0  0
 12 13  1  0  0  0  0
 13 11  1  1  0  0  0
 13 22  1  0  0  0  0
 14 22  1  0  0  0  0
 14 23  2  0  0  0  0
 15  9  1  0  0  0  0
 17 10  1  6  0  0  0
 17  8  1  0  0  0  0
 18  6  1  0  0  0  0
 18 15  1  0  0  0  0
 19 16  1  0  0  0  0
 20 29  1  6  0  0  0
 21  4  1  0  0  0  0
 22 21  1  1  0  0  0
 25  5  1  0  0  0  0
 27 14  1  0  0  0  0
 28 23  1  0  0  0  0
 28  9  1  0  0  0  0
 29 30  1  0  0  0  0
 30 31  2  0  0  0  0
 32 30  1  0  0  0  0
M  END
>  <MODEL>
4

>  <REMARK>
 VINA RESULT:      -6.3      3.195      7.336
  Name = 
  1 active torsions:
  status: ('A' for Active; 'I' for Inactive)
    1  A    between atoms: C_20  and  N_29
                            x       y       z     vdW  Elec       q    Type
                         _______ _______ _______ _____ _____    ______ ____

>  <TORSDO>
F 1

$$$$
=
 OpenBabel11122410403D

 32 37  0  0  1  0  0  0  0  0999 V2000
  191.1930  173.6380  135.8720 C   0  0  0  0  0  2  0  0  0  0  0  0
  186.7320  177.1760  135.9570 C   0  0  1  0  0  3  0  0  0  0  0  0
  189.4900  178.2020  139.7620 C   0  0  0  0  0  2  0  0  0  0  0  0
  188.2990  178.6290  140.6150 C   0  0  0  0  0  2  0  0  0  0  0  0
  184.1980  177.1740  136.1540 C   0  0  0  0  0  0  0  0  0  0  0  0
  183.0780  177.4370  136.9380 C   0  0  0  0  0  0  0  0  0  0  0  0
  188.3360  175.3760  135.3060 C   0  0  1  0  0  3  0  0  0  0  0  0
  189.0530  177.7320  135.6650 C   0  0  0  0  0  2  0  0  0  0  0  0
  181.8640  178.1580  138.8030 C   0  0  1  0  0  3  0  0  0  0  0  0
  190.7790  176.0050  135.1060 C   0  0  0  0  0  2  0  0  0  0  0  0
  189.2170  178.5430  138.3000 C   0  0  0  0  0  2  0  0  0  0  0  0
  187.8320  178.0440  136.4410 N   0  0  2  0  0  0  0  0  0  0  0  0
  188.0240  177.8180  137.8350 N   0  0  2  0  0  0  0  0  0  0  0  0
  185.5500  177.9890  138.0180 C   0  0  0  0  0  0  0  0  0  0  0  0
  180.9150  177.6650  137.6860 C   0  0  0  0  0  2  0  0  0  0  0  0
  189.6370  173.3740  136.7840 S   0  0  0  0  0  0  0  0  0  0  0  0
  189.4660  176.2700  135.8220 C   0  0  2  0  0  3  0  0  0  0  0  0
  181.7540  177.2490  136.6060 O   0  0  0  0  0  0  0  0  0  0  0  0
  188.6410  173.8760  135.3430 C   0  0  0  0  0  2  0  0  0  0  0  0
  191.6530  175.0920  135.9570 C   0  0  2  0  0  3  0  0  0  0  0  0
  187.0040  178.0470  140.0570 C   0  0  0  0  0  2  0  0  0  0  0  0
  186.8870  178.4070  138.5730 C   0  0  1  0  0  3  0  0  0  0  0  0
  184.4090  178.2440  138.7270 N   0  0  0  0  0  0  0  0  0  0  0  0
  187.0690  175.6820  136.0840 C   0  0  0  0  0  2  0  0  0  0  0  0
  184.0420  176.6150  134.7790 C   0  0  0  0  0  1  0  0  0  0  0  0
  181.7100  177.2700  140.0240 C   0  0  0  0  0  1  0  0  0  0  0  0
  185.4660  177.4650  136.7060 C   0  0  0  0  0  0  0  0  0  0  0  0
  183.1990  177.9500  138.1900 C   0  0  0  0  0  0  0  0  0  0  0  0
  193.0320  175.1940  135.4990 N   0  0  0  0  0  2  0  0  0  0  0  0
  194.0230  175.9710  136.1750 C   0  0  0  0  0  0  0  0  0  0  0  0
  193.7210  176.6670  137.2210 N   0  0  0  0  0  2  0  0  0  0  0  0
  195.4130  176.0020  135.6490 C   0  0  0  0  0  1  0  0  0  0  0  0
  1 20  1  0  0  0  0
  1 16  1  0  0  0  0
  2 24  1  1  0  0  0
  2 12  1  0  0  0  0
  2 27  1  0  0  0  0
  3  4  1  0  0  0  0
  5 27  2  0  0  0  0
  5  6  1  0  0  0  0
  6 28  2  0  0  0  0
  7 19  1  1  0  0  0
  7 17  1  0  0  0  0
  7 24  1  0  0  0  0
  8 17  1  0  0  0  0
  9 26  1  1  0  0  0
 10 20  1  0  0  0  0
 11  3  1  0  0  0  0
 12  8  1  6  0  0  0
 12 13  1  0  0  0  0
 13 11  1  1  0  0  0
 13 22  1  0  0  0  0
 14 22  1  0  0  0  0
 14 23  2  0  0  0  0
 15  9  1  0  0  0  0
 17 10  1  6  0  0  0
 18  6  1  0  0  0  0
 18 15  1  0  0  0  0
 19 16  1  0  0  0  0
 20 29  1  6  0  0  0
 21  4  1  0  0  0  0
 22 21  1  1  0  0  0
 25  5  1  0  0  0  0
 27 14  1  0  0  0  0
 28 23  1  0  0  0  0
 28  9  1  0  0  0  0
 29 30  1  0  0  0  0
 30 31  2  0  0  0  0
 32 30  1  0  0  0  0
M  END
>  <MODEL>
5

>  <REMARK>
 VINA RESULT:      -6.0      4.175      8.659
  Name = 
  1 active torsions:
  status: ('A' for Active; 'I' for Inactive)
    1  A    between atoms: C_20  and  N_29
                            x       y       z     vdW  Elec       q    Type
                         _______ _______ _______ _____ _____    ______ ____

>  <TORSDO>
F 1

$$$$
=
 OpenBabel11122410403D

 32 37  0  0  1  0  0  0  0  0999 V2000
  191.1210  173.0510  135.7610 C   0  0  0  0  0  2  0  0  0  0  0  0
  187.7580  177.4790  136.9870 C   0  0  1  0  0  3  0  0  0  0  0  0
  191.0730  177.1490  140.4570 C   0  0  0  0  0  2  0  0  0  0  0  0
  190.1280  177.6940  141.5260 C   0  0  0  0  0  2  0  0  0  0  0  0
  185.3450  178.0460  137.5480 C   0  0  0  0  0  0  0  0  0  0  0  0
  184.4190  178.4280  138.5140 C   0  0  0  0  0  0  0  0  0  0  0  0
  188.7660  175.4890  135.8640 C   0  0  1  0  0  3  0  0  0  0  0  0
  190.1000  177.5080  136.4420 C   0  0  0  0  0  2  0  0  0  0  0  0
  183.6350  179.0850  140.6180 C   0  0  1  0  0  3  0  0  0  0  0  0
  191.2540  175.5440  135.4020 C   0  0  0  0  0  2  0  0  0  0  0  0
  190.7440  177.7920  139.1130 C   0  0  0  0  0  2  0  0  0  0  0  0
  189.0890  177.9630  137.4230 N   0  0  2  0  0  0  0  0  0  0  0  0
  189.3620  177.4620  138.7290 N   0  0  2  0  0  0  0  0  0  0  0  0
  187.0500  178.1820  139.2910 C   0  0  0  0  0  0  0  0  0  0  0  0
  182.4800  179.0320  139.5920 C   0  0  0  0  0  2  0  0  0  0  0  0
  189.6550  173.0110  136.8430 S   0  0  0  0  0  0  0  0  0  0  0  0
  190.1350  175.9850  136.3310 C   0  0  2  0  0  3  0  0  0  0  0  0
  183.0640  178.6200  138.3550 O   0  0  0  0  0  0  0  0  0  0  0  0
  188.6760  173.9750  135.6460 C   0  0  0  0  0  2  0  0  0  0  0  0
  191.9470  174.3160  135.9810 C   0  0  2  0  0  3  0  0  0  0  0  0
  188.6760  177.5420  141.0850 C   0  0  0  0  0  2  0  0  0  0  0  0
  188.5000  178.1680  139.6990 C   0  0  1  0  0  3  0  0  0  0  0  0
  186.0940  178.5750  140.1870 N   0  0  0  0  0  0  0  0  0  0  0  0
  187.7100  175.9480  136.8530 C   0  0  0  0  0  2  0  0  0  0  0  0
  184.9060  177.7840  136.1450 C   0  0  0  0  0  1  0  0  0  0  0  0
  183.3870  178.0630  141.7120 C   0  0  0  0  0  1  0  0  0  0  0  0
  186.6960  177.9270  137.9450 C   0  0  0  0  0  0  0  0  0  0  0  0
  184.7990  178.6750  139.7950 C   0  0  0  0  0  0  0  0  0  0  0  0
  193.2490  174.1640  135.3460 N   0  0  0  0  0  2  0  0  0  0  0  0
  194.4460  174.7410  135.8740 C   0  0  0  0  0  0  0  0  0  0  0  0
  194.4160  175.4750  136.9380 N   0  0  0  0  0  2  0  0  0  0  0  0
  195.7370  174.5180  135.1720 C   0  0  0  0  0  1  0  0  0  0  0  0
  1 20  1  0  0  0  0
  1 16  1  0  0  0  0
  2 24  1  1  0  0  0
  2 12  1  0  0  0  0
  2 27  1  0  0  0  0
  3  4  1  0  0  0  0
  5 27  2  0  0  0  0
  5  6  1  0  0  0  0
  6 28  2  0  0  0  0
  7 19  1  1  0  0  0
  7 17  1  0  0  0  0
  7 24  1  0  0  0  0
  9 26  1  1  0  0  0
 10 20  1  0  0  0  0
 11  3  1  0  0  0  0
 12  8  1  6  0  0  0
 12 13  1  0  0  0  0
 13 11  1  1  0  0  0
 13 22  1  0  0  0  0
 14 22  1  0  0  0  0
 14 23  2  0  0  0  0
 15  9  1  0  0  0  0
 17 10  1  6  0  0  0
 17  8  1  0  0  0  0
 18  6  1  0  0  0  0
 18 15  1  0  0  0  0
 19 16  1  0  0  0  0
 20 29  1  6  0  0  0
 21  4  1  0  0  0  0
 22 21  1  1  0  0  0
 25  5  1  0  0  0  0
 27 14  1  0  0  0  0
 28 23  1  0  0  0  0
 28  9  1  0  0  0  0
 29 30  1  0  0  0  0
 30 31  2  0  0  0  0
 32 30  1  0  0  0  0
M  END
>  <MODEL>
6

>  <REMARK>
 VINA RESULT:      -5.9      4.262      8.401
  Name = 
  1 active torsions:
  status: ('A' for Active; 'I' for Inactive)
    1  A    between atoms: C_20  and  N_29
                            x       y       z     vdW  Elec       q    Type
                         _______ _______ _______ _____ _____    ______ ____

>  <TORSDO>
F 1

$$$$
=
 OpenBabel11122410403D

 32 37  0  0  1  0  0  0  0  0999 V2000
  187.6570  178.3500  140.9450 C   0  0  0  0  0  2  0  0  0  0  0  0
  190.7260  176.1520  136.6820 C   0  0  1  0  0  3  0  0  0  0  0  0
  186.7190  173.5260  137.1100 C   0  0  0  0  0  2  0  0  0  0  0  0
  187.4090  172.2450  136.6500 C   0  0  0  0  0  2  0  0  0  0  0  0
  192.9620  175.0390  136.2120 C   0  0  0  0  0  0  0  0  0  0  0  0
  193.6550  173.8710  135.9080 C   0  0  0  0  0  0  0  0  0  0  0  0
  189.9640  177.5850  138.5800 C   0  0  1  0  0  3  0  0  0  0  0  0
  188.5640  177.1980  136.5600 C   0  0  0  0  0  2  0  0  0  0  0  0
  193.9610  171.6100  135.3870 C   0  0  1  0  0  3  0  0  0  0  0  0
  187.6430  178.5820  138.4330 C   0  0  0  0  0  2  0  0  0  0  0  0
  187.3470  174.7240  136.4040 C   0  0  0  0  0  2  0  0  0  0  0  0
  189.3380  175.9930  136.1860 N   0  0  2  0  0  0  0  0  0  0  0  0
  188.7750  174.8120  136.7500 N   0  0  2  0  0  0  0  0  0  0  0  0
  190.9140  173.7100  136.1250 C   0  0  0  0  0  0  0  0  0  0  0  0
  195.3150  172.3560  135.4160 C   0  0  0  0  0  2  0  0  0  0  0  0
  188.8450  176.9750  141.0830 S   0  0  0  0  0  0  0  0  0  0  0  0
  188.5330  177.4040  138.0730 C   0  0  2  0  0  3  0  0  0  0  0  0
  195.0140  173.7150  135.7440 O   0  0  0  0  0  0  0  0  0  0  0  0
  190.0800  177.8670  140.0810 C   0  0  0  0  0  2  0  0  0  0  0  0
  186.8210  178.2440  139.6710 C   0  0  2  0  0  3  0  0  0  0  0  0
  188.9210  172.3620  136.8170 C   0  0  0  0  0  2  0  0  0  0  0  0
  189.4100  173.6350  136.1210 C   0  0  1  0  0  3  0  0  0  0  0  0
  191.6520  172.6040  135.8060 N   0  0  0  0  0  0  0  0  0  0  0  0
  190.7810  176.3610  138.2040 C   0  0  0  0  0  2  0  0  0  0  0  0
  193.6980  176.3220  136.4090 C   0  0  0  0  0  1  0  0  0  0  0  0
  193.9450  170.5510  136.4740 C   0  0  0  0  0  1  0  0  0  0  0  0
  191.5550  174.9580  136.3150 C   0  0  0  0  0  0  0  0  0  0  0  0
  193.0030  172.6930  135.7210 C   0  0  0  0  0  0  0  0  0  0  0  0
  185.6900  179.1580  139.7530 N   0  0  0  0  0  2  0  0  0  0  0  0
  184.4470  178.9240  139.0860 C   0  0  0  0  0  0  0  0  0  0  0  0
  184.2850  177.8890  138.3300 N   0  0  0  0  0  2  0  0  0  0  0  0
  183.3380  179.9020  139.2410 C   0  0  0  0  0  1  0  0  0  0  0  0
  1 16  1  0  0  0  0
  2 24  1  1  0  0  0
  4 21  1  0  0  0  0
  4  3  1  0  0  0  0
  5 27  1  0  0  0  0
  5 25  1  0  0  0  0
  6  5  2  0  0  0  0
  7 24  1  1  0  0  0
  7 19  1  0  0  0  0
  9 15  1  0  0  0  0
  9 28  1  0  0  0  0
  9 26  1  1  0  0  0
 10 20  1  0  0  0  0
 11  3  1  0  0  0  0
 12  8  1  1  0  0  0
 12  2  1  0  0  0  0
 12 13  1  0  0  0  0
 13 11  1  6  0  0  0
 14 27  2  0  0  0  0
 15 18  1  0  0  0  0
 17  8  1  6  0  0  0
 17 10  1  0  0  0  0
 17  7  1  0  0  0  0
 18  6  1  0  0  0  0
 19 16  1  0  0  0  0
 20 29  1  1  0  0  0
 20  1  1  0  0  0  0
 22 14  1  0  0  0  0
 22 13  1  0  0  0  0
 22 21  1  1  0  0  0
 23 14  1  0  0  0  0
 27  2  1  0  0  0  0
 28 23  2  0  0  0  0
 28  6  1  0  0  0  0
 30 32  1  0  0  0  0
 30 29  1  0  0  0  0
 31 30  2  0  0  0  0
M  END
>  <MODEL>
7

>  <REMARK>
 VINA RESULT:      -5.5      5.348      7.766
  Name = 
  1 active torsions:
  status: ('A' for Active; 'I' for Inactive)
    1  A    between atoms: C_20  and  N_29
                            x       y       z     vdW  Elec       q    Type
                         _______ _______ _______ _____ _____    ______ ____

>  <TORSDO>
F 1

$$$$
=
 OpenBabel11122410403D

 32 37  0  0  1  0  0  0  0  0999 V2000
  188.1000  177.5480  142.9940 C   0  0  0  0  0  2  0  0  0  0  0  0
  190.8770  176.8940  138.0660 C   0  0  1  0  0  3  0  0  0  0  0  0
  186.4960  174.9770  137.5470 C   0  0  0  0  0  2  0  0  0  0  0  0
  186.9850  173.9170  136.5640 C   0  0  0  0  0  2  0  0  0  0  0  0
  192.9180  175.7520  137.0730 C   0  0  0  0  0  0  0  0  0  0  0  0
  193.4240  174.7280  136.2780 C   0  0  0  0  0  0  0  0  0  0  0  0
  190.3100  177.4990  140.4220 C   0  0  1  0  0  3  0  0  0  0  0  0
  188.9110  178.2120  138.4910 C   0  0  0  0  0  2  0  0  0  0  0  0
  193.3800  172.8750  134.8500 C   0  0  1  0  0  3  0  0  0  0  0  0
  188.1790  178.8080  140.8110 C   0  0  0  0  0  2  0  0  0  0  0  0
  187.3220  176.2490  137.3760 C   0  0  0  0  0  2  0  0  0  0  0  0
  189.4930  177.1720  137.6140 N   0  0  2  0  0  0  0  0  0  0  0  0
  188.7370  175.9640  137.6610 N   0  0  2  0  0  0  0  0  0  0  0  0
  190.6890  174.9120  136.5350 C   0  0  0  0  0  0  0  0  0  0  0  0
  194.8340  173.3240  135.1240 C   0  0  0  0  0  2  0  0  0  0  0  0
  189.0520  176.0770  142.4920 S   0  0  0  0  0  0  0  0  0  0  0  0
  188.8790  177.7680  139.9520 C   0  0  2  0  0  3  0  0  0  0  0  0
  194.7450  174.4490  136.0020 O   0  0  0  0  0  0  0  0  0  0  0  0
  190.4350  177.1060  141.8970 C   0  0  0  0  0  2  0  0  0  0  0  0
  187.2860  178.1130  141.8320 C   0  0  2  0  0  3  0  0  0  0  0  0
  188.4920  173.7200  136.6940 C   0  0  0  0  0  2  0  0  0  0  0  0
  189.1920  175.0760  136.5700 C   0  0  1  0  0  3  0  0  0  0  0  0
  191.2490  173.9420  135.7510 N   0  0  0  0  0  0  0  0  0  0  0  0
  190.9300  176.4360  139.5330 C   0  0  0  0  0  2  0  0  0  0  0  0
  193.8440  176.7060  137.7520 C   0  0  0  0  0  1  0  0  0  0  0  0
  193.1730  171.4740  135.3960 C   0  0  0  0  0  1  0  0  0  0  0  0
  191.5150  175.8510  137.1980 C   0  0  0  0  0  0  0  0  0  0  0  0
  192.5990  173.8510  135.6480 C   0  0  0  0  0  0  0  0  0  0  0  0
  186.3130  179.0710  142.3400 N   0  0  0  0  0  2  0  0  0  0  0  0
  185.4400  178.7890  143.4360 C   0  0  0  0  0  0  0  0  0  0  0  0
  185.4470  177.6300  144.0090 N   0  0  0  0  0  2  0  0  0  0  0  0
  184.4910  179.8330  143.9030 C   0  0  0  0  0  1  0  0  0  0  0  0
  2 24  1  1  0  0  0
  4 21  1  0  0  0  0
  4  3  1  0  0  0  0
  5 27  1  0  0  0  0
  5 25  1  0  0  0  0
  6  5  2  0  0  0  0
  7 24  1  6  0  0  0
  7 19  1  0  0  0  0
  9 15  1  0  0  0  0
  9 26  1  1  0  0  0
  9 28  1  0  0  0  0
 10 20  1  0  0  0  0
 11  3  1  0  0  0  0
 12 13  1  0  0  0  0
 12  2  1  0  0  0  0
 12  8  1  1  0  0  0
 13 11  1  6  0  0  0
 14 22  1  0  0  0  0
 14 27  2  0  0  0  0
 15 18  1  0  0  0  0
 16  1  1  0  0  0  0
 17  8  1  6  0  0  0
 17  7  1  0  0  0  0
 17 10  1  0  0  0  0
 18  6  1  0  0  0  0
 19 16  1  0  0  0  0
 20 29  1  1  0  0  0
 20  1  1  0  0  0  0
 22 21  1  1  0  0  0
 22 13  1  0  0  0  0
 23 14  1  0  0  0  0
 27  2  1  0  0  0  0
 28 23  2  0  0  0  0
 28  6  1  0  0  0  0
 29 30  1  0  0  0  0
 30 32  1  0  0  0  0
 30 31  2  0  0  0  0
M  END
>  <MODEL>
8

>  <REMARK>
 VINA RESULT:      -5.5      4.870      7.897
  Name = 
  1 active torsions:
  status: ('A' for Active; 'I' for Inactive)
    1  A    between atoms: C_20  and  N_29
                            x       y       z     vdW  Elec       q    Type
                         _______ _______ _______ _____ _____    ______ ____

>  <TORSDO>
F 1

$$$$
=
 OpenBabel11122410403D

 32 37  0  0  1  0  0  0  0  0999 V2000
  183.3460  179.0100  142.9720 C   0  0  0  0  0  2  0  0  0  0  0  0
  185.8430  178.2380  137.9130 C   0  0  1  0  0  3  0  0  0  0  0  0
  182.4330  174.8790  138.3930 C   0  0  0  0  0  2  0  0  0  0  0  0
  183.2080  173.8550  137.5700 C   0  0  0  0  0  2  0  0  0  0  0  0
  188.0890  177.6650  136.8730 C   0  0  0  0  0  0  0  0  0  0  0  0
  188.8800  176.7220  136.2220 C   0  0  0  0  0  0  0  0  0  0  0  0
  185.2490  179.1320  140.1670 C   0  0  1  0  0  3  0  0  0  0  0  0
  183.5640  178.8680  138.3560 C   0  0  0  0  0  2  0  0  0  0  0  0
  189.4180  174.6910  135.1920 C   0  0  1  0  0  3  0  0  0  0  0  0
  182.8190  179.6900  140.6010 C   0  0  0  0  0  2  0  0  0  0  0  0
  182.7270  176.2820  137.8700 C   0  0  0  0  0  2  0  0  0  0  0  0
  184.4260  177.9170  137.6180 N   0  0  2  0  0  0  0  0  0  0  0  0
  184.1650  176.5680  137.9990 N   0  0  2  0  0  0  0  0  0  0  0  0
  186.2870  176.0180  136.8260 C   0  0  0  0  0  0  0  0  0  0  0  0
  190.6240  175.6590  135.1670 C   0  0  0  0  0  2  0  0  0  0  0  0
  184.7320  177.8780  142.6270 S   0  0  0  0  0  0  0  0  0  0  0  0
  183.7910  178.7840  139.8640 C   0  0  2  0  0  3  0  0  0  0  0  0
  190.1910  176.8540  135.8190 O   0  0  0  0  0  0  0  0  0  0  0  0
  185.6040  179.1520  141.6570 C   0  0  0  0  0  2  0  0  0  0  0  0
  182.3080  178.9840  141.8510 C   0  0  2  0  0  3  0  0  0  0  0  0
  184.6890  174.2180  137.5190 C   0  0  0  0  0  2  0  0  0  0  0  0
  184.8380  175.6650  137.0420 C   0  0  1  0  0  3  0  0  0  0  0  0
  187.1090  175.1450  136.1690 N   0  0  0  0  0  0  0  0  0  0  0  0
  186.1540  178.1720  139.4160 C   0  0  0  0  0  2  0  0  0  0  0  0
  188.6480  179.0050  137.2200 C   0  0  0  0  0  1  0  0  0  0  0  0
  189.7700  173.4680  136.0170 C   0  0  0  0  0  1  0  0  0  0  0  0
  186.7570  177.3060  137.1750 C   0  0  0  0  0  0  0  0  0  0  0  0
  188.3900  175.4980  135.8940 C   0  0  0  0  0  0  0  0  0  0  0  0
  181.0890  179.6420  142.3020 N   0  0  0  0  0  2  0  0  0  0  0  0
  180.1390  179.0150  143.1670 C   0  0  0  0  0  0  0  0  0  0  0  0
  180.3030  177.7960  143.5610 N   0  0  0  0  0  2  0  0  0  0  0  0
  178.9310  179.7680  143.5950 C   0  0  0  0  0  1  0  0  0  0  0  0
  2 24  1  1  0  0  0
  4  3  1  0  0  0  0
  5 27  1  0  0  0  0
  5 25  1  0  0  0  0
  6  5  2  0  0  0  0
  7 24  1  6  0  0  0
  7 19  1  0  0  0  0
  9 28  1  0  0  0  0
  9 26  1  1  0  0  0
 10 20  1  0  0  0  0
 11  3  1  0  0  0  0
 12  2  1  0  0  0  0
 12 13  1  0  0  0  0
 12  8  1  1  0  0  0
 13 11  1  6  0  0  0
 14 22  1  0  0  0  0
 14 27  2  0  0  0  0
 15  9  1  0  0  0  0
 15 18  1  0  0  0  0
 16  1  1  0  0  0  0
 17  8  1  6  0  0  0
 17  7  1  0  0  0  0
 17 10  1  0  0  0  0
 18  6  1  0  0  0  0
 19 16  1  0  0  0  0
 20 29  1  1  0  0  0
 20  1  1  0  0  0  0
 21  4  1  0  0  0  0
 22 21  1  1  0  0  0
 22 13  1  0  0  0  0
 23 14  1  0  0  0  0
 27  2  1  0  0  0  0
 28 23  2  0  0  0  0
 28  6  1  0  0  0  0
 29 30  1  0  0  0  0
 30 31  2  0  0  0  0
 30 32  1  0  0  0  0
M  END
>  <MODEL>
9

>  <REMARK>
 VINA RESULT:      -4.9      3.594      5.928
  Name = 
  1 active torsions:
  status: ('A' for Active; 'I' for Inactive)
    1  A    between atoms: C_20  and  N_29
                            x       y       z     vdW  Elec       q    Type
                         _______ _______ _______ _____ _____    ______ ____

>  <TORSDO>
F 1

$$$$
