=
 OpenBabel11122412013D

 28 32  0  0  1  0  0  0  0  0999 V2000
  190.9110  174.4580  136.0270 C   0  0  0  0  0  0  0  0  0  0  0  0
  190.5420  175.4220  139.0510 O   0  0  0  0  0  1  0  0  0  0  0  0
  185.5150  177.4760  135.1780 C   0  0  0  0  0  2  0  0  0  0  0  0
  192.7860  175.9740  134.5940 C   0  0  0  0  0  3  0  0  0  0  0  0
  186.6450  177.6970  137.3460 C   0  0  0  0  0  0  0  0  0  0  0  0
  189.7370  173.3850  136.8450 S   0  0  0  0  0  0  0  0  0  0  0  0
  192.4530  176.7540  138.6140 C   0  0  0  0  0  1  0  0  0  0  0  0
  190.9770  176.7460  138.9630 C   0  0  1  0  0  0  0  0  0  0  0  0
  189.4010  177.4140  140.6880 N   0  0  0  0  0  0  0  0  0  0  0  0
  190.1890  177.5420  137.8800 C   0  0  2  0  0  3  0  0  0  0  0  0
  186.5890  172.3830  135.8170 O   0  0  0  0  0  0  0  0  0  0  0  0
  188.3590  176.1370  137.0780 C   0  0  1  0  0  3  0  0  0  0  0  0
  188.7710  178.4440  139.8740 C   0  0  0  0  0  2  0  0  0  0  0  0
  190.8140  177.3920  140.3320 C   0  0  0  0  0  2  0  0  0  0  0  0
  187.2890  173.4220  135.7060 C   0  0  0  0  0  0  0  0  0  0  0  0
  190.7800  175.8700  135.9740 C   0  0  0  0  0  0  0  0  0  0  0  0
  186.3760  177.0490  136.0930 C   0  0  0  0  0  0  0  0  0  0  0  0
  189.3250  177.8680  142.0640 C   0  0  0  0  0  1  0  0  0  0  0  0
  186.6980  174.6970  135.9630 N   0  0  0  0  0  2  0  0  0  0  0  0
  191.7280  176.6060  135.2480 C   0  0  0  0  0  3  0  0  0  0  0  0
  191.9810  173.8370  135.3710 C   0  0  0  0  0  3  0  0  0  0  0  0
  192.9150  174.5880  134.6590 C   0  0  0  0  0  3  0  0  0  0  0  0
  188.7250  173.2940  135.3420 C   0  0  0  0  0  2  0  0  0  0  0  0
  187.8170  177.1830  137.9450 N   0  0  0  0  0  0  0  0  0  0  0  0
  187.3900  175.9800  135.8750 C   0  0  2  0  0  3  0  0  0  0  0  0
  188.8500  178.1100  138.3800 C   0  0  2  0  0  3  0  0  0  0  0  0
  185.9860  178.6630  137.8200 O   0  0  0  0  0  0  0  0  0  0  0  0
  189.7260  176.6930  136.6850 C   0  0  2  0  0  3  0  0  0  0  0  0
  1  6  1  0  0  0  0
  3 17  2  0  0  0  0
  4 22  2  0  0  0  0
  4 20  1  0  0  0  0
  5 27  2  0  0  0  0
  5 24  1  0  0  0  0
  8  7  1  6  0  0  0
  8  2  1  0  0  0  0
  8 14  1  0  0  0  0
  9 18  1  0  0  0  0
 10 26  1  0  0  0  0
 10  8  1  0  0  0  0
 12 24  1  0  0  0  0
 13  9  1  0  0  0  0
 14  9  1  0  0  0  0
 15 11  2  0  0  0  0
 15 19  1  0  0  0  0
 16  1  1  0  0  0  0
 16 28  1  0  0  0  0
 17  5  1  0  0  0  0
 20 16  2  0  0  0  0
 21  1  2  0  0  0  0
 22 21  1  0  0  0  0
 23 15  1  0  0  0  0
 23  6  1  0  0  0  0
 24 26  1  0  0  0  0
 25 19  1  0  0  0  0
 25 17  1  0  0  0  0
 25 12  1  0  0  0  0
 26 13  1  0  0  0  0
 28 12  1  0  0  0  0
 28 10  1  0  0  0  0
M  END
>  <MODEL>
1

>  <REMARK>
 VINA RESULT:      -6.1      0.000      0.000
  Name = 
  0 active torsions:
  status: ('A' for Active; 'I' for Inactive)
                            x       y       z     vdW  Elec       q    Type
                         _______ _______ _______ _____ _____    ______ ____

>  <TORSDO>
F 0

$$$$
=
 OpenBabel11122412013D

 28 32  0  0  1  0  0  0  0  0999 V2000
  181.9310  178.4650  138.8030 C   0  0  0  0  0  0  0  0  0  0  0  0
  182.3730  175.3110  138.5390 O   0  0  0  0  0  1  0  0  0  0  0  0
  187.8200  178.7210  136.7530 C   0  0  0  0  0  2  0  0  0  0  0  0
  180.4200  179.5600  136.7080 C   0  0  0  0  0  3  0  0  0  0  0  0
  186.6800  176.5470  136.7520 C   0  0  0  0  0  0  0  0  0  0  0  0
  182.8570  177.8830  140.2180 S   0  0  0  0  0  0  0  0  0  0  0  0
  180.7590  175.4660  136.8100 C   0  0  0  0  0  1  0  0  0  0  0  0
  182.1950  175.1320  137.1650 C   0  0  1  0  0  0  0  0  0  0  0  0
  183.8090  173.3160  137.1590 N   0  0  0  0  0  0  0  0  0  0  0  0
  183.1530  176.0390  136.3360 C   0  0  2  0  0  3  0  0  0  0  0  0
  185.7960  179.1030  141.5760 O   0  0  0  0  0  0  0  0  0  0  0  0
  184.7150  177.1120  137.8760 C   0  0  1  0  0  3  0  0  0  0  0  0
  184.6470  173.9120  136.1280 C   0  0  0  0  0  2  0  0  0  0  0  0
  182.4300  173.6630  136.8440 C   0  0  0  0  0  2  0  0  0  0  0  0
  185.3060  179.0030  140.4210 C   0  0  0  0  0  0  0  0  0  0  0  0
  182.3250  178.2370  137.4580 C   0  0  0  0  0  0  0  0  0  0  0  0
  186.8640  177.9050  137.1810 C   0  0  0  0  0  0  0  0  0  0  0  0
  183.9230  171.8780  137.0070 C   0  0  0  0  0  1  0  0  0  0  0  0
  186.1150  178.4990  139.3570 N   0  0  0  0  0  2  0  0  0  0  0  0
  181.5550  178.7970  136.4290 C   0  0  0  0  0  3  0  0  0  0  0  0
  180.7870  179.2270  139.0700 C   0  0  0  0  0  3  0  0  0  0  0  0
  180.0340  179.7710  138.0300 C   0  0  0  0  0  3  0  0  0  0  0  0
  183.8840  179.3780  140.2020 C   0  0  0  0  0  2  0  0  0  0  0  0
  185.4130  176.0570  137.1430 N   0  0  0  0  0  0  0  0  0  0  0  0
  185.6780  178.3270  137.9750 C   0  0  2  0  0  3  0  0  0  0  0  0
  184.5560  175.4410  136.1410 C   0  0  2  0  0  3  0  0  0  0  0  0
  187.4900  175.8930  136.0410 O   0  0  0  0  0  0  0  0  0  0  0  0
  183.4890  177.3810  137.0060 C   0  0  2  0  0  3  0  0  0  0  0  0
  1 21  1  0  0  0  0
  1  6  1  0  0  0  0
  3 17  2  0  0  0  0
  4 22  1  0  0  0  0
  5 24  1  0  0  0  0
  5 17  1  0  0  0  0
  8  7  1  6  0  0  0
  8  2  1  0  0  0  0
 10 28  1  0  0  0  0
 10  8  1  0  0  0  0
 12 25  1  0  0  0  0
 13 26  1  0  0  0  0
 13  9  1  0  0  0  0
 14  9  1  0  0  0  0
 14  8  1  0  0  0  0
 15 11  2  0  0  0  0
 16  1  2  0  0  0  0
 17 25  1  0  0  0  0
 18  9  1  0  0  0  0
 19 15  1  0  0  0  0
 20  4  2  0  0  0  0
 20 16  1  0  0  0  0
 22 21  2  0  0  0  0
 23  6  1  0  0  0  0
 23 15  1  0  0  0  0
 24 12  1  0  0  0  0
 25 19  1  0  0  0  0
 26 10  1  0  0  0  0
 26 24  1  0  0  0  0
 27  5  2  0  0  0  0
 28 16  1  0  0  0  0
 28 12  1  0  0  0  0
M  END
>  <MODEL>
2

>  <REMARK>
 VINA RESULT:      -5.8      4.187      8.320
  Name = 
  0 active torsions:
  status: ('A' for Active; 'I' for Inactive)
                            x       y       z     vdW  Elec       q    Type
                         _______ _______ _______ _____ _____    ______ ____

>  <TORSDO>
F 0

$$$$
=
 OpenBabel11122412013D

 28 32  0  0  1  0  0  0  0  0999 V2000
  183.3730  177.7280  138.6120 C   0  0  0  0  0  0  0  0  0  0  0  0
  182.0580  180.5700  137.9800 O   0  0  0  0  0  1  0  0  0  0  0  0
  180.4140  178.3910  144.0660 C   0  0  0  0  0  2  0  0  0  0  0  0
  182.0570  175.5870  137.3650 C   0  0  0  0  0  3  0  0  0  0  0  0
  179.9530  180.0180  142.2850 C   0  0  0  0  0  0  0  0  0  0  0  0
  184.3300  179.0080  139.4160 S   0  0  0  0  0  0  0  0  0  0  0  0
  180.8080  179.3700  136.3630 C   0  0  0  0  0  1  0  0  0  0  0  0
  180.7580  180.1910  137.6370 C   0  0  1  0  0  0  0  0  0  0  0  0
  179.8740  182.2550  138.5660 N   0  0  0  0  0  0  0  0  0  0  0  0
  180.0850  179.3510  138.7630 C   0  0  2  0  0  3  0  0  0  0  0  0
  185.4090  179.2130  142.6970 O   0  0  0  0  0  0  0  0  0  0  0  0
  181.5530  179.3730  140.7150 C   0  0  1  0  0  3  0  0  0  0  0  0
  178.9400  181.5870  139.4610 C   0  0  0  0  0  2  0  0  0  0  0  0
  179.9550  181.4530  137.3530 C   0  0  0  0  0  2  0  0  0  0  0  0
  184.3980  178.7560  142.1030 C   0  0  0  0  0  0  0  0  0  0  0  0
  181.9760  177.5600  138.7930 C   0  0  0  0  0  0  0  0  0  0  0  0
  180.7400  179.0090  142.9370 C   0  0  0  0  0  0  0  0  0  0  0  0
  179.2620  183.5160  138.1930 C   0  0  0  0  0  1  0  0  0  0  0  0
  183.0950  179.0490  142.6110 N   0  0  0  0  0  2  0  0  0  0  0  0
  181.3410  176.4810  138.1630 C   0  0  0  0  0  3  0  0  0  0  0  0
  184.0800  176.8270  137.8050 C   0  0  0  0  0  3  0  0  0  0  0  0
  183.4270  175.7630  137.1830 C   0  0  0  0  0  3  0  0  0  0  0  0
  184.5850  177.9510  140.8680 C   0  0  0  0  0  2  0  0  0  0  0  0
  180.4070  180.2450  140.9660 N   0  0  0  0  0  0  0  0  0  0  0  0
  181.8390  178.5890  142.0250 C   0  0  2  0  0  3  0  0  0  0  0  0
  179.4470  180.2010  139.8740 C   0  0  2  0  0  3  0  0  0  0  0  0
  178.9310  180.5710  142.7750 O   0  0  0  0  0  0  0  0  0  0  0  0
  181.0630  178.4840  139.5730 C   0  0  2  0  0  3  0  0  0  0  0  0
  1 16  1  0  0  0  0
  1  6  1  0  0  0  0
  4 20  1  0  0  0  0
  5 27  2  0  0  0  0
  5 17  1  0  0  0  0
  6 23  1  0  0  0  0
  8  7  1  6  0  0  0
  8  2  1  0  0  0  0
  8 10  1  0  0  0  0
  9 13  1  0  0  0  0
 10 28  1  0  0  0  0
 10 26  1  0  0  0  0
 12 24  1  0  0  0  0
 12 25  1  0  0  0  0
 13 26  1  0  0  0  0
 14  8  1  0  0  0  0
 14  9  1  0  0  0  0
 15 19  1  0  0  0  0
 15 11  2  0  0  0  0
 16 28  1  0  0  0  0
 17  3  2  0  0  0  0
 18  9  1  0  0  0  0
 20 16  2  0  0  0  0
 21  1  2  0  0  0  0
 22  4  2  0  0  0  0
 22 21  1  0  0  0  0
 23 15  1  0  0  0  0
 24  5  1  0  0  0  0
 25 19  1  0  0  0  0
 25 17  1  0  0  0  0
 26 24  1  0  0  0  0
 28 12  1  0  0  0  0
M  END
>  <MODEL>
3

>  <REMARK>
 VINA RESULT:      -5.5      6.756      9.806
  Name = 
  0 active torsions:
  status: ('A' for Active; 'I' for Inactive)
                            x       y       z     vdW  Elec       q    Type
                         _______ _______ _______ _____ _____    ______ ____

>  <TORSDO>
F 0

$$$$
=
 OpenBabel11122412013D

 28 32  0  0  1  0  0  0  0  0999 V2000
  180.8100  180.0470  139.8450 C   0  0  0  0  0  0  0  0  0  0  0  0
  183.9620  179.9660  139.3280 O   0  0  0  0  0  1  0  0  0  0  0  0
  180.6010  176.6820  134.5940 C   0  0  0  0  0  2  0  0  0  0  0  0
  179.9600  178.2700  141.8420 C   0  0  0  0  0  3  0  0  0  0  0  0
  182.7940  177.1340  135.6010 C   0  0  0  0  0  0  0  0  0  0  0  0
  181.2300  181.2570  138.5960 S   0  0  0  0  0  0  0  0  0  0  0  0
  184.0150  178.6480  141.2970 C   0  0  0  0  0  1  0  0  0  0  0  0
  184.2760  178.6910  139.8040 C   0  0  1  0  0  0  0  0  0  0  0  0
  186.0430  178.4720  138.1500 N   0  0  0  0  0  0  0  0  0  0  0  0
  183.4290  177.5870  139.1020 C   0  0  2  0  0  3  0  0  0  0  0  0
  179.8100  181.7890  135.4860 O   0  0  0  0  0  0  0  0  0  0  0  0
  182.1740  178.6270  137.2840 C   0  0  1  0  0  3  0  0  0  0  0  0
  185.5280  177.2280  137.5970 C   0  0  0  0  0  2  0  0  0  0  0  0
  185.7630  178.4540  139.5800 C   0  0  0  0  0  2  0  0  0  0  0  0
  180.0330  180.7920  136.2210 C   0  0  0  0  0  0  0  0  0  0  0  0
  181.1560  178.6740  139.7570 C   0  0  0  0  0  0  0  0  0  0  0  0
  181.3960  177.3880  135.3880 C   0  0  0  0  0  0  0  0  0  0  0  0
  187.4860  178.4240  138.0060 C   0  0  0  0  0  1  0  0  0  0  0  0
  180.6160  179.6180  135.6510 N   0  0  0  0  0  2  0  0  0  0  0  0
  180.7170  177.8050  140.7650 C   0  0  0  0  0  3  0  0  0  0  0  0
  180.0550  180.5030  140.9330 C   0  0  0  0  0  3  0  0  0  0  0  0
  179.6330  179.6210  141.9280 C   0  0  0  0  0  3  0  0  0  0  0  0
  179.7170  180.8740  137.6700 C   0  0  0  0  0  2  0  0  0  0  0  0
  183.2760  177.8470  136.7220 N   0  0  0  0  0  0  0  0  0  0  0  0
  180.9310  178.3940  136.3820 C   0  0  2  0  0  3  0  0  0  0  0  0
  184.0060  177.1270  137.7540 C   0  0  2  0  0  3  0  0  0  0  0  0
  183.4910  176.3150  134.9440 O   0  0  0  0  0  0  0  0  0  0  0  0
  182.0210  178.0420  138.6870 C   0  0  2  0  0  3  0  0  0  0  0  0
  1 21  1  0  0  0  0
  2  8  1  0  0  0  0
  3 17  2  0  0  0  0
  4 22  1  0  0  0  0
  5 24  1  0  0  0  0
  6  1  1  0  0  0  0
  8  7  1  1  0  0  0
  9 14  1  0  0  0  0
 10  8  1  0  0  0  0
 11 15  2  0  0  0  0
 12 28  1  0  0  0  0
 13 26  1  0  0  0  0
 13  9  1  0  0  0  0
 14  8  1  0  0  0  0
 15 23  1  0  0  0  0
 16  1  2  0  0  0  0
 16 20  1  0  0  0  0
 17  5  1  0  0  0  0
 17 25  1  0  0  0  0
 18  9  1  0  0  0  0
 19 15  1  0  0  0  0
 19 25  1  0  0  0  0
 20  4  2  0  0  0  0
 21 22  2  0  0  0  0
 23  6  1  0  0  0  0
 24 12  1  0  0  0  0
 24 26  1  0  0  0  0
 25 12  1  0  0  0  0
 26 10  1  0  0  0  0
 27  5  2  0  0  0  0
 28 10  1  0  0  0  0
 28 16  1  0  0  0  0
M  END
>  <MODEL>
4

>  <REMARK>
 VINA RESULT:      -5.3      5.712      9.092
  Name = 
  0 active torsions:
  status: ('A' for Active; 'I' for Inactive)
                            x       y       z     vdW  Elec       q    Type
                         _______ _______ _______ _____ _____    ______ ____

>  <TORSDO>
F 0

$$$$
=
 OpenBabel11122412013D

 28 32  0  0  1  0  0  0  0  0999 V2000
  186.1110  175.0690  136.2510 C   0  0  0  0  0  0  0  0  0  0  0  0
  183.8060  176.7560  134.8200 O   0  0  0  0  0  1  0  0  0  0  0  0
  185.1430  179.0910  140.9230 C   0  0  0  0  0  2  0  0  0  0  0  0
  185.2270  172.6060  137.2630 C   0  0  0  0  0  3  0  0  0  0  0  0
  183.5980  179.1280  139.0150 C   0  0  0  0  0  0  0  0  0  0  0  0
  186.8090  176.5840  135.6050 S   0  0  0  0  0  0  0  0  0  0  0  0
  182.5460  174.7580  135.0130 C   0  0  0  0  0  1  0  0  0  0  0  0
  182.6670  176.2130  135.4200 C   0  0  1  0  0  0  0  0  0  0  0  0
  181.5290  178.3560  135.2780 N   0  0  0  0  0  0  0  0  0  0  0  0
  182.7330  176.3080  136.9740 C   0  0  2  0  0  3  0  0  0  0  0  0
  188.8100  178.9270  137.1780 O   0  0  0  0  0  0  0  0  0  0  0  0
  184.6850  177.6470  137.5770 C   0  0  1  0  0  3  0  0  0  0  0  0
  181.2300  178.4210  136.7010 C   0  0  0  0  0  2  0  0  0  0  0  0
  181.4500  176.9550  134.8860 C   0  0  0  0  0  2  0  0  0  0  0  0
  187.8670  178.1680  137.5190 C   0  0  0  0  0  0  0  0  0  0  0  0
  184.9950  175.0290  137.1280 C   0  0  0  0  0  0  0  0  0  0  0  0
  184.8440  178.8190  139.6590 C   0  0  0  0  0  0  0  0  0  0  0  0
  180.4500  179.0430  134.5940 C   0  0  0  0  0  1  0  0  0  0  0  0
  186.7950  178.6910  138.3070 N   0  0  0  0  0  2  0  0  0  0  0  0
  184.5750  173.7860  137.6230 C   0  0  0  0  0  3  0  0  0  0  0  0
  186.7530  173.8770  135.8930 C   0  0  0  0  0  3  0  0  0  0  0  0
  186.3140  172.6520  136.3930 C   0  0  0  0  0  3  0  0  0  0  0  0
  187.8740  176.7530  137.0640 C   0  0  0  0  0  2  0  0  0  0  0  0
  183.4740  178.4400  137.7870 N   0  0  0  0  0  0  0  0  0  0  0  0
  185.6390  177.9280  138.7690 C   0  0  2  0  0  3  0  0  0  0  0  0
  182.2710  177.6640  137.5320 C   0  0  2  0  0  3  0  0  0  0  0  0
  182.6830  179.8420  139.5090 O   0  0  0  0  0  0  0  0  0  0  0  0
  184.1550  176.2140  137.5520 C   0  0  2  0  0  3  0  0  0  0  0  0
  1 16  1  0  0  0  0
  2  8  1  0  0  0  0
  4 20  1  0  0  0  0
  5 27  2  0  0  0  0
  5 17  1  0  0  0  0
  6  1  1  0  0  0  0
  6 23  1  0  0  0  0
  8  7  1  6  0  0  0
  8 10  1  0  0  0  0
  9 13  1  0  0  0  0
 10 26  1  0  0  0  0
 10 28  1  0  0  0  0
 11 15  2  0  0  0  0
 12 24  1  0  0  0  0
 12 25  1  0  0  0  0
 13 26  1  0  0  0  0
 14  9  1  0  0  0  0
 14  8  1  0  0  0  0
 15 19  1  0  0  0  0
 16 28  1  0  0  0  0
 16 20  2  0  0  0  0
 17  3  2  0  0  0  0
 18  9  1  0  0  0  0
 19 25  1  0  0  0  0
 21  1  2  0  0  0  0
 21 22  1  0  0  0  0
 22  4  2  0  0  0  0
 23 15  1  0  0  0  0
 24  5  1  0  0  0  0
 25 17  1  0  0  0  0
 26 24  1  0  0  0  0
 28 12  1  0  0  0  0
M  END
>  <MODEL>
5

>  <REMARK>
 VINA RESULT:      -5.3      3.606      6.954
  Name = 
  0 active torsions:
  status: ('A' for Active; 'I' for Inactive)
                            x       y       z     vdW  Elec       q    Type
                         _______ _______ _______ _____ _____    ______ ____

>  <TORSDO>
F 0

$$$$
=
 OpenBabel11122412013D

 28 32  0  0  1  0  0  0  0  0999 V2000
  182.9140  177.2990  137.1660 C   0  0  0  0  0  0  0  0  0  0  0  0
  184.3210  174.4360  137.3630 O   0  0  0  0  0  1  0  0  0  0  0  0
  188.7990  179.3760  137.1830 C   0  0  0  0  0  2  0  0  0  0  0  0
  181.9730  177.9050  134.5940 C   0  0  0  0  0  3  0  0  0  0  0  0
  188.4190  176.9570  137.0070 C   0  0  0  0  0  0  0  0  0  0  0  0
  183.4200  177.0100  138.8570 S   0  0  0  0  0  0  0  0  0  0  0  0
  183.4360  174.1120  135.1890 C   0  0  0  0  0  1  0  0  0  0  0  0
  184.6900  174.2300  136.0320 C   0  0  1  0  0  0  0  0  0  0  0  0
  186.6620  172.9960  136.7360 N   0  0  0  0  0  0  0  0  0  0  0  0
  185.5670  175.3970  135.4880 C   0  0  2  0  0  3  0  0  0  0  0  0
  185.2130  179.0540  140.9960 O   0  0  0  0  0  0  0  0  0  0  0  0
  186.1130  176.8770  137.3530 C   0  0  1  0  0  3  0  0  0  0  0  0
  187.5920  173.8340  135.9920 C   0  0  0  0  0  2  0  0  0  0  0  0
  185.4400  172.9080  135.9470 C   0  0  0  0  0  2  0  0  0  0  0  0
  185.2050  178.8240  139.7590 C   0  0  0  0  0  0  0  0  0  0  0  0
  183.7970  177.2200  136.0580 C   0  0  0  0  0  0  0  0  0  0  0  0
  188.0370  178.3010  137.3420 C   0  0  0  0  0  0  0  0  0  0  0  0
  187.2360  171.6640  136.7670 C   0  0  0  0  0  1  0  0  0  0  0  0
  186.4420  178.6070  139.0780 N   0  0  0  0  0  2  0  0  0  0  0  0
  183.3040  177.5310  134.7830 C   0  0  0  0  0  3  0  0  0  0  0  0
  181.5800  177.6700  136.9630 C   0  0  0  0  0  3  0  0  0  0  0  0
  181.1090  177.9700  135.6850 C   0  0  0  0  0  3  0  0  0  0  0  0
  183.9040  178.7480  139.0440 C   0  0  0  0  0  2  0  0  0  0  0  0
  187.2970  176.0970  136.9970 N   0  0  0  0  0  0  0  0  0  0  0  0
  186.5810  178.3270  137.6520 C   0  0  2  0  0  3  0  0  0  0  0  0
  187.0600  175.2620  135.8300 C   0  0  2  0  0  3  0  0  0  0  0  0
  189.5780  176.5930  136.6710 O   0  0  0  0  0  0  0  0  0  0  0  0
  185.2420  176.7690  136.1020 C   0  0  2  0  0  3  0  0  0  0  0  0
  1  6  1  0  0  0  0
  3 17  2  0  0  0  0
  4 20  2  0  0  0  0
  4 22  1  0  0  0  0
  5 17  1  0  0  0  0
  6 23  1  0  0  0  0
  8  7  1  6  0  0  0
  8  2  1  0  0  0  0
  9 18  1  0  0  0  0
 10 26  1  0  0  0  0
 10  8  1  0  0  0  0
 10 28  1  0  0  0  0
 12 25  1  0  0  0  0
 13  9  1  0  0  0  0
 14  8  1  0  0  0  0
 14  9  1  0  0  0  0
 15 11  2  0  0  0  0
 16 28  1  0  0  0  0
 16  1  2  0  0  0  0
 17 25  1  0  0  0  0
 19 15  1  0  0  0  0
 20 16  1  0  0  0  0
 21  1  1  0  0  0  0
 22 21  2  0  0  0  0
 23 15  1  0  0  0  0
 24  5  1  0  0  0  0
 24 12  1  0  0  0  0
 25 19  1  0  0  0  0
 26 13  1  0  0  0  0
 26 24  1  0  0  0  0
 27  5  2  0  0  0  0
 28 12  1  0  0  0  0
M  END
>  <MODEL>
6

>  <REMARK>
 VINA RESULT:      -5.2      3.311      7.112
  Name = 
  0 active torsions:
  status: ('A' for Active; 'I' for Inactive)
                            x       y       z     vdW  Elec       q    Type
                         _______ _______ _______ _____ _____    ______ ____

>  <TORSDO>
F 0

$$$$
=
 OpenBabel11122412013D

 28 32  0  0  1  0  0  0  0  0999 V2000
  181.3130  179.5180  137.6990 C   0  0  0  0  0  0  0  0  0  0  0  0
  180.4050  176.5180  138.3200 O   0  0  0  0  0  1  0  0  0  0  0  0
  186.8280  176.8340  136.5490 C   0  0  0  0  0  2  0  0  0  0  0  0
  180.4590  180.4480  135.1940 C   0  0  0  0  0  3  0  0  0  0  0  0
  184.8850  175.3840  136.9360 C   0  0  0  0  0  0  0  0  0  0  0  0
  181.8690  179.0650  139.3380 S   0  0  0  0  0  0  0  0  0  0  0  0
  179.0550  176.7760  136.3890 C   0  0  0  0  0  1  0  0  0  0  0  0
  180.2090  176.0280  137.0270 C   0  0  1  0  0  0  0  0  0  0  0  0
  180.9170  173.8100  137.7250 N   0  0  0  0  0  0  0  0  0  0  0  0
  181.4820  176.1980  136.1450 C   0  0  2  0  0  3  0  0  0  0  0  0
  185.0090  179.3790  140.7580 O   0  0  0  0  0  0  0  0  0  0  0  0
  183.3040  176.9770  137.5740 C   0  0  1  0  0  3  0  0  0  0  0  0
  181.9570  173.6980  136.7120 C   0  0  0  0  0  2  0  0  0  0  0  0
  179.8180  174.5600  137.1310 C   0  0  0  0  0  2  0  0  0  0  0  0
  184.5550  179.1430  139.6080 C   0  0  0  0  0  0  0  0  0  0  0  0
  181.6140  178.7700  136.5320 C   0  0  0  0  0  0  0  0  0  0  0  0
  185.6070  176.6230  137.0250 C   0  0  0  0  0  0  0  0  0  0  0  0
  180.4240  172.4670  137.9650 C   0  0  0  0  0  1  0  0  0  0  0  0
  185.1110  178.0740  138.8400 N   0  0  0  0  0  2  0  0  0  0  0  0
  181.1790  179.2560  135.2920 C   0  0  0  0  0  3  0  0  0  0  0  0
  180.5840  180.7090  137.5900 C   0  0  0  0  0  3  0  0  0  0  0  0
  180.1570  181.1720  136.3460 C   0  0  0  0  0  3  0  0  0  0  0  0
  183.4270  179.9620  139.0920 C   0  0  0  0  0  2  0  0  0  0  0  0
  183.5180  175.5680  137.2460 N   0  0  0  0  0  0  0  0  0  0  0  0
  184.6820  177.6880  137.4990 C   0  0  2  0  0  3  0  0  0  0  0  0
  182.5130  175.0710  136.3200 C   0  0  2  0  0  3  0  0  0  0  0  0
  185.3690  174.2880  136.5430 O   0  0  0  0  0  0  0  0  0  0  0  0
  182.3270  177.4350  136.4910 C   0  0  2  0  0  3  0  0  0  0  0  0
  1  6  1  0  0  0  0
  3 17  2  0  0  0  0
  4 20  2  0  0  0  0
  4 22  1  0  0  0  0
  5 17  1  0  0  0  0
  5 24  1  0  0  0  0
  8  7  1  6  0  0  0
  8 14  1  0  0  0  0
  8  2  1  0  0  0  0
  9 18  1  0  0  0  0
 10 26  1  0  0  0  0
 10 28  1  0  0  0  0
 10  8  1  0  0  0  0
 13  9  1  0  0  0  0
 14  9  1  0  0  0  0
 15 11  2  0  0  0  0
 16  1  2  0  0  0  0
 17 25  1  0  0  0  0
 19 15  1  0  0  0  0
 20 16  1  0  0  0  0
 21  1  1  0  0  0  0
 22 21  2  0  0  0  0
 23  6  1  0  0  0  0
 23 15  1  0  0  0  0
 24 12  1  0  0  0  0
 25 12  1  0  0  0  0
 25 19  1  0  0  0  0
 26 13  1  0  0  0  0
 26 24  1  0  0  0  0
 27  5  2  0  0  0  0
 28 16  1  0  0  0  0
 28 12  1  0  0  0  0
M  END
>  <MODEL>
7

>  <REMARK>
 VINA RESULT:      -5.1      5.009      9.195
  Name = 
  0 active torsions:
  status: ('A' for Active; 'I' for Inactive)
                            x       y       z     vdW  Elec       q    Type
                         _______ _______ _______ _____ _____    ______ ____

>  <TORSDO>
F 0

$$$$
=
 OpenBabel11122412013D

 28 32  0  0  1  0  0  0  0  0999 V2000
  188.1410  176.3080  136.4800 C   0  0  0  0  0  0  0  0  0  0  0  0
  189.0050  175.8020  139.5140 O   0  0  0  0  0  1  0  0  0  0  0  0
  183.7760  179.9220  139.0940 C   0  0  0  0  0  2  0  0  0  0  0  0
  189.8140  178.1090  135.1290 C   0  0  0  0  0  3  0  0  0  0  0  0
  185.5390  179.0000  140.5330 C   0  0  0  0  0  0  0  0  0  0  0  0
  187.0350  175.1080  137.2120 S   0  0  0  0  0  0  0  0  0  0  0  0
  190.9700  176.9790  138.9050 C   0  0  0  0  0  1  0  0  0  0  0  0
  189.7320  176.9640  139.7810 C   0  0  1  0  0  0  0  0  0  0  0  0
  189.0130  176.9220  142.1020 N   0  0  0  0  0  0  0  0  0  0  0  0
  188.8930  178.2470  139.5040 C   0  0  2  0  0  3  0  0  0  0  0  0
  183.5760  175.0270  137.2240 O   0  0  0  0  0  0  0  0  0  0  0  0
  186.5960  177.5700  139.0220 C   0  0  1  0  0  3  0  0  0  0  0  0
  188.4640  178.2700  142.0750 C   0  0  0  0  0  2  0  0  0  0  0  0
  190.1840  176.9190  141.2340 C   0  0  0  0  0  2  0  0  0  0  0  0
  184.4610  175.9210  137.2550 C   0  0  0  0  0  0  0  0  0  0  0  0
  188.3870  177.5910  137.0350 C   0  0  0  0  0  0  0  0  0  0  0  0
  184.7300  179.0340  139.3460 C   0  0  0  0  0  0  0  0  0  0  0  0
  189.4940  176.6960  143.4510 C   0  0  0  0  0  1  0  0  0  0  0  0
  184.3470  176.9880  138.1990 N   0  0  0  0  0  2  0  0  0  0  0  0
  189.2240  178.4740  136.3400 C   0  0  0  0  0  3  0  0  0  0  0  0
  188.7430  175.9520  135.2670 C   0  0  0  0  0  3  0  0  0  0  0  0
  189.5770  176.8450  134.5940 C   0  0  0  0  0  3  0  0  0  0  0  0
  185.6210  175.8260  136.3310 C   0  0  0  0  0  2  0  0  0  0  0  0
  186.6550  178.1480  140.3640 N   0  0  0  0  0  0  0  0  0  0  0  0
  185.2960  178.0870  138.3470 C   0  0  2  0  0  3  0  0  0  0  0  0
  187.9820  178.6570  140.6730 C   0  0  2  0  0  3  0  0  0  0  0  0
  185.3480  179.7010  141.5630 O   0  0  0  0  0  0  0  0  0  0  0  0
  187.8700  178.0980  138.3650 C   0  0  2  0  0  3  0  0  0  0  0  0
  1 16  1  0  0  0  0
  1  6  1  0  0  0  0
  2  8  1  0  0  0  0
  3 17  2  0  0  0  0
  4 20  1  0  0  0  0
  5 27  2  0  0  0  0
  8  7  1  6  0  0  0
  8 14  1  0  0  0  0
  9 18  1  0  0  0  0
 10  8  1  0  0  0  0
 10 26  1  0  0  0  0
 11 15  2  0  0  0  0
 12 24  1  0  0  0  0
 13  9  1  0  0  0  0
 14  9  1  0  0  0  0
 15 19  1  0  0  0  0
 16 28  1  0  0  0  0
 17  5  1  0  0  0  0
 19 25  1  0  0  0  0
 20 16  2  0  0  0  0
 21  1  2  0  0  0  0
 22  4  2  0  0  0  0
 22 21  1  0  0  0  0
 23  6  1  0  0  0  0
 23 15  1  0  0  0  0
 24  5  1  0  0  0  0
 24 26  1  0  0  0  0
 25 12  1  0  0  0  0
 25 17  1  0  0  0  0
 26 13  1  0  0  0  0
 28 12  1  0  0  0  0
 28 10  1  0  0  0  0
M  END
>  <MODEL>
8

>  <REMARK>
 VINA RESULT:      -5.0      2.456      3.250
  Name = 
  0 active torsions:
  status: ('A' for Active; 'I' for Inactive)
                            x       y       z     vdW  Elec       q    Type
                         _______ _______ _______ _____ _____    ______ ____

>  <TORSDO>
F 0

$$$$
=
 OpenBabel11122412013D

 28 32  0  0  1  0  0  0  0  0999 V2000
  184.0770  175.2080  135.8700 C   0  0  0  0  0  0  0  0  0  0  0  0
  181.9120  177.2790  136.9820 O   0  0  0  0  0  1  0  0  0  0  0  0
  187.8950  178.2300  139.7730 C   0  0  0  0  0  2  0  0  0  0  0  0
  183.8410  172.6430  136.9790 C   0  0  0  0  0  3  0  0  0  0  0  0
  185.4960  178.7440  139.8600 C   0  0  0  0  0  0  0  0  0  0  0  0
  184.2980  176.7830  135.0500 S   0  0  0  0  0  0  0  0  0  0  0  0
  180.9080  175.3560  137.9360 C   0  0  0  0  0  1  0  0  0  0  0  0
  181.5830  176.6870  138.2030 C   0  0  1  0  0  0  0  0  0  0  0  0
  181.2070  178.8730  139.1980 N   0  0  0  0  0  0  0  0  0  0  0  0
  182.8420  176.4570  139.0920 C   0  0  2  0  0  3  0  0  0  0  0  0
  187.1820  178.6390  134.5940 O   0  0  0  0  0  0  0  0  0  0  0  0
  184.7490  177.5330  138.0110 C   0  0  1  0  0  3  0  0  0  0  0  0
  182.1390  178.6600  140.2960 C   0  0  0  0  0  2  0  0  0  0  0  0
  180.5810  177.5890  138.9120 C   0  0  0  0  0  2  0  0  0  0  0  0
  186.7270  177.8780  135.4870 C   0  0  0  0  0  0  0  0  0  0  0  0
  184.0740  175.0500  137.2800 C   0  0  0  0  0  0  0  0  0  0  0  0
  186.6840  178.2410  139.2290 C   0  0  0  0  0  0  0  0  0  0  0  0
  180.1630  179.7440  139.7020 C   0  0  0  0  0  1  0  0  0  0  0  0
  186.7910  178.2860  136.8550 N   0  0  0  0  0  2  0  0  0  0  0  0
  183.9580  173.7580  137.8100 C   0  0  0  0  0  3  0  0  0  0  0  0
  183.9540  174.0830  135.0460 C   0  0  0  0  0  3  0  0  0  0  0  0
  183.8340  172.8060  135.5950 C   0  0  0  0  0  3  0  0  0  0  0  0
  186.1010  176.5900  135.0930 C   0  0  0  0  0  2  0  0  0  0  0  0
  184.3370  178.3320  139.1640 N   0  0  0  0  0  0  0  0  0  0  0  0
  186.3020  177.5100  137.9900 C   0  0  2  0  0  3  0  0  0  0  0  0
  183.2610  177.6920  139.9050 C   0  0  2  0  0  3  0  0  0  0  0  0
  185.4660  179.3900  140.9420 O   0  0  0  0  0  0  0  0  0  0  0  0
  184.1270  176.1680  138.3000 C   0  0  2  0  0  3  0  0  0  0  0  0
  1 16  1  0  0  0  0
  2  8  1  0  0  0  0
  4 20  1  0  0  0  0
  5 27  2  0  0  0  0
  6 23  1  0  0  0  0
  6  1  1  0  0  0  0
  8  7  1  6  0  0  0
  8 14  1  0  0  0  0
  8 10  1  0  0  0  0
  9 18  1  0  0  0  0
  9 13  1  0  0  0  0
 10 26  1  0  0  0  0
 11 15  2  0  0  0  0
 12 28  1  0  0  0  0
 12 24  1  0  0  0  0
 14  9  1  0  0  0  0
 15 19  1  0  0  0  0
 16 20  2  0  0  0  0
 16 28  1  0  0  0  0
 17  3  2  0  0  0  0
 17  5  1  0  0  0  0
 19 25  1  0  0  0  0
 21 22  1  0  0  0  0
 21  1  2  0  0  0  0
 22  4  2  0  0  0  0
 23 15  1  0  0  0  0
 24  5  1  0  0  0  0
 24 26  1  0  0  0  0
 25 12  1  0  0  0  0
 25 17  1  0  0  0  0
 26 13  1  0  0  0  0
 28 10  1  0  0  0  0
M  END
>  <MODEL>
9

>  <REMARK>
 VINA RESULT:      -4.8      4.253      7.067
  Name = 
  0 active torsions:
  status: ('A' for Active; 'I' for Inactive)
                            x       y       z     vdW  Elec       q    Type
                         _______ _______ _______ _____ _____    ______ ____

>  <TORSDO>
F 0

$$$$
