=
 OpenBabel11122411593D

 28 33  0  0  1  0  0  0  0  0999 V2000
  191.1220  174.6930  137.4620 C   0  0  0  0  0  0  0  0  0  0  0  0
  190.8960  175.8350  141.3590 O   0  0  0  0  0  0  0  0  0  0  0  0
  185.6560  176.9650  137.6230 C   0  0  0  0  0  1  0  0  0  0  0  0
  193.6000  175.6700  138.3210 C   0  0  0  0  0  3  0  0  0  0  0  0
  187.3130  178.7940  137.3400 C   0  0  1  0  0  3  0  0  0  0  0  0
  189.7970  174.2340  136.9270 C   0  0  1  0  0  3  0  0  0  0  0  0
  191.0650  178.1740  142.0690 O   0  0  0  0  0  0  0  0  0  0  0  0
  190.2350  177.1840  141.3030 S   0  0  0  0  0  0  0  0  0  0  0  0
  187.8030  178.2810  141.6170 C   0  0  2  0  0  3  0  0  0  0  0  0
  190.0760  177.7460  139.6050 C   0  0  2  0  0  3  0  0  0  0  0  0
  190.5380  175.8180  135.1310 O   0  0  0  0  0  1  0  0  0  0  0  0
  189.1740  177.2510  137.4000 C   0  0  2  0  0  3  0  0  0  0  0  0
  187.6230  178.2590  140.1090 C   0  0  0  0  0  2  0  0  0  0  0  0
  188.6240  177.0800  142.0430 C   0  0  0  0  0  2  0  0  0  0  0  0
  189.4930  175.0550  135.6690 C   0  0  2  0  0  0  0  0  0  0  0  0
  191.1770  175.8920  138.2120 C   0  0  0  0  0  0  0  0  0  0  0  0
  186.8830  177.4200  136.8560 C   0  0  1  0  0  3  0  0  0  0  0  0
  186.4450  178.2120  142.2810 C   0  0  0  0  0  1  0  0  0  0  0  0
  188.1350  175.7430  135.7860 C   0  0  0  0  0  2  0  0  0  0  0  0
  192.4320  176.3740  138.6220 C   0  0  0  0  0  3  0  0  0  0  0  0
  192.2970  173.9860  137.1730 C   0  0  0  0  0  3  0  0  0  0  0  0
  193.5320  174.4730  137.6050 C   0  0  0  0  0  3  0  0  0  0  0  0
  189.7140  173.5670  135.5550 C   0  0  0  0  0  2  0  0  0  0  0  0
  188.7310  178.6320  137.8400 C   0  0  2  0  0  3  0  0  0  0  0  0
  187.9740  176.4690  137.0600 N   0  0  1  0  0  0  0  0  0  0  0  0
  188.9020  178.6950  139.3660 C   0  0  2  0  0  3  0  0  0  0  0  0
  187.2980  179.6860  136.2680 O   0  0  0  0  0  1  0  0  0  0  0  0
  189.8940  176.6180  138.5990 C   0  0  1  0  0  3  0  0  0  0  0  0
  1 16  1  0  0  0  0
  4 20  1  0  0  0  0
  5 27  1  6  0  0  0
  5 24  1  0  0  0  0
  6 23  1  6  0  0  0
  6  1  1  0  0  0  0
  8  2  2  0  0  0  0
  8 14  1  0  0  0  0
  8  7  2  0  0  0  0
  9 14  1  0  0  0  0
  9 18  1  1  0  0  0
 10  8  1  1  0  0  0
 11 15  1  0  0  0  0
 12 24  1  0  0  0  0
 12 28  1  0  0  0  0
 13  9  1  0  0  0  0
 15 19  1  0  0  0  0
 15  6  1  0  0  0  0
 16 28  1  0  0  0  0
 16 20  2  0  0  0  0
 17 25  1  0  0  0  0
 17  5  1  0  0  0  0
 17  3  1  0  0  0  0
 19 25  1  0  0  0  0
 21  1  2  0  0  0  0
 21 22  1  0  0  0  0
 22  4  2  0  0  0  0
 23 15  1  0  0  0  0
 24 26  1  0  0  0  0
 25 12  1  0  0  0  0
 26 10  1  0  0  0  0
 26 13  1  0  0  0  0
 28 10  1  0  0  0  0
M  END
>  <MODEL>
1

>  <REMARK>
 VINA RESULT:      -6.8      0.000      0.000
  Name = 
  0 active torsions:
  status: ('A' for Active; 'I' for Inactive)
                            x       y       z     vdW  Elec       q    Type
                         _______ _______ _______ _____ _____    ______ ____

>  <TORSDO>
F 0

$$$$
=
 OpenBabel11122411593D

 28 33  0  0  1  0  0  0  0  0999 V2000
  183.1510  177.7160  139.0980 C   0  0  0  0  0  0  0  0  0  0  0  0
  184.0350  174.4960  136.7770 O   0  0  0  0  0  0  0  0  0  0  0  0
  188.9730  177.2360  140.0610 C   0  0  0  0  0  1  0  0  0  0  0  0
  181.6220  177.7740  136.7540 C   0  0  0  0  0  3  0  0  0  0  0  0
  188.5770  178.4660  137.9400 C   0  0  1  0  0  3  0  0  0  0  0  0
  184.0010  177.7770  140.3330 C   0  0  1  0  0  3  0  0  0  0  0  0
  185.1810  174.6880  134.6190 O   0  0  0  0  0  0  0  0  0  0  0  0
  185.3230  174.8780  136.1030 S   0  0  0  0  0  0  0  0  0  0  0  0
  187.9650  174.4710  136.3690 C   0  0  2  0  0  3  0  0  0  0  0  0
  185.7310  176.5940  136.4350 C   0  0  2  0  0  3  0  0  0  0  0  0
  184.2100  180.1200  139.4690 O   0  0  0  0  0  1  0  0  0  0  0  0
  186.1770  178.2580  138.1540 C   0  0  2  0  0  3  0  0  0  0  0  0
  188.0760  175.8090  137.0810 C   0  0  0  0  0  2  0  0  0  0  0  0
  186.6300  173.8340  136.7000 C   0  0  0  0  0  2  0  0  0  0  0  0
  184.6810  179.1510  140.3640 C   0  0  2  0  0  0  0  0  0  0  0  0
  183.7720  177.4550  137.8530 C   0  0  0  0  0  0  0  0  0  0  0  0
  188.1790  178.3460  139.4010 C   0  0  1  0  0  3  0  0  0  0  0  0
  189.0780  173.5620  136.8410 C   0  0  0  0  0  1  0  0  0  0  0  0
  186.1950  179.0030  140.4780 C   0  0  0  0  0  2  0  0  0  0  0  0
  182.9900  177.5030  136.6860 C   0  0  0  0  0  3  0  0  0  0  0  0
  181.7750  177.9770  139.1590 C   0  0  0  0  0  3  0  0  0  0  0  0
  181.0140  178.0020  137.9900 C   0  0  0  0  0  3  0  0  0  0  0  0
  183.6820  178.7860  141.4340 C   0  0  0  0  0  2  0  0  0  0  0  0
  187.3090  178.2420  137.1460 C   0  0  2  0  0  3  0  0  0  0  0  0
  186.7500  178.0540  139.4940 N   0  0  1  0  0  0  0  0  0  0  0  0
  187.2280  176.9010  136.3990 C   0  0  2  0  0  3  0  0  0  0  0  0
  189.0550  179.7530  137.6970 O   0  0  0  0  0  1  0  0  0  0  0  0
  185.2500  177.0880  137.7920 C   0  0  1  0  0  3  0  0  0  0  0  0
  1 21  1  0  0  0  0
  1  6  1  0  0  0  0
  4 22  1  0  0  0  0
  5 27  1  1  0  0  0
  5 17  1  0  0  0  0
  6 15  1  0  0  0  0
  6 23  1  1  0  0  0
  7  8  2  0  0  0  0
  8 14  1  0  0  0  0
  8  2  2  0  0  0  0
  9 14  1  0  0  0  0
  9 18  1  1  0  0  0
  9 13  1  0  0  0  0
 10  8  1  1  0  0  0
 10 28  1  0  0  0  0
 11 15  1  0  0  0  0
 12 25  1  0  0  0  0
 15 19  1  0  0  0  0
 15 23  1  0  0  0  0
 16  1  2  0  0  0  0
 17 25  1  0  0  0  0
 17  3  1  0  0  0  0
 20  4  2  0  0  0  0
 20 16  1  0  0  0  0
 22 21  2  0  0  0  0
 24  5  1  0  0  0  0
 24 12  1  0  0  0  0
 25 19  1  0  0  0  0
 26 10  1  0  0  0  0
 26 13  1  0  0  0  0
 26 24  1  0  0  0  0
 28 16  1  0  0  0  0
 28 12  1  0  0  0  0
M  END
>  <MODEL>
2

>  <REMARK>
 VINA RESULT:      -6.5      3.204      7.368
  Name = 
  0 active torsions:
  status: ('A' for Active; 'I' for Inactive)
                            x       y       z     vdW  Elec       q    Type
                         _______ _______ _______ _____ _____    ______ ____

>  <TORSDO>
F 0

$$$$
=
 OpenBabel11122411593D

 28 33  0  0  1  0  0  0  0  0999 V2000
  186.6000  177.7250  143.2290 C   0  0  0  0  0  0  0  0  0  0  0  0
  183.1270  177.1810  141.1830 O   0  0  0  0  0  0  0  0  0  0  0  0
  188.6880  175.9840  137.9690 C   0  0  0  0  0  1  0  0  0  0  0  0
  184.7340  179.6760  143.9690 C   0  0  0  0  0  3  0  0  0  0  0  0
  188.1720  178.4120  137.8990 C   0  0  1  0  0  3  0  0  0  0  0  0
  187.6640  176.7530  142.8110 C   0  0  1  0  0  3  0  0  0  0  0  0
  182.3240  178.7560  139.4860 O   0  0  0  0  0  0  0  0  0  0  0  0
  183.4070  177.7740  139.8300 S   0  0  0  0  0  0  0  0  0  0  0  0
  184.1130  176.9840  137.3620 C   0  0  2  0  0  3  0  0  0  0  0  0
  184.9890  178.6220  139.8210 C   0  0  2  0  0  3  0  0  0  0  0  0
  188.9130  178.9230  142.7290 O   0  0  0  0  0  1  0  0  0  0  0  0
  187.3860  178.4100  140.1860 C   0  0  2  0  0  3  0  0  0  0  0  0
  185.5550  177.3360  137.6860 C   0  0  0  0  0  2  0  0  0  0  0  0
  183.4250  176.4790  138.6150 C   0  0  0  0  0  2  0  0  0  0  0  0
  188.9000  177.5610  142.4010 C   0  0  2  0  0  0  0  0  0  0  0  0
  185.8530  178.3920  142.2280 C   0  0  0  0  0  0  0  0  0  0  0  0
  188.8430  177.3060  138.6950 C   0  0  1  0  0  3  0  0  0  0  0  0
  184.0910  175.8940  136.3130 C   0  0  0  0  0  1  0  0  0  0  0  0
  189.3430  177.1940  140.9880 C   0  0  0  0  0  2  0  0  0  0  0  0
  184.9310  179.3780  142.6190 C   0  0  0  0  0  3  0  0  0  0  0  0
  186.3890  178.0220  144.5820 C   0  0  0  0  0  3  0  0  0  0  0  0
  185.4560  178.9930  144.9500 C   0  0  0  0  0  3  0  0  0  0  0  0
  188.9650  176.6530  143.6040 C   0  0  0  0  0  2  0  0  0  0  0  0
  187.1230  179.0030  138.8160 C   0  0  2  0  0  3  0  0  0  0  0  0
  188.2320  177.2180  140.0190 N   0  0  1  0  0  0  0  0  0  0  0  0
  185.6670  178.6690  138.4530 C   0  0  2  0  0  3  0  0  0  0  0  0
  189.1140  179.3890  137.5820 O   0  0  0  0  0  1  0  0  0  0  0  0
  186.0190  178.0110  140.7610 C   0  0  1  0  0  3  0  0  0  0  0  0
  1 21  1  0  0  0  0
  3 17  1  0  0  0  0
  4 22  1  0  0  0  0
  5 27  1  1  0  0  0
  5 17  1  0  0  0  0
  5 24  1  0  0  0  0
  6  1  1  0  0  0  0
  6 23  1  1  0  0  0
  7  8  2  0  0  0  0
  8  2  2  0  0  0  0
  9 18  1  6  0  0  0
  9 13  1  0  0  0  0
  9 14  1  0  0  0  0
 10  8  1  6  0  0  0
 10 28  1  0  0  0  0
 12 28  1  0  0  0  0
 13 26  1  0  0  0  0
 14  8  1  0  0  0  0
 15 11  1  0  0  0  0
 15  6  1  0  0  0  0
 15 23  1  0  0  0  0
 16 20  1  0  0  0  0
 16  1  2  0  0  0  0
 17 25  1  0  0  0  0
 19 15  1  0  0  0  0
 20  4  2  0  0  0  0
 21 22  2  0  0  0  0
 24 12  1  0  0  0  0
 25 12  1  0  0  0  0
 25 19  1  0  0  0  0
 26 24  1  0  0  0  0
 26 10  1  0  0  0  0
 28 16  1  0  0  0  0
M  END
>  <MODEL>
3

>  <REMARK>
 VINA RESULT:      -6.0      2.969      6.745
  Name = 
  0 active torsions:
  status: ('A' for Active; 'I' for Inactive)
                            x       y       z     vdW  Elec       q    Type
                         _______ _______ _______ _____ _____    ______ ____

>  <TORSDO>
F 0

$$$$
=
 OpenBabel11122411593D

 28 33  0  0  1  0  0  0  0  0999 V2000
  185.4130  175.0550  137.0090 C   0  0  0  0  0  0  0  0  0  0  0  0
  185.5490  178.2680  139.4990 O   0  0  0  0  0  0  0  0  0  0  0  0
  180.0740  174.7020  139.5460 C   0  0  0  0  0  1  0  0  0  0  0  0
  186.7850  177.1630  135.7820 C   0  0  0  0  0  3  0  0  0  0  0  0
  180.0050  176.3410  137.6810 C   0  0  1  0  0  3  0  0  0  0  0  0
  184.6170  173.9210  137.5870 C   0  0  1  0  0  3  0  0  0  0  0  0
  184.3500  180.3550  139.0410 O   0  0  0  0  0  0  0  0  0  0  0  0
  184.1900  178.8950  139.3560 S   0  0  0  0  0  0  0  0  0  0  0  0
  181.8250  178.9530  140.6270 C   0  0  2  0  0  3  0  0  0  0  0  0
  183.2630  178.1110  138.0340 C   0  0  2  0  0  3  0  0  0  0  0  0
  183.6490  174.0830  135.2810 O   0  0  0  0  0  1  0  0  0  0  0  0
  182.3500  176.0210  137.1840 C   0  0  2  0  0  3  0  0  0  0  0  0
  181.3090  177.8940  139.6670 C   0  0  0  0  0  2  0  0  0  0  0  0
  183.3010  178.7230  140.8830 C   0  0  0  0  0  2  0  0  0  0  0  0
  183.5350  173.5440  136.5690 C   0  0  2  0  0  0  0  0  0  0  0  0
  184.8770  176.3640  137.0670 C   0  0  0  0  0  0  0  0  0  0  0  0
  180.4560  174.9520  138.1000 C   0  0  1  0  0  3  0  0  0  0  0  0
  181.0730  178.8460  141.9350 C   0  0  0  0  0  1  0  0  0  0  0  0
  182.1510  173.5890  137.2090 C   0  0  0  0  0  2  0  0  0  0  0  0
  185.5750  177.4070  136.4330 C   0  0  0  0  0  3  0  0  0  0  0  0
  186.6340  174.8200  136.3620 C   0  0  0  0  0  3  0  0  0  0  0  0
  187.3190  175.8730  135.7530 C   0  0  0  0  0  3  0  0  0  0  0  0
  184.6240  172.5550  136.9050 C   0  0  0  0  0  2  0  0  0  0  0  0
  181.2590  177.0710  137.2510 C   0  0  2  0  0  3  0  0  0  0  0  0
  181.9050  174.8430  137.9460 N   0  0  1  0  0  0  0  0  0  0  0  0
  181.7460  178.1660  138.2140 C   0  0  2  0  0  3  0  0  0  0  0  0
  179.1350  176.2360  136.5980 O   0  0  0  0  0  1  0  0  0  0  0  0
  183.5930  176.6370  137.8420 C   0  0  1  0  0  3  0  0  0  0  0  0
  1 16  1  0  0  0  0
  1  6  1  0  0  0  0
  4 20  1  0  0  0  0
  5 27  1  6  0  0  0
  5 17  1  0  0  0  0
  6 23  1  6  0  0  0
  7  8  2  0  0  0  0
  8  2  2  0  0  0  0
  8 14  1  0  0  0  0
  9 14  1  0  0  0  0
  9 18  1  1  0  0  0
 10 26  1  0  0  0  0
 10  8  1  1  0  0  0
 11 15  1  0  0  0  0
 12 24  1  0  0  0  0
 12 28  1  0  0  0  0
 12 25  1  0  0  0  0
 13  9  1  0  0  0  0
 15 23  1  0  0  0  0
 15 19  1  0  0  0  0
 15  6  1  0  0  0  0
 16 28  1  0  0  0  0
 17  3  1  0  0  0  0
 19 25  1  0  0  0  0
 20 16  2  0  0  0  0
 21  1  2  0  0  0  0
 22  4  2  0  0  0  0
 22 21  1  0  0  0  0
 24  5  1  0  0  0  0
 24 26  1  0  0  0  0
 25 17  1  0  0  0  0
 26 13  1  0  0  0  0
 28 10  1  0  0  0  0
M  END
>  <MODEL>
4

>  <REMARK>
 VINA RESULT:      -5.9      4.694      6.662
  Name = 
  0 active torsions:
  status: ('A' for Active; 'I' for Inactive)
                            x       y       z     vdW  Elec       q    Type
                         _______ _______ _______ _____ _____    ______ ____

>  <TORSDO>
F 0

$$$$
=
 OpenBabel11122411593D

 28 33  0  0  1  0  0  0  0  0999 V2000
  184.1480  178.1140  142.2110 C   0  0  0  0  0  0  0  0  0  0  0  0
  181.9860  175.6240  139.8300 O   0  0  0  0  0  0  0  0  0  0  0  0
  188.2560  176.5510  138.2420 C   0  0  0  0  0  1  0  0  0  0  0  0
  181.5330  179.0730  141.9440 C   0  0  0  0  0  3  0  0  0  0  0  0
  186.8650  178.3920  137.3230 C   0  0  1  0  0  3  0  0  0  0  0  0
  185.5830  177.6880  142.3230 C   0  0  1  0  0  3  0  0  0  0  0  0
  181.1840  176.2770  137.6080 O   0  0  0  0  0  0  0  0  0  0  0  0
  182.4060  176.0010  138.4360 S   0  0  0  0  0  0  0  0  0  0  0  0
  184.0860  175.1630  136.5150 C   0  0  2  0  0  3  0  0  0  0  0  0
  183.4400  177.4680  138.4570 C   0  0  2  0  0  3  0  0  0  0  0  0
  185.8260  180.1270  141.8010 O   0  0  0  0  0  1  0  0  0  0  0  0
  185.4860  178.4730  139.3090 C   0  0  2  0  0  3  0  0  0  0  0  0
  185.0940  176.2030  136.9740 C   0  0  0  0  0  2  0  0  0  0  0  0
  183.3080  174.6540  137.7110 C   0  0  0  0  0  2  0  0  0  0  0  0
  186.4560  178.8810  141.9180 C   0  0  2  0  0  0  0  0  0  0  0  0
  183.5430  178.1440  140.9310 C   0  0  0  0  0  0  0  0  0  0  0  0
  187.6430  177.9070  138.5340 C   0  0  1  0  0  3  0  0  0  0  0  0
  184.8210  174.0070  135.8730 C   0  0  0  0  0  1  0  0  0  0  0  0
  187.4180  178.4930  140.7990 C   0  0  0  0  0  2  0  0  0  0  0  0
  182.2340  178.6420  140.8160 C   0  0  0  0  0  3  0  0  0  0  0  0
  183.4340  178.5380  143.3390 C   0  0  0  0  0  3  0  0  0  0  0  0
  182.1280  179.0130  143.2050 C   0  0  0  0  0  3  0  0  0  0  0  0
  186.5060  178.3640  143.3350 C   0  0  0  0  0  2  0  0  0  0  0  0
  185.4430  178.5930  137.7980 C   0  0  2  0  0  3  0  0  0  0  0  0
  186.7440  177.8060  139.6820 N   0  0  1  0  0  0  0  0  0  0  0  0
  184.4270  177.5560  137.2930 C   0  0  2  0  0  3  0  0  0  0  0  0
  187.3890  179.6120  136.8970 O   0  0  0  0  0  1  0  0  0  0  0  0
  184.2870  177.6050  139.7150 C   0  0  1  0  0  3  0  0  0  0  0  0
  1  6  1  0  0  0  0
  1 21  1  0  0  0  0
  3 17  1  0  0  0  0
  4 22  1  0  0  0  0
  5 27  1  1  0  0  0
  5 24  1  0  0  0  0
  5 17  1  0  0  0  0
  6 23  1  1  0  0  0
  7  8  2  0  0  0  0
  8  2  2  0  0  0  0
  9 18  1  1  0  0  0
  9 13  1  0  0  0  0
  9 14  1  0  0  0  0
 10  8  1  1  0  0  0
 10 28  1  0  0  0  0
 11 15  1  0  0  0  0
 12 25  1  0  0  0  0
 12 28  1  0  0  0  0
 13 26  1  0  0  0  0
 14  8  1  0  0  0  0
 15  6  1  0  0  0  0
 15 23  1  0  0  0  0
 16  1  2  0  0  0  0
 17 25  1  0  0  0  0
 19 15  1  0  0  0  0
 20 16  1  0  0  0  0
 20  4  2  0  0  0  0
 22 21  2  0  0  0  0
 24 12  1  0  0  0  0
 25 19  1  0  0  0  0
 26 24  1  0  0  0  0
 26 10  1  0  0  0  0
 28 16  1  0  0  0  0
M  END
>  <MODEL>
5

>  <REMARK>
 VINA RESULT:      -5.8      3.687      7.805
  Name = 
  0 active torsions:
  status: ('A' for Active; 'I' for Inactive)
                            x       y       z     vdW  Elec       q    Type
                         _______ _______ _______ _____ _____    ______ ____

>  <TORSDO>
F 0

$$$$
=
 OpenBabel11122411593D

 28 33  0  0  1  0  0  0  0  0999 V2000
  187.3730  176.0120  137.0580 C   0  0  0  0  0  0  0  0  0  0  0  0
  185.8150  178.6470  139.7350 O   0  0  0  0  0  0  0  0  0  0  0  0
  181.8540  173.9260  137.5640 C   0  0  0  0  0  1  0  0  0  0  0  0
  188.3870  178.5770  136.5800 C   0  0  0  0  0  3  0  0  0  0  0  0
  181.8880  175.8160  135.9520 C   0  0  1  0  0  3  0  0  0  0  0  0
  186.8010  174.6340  137.2180 C   0  0  1  0  0  3  0  0  0  0  0  0
  184.2650  180.4330  139.0930 O   0  0  0  0  0  0  0  0  0  0  0  0
  184.4440  178.9450  139.1940 S   0  0  0  0  0  0  0  0  0  0  0  0
  181.8930  178.1980  139.5760 C   0  0  2  0  0  3  0  0  0  0  0  0
  184.2300  178.2190  137.5670 C   0  0  2  0  0  3  0  0  0  0  0  0
  186.5770  174.9810  134.7460 O   0  0  0  0  0  1  0  0  0  0  0  0
  184.2610  176.1650  136.2610 C   0  0  2  0  0  3  0  0  0  0  0  0
  182.0210  177.2420  138.4020 C   0  0  0  0  0  2  0  0  0  0  0  0
  183.2210  178.2860  140.3000 C   0  0  0  0  0  2  0  0  0  0  0  0
  186.2370  174.2020  135.8600 C   0  0  2  0  0  0  0  0  0  0  0  0
  186.4930  177.1200  137.0520 C   0  0  0  0  0  0  0  0  0  0  0  0
  182.5690  174.5230  136.3670 C   0  0  1  0  0  3  0  0  0  0  0  0
  180.8420  177.6750  140.5300 C   0  0  0  0  0  1  0  0  0  0  0  0
  184.7710  173.7950  135.9870 C   0  0  0  0  0  2  0  0  0  0  0  0
  187.0190  178.3990  136.7970 C   0  0  0  0  0  3  0  0  0  0  0  0
  188.7460  176.2010  136.8500 C   0  0  0  0  0  3  0  0  0  0  0  0
  189.2510  177.4810  136.6150 C   0  0  0  0  0  3  0  0  0  0  0  0
  187.4080  173.4590  136.4540 C   0  0  0  0  0  2  0  0  0  0  0  0
  182.9470  176.8920  136.0490 C   0  0  2  0  0  3  0  0  0  0  0  0
  183.9630  174.7950  136.7090 N   0  0  1  0  0  0  0  0  0  0  0  0
  182.7820  177.8740  137.2200 C   0  0  2  0  0  3  0  0  0  0  0  0
  181.4570  175.7070  134.6310 O   0  0  0  0  0  1  0  0  0  0  0  0
  185.0120  176.9290  137.3610 C   0  0  1  0  0  3  0  0  0  0  0  0
  1  6  1  0  0  0  0
  4 22  2  0  0  0  0
  4 20  1  0  0  0  0
  5 27  1  6  0  0  0
  5 24  1  0  0  0  0
  5 17  1  0  0  0  0
  6 23  1  6  0  0  0
  7  8  2  0  0  0  0
  8  2  2  0  0  0  0
  8 14  1  0  0  0  0
  9 14  1  0  0  0  0
  9 18  1  1  0  0  0
 10  8  1  1  0  0  0
 11 15  1  0  0  0  0
 12 25  1  0  0  0  0
 12 28  1  0  0  0  0
 13  9  1  0  0  0  0
 15 19  1  0  0  0  0
 15 23  1  0  0  0  0
 15  6  1  0  0  0  0
 16  1  1  0  0  0  0
 16 28  1  0  0  0  0
 17 25  1  0  0  0  0
 17  3  1  0  0  0  0
 19 25  1  0  0  0  0
 20 16  2  0  0  0  0
 21  1  2  0  0  0  0
 22 21  1  0  0  0  0
 24 12  1  0  0  0  0
 24 26  1  0  0  0  0
 26 10  1  0  0  0  0
 26 13  1  0  0  0  0
 28 10  1  0  0  0  0
M  END
>  <MODEL>
6

>  <REMARK>
 VINA RESULT:      -5.8      3.685      5.467
  Name = 
  0 active torsions:
  status: ('A' for Active; 'I' for Inactive)
                            x       y       z     vdW  Elec       q    Type
                         _______ _______ _______ _____ _____    ______ ____

>  <TORSDO>
F 0

$$$$
=
 OpenBabel11122411593D

 28 33  0  0  1  0  0  0  0  0999 V2000
  189.1160  173.9470  136.7560 C   0  0  0  0  0  0  0  0  0  0  0  0
  189.4680  177.0840  139.3210 O   0  0  0  0  0  0  0  0  0  0  0  0
  183.4140  175.1440  137.8130 C   0  0  0  0  0  1  0  0  0  0  0  0
  191.2770  175.5600  136.0080 C   0  0  0  0  0  3  0  0  0  0  0  0
  184.2770  176.6760  136.0590 C   0  0  1  0  0  3  0  0  0  0  0  0
  187.9220  173.0930  137.0640 C   0  0  1  0  0  3  0  0  0  0  0  0
  189.0400  179.4020  138.6500 O   0  0  0  0  0  0  0  0  0  0  0  0
  188.4160  178.0520  138.8560 S   0  0  0  0  0  0  0  0  0  0  0  0
  185.9090  178.7930  139.4740 C   0  0  2  0  0  3  0  0  0  0  0  0
  187.6860  177.5050  137.3100 C   0  0  2  0  0  3  0  0  0  0  0  0
  187.6650  173.4340  134.5950 O   0  0  0  0  0  1  0  0  0  0  0  0
  186.4930  175.7150  136.1710 C   0  0  2  0  0  3  0  0  0  0  0  0
  185.3920  177.8820  138.3730 C   0  0  0  0  0  2  0  0  0  0  0  0
  187.1490  178.1800  140.0930 C   0  0  0  0  0  2  0  0  0  0  0  0
  187.0800  172.9890  135.7870 C   0  0  2  0  0  0  0  0  0  0  0  0
  188.9590  175.3540  136.7250 C   0  0  0  0  0  0  0  0  0  0  0  0
  184.2100  175.2320  136.5250 C   0  0  1  0  0  3  0  0  0  0  0  0
  184.8440  178.9390  140.5380 C   0  0  0  0  0  1  0  0  0  0  0  0
  185.6430  173.4310  136.0490 C   0  0  0  0  0  2  0  0  0  0  0  0
  190.0530  176.1460  136.3340 C   0  0  0  0  0  3  0  0  0  0  0  0
  190.3520  173.3680  136.4380 C   0  0  0  0  0  3  0  0  0  0  0  0
  191.4300  174.1740  136.0680 C   0  0  0  0  0  3  0  0  0  0  0  0
  187.7340  171.7530  136.3540 C   0  0  0  0  0  2  0  0  0  0  0  0
  185.7480  177.0230  135.9960 C   0  0  2  0  0  3  0  0  0  0  0  0
  185.5640  174.7280  136.7460 N   0  0  1  0  0  0  0  0  0  0  0  0
  186.2480  177.9760  137.0940 C   0  0  2  0  0  3  0  0  0  0  0  0
  183.7220  176.7750  134.7840 O   0  0  0  0  0  1  0  0  0  0  0  0
  187.6420  175.9910  137.1520 C   0  0  1  0  0  3  0  0  0  0  0  0
  1  6  1  0  0  0  0
  4 22  2  0  0  0  0
  4 20  1  0  0  0  0
  5 27  1  6  0  0  0
  5 17  1  0  0  0  0
  6 23  1  6  0  0  0
  7  8  2  0  0  0  0
  8  2  2  0  0  0  0
  8 14  1  0  0  0  0
  9 14  1  0  0  0  0
  9 18  1  1  0  0  0
 10  8  1  1  0  0  0
 11 15  1  0  0  0  0
 12 25  1  0  0  0  0
 12 28  1  0  0  0  0
 13  9  1  0  0  0  0
 15 19  1  0  0  0  0
 15 23  1  0  0  0  0
 15  6  1  0  0  0  0
 16  1  1  0  0  0  0
 16 28  1  0  0  0  0
 17 25  1  0  0  0  0
 17  3  1  0  0  0  0
 19 25  1  0  0  0  0
 20 16  2  0  0  0  0
 21  1  2  0  0  0  0
 22 21  1  0  0  0  0
 24  5  1  0  0  0  0
 24 12  1  0  0  0  0
 24 26  1  0  0  0  0
 26 10  1  0  0  0  0
 26 13  1  0  0  0  0
 28 10  1  0  0  0  0
M  END
>  <MODEL>
7

>  <REMARK>
 VINA RESULT:      -5.6      2.348      3.189
  Name = 
  0 active torsions:
  status: ('A' for Active; 'I' for Inactive)
                            x       y       z     vdW  Elec       q    Type
                         _______ _______ _______ _____ _____    ______ ____

>  <TORSDO>
F 0

$$$$
=
 OpenBabel11122411593D

 28 33  0  0  1  0  0  0  0  0999 V2000
  182.6490  178.2040  140.1530 C   0  0  0  0  0  0  0  0  0  0  0  0
  180.7470  174.8940  138.7500 O   0  0  0  0  0  0  0  0  0  0  0  0
  187.0130  175.6590  137.0650 C   0  0  0  0  0  1  0  0  0  0  0  0
  179.9940  178.8210  139.5150 C   0  0  0  0  0  3  0  0  0  0  0  0
  185.5560  176.9610  135.5330 C   0  0  1  0  0  3  0  0  0  0  0  0
  184.1000  177.9480  140.4360 C   0  0  1  0  0  3  0  0  0  0  0  0
  180.0050  174.6740  136.4240 O   0  0  0  0  0  0  0  0  0  0  0  0
  181.2050  174.7920  137.3210 S   0  0  0  0  0  0  0  0  0  0  0  0
  183.0150  173.4620  135.8480 C   0  0  2  0  0  3  0  0  0  0  0  0
  182.1470  176.2450  136.8490 C   0  0  2  0  0  3  0  0  0  0  0  0
  184.2190  180.0640  139.0990 O   0  0  0  0  0  1  0  0  0  0  0  0
  184.0890  177.6280  137.3360 C   0  0  2  0  0  3  0  0  0  0  0  0
  183.9370  174.6660  135.9350 C   0  0  0  0  0  2  0  0  0  0  0  0
  182.2170  173.3450  137.1310 C   0  0  0  0  0  2  0  0  0  0  0  0
  184.9170  178.9860  139.6580 C   0  0  2  0  0  0  0  0  0  0  0  0
  182.1000  177.7450  138.9320 C   0  0  0  0  0  0  0  0  0  0  0  0
  186.3080  176.9840  136.8530 C   0  0  1  0  0  3  0  0  0  0  0  0
  183.8460  172.2110  135.6660 C   0  0  0  0  0  1  0  0  0  0  0  0
  185.9490  178.3030  138.7640 C   0  0  0  0  0  2  0  0  0  0  0  0
  180.7690  178.0760  138.6240 C   0  0  0  0  0  3  0  0  0  0  0  0
  181.8610  178.9410  141.0480 C   0  0  0  0  0  3  0  0  0  0  0  0
  180.5370  179.2450  140.7300 C   0  0  0  0  0  3  0  0  0  0  0  0
  184.9350  178.9980  141.1660 C   0  0  0  0  0  2  0  0  0  0  0  0
  184.1050  177.2120  135.8780 C   0  0  2  0  0  3  0  0  0  0  0  0
  185.3670  177.2240  137.9450 N   0  0  1  0  0  0  0  0  0  0  0  0
  183.1770  175.9940  135.7480 C   0  0  2  0  0  3  0  0  0  0  0  0
  186.0240  177.9910  134.7180 O   0  0  0  0  0  1  0  0  0  0  0  0
  182.9270  176.8710  137.9960 C   0  0  1  0  0  3  0  0  0  0  0  0
  1  6  1  0  0  0  0
  1 21  1  0  0  0  0
  4 22  1  0  0  0  0
  5 27  1  6  0  0  0
  5 24  1  0  0  0  0
  5 17  1  0  0  0  0
  6 23  1  1  0  0  0
  7  8  2  0  0  0  0
  8  2  2  0  0  0  0
  9 18  1  1  0  0  0
  9 13  1  0  0  0  0
  9 14  1  0  0  0  0
 10  8  1  1  0  0  0
 10 28  1  0  0  0  0
 11 15  1  0  0  0  0
 12 25  1  0  0  0  0
 12 28  1  0  0  0  0
 14  8  1  0  0  0  0
 15  6  1  0  0  0  0
 15 23  1  0  0  0  0
 16  1  2  0  0  0  0
 17  3  1  0  0  0  0
 17 25  1  0  0  0  0
 19 15  1  0  0  0  0
 20 16  1  0  0  0  0
 20  4  2  0  0  0  0
 22 21  2  0  0  0  0
 24 12  1  0  0  0  0
 25 19  1  0  0  0  0
 26 24  1  0  0  0  0
 26 13  1  0  0  0  0
 26 10  1  0  0  0  0
 28 16  1  0  0  0  0
M  END
>  <MODEL>
8

>  <REMARK>
 VINA RESULT:      -5.4      4.647      8.615
  Name = 
  0 active torsions:
  status: ('A' for Active; 'I' for Inactive)
                            x       y       z     vdW  Elec       q    Type
                         _______ _______ _______ _____ _____    ______ ____

>  <TORSDO>
F 0

$$$$
=
 OpenBabel11122411593D

 28 33  0  0  1  0  0  0  0  0999 V2000
  182.3700  175.7530  138.5830 C   0  0  0  0  0  0  0  0  0  0  0  0
  184.3880  172.3370  137.6890 O   0  0  0  0  0  0  0  0  0  0  0  0
  187.8960  177.8310  138.1320 C   0  0  0  0  0  1  0  0  0  0  0  0
  180.8190  174.1330  136.9090 C   0  0  0  0  0  3  0  0  0  0  0  0
  186.8870  177.6470  135.8700 C   0  0  1  0  0  3  0  0  0  0  0  0
  183.1890  176.6960  139.4140 C   0  0  1  0  0  3  0  0  0  0  0  0
  185.2100  171.8310  135.4360 O   0  0  0  0  0  0  0  0  0  0  0  0
  185.3490  172.7560  136.6120 S   0  0  0  0  0  0  0  0  0  0  0  0
  187.9260  173.4630  136.3380 C   0  0  2  0  0  3  0  0  0  0  0  0
  185.0130  174.4350  136.0750 C   0  0  2  0  0  3  0  0  0  0  0  0
  182.3340  178.2270  137.6230 O   0  0  0  0  0  1  0  0  0  0  0  0
  184.8180  176.7630  136.7580 C   0  0  2  0  0  3  0  0  0  0  0  0
  187.5050  174.9230  136.3680 C   0  0  0  0  0  2  0  0  0  0  0  0
  187.0090  172.6570  137.2360 C   0  0  0  0  0  2  0  0  0  0  0  0
  183.2240  178.0470  138.6900 C   0  0  2  0  0  0  0  0  0  0  0  0
  182.9650  175.1490  137.4490 C   0  0  0  0  0  0  0  0  0  0  0  0
  186.6680  178.1280  137.2950 C   0  0  1  0  0  3  0  0  0  0  0  0
  189.3460  173.3450  136.8470 C   0  0  0  0  0  1  0  0  0  0  0  0
  184.6630  178.5020  138.4640 C   0  0  0  0  0  2  0  0  0  0  0  0
  182.1660  174.3500  136.6130 C   0  0  0  0  0  3  0  0  0  0  0  0
  181.0190  175.5220  138.8780 C   0  0  0  0  0  3  0  0  0  0  0  0
  180.2480  174.7110  138.0440 C   0  0  0  0  0  3  0  0  0  0  0  0
  182.5420  177.9350  140.0310 C   0  0  0  0  0  2  0  0  0  0  0  0
  185.7870  176.6460  135.5980 C   0  0  2  0  0  3  0  0  0  0  0  0
  185.5050  177.4500  137.8640 N   0  0  1  0  0  0  0  0  0  0  0  0
  186.2340  175.1770  135.5320 C   0  0  2  0  0  3  0  0  0  0  0  0
  186.7610  178.7250  134.9950 O   0  0  0  0  0  1  0  0  0  0  0  0
  184.4530  175.3300  137.1720 C   0  0  1  0  0  3  0  0  0  0  0  0
  1 21  1  0  0  0  0
  1  6  1  0  0  0  0
  4 22  1  0  0  0  0
  5 27  1  6  0  0  0
  5 17  1  0  0  0  0
  6 23  1  1  0  0  0
  7  8  2  0  0  0  0
  8 14  1  0  0  0  0
  8  2  2  0  0  0  0
  9 13  1  0  0  0  0
  9 18  1  1  0  0  0
  9 14  1  0  0  0  0
 10  8  1  1  0  0  0
 10 28  1  0  0  0  0
 11 15  1  0  0  0  0
 12 28  1  0  0  0  0
 12 25  1  0  0  0  0
 15  6  1  0  0  0  0
 15 23  1  0  0  0  0
 16  1  2  0  0  0  0
 17 25  1  0  0  0  0
 17  3  1  0  0  0  0
 19 15  1  0  0  0  0
 20  4  2  0  0  0  0
 20 16  1  0  0  0  0
 22 21  2  0  0  0  0
 24  5  1  0  0  0  0
 24 12  1  0  0  0  0
 25 19  1  0  0  0  0
 26 24  1  0  0  0  0
 26 10  1  0  0  0  0
 26 13  1  0  0  0  0
 28 16  1  0  0  0  0
M  END
>  <MODEL>
9

>  <REMARK>
 VINA RESULT:      -5.2      3.878      7.695
  Name = 
  0 active torsions:
  status: ('A' for Active; 'I' for Inactive)
                            x       y       z     vdW  Elec       q    Type
                         _______ _______ _______ _____ _____    ______ ____

>  <TORSDO>
F 0

$$$$
