=
 OpenBabel11122410213D

 30 35  0  0  1  0  0  0  0  0999 V2000
  186.1570  178.2170  142.7680 C   0  0  0  0  0  0  0  0  0  0  0  0
  187.0740  177.8830  145.0850 C   0  0  0  0  0  0  0  0  0  0  0  0
  182.3270  179.0430  144.2810 N   0  0  0  0  0  0  0  0  0  0  0  0
  185.0450  178.5420  141.9430 C   0  0  0  0  0  0  0  0  0  0  0  0
  187.4400  177.7900  142.1050 C   0  0  0  0  0  2  0  0  0  0  0  0
  186.7420  178.3370  138.7030 O   0  0  0  0  0  0  0  0  0  0  0  0
  183.1080  177.1170  140.2660 C   0  0  1  0  0  3  0  0  0  0  0  0
  186.5640  178.4850  139.9050 C   0  0  0  0  0  0  0  0  0  0  0  0
  182.0620  177.7580  141.1800 C   0  0  2  0  0  3  0  0  0  0  0  0
  181.6680  179.1980  143.1750 C   0  0  0  0  0  0  0  0  0  0  0  0
  187.7330  178.5960  140.8460 C   0  0  2  0  0  3  0  0  0  0  0  0
  185.1740  178.7240  140.4390 C   0  0  1  0  0  3  0  0  0  0  0  0
  186.8570  177.8680  146.4650 C   0  0  0  0  0  3  0  0  0  0  0  0
  180.9020  177.9750  140.4260 O   0  0  0  0  0  0  0  0  0  0  0  0
  182.2570  176.4030  139.2540 C   0  0  0  0  0  2  0  0  0  0  0  0
  188.3570  177.6000  144.6300 O   0  0  0  0  0  1  0  0  0  0  0  0
  183.6700  178.7800  143.9130 C   0  0  0  0  0  0  0  0  0  0  0  0
  185.6000  178.1540  146.9950 C   0  0  0  0  0  3  0  0  0  0  0  0
  186.0090  178.1890  144.1960 C   0  0  0  0  0  0  0  0  0  0  0  0
  183.8240  178.8070  142.5590 C   0  0  0  0  0  0  0  0  0  0  0  0
  180.2140  179.5150  143.1660 C   0  0  0  0  0  1  0  0  0  0  0  0
  182.4970  179.0290  141.9230 C   0  0  1  0  0  3  0  0  0  0  0  0
  180.8460  176.8860  139.5380 C   0  0  0  0  0  2  0  0  0  0  0  0
  183.3610  179.1850  138.7600 C   0  0  0  0  0  1  0  0  0  0  0  0
  184.5400  178.4600  146.1470 C   0  0  0  0  0  3  0  0  0  0  0  0
  184.7320  178.4850  144.7630 C   0  0  0  0  0  0  0  0  0  0  0  0
  184.0710  178.0970  139.5580 C   0  0  2  0  0  3  0  0  0  0  0  0
  189.0320  178.1050  140.2140 C   0  0  0  0  0  2  0  0  0  0  0  0
  190.4000  176.3150  140.3800 O   0  0  0  0  0  1  0  0  0  0  0  0
  189.7450  177.2310  141.1320 N   0  0  0  0  0  2  0  0  0  0  0  0
  1 19  1  0  0  0  0
  2 13  1  0  0  0  0
  4 20  1  0  0  0  0
  4  1  2  0  0  0  0
  5  1  1  0  0  0  0
  6  8  2  0  0  0  0
  7 15  1  6  0  0  0
  7  9  1  0  0  0  0
  8 11  1  0  0  0  0
  9 14  1  6  0  0  0
  9 22  1  0  0  0  0
 10  3  2  0  0  0  0
 11 28  1  6  0  0  0
 11  5  1  0  0  0  0
 12  8  1  6  0  0  0
 12  4  1  0  0  0  0
 13 18  2  0  0  0  0
 15 23  1  0  0  0  0
 16  2  1  0  0  0  0
 17  3  1  0  0  0  0
 17 26  1  0  0  0  0
 19 26  1  0  0  0  0
 19  2  2  0  0  0  0
 20 17  2  0  0  0  0
 21 10  1  0  0  0  0
 22 20  1  1  0  0  0
 22 10  1  0  0  0  0
 23 14  1  0  0  0  0
 25 18  1  0  0  0  0
 26 25  2  0  0  0  0
 27 24  1  1  0  0  0
 27  7  1  0  0  0  0
 27 12  1  0  0  0  0
 28 30  1  0  0  0  0
 29 30  1  0  0  0  0
M  END
>  <MODEL>
1

>  <REMARK>
 VINA RESULT:      -9.8      0.000      0.000
  Name = 
  2 active torsions:
  status: ('A' for Active; 'I' for Inactive)
    1  A    between atoms: C_11  and  C_28
    2  A    between atoms: C_28  and  N_30
                            x       y       z     vdW  Elec       q    Type
                         _______ _______ _______ _____ _____    ______ ____

>  <TORSDO>
F 2

$$$$
=
 OpenBabel11122410213D

 30 35  0  0  1  0  0  0  0  0999 V2000
  186.3440  178.2370  142.0810 C   0  0  0  0  0  0  0  0  0  0  0  0
  183.9790  179.0290  142.3900 C   0  0  0  0  0  0  0  0  0  0  0  0
  186.7440  177.4680  146.1910 N   0  0  0  0  0  0  0  0  0  0  0  0
  187.5280  177.7070  142.6640 C   0  0  0  0  0  0  0  0  0  0  0  0
  186.3720  178.6150  140.6240 C   0  0  0  0  0  2  0  0  0  0  0  0
  189.5220  177.4360  139.6040 O   0  0  0  0  0  0  0  0  0  0  0  0
  190.1600  178.6960  143.4950 C   0  0  1  0  0  3  0  0  0  0  0  0
  188.5520  177.4920  140.3470 C   0  0  0  0  0  0  0  0  0  0  0  0
  189.7640  178.1670  144.8740 C   0  0  2  0  0  3  0  0  0  0  0  0
  187.9820  177.0820  146.2360 C   0  0  0  0  0  0  0  0  0  0  0  0
  187.1610  177.6190  139.7850 C   0  0  2  0  0  3  0  0  0  0  0  0
  188.7210  177.2700  141.8300 C   0  0  1  0  0  3  0  0  0  0  0  0
  182.9040  179.2750  143.2490 C   0  0  0  0  0  3  0  0  0  0  0  0
  190.9290  177.7520  145.5300 O   0  0  0  0  0  0  0  0  0  0  0  0
  191.5670  179.1690  143.7230 C   0  0  0  0  0  2  0  0  0  0  0  0
  183.8010  179.3020  141.0390 O   0  0  0  0  0  1  0  0  0  0  0  0
  186.4600  177.7410  144.8290 C   0  0  0  0  0  0  0  0  0  0  0  0
  183.0030  179.0150  144.6140 C   0  0  0  0  0  3  0  0  0  0  0  0
  185.1980  178.5090  142.9020 C   0  0  0  0  0  0  0  0  0  0  0  0
  187.5410  177.4840  144.0390 C   0  0  0  0  0  0  0  0  0  0  0  0
  188.6320  176.6830  147.5140 C   0  0  0  0  0  1  0  0  0  0  0  0
  188.6850  177.0750  144.8990 C   0  0  1  0  0  3  0  0  0  0  0  0
  191.9160  178.6610  145.1110 C   0  0  0  0  0  2  0  0  0  0  0  0
  190.9490  176.4140  142.6160 C   0  0  0  0  0  1  0  0  0  0  0  0
  184.1850  178.5010  145.1400 C   0  0  0  0  0  3  0  0  0  0  0  0
  185.2730  178.2440  144.3030 C   0  0  0  0  0  0  0  0  0  0  0  0
  190.1220  177.6650  142.3440 C   0  0  2  0  0  3  0  0  0  0  0  0
  187.1660  178.0650  138.3270 C   0  0  0  0  0  2  0  0  0  0  0  0
  185.1100  177.6890  137.4700 O   0  0  0  0  0  1  0  0  0  0  0  0
  185.8920  178.6720  137.9770 N   0  0  0  0  0  2  0  0  0  0  0  0
  1  4  2  0  0  0  0
  1 19  1  0  0  0  0
  2 19  2  0  0  0  0
  2 13  1  0  0  0  0
  3 10  2  0  0  0  0
  4 20  1  0  0  0  0
  5  1  1  0  0  0  0
  6  8  2  0  0  0  0
  7 15  1  1  0  0  0
  7  9  1  0  0  0  0
  9 22  1  0  0  0  0
  9 14  1  6  0  0  0
 10 21  1  0  0  0  0
 11 28  1  6  0  0  0
 11  8  1  0  0  0  0
 11  5  1  0  0  0  0
 12  8  1  6  0  0  0
 12 27  1  0  0  0  0
 12  4  1  0  0  0  0
 13 18  2  0  0  0  0
 15 23  1  0  0  0  0
 16  2  1  0  0  0  0
 17  3  1  0  0  0  0
 18 25  1  0  0  0  0
 19 26  1  0  0  0  0
 20 17  2  0  0  0  0
 22 20  1  6  0  0  0
 22 10  1  0  0  0  0
 23 14  1  0  0  0  0
 26 17  1  0  0  0  0
 26 25  2  0  0  0  0
 27 24  1  1  0  0  0
 27  7  1  0  0  0  0
 29 30  1  0  0  0  0
 30 28  1  0  0  0  0
M  END
>  <MODEL>
2

>  <REMARK>
 VINA RESULT:      -9.1      2.474      6.141
  Name = 
  2 active torsions:
  status: ('A' for Active; 'I' for Inactive)
    1  A    between atoms: C_11  and  C_28
    2  A    between atoms: C_28  and  N_30
                            x       y       z     vdW  Elec       q    Type
                         _______ _______ _______ _____ _____    ______ ____

>  <TORSDO>
F 2

$$$$
=
 OpenBabel11122410213D

 30 35  0  0  1  0  0  0  0  0999 V2000
  187.8130  177.8540  141.4450 C   0  0  0  0  0  0  0  0  0  0  0  0
  189.5050  177.0470  143.1190 C   0  0  0  0  0  0  0  0  0  0  0  0
  184.9990  178.5880  144.4750 N   0  0  0  0  0  0  0  0  0  0  0  0
  186.5180  178.3850  141.1950 C   0  0  0  0  0  0  0  0  0  0  0  0
  188.6760  177.4890  140.2660 C   0  0  0  0  0  2  0  0  0  0  0  0
  186.7910  178.6960  137.5560 O   0  0  0  0  0  0  0  0  0  0  0  0
  183.9230  177.4040  140.2460 C   0  0  1  0  0  3  0  0  0  0  0  0
  187.1110  178.6270  138.7340 C   0  0  0  0  0  0  0  0  0  0  0  0
  183.3990  177.9190  141.5880 C   0  0  2  0  0  3  0  0  0  0  0  0
  183.9880  178.9820  143.7640 C   0  0  0  0  0  0  0  0  0  0  0  0
  188.5570  178.4980  139.1310 C   0  0  2  0  0  3  0  0  0  0  0  0
  186.0760  178.8360  139.8120 C   0  0  1  0  0  3  0  0  0  0  0  0
  189.8390  176.7870  144.4510 C   0  0  0  0  0  3  0  0  0  0  0  0
  182.0750  178.3340  141.4060 O   0  0  0  0  0  0  0  0  0  0  0  0
  182.6670  176.9370  139.5680 C   0  0  0  0  0  2  0  0  0  0  0  0
  190.4670  176.7840  142.1500 O   0  0  0  0  0  1  0  0  0  0  0  0
  186.0520  178.3270  143.5630 C   0  0  0  0  0  0  0  0  0  0  0  0
  188.9300  177.0360  145.4780 C   0  0  0  0  0  3  0  0  0  0  0  0
  188.2260  177.5690  142.7900 C   0  0  0  0  0  0  0  0  0  0  0  0
  185.6730  178.5970  142.2820 C   0  0  0  0  0  0  0  0  0  0  0  0
  182.6950  179.3720  144.3880 C   0  0  0  0  0  1  0  0  0  0  0  0
  184.2410  179.0040  142.2750 C   0  0  1  0  0  3  0  0  0  0  0  0
  181.5460  177.4340  140.4640 C   0  0  0  0  0  2  0  0  0  0  0  0
  183.8280  179.6990  139.0930 C   0  0  0  0  0  1  0  0  0  0  0  0
  187.6710  177.5510  145.1840 C   0  0  0  0  0  3  0  0  0  0  0  0
  187.3150  177.8220  143.8600 C   0  0  0  0  0  0  0  0  0  0  0  0
  184.6510  178.4450  139.3660 C   0  0  2  0  0  3  0  0  0  0  0  0
  189.4390  178.0640  137.9650 C   0  0  0  0  0  2  0  0  0  0  0  0
  191.1320  176.7150  137.3190 O   0  0  0  0  0  1  0  0  0  0  0  0
  190.4570  177.1290  138.4180 N   0  0  0  0  0  2  0  0  0  0  0  0
  1 19  1  0  0  0  0
  2 13  1  0  0  0  0
  4  1  2  0  0  0  0
  4 20  1  0  0  0  0
  5  1  1  0  0  0  0
  6  8  2  0  0  0  0
  7 15  1  6  0  0  0
  7  9  1  0  0  0  0
  8 11  1  0  0  0  0
  9 14  1  6  0  0  0
  9 22  1  0  0  0  0
 10 21  1  0  0  0  0
 10  3  2  0  0  0  0
 11 28  1  6  0  0  0
 11  5  1  0  0  0  0
 12  8  1  6  0  0  0
 12  4  1  0  0  0  0
 13 18  2  0  0  0  0
 15 23  1  0  0  0  0
 16  2  1  0  0  0  0
 17 26  1  0  0  0  0
 17  3  1  0  0  0  0
 19  2  2  0  0  0  0
 19 26  1  0  0  0  0
 20 17  2  0  0  0  0
 22 20  1  1  0  0  0
 22 10  1  0  0  0  0
 23 14  1  0  0  0  0
 25 18  1  0  0  0  0
 26 25  2  0  0  0  0
 27 24  1  1  0  0  0
 27 12  1  0  0  0  0
 27  7  1  0  0  0  0
 28 30  1  0  0  0  0
 29 30  1  0  0  0  0
M  END
>  <MODEL>
3

>  <REMARK>
 VINA RESULT:      -8.4      1.587      2.330
  Name = 
  2 active torsions:
  status: ('A' for Active; 'I' for Inactive)
    1  A    between atoms: C_11  and  C_28
    2  A    between atoms: C_28  and  N_30
                            x       y       z     vdW  Elec       q    Type
                         _______ _______ _______ _____ _____    ______ ____

>  <TORSDO>
F 2

$$$$
=
 OpenBabel11122410213D

 30 35  0  0  1  0  0  0  0  0999 V2000
  187.4830  177.9760  140.4410 C   0  0  0  0  0  0  0  0  0  0  0  0
  185.2880  178.8700  139.6050 C   0  0  0  0  0  0  0  0  0  0  0  0
  186.0470  177.8190  144.3850 N   0  0  0  0  0  0  0  0  0  0  0  0
  188.2590  177.5070  141.5360 C   0  0  0  0  0  0  0  0  0  0  0  0
  188.1550  178.1320  139.1020 C   0  0  0  0  0  2  0  0  0  0  0  0
  191.3240  176.7280  139.6870 O   0  0  0  0  0  0  0  0  0  0  0  0
  190.3740  178.5370  143.2870 C   0  0  1  0  0  3  0  0  0  0  0  0
  190.1400  176.9200  139.9280 C   0  0  0  0  0  0  0  0  0  0  0  0
  189.3890  178.2300  144.4170 C   0  0  2  0  0  3  0  0  0  0  0  0
  187.1110  177.4090  145.0040 C   0  0  0  0  0  0  0  0  0  0  0  0
  189.1330  177.0000  138.8140 C   0  0  2  0  0  3  0  0  0  0  0  0
  189.6490  176.9180  141.3550 C   0  0  1  0  0  3  0  0  0  0  0  0
  183.9770  179.2700  139.8810 C   0  0  0  0  0  3  0  0  0  0  0  0
  190.1280  177.8860  145.5540 O   0  0  0  0  0  0  0  0  0  0  0  0
  191.5900  179.0000  144.0370 C   0  0  0  0  0  2  0  0  0  0  0  0
  185.7200  178.9430  138.2860 O   0  0  0  0  0  1  0  0  0  0  0  0
  186.3880  177.8920  143.0110 C   0  0  0  0  0  0  0  0  0  0  0  0
  183.4700  179.2140  141.1780 C   0  0  0  0  0  3  0  0  0  0  0  0
  186.1270  178.3980  140.6500 C   0  0  0  0  0  0  0  0  0  0  0  0
  187.6730  177.4910  142.7990 C   0  0  0  0  0  0  0  0  0  0  0  0
  187.1250  177.1880  146.4760 C   0  0  0  0  0  1  0  0  0  0  0  0
  188.3080  177.1840  144.1100 C   0  0  1  0  0  3  0  0  0  0  0  0
  191.2770  178.6950  145.4910 C   0  0  0  0  0  2  0  0  0  0  0  0
  191.2540  176.1280  143.1200 C   0  0  0  0  0  1  0  0  0  0  0  0
  184.2700  178.7520  142.2190 C   0  0  0  0  0  3  0  0  0  0  0  0
  185.5820  178.3430  141.9680 C   0  0  0  0  0  0  0  0  0  0  0  0
  190.7330  177.3470  142.3680 C   0  0  2  0  0  3  0  0  0  0  0  0
  189.7900  177.2240  137.4550 C   0  0  0  0  0  2  0  0  0  0  0  0
  188.8530  177.9570  135.5360 O   0  0  0  0  0  1  0  0  0  0  0  0
  189.1900  178.3640  136.7820 N   0  0  0  0  0  2  0  0  0  0  0  0
  1 19  2  0  0  0  0
  1  4  1  0  0  0  0
  2 13  2  0  0  0  0
  2 19  1  0  0  0  0
  3 10  2  0  0  0  0
  4 20  2  0  0  0  0
  5  1  1  0  0  0  0
  6  8  2  0  0  0  0
  7 15  1  1  0  0  0
  7  9  1  0  0  0  0
  9 14  1  1  0  0  0
 10 21  1  0  0  0  0
 11 28  1  6  0  0  0
 11  5  1  0  0  0  0
 11  8  1  0  0  0  0
 12  8  1  6  0  0  0
 12  4  1  0  0  0  0
 12 27  1  0  0  0  0
 13 18  1  0  0  0  0
 15 23  1  0  0  0  0
 16  2  1  0  0  0  0
 17  3  1  0  0  0  0
 18 25  2  0  0  0  0
 19 26  1  0  0  0  0
 20 17  1  0  0  0  0
 22 20  1  6  0  0  0
 22  9  1  0  0  0  0
 22 10  1  0  0  0  0
 23 14  1  0  0  0  0
 26 25  1  0  0  0  0
 26 17  2  0  0  0  0
 27 24  1  1  0  0  0
 27  7  1  0  0  0  0
 29 30  1  0  0  0  0
 30 28  1  0  0  0  0
M  END
>  <MODEL>
4

>  <REMARK>
 VINA RESULT:      -8.4      2.390      6.332
  Name = 
  2 active torsions:
  status: ('A' for Active; 'I' for Inactive)
    1  A    between atoms: C_11  and  C_28
    2  A    between atoms: C_28  and  N_30
                            x       y       z     vdW  Elec       q    Type
                         _______ _______ _______ _____ _____    ______ ____

>  <TORSDO>
F 2

$$$$
=
 OpenBabel11122410213D

 30 35  0  0  1  0  0  0  0  0999 V2000
  187.9360  177.7900  142.4310 C   0  0  0  0  0  0  0  0  0  0  0  0
  187.0120  177.6130  144.7610 C   0  0  0  0  0  0  0  0  0  0  0  0
  184.2750  179.2370  140.9670 N   0  0  0  0  0  0  0  0  0  0  0  0
  187.7270  178.1510  141.0710 C   0  0  0  0  0  0  0  0  0  0  0  0
  189.2420  177.1400  142.8050 C   0  0  0  0  0  2  0  0  0  0  0  0
  191.0810  177.3770  139.8200 O   0  0  0  0  0  0  0  0  0  0  0  0
  187.1920  176.7890  138.5300 C   0  0  1  0  0  3  0  0  0  0  0  0
  190.1790  177.6810  140.5870 C   0  0  0  0  0  0  0  0  0  0  0  0
  185.9280  177.6510  138.4990 C   0  0  2  0  0  3  0  0  0  0  0  0
  184.5540  179.3440  139.7050 C   0  0  0  0  0  0  0  0  0  0  0  0
  190.4240  177.7560  142.0700 C   0  0  2  0  0  3  0  0  0  0  0  0
  188.8490  178.1440  140.0460 C   0  0  1  0  0  3  0  0  0  0  0  0
  185.9350  177.7800  145.6360 C   0  0  0  0  0  3  0  0  0  0  0  0
  185.6190  177.9190  137.1610 O   0  0  0  0  0  0  0  0  0  0  0  0
  187.1250  176.0730  137.2120 C   0  0  0  0  0  2  0  0  0  0  0  0
  188.2020  177.1280  145.2900 O   0  0  0  0  0  1  0  0  0  0  0  0
  185.4560  178.7740  141.6000 C   0  0  0  0  0  0  0  0  0  0  0  0
  184.7130  178.2730  145.1810 C   0  0  0  0  0  3  0  0  0  0  0  0
  186.8760  177.9420  143.3860 C   0  0  0  0  0  0  0  0  0  0  0  0
  186.4720  178.6290  140.7030 C   0  0  0  0  0  0  0  0  0  0  0  0
  183.5520  179.8310  138.7180 C   0  0  0  0  0  1  0  0  0  0  0  0
  185.9620  178.9360  139.3390 C   0  0  1  0  0  3  0  0  0  0  0  0
  185.9880  176.7510  136.4700 C   0  0  0  0  0  2  0  0  0  0  0  0
  188.7180  178.6270  137.5830 C   0  0  0  0  0  1  0  0  0  0  0  0
  184.5540  178.6070  143.8390 C   0  0  0  0  0  3  0  0  0  0  0  0
  185.6170  178.4510  142.9450 C   0  0  0  0  0  0  0  0  0  0  0  0
  188.5260  177.5590  138.6540 C   0  0  2  0  0  3  0  0  0  0  0  0
  191.7100  177.0440  142.4790 C   0  0  0  0  0  2  0  0  0  0  0  0
  192.0550  175.3810  143.9680 O   0  0  0  0  0  1  0  0  0  0  0  0
  191.6610  176.6740  143.8850 N   0  0  0  0  0  2  0  0  0  0  0  0
  1  5  1  0  0  0  0
  1 19  1  0  0  0  0
  2 16  1  0  0  0  0
  2 13  1  0  0  0  0
  3 17  1  0  0  0  0
  4  1  2  0  0  0  0
  6  8  2  0  0  0  0
  7 15  1  6  0  0  0
  7 27  1  0  0  0  0
  8 11  1  0  0  0  0
  9 14  1  6  0  0  0
  9  7  1  0  0  0  0
  9 22  1  0  0  0  0
 10  3  2  0  0  0  0
 11 28  1  6  0  0  0
 11  5  1  0  0  0  0
 12  8  1  1  0  0  0
 12  4  1  0  0  0  0
 17 26  1  0  0  0  0
 18 13  2  0  0  0  0
 19  2  2  0  0  0  0
 20  4  1  0  0  0  0
 20 17  2  0  0  0  0
 21 10  1  0  0  0  0
 22 10  1  1  0  0  0
 22 20  1  0  0  0  0
 23 14  1  0  0  0  0
 23 15  1  0  0  0  0
 25 18  1  0  0  0  0
 26 19  1  0  0  0  0
 26 25  2  0  0  0  0
 27 24  1  6  0  0  0
 27 12  1  0  0  0  0
 28 30  1  0  0  0  0
 30 29  1  0  0  0  0
M  END
>  <MODEL>
5

>  <REMARK>
 VINA RESULT:      -8.4      2.358      3.774
  Name = 
  2 active torsions:
  status: ('A' for Active; 'I' for Inactive)
    1  A    between atoms: C_11  and  C_28
    2  A    between atoms: C_28  and  N_30
                            x       y       z     vdW  Elec       q    Type
                         _______ _______ _______ _____ _____    ______ ____

>  <TORSDO>
F 2

$$$$
=
 OpenBabel11122410213D

 30 35  0  0  1  0  0  0  0  0999 V2000
  188.2940  177.6160  141.2460 C   0  0  0  0  0  0  0  0  0  0  0  0
  188.1140  177.3630  143.7400 C   0  0  0  0  0  0  0  0  0  0  0  0
  184.3780  179.1120  141.0000 N   0  0  0  0  0  0  0  0  0  0  0  0
  187.6890  178.0200  140.0240 C   0  0  0  0  0  0  0  0  0  0  0  0
  189.6450  176.9520  141.1890 C   0  0  0  0  0  2  0  0  0  0  0  0
  190.5010  177.2850  137.7960 O   0  0  0  0  0  0  0  0  0  0  0  0
  186.3980  176.7420  137.7220 C   0  0  1  0  0  3  0  0  0  0  0  0
  189.8750  177.5640  138.8090 C   0  0  0  0  0  0  0  0  0  0  0  0
  185.1930  177.6050  138.1010 C   0  0  2  0  0  3  0  0  0  0  0  0
  184.2650  179.2600  139.7160 C   0  0  0  0  0  0  0  0  0  0  0  0
  190.5580  177.5910  140.1510 C   0  0  2  0  0  3  0  0  0  0  0  0
  188.4490  178.0460  138.7080 C   0  0  1  0  0  3  0  0  0  0  0  0
  187.3520  177.5030  144.9030 C   0  0  0  0  0  3  0  0  0  0  0  0
  184.4980  177.9170  136.9270 O   0  0  0  0  0  0  0  0  0  0  0  0
  185.9290  176.0690  136.4640 C   0  0  0  0  0  2  0  0  0  0  0  0
  189.4030  176.8600  143.8700 O   0  0  0  0  0  1  0  0  0  0  0  0
  185.6900  178.6280  141.2330 C   0  0  0  0  0  0  0  0  0  0  0  0
  186.0560  178.0120  144.8530 C   0  0  0  0  0  3  0  0  0  0  0  0
  187.5730  177.7370  142.4810 C   0  0  0  0  0  0  0  0  0  0  0  0
  186.3860  178.5110  140.0670 C   0  0  0  0  0  0  0  0  0  0  0  0
  183.0170  179.7790  139.0930 C   0  0  0  0  0  1  0  0  0  0  0  0
  185.4920  178.8620  138.9300 C   0  0  1  0  0  3  0  0  0  0  0  0
  184.6290  176.7720  136.1210 C   0  0  0  0  0  2  0  0  0  0  0  0
  187.5870  178.6090  136.4160 C   0  0  0  0  0  1  0  0  0  0  0  0
  185.5030  178.3890  143.6330 C   0  0  0  0  0  3  0  0  0  0  0  0
  186.2450  178.2620  142.4560 C   0  0  0  0  0  0  0  0  0  0  0  0
  187.7160  177.5070  137.4610 C   0  0  2  0  0  3  0  0  0  0  0  0
  191.8990  176.8650  140.1300 C   0  0  0  0  0  2  0  0  0  0  0  0
  194.1410  177.1280  140.2190 O   0  0  0  0  0  1  0  0  0  0  0  0
  192.9920  177.8200  140.0320 N   0  0  0  0  0  2  0  0  0  0  0  0
  1 19  1  0  0  0  0
  2 16  1  0  0  0  0
  2 13  1  0  0  0  0
  3 17  1  0  0  0  0
  4 20  1  0  0  0  0
  4  1  2  0  0  0  0
  5  1  1  0  0  0  0
  6  8  2  0  0  0  0
  7 15  1  6  0  0  0
  7  9  1  0  0  0  0
  8 11  1  0  0  0  0
  9 14  1  6  0  0  0
  9 22  1  0  0  0  0
 10  3  2  0  0  0  0
 11 28  1  6  0  0  0
 11  5  1  0  0  0  0
 12  8  1  1  0  0  0
 12  4  1  0  0  0  0
 17 26  1  0  0  0  0
 18 13  2  0  0  0  0
 19  2  2  0  0  0  0
 20 17  2  0  0  0  0
 21 10  1  0  0  0  0
 22 10  1  1  0  0  0
 22 20  1  0  0  0  0
 23 15  1  0  0  0  0
 23 14  1  0  0  0  0
 25 18  1  0  0  0  0
 26 19  1  0  0  0  0
 26 25  2  0  0  0  0
 27 24  1  6  0  0  0
 27  7  1  0  0  0  0
 27 12  1  0  0  0  0
 30 28  1  0  0  0  0
 30 29  1  0  0  0  0
M  END
>  <MODEL>
6

>  <REMARK>
 VINA RESULT:      -7.9      2.503      3.646
  Name = 
  2 active torsions:
  status: ('A' for Active; 'I' for Inactive)
    1  A    between atoms: C_11  and  C_28
    2  A    between atoms: C_28  and  N_30
                            x       y       z     vdW  Elec       q    Type
                         _______ _______ _______ _____ _____    ______ ____

>  <TORSDO>
F 2

$$$$
=
 OpenBabel11122410213D

 30 35  0  0  1  0  0  0  0  0999 V2000
  188.3740  177.7830  142.4410 C   0  0  0  0  0  0  0  0  0  0  0  0
  186.1730  177.9940  143.6360 C   0  0  0  0  0  0  0  0  0  0  0  0
  186.5820  178.6690  138.7470 N   0  0  0  0  0  0  0  0  0  0  0  0
  189.0990  177.8600  141.2200 C   0  0  0  0  0  0  0  0  0  0  0  0
  189.0970  177.3060  143.6730 C   0  0  0  0  0  2  0  0  0  0  0  0
  192.4220  177.0910  142.5560 O   0  0  0  0  0  0  0  0  0  0  0  0
  190.2010  176.0030  139.2370 C   0  0  1  0  0  3  0  0  0  0  0  0
  191.2620  177.4740  142.5010 C   0  0  0  0  0  0  0  0  0  0  0  0
  189.3070  176.7540  138.2480 C   0  0  2  0  0  3  0  0  0  0  0  0
  187.6050  178.5500  137.9580 C   0  0  0  0  0  0  0  0  0  0  0  0
  190.5170  177.8490  143.7540 C   0  0  2  0  0  3  0  0  0  0  0  0
  190.6130  177.7330  141.1640 C   0  0  1  0  0  3  0  0  0  0  0  0
  184.8010  178.2530  143.5770 C   0  0  0  0  0  3  0  0  0  0  0  0
  189.9360  176.7390  136.9980 O   0  0  0  0  0  0  0  0  0  0  0  0
  190.9340  175.0440  138.3430 C   0  0  0  0  0  2  0  0  0  0  0  0
  186.7210  177.7010  144.8800 O   0  0  0  0  0  1  0  0  0  0  0  0
  187.0590  178.4180  140.0590 C   0  0  0  0  0  0  0  0  0  0  0  0
  184.1830  178.5650  142.3670 C   0  0  0  0  0  3  0  0  0  0  0  0
  186.9630  178.0430  142.4560 C   0  0  0  0  0  0  0  0  0  0  0  0
  188.3990  178.1720  140.0580 C   0  0  0  0  0  0  0  0  0  0  0  0
  187.4920  178.7700  136.4900 C   0  0  0  0  0  1  0  0  0  0  0  0
  188.8920  178.1760  138.6540 C   0  0  1  0  0  3  0  0  0  0  0  0
  190.5750  175.4880  136.9360 C   0  0  0  0  0  2  0  0  0  0  0  0
  192.1070  177.7240  139.1430 C   0  0  0  0  0  1  0  0  0  0  0  0
  184.9340  178.6230  141.1970 C   0  0  0  0  0  3  0  0  0  0  0  0
  186.3080  178.3710  141.2300 C   0  0  0  0  0  0  0  0  0  0  0  0
  191.2050  176.8710  140.0280 C   0  0  2  0  0  3  0  0  0  0  0  0
  191.1990  177.3180  145.0120 C   0  0  0  0  0  2  0  0  0  0  0  0
  190.9170  176.7430  147.1780 O   0  0  0  0  0  1  0  0  0  0  0  0
  190.2380  177.1940  146.0960 N   0  0  0  0  0  2  0  0  0  0  0  0
  1 19  1  0  0  0  0
  1  5  1  0  0  0  0
  2 16  1  0  0  0  0
  3 17  1  0  0  0  0
  4  1  2  0  0  0  0
  5 11  1  0  0  0  0
  7 15  1  6  0  0  0
  7 27  1  0  0  0  0
  8  6  2  0  0  0  0
  8 11  1  0  0  0  0
  9 14  1  6  0  0  0
  9 22  1  0  0  0  0
  9  7  1  0  0  0  0
 10  3  2  0  0  0  0
 11 28  1  1  0  0  0
 12  4  1  1  0  0  0
 12  8  1  0  0  0  0
 13  2  1  0  0  0  0
 17 26  1  0  0  0  0
 18 13  2  0  0  0  0
 19  2  2  0  0  0  0
 20 17  2  0  0  0  0
 20  4  1  0  0  0  0
 21 10  1  0  0  0  0
 22 10  1  6  0  0  0
 22 20  1  0  0  0  0
 23 14  1  0  0  0  0
 23 15  1  0  0  0  0
 25 26  2  0  0  0  0
 25 18  1  0  0  0  0
 26 19  1  0  0  0  0
 27 24  1  6  0  0  0
 27 12  1  0  0  0  0
 28 30  1  0  0  0  0
 30 29  1  0  0  0  0
M  END
>  <MODEL>
7

>  <REMARK>
 VINA RESULT:      -7.8      3.040      6.268
  Name = 
  2 active torsions:
  status: ('A' for Active; 'I' for Inactive)
    1  A    between atoms: C_11  and  C_28
    2  A    between atoms: C_28  and  N_30
                            x       y       z     vdW  Elec       q    Type
                         _______ _______ _______ _____ _____    ______ ____

>  <TORSDO>
F 2

$$$$
=
 OpenBabel11122410213D

 30 35  0  0  1  0  0  0  0  0999 V2000
  185.5130  178.6340  140.7100 C   0  0  0  0  0  0  0  0  0  0  0  0
  187.9920  178.6010  140.3020 C   0  0  0  0  0  0  0  0  0  0  0  0
  184.7320  177.4430  136.7590 N   0  0  0  0  0  0  0  0  0  0  0  0
  184.2010  178.4180  140.2050 C   0  0  0  0  0  0  0  0  0  0  0  0
  185.6600  179.2080  142.0950 C   0  0  0  0  0  2  0  0  0  0  0  0
  182.3430  179.2210  143.2580 O   0  0  0  0  0  0  0  0  0  0  0  0
  181.9680  180.0430  139.2190 C   0  0  1  0  0  3  0  0  0  0  0  0
  183.2540  178.8660  142.5220 C   0  0  0  0  0  0  0  0  0  0  0  0
  182.1270  179.2240  137.9360 C   0  0  2  0  0  3  0  0  0  0  0  0
  183.4340  177.4560  136.7640 C   0  0  0  0  0  0  0  0  0  0  0  0
  184.6370  178.6360  143.0680 C   0  0  2  0  0  3  0  0  0  0  0  0
  182.9660  178.4970  141.0880 C   0  0  1  0  0  3  0  0  0  0  0  0
  189.0560  178.3760  139.4240 C   0  0  0  0  0  3  0  0  0  0  0  0
  180.8660  179.1000  137.3420 O   0  0  0  0  0  0  0  0  0  0  0  0
  180.7660  180.8900  138.9130 C   0  0  0  0  0  2  0  0  0  0  0  0
  188.2990  178.9980  141.5990 O   0  0  0  0  0  1  0  0  0  0  0  0
  185.1400  177.8070  138.0670 C   0  0  0  0  0  0  0  0  0  0  0  0
  188.8270  177.9660  138.1120 C   0  0  0  0  0  3  0  0  0  0  0  0
  186.6530  178.4160  139.8660 C   0  0  0  0  0  0  0  0  0  0  0  0
  184.0650  178.0140  138.8790 C   0  0  0  0  0  0  0  0  0  0  0  0
  182.6420  177.0990  135.5560 C   0  0  0  0  0  1  0  0  0  0  0  0
  182.8180  177.8600  138.0820 C   0  0  1  0  0  3  0  0  0  0  0  0
  180.2230  180.3210  137.6150 C   0  0  0  0  0  2  0  0  0  0  0  0
  180.5530  178.2680  140.4230 C   0  0  0  0  0  1  0  0  0  0  0  0
  187.5240  177.7730  137.6610 C   0  0  0  0  0  3  0  0  0  0  0  0
  186.4440  177.9890  138.5200 C   0  0  0  0  0  0  0  0  0  0  0  0
  181.7340  179.2270  140.5110 C   0  0  2  0  0  3  0  0  0  0  0  0
  184.8280  179.2670  144.4430 C   0  0  0  0  0  2  0  0  0  0  0  0
  184.5560  178.6280  146.5930 O   0  0  0  0  0  1  0  0  0  0  0  0
  185.1390  178.2470  145.4320 N   0  0  0  0  0  2  0  0  0  0  0  0
  1  5  1  0  0  0  0
  2 16  1  0  0  0  0
  3 10  2  0  0  0  0
  3 17  1  0  0  0  0
  4  1  1  0  0  0  0
  5 11  1  0  0  0  0
  7 15  1  6  0  0  0
  7 27  1  0  0  0  0
  8 11  1  0  0  0  0
  8  6  2  0  0  0  0
  9 14  1  1  0  0  0
  9 22  1  0  0  0  0
  9  7  1  0  0  0  0
 11 28  1  1  0  0  0
 12  4  1  6  0  0  0
 12  8  1  0  0  0  0
 13  2  2  0  0  0  0
 14 23  1  0  0  0  0
 17 26  2  0  0  0  0
 17 20  1  0  0  0  0
 18 13  1  0  0  0  0
 19  2  1  0  0  0  0
 19  1  2  0  0  0  0
 20  4  2  0  0  0  0
 21 10  1  0  0  0  0
 22 10  1  6  0  0  0
 22 20  1  0  0  0  0
 23 15  1  0  0  0  0
 25 18  2  0  0  0  0
 25 26  1  0  0  0  0
 26 19  1  0  0  0  0
 27 24  1  6  0  0  0
 27 12  1  0  0  0  0
 28 30  1  0  0  0  0
 30 29  1  0  0  0  0
M  END
>  <MODEL>
8

>  <REMARK>
 VINA RESULT:      -7.3      2.493      5.513
  Name = 
  2 active torsions:
  status: ('A' for Active; 'I' for Inactive)
    1  A    between atoms: C_11  and  C_28
    2  A    between atoms: C_28  and  N_30
                            x       y       z     vdW  Elec       q    Type
                         _______ _______ _______ _____ _____    ______ ____

>  <TORSDO>
F 2

$$$$
