=
 OpenBabel11122412193D

 34 40  0  0  1  0  0  0  0  0999 V2000
  188.8880  177.3360  146.9050 C   0  0  0  0  0  0  0  0  0  0  0  0
  191.0850  176.0480  147.5790 C   0  0  0  0  0  3  0  0  0  0  0  0
  183.9260  178.0850  142.7140 C   0  0  2  0  0  3  0  0  0  0  0  0
  186.7870  178.3050  146.1150 C   0  0  0  0  0  0  0  0  0  0  0  0
  186.1420  177.9580  143.6790 C   0  0  1  0  0  3  0  0  0  0  0  0
  185.3870  177.9850  141.1720 C   0  0  0  0  0  2  0  0  0  0  0  0
  183.8840  177.7340  141.2430 C   0  0  0  0  0  2  0  0  0  0  0  0
  183.5500  179.7470  144.5750 C   0  0  0  0  0  2  0  0  0  0  0  0
  190.6200  176.5850  145.3580 C   0  0  0  0  0  0  0  0  0  0  0  0
  187.6270  177.9970  143.3530 C   0  0  0  0  0  2  0  0  0  0  0  0
  184.3860  178.7490  145.4040 C   0  0  0  0  0  2  0  0  0  0  0  0
  189.9210  177.2410  144.1930 C   0  0  1  0  0  3  0  0  0  0  0  0
  192.2200  175.4860  146.7210 C   0  0  0  0  0  2  0  0  0  0  0  0
  185.8760  178.7480  144.9870 C   0  0  1  0  0  3  0  0  0  0  0  0
  183.0330  179.2000  143.2260 C   0  0  0  0  0  2  0  0  0  0  0  0
  188.0240  177.6790  145.8430 C   0  0  0  0  0  0  0  0  0  0  0  0
  185.3340  178.5920  142.5630 C   0  0  1  0  0  3  0  0  0  0  0  0
  188.3950  177.2410  144.4340 C   0  0  1  0  0  3  0  0  0  0  0  0
  187.3320  178.2970  148.4900 C   0  0  0  0  0  3  0  0  0  0  0  0
  186.4700  178.6340  147.4440 C   0  0  0  0  0  3  0  0  0  0  0  0
  191.9190  175.8820  145.2740 C   0  0  0  0  0  3  0  0  0  0  0  0
  188.5360  177.6450  148.2230 C   0  0  0  0  0  3  0  0  0  0  0  0
  190.1730  176.6780  146.5960 C   0  0  0  0  0  0  0  0  0  0  0  0
  190.4540  178.6640  144.0030 C   0  0  0  0  0  2  0  0  0  0  0  0
  191.4520  178.7350  142.8580 C   0  0  0  0  0  2  0  0  0  0  0  0
  191.5060  177.4110  142.1200 C   0  0  0  0  0  2  0  0  0  0  0  0
  191.1510  177.6310  140.6660 C   0  0  0  0  0  2  0  0  0  0  0  0
  189.7250  177.1810  140.4190 C   0  0  0  0  0  2  0  0  0  0  0  0
  188.8750  178.3440  139.9360 C   0  0  0  0  0  2  0  0  0  0  0  0
  187.2610  176.5240  137.2570 C   0  0  0  0  0  2  0  0  0  0  0  0
  187.1690  178.6580  138.2710 O   0  0  0  0  0  0  0  0  0  0  0  0
  188.4620  178.1570  138.4840 C   0  0  2  0  0  3  0  0  0  0  0  0
  186.6590  177.9090  137.2020 C   0  0  0  0  0  2  0  0  0  0  0  0
  188.4600  176.6860  138.1420 C   0  0  0  0  0  2  0  0  0  0  0  0
  1 22  1  0  0  0  0
  3  7  1  6  0  0  0
  3 15  1  0  0  0  0
  4 20  2  0  0  0  0
  5 10  1  6  0  0  0
  5 14  1  0  0  0  0
  6  7  1  0  0  0  0
  8 11  1  0  0  0  0
  9 23  1  0  0  0  0
 12 24  1  1  0  0  0
 12 18  1  0  0  0  0
 12  9  1  0  0  0  0
 13  2  1  0  0  0  0
 14 11  1  1  0  0  0
 14  4  1  0  0  0  0
 15  8  1  0  0  0  0
 16  4  1  0  0  0  0
 16  1  2  0  0  0  0
 17  6  1  6  0  0  0
 17  3  1  0  0  0  0
 17  5  1  0  0  0  0
 18 10  1  6  0  0  0
 18 16  1  0  0  0  0
 20 19  1  0  0  0  0
 21  9  2  0  0  0  0
 21 13  1  0  0  0  0
 22 19  2  0  0  0  0
 23  1  1  0  0  0  0
 23  2  2  0  0  0  0
 25 24  1  0  0  0  0
 26 25  1  0  0  0  0
 27 26  1  0  0  0  0
 28 27  1  0  0  0  0
 29 28  1  0  0  0  0
 30 34  1  0  0  0  0
 31 32  1  0  0  0  0
 32 29  1  1  0  0  0
 33 30  1  0  0  0  0
 33 31  1  0  0  0  0
 34 32  1  0  0  0  0
M  END
>  <MODEL>
1

>  <REMARK>
 VINA RESULT:     -10.2      0.000      0.000
  Name = 
  7 active torsions:
  status: ('A' for Active; 'I' for Inactive)
    1  A    between atoms: C_10  and  C_17
    2  A    between atoms: C_10  and  C_22
    3  A    between atoms: C_13  and  C_24
    4  A    between atoms: C_17  and  C_28
    5  A    between atoms: C_22  and  C_24
    6  A    between atoms: C_28  and  C_29
    7  A    between atoms: C_29  and  C_32
                            x       y       z     vdW  Elec       q    Type
                         _______ _______ _______ _____ _____    ______ ____

>  <TORSDO>
F 7

$$$$
=
 OpenBabel11122412193D

 34 40  0  0  1  0  0  0  0  0999 V2000
  188.8100  177.3730  147.0120 C   0  0  0  0  0  0  0  0  0  0  0  0
  191.0140  176.1070  147.7020 C   0  0  0  0  0  3  0  0  0  0  0  0
  183.8980  178.1050  142.7580 C   0  0  2  0  0  3  0  0  0  0  0  0
  186.7070  178.3240  146.2030 C   0  0  0  0  0  0  0  0  0  0  0  0
  186.1020  177.9970  143.7530 C   0  0  1  0  0  3  0  0  0  0  0  0
  185.3830  178.0450  141.2360 C   0  0  0  0  0  2  0  0  0  0  0  0
  183.8830  177.7720  141.2830 C   0  0  0  0  0  2  0  0  0  0  0  0
  183.4730  179.7410  144.6330 C   0  0  0  0  0  2  0  0  0  0  0  0
  190.5730  176.6640  145.4810 C   0  0  0  0  0  0  0  0  0  0  0  0
  187.5910  178.0600  143.4500 C   0  0  0  0  0  2  0  0  0  0  0  0
  184.3100  178.7440  145.4620 C   0  0  0  0  0  2  0  0  0  0  0  0
  189.8830  177.3250  144.3140 C   0  0  1  0  0  3  0  0  0  0  0  0
  192.1680  175.5710  146.8540 C   0  0  0  0  0  2  0  0  0  0  0  0
  185.8060  178.7680  145.0670 C   0  0  1  0  0  3  0  0  0  0  0  0
  182.9830  179.2020  143.2690 C   0  0  0  0  0  2  0  0  0  0  0  0
  187.9560  177.7180  145.9410 C   0  0  0  0  0  0  0  0  0  0  0  0
  185.3010  178.6340  142.6340 C   0  0  1  0  0  3  0  0  0  0  0  0
  188.3530  177.3010  144.5330 C   0  0  1  0  0  3  0  0  0  0  0  0
  187.2180  178.2940  148.5850 C   0  0  0  0  0  3  0  0  0  0  0  0
  186.3660  178.6320  147.5300 C   0  0  0  0  0  3  0  0  0  0  0  0
  191.8830  175.9800  145.4080 C   0  0  0  0  0  3  0  0  0  0  0  0
  188.4340  177.6610  148.3270 C   0  0  0  0  0  3  0  0  0  0  0  0
  190.1070  176.7370  146.7130 C   0  0  0  0  0  0  0  0  0  0  0  0
  190.3980  178.7570  144.1480 C   0  0  0  0  0  2  0  0  0  0  0  0
  191.3020  178.8850  142.9330 C   0  0  0  0  0  2  0  0  0  0  0  0
  191.0000  177.7860  141.9310 C   0  0  0  0  0  2  0  0  0  0  0  0
  192.2630  177.4330  141.1760 C   0  0  0  0  0  2  0  0  0  0  0  0
  191.9300  177.2050  139.7140 C   0  0  0  0  0  2  0  0  0  0  0  0
  190.4340  177.0150  139.5310 C   0  0  0  0  0  2  0  0  0  0  0  0
  190.8100  175.9260  136.1020 C   0  0  0  0  0  2  0  0  0  0  0  0
  191.1090  175.0730  138.2860 O   0  0  0  0  0  0  0  0  0  0  0  0
  190.1370  176.0810  138.3680 C   0  0  2  0  0  3  0  0  0  0  0  0
  191.1440  174.7090  136.9320 C   0  0  0  0  0  2  0  0  0  0  0  0
  190.1550  176.8600  137.0740 C   0  0  0  0  0  2  0  0  0  0  0  0
  1 22  1  0  0  0  0
  3  7  1  6  0  0  0
  3 15  1  0  0  0  0
  4 20  2  0  0  0  0
  5 10  1  6  0  0  0
  5 14  1  0  0  0  0
  6  7  1  0  0  0  0
  8 11  1  0  0  0  0
  9 23  1  0  0  0  0
 12 24  1  1  0  0  0
 12 18  1  0  0  0  0
 12  9  1  0  0  0  0
 13  2  1  0  0  0  0
 14 11  1  1  0  0  0
 14  4  1  0  0  0  0
 15  8  1  0  0  0  0
 16  4  1  0  0  0  0
 16  1  2  0  0  0  0
 17  6  1  6  0  0  0
 17  3  1  0  0  0  0
 17  5  1  0  0  0  0
 18 10  1  6  0  0  0
 18 16  1  0  0  0  0
 20 19  1  0  0  0  0
 21  9  2  0  0  0  0
 21 13  1  0  0  0  0
 22 19  2  0  0  0  0
 23  1  1  0  0  0  0
 23  2  2  0  0  0  0
 25 24  1  0  0  0  0
 26 25  1  0  0  0  0
 27 26  1  0  0  0  0
 28 27  1  0  0  0  0
 29 28  1  0  0  0  0
 30 33  1  0  0  0  0
 30 34  1  0  0  0  0
 31 32  1  0  0  0  0
 32 29  1  1  0  0  0
 33 31  1  0  0  0  0
 34 32  1  0  0  0  0
M  END
>  <MODEL>
2

>  <REMARK>
 VINA RESULT:      -9.3      1.412      1.684
  Name = 
  7 active torsions:
  status: ('A' for Active; 'I' for Inactive)
    1  A    between atoms: C_10  and  C_17
    2  A    between atoms: C_10  and  C_22
    3  A    between atoms: C_13  and  C_24
    4  A    between atoms: C_17  and  C_28
    5  A    between atoms: C_22  and  C_24
    6  A    between atoms: C_28  and  C_29
    7  A    between atoms: C_29  and  C_32
                            x       y       z     vdW  Elec       q    Type
                         _______ _______ _______ _____ _____    ______ ____

>  <TORSDO>
F 7

$$$$
=
 OpenBabel11122412193D

 34 40  0  0  1  0  0  0  0  0999 V2000
  187.1790  177.9350  145.2090 C   0  0  0  0  0  0  0  0  0  0  0  0
  189.5320  176.9140  145.8100 C   0  0  0  0  0  3  0  0  0  0  0  0
  181.8050  177.7490  141.4890 C   0  0  2  0  0  3  0  0  0  0  0  0
  184.9380  178.6330  144.5240 C   0  0  0  0  0  0  0  0  0  0  0  0
  184.1040  177.9160  142.2290 C   0  0  1  0  0  3  0  0  0  0  0  0
  183.1210  177.5520  139.8300 C   0  0  0  0  0  2  0  0  0  0  0  0
  181.6580  177.2030  140.0870 C   0  0  0  0  0  2  0  0  0  0  0  0
  181.4610  179.6140  143.1550 C   0  0  0  0  0  2  0  0  0  0  0  0
  188.8190  177.1130  143.5990 C   0  0  0  0  0  0  0  0  0  0  0  0
  185.5430  178.0200  141.7510 C   0  0  0  0  0  2  0  0  0  0  0  0
  182.4520  178.8000  144.0130 C   0  0  0  0  0  2  0  0  0  0  0  0
  187.9620  177.5540  142.4390 C   0  0  1  0  0  3  0  0  0  0  0  0
  190.6270  176.3270  144.9180 C   0  0  0  0  0  2  0  0  0  0  0  0
  183.8920  178.8520  143.4480 C   0  0  1  0  0  3  0  0  0  0  0  0
  180.8710  178.8540  141.9450 C   0  0  0  0  0  2  0  0  0  0  0  0
  186.1950  178.0690  144.2070 C   0  0  0  0  0  0  0  0  0  0  0  0
  183.1440  178.3340  141.1320 C   0  0  1  0  0  3  0  0  0  0  0  0
  186.4700  177.4740  142.8340 C   0  0  1  0  0  3  0  0  0  0  0  0
  185.6990  178.9820  146.8120 C   0  0  0  0  0  3  0  0  0  0  0  0
  184.7180  179.1120  145.8250 C   0  0  0  0  0  3  0  0  0  0  0  0
  190.1610  176.5030  143.4710 C   0  0  0  0  0  3  0  0  0  0  0  0
  186.9240  178.3910  146.5060 C   0  0  0  0  0  3  0  0  0  0  0  0
  188.4810  177.3380  144.8550 C   0  0  0  0  0  0  0  0  0  0  0  0
  188.3490  178.9740  142.0170 C   0  0  0  0  0  2  0  0  0  0  0  0
  188.9630  178.9920  140.6260 C   0  0  0  0  0  2  0  0  0  0  0  0
  188.9840  177.5940  140.0390 C   0  0  0  0  0  2  0  0  0  0  0  0
  190.1230  177.4810  139.0490 C   0  0  0  0  0  2  0  0  0  0  0  0
  189.5630  177.2680  137.6570 C   0  0  0  0  0  2  0  0  0  0  0  0
  189.1180  178.5890  137.0530 C   0  0  0  0  0  2  0  0  0  0  0  0
  185.9950  176.8550  136.4820 C   0  0  0  0  0  2  0  0  0  0  0  0
  186.8130  178.6910  137.7270 O   0  0  0  0  0  0  0  0  0  0  0  0
  187.6610  178.5330  136.6200 C   0  0  2  0  0  3  0  0  0  0  0  0
  185.6350  178.0130  137.3820 C   0  0  0  0  0  2  0  0  0  0  0  0
  187.3700  177.1930  135.9890 C   0  0  0  0  0  2  0  0  0  0  0  0
  1 22  1  0  0  0  0
  3  7  1  6  0  0  0
  3 15  1  0  0  0  0
  4 20  2  0  0  0  0
  5 10  1  6  0  0  0
  5 14  1  0  0  0  0
  6  7  1  0  0  0  0
  8 11  1  0  0  0  0
  9 23  1  0  0  0  0
 12 24  1  1  0  0  0
 12 18  1  0  0  0  0
 12  9  1  0  0  0  0
 13  2  1  0  0  0  0
 14 11  1  1  0  0  0
 14  4  1  0  0  0  0
 15  8  1  0  0  0  0
 16  4  1  0  0  0  0
 16  1  2  0  0  0  0
 17  6  1  6  0  0  0
 17  3  1  0  0  0  0
 17  5  1  0  0  0  0
 18 10  1  6  0  0  0
 18 16  1  0  0  0  0
 20 19  1  0  0  0  0
 21  9  2  0  0  0  0
 21 13  1  0  0  0  0
 22 19  2  0  0  0  0
 23  1  1  0  0  0  0
 23  2  2  0  0  0  0
 25 24  1  0  0  0  0
 26 25  1  0  0  0  0
 27 26  1  0  0  0  0
 28 27  1  0  0  0  0
 29 28  1  0  0  0  0
 30 33  1  0  0  0  0
 32 29  1  1  0  0  0
 32 31  1  0  0  0  0
 33 31  1  0  0  0  0
 34 30  1  0  0  0  0
 34 32  1  0  0  0  0
M  END
>  <MODEL>
3

>  <REMARK>
 VINA RESULT:      -8.3      1.438      2.493
  Name = 
  7 active torsions:
  status: ('A' for Active; 'I' for Inactive)
    1  A    between atoms: C_10  and  C_17
    2  A    between atoms: C_10  and  C_22
    3  A    between atoms: C_13  and  C_24
    4  A    between atoms: C_17  and  C_28
    5  A    between atoms: C_22  and  C_24
    6  A    between atoms: C_28  and  C_29
    7  A    between atoms: C_29  and  C_32
                            x       y       z     vdW  Elec       q    Type
                         _______ _______ _______ _____ _____    ______ ____

>  <TORSDO>
F 7

$$$$
=
 OpenBabel11122412193D

 34 40  0  0  1  0  0  0  0  0999 V2000
  191.3160  176.4220  138.1660 C   0  0  0  0  0  0  0  0  0  0  0  0
  190.9540  175.3030  135.8100 C   0  0  0  0  0  3  0  0  0  0  0  0
  189.3270  177.1720  144.3490 C   0  0  2  0  0  3  0  0  0  0  0  0
  191.4860  177.2550  140.4590 C   0  0  0  0  0  0  0  0  0  0  0  0
  189.4130  177.1610  141.9310 C   0  0  1  0  0  3  0  0  0  0  0  0
  187.3740  177.4320  143.5500 C   0  0  0  0  0  2  0  0  0  0  0  0
  187.9310  177.0140  144.9070 C   0  0  0  0  0  2  0  0  0  0  0  0
  191.4420  178.5280  144.1060 C   0  0  0  0  0  2  0  0  0  0  0  0
  189.1570  176.0710  137.0830 C   0  0  0  0  0  0  0  0  0  0  0  0
  188.5940  177.4010  140.6720 C   0  0  0  0  0  2  0  0  0  0  0  0
  191.7510  177.5260  142.9740 C   0  0  0  0  0  2  0  0  0  0  0  0
  188.4370  176.7940  138.1930 C   0  0  1  0  0  3  0  0  0  0  0  0
  189.6720  174.9830  135.0390 C   0  0  0  0  0  3  0  0  0  0  0  0
  190.8400  177.7400  141.7420 C   0  0  1  0  0  3  0  0  0  0  0  0
  190.2930  178.1080  145.0510 C   0  0  0  0  0  2  0  0  0  0  0  0
  190.6980  176.8070  139.3750 C   0  0  0  0  0  0  0  0  0  0  0  0
  188.7720  177.8430  143.1230 C   0  0  1  0  0  3  0  0  0  0  0  0
  189.1980  176.5980  139.5230 C   0  0  1  0  0  3  0  0  0  0  0  0
  193.4810  176.9960  139.0840 C   0  0  0  0  0  3  0  0  0  0  0  0
  192.8750  177.3720  140.2850 C   0  0  0  0  0  3  0  0  0  0  0  0
  188.5080  175.5290  135.8690 C   0  0  0  0  0  3  0  0  0  0  0  0
  192.7040  176.5180  138.0280 C   0  0  0  0  0  3  0  0  0  0  0  0
  190.4710  175.9530  137.0510 C   0  0  1  0  0  3  0  0  0  0  0  0
  188.3010  178.2780  137.8430 C   0  0  0  0  0  2  0  0  0  0  0  0
  186.9620  178.5740  137.1860 C   0  0  0  0  0  2  0  0  0  0  0  0
  185.8550  177.7920  137.8650 C   0  0  0  0  0  2  0  0  0  0  0  0
  184.8700  178.7540  138.4920 C   0  0  0  0  0  2  0  0  0  0  0  0
  185.0670  178.7730  139.9950 C   0  0  0  0  0  2  0  0  0  0  0  0
  183.7710  178.4270  140.7070 C   0  0  0  0  0  2  0  0  0  0  0  0
  184.5580  179.8340  143.9460 C   0  0  0  0  0  2  0  0  0  0  0  0
  182.7980  178.6580  142.8940 O   0  0  0  0  0  0  0  0  0  0  0  0
  183.9790  178.3290  142.2110 C   0  0  2  0  0  3  0  0  0  0  0  0
  183.2200  179.1560  144.1340 C   0  0  0  0  0  2  0  0  0  0  0  0
  185.0560  179.2970  142.6390 C   0  0  0  0  0  2  0  0  0  0  0  0
  1 16  1  0  0  0  0
  3  7  1  1  0  0  0
  3 15  1  0  0  0  0
  4 14  1  0  0  0  0
  5 10  1  6  0  0  0
  5 17  1  0  0  0  0
  6  7  1  0  0  0  0
  8 15  1  0  0  0  0
  9 12  1  0  0  0  0
 11  8  1  0  0  0  0
 12 24  1  6  0  0  0
 12 18  1  0  0  0  0
 13  2  2  0  0  0  0
 13 21  1  0  0  0  0
 14  5  1  0  0  0  0
 14 11  1  1  0  0  0
 16 18  1  0  0  0  0
 16  4  2  0  0  0  0
 17  6  1  6  0  0  0
 17  3  1  0  0  0  0
 18 10  1  1  0  0  0
 19 20  2  0  0  0  0
 20  4  1  0  0  0  0
 21  9  2  0  0  0  0
 22  1  2  0  0  0  0
 22 19  1  0  0  0  0
 23  2  1  1  0  0  0
 23  9  1  0  0  0  0
 23  1  1  0  0  0  0
 25 24  1  0  0  0  0
 25 26  1  0  0  0  0
 26 27  1  0  0  0  0
 27 28  1  0  0  0  0
 28 29  1  0  0  0  0
 30 33  1  0  0  0  0
 31 33  1  0  0  0  0
 32 29  1  6  0  0  0
 32 34  1  0  0  0  0
 32 31  1  0  0  0  0
 34 30  1  0  0  0  0
M  END
>  <MODEL>
4

>  <REMARK>
 VINA RESULT:      -8.0      2.126      7.569
  Name = 
  7 active torsions:
  status: ('A' for Active; 'I' for Inactive)
    1  A    between atoms: C_10  and  C_17
    2  A    between atoms: C_10  and  C_22
    3  A    between atoms: C_13  and  C_24
    4  A    between atoms: C_17  and  C_28
    5  A    between atoms: C_22  and  C_24
    6  A    between atoms: C_28  and  C_29
    7  A    between atoms: C_29  and  C_32
                            x       y       z     vdW  Elec       q    Type
                         _______ _______ _______ _____ _____    ______ ____

>  <TORSDO>
F 7

$$$$
=
 OpenBabel11122412193D

 34 40  0  0  1  0  0  0  0  0999 V2000
  187.1730  177.8970  145.2340 C   0  0  0  0  0  0  0  0  0  0  0  0
  189.5180  176.8620  145.8400 C   0  0  0  0  0  3  0  0  0  0  0  0
  181.8150  177.7570  141.4890 C   0  0  2  0  0  3  0  0  0  0  0  0
  184.9380  178.6100  144.5420 C   0  0  0  0  0  0  0  0  0  0  0  0
  184.1110  177.9100  142.2400 C   0  0  1  0  0  3  0  0  0  0  0  0
  183.1380  177.5630  139.8350 C   0  0  0  0  0  2  0  0  0  0  0  0
  181.6720  177.2200  140.0830 C   0  0  0  0  0  2  0  0  0  0  0  0
  181.4720  179.6150  143.1630 C   0  0  0  0  0  2  0  0  0  0  0  0
  188.8160  177.0770  143.6270 C   0  0  0  0  0  0  0  0  0  0  0  0
  185.5530  178.0090  141.7690 C   0  0  0  0  0  2  0  0  0  0  0  0
  182.4560  178.7920  144.0210 C   0  0  0  0  0  2  0  0  0  0  0  0
  187.9660  177.5280  142.4660 C   0  0  1  0  0  3  0  0  0  0  0  0
  190.6140  176.2750  144.9500 C   0  0  0  0  0  2  0  0  0  0  0  0
  183.8980  178.8400  143.4630 C   0  0  1  0  0  3  0  0  0  0  0  0
  180.8840  178.8640  141.9470 C   0  0  0  0  0  2  0  0  0  0  0  0
  186.1940  178.0420  144.2280 C   0  0  0  0  0  0  0  0  0  0  0  0
  183.1590  178.3380  141.1410 C   0  0  1  0  0  3  0  0  0  0  0  0
  186.4730  177.4530  142.8530 C   0  0  1  0  0  3  0  0  0  0  0  0
  185.6900  178.9430  146.8360 C   0  0  0  0  0  3  0  0  0  0  0  0
  184.7150  179.0830  145.8460 C   0  0  0  0  0  3  0  0  0  0  0  0
  190.1560  176.4610  143.5020 C   0  0  0  0  0  3  0  0  0  0  0  0
  186.9140  178.3470  146.5330 C   0  0  0  0  0  3  0  0  0  0  0  0
  188.4740  177.2970  144.8820 C   0  0  0  0  0  0  0  0  0  0  0  0
  188.3630  178.9480  142.0530 C   0  0  0  0  0  2  0  0  0  0  0  0
  188.6770  179.0280  140.5680 C   0  0  0  0  0  2  0  0  0  0  0  0
  188.8200  177.6370  139.9820 C   0  0  0  0  0  2  0  0  0  0  0  0
  189.9450  177.6290  138.9710 C   0  0  0  0  0  2  0  0  0  0  0  0
  191.2120  177.1180  139.6280 C   0  0  0  0  0  2  0  0  0  0  0  0
  192.1120  176.4480  138.6030 C   0  0  0  0  0  2  0  0  0  0  0  0
  191.7750  174.3510  135.6740 C   0  0  0  0  0  2  0  0  0  0  0  0
  191.0490  174.4020  137.9230 O   0  0  0  0  0  0  0  0  0  0  0  0
  191.2950  175.7290  137.5400 C   0  0  2  0  0  3  0  0  0  0  0  0
  190.9040  173.6970  136.7210 C   0  0  0  0  0  2  0  0  0  0  0  0
  192.0590  175.7100  136.2380 C   0  0  0  0  0  2  0  0  0  0  0  0
  1 22  1  0  0  0  0
  3  7  1  6  0  0  0
  3 15  1  0  0  0  0
  4 20  2  0  0  0  0
  5 10  1  6  0  0  0
  5 14  1  0  0  0  0
  6  7  1  0  0  0  0
  8 11  1  0  0  0  0
  9 23  1  0  0  0  0
 12 24  1  1  0  0  0
 12 18  1  0  0  0  0
 12  9  1  0  0  0  0
 13  2  1  0  0  0  0
 14 11  1  1  0  0  0
 14  4  1  0  0  0  0
 15  8  1  0  0  0  0
 16  4  1  0  0  0  0
 16  1  2  0  0  0  0
 17  6  1  6  0  0  0
 17  3  1  0  0  0  0
 17  5  1  0  0  0  0
 18 10  1  6  0  0  0
 18 16  1  0  0  0  0
 20 19  1  0  0  0  0
 21  9  2  0  0  0  0
 21 13  1  0  0  0  0
 22 19  2  0  0  0  0
 23  1  1  0  0  0  0
 23  2  2  0  0  0  0
 25 24  1  0  0  0  0
 26 25  1  0  0  0  0
 27 28  1  0  0  0  0
 27 26  1  0  0  0  0
 29 28  1  0  0  0  0
 30 34  1  0  0  0  0
 30 33  1  0  0  0  0
 32 31  1  0  0  0  0
 32 29  1  1  0  0  0
 33 31  1  0  0  0  0
 34 32  1  0  0  0  0
M  END
>  <MODEL>
5

>  <REMARK>
 VINA RESULT:      -8.0      2.102      3.115
  Name = 
  7 active torsions:
  status: ('A' for Active; 'I' for Inactive)
    1  A    between atoms: C_10  and  C_17
    2  A    between atoms: C_10  and  C_22
    3  A    between atoms: C_13  and  C_24
    4  A    between atoms: C_17  and  C_28
    5  A    between atoms: C_22  and  C_24
    6  A    between atoms: C_28  and  C_29
    7  A    between atoms: C_29  and  C_32
                            x       y       z     vdW  Elec       q    Type
                         _______ _______ _______ _____ _____    ______ ____

>  <TORSDO>
F 7

$$$$
=
 OpenBabel11122412193D

 34 40  0  0  1  0  0  0  0  0999 V2000
  182.9790  178.8880  140.9490 C   0  0  0  0  0  0  0  0  0  0  0  0
  180.5410  178.6780  141.9220 C   0  0  0  0  0  3  0  0  0  0  0  0
  189.1700  176.7850  140.9150 C   0  0  2  0  0  3  0  0  0  0  0  0
  185.2880  178.8180  140.1450 C   0  0  0  0  0  0  0  0  0  0  0  0
  187.0400  177.6980  141.6110 C   0  0  1  0  0  3  0  0  0  0  0  0
  189.0680  176.8590  143.0380 C   0  0  0  0  0  2  0  0  0  0  0  0
  189.9330  176.1070  142.0310 C   0  0  0  0  0  2  0  0  0  0  0  0
  189.0150  178.5890  139.1560 C   0  0  0  0  0  2  0  0  0  0  0  0
  182.4200  178.4710  143.2870 C   0  0  0  0  0  0  0  0  0  0  0  0
  186.2490  178.1920  142.8120 C   0  0  0  0  0  2  0  0  0  0  0  0
  187.5270  178.1850  139.1180 C   0  0  0  0  0  2  0  0  0  0  0  0
  183.8710  178.5360  143.6890 C   0  0  1  0  0  3  0  0  0  0  0  0
  180.0500  178.3780  143.3390 C   0  0  0  0  0  2  0  0  0  0  0  0
  186.7700  178.6230  140.3950 C   0  0  1  0  0  3  0  0  0  0  0  0
  189.9420  177.5890  139.8860 C   0  0  0  0  0  2  0  0  0  0  0  0
  184.3480  178.6360  141.1840 C   0  0  0  0  0  0  0  0  0  0  0  0
  188.5270  177.7150  141.9060 C   0  0  1  0  0  3  0  0  0  0  0  0
  184.7570  178.0420  142.5240 C   0  0  1  0  0  3  0  0  0  0  0  0
  183.4880  179.5680  138.6830 C   0  0  0  0  0  3  0  0  0  0  0  0
  184.8440  179.3140  138.9080 C   0  0  0  0  0  3  0  0  0  0  0  0
  181.2920  178.2850  144.2280 C   0  0  0  0  0  3  0  0  0  0  0  0
  182.5580  179.3500  139.6980 C   0  0  0  0  0  3  0  0  0  0  0  0
  182.0170  178.6850  142.0490 C   0  0  0  0  0  0  0  0  0  0  0  0
  184.2340  179.9670  144.0950 C   0  0  0  0  0  2  0  0  0  0  0  0
  185.1930  179.9840  145.2750 C   0  0  0  0  0  2  0  0  0  0  0  0
  184.8970  178.8290  146.2130 C   0  0  0  0  0  2  0  0  0  0  0  0
  186.0610  178.6400  147.1610 C   0  0  0  0  0  2  0  0  0  0  0  0
  187.1550  177.8520  146.4680 C   0  0  0  0  0  2  0  0  0  0  0  0
  188.4330  177.8770  147.2900 C   0  0  0  0  0  2  0  0  0  0  0  0
  191.6270  177.1410  145.7570 C   0  0  0  0  0  2  0  0  0  0  0  0
  190.4090  176.5720  147.7020 O   0  0  0  0  0  0  0  0  0  0  0  0
  189.4730  176.9250  146.7190 C   0  0  2  0  0  3  0  0  0  0  0  0
  191.5850  176.2790  146.9980 C   0  0  0  0  0  2  0  0  0  0  0  0
  190.2090  177.5970  145.5850 C   0  0  0  0  0  2  0  0  0  0  0  0
  1 16  1  0  0  0  0
  1 23  1  0  0  0  0
  2 23  2  0  0  0  0
  2 13  1  0  0  0  0
  3 15  1  6  0  0  0
  3 17  1  0  0  0  0
  3  7  1  0  0  0  0
  4 14  1  0  0  0  0
  4 16  2  0  0  0  0
  5 17  1  0  0  0  0
  5 10  1  1  0  0  0
  7  6  1  0  0  0  0
  8 15  1  0  0  0  0
  9 12  1  0  0  0  0
  9 21  2  0  0  0  0
 11  8  1  0  0  0  0
 12 24  1  6  0  0  0
 13 21  1  0  0  0  0
 14 11  1  6  0  0  0
 14  5  1  0  0  0  0
 16 18  1  0  0  0  0
 17  6  1  1  0  0  0
 18 10  1  1  0  0  0
 18 12  1  0  0  0  0
 19 20  2  0  0  0  0
 19 22  1  0  0  0  0
 20  4  1  0  0  0  0
 22  1  2  0  0  0  0
 23  9  1  0  0  0  0
 24 25  1  0  0  0  0
 25 26  1  0  0  0  0
 26 27  1  0  0  0  0
 28 27  1  0  0  0  0
 28 29  1  0  0  0  0
 30 33  1  0  0  0  0
 32 29  1  1  0  0  0
 32 31  1  0  0  0  0
 33 31  1  0  0  0  0
 34 30  1  0  0  0  0
 34 32  1  0  0  0  0
M  END
>  <MODEL>
6

>  <REMARK>
 VINA RESULT:      -7.8      2.356      7.998
  Name = 
  7 active torsions:
  status: ('A' for Active; 'I' for Inactive)
    1  A    between atoms: C_10  and  C_17
    2  A    between atoms: C_10  and  C_22
    3  A    between atoms: C_13  and  C_24
    4  A    between atoms: C_17  and  C_28
    5  A    between atoms: C_22  and  C_24
    6  A    between atoms: C_28  and  C_29
    7  A    between atoms: C_29  and  C_32
                            x       y       z     vdW  Elec       q    Type
                         _______ _______ _______ _____ _____    ______ ____

>  <TORSDO>
F 7

$$$$
=
 OpenBabel11122412193D

 34 40  0  0  1  0  0  0  0  0999 V2000
  182.5160  178.9590  143.2020 C   0  0  0  0  0  0  0  0  0  0  0  0
  183.6580  179.0030  145.5740 C   0  0  0  0  0  3  0  0  0  0  0  0
  181.6890  175.9300  137.4660 C   0  0  2  0  0  3  0  0  0  0  0  0
  181.5160  178.6390  140.9930 C   0  0  0  0  0  0  0  0  0  0  0  0
  182.6740  177.0630  139.3650 C   0  0  1  0  0  3  0  0  0  0  0  0
  183.8050  175.7230  137.4210 C   0  0  0  0  0  2  0  0  0  0  0  0
  182.6410  174.9920  136.7590 C   0  0  0  0  0  2  0  0  0  0  0  0
  180.1940  177.9630  137.4260 C   0  0  0  0  0  2  0  0  0  0  0  0
  184.8210  178.3140  143.6750 C   0  0  0  0  0  0  0  0  0  0  0  0
  183.9910  177.5030  139.9840 C   0  0  0  0  0  2  0  0  0  0  0  0
  180.2310  177.8090  138.9610 C   0  0  0  0  0  2  0  0  0  0  0  0
  185.1040  178.0930  142.2100 C   0  0  1  0  0  3  0  0  0  0  0  0
  185.0620  178.5900  146.0180 C   0  0  0  0  0  2  0  0  0  0  0  0
  181.6130  178.1790  139.5510 C   0  0  1  0  0  3  0  0  0  0  0  0
  180.7090  176.7380  136.6360 C   0  0  0  0  0  2  0  0  0  0  0  0
  182.6010  178.4640  141.8820 C   0  0  0  0  0  0  0  0  0  0  0  0
  182.8420  176.8040  137.8810 C   0  0  1  0  0  3  0  0  0  0  0  0
  183.8140  177.6320  141.4950 C   0  0  1  0  0  3  0  0  0  0  0  0
  180.3190  179.8590  142.7290 C   0  0  0  0  0  3  0  0  0  0  0  0
  180.3950  179.3660  141.4240 C   0  0  0  0  0  3  0  0  0  0  0  0
  185.8230  178.1800  144.7560 C   0  0  0  0  0  3  0  0  0  0  0  0
  181.3750  179.6520  143.6170 C   0  0  0  0  0  3  0  0  0  0  0  0
  183.6590  178.7600  144.1130 C   0  0  0  0  0  0  0  0  0  0  0  0
  185.6560  179.3780  141.5880 C   0  0  0  0  0  2  0  0  0  0  0  0
  187.1530  179.2760  141.3400 C   0  0  0  0  0  2  0  0  0  0  0  0
  187.6310  177.8550  141.5640 C   0  0  0  0  0  2  0  0  0  0  0  0
  188.9080  177.8760  142.3750 C   0  0  0  0  0  2  0  0  0  0  0  0
  188.9070  176.7160  143.3510 C   0  0  0  0  0  2  0  0  0  0  0  0
  190.3100  176.4560  143.8720 C   0  0  0  0  0  2  0  0  0  0  0  0
  189.5590  177.1000  147.3520 C   0  0  0  0  0  2  0  0  0  0  0  0
  191.3840  176.3980  146.0220 O   0  0  0  0  0  0  0  0  0  0  0  0
  190.5440  177.1630  145.1980 C   0  0  2  0  0  3  0  0  0  0  0  0
  191.0290  176.7510  147.3320 C   0  0  0  0  0  2  0  0  0  0  0  0
  189.2270  177.3520  145.9120 C   0  0  0  0  0  2  0  0  0  0  0  0
  1 22  1  0  0  0  0
  1 23  1  0  0  0  0
  2 13  1  0  0  0  0
  3 15  1  6  0  0  0
  3 17  1  0  0  0  0
  4 20  2  0  0  0  0
  4 16  1  0  0  0  0
  5 14  1  0  0  0  0
  5 10  1  6  0  0  0
  7  6  1  0  0  0  0
  7  3  1  0  0  0  0
  8 11  1  0  0  0  0
  9 23  1  0  0  0  0
  9 21  2  0  0  0  0
 12 24  1  6  0  0  0
 12  9  1  0  0  0  0
 14 11  1  1  0  0  0
 14  4  1  0  0  0  0
 15  8  1  0  0  0  0
 16  1  2  0  0  0  0
 17  6  1  1  0  0  0
 17  5  1  0  0  0  0
 18 10  1  6  0  0  0
 18 16  1  0  0  0  0
 18 12  1  0  0  0  0
 19 22  2  0  0  0  0
 20 19  1  0  0  0  0
 21 13  1  0  0  0  0
 23  2  2  0  0  0  0
 25 26  1  0  0  0  0
 25 24  1  0  0  0  0
 26 27  1  0  0  0  0
 27 28  1  0  0  0  0
 28 29  1  0  0  0  0
 31 33  1  0  0  0  0
 32 29  1  6  0  0  0
 32 34  1  0  0  0  0
 32 31  1  0  0  0  0
 33 30  1  0  0  0  0
 34 30  1  0  0  0  0
M  END
>  <MODEL>
7

>  <REMARK>
 VINA RESULT:      -7.5      2.985      6.961
  Name = 
  7 active torsions:
  status: ('A' for Active; 'I' for Inactive)
    1  A    between atoms: C_10  and  C_17
    2  A    between atoms: C_10  and  C_22
    3  A    between atoms: C_13  and  C_24
    4  A    between atoms: C_17  and  C_28
    5  A    between atoms: C_22  and  C_24
    6  A    between atoms: C_28  and  C_29
    7  A    between atoms: C_29  and  C_32
                            x       y       z     vdW  Elec       q    Type
                         _______ _______ _______ _____ _____    ______ ____

>  <TORSDO>
F 7

$$$$
=
 OpenBabel11122412193D

 34 40  0  0  1  0  0  0  0  0999 V2000
  186.6060  178.1970  145.0050 C   0  0  0  0  0  0  0  0  0  0  0  0
  187.7420  177.2370  147.1790 C   0  0  0  0  0  3  0  0  0  0  0  0
  185.5710  177.6980  138.5680 C   0  0  2  0  0  3  0  0  0  0  0  0
  185.5900  178.8290  142.8720 C   0  0  0  0  0  0  0  0  0  0  0  0
  186.6330  177.9330  140.7310 C   0  0  1  0  0  3  0  0  0  0  0  0
  187.6660  177.3790  138.3900 C   0  0  0  0  0  2  0  0  0  0  0  0
  186.4530  177.0440  137.5280 C   0  0  0  0  0  2  0  0  0  0  0  0
  184.2300  179.6840  139.3590 C   0  0  0  0  0  2  0  0  0  0  0  0
  188.8560  177.2610  145.1300 C   0  0  0  0  0  0  0  0  0  0  0  0
  187.9770  178.0060  141.4370 C   0  0  0  0  0  2  0  0  0  0  0  0
  184.2520  178.9440  140.7120 C   0  0  0  0  0  2  0  0  0  0  0  0
  189.1250  177.6070  143.6870 C   0  0  1  0  0  3  0  0  0  0  0  0
  189.1110  176.5880  147.3900 C   0  0  0  0  0  2  0  0  0  0  0  0
  185.6560  178.9590  141.3630 C   0  0  1  0  0  3  0  0  0  0  0  0
  184.6550  178.8300  138.1430 C   0  0  0  0  0  2  0  0  0  0  0  0
  186.6570  178.2480  143.5950 C   0  0  0  0  0  0  0  0  0  0  0  0
  186.7840  178.2600  139.2580 C   0  0  1  0  0  3  0  0  0  0  0  0
  187.8060  177.5500  142.8840 C   0  0  1  0  0  3  0  0  0  0  0  0
  184.4830  179.3580  144.9760 C   0  0  0  0  0  3  0  0  0  0  0  0
  184.5240  179.4070  143.5810 C   0  0  0  0  0  3  0  0  0  0  0  0
  189.8420  176.6490  146.0480 C   0  0  0  0  0  3  0  0  0  0  0  0
  185.5180  178.7500  145.6870 C   0  0  0  0  0  3  0  0  0  0  0  0
  187.7290  177.5810  145.7370 C   0  0  0  0  0  0  0  0  0  0  0  0
  189.7720  178.9920  143.5970 C   0  0  0  0  0  2  0  0  0  0  0  0
  191.2210  178.8990  143.1470 C   0  0  0  0  0  2  0  0  0  0  0  0
  191.4860  177.5590  142.4890 C   0  0  0  0  0  2  0  0  0  0  0  0
  192.4450  177.7460  141.3340 C   0  0  0  0  0  2  0  0  0  0  0  0
  191.8330  177.1750  140.0710 C   0  0  0  0  0  2  0  0  0  0  0  0
  192.9100  176.8830  139.0400 C   0  0  0  0  0  2  0  0  0  0  0  0
  190.8340  174.6290  137.1170 C   0  0  0  0  0  2  0  0  0  0  0  0
  191.0390  176.9480  137.5330 O   0  0  0  0  0  0  0  0  0  0  0  0
  192.3050  176.3790  137.7390 C   0  0  2  0  0  3  0  0  0  0  0  0
  190.3410  176.0110  136.7570 C   0  0  0  0  0  2  0  0  0  0  0  0
  192.1440  174.8790  137.8010 C   0  0  0  0  0  2  0  0  0  0  0  0
  1 22  1  0  0  0  0
  1 23  1  0  0  0  0
  2 13  1  0  0  0  0
  3  7  1  6  0  0  0
  3 17  1  0  0  0  0
  4 20  2  0  0  0  0
  4 16  1  0  0  0  0
  5 14  1  0  0  0  0
  5 10  1  1  0  0  0
  7  6  1  0  0  0  0
  8 11  1  0  0  0  0
  9 23  1  0  0  0  0
  9 21  2  0  0  0  0
 12 24  1  1  0  0  0
 12  9  1  0  0  0  0
 14 11  1  6  0  0  0
 14  4  1  0  0  0  0
 15  3  1  0  0  0  0
 15  8  1  0  0  0  0
 16  1  2  0  0  0  0
 17  6  1  6  0  0  0
 17  5  1  0  0  0  0
 18 10  1  6  0  0  0
 18 16  1  0  0  0  0
 18 12  1  0  0  0  0
 19 22  2  0  0  0  0
 20 19  1  0  0  0  0
 21 13  1  0  0  0  0
 23  2  2  0  0  0  0
 25 24  1  0  0  0  0
 26 25  1  0  0  0  0
 27 26  1  0  0  0  0
 28 27  1  0  0  0  0
 29 28  1  0  0  0  0
 30 34  1  0  0  0  0
 31 32  1  0  0  0  0
 32 34  1  0  0  0  0
 32 29  1  1  0  0  0
 33 30  1  0  0  0  0
 33 31  1  0  0  0  0
M  END
>  <MODEL>
8

>  <REMARK>
 VINA RESULT:      -7.5      1.821      3.504
  Name = 
  7 active torsions:
  status: ('A' for Active; 'I' for Inactive)
    1  A    between atoms: C_10  and  C_17
    2  A    between atoms: C_10  and  C_22
    3  A    between atoms: C_13  and  C_24
    4  A    between atoms: C_17  and  C_28
    5  A    between atoms: C_22  and  C_24
    6  A    between atoms: C_28  and  C_29
    7  A    between atoms: C_29  and  C_32
                            x       y       z     vdW  Elec       q    Type
                         _______ _______ _______ _____ _____    ______ ____

>  <TORSDO>
F 7

$$$$
=
 OpenBabel11122412193D

 34 40  0  0  1  0  0  0  0  0999 V2000
  190.4040  176.7710  145.5860 C   0  0  0  0  0  0  0  0  0  0  0  0
  190.1150  177.5240  148.0930 C   0  0  0  0  0  3  0  0  0  0  0  0
  189.7640  178.1760  139.2320 C   0  0  2  0  0  3  0  0  0  0  0  0
  190.6590  176.3500  143.1900 C   0  0  0  0  0  0  0  0  0  0  0  0
  189.2940  177.7580  141.5690 C   0  0  1  0  0  3  0  0  0  0  0  0
  187.8120  178.8660  139.7170 C   0  0  0  0  0  2  0  0  0  0  0  0
  188.7930  179.1350  138.5810 C   0  0  0  0  0  2  0  0  0  0  0  0
  190.8230  175.8880  139.3580 C   0  0  0  0  0  2  0  0  0  0  0  0
  188.5150  178.0350  146.4750 C   0  0  0  0  0  0  0  0  0  0  0  0
  188.2020  177.7910  142.6270 C   0  0  0  0  0  2  0  0  0  0  0  0
  191.3170  176.3810  140.7340 C   0  0  0  0  0  2  0  0  0  0  0  0
  187.8050  177.9890  145.1460 C   0  0  1  0  0  3  0  0  0  0  0  0
  189.0190  178.3470  148.7720 C   0  0  0  0  0  2  0  0  0  0  0  0
  190.1670  176.4900  141.7630 C   0  0  1  0  0  3  0  0  0  0  0  0
  190.2760  176.9960  138.4280 C   0  0  0  0  0  2  0  0  0  0  0  0
  189.9690  176.9690  144.2570 C   0  0  0  0  0  0  0  0  0  0  0  0
  188.6900  177.7160  140.1790 C   0  0  1  0  0  3  0  0  0  0  0  0
  188.8440  177.9600  144.0020 C   0  0  1  0  0  3  0  0  0  0  0  0
  192.1520  175.2930  144.8000 C   0  0  0  0  0  3  0  0  0  0  0  0
  191.7300  175.4900  143.4820 C   0  0  0  0  0  3  0  0  0  0  0  0
  187.9600  178.6380  147.7070 C   0  0  0  0  0  3  0  0  0  0  0  0
  191.4940  175.9360  145.8480 C   0  0  0  0  0  3  0  0  0  0  0  0
  189.6710  177.4330  146.6820 C   0  0  0  0  0  0  0  0  0  0  0  0
  186.8840  176.7680  145.0910 C   0  0  0  0  0  2  0  0  0  0  0  0
  185.4580  177.1300  145.4760 C   0  0  0  0  0  2  0  0  0  0  0  0
  185.2810  178.6360  145.4920 C   0  0  0  0  0  2  0  0  0  0  0  0
  184.0280  179.0040  144.7280 C   0  0  0  0  0  2  0  0  0  0  0  0
  184.0430  178.3230  143.3730 C   0  0  0  0  0  2  0  0  0  0  0  0
  184.8090  179.1630  142.3640 C   0  0  0  0  0  2  0  0  0  0  0  0
  182.6730  178.4970  139.5210 C   0  0  0  0  0  2  0  0  0  0  0  0
  184.6060  179.7530  140.0430 O   0  0  0  0  0  0  0  0  0  0  0  0
  184.5580  178.6790  140.9440 C   0  0  2  0  0  3  0  0  0  0  0  0
  183.7770  179.3730  138.9780 C   0  0  0  0  0  2  0  0  0  0  0  0
  183.1880  178.0510  140.8560 C   0  0  0  0  0  2  0  0  0  0  0  0
  1 22  1  0  0  0  0
  1 23  1  0  0  0  0
  2 13  1  0  0  0  0
  3 15  1  6  0  0  0
  3 17  1  0  0  0  0
  4 20  2  0  0  0  0
  4 16  1  0  0  0  0
  5 14  1  0  0  0  0
  5 10  1  1  0  0  0
  7  3  1  0  0  0  0
  7  6  1  0  0  0  0
  8 11  1  0  0  0  0
  9 23  1  0  0  0  0
  9 21  2  0  0  0  0
 12 24  1  1  0  0  0
 12  9  1  0  0  0  0
 14 11  1  6  0  0  0
 14  4  1  0  0  0  0
 15  8  1  0  0  0  0
 16  1  2  0  0  0  0
 17  6  1  1  0  0  0
 17  5  1  0  0  0  0
 18 10  1  6  0  0  0
 18 16  1  0  0  0  0
 18 12  1  0  0  0  0
 19 22  2  0  0  0  0
 20 19  1  0  0  0  0
 21 13  1  0  0  0  0
 23  2  2  0  0  0  0
 24 25  1  0  0  0  0
 25 26  1  0  0  0  0
 27 26  1  0  0  0  0
 28 27  1  0  0  0  0
 29 28  1  0  0  0  0
 30 34  1  0  0  0  0
 31 32  1  0  0  0  0
 32 29  1  1  0  0  0
 33 30  1  0  0  0  0
 33 31  1  0  0  0  0
 34 32  1  0  0  0  0
M  END
>  <MODEL>
9

>  <REMARK>
 VINA RESULT:      -7.4      1.502      5.406
  Name = 
  7 active torsions:
  status: ('A' for Active; 'I' for Inactive)
    1  A    between atoms: C_10  and  C_17
    2  A    between atoms: C_10  and  C_22
    3  A    between atoms: C_13  and  C_24
    4  A    between atoms: C_17  and  C_28
    5  A    between atoms: C_22  and  C_24
    6  A    between atoms: C_28  and  C_29
    7  A    between atoms: C_29  and  C_32
                            x       y       z     vdW  Elec       q    Type
                         _______ _______ _______ _____ _____    ______ ____

>  <TORSDO>
F 7

$$$$
