=
 OpenBabel11122410313D

 30 35  0  0  1  0  0  0  0  0999 V2000
  186.2780  178.4370  144.6430 C   0  0  0  0  0  0  0  0  0  0  0  0
  186.4620  178.6080  147.1270 C   0  0  0  0  0  0  0  0  0  0  0  0
  189.7630  176.1890  144.4100 O   0  0  0  0  0  0  0  0  0  0  0  0
  186.8210  177.9900  143.4190 C   0  0  0  0  0  0  0  0  0  0  0  0
  184.9950  179.2090  144.5740 C   0  0  0  0  0  2  0  0  0  0  0  0
  184.0130  177.4570  141.4580 O   0  0  0  0  0  1  0  0  0  0  0  0
  188.2700  178.8160  140.9390 C   0  0  1  0  0  3  0  0  0  0  0  0
  184.6540  178.4630  142.1850 C   0  0  1  0  0  3  0  0  0  0  0  0
  189.2490  177.7160  141.3010 C   0  0  2  0  0  3  0  0  0  0  0  0
  189.8940  175.8700  143.0270 C   0  0  2  0  0  3  0  0  0  0  0  0
  184.0480  178.5250  143.5950 C   0  0  2  0  0  3  0  0  0  0  0  0
  186.1110  178.2330  142.1830 N   0  0  0  0  0  0  0  0  0  0  0  0
  187.1590  178.2990  148.3000 C   0  0  0  0  0  3  0  0  0  0  0  0
  189.6270  177.1080  139.9710 C   0  0  0  0  0  2  0  0  0  0  0  0
  188.7290  179.2430  139.5560 C   0  0  0  0  0  2  0  0  0  0  0  0
  185.3200  179.3310  147.2410 F   0  0  0  0  0  0  0  0  0  0  0  0
  188.6470  176.9720  144.6170 C   0  0  0  0  0  0  0  0  0  0  0  0
  188.3390  177.5560  148.2530 C   0  0  0  0  0  3  0  0  0  0  0  0
  186.9500  178.1700  145.8720 C   0  0  0  0  0  0  0  0  0  0  0  0
  188.0200  177.2680  143.4430 C   0  0  0  0  0  0  0  0  0  0  0  0
  191.3100  176.1790  142.5590 C   0  0  0  0  0  1  0  0  0  0  0  0
  188.7520  176.6490  142.2970 C   0  0  1  0  0  3  0  0  0  0  0  0
  189.4740  178.1410  138.9510 N   0  0  0  0  0  2  0  0  0  0  0  0
  186.2370  178.1240  139.8490 O   0  0  0  0  0  0  0  0  0  0  0  0
  188.8370  177.1130  147.0280 C   0  0  0  0  0  3  0  0  0  0  0  0
  188.1590  177.4150  145.8450 C   0  0  0  0  0  0  0  0  0  0  0  0
  186.8260  178.3690  140.9400 C   0  0  0  0  0  0  0  0  0  0  0  0
  182.7390  179.2430  143.5530 C   0  0  0  0  0  3  0  0  0  0  0  0
  180.3060  179.3360  143.7530 C   0  0  0  0  0  1  0  0  0  0  0  0
  181.6000  178.6010  143.8000 C   0  0  0  0  0  3  0  0  0  0  0  0
  1 19  1  0  0  0  0
  2 16  1  0  0  0  0
  2 13  1  0  0  0  0
  3 17  1  0  0  0  0
  4 20  1  0  0  0  0
  4  1  2  0  0  0  0
  5  1  1  0  0  0  0
  7 15  1  6  0  0  0
  7 27  1  0  0  0  0
  7  9  1  0  0  0  0
  8  6  1  6  0  0  0
  8 11  1  0  0  0  0
  9 14  1  6  0  0  0
  9 22  1  0  0  0  0
 10 21  1  6  0  0  0
 10  3  1  0  0  0  0
 11 28  1  6  0  0  0
 11  5  1  0  0  0  0
 12  8  1  0  0  0  0
 12  4  1  0  0  0  0
 17 26  1  0  0  0  0
 18 13  2  0  0  0  0
 19  2  2  0  0  0  0
 20 17  2  0  0  0  0
 22 10  1  0  0  0  0
 22 20  1  1  0  0  0
 23 15  1  0  0  0  0
 23 14  1  0  0  0  0
 24 27  2  0  0  0  0
 25 18  1  0  0  0  0
 26 19  1  0  0  0  0
 26 25  2  0  0  0  0
 27 12  1  0  0  0  0
 28 30  2  0  0  0  0
 29 30  1  0  0  0  0
M  END
>  <MODEL>
1

>  <REMARK>
 VINA RESULT:     -10.2      0.000      0.000
  Name = 
  1 active torsions:
  status: ('A' for Active; 'I' for Inactive)
    1  A    between atoms: C_11  and  C_28
                            x       y       z     vdW  Elec       q    Type
                         _______ _______ _______ _____ _____    ______ ____

>  <TORSDO>
F 1

$$$$
=
 OpenBabel11122410313D

 30 35  0  0  1  0  0  0  0  0999 V2000
  187.2900  178.2470  140.6990 C   0  0  0  0  0  0  0  0  0  0  0  0
  184.9670  178.9210  140.0810 C   0  0  0  0  0  0  0  0  0  0  0  0
  186.1470  177.4210  144.6060 O   0  0  0  0  0  0  0  0  0  0  0  0
  188.1990  177.8160  141.6890 C   0  0  0  0  0  0  0  0  0  0  0  0
  187.8400  178.4730  139.3250 C   0  0  0  0  0  2  0  0  0  0  0  0
  190.4980  175.9510  139.8860 O   0  0  0  0  0  1  0  0  0  0  0  0
  190.4390  178.6490  143.4850 C   0  0  1  0  0  3  0  0  0  0  0  0
  189.9520  177.2350  139.9470 C   0  0  1  0  0  3  0  0  0  0  0  0
  189.5890  178.0650  144.5970 C   0  0  2  0  0  3  0  0  0  0  0  0
  187.3300  176.9260  145.2310 C   0  0  2  0  0  3  0  0  0  0  0  0
  188.7760  177.3260  138.9620 C   0  0  2  0  0  3  0  0  0  0  0  0
  189.5780  177.5550  141.3370 N   0  0  0  0  0  0  0  0  0  0  0  0
  183.6330  179.1050  140.4590 C   0  0  0  0  0  3  0  0  0  0  0  0
  190.5900  177.4070  145.5180 C   0  0  0  0  0  2  0  0  0  0  0  0
  191.7530  178.9550  144.1800 C   0  0  0  0  0  2  0  0  0  0  0  0
  185.3020  179.1860  138.7940 F   0  0  0  0  0  0  0  0  0  0  0  0
  186.4060  177.7670  143.2980 C   0  0  0  0  0  0  0  0  0  0  0  0
  183.2210  178.8470  141.7660 C   0  0  0  0  0  3  0  0  0  0  0  0
  185.9200  178.4710  141.0260 C   0  0  0  0  0  0  0  0  0  0  0  0
  187.7230  177.5970  142.9860 C   0  0  0  0  0  0  0  0  0  0  0  0
  187.5480  177.6390  146.5590 C   0  0  0  0  0  1  0  0  0  0  0  0
  188.4720  177.0900  144.1760 C   0  0  1  0  0  3  0  0  0  0  0  0
  191.8600  178.1100  145.3680 N   0  0  0  0  0  2  0  0  0  0  0  0
  191.7100  177.0790  142.1740 O   0  0  0  0  0  0  0  0  0  0  0  0
  184.1420  178.4020  142.7140 C   0  0  0  0  0  3  0  0  0  0  0  0
  185.4800  178.2160  142.3580 C   0  0  0  0  0  0  0  0  0  0  0  0
  190.6270  177.7140  142.3110 C   0  0  0  0  0  0  0  0  0  0  0  0
  189.2930  177.4990  137.5710 C   0  0  0  0  0  3  0  0  0  0  0  0
  189.0520  177.4250  135.1410 C   0  0  0  0  0  1  0  0  0  0  0  0
  188.5170  177.2470  136.5190 C   0  0  0  0  0  3  0  0  0  0  0  0
  1 19  2  0  0  0  0
  1  4  1  0  0  0  0
  2 13  2  0  0  0  0
  2 19  1  0  0  0  0
  3 10  1  0  0  0  0
  4 20  2  0  0  0  0
  5  1  1  0  0  0  0
  7 15  1  1  0  0  0
  7  9  1  0  0  0  0
  8  6  1  1  0  0  0
  8 12  1  0  0  0  0
  9 14  1  1  0  0  0
 10 21  1  1  0  0  0
 11 28  1  6  0  0  0
 11  5  1  0  0  0  0
 11  8  1  0  0  0  0
 12  4  1  0  0  0  0
 12 27  1  0  0  0  0
 13 18  1  0  0  0  0
 15 23  1  0  0  0  0
 16  2  1  0  0  0  0
 17  3  1  0  0  0  0
 18 25  2  0  0  0  0
 19 26  1  0  0  0  0
 20 17  1  0  0  0  0
 22 20  1  6  0  0  0
 22  9  1  0  0  0  0
 22 10  1  0  0  0  0
 23 14  1  0  0  0  0
 24 27  2  0  0  0  0
 26 25  1  0  0  0  0
 26 17  2  0  0  0  0
 27  7  1  0  0  0  0
 29 30  1  0  0  0  0
 30 28  2  0  0  0  0
M  END
>  <MODEL>
2

>  <REMARK>
 VINA RESULT:     -10.1      2.925      6.183
  Name = 
  1 active torsions:
  status: ('A' for Active; 'I' for Inactive)
    1  A    between atoms: C_11  and  C_28
                            x       y       z     vdW  Elec       q    Type
                         _______ _______ _______ _____ _____    ______ ____

>  <TORSDO>
F 1

$$$$
=
 OpenBabel11122410313D

 30 35  0  0  1  0  0  0  0  0999 V2000
  188.1640  177.6720  142.9630 C   0  0  0  0  0  0  0  0  0  0  0  0
  186.0850  177.8780  144.3310 C   0  0  0  0  0  0  0  0  0  0  0  0
  186.1930  178.9580  139.5410 O   0  0  0  0  0  0  0  0  0  0  0  0
  188.7960  177.7660  141.7050 C   0  0  0  0  0  0  0  0  0  0  0  0
  189.0110  177.2250  144.1160 C   0  0  0  0  0  2  0  0  0  0  0  0
  192.0560  178.6150  142.5230 O   0  0  0  0  0  1  0  0  0  0  0  0
  189.8880  176.2190  139.3920 C   0  0  1  0  0  3  0  0  0  0  0  0
  191.1020  177.6210  142.7560 C   0  0  1  0  0  3  0  0  0  0  0  0
  188.9900  177.1010  138.5470 C   0  0  2  0  0  3  0  0  0  0  0  0
  187.2050  179.0030  138.5370 C   0  0  2  0  0  3  0  0  0  0  0  0
  190.3550  177.9410  144.0600 C   0  0  2  0  0  3  0  0  0  0  0  0
  190.2120  177.4960  141.5870 N   0  0  0  0  0  0  0  0  0  0  0  0
  184.7270  178.2040  144.4030 C   0  0  0  0  0  3  0  0  0  0  0  0
  189.8050  177.3710  137.3040 C   0  0  0  0  0  2  0  0  0  0  0  0
  190.7100  175.4710  138.3580 C   0  0  0  0  0  2  0  0  0  0  0  0
  186.7000  177.4760  145.4710 F   0  0  0  0  0  0  0  0  0  0  0  0
  186.7190  178.5080  140.7320 C   0  0  0  0  0  0  0  0  0  0  0  0
  184.0350  178.6280  143.2690 C   0  0  0  0  0  3  0  0  0  0  0  0
  186.7760  177.9730  143.0990 C   0  0  0  0  0  0  0  0  0  0  0  0
  188.0370  178.1770  140.6040 C   0  0  0  0  0  0  0  0  0  0  0  0
  186.7160  178.2930  137.2810 C   0  0  0  0  0  1  0  0  0  0  0  0
  188.4900  178.4060  139.1980 C   0  0  1  0  0  3  0  0  0  0  0  0
  190.7200  176.2490  137.1200 N   0  0  0  0  0  2  0  0  0  0  0  0
  191.9820  177.1810  140.0900 O   0  0  0  0  0  0  0  0  0  0  0  0
  184.6950  178.7300  142.0450 C   0  0  0  0  0  3  0  0  0  0  0  0
  186.0510  178.4050  141.9500 C   0  0  0  0  0  0  0  0  0  0  0  0
  190.7630  176.9900  140.3560 C   0  0  0  0  0  0  0  0  0  0  0  0
  191.1960  177.5560  145.2330 C   0  0  0  0  0  3  0  0  0  0  0  0
  191.5730  176.3810  147.3420 C   0  0  0  0  0  1  0  0  0  0  0  0
  190.7190  176.7520  146.1810 C   0  0  0  0  0  3  0  0  0  0  0  0
  1 19  1  0  0  0  0
  1  5  1  0  0  0  0
  2 13  1  0  0  0  0
  2 16  1  0  0  0  0
  3 17  1  0  0  0  0
  4  1  2  0  0  0  0
  7 15  1  6  0  0  0
  7 27  1  0  0  0  0
  8  6  1  6  0  0  0
  8 11  1  0  0  0  0
  9 14  1  6  0  0  0
  9 22  1  0  0  0  0
  9  7  1  0  0  0  0
 10 21  1  6  0  0  0
 10 22  1  0  0  0  0
 10  3  1  0  0  0  0
 11  5  1  0  0  0  0
 11 28  1  1  0  0  0
 12  4  1  0  0  0  0
 12  8  1  0  0  0  0
 17 26  1  0  0  0  0
 18 13  2  0  0  0  0
 19  2  2  0  0  0  0
 20 17  2  0  0  0  0
 20  4  1  0  0  0  0
 22 20  1  1  0  0  0
 23 14  1  0  0  0  0
 23 15  1  0  0  0  0
 24 27  2  0  0  0  0
 25 18  1  0  0  0  0
 26 25  2  0  0  0  0
 26 19  1  0  0  0  0
 27 12  1  0  0  0  0
 28 30  2  0  0  0  0
 30 29  1  0  0  0  0
M  END
>  <MODEL>
3

>  <REMARK>
 VINA RESULT:      -9.5      2.192      5.656
  Name = 
  1 active torsions:
  status: ('A' for Active; 'I' for Inactive)
    1  A    between atoms: C_11  and  C_28
                            x       y       z     vdW  Elec       q    Type
                         _______ _______ _______ _____ _____    ______ ____

>  <TORSDO>
F 1

$$$$
=
 OpenBabel11122410313D

 30 35  0  0  1  0  0  0  0  0999 V2000
  188.4510  177.5010  141.6180 C   0  0  0  0  0  0  0  0  0  0  0  0
  186.4310  178.0390  142.9840 C   0  0  0  0  0  0  0  0  0  0  0  0
  186.6300  178.8790  138.1480 O   0  0  0  0  0  0  0  0  0  0  0  0
  189.0770  177.4550  140.3540 C   0  0  0  0  0  0  0  0  0  0  0  0
  189.2440  177.0000  142.7860 C   0  0  0  0  0  2  0  0  0  0  0  0
  192.4280  177.9060  141.1170 O   0  0  0  0  0  1  0  0  0  0  0  0
  189.9340  175.6750  138.1110 C   0  0  1  0  0  3  0  0  0  0  0  0
  191.3550  177.0570  141.4010 C   0  0  1  0  0  3  0  0  0  0  0  0
  189.1490  176.6280  137.2290 C   0  0  2  0  0  3  0  0  0  0  0  0
  187.6290  178.7450  137.1400 C   0  0  2  0  0  3  0  0  0  0  0  0
  190.6700  177.5310  142.6910 C   0  0  2  0  0  3  0  0  0  0  0  0
  190.4440  176.9970  140.2420 N   0  0  0  0  0  0  0  0  0  0  0  0
  185.1280  178.5430  143.0470 C   0  0  0  0  0  3  0  0  0  0  0  0
  189.9800  176.7320  135.9720 C   0  0  0  0  0  2  0  0  0  0  0  0
  190.6400  174.7800  137.1080 C   0  0  0  0  0  2  0  0  0  0  0  0
  187.0010  177.6120  144.1380 F   0  0  0  0  0  0  0  0  0  0  0  0
  187.1050  178.4180  139.3570 C   0  0  0  0  0  0  0  0  0  0  0  0
  184.4860  179.0030  141.8970 C   0  0  0  0  0  3  0  0  0  0  0  0
  187.1160  177.9870  141.7460 C   0  0  0  0  0  0  0  0  0  0  0  0
  188.3660  177.9120  139.2380 C   0  0  0  0  0  0  0  0  0  0  0  0
  187.0380  178.0490  135.9200 C   0  0  0  0  0  1  0  0  0  0  0  0
  188.8310  178.0150  137.8210 C   0  0  1  0  0  3  0  0  0  0  0  0
  190.7390  175.4930  135.8350 N   0  0  0  0  0  2  0  0  0  0  0  0
  192.1430  176.3850  138.7540 O   0  0  0  0  0  0  0  0  0  0  0  0
  185.1410  178.9620  140.6670 C   0  0  0  0  0  3  0  0  0  0  0  0
  186.4420  178.4580  140.5820 C   0  0  0  0  0  0  0  0  0  0  0  0
  190.9110  176.3670  139.0340 C   0  0  0  0  0  0  0  0  0  0  0  0
  191.4650  177.0920  143.8780 C   0  0  0  0  0  3  0  0  0  0  0  0
  191.6800  176.3780  146.2040 C   0  0  0  0  0  1  0  0  0  0  0  0
  190.8690  176.8130  145.0340 C   0  0  0  0  0  3  0  0  0  0  0  0
  1 19  1  0  0  0  0
  1  5  1  0  0  0  0
  2 13  1  0  0  0  0
  2 16  1  0  0  0  0
  3 17  1  0  0  0  0
  4  1  2  0  0  0  0
  7 15  1  6  0  0  0
  7 27  1  0  0  0  0
  8  6  1  6  0  0  0
  8 11  1  0  0  0  0
  9 14  1  6  0  0  0
  9 22  1  0  0  0  0
  9  7  1  0  0  0  0
 10 21  1  6  0  0  0
 10 22  1  0  0  0  0
 10  3  1  0  0  0  0
 11  5  1  0  0  0  0
 11 28  1  1  0  0  0
 12  4  1  0  0  0  0
 12  8  1  0  0  0  0
 17 26  1  0  0  0  0
 18 13  2  0  0  0  0
 19  2  2  0  0  0  0
 20 17  2  0  0  0  0
 20  4  1  0  0  0  0
 22 20  1  1  0  0  0
 23 14  1  0  0  0  0
 23 15  1  0  0  0  0
 24 27  2  0  0  0  0
 25 18  1  0  0  0  0
 26 25  2  0  0  0  0
 26 19  1  0  0  0  0
 27 12  1  0  0  0  0
 28 30  2  0  0  0  0
 30 29  1  0  0  0  0
M  END
>  <MODEL>
4

>  <REMARK>
 VINA RESULT:      -9.5      2.809      6.315
  Name = 
  1 active torsions:
  status: ('A' for Active; 'I' for Inactive)
    1  A    between atoms: C_11  and  C_28
                            x       y       z     vdW  Elec       q    Type
                         _______ _______ _______ _____ _____    ______ ____

>  <TORSDO>
F 1

$$$$
=
 OpenBabel11122410313D

 30 35  0  0  1  0  0  0  0  0999 V2000
  187.9300  177.5450  143.3870 C   0  0  0  0  0  0  0  0  0  0  0  0
  188.9950  176.9300  145.5610 C   0  0  0  0  0  0  0  0  0  0  0  0
  184.6720  179.2500  145.3180 O   0  0  0  0  0  0  0  0  0  0  0  0
  186.8360  178.1050  142.6940 C   0  0  0  0  0  0  0  0  0  0  0  0
  189.0500  176.9970  142.5570 C   0  0  0  0  0  2  0  0  0  0  0  0
  188.2940  179.3780  139.8180 O   0  0  0  0  0  1  0  0  0  0  0  0
  184.4000  177.5030  141.0690 C   0  0  1  0  0  3  0  0  0  0  0  0
  188.1410  178.1790  140.5180 C   0  0  1  0  0  3  0  0  0  0  0  0
  183.6720  178.3660  142.0810 C   0  0  2  0  0  3  0  0  0  0  0  0
  183.8650  179.7760  144.2670 C   0  0  2  0  0  3  0  0  0  0  0  0
  189.3620  177.9710  141.4270 C   0  0  2  0  0  3  0  0  0  0  0  0
  186.8610  178.1850  141.2500 N   0  0  0  0  0  0  0  0  0  0  0  0
  188.9470  176.9280  146.9580 C   0  0  0  0  0  3  0  0  0  0  0  0
  182.6610  179.1270  141.2540 C   0  0  0  0  0  2  0  0  0  0  0  0
  183.3450  177.2520  140.0070 C   0  0  0  0  0  2  0  0  0  0  0  0
  190.0800  176.3780  144.9640 F   0  0  0  0  0  0  0  0  0  0  0  0
  185.7830  178.6200  144.8000 C   0  0  0  0  0  0  0  0  0  0  0  0
  187.8610  177.4830  147.6360 C   0  0  0  0  0  3  0  0  0  0  0  0
  187.9340  177.4960  144.8130 C   0  0  0  0  0  0  0  0  0  0  0  0
  185.7690  178.6240  143.4360 C   0  0  0  0  0  0  0  0  0  0  0  0
  182.4180  179.3410  144.4620 C   0  0  0  0  0  1  0  0  0  0  0  0
  184.5400  179.3120  142.9360 C   0  0  1  0  0  3  0  0  0  0  0  0
  182.3450  178.3160  140.0820 N   0  0  0  0  0  2  0  0  0  0  0  0
  185.6030  178.6660  139.3370 O   0  0  0  0  0  0  0  0  0  0  0  0
  186.8060  178.0460  146.9190 C   0  0  0  0  0  3  0  0  0  0  0  0
  186.8310  178.0550  145.5220 C   0  0  0  0  0  0  0  0  0  0  0  0
  185.6360  178.1550  140.4920 C   0  0  0  0  0  0  0  0  0  0  0  0
  190.5170  177.4740  140.6190 C   0  0  0  0  0  3  0  0  0  0  0  0
  191.4820  176.2800  138.7190 C   0  0  0  0  0  1  0  0  0  0  0  0
  190.3180  176.7650  139.5100 C   0  0  0  0  0  3  0  0  0  0  0  0
  1 19  1  0  0  0  0
  2 13  1  0  0  0  0
  4  1  2  0  0  0  0
  4 20  1  0  0  0  0
  5  1  1  0  0  0  0
  7 15  1  6  0  0  0
  7  9  1  0  0  0  0
  8  6  1  1  0  0  0
  8 12  1  0  0  0  0
  8 11  1  0  0  0  0
  9 14  1  6  0  0  0
  9 22  1  0  0  0  0
 10 21  1  1  0  0  0
 10  3  1  0  0  0  0
 11 28  1  6  0  0  0
 11  5  1  0  0  0  0
 12  4  1  0  0  0  0
 13 18  2  0  0  0  0
 15 23  1  0  0  0  0
 16  2  1  0  0  0  0
 17  3  1  0  0  0  0
 17 26  1  0  0  0  0
 19 26  1  0  0  0  0
 19  2  2  0  0  0  0
 20 17  2  0  0  0  0
 22 20  1  1  0  0  0
 22 10  1  0  0  0  0
 23 14  1  0  0  0  0
 24 27  2  0  0  0  0
 25 18  1  0  0  0  0
 26 25  2  0  0  0  0
 27  7  1  0  0  0  0
 27 12  1  0  0  0  0
 29 30  1  0  0  0  0
 30 28  2  0  0  0  0
M  END
>  <MODEL>
5

>  <REMARK>
 VINA RESULT:      -9.1      2.027      5.528
  Name = 
  1 active torsions:
  status: ('A' for Active; 'I' for Inactive)
    1  A    between atoms: C_11  and  C_28
                            x       y       z     vdW  Elec       q    Type
                         _______ _______ _______ _____ _____    ______ ____

>  <TORSDO>
F 1

$$$$
=
 OpenBabel11122410313D

 30 35  0  0  1  0  0  0  0  0999 V2000
  185.4350  178.1240  142.5500 C   0  0  0  0  0  0  0  0  0  0  0  0
  186.5930  178.0820  144.7610 C   0  0  0  0  0  0  0  0  0  0  0  0
  181.8340  179.2110  144.3120 O   0  0  0  0  0  0  0  0  0  0  0  0
  184.2430  178.3000  141.8130 C   0  0  0  0  0  0  0  0  0  0  0  0
  186.6650  177.7650  141.7740 C   0  0  0  0  0  2  0  0  0  0  0  0
  185.3730  179.5020  138.7650 O   0  0  0  0  0  1  0  0  0  0  0  0
  182.0520  176.9060  140.3340 C   0  0  1  0  0  3  0  0  0  0  0  0
  185.5150  178.4060  139.6180 C   0  0  1  0  0  3  0  0  0  0  0  0
  181.1210  177.6880  141.2400 C   0  0  2  0  0  3  0  0  0  0  0  0
  180.9330  179.3780  143.2180 C   0  0  2  0  0  3  0  0  0  0  0  0
  186.7390  178.6280  140.5200 C   0  0  2  0  0  3  0  0  0  0  0  0
  184.2640  178.1920  140.3710 N   0  0  0  0  0  0  0  0  0  0  0  0
  186.5320  178.2530  146.1480 C   0  0  0  0  0  3  0  0  0  0  0  0
  179.9630  178.0600  140.3440 C   0  0  0  0  0  2  0  0  0  0  0  0
  181.1040  176.2640  139.3370 C   0  0  0  0  0  2  0  0  0  0  0  0
  187.7880  177.7420  144.2180 F   0  0  0  0  0  0  0  0  0  0  0  0
  183.0720  178.8120  143.8560 C   0  0  0  0  0  0  0  0  0  0  0  0
  185.3340  178.6070  146.7700 C   0  0  0  0  0  3  0  0  0  0  0  0
  185.4340  178.2650  143.9690 C   0  0  0  0  0  0  0  0  0  0  0  0
  183.0730  178.6320  142.5040 C   0  0  0  0  0  0  0  0  0  0  0  0
  179.6370  178.6280  143.5000 C   0  0  0  0  0  1  0  0  0  0  0  0
  181.7170  178.9230  141.9450 C   0  0  1  0  0  3  0  0  0  0  0  0
  179.8710  177.0490  139.2950 N   0  0  0  0  0  2  0  0  0  0  0  0
  182.9480  178.0910  138.4400 O   0  0  0  0  0  0  0  0  0  0  0  0
  184.1810  178.7930  146.0100 C   0  0  0  0  0  3  0  0  0  0  0  0
  184.2190  178.6230  144.6240 C   0  0  0  0  0  0  0  0  0  0  0  0
  183.0940  177.7610  139.6500 C   0  0  0  0  0  0  0  0  0  0  0  0
  187.9890  178.3290  139.7590 C   0  0  0  0  0  3  0  0  0  0  0  0
  190.2750  177.4850  139.5830 C   0  0  0  0  0  1  0  0  0  0  0  0
  189.0390  177.7750  140.3600 C   0  0  0  0  0  3  0  0  0  0  0  0
  1 19  1  0  0  0  0
  2 13  1  0  0  0  0
  4 20  1  0  0  0  0
  4  1  2  0  0  0  0
  5  1  1  0  0  0  0
  7 15  1  6  0  0  0
  7  9  1  0  0  0  0
  8  6  1  6  0  0  0
  8 12  1  0  0  0  0
  8 11  1  0  0  0  0
  9 14  1  6  0  0  0
  9 22  1  0  0  0  0
 10 21  1  1  0  0  0
 10  3  1  0  0  0  0
 11 28  1  6  0  0  0
 11  5  1  0  0  0  0
 12  4  1  0  0  0  0
 13 18  2  0  0  0  0
 16  2  1  0  0  0  0
 17  3  1  0  0  0  0
 17 26  1  0  0  0  0
 19 26  1  0  0  0  0
 19  2  2  0  0  0  0
 20 17  2  0  0  0  0
 22 20  1  1  0  0  0
 22 10  1  0  0  0  0
 23 15  1  0  0  0  0
 23 14  1  0  0  0  0
 24 27  2  0  0  0  0
 25 18  1  0  0  0  0
 26 25  2  0  0  0  0
 27  7  1  0  0  0  0
 27 12  1  0  0  0  0
 28 30  2  0  0  0  0
 29 30  1  0  0  0  0
M  END
>  <MODEL>
6

>  <REMARK>
 VINA RESULT:      -9.1      2.618      6.352
  Name = 
  1 active torsions:
  status: ('A' for Active; 'I' for Inactive)
    1  A    between atoms: C_11  and  C_28
                            x       y       z     vdW  Elec       q    Type
                         _______ _______ _______ _____ _____    ______ ____

>  <TORSDO>
F 1

$$$$
=
 OpenBabel11122410313D

 30 35  0  0  1  0  0  0  0  0999 V2000
  188.9470  177.3590  139.8280 C   0  0  0  0  0  0  0  0  0  0  0  0
  190.6350  176.6720  138.1220 C   0  0  0  0  0  0  0  0  0  0  0  0
  191.8990  178.0070  142.6760 O   0  0  0  0  0  0  0  0  0  0  0  0
  188.6610  177.7650  141.1490 C   0  0  0  0  0  0  0  0  0  0  0  0
  187.7810  177.1980  138.9010 C   0  0  0  0  0  2  0  0  0  0  0  0
  185.8370  179.7400  140.7720 O   0  0  0  0  0  1  0  0  0  0  0  0
  187.5750  176.8980  143.7950 C   0  0  1  0  0  3  0  0  0  0  0  0
  186.2970  178.4460  140.5200 C   0  0  1  0  0  3  0  0  0  0  0  0
  188.8830  177.4210  144.3560 C   0  0  2  0  0  3  0  0  0  0  0  0
  191.1980  178.4960  143.8180 C   0  0  2  0  0  3  0  0  0  0  0  0
  186.8290  178.3750  139.0800 C   0  0  2  0  0  3  0  0  0  0  0  0
  187.2990  178.0630  141.5330 N   0  0  0  0  0  0  0  0  0  0  0  0
  191.9740  176.4500  137.7840 C   0  0  0  0  0  3  0  0  0  0  0  0
  188.4910  178.0590  145.6690 C   0  0  0  0  0  2  0  0  0  0  0  0
  186.7660  176.5860  145.0410 C   0  0  0  0  0  2  0  0  0  0  0  0
  189.6990  176.4650  137.1630 F   0  0  0  0  0  0  0  0  0  0  0  0
  191.0160  177.7180  141.6590 C   0  0  0  0  0  0  0  0  0  0  0  0
  192.9880  176.6480  138.7230 C   0  0  0  0  0  3  0  0  0  0  0  0
  190.2900  177.0990  139.4270 C   0  0  0  0  0  0  0  0  0  0  0  0
  189.7240  177.9230  142.0450 C   0  0  0  0  0  0  0  0  0  0  0  0
  191.6400  177.7330  145.0600 C   0  0  0  0  0  1  0  0  0  0  0  0
  189.6790  178.3940  143.4630 C   0  0  1  0  0  3  0  0  0  0  0  0
  187.2900  177.3840  146.1490 N   0  0  0  0  0  2  0  0  0  0  0  0
  185.8770  178.5410  143.3290 O   0  0  0  0  0  0  0  0  0  0  0  0
  192.6710  177.0690  140.0130 C   0  0  0  0  0  3  0  0  0  0  0  0
  191.3400  177.2920  140.3720 C   0  0  0  0  0  0  0  0  0  0  0  0
  186.8630  177.8830  142.8940 C   0  0  0  0  0  0  0  0  0  0  0  0
  185.6860  178.2670  138.1240 C   0  0  0  0  0  3  0  0  0  0  0  0
  184.4660  177.1700  136.3130 C   0  0  0  0  0  1  0  0  0  0  0  0
  185.6130  177.2590  137.2580 C   0  0  0  0  0  3  0  0  0  0  0  0
  1  4  1  0  0  0  0
  2 19  1  0  0  0  0
  3 10  1  0  0  0  0
  4 12  1  0  0  0  0
  4 20  2  0  0  0  0
  5 11  1  0  0  0  0
  5  1  1  0  0  0  0
  7  9  1  0  0  0  0
  7 15  1  1  0  0  0
  8  6  1  1  0  0  0
  8 12  1  0  0  0  0
  9 14  1  1  0  0  0
 10 21  1  1  0  0  0
 11 28  1  6  0  0  0
 11  8  1  0  0  0  0
 12 27  1  0  0  0  0
 13  2  2  0  0  0  0
 13 18  1  0  0  0  0
 14 23  1  0  0  0  0
 15 23  1  0  0  0  0
 16  2  1  0  0  0  0
 17 20  1  0  0  0  0
 17  3  1  0  0  0  0
 18 25  2  0  0  0  0
 19  1  2  0  0  0  0
 19 26  1  0  0  0  0
 22 20  1  6  0  0  0
 22 10  1  0  0  0  0
 22  9  1  0  0  0  0
 25 26  1  0  0  0  0
 26 17  2  0  0  0  0
 27 24  2  0  0  0  0
 27  7  1  0  0  0  0
 29 30  1  0  0  0  0
 30 28  2  0  0  0  0
M  END
>  <MODEL>
7

>  <REMARK>
 VINA RESULT:      -8.6      3.325      6.247
  Name = 
  1 active torsions:
  status: ('A' for Active; 'I' for Inactive)
    1  A    between atoms: C_11  and  C_28
                            x       y       z     vdW  Elec       q    Type
                         _______ _______ _______ _____ _____    ______ ____

>  <TORSDO>
F 1

$$$$
=
 OpenBabel11122410313D

 30 35  0  0  1  0  0  0  0  0999 V2000
  189.5280  177.0520  143.5020 C   0  0  0  0  0  0  0  0  0  0  0  0
  191.2690  175.9700  144.9280 C   0  0  0  0  0  0  0  0  0  0  0  0
  187.4440  178.3910  146.8360 O   0  0  0  0  0  0  0  0  0  0  0  0
  188.3170  177.7700  143.4110 C   0  0  0  0  0  0  0  0  0  0  0  0
  190.1850  176.6640  142.2130 C   0  0  0  0  0  2  0  0  0  0  0  0
  188.6950  179.5830  140.4800 O   0  0  0  0  0  1  0  0  0  0  0  0
  185.3980  177.5790  142.7950 C   0  0  1  0  0  3  0  0  0  0  0  0
  188.6970  178.2680  140.9510 C   0  0  1  0  0  3  0  0  0  0  0  0
  185.2030  178.2290  144.1510 C   0  0  2  0  0  3  0  0  0  0  0  0
  186.3570  179.1450  146.3030 C   0  0  2  0  0  3  0  0  0  0  0  0
  190.1430  177.8450  141.2510 C   0  0  2  0  0  3  0  0  0  0  0  0
  187.7990  178.1500  142.1150 N   0  0  0  0  0  0  0  0  0  0  0  0
  191.7570  175.6760  146.2060 C   0  0  0  0  0  3  0  0  0  0  0  0
  184.0390  179.1690  143.9440 C   0  0  0  0  0  2  0  0  0  0  0  0
  183.9990  177.5820  142.2070 C   0  0  0  0  0  2  0  0  0  0  0  0
  191.9820  175.5300  143.8620 F   0  0  0  0  0  0  0  0  0  0  0  0
  188.2030  177.8580  145.8170 C   0  0  0  0  0  0  0  0  0  0  0  0
  191.0730  176.1030  147.3450 C   0  0  0  0  0  3  0  0  0  0  0  0
  190.0680  176.7050  144.7760 C   0  0  0  0  0  0  0  0  0  0  0  0
  187.6720  178.1480  144.5940 C   0  0  0  0  0  0  0  0  0  0  0  0
  185.0570  178.7120  146.9680 C   0  0  0  0  0  1  0  0  0  0  0  0
  186.4230  178.9540  144.7530 C   0  0  1  0  0  3  0  0  0  0  0  0
  183.2190  178.6300  142.8630 N   0  0  0  0  0  2  0  0  0  0  0  0
  185.9650  179.0510  140.9750 O   0  0  0  0  0  0  0  0  0  0  0  0
  189.8890  176.8290  147.2190 C   0  0  0  0  0  3  0  0  0  0  0  0
  189.3830  177.1290  145.9520 C   0  0  0  0  0  0  0  0  0  0  0  0
  186.3820  178.3090  141.9080 C   0  0  0  0  0  0  0  0  0  0  0  0
  190.8450  177.5020  139.9780 C   0  0  0  0  0  3  0  0  0  0  0  0
  191.2480  176.0730  138.0370 C   0  0  0  0  0  1  0  0  0  0  0  0
  190.5360  176.3970  139.3040 C   0  0  0  0  0  3  0  0  0  0  0  0
  1 19  1  0  0  0  0
  2 13  1  0  0  0  0
  4  1  2  0  0  0  0
  4 20  1  0  0  0  0
  5  1  1  0  0  0  0
  7 15  1  6  0  0  0
  7  9  1  0  0  0  0
  8  6  1  1  0  0  0
  8 11  1  0  0  0  0
  8 12  1  0  0  0  0
  9 14  1  6  0  0  0
  9 22  1  0  0  0  0
 10  3  1  0  0  0  0
 10 21  1  1  0  0  0
 11 28  1  6  0  0  0
 11  5  1  0  0  0  0
 12  4  1  0  0  0  0
 13 18  2  0  0  0  0
 15 23  1  0  0  0  0
 16  2  1  0  0  0  0
 17 26  1  0  0  0  0
 17  3  1  0  0  0  0
 19  2  2  0  0  0  0
 19 26  1  0  0  0  0
 20 17  2  0  0  0  0
 22 20  1  1  0  0  0
 22 10  1  0  0  0  0
 23 14  1  0  0  0  0
 24 27  2  0  0  0  0
 25 18  1  0  0  0  0
 26 25  2  0  0  0  0
 27 12  1  0  0  0  0
 27  7  1  0  0  0  0
 29 30  1  0  0  0  0
 30 28  2  0  0  0  0
M  END
>  <MODEL>
8

>  <REMARK>
 VINA RESULT:      -8.5      2.351      5.702
  Name = 
  1 active torsions:
  status: ('A' for Active; 'I' for Inactive)
    1  A    between atoms: C_11  and  C_28
                            x       y       z     vdW  Elec       q    Type
                         _______ _______ _______ _____ _____    ______ ____

>  <TORSDO>
F 1

$$$$
=
 OpenBabel11122410313D

 30 35  0  0  1  0  0  0  0  0999 V2000
  187.7480  177.9050  141.7640 C   0  0  0  0  0  0  0  0  0  0  0  0
  186.1740  178.7710  140.0300 C   0  0  0  0  0  0  0  0  0  0  0  0
  184.7570  177.8750  144.6470 O   0  0  0  0  0  0  0  0  0  0  0  0
  187.9780  177.5230  143.1030 C   0  0  0  0  0  0  0  0  0  0  0  0
  188.9150  177.8330  140.8280 C   0  0  0  0  0  2  0  0  0  0  0  0
  190.4470  175.1060  142.8180 O   0  0  0  0  0  1  0  0  0  0  0  0
  189.2140  178.3310  145.7020 C   0  0  1  0  0  3  0  0  0  0  0  0
  190.1970  176.4440  142.5040 C   0  0  1  0  0  3  0  0  0  0  0  0
  187.8440  178.0510  146.2900 C   0  0  2  0  0  3  0  0  0  0  0  0
  185.3830  177.3350  145.8090 C   0  0  2  0  0  3  0  0  0  0  0  0
  189.6690  176.5300  141.0640 C   0  0  2  0  0  3  0  0  0  0  0  0
  189.2790  177.0290  143.4990 N   0  0  0  0  0  0  0  0  0  0  0  0
  184.8840  179.1870  139.6840 C   0  0  0  0  0  3  0  0  0  0  0  0
  188.1420  177.4230  147.6310 C   0  0  0  0  0  2  0  0  0  0  0  0
  190.0740  178.5700  146.9300 C   0  0  0  0  0  2  0  0  0  0  0  0
  187.1220  178.7790  139.0600 F   0  0  0  0  0  0  0  0  0  0  0  0
  185.6660  177.9690  143.6140 C   0  0  0  0  0  0  0  0  0  0  0  0
  183.8610  179.1980  140.6330 C   0  0  0  0  0  3  0  0  0  0  0  0
  186.4590  178.3570  141.3540 C   0  0  0  0  0  0  0  0  0  0  0  0
  186.9120  177.5790  144.0080 C   0  0  0  0  0  0  0  0  0  0  0  0
  185.0800  178.2180  147.0130 C   0  0  0  0  0  1  0  0  0  0  0  0
  186.8950  177.1760  145.4470 C   0  0  1  0  0  3  0  0  0  0  0  0
  189.4410  177.9200  148.0760 N   0  0  0  0  0  2  0  0  0  0  0  0
  190.6230  176.4180  145.3140 O   0  0  0  0  0  0  0  0  0  0  0  0
  184.1190  178.7940  141.9430 C   0  0  0  0  0  3  0  0  0  0  0  0
  185.4010  178.3790  142.3090 C   0  0  0  0  0  0  0  0  0  0  0  0
  189.7500  177.2040  144.8490 C   0  0  0  0  0  0  0  0  0  0  0  0
  190.8050  176.4070  140.1000 C   0  0  0  0  0  3  0  0  0  0  0  0
  191.7590  176.4540  137.8520 C   0  0  0  0  0  1  0  0  0  0  0  0
  190.6140  176.5810  138.7950 C   0  0  0  0  0  3  0  0  0  0  0  0
  1  4  1  0  0  0  0
  2 19  1  0  0  0  0
  3 10  1  0  0  0  0
  4 12  1  0  0  0  0
  4 20  2  0  0  0  0
  5 11  1  0  0  0  0
  5  1  1  0  0  0  0
  7  9  1  0  0  0  0
  7 15  1  1  0  0  0
  8  6  1  1  0  0  0
  8 12  1  0  0  0  0
  9 14  1  1  0  0  0
 10 21  1  1  0  0  0
 11 28  1  6  0  0  0
 11  8  1  0  0  0  0
 12 27  1  0  0  0  0
 13  2  2  0  0  0  0
 13 18  1  0  0  0  0
 14 23  1  0  0  0  0
 15 23  1  0  0  0  0
 16  2  1  0  0  0  0
 17 20  1  0  0  0  0
 17  3  1  0  0  0  0
 18 25  2  0  0  0  0
 19  1  2  0  0  0  0
 19 26  1  0  0  0  0
 22 20  1  6  0  0  0
 22 10  1  0  0  0  0
 22  9  1  0  0  0  0
 25 26  1  0  0  0  0
 26 17  2  0  0  0  0
 27 24  2  0  0  0  0
 27  7  1  0  0  0  0
 29 30  1  0  0  0  0
 30 28  2  0  0  0  0
M  END
>  <MODEL>
9

>  <REMARK>
 VINA RESULT:      -8.0      2.610      6.839
  Name = 
  1 active torsions:
  status: ('A' for Active; 'I' for Inactive)
    1  A    between atoms: C_11  and  C_28
                            x       y       z     vdW  Elec       q    Type
                         _______ _______ _______ _____ _____    ______ ____

>  <TORSDO>
F 1

$$$$
