=
 OpenBabel11122411533D

 28 31  0  0  1  0  0  0  0  0999 V2000
  180.8720  178.6360  138.4090 C   0  0  0  0  0  0  0  0  0  0  0  0
  184.5460  180.1560  139.3350 O   0  0  0  0  0  0  0  0  0  0  0  0
  179.7960  178.6340  140.9940 C   0  0  0  0  0  3  0  0  0  0  0  0
  181.4120  178.6300  137.1230 O   0  0  0  0  0  0  0  0  0  0  0  0
  185.0350  178.2210  140.7750 O   0  0  0  0  0  0  0  0  0  0  0  0
  184.9580  178.7110  139.3550 S   0  0  0  0  0  0  0  0  0  0  0  0
  186.2840  178.3310  137.1390 C   0  0  1  0  0  3  0  0  0  0  0  0
  183.8170  177.7370  138.4100 C   0  0  1  0  0  3  0  0  0  0  0  0
  178.9310  176.8490  136.4970 O   0  0  0  0  0  1  0  0  0  0  0  0
  182.5010  175.7460  138.3960 C   0  0  2  0  0  3  0  0  0  0  0  0
  185.5800  176.9950  136.7990 C   0  0  0  0  0  2  0  0  0  0  0  0
  186.5050  178.5150  138.5800 N   0  0  0  0  0  2  0  0  0  0  0  0
  180.1260  177.0440  135.8000 C   0  0  2  0  0  3  0  0  0  0  0  0
  181.5150  177.9170  139.4370 C   0  0  0  0  0  0  0  0  0  0  0  0
  187.6040  178.4110  136.4050 C   0  0  0  0  0  1  0  0  0  0  0  0
  181.1890  176.0060  136.1840 C   0  0  0  0  0  2  0  0  0  0  0  0
  180.9660  177.9190  140.7240 C   0  0  0  0  0  3  0  0  0  0  0  0
  179.6910  179.3390  138.6830 C   0  0  0  0  0  3  0  0  0  0  0  0
  179.1560  179.3400  139.9730 C   0  0  0  0  0  3  0  0  0  0  0  0
  180.6150  178.4840  135.9550 C   0  0  0  0  0  2  0  0  0  0  0  0
  183.6430  175.5520  137.4870 N   0  0  0  0  0  0  0  0  0  0  0  0
  181.1450  175.6200  137.6700 C   0  0  1  0  0  3  0  0  0  0  0  0
  184.6000  176.5700  137.8950 C   0  0  2  0  0  3  0  0  0  0  0  0
  182.7280  177.0560  139.1850 C   0  0  2  0  0  3  0  0  0  0  0  0
  180.0080  174.2960  139.0310 C   0  0  0  0  0  1  0  0  0  0  0  0
  180.6630  174.3170  137.7980 O   0  0  0  0  0  0  0  0  0  0  0  0
  184.2310  174.2620  137.8080 C   0  0  0  0  0  2  0  0  0  0  0  0
  183.9240  173.2680  136.7040 C   0  0  0  0  0  1  0  0  0  0  0  0
  1 18  2  0  0  0  0
  1 14  1  0  0  0  0
  2  6  2  0  0  0  0
  4  1  1  0  0  0  0
  6  5  2  0  0  0  0
  7 15  1  6  0  0  0
  7 12  1  0  0  0  0
  8 24  1  0  0  0  0
  8  6  1  1  0  0  0
 10 21  1  6  0  0  0
 10 24  1  0  0  0  0
 11  7  1  0  0  0  0
 12  6  1  0  0  0  0
 13 20  1  0  0  0  0
 13 16  1  0  0  0  0
 13  9  1  1  0  0  0
 14 17  2  0  0  0  0
 16 22  1  0  0  0  0
 17  3  1  0  0  0  0
 18 19  1  0  0  0  0
 19  3  2  0  0  0  0
 20  4  1  0  0  0  0
 21 27  1  0  0  0  0
 21 23  1  0  0  0  0
 22 26  1  6  0  0  0
 22 10  1  0  0  0  0
 23 11  1  6  0  0  0
 23  8  1  0  0  0  0
 24 14  1  6  0  0  0
 26 25  1  0  0  0  0
 28 27  1  0  0  0  0
M  END
>  <MODEL>
1

>  <REMARK>
 VINA RESULT:      -4.8      0.000      0.000
  Name = 
  2 active torsions:
  status: ('A' for Active; 'I' for Inactive)
    1  A    between atoms: C_5  and  N_24
    2  A    between atoms: O_17  and  C_25
                            x       y       z     vdW  Elec       q    Type
                         _______ _______ _______ _____ _____    ______ ____

>  <TORSDO>
F 2

$$$$
=
 OpenBabel11122411533D

 28 31  0  0  1  0  0  0  0  0999 V2000
  183.4440  175.8790  138.0240 C   0  0  0  0  0  0  0  0  0  0  0  0
  184.5280  177.4760  141.6220 O   0  0  0  0  0  0  0  0  0  0  0  0
  185.8260  176.3920  136.6450 C   0  0  0  0  0  3  0  0  0  0  0  0
  182.2560  175.6310  138.7110 O   0  0  0  0  0  0  0  0  0  0  0  0
  184.8040  179.7000  140.6040 O   0  0  0  0  0  0  0  0  0  0  0  0
  183.8090  178.6940  141.1140 S   0  0  0  0  0  0  0  0  0  0  0  0
  181.5360  178.7500  142.3970 C   0  0  1  0  0  3  0  0  0  0  0  0
  182.6600  178.2380  139.8420 C   0  0  1  0  0  3  0  0  0  0  0  0
  181.1640  175.0560  135.8480 O   0  0  0  0  0  1  0  0  0  0  0  0
  181.8620  178.7710  137.6570 C   0  0  2  0  0  3  0  0  0  0  0  0
  180.6910  179.0670  141.1400 C   0  0  0  0  0  2  0  0  0  0  0  0
  182.8530  179.4020  142.3850 N   0  0  0  0  0  2  0  0  0  0  0  0
  180.5040  175.3290  137.0490 C   0  0  2  0  0  3  0  0  0  0  0  0
  183.9210  177.2010  137.9120 C   0  0  0  0  0  0  0  0  0  0  0  0
  180.7750  179.1570  143.6390 C   0  0  0  0  0  1  0  0  0  0  0  0
  180.2170  176.8270  137.2170 C   0  0  0  0  0  2  0  0  0  0  0  0
  185.1090  177.4460  137.2170 C   0  0  0  0  0  3  0  0  0  0  0  0
  184.1610  174.8270  137.4370 C   0  0  0  0  0  3  0  0  0  0  0  0
  185.3500  175.0830  136.7520 C   0  0  0  0  0  3  0  0  0  0  0  0
  181.2650  174.7310  138.2330 C   0  0  0  0  0  2  0  0  0  0  0  0
  180.8390  179.1770  138.6360 N   0  0  0  0  0  0  0  0  0  0  0  0
  181.3340  177.7210  136.6580 C   0  0  1  0  0  3  0  0  0  0  0  0
  181.5620  179.2540  139.8970 C   0  0  2  0  0  3  0  0  0  0  0  0
  183.1450  178.3870  138.4300 C   0  0  2  0  0  3  0  0  0  0  0  0
  181.9390  178.2400  134.5940 C   0  0  0  0  0  1  0  0  0  0  0  0
  180.8840  178.3580  135.5000 O   0  0  0  0  0  0  0  0  0  0  0  0
  180.4340  180.5310  138.2950 C   0  0  0  0  0  2  0  0  0  0  0  0
  181.6300  181.4600  138.3660 C   0  0  0  0  0  1  0  0  0  0  0  0
  1  4  1  0  0  0  0
  3 19  2  0  0  0  0
  3 17  1  0  0  0  0
  5  6  2  0  0  0  0
  6  2  2  0  0  0  0
  6 12  1  0  0  0  0
  7 15  1  1  0  0  0
  8 23  1  0  0  0  0
  8  6  1  1  0  0  0
 10 24  1  0  0  0  0
 10 21  1  1  0  0  0
 11  7  1  0  0  0  0
 12  7  1  0  0  0  0
 13  9  1  6  0  0  0
 13 16  1  0  0  0  0
 13 20  1  0  0  0  0
 14  1  1  0  0  0  0
 17 14  2  0  0  0  0
 18  1  2  0  0  0  0
 19 18  1  0  0  0  0
 20  4  1  0  0  0  0
 21 23  1  0  0  0  0
 22 26  1  6  0  0  0
 22 16  1  0  0  0  0
 22 10  1  0  0  0  0
 23 11  1  1  0  0  0
 24 14  1  6  0  0  0
 24  8  1  0  0  0  0
 25 26  1  0  0  0  0
 27 28  1  0  0  0  0
 27 21  1  0  0  0  0
M  END
>  <MODEL>
2

>  <REMARK>
 VINA RESULT:      -4.3      2.039      5.239
  Name = 
  2 active torsions:
  status: ('A' for Active; 'I' for Inactive)
    1  A    between atoms: C_5  and  N_24
    2  A    between atoms: O_17  and  C_25
                            x       y       z     vdW  Elec       q    Type
                         _______ _______ _______ _____ _____    ______ ____

>  <TORSDO>
F 2

$$$$
=
 OpenBabel11122411533D

 28 31  0  0  1  0  0  0  0  0999 V2000
  182.5420  177.7580  137.5550 C   0  0  0  0  0  0  0  0  0  0  0  0
  181.2890  180.3240  134.6370 O   0  0  0  0  0  0  0  0  0  0  0  0
  181.2230  175.4640  136.6400 C   0  0  0  0  0  3  0  0  0  0  0  0
  183.1930  178.9030  138.0130 O   0  0  0  0  0  0  0  0  0  0  0  0
  178.9410  180.0120  135.3060 O   0  0  0  0  0  0  0  0  0  0  0  0
  180.2370  180.6960  135.6440 S   0  0  0  0  0  0  0  0  0  0  0  0
  180.9720  183.0130  136.5970 C   0  0  1  0  0  3  0  0  0  0  0  0
  180.7750  180.2650  137.2770 C   0  0  1  0  0  3  0  0  0  0  0  0
  183.5870  177.1900  140.5880 O   0  0  0  0  0  1  0  0  0  0  0  0
  180.1400  179.2110  139.3220 C   0  0  2  0  0  3  0  0  0  0  0  0
  180.6970  182.6340  138.0720 C   0  0  0  0  0  2  0  0  0  0  0  0
  180.0060  182.4220  135.6610 N   0  0  0  0  0  2  0  0  0  0  0  0
  183.6830  178.5670  140.3730 C   0  0  2  0  0  3  0  0  0  0  0  0
  181.1410  177.7670  137.4030 C   0  0  0  0  0  0  0  0  0  0  0  0
  180.9710  184.5180  136.4500 C   0  0  0  0  0  1  0  0  0  0  0  0
  182.3540  179.2840  140.6540 C   0  0  0  0  0  2  0  0  0  0  0  0
  180.4920  176.6140  136.9490 C   0  0  0  0  0  3  0  0  0  0  0  0
  183.2690  176.5970  137.2550 C   0  0  0  0  0  3  0  0  0  0  0  0
  182.6110  175.4540  136.7960 C   0  0  0  0  0  3  0  0  0  0  0  0
  184.2360  178.8610  138.9780 C   0  0  0  0  0  2  0  0  0  0  0  0
  180.1690  180.6660  139.5410 N   0  0  0  0  0  0  0  0  0  0  0  0
  181.1260  178.4590  140.2410 C   0  0  1  0  0  3  0  0  0  0  0  0
  180.1020  181.2300  138.2010 C   0  0  2  0  0  3  0  0  0  0  0  0
  180.2920  178.9470  137.8060 C   0  0  2  0  0  3  0  0  0  0  0  0
  179.5990  177.0130  140.9300 C   0  0  0  0  0  1  0  0  0  0  0  0
  180.4580  178.0160  141.3840 O   0  0  0  0  0  0  0  0  0  0  0  0
  178.9320  181.0220  140.2160 C   0  0  0  0  0  2  0  0  0  0  0  0
  179.1760  181.1440  141.7070 C   0  0  0  0  0  1  0  0  0  0  0  0
  1  4  1  0  0  0  0
  2  6  2  0  0  0  0
  3 19  2  0  0  0  0
  3 17  1  0  0  0  0
  4 20  1  0  0  0  0
  5  6  2  0  0  0  0
  6 12  1  0  0  0  0
  7 15  1  1  0  0  0
  7 11  1  0  0  0  0
  8  6  1  6  0  0  0
  8 24  1  0  0  0  0
  8 23  1  0  0  0  0
 10 21  1  6  0  0  0
 10 22  1  0  0  0  0
 12  7  1  0  0  0  0
 13  9  1  6  0  0  0
 13 16  1  0  0  0  0
 14  1  1  0  0  0  0
 17 14  2  0  0  0  0
 18  1  2  0  0  0  0
 19 18  1  0  0  0  0
 20 13  1  0  0  0  0
 21 27  1  0  0  0  0
 22 16  1  0  0  0  0
 22 26  1  1  0  0  0
 23 11  1  1  0  0  0
 23 21  1  0  0  0  0
 24 14  1  1  0  0  0
 24 10  1  0  0  0  0
 25 26  1  0  0  0  0
 27 28  1  0  0  0  0
M  END
>  <MODEL>
3

>  <REMARK>
 VINA RESULT:      -4.3      3.280      6.033
  Name = 
  2 active torsions:
  status: ('A' for Active; 'I' for Inactive)
    1  A    between atoms: C_5  and  N_24
    2  A    between atoms: O_17  and  C_25
                            x       y       z     vdW  Elec       q    Type
                         _______ _______ _______ _____ _____    ______ ____

>  <TORSDO>
F 2

$$$$
=
 OpenBabel11122411533D

 28 31  0  0  1  0  0  0  0  0999 V2000
  183.1320  177.9250  140.9000 C   0  0  0  0  0  0  0  0  0  0  0  0
  181.0630  174.4160  141.1780 O   0  0  0  0  0  0  0  0  0  0  0  0
  182.4330  178.9800  143.3980 C   0  0  0  0  0  3  0  0  0  0  0  0
  183.4730  177.4010  139.6530 O   0  0  0  0  0  0  0  0  0  0  0  0
  178.9310  175.6340  141.3490 O   0  0  0  0  0  0  0  0  0  0  0  0
  180.0100  175.1660  140.4120 S   0  0  0  0  0  0  0  0  0  0  0  0
  180.1420  174.2550  137.9690 C   0  0  1  0  0  3  0  0  0  0  0  0
  180.7390  176.5340  139.5510 C   0  0  1  0  0  3  0  0  0  0  0  0
  184.4660  180.3080  139.1250 O   0  0  0  0  0  1  0  0  0  0  0  0
  180.5330  178.8610  139.0650 C   0  0  2  0  0  3  0  0  0  0  0  0
  180.0660  175.6530  137.3100 C   0  0  0  0  0  2  0  0  0  0  0  0
  179.3200  174.1450  139.1810 N   0  0  0  0  0  2  0  0  0  0  0  0
  184.1720  179.2610  138.2490 C   0  0  2  0  0  3  0  0  0  0  0  0
  181.7740  178.1180  141.2270 C   0  0  0  0  0  0  0  0  0  0  0  0
  179.7250  173.1990  136.9700 C   0  0  0  0  0  1  0  0  0  0  0  0
  182.7170  179.3150  137.7600 C   0  0  0  0  0  2  0  0  0  0  0  0
  181.4370  178.6500  142.4760 C   0  0  0  0  0  3  0  0  0  0  0  0
  184.1280  178.2700  141.8240 C   0  0  0  0  0  3  0  0  0  0  0  0
  183.7780  178.7940  143.0710 C   0  0  0  0  0  3  0  0  0  0  0  0
  184.5420  177.9140  138.8700 C   0  0  0  0  0  2  0  0  0  0  0  0
  180.1790  178.1030  137.8540 N   0  0  0  0  0  0  0  0  0  0  0  0
  181.7370  179.8000  138.8380 C   0  0  1  0  0  3  0  0  0  0  0  0
  179.8830  176.7650  138.3450 C   0  0  2  0  0  3  0  0  0  0  0  0
  180.6620  177.8650  140.2400 C   0  0  2  0  0  3  0  0  0  0  0  0
  180.3090  181.3670  139.4700 C   0  0  0  0  0  1  0  0  0  0  0  0
  181.2820  181.0780  138.5120 O   0  0  0  0  0  0  0  0  0  0  0  0
  178.9320  178.6570  137.3510 C   0  0  0  0  0  2  0  0  0  0  0  0
  179.1910  179.4270  136.0710 C   0  0  0  0  0  1  0  0  0  0  0  0
  1 14  2  0  0  0  0
  1 18  1  0  0  0  0
  4  1  1  0  0  0  0
  6  2  2  0  0  0  0
  6  5  2  0  0  0  0
  7 15  1  6  0  0  0
  7 12  1  0  0  0  0
  8 24  1  0  0  0  0
  8  6  1  1  0  0  0
 10 21  1  6  0  0  0
 10 24  1  0  0  0  0
 11  7  1  0  0  0  0
 12  6  1  0  0  0  0
 13 20  1  0  0  0  0
 13  9  1  1  0  0  0
 14 17  1  0  0  0  0
 16 13  1  0  0  0  0
 16 22  1  0  0  0  0
 17  3  2  0  0  0  0
 18 19  2  0  0  0  0
 19  3  1  0  0  0  0
 20  4  1  0  0  0  0
 21 23  1  0  0  0  0
 22 26  1  6  0  0  0
 22 10  1  0  0  0  0
 23 11  1  6  0  0  0
 23  8  1  0  0  0  0
 24 14  1  6  0  0  0
 26 25  1  0  0  0  0
 27 21  1  0  0  0  0
 28 27  1  0  0  0  0
M  END
>  <MODEL>
4

>  <REMARK>
 VINA RESULT:      -4.1      2.922      5.668
  Name = 
  2 active torsions:
  status: ('A' for Active; 'I' for Inactive)
    1  A    between atoms: C_5  and  N_24
    2  A    between atoms: O_17  and  C_25
                            x       y       z     vdW  Elec       q    Type
                         _______ _______ _______ _____ _____    ______ ____

>  <TORSDO>
F 2

$$$$
=
 OpenBabel11122411533D

 28 31  0  0  1  0  0  0  0  0999 V2000
  180.6420  179.4270  139.4530 C   0  0  0  0  0  0  0  0  0  0  0  0
  179.5470  177.2230  136.1950 O   0  0  0  0  0  0  0  0  0  0  0  0
  180.3380  181.9680  138.3160 C   0  0  0  0  0  3  0  0  0  0  0  0
  180.8000  178.1600  140.0150 O   0  0  0  0  0  0  0  0  0  0  0  0
  181.4310  178.1270  134.8930 O   0  0  0  0  0  0  0  0  0  0  0  0
  181.0290  177.1420  135.9560 S   0  0  0  0  0  0  0  0  0  0  0  0
  181.7190  174.7270  136.6680 C   0  0  1  0  0  3  0  0  0  0  0  0
  181.9080  177.4440  137.4650 C   0  0  1  0  0  3  0  0  0  0  0  0
  182.2860  179.7510  142.2460 O   0  0  0  0  0  1  0  0  0  0  0  0
  183.7110  178.6510  138.4610 C   0  0  2  0  0  3  0  0  0  0  0  0
  182.9730  175.1820  137.4530 C   0  0  0  0  0  2  0  0  0  0  0  0
  181.4710  175.5310  135.4640 N   0  0  0  0  0  2  0  0  0  0  0  0
  182.2920  178.3920  141.9230 C   0  0  2  0  0  3  0  0  0  0  0  0
  181.3680  179.7700  138.2940 C   0  0  0  0  0  0  0  0  0  0  0  0
  181.8560  173.2690  136.2910 C   0  0  0  0  0  1  0  0  0  0  0  0
  183.4310  178.0380  140.9560 C   0  0  0  0  0  2  0  0  0  0  0  0
  181.2120  181.0440  137.7370 C   0  0  0  0  0  3  0  0  0  0  0  0
  179.7770  180.3620  140.0360 C   0  0  0  0  0  3  0  0  0  0  0  0
  179.6230  181.6290  139.4670 C   0  0  0  0  0  3  0  0  0  0  0  0
  180.9190  177.9500  141.4150 C   0  0  0  0  0  2  0  0  0  0  0  0
  184.1080  177.2380  138.3440 N   0  0  0  0  0  0  0  0  0  0  0  0
  183.7100  179.1400  139.9240 C   0  0  1  0  0  3  0  0  0  0  0  0
  183.1970  176.6920  137.3490 C   0  0  2  0  0  3  0  0  0  0  0  0
  182.3920  178.8480  137.6790 C   0  0  2  0  0  3  0  0  0  0  0  0
  185.5430  178.9070  141.1410 C   0  0  0  0  0  1  0  0  0  0  0  0
  184.9290  179.7530  140.2160 O   0  0  0  0  0  0  0  0  0  0  0  0
  185.4390  177.2140  137.7600 C   0  0  0  0  0  2  0  0  0  0  0  0
  185.3540  177.4990  136.2730 C   0  0  0  0  0  1  0  0  0  0  0  0
  1  4  1  0  0  0  0
  1 18  1  0  0  0  0
  3 19  1  0  0  0  0
  4 20  1  0  0  0  0
  5  6  2  0  0  0  0
  6  2  2  0  0  0  0
  7 15  1  6  0  0  0
  7 11  1  0  0  0  0
  8  6  1  6  0  0  0
  8 24  1  0  0  0  0
 10 21  1  1  0  0  0
 10 22  1  0  0  0  0
 12  6  1  0  0  0  0
 12  7  1  0  0  0  0
 13  9  1  6  0  0  0
 14  1  2  0  0  0  0
 16 13  1  0  0  0  0
 17 14  1  0  0  0  0
 17  3  2  0  0  0  0
 19 18  2  0  0  0  0
 20 13  1  0  0  0  0
 22 26  1  1  0  0  0
 22 16  1  0  0  0  0
 23 11  1  1  0  0  0
 23  8  1  0  0  0  0
 23 21  1  0  0  0  0
 24 14  1  1  0  0  0
 24 10  1  0  0  0  0
 26 25  1  0  0  0  0
 27 21  1  0  0  0  0
 28 27  1  0  0  0  0
M  END
>  <MODEL>
5

>  <REMARK>
 VINA RESULT:      -4.1      2.215      4.925
  Name = 
  2 active torsions:
  status: ('A' for Active; 'I' for Inactive)
    1  A    between atoms: C_5  and  N_24
    2  A    between atoms: O_17  and  C_25
                            x       y       z     vdW  Elec       q    Type
                         _______ _______ _______ _____ _____    ______ ____

>  <TORSDO>
F 2

$$$$
=
 OpenBabel11122411533D

 28 31  0  0  1  0  0  0  0  0999 V2000
  182.5340  178.3750  137.0110 C   0  0  0  0  0  0  0  0  0  0  0  0
  186.5210  179.2540  137.0180 O   0  0  0  0  0  0  0  0  0  0  0  0
  181.9050  179.4290  139.5280 C   0  0  0  0  0  3  0  0  0  0  0  0
  182.8500  177.8440  135.7610 O   0  0  0  0  0  0  0  0  0  0  0  0
  186.8820  177.8160  138.9820 O   0  0  0  0  0  0  0  0  0  0  0  0
  186.6660  177.8370  137.4940 S   0  0  0  0  0  0  0  0  0  0  0  0
  187.5290  176.4910  135.4300 C   0  0  1  0  0  3  0  0  0  0  0  0
  185.2330  176.8930  137.0490 C   0  0  1  0  0  3  0  0  0  0  0  0
  180.0240  176.5540  136.0140 O   0  0  0  0  0  1  0  0  0  0  0  0
  183.5980  175.3440  137.8390 C   0  0  2  0  0  3  0  0  0  0  0  0
  186.5520  175.3080  135.6340 C   0  0  0  0  0  2  0  0  0  0  0  0
  188.0080  177.0680  136.6930 N   0  0  0  0  0  2  0  0  0  0  0  0
  181.1060  176.2480  135.1860 C   0  0  2  0  0  3  0  0  0  0  0  0
  183.1950  177.8950  138.1600 C   0  0  0  0  0  0  0  0  0  0  0  0
  188.7060  176.0400  134.5940 C   0  0  0  0  0  1  0  0  0  0  0  0
  182.0150  175.1760  135.8020 C   0  0  0  0  0  2  0  0  0  0  0  0
  182.8710  178.4250  139.4120 C   0  0  0  0  0  3  0  0  0  0  0  0
  181.5570  179.3730  137.1350 C   0  0  0  0  0  3  0  0  0  0  0  0
  181.2460  179.9000  138.3910 C   0  0  0  0  0  3  0  0  0  0  0  0
  181.8630  177.5170  134.7920 C   0  0  0  0  0  2  0  0  0  0  0  0
  184.5250  174.6250  136.9500 N   0  0  0  0  0  0  0  0  0  0  0  0
  182.1420  175.2990  137.3280 C   0  0  1  0  0  3  0  0  0  0  0  0
  185.7020  175.4800  136.8950 C   0  0  2  0  0  3  0  0  0  0  0  0
  184.1790  176.7520  138.1070 C   0  0  2  0  0  3  0  0  0  0  0  0
  180.7450  174.8360  138.9800 C   0  0  0  0  0  1  0  0  0  0  0  0
  181.4620  174.2450  137.9390 O   0  0  0  0  0  0  0  0  0  0  0  0
  184.9180  173.4050  137.6380 C   0  0  0  0  0  2  0  0  0  0  0  0
  184.2370  172.2120  136.9970 C   0  0  0  0  0  1  0  0  0  0  0  0
  1 18  2  0  0  0  0
  1 14  1  0  0  0  0
  2  6  2  0  0  0  0
  4  1  1  0  0  0  0
  6  5  2  0  0  0  0
  7 15  1  6  0  0  0
  7 11  1  0  0  0  0
  7 12  1  0  0  0  0
  8  6  1  1  0  0  0
  8 24  1  0  0  0  0
 10 21  1  6  0  0  0
 10 24  1  0  0  0  0
 12  6  1  0  0  0  0
 13 16  1  0  0  0  0
 13  9  1  1  0  0  0
 14 17  2  0  0  0  0
 16 22  1  0  0  0  0
 17  3  1  0  0  0  0
 18 19  1  0  0  0  0
 19  3  2  0  0  0  0
 20 13  1  0  0  0  0
 20  4  1  0  0  0  0
 21 27  1  0  0  0  0
 22 10  1  0  0  0  0
 22 26  1  1  0  0  0
 23 11  1  6  0  0  0
 23 21  1  0  0  0  0
 23  8  1  0  0  0  0
 24 14  1  6  0  0  0
 26 25  1  0  0  0  0
 28 27  1  0  0  0  0
M  END
>  <MODEL>
6

>  <REMARK>
 VINA RESULT:      -4.0      1.784      2.102
  Name = 
  2 active torsions:
  status: ('A' for Active; 'I' for Inactive)
    1  A    between atoms: C_5  and  N_24
    2  A    between atoms: O_17  and  C_25
                            x       y       z     vdW  Elec       q    Type
                         _______ _______ _______ _____ _____    ______ ____

>  <TORSDO>
F 2

$$$$
=
 OpenBabel11122411533D

 28 31  0  0  1  0  0  0  0  0999 V2000
  182.9600  176.1880  137.1220 C   0  0  0  0  0  0  0  0  0  0  0  0
  186.0310  178.2660  138.8320 O   0  0  0  0  0  0  0  0  0  0  0  0
  182.8910  177.5500  134.6770 C   0  0  0  0  0  3  0  0  0  0  0  0
  182.9910  175.5150  138.3440 O   0  0  0  0  0  0  0  0  0  0  0  0
  184.7370  180.3570  138.7240 O   0  0  0  0  0  0  0  0  0  0  0  0
  184.9240  179.0610  139.4650 S   0  0  0  0  0  0  0  0  0  0  0  0
  184.8160  178.2580  141.9460 C   0  0  1  0  0  3  0  0  0  0  0  0
  183.4230  178.1170  139.4780 C   0  0  1  0  0  3  0  0  0  0  0  0
  180.2460  174.4030  137.3710 O   0  0  0  0  0  1  0  0  0  0  0  0
  181.0840  178.1700  139.0070 C   0  0  2  0  0  3  0  0  0  0  0  0
  183.2730  178.1420  141.9740 C   0  0  0  0  0  2  0  0  0  0  0  0
  185.2950  179.3850  141.1350 N   0  0  0  0  0  2  0  0  0  0  0  0
  180.8250  174.4460  138.6420 C   0  0  2  0  0  3  0  0  0  0  0  0
  182.7530  177.5820  137.1000 C   0  0  0  0  0  0  0  0  0  0  0  0
  185.3420  178.3850  143.3590 C   0  0  0  0  0  1  0  0  0  0  0  0
  180.4150  175.7070  139.4160 C   0  0  0  0  0  2  0  0  0  0  0  0
  182.7160  178.2510  135.8730 C   0  0  0  0  0  3  0  0  0  0  0  0
  183.1220  175.4870  135.9190 C   0  0  0  0  0  3  0  0  0  0  0  0
  183.0900  176.1670  134.7000 C   0  0  0  0  0  3  0  0  0  0  0  0
  182.3420  174.2680  138.5520 C   0  0  0  0  0  2  0  0  0  0  0  0
  181.2630  178.1760  140.4690 N   0  0  0  0  0  0  0  0  0  0  0  0
  180.2800  176.9470  138.5200 C   0  0  1  0  0  3  0  0  0  0  0  0
  182.6420  178.6020  140.6580 C   0  0  2  0  0  3  0  0  0  0  0  0
  182.4680  178.3770  138.3500 C   0  0  2  0  0  3  0  0  0  0  0  0
  178.9310  178.5090  137.7220 C   0  0  0  0  0  1  0  0  0  0  0  0
  178.9320  177.2880  138.3990 O   0  0  0  0  0  0  0  0  0  0  0  0
  180.4150  179.2320  140.9990 C   0  0  0  0  0  2  0  0  0  0  0  0
  179.1160  178.6390  141.5110 C   0  0  0  0  0  1  0  0  0  0  0  0
  1  4  1  0  0  0  0
  2  6  2  0  0  0  0
  3 19  2  0  0  0  0
  3 17  1  0  0  0  0
  4 20  1  0  0  0  0
  5  6  2  0  0  0  0
  6 12  1  0  0  0  0
  7 11  1  0  0  0  0
  7 15  1  1  0  0  0
  8  6  1  6  0  0  0
  8 23  1  0  0  0  0
 10 21  1  1  0  0  0
 12  7  1  0  0  0  0
 13  9  1  6  0  0  0
 13 16  1  0  0  0  0
 14  1  1  0  0  0  0
 17 14  2  0  0  0  0
 18  1  2  0  0  0  0
 19 18  1  0  0  0  0
 20 13  1  0  0  0  0
 21 23  1  0  0  0  0
 21 27  1  0  0  0  0
 22 26  1  1  0  0  0
 22 10  1  0  0  0  0
 22 16  1  0  0  0  0
 23 11  1  1  0  0  0
 24 14  1  6  0  0  0
 24 10  1  0  0  0  0
 24  8  1  0  0  0  0
 25 26  1  0  0  0  0
 27 28  1  0  0  0  0
M  END
>  <MODEL>
7

>  <REMARK>
 VINA RESULT:      -4.0      2.243      4.652
  Name = 
  2 active torsions:
  status: ('A' for Active; 'I' for Inactive)
    1  A    between atoms: C_5  and  N_24
    2  A    between atoms: O_17  and  C_25
                            x       y       z     vdW  Elec       q    Type
                         _______ _______ _______ _____ _____    ______ ____

>  <TORSDO>
F 2

$$$$
=
 OpenBabel11122411533D

 28 31  0  0  1  0  0  0  0  0999 V2000
  189.5210  177.8690  138.6560 C   0  0  0  0  0  0  0  0  0  0  0  0
  193.6030  177.8180  138.7020 O   0  0  0  0  0  0  0  0  0  0  0  0
  189.0990  177.2590  141.3560 C   0  0  0  0  0  3  0  0  0  0  0  0
  189.7330  178.1650  137.3090 O   0  0  0  0  0  0  0  0  0  0  0  0
  193.6120  175.4450  139.3530 O   0  0  0  0  0  0  0  0  0  0  0  0
  193.4280  176.4080  138.2130 S   0  0  0  0  0  0  0  0  0  0  0  0
  194.0080  176.4740  135.6690 C   0  0  1  0  0  3  0  0  0  0  0  0
  191.8300  176.2130  137.4700 C   0  0  1  0  0  3  0  0  0  0  0  0
  186.6890  177.5300  137.0810 O   0  0  0  0  0  1  0  0  0  0  0  0
  189.8850  174.8340  137.3680 C   0  0  2  0  0  3  0  0  0  0  0  0
  192.7940  175.6140  135.2410 C   0  0  0  0  0  2  0  0  0  0  0  0
  194.5820  176.0600  136.9560 N   0  0  0  0  0  2  0  0  0  0  0  0
  187.6910  177.6030  136.1110 C   0  0  2  0  0  3  0  0  0  0  0  0
  190.0440  176.6770  139.1970 C   0  0  0  0  0  0  0  0  0  0  0  0
  195.0710  176.4230  134.5940 C   0  0  0  0  0  1  0  0  0  0  0  0
  188.3340  176.2350  135.8470 C   0  0  0  0  0  2  0  0  0  0  0  0
  189.8240  176.3810  140.5460 C   0  0  0  0  0  3  0  0  0  0  0  0
  188.7840  178.7400  139.4690 C   0  0  0  0  0  3  0  0  0  0  0  0
  188.5760  178.4370  140.8170 C   0  0  0  0  0  3  0  0  0  0  0  0
  188.7120  178.6840  136.4670 C   0  0  0  0  0  2  0  0  0  0  0  0
  190.6470  174.6530  136.1210 N   0  0  0  0  0  0  0  0  0  0  0  0
  188.4630  175.3760  137.1130 C   0  0  1  0  0  3  0  0  0  0  0  0
  191.9820  175.1320  136.4460 C   0  0  2  0  0  3  0  0  0  0  0  0
  190.7550  175.6500  138.3520 C   0  0  2  0  0  3  0  0  0  0  0  0
  187.0420  174.3610  135.7530 C   0  0  0  0  0  1  0  0  0  0  0  0
  187.5600  174.3130  137.0490 O   0  0  0  0  0  0  0  0  0  0  0  0
  190.7530  173.2220  135.8880 C   0  0  0  0  0  2  0  0  0  0  0  0
  190.0330  172.8550  134.6050 C   0  0  0  0  0  1  0  0  0  0  0  0
  1 14  2  0  0  0  0
  1 18  1  0  0  0  0
  4  1  1  0  0  0  0
  6  2  2  0  0  0  0
  6  5  2  0  0  0  0
  7 15  1  6  0  0  0
  7 12  1  0  0  0  0
  8  6  1  1  0  0  0
  8 24  1  0  0  0  0
 10 21  1  6  0  0  0
 10 24  1  0  0  0  0
 11  7  1  0  0  0  0
 12  6  1  0  0  0  0
 13 20  1  0  0  0  0
 13  9  1  1  0  0  0
 14 17  1  0  0  0  0
 16 13  1  0  0  0  0
 16 22  1  0  0  0  0
 17  3  2  0  0  0  0
 18 19  2  0  0  0  0
 19  3  1  0  0  0  0
 20  4  1  0  0  0  0
 21 23  1  0  0  0  0
 22 26  1  6  0  0  0
 22 10  1  0  0  0  0
 23 11  1  6  0  0  0
 23  8  1  0  0  0  0
 24 14  1  6  0  0  0
 25 26  1  0  0  0  0
 27 21  1  0  0  0  0
 28 27  1  0  0  0  0
M  END
>  <MODEL>
8

>  <REMARK>
 VINA RESULT:      -3.8      6.311      8.149
  Name = 
  2 active torsions:
  status: ('A' for Active; 'I' for Inactive)
    1  A    between atoms: C_5  and  N_24
    2  A    between atoms: O_17  and  C_25
                            x       y       z     vdW  Elec       q    Type
                         _______ _______ _______ _____ _____    ______ ____

>  <TORSDO>
F 2

$$$$
=
 OpenBabel11122411533D

 28 31  0  0  1  0  0  0  0  0999 V2000
  182.2620  178.7040  138.6480 C   0  0  0  0  0  0  0  0  0  0  0  0
  183.2160  175.5780  136.2020 O   0  0  0  0  0  0  0  0  0  0  0  0
  184.6080  178.7230  140.1780 C   0  0  0  0  0  3  0  0  0  0  0  0
  181.0910  178.6880  137.8910 O   0  0  0  0  0  0  0  0  0  0  0  0
  183.3390  174.0490  138.1270 O   0  0  0  0  0  0  0  0  0  0  0  0
  182.4150  174.7740  137.1880 S   0  0  0  0  0  0  0  0  0  0  0  0
  180.1390  174.2870  136.0060 C   0  0  1  0  0  3  0  0  0  0  0  0
  181.3070  175.8320  138.0800 C   0  0  1  0  0  3  0  0  0  0  0  0
  180.0550  180.5740  140.1460 O   0  0  0  0  0  1  0  0  0  0  0  0
  180.4820  176.4050  140.2450 C   0  0  2  0  0  3  0  0  0  0  0  0
  179.2780  174.6320  137.2450 C   0  0  0  0  0  2  0  0  0  0  0  0
  181.4060  173.6280  136.3510 N   0  0  0  0  0  2  0  0  0  0  0  0
  179.3730  179.8270  139.1830 C   0  0  2  0  0  3  0  0  0  0  0  0
  182.6450  177.5510  139.3630 C   0  0  0  0  0  0  0  0  0  0  0  0
  179.3460  173.4090  135.0640 C   0  0  0  0  0  1  0  0  0  0  0  0
  178.9790  178.4390  139.7060 C   0  0  0  0  0  2  0  0  0  0  0  0
  183.8160  177.5730  140.1270 C   0  0  0  0  0  3  0  0  0  0  0  0
  183.0530  179.8590  138.7130 C   0  0  0  0  0  3  0  0  0  0  0  0
  184.2250  179.8670  139.4740 C   0  0  0  0  0  3  0  0  0  0  0  0
  180.1690  179.7690  137.8780 C   0  0  0  0  0  2  0  0  0  0  0  0
  179.4290  175.6660  139.5290 N   0  0  0  0  0  0  0  0  0  0  0  0
  180.0330  177.8270  140.6420 C   0  0  1  0  0  3  0  0  0  0  0  0
  180.1400  174.9770  138.4620 C   0  0  2  0  0  3  0  0  0  0  0  0
  181.7850  176.3120  139.4190 C   0  0  2  0  0  3  0  0  0  0  0  0
  180.5490  178.4160  142.7120 C   0  0  0  0  0  1  0  0  0  0  0  0
  179.5440  177.8180  141.9500 O   0  0  0  0  0  0  0  0  0  0  0  0
  178.9310  174.6450  140.4360 C   0  0  0  0  0  2  0  0  0  0  0  0
  180.0580  173.7100  140.8290 C   0  0  0  0  0  1  0  0  0  0  0  0
  1 18  2  0  0  0  0
  1 14  1  0  0  0  0
  2  6  2  0  0  0  0
  4  1  1  0  0  0  0
  6  5  2  0  0  0  0
  7 15  1  6  0  0  0
  7 12  1  0  0  0  0
  7 11  1  0  0  0  0
  8  6  1  1  0  0  0
  8 23  1  0  0  0  0
  8 24  1  0  0  0  0
 10 21  1  6  0  0  0
 10 22  1  0  0  0  0
 12  6  1  0  0  0  0
 13 16  1  0  0  0  0
 13  9  1  1  0  0  0
 14 17  2  0  0  0  0
 16 22  1  0  0  0  0
 17  3  1  0  0  0  0
 18 19  1  0  0  0  0
 19  3  2  0  0  0  0
 20  4  1  0  0  0  0
 20 13  1  0  0  0  0
 21 27  1  0  0  0  0
 22 26  1  1  0  0  0
 23 11  1  6  0  0  0
 23 21  1  0  0  0  0
 24 14  1  6  0  0  0
 24 10  1  0  0  0  0
 26 25  1  0  0  0  0
 27 28  1  0  0  0  0
M  END
>  <MODEL>
9

>  <REMARK>
 VINA RESULT:      -3.6      3.053      4.988
  Name = 
  2 active torsions:
  status: ('A' for Active; 'I' for Inactive)
    1  A    between atoms: C_5  and  N_24
    2  A    between atoms: O_17  and  C_25
                            x       y       z     vdW  Elec       q    Type
                         _______ _______ _______ _____ _____    ______ ____

>  <TORSDO>
F 2

$$$$
