=
 OpenBabel11122411523D

 28 31  0  0  1  0  0  0  0  0999 V2000
  180.8180  179.2520  142.6530 C   0  0  0  0  0  0  0  0  0  0  0  0
  179.4280  176.5590  140.4990 O   0  0  0  0  0  0  0  0  0  0  0  0
  179.4780  180.8070  140.7460 C   0  0  0  0  0  3  0  0  0  0  0  0
  181.6140  178.5360  143.7030 C   0  0  0  0  0  2  0  0  0  0  0  0
  180.0370  177.8360  138.4730 O   0  0  0  0  0  0  0  0  0  0  0  0
  180.4490  176.7350  139.4110 S   0  0  0  0  0  0  0  0  0  0  0  0
  181.9130  175.3020  137.6040 C   0  0  2  0  0  3  0  0  0  0  0  0
  182.0230  177.0160  140.0800 N   0  0  1  0  0  0  0  0  0  0  0  0
  185.2360  179.3760  144.6940 C   0  0  0  0  0  1  0  0  0  0  0  0
  183.5630  178.8740  140.4220 C   0  0  2  0  0  3  0  0  0  0  0  0
  183.1760  175.7410  138.3630 C   0  0  0  0  0  2  0  0  0  0  0  0
  180.6570  175.2210  138.4880 C   0  0  0  0  0  2  0  0  0  0  0  0
  184.1210  178.5650  144.0620 C   0  0  2  0  0  3  0  0  0  0  0  0
  181.1430  179.1260  141.2860 C   0  0  0  0  0  0  0  0  0  0  0  0
  182.1570  173.9600  136.9490 C   0  0  0  0  0  1  0  0  0  0  0  0
  184.5360  178.0980  142.6610 C   0  0  0  0  0  2  0  0  0  0  0  0
  180.4900  179.9320  140.3450 C   0  0  0  0  0  3  0  0  0  0  0  0
  179.8070  180.1350  143.0480 C   0  0  0  0  0  3  0  0  0  0  0  0
  179.1300  180.9010  142.0960 C   0  0  0  0  0  3  0  0  0  0  0  0
  182.8260  179.3790  144.0790 C   0  0  0  0  0  2  0  0  0  0  0  0
  184.1680  177.8520  139.4680 C   0  0  1  0  0  3  0  0  0  0  0  0
  184.4680  179.2200  141.6190 C   0  0  1  0  0  3  0  0  0  0  0  0
  182.9370  177.1230  138.9610 C   0  0  2  0  0  3  0  0  0  0  0  0
  182.2710  178.2180  140.8830 C   0  0  1  0  0  3  0  0  0  0  0  0
  186.5800  178.5570  141.6770 C   0  0  0  0  0  1  0  0  0  0  0  0
  185.7520  179.5740  141.1980 O   0  0  0  0  0  0  0  0  0  0  0  0
  184.8730  178.5720  138.3290 C   0  0  0  0  0  2  0  0  0  0  0  0
  186.1690  177.8660  137.9800 C   0  0  0  0  0  1  0  0  0  0  0  0
  1 18  1  0  0  0  0
  1  4  1  0  0  0  0
  3 19  1  0  0  0  0
  4 20  1  0  0  0  0
  5  6  2  0  0  0  0
  6  2  2  0  0  0  0
  7 15  1  1  0  0  0
  7 11  1  0  0  0  0
  7 12  1  0  0  0  0
  8  6  1  6  0  0  0
  8 24  1  0  0  0  0
 10 24  1  0  0  0  0
 10 22  1  0  0  0  0
 11 23  1  0  0  0  0
 12  6  1  0  0  0  0
 13 20  1  0  0  0  0
 13  9  1  0  0  0  0
 14  1  2  0  0  0  0
 16 13  1  0  0  0  0
 17  3  2  0  0  0  0
 17 14  1  0  0  0  0
 19 18  2  0  0  0  0
 21 10  1  0  0  0  0
 22 16  1  0  0  0  0
 23 21  1  0  0  0  0
 23  8  1  0  0  0  0
 24 14  1  0  0  0  0
 26 22  1  0  0  0  0
 26 25  1  0  0  0  0
 27 21  1  0  0  0  0
 28 27  1  0  0  0  0
M  END
>  <MODEL>
1

>  <REMARK>
 VINA RESULT:      -7.2      0.000      0.000
  Name = 
  2 active torsions:
  status: ('A' for Active; 'I' for Inactive)
    1  A    between atoms: C_5  and  C_24
    2  A    between atoms: O_17  and  C_25
                            x       y       z     vdW  Elec       q    Type
                         _______ _______ _______ _____ _____    ______ ____

>  <TORSDO>
F 2

$$$$
=
 OpenBabel11122411523D

 28 31  0  0  1  0  0  0  0  0999 V2000
  180.5650  179.5850  141.3890 C   0  0  0  0  0  0  0  0  0  0  0  0
  179.5880  177.1020  138.8010 O   0  0  0  0  0  0  0  0  0  0  0  0
  179.8800  181.3180  139.2970 C   0  0  0  0  0  3  0  0  0  0  0  0
  181.0080  178.7670  142.5650 C   0  0  0  0  0  2  0  0  0  0  0  0
  180.7910  178.3960  137.0740 O   0  0  0  0  0  0  0  0  0  0  0  0
  180.8660  177.2310  138.0210 S   0  0  0  0  0  0  0  0  0  0  0  0
  182.6390  175.7460  136.5680 C   0  0  2  0  0  3  0  0  0  0  0  0
  182.2290  177.3520  139.0840 N   0  0  1  0  0  0  0  0  0  0  0  0
  184.3010  179.2590  144.4920 C   0  0  0  0  0  1  0  0  0  0  0  0
  183.7590  179.0590  139.9140 C   0  0  2  0  0  3  0  0  0  0  0  0
  183.6910  176.0480  137.6480 C   0  0  0  0  0  2  0  0  0  0  0  0
  181.1950  175.7390  137.0960 C   0  0  0  0  0  2  0  0  0  0  0  0
  183.3320  178.5700  143.5520 C   0  0  2  0  0  3  0  0  0  0  0  0
  181.2230  179.4830  140.1460 C   0  0  0  0  0  0  0  0  0  0  0  0
  182.9460  174.4120  135.9210 C   0  0  0  0  0  1  0  0  0  0  0  0
  184.0600  178.1210  142.2790 C   0  0  0  0  0  2  0  0  0  0  0  0
  180.8950  180.3750  139.1170 C   0  0  0  0  0  3  0  0  0  0  0  0
  179.5530  180.5360  141.5640 C   0  0  0  0  0  3  0  0  0  0  0  0
  179.2030  181.3920  140.5160 C   0  0  0  0  0  3  0  0  0  0  0  0
  182.1390  179.4890  143.2850 C   0  0  0  0  0  2  0  0  0  0  0  0
  184.5140  178.0250  139.0890 C   0  0  1  0  0  3  0  0  0  0  0  0
  184.3460  179.2830  141.3200 C   0  0  1  0  0  3  0  0  0  0  0  0
  183.4070  177.4220  138.2440 C   0  0  2  0  0  3  0  0  0  0  0  0
  182.3470  178.4980  139.9920 C   0  0  1  0  0  3  0  0  0  0  0  0
  186.3130  178.4750  141.9380 C   0  0  0  0  0  1  0  0  0  0  0  0
  185.7180  179.5410  141.2620 O   0  0  0  0  0  0  0  0  0  0  0  0
  185.5400  178.7230  138.2110 C   0  0  0  0  0  2  0  0  0  0  0  0
  186.8490  177.9580  138.2160 C   0  0  0  0  0  1  0  0  0  0  0  0
  1 18  1  0  0  0  0
  1  4  1  0  0  0  0
  3 19  1  0  0  0  0
  4 20  1  0  0  0  0
  5  6  2  0  0  0  0
  6  2  2  0  0  0  0
  7 15  1  1  0  0  0
  7 12  1  0  0  0  0
  7 11  1  0  0  0  0
  8  6  1  6  0  0  0
  8 24  1  0  0  0  0
 10 24  1  0  0  0  0
 10 22  1  0  0  0  0
 11 23  1  0  0  0  0
 12  6  1  0  0  0  0
 13  9  1  0  0  0  0
 14  1  2  0  0  0  0
 16 13  1  0  0  0  0
 17  3  2  0  0  0  0
 17 14  1  0  0  0  0
 19 18  2  0  0  0  0
 20 13  1  0  0  0  0
 21 10  1  0  0  0  0
 22 16  1  0  0  0  0
 23  8  1  0  0  0  0
 23 21  1  0  0  0  0
 24 14  1  0  0  0  0
 26 22  1  0  0  0  0
 26 25  1  0  0  0  0
 27 28  1  0  0  0  0
 27 21  1  0  0  0  0
M  END
>  <MODEL>
2

>  <REMARK>
 VINA RESULT:      -6.0      0.981      1.164
  Name = 
  2 active torsions:
  status: ('A' for Active; 'I' for Inactive)
    1  A    between atoms: C_5  and  C_24
    2  A    between atoms: O_17  and  C_25
                            x       y       z     vdW  Elec       q    Type
                         _______ _______ _______ _____ _____    ______ ____

>  <TORSDO>
F 2

$$$$
=
 OpenBabel11122411523D

 28 31  0  0  1  0  0  0  0  0999 V2000
  185.1330  175.3690  135.8240 C   0  0  0  0  0  0  0  0  0  0  0  0
  181.6480  176.6580  135.6900 O   0  0  0  0  0  0  0  0  0  0  0  0
  183.8770  173.5330  137.5270 C   0  0  0  0  0  3  0  0  0  0  0  0
  185.9290  176.3150  134.9750 C   0  0  0  0  0  2  0  0  0  0  0  0
  181.4140  176.3400  138.1290 O   0  0  0  0  0  0  0  0  0  0  0  0
  181.7140  177.3260  137.0340 S   0  0  0  0  0  0  0  0  0  0  0  0
  180.8460  179.5530  138.3570 C   0  0  2  0  0  3  0  0  0  0  0  0
  183.2490  178.0970  137.2660 N   0  0  1  0  0  0  0  0  0  0  0  0
  189.2200  178.0060  136.0330 C   0  0  0  0  0  1  0  0  0  0  0  0
  185.3240  177.7180  138.4890 C   0  0  2  0  0  3  0  0  0  0  0  0
  182.3160  179.9900  138.4700 C   0  0  0  0  0  2  0  0  0  0  0  0
  180.5540  178.6800  137.1240 C   0  0  0  0  0  2  0  0  0  0  0  0
  187.7420  177.9270  135.7020 C   0  0  2  0  0  3  0  0  0  0  0  0
  184.4460  175.8250  136.9680 C   0  0  0  0  0  0  0  0  0  0  0  0
  179.9550  180.7760  138.3330 C   0  0  0  0  0  1  0  0  0  0  0  0
  186.9260  178.6990  136.7470 C   0  0  0  0  0  2  0  0  0  0  0  0
  183.8490  174.8960  137.8300 C   0  0  0  0  0  3  0  0  0  0  0  0
  185.1620  174.0010  135.5310 C   0  0  0  0  0  3  0  0  0  0  0  0
  184.5250  173.0870  136.3730 C   0  0  0  0  0  3  0  0  0  0  0  0
  187.3280  176.4620  135.5600 C   0  0  0  0  0  2  0  0  0  0  0  0
  184.6320  178.9770  138.9950 C   0  0  1  0  0  3  0  0  0  0  0  0
  186.7890  177.9380  138.0710 C   0  0  1  0  0  3  0  0  0  0  0  0
  183.1960  178.7490  138.5590 C   0  0  2  0  0  3  0  0  0  0  0  0
  184.4740  177.2900  137.3020 C   0  0  1  0  0  3  0  0  0  0  0  0
  188.4120  177.6170  139.5430 C   0  0  0  0  0  1  0  0  0  0  0  0
  187.5130  178.5790  139.0790 O   0  0  0  0  0  0  0  0  0  0  0  0
  184.7300  179.0400  140.5110 C   0  0  0  0  0  2  0  0  0  0  0  0
  183.8180  178.0060  141.1430 C   0  0  0  0  0  1  0  0  0  0  0  0
  1 14  1  0  0  0  0
  2  6  2  0  0  0  0
  3 17  1  0  0  0  0
  4 20  1  0  0  0  0
  4  1  1  0  0  0  0
  6 12  1  0  0  0  0
  6  5  2  0  0  0  0
  7 15  1  6  0  0  0
  7 11  1  0  0  0  0
  8  6  1  1  0  0  0
  8 24  1  0  0  0  0
  8 23  1  0  0  0  0
 10 21  1  0  0  0  0
 11 23  1  0  0  0  0
 12  7  1  0  0  0  0
 13  9  1  0  0  0  0
 13 16  1  0  0  0  0
 14 24  1  0  0  0  0
 14 17  2  0  0  0  0
 16 22  1  0  0  0  0
 18  1  2  0  0  0  0
 18 19  1  0  0  0  0
 19  3  2  0  0  0  0
 20 13  1  0  0  0  0
 21 27  1  0  0  0  0
 22 10  1  0  0  0  0
 22 26  1  0  0  0  0
 23 21  1  0  0  0  0
 24 10  1  0  0  0  0
 26 25  1  0  0  0  0
 27 28  1  0  0  0  0
M  END
>  <MODEL>
3

>  <REMARK>
 VINA RESULT:      -5.7      2.650      6.424
  Name = 
  2 active torsions:
  status: ('A' for Active; 'I' for Inactive)
    1  A    between atoms: C_5  and  C_24
    2  A    between atoms: O_17  and  C_25
                            x       y       z     vdW  Elec       q    Type
                         _______ _______ _______ _____ _____    ______ ____

>  <TORSDO>
F 2

$$$$
=
 OpenBabel11122411523D

 28 31  0  0  1  0  0  0  0  0999 V2000
  188.9520  177.8870  137.2380 C   0  0  0  0  0  0  0  0  0  0  0  0
  192.2990  176.4210  136.5540 O   0  0  0  0  0  0  0  0  0  0  0  0
  189.7230  177.2140  139.8460 C   0  0  0  0  0  3  0  0  0  0  0  0
  188.4040  178.2470  135.8900 C   0  0  0  0  0  2  0  0  0  0  0  0
  191.8450  174.5860  138.1440 O   0  0  0  0  0  0  0  0  0  0  0  0
  191.8400  174.9980  136.6980 S   0  0  0  0  0  0  0  0  0  0  0  0
  192.2440  172.5070  135.6510 C   0  0  2  0  0  3  0  0  0  0  0  0
  190.2840  174.7730  135.9700 N   0  0  1  0  0  0  0  0  0  0  0  0
  184.9070  177.2990  134.5940 C   0  0  0  0  0  1  0  0  0  0  0  0
  187.9580  174.5200  136.6580 C   0  0  2  0  0  3  0  0  0  0  0  0
  190.7910  172.5450  135.1480 C   0  0  0  0  0  2  0  0  0  0  0  0
  192.8940  173.8960  135.7680 C   0  0  0  0  0  2  0  0  0  0  0  0
  186.4190  177.2380  134.6830 C   0  0  2  0  0  3  0  0  0  0  0  0
  189.2770  176.5510  137.5550 C   0  0  0  0  0  0  0  0  0  0  0  0
  193.0750  171.6360  134.7340 C   0  0  0  0  0  1  0  0  0  0  0  0
  186.8880  175.7770  134.6990 C   0  0  0  0  0  2  0  0  0  0  0  0
  189.6300  176.2200  138.8690 C   0  0  0  0  0  3  0  0  0  0  0  0
  189.0410  178.8760  138.2240 C   0  0  0  0  0  3  0  0  0  0  0  0
  189.4380  178.5430  139.5210 C   0  0  0  0  0  3  0  0  0  0  0  0
  186.8930  178.0480  135.8890 C   0  0  0  0  0  2  0  0  0  0  0  0
  188.4480  173.2550  135.9650 C   0  0  1  0  0  3  0  0  0  0  0  0
  186.6650  175.1000  136.0570 C   0  0  1  0  0  3  0  0  0  0  0  0
  189.9540  173.3700  136.1180 C   0  0  2  0  0  3  0  0  0  0  0  0
  189.1190  175.4910  136.5010 C   0  0  1  0  0  3  0  0  0  0  0  0
  184.9500  174.2240  137.1490 C   0  0  0  0  0  1  0  0  0  0  0  0
  185.6700  174.1240  135.9580 O   0  0  0  0  0  0  0  0  0  0  0  0
  187.9250  172.0330  136.7030 C   0  0  0  0  0  2  0  0  0  0  0  0
  187.4900  170.9660  135.7180 C   0  0  0  0  0  1  0  0  0  0  0  0
  1 14  2  0  0  0  0
  1 18  1  0  0  0  0
  2  6  2  0  0  0  0
  4  1  1  0  0  0  0
  6  5  2  0  0  0  0
  7 15  1  6  0  0  0
  7 12  1  0  0  0  0
  8 23  1  0  0  0  0
  8 24  1  0  0  0  0
  8  6  1  1  0  0  0
  9 13  1  0  0  0  0
 11  7  1  0  0  0  0
 11 23  1  0  0  0  0
 12  6  1  0  0  0  0
 13 16  1  0  0  0  0
 13 20  1  0  0  0  0
 14 17  1  0  0  0  0
 16 22  1  0  0  0  0
 17  3  2  0  0  0  0
 18 19  2  0  0  0  0
 19  3  1  0  0  0  0
 20  4  1  0  0  0  0
 21 23  1  0  0  0  0
 21 10  1  0  0  0  0
 21 27  1  0  0  0  0
 22 10  1  0  0  0  0
 24 10  1  0  0  0  0
 24 14  1  0  0  0  0
 26 22  1  0  0  0  0
 26 25  1  0  0  0  0
 28 27  1  0  0  0  0
M  END
>  <MODEL>
4

>  <REMARK>
 VINA RESULT:      -5.3      6.932      9.740
  Name = 
  2 active torsions:
  status: ('A' for Active; 'I' for Inactive)
    1  A    between atoms: C_5  and  C_24
    2  A    between atoms: O_17  and  C_25
                            x       y       z     vdW  Elec       q    Type
                         _______ _______ _______ _____ _____    ______ ____

>  <TORSDO>
F 2

$$$$
=
 OpenBabel11122411523D

 28 31  0  0  1  0  0  0  0  0999 V2000
  184.8400  174.9540  136.2480 C   0  0  0  0  0  0  0  0  0  0  0  0
  184.2130  177.4030  138.9730 O   0  0  0  0  0  0  0  0  0  0  0  0
  184.2660  177.2320  134.7210 C   0  0  0  0  0  3  0  0  0  0  0  0
  185.1150  173.6570  136.9480 C   0  0  0  0  0  2  0  0  0  0  0  0
  182.2630  178.3000  137.7470 O   0  0  0  0  0  0  0  0  0  0  0  0
  182.7170  177.3620  138.8310 S   0  0  0  0  0  0  0  0  0  0  0  0
  180.4280  177.4550  140.3190 C   0  0  2  0  0  3  0  0  0  0  0  0
  182.1680  175.7420  138.5520 N   0  0  1  0  0  0  0  0  0  0  0  0
  183.4350  170.2950  136.1240 C   0  0  0  0  0  1  0  0  0  0  0  0
  181.3590  174.3750  136.7020 C   0  0  2  0  0  3  0  0  0  0  0  0
  180.1480  176.0090  139.8760 C   0  0  0  0  0  2  0  0  0  0  0  0
  181.9240  177.8080  140.3680 C   0  0  0  0  0  2  0  0  0  0  0  0
  183.7210  171.5420  136.9370 C   0  0  2  0  0  3  0  0  0  0  0  0
  183.6040  175.6160  136.4070 C   0  0  0  0  0  0  0  0  0  0  0  0
  179.8070  177.6970  141.6780 C   0  0  0  0  0  1  0  0  0  0  0  0
  182.4080  172.1570  137.4390 C   0  0  0  0  0  2  0  0  0  0  0  0
  183.3150  176.7340  135.6160 C   0  0  0  0  0  3  0  0  0  0  0  0
  185.7850  175.4540  135.3460 C   0  0  0  0  0  3  0  0  0  0  0  0
  185.5040  176.5980  134.5940 C   0  0  0  0  0  3  0  0  0  0  0  0
  184.5730  172.5060  136.1100 C   0  0  0  0  0  2  0  0  0  0  0  0
  180.2680  174.5480  137.7510 C   0  0  1  0  0  3  0  0  0  0  0  0
  181.6470  172.9070  136.3390 C   0  0  1  0  0  3  0  0  0  0  0  0
  180.7220  175.8010  138.4790 C   0  0  2  0  0  3  0  0  0  0  0  0
  182.5770  175.0320  137.3350 C   0  0  1  0  0  3  0  0  0  0  0  0
  180.3440  172.3850  134.6270 C   0  0  0  0  0  1  0  0  0  0  0  0
  180.4720  172.2270  136.0080 O   0  0  0  0  0  0  0  0  0  0  0  0
  178.9320  174.7800  137.0640 C   0  0  0  0  0  2  0  0  0  0  0  0
  179.1030  175.6990  135.8710 C   0  0  0  0  0  1  0  0  0  0  0  0
  1 14  1  0  0  0  0
  1  4  1  0  0  0  0
  3 17  1  0  0  0  0
  5  6  2  0  0  0  0
  6  2  2  0  0  0  0
  6 12  1  0  0  0  0
  7 12  1  0  0  0  0
  7 15  1  1  0  0  0
  8  6  1  6  0  0  0
  9 13  1  0  0  0  0
 10 24  1  0  0  0  0
 10 21  1  0  0  0  0
 11  7  1  0  0  0  0
 13 16  1  0  0  0  0
 14 24  1  0  0  0  0
 17 14  2  0  0  0  0
 18  1  2  0  0  0  0
 19  3  2  0  0  0  0
 19 18  1  0  0  0  0
 20 13  1  0  0  0  0
 20  4  1  0  0  0  0
 21 23  1  0  0  0  0
 22 10  1  0  0  0  0
 22 16  1  0  0  0  0
 23  8  1  0  0  0  0
 23 11  1  0  0  0  0
 24  8  1  0  0  0  0
 25 26  1  0  0  0  0
 26 22  1  0  0  0  0
 27 21  1  0  0  0  0
 28 27  1  0  0  0  0
M  END
>  <MODEL>
5

>  <REMARK>
 VINA RESULT:      -4.5      3.019      7.618
  Name = 
  2 active torsions:
  status: ('A' for Active; 'I' for Inactive)
    1  A    between atoms: C_5  and  C_24
    2  A    between atoms: O_17  and  C_25
                            x       y       z     vdW  Elec       q    Type
                         _______ _______ _______ _____ _____    ______ ____

>  <TORSDO>
F 2

$$$$
=
 OpenBabel11122411523D

 28 31  0  0  1  0  0  0  0  0999 V2000
  187.0230  175.8740  136.4470 C   0  0  0  0  0  0  0  0  0  0  0  0
  186.6860  178.2170  139.3130 O   0  0  0  0  0  0  0  0  0  0  0  0
  186.8040  178.2990  135.0600 C   0  0  0  0  0  3  0  0  0  0  0  0
  187.1010  174.5110  137.0670 C   0  0  0  0  0  2  0  0  0  0  0  0
  184.9060  179.4510  138.1230 O   0  0  0  0  0  0  0  0  0  0  0  0
  185.2020  178.3940  139.1510 S   0  0  0  0  0  0  0  0  0  0  0  0
  182.9180  178.7150  140.6130 C   0  0  2  0  0  3  0  0  0  0  0  0
  184.4390  176.8870  138.7630 N   0  0  1  0  0  0  0  0  0  0  0  0
  184.9880  171.4740  136.0110 C   0  0  0  0  0  1  0  0  0  0  0  0
  183.4870  175.7620  136.8210 C   0  0  2  0  0  3  0  0  0  0  0  0
  182.4490  177.3530  140.0770 C   0  0  0  0  0  2  0  0  0  0  0  0
  184.4470  178.8520  140.7030 C   0  0  0  0  0  2  0  0  0  0  0  0
  185.4270  172.6170  136.9040 C   0  0  2  0  0  3  0  0  0  0  0  0
  185.8890  176.6920  136.6320 C   0  0  0  0  0  0  0  0  0  0  0  0
  182.3080  178.9590  141.9770 C   0  0  0  0  0  1  0  0  0  0  0  0
  184.2020  173.3780  137.4290 C   0  0  0  0  0  2  0  0  0  0  0  0
  185.7740  177.8860  135.9100 C   0  0  0  0  0  3  0  0  0  0  0  0
  188.0470  176.2920  135.5890 C   0  0  0  0  0  3  0  0  0  0  0  0
  187.9440  177.5070  134.9080 C   0  0  0  0  0  3  0  0  0  0  0  0
  186.4220  173.5010  136.1510 C   0  0  0  0  0  2  0  0  0  0  0  0
  182.4090  176.0220  137.8650 C   0  0  1  0  0  3  0  0  0  0  0  0
  183.5760  174.2930  136.3690 C   0  0  1  0  0  3  0  0  0  0  0  0
  183.0170  177.1520  138.6770 C   0  0  2  0  0  3  0  0  0  0  0  0
  184.7710  176.2020  137.5090 C   0  0  1  0  0  3  0  0  0  0  0  0
  182.2980  173.9530  134.5940 C   0  0  0  0  0  1  0  0  0  0  0  0
  182.3250  173.8050  135.9810 O   0  0  0  0  0  0  0  0  0  0  0  0
  181.1330  176.4800  137.1780 C   0  0  0  0  0  2  0  0  0  0  0  0
  181.4530  177.4620  136.0680 C   0  0  0  0  0  1  0  0  0  0  0  0
  1 14  1  0  0  0  0
  1  4  1  0  0  0  0
  3 17  1  0  0  0  0
  5  6  2  0  0  0  0
  6  2  2  0  0  0  0
  6 12  1  0  0  0  0
  7 12  1  0  0  0  0
  7 15  1  1  0  0  0
  8  6  1  6  0  0  0
  9 13  1  0  0  0  0
 10 24  1  0  0  0  0
 10 21  1  0  0  0  0
 11  7  1  0  0  0  0
 13 16  1  0  0  0  0
 14 24  1  0  0  0  0
 17 14  2  0  0  0  0
 18  1  2  0  0  0  0
 19  3  2  0  0  0  0
 19 18  1  0  0  0  0
 20 13  1  0  0  0  0
 20  4  1  0  0  0  0
 21 23  1  0  0  0  0
 22 10  1  0  0  0  0
 22 16  1  0  0  0  0
 23  8  1  0  0  0  0
 23 11  1  0  0  0  0
 24  8  1  0  0  0  0
 25 26  1  0  0  0  0
 26 22  1  0  0  0  0
 27 21  1  0  0  0  0
 28 27  1  0  0  0  0
M  END
>  <MODEL>
6

>  <REMARK>
 VINA RESULT:      -4.4      2.794      7.510
  Name = 
  2 active torsions:
  status: ('A' for Active; 'I' for Inactive)
    1  A    between atoms: C_5  and  C_24
    2  A    between atoms: O_17  and  C_25
                            x       y       z     vdW  Elec       q    Type
                         _______ _______ _______ _____ _____    ______ ____

>  <TORSDO>
F 2

$$$$
=
 OpenBabel11122411523D

 28 31  0  0  1  0  0  0  0  0999 V2000
  181.2470  179.3950  137.6410 C   0  0  0  0  0  0  0  0  0  0  0  0
  178.9320  176.6000  136.8380 O   0  0  0  0  0  0  0  0  0  0  0  0
  180.8740  179.8550  134.9030 C   0  0  0  0  0  3  0  0  0  0  0  0
  181.5680  179.2270  139.0960 C   0  0  0  0  0  2  0  0  0  0  0  0
  180.1770  176.1400  134.7530 O   0  0  0  0  0  0  0  0  0  0  0  0
  179.9890  175.7490  136.1930 S   0  0  0  0  0  0  0  0  0  0  0  0
  180.7600  173.1420  135.9230 C   0  0  2  0  0  3  0  0  0  0  0  0
  181.4750  175.8310  137.0810 N   0  0  1  0  0  0  0  0  0  0  0  0
  185.1090  179.2340  140.6000 C   0  0  0  0  0  1  0  0  0  0  0  0
  183.6630  176.8920  136.8970 C   0  0  2  0  0  3  0  0  0  0  0  0
  182.0350  173.4970  136.7060 C   0  0  0  0  0  2  0  0  0  0  0  0
  179.5500  174.0200  136.2820 C   0  0  0  0  0  2  0  0  0  0  0  0
  183.7910  178.6330  140.1540 C   0  0  2  0  0  3  0  0  0  0  0  0
  181.5670  178.3870  136.7080 C   0  0  0  0  0  0  0  0  0  0  0  0
  180.4140  171.6870  136.1520 C   0  0  0  0  0  1  0  0  0  0  0  0
  184.0380  177.3240  139.3940 C   0  0  0  0  0  2  0  0  0  0  0  0
  181.4070  178.6390  135.3390 C   0  0  0  0  0  3  0  0  0  0  0  0
  180.7210  180.6130  137.1960 C   0  0  0  0  0  3  0  0  0  0  0  0
  180.5220  180.8370  135.8310 C   0  0  0  0  0  3  0  0  0  0  0  0
  183.0040  179.6690  139.3520 C   0  0  0  0  0  2  0  0  0  0  0  0
  183.8010  175.3760  136.8360 C   0  0  1  0  0  3  0  0  0  0  0  0
  184.5490  177.5550  137.9670 C   0  0  1  0  0  3  0  0  0  0  0  0
  182.4080  174.9460  136.4130 C   0  0  2  0  0  3  0  0  0  0  0  0
  182.1870  177.1090  137.1960 C   0  0  1  0  0  3  0  0  0  0  0  0
  186.5430  178.2290  137.2800 C   0  0  0  0  0  1  0  0  0  0  0  0
  185.8790  177.1420  137.8520 O   0  0  0  0  0  0  0  0  0  0  0  0
  184.8250  174.9980  135.7780 C   0  0  0  0  0  2  0  0  0  0  0  0
  185.7360  173.9000  136.2910 C   0  0  0  0  0  1  0  0  0  0  0  0
  1  4  1  0  0  0  0
  3 17  2  0  0  0  0
  3 19  1  0  0  0  0
  4 20  1  0  0  0  0
  5  6  2  0  0  0  0
  6 12  1  0  0  0  0
  6  2  2  0  0  0  0
  7 15  1  1  0  0  0
  7 12  1  0  0  0  0
  7 11  1  0  0  0  0
  8  6  1  6  0  0  0
  8 24  1  0  0  0  0
 10 24  1  0  0  0  0
 10 22  1  0  0  0  0
 13  9  1  0  0  0  0
 14 24  1  0  0  0  0
 14  1  2  0  0  0  0
 16 13  1  0  0  0  0
 17 14  1  0  0  0  0
 18  1  1  0  0  0  0
 19 18  2  0  0  0  0
 20 13  1  0  0  0  0
 21 10  1  0  0  0  0
 22 16  1  0  0  0  0
 23 11  1  0  0  0  0
 23 21  1  0  0  0  0
 23  8  1  0  0  0  0
 25 26  1  0  0  0  0
 26 22  1  0  0  0  0
 27 28  1  0  0  0  0
 27 21  1  0  0  0  0
M  END
>  <MODEL>
7

>  <REMARK>
 VINA RESULT:      -4.3      2.813      4.266
  Name = 
  2 active torsions:
  status: ('A' for Active; 'I' for Inactive)
    1  A    between atoms: C_5  and  C_24
    2  A    between atoms: O_17  and  C_25
                            x       y       z     vdW  Elec       q    Type
                         _______ _______ _______ _____ _____    ______ ____

>  <TORSDO>
F 2

$$$$
=
 OpenBabel11122411523D

 28 31  0  0  1  0  0  0  0  0999 V2000
  188.1900  177.2070  138.0360 C   0  0  0  0  0  0  0  0  0  0  0  0
  186.5510  174.0640  136.9150 O   0  0  0  0  0  0  0  0  0  0  0  0
  187.1210  178.0690  135.5950 C   0  0  0  0  0  3  0  0  0  0  0  0
  188.8530  176.8560  139.3340 C   0  0  0  0  0  2  0  0  0  0  0  0
  187.3830  174.4250  134.6160 O   0  0  0  0  0  0  0  0  0  0  0  0
  187.6230  173.7160  135.9210 S   0  0  0  0  0  0  0  0  0  0  0  0
  188.9580  171.5710  134.8840 C   0  0  2  0  0  3  0  0  0  0  0  0
  189.1950  174.0620  136.5620 N   0  0  1  0  0  0  0  0  0  0  0  0
  192.5150  177.6270  140.2300 C   0  0  0  0  0  1  0  0  0  0  0  0
  190.9420  175.7460  136.3210 C   0  0  2  0  0  3  0  0  0  0  0  0
  190.2390  172.1290  135.5270 C   0  0  0  0  0  2  0  0  0  0  0  0
  187.6720  171.9540  135.6350 C   0  0  0  0  0  2  0  0  0  0  0  0
  191.3300  176.7590  139.8540 C   0  0  2  0  0  3  0  0  0  0  0  0
  188.5440  176.5490  136.8400 C   0  0  0  0  0  0  0  0  0  0  0  0
  189.0560  170.0630  134.7870 C   0  0  0  0  0  1  0  0  0  0  0  0
  191.7320  175.7630  138.7580 C   0  0  0  0  0  2  0  0  0  0  0  0
  188.0290  177.0080  135.6220 C   0  0  0  0  0  3  0  0  0  0  0  0
  187.2840  178.2730  138.0010 C   0  0  0  0  0  3  0  0  0  0  0  0
  186.7410  178.6950  136.7840 C   0  0  0  0  0  3  0  0  0  0  0  0
  190.1470  177.6480  139.4700 C   0  0  0  0  0  2  0  0  0  0  0  0
  191.4480  174.3850  135.8570 C   0  0  1  0  0  3  0  0  0  0  0  0
  191.8410  176.4170  137.3750 C   0  0  1  0  0  3  0  0  0  0  0  0
  190.1540  173.6500  135.5570 C   0  0  2  0  0  3  0  0  0  0  0  0
  189.5630  175.4450  136.8870 C   0  0  1  0  0  3  0  0  0  0  0  0
  193.8430  175.5760  137.8100 C   0  0  0  0  0  1  0  0  0  0  0  0
  193.1730  176.4550  136.9570 O   0  0  0  0  0  0  0  0  0  0  0  0
  192.2760  174.5520  134.5940 C   0  0  0  0  0  2  0  0  0  0  0  0
  193.5140  173.6780  134.6530 C   0  0  0  0  0  1  0  0  0  0  0  0
  1  4  1  0  0  0  0
  3 17  2  0  0  0  0
  3 19  1  0  0  0  0
  4 20  1  0  0  0  0
  5  6  2  0  0  0  0
  6  2  2  0  0  0  0
  7 15  1  1  0  0  0
  7 11  1  0  0  0  0
  7 12  1  0  0  0  0
  8  6  1  6  0  0  0
  8 24  1  0  0  0  0
 10 24  1  0  0  0  0
 10 22  1  0  0  0  0
 11 23  1  0  0  0  0
 12  6  1  0  0  0  0
 13  9  1  0  0  0  0
 14 24  1  0  0  0  0
 14  1  2  0  0  0  0
 16 13  1  0  0  0  0
 17 14  1  0  0  0  0
 18  1  1  0  0  0  0
 19 18  2  0  0  0  0
 20 13  1  0  0  0  0
 21 10  1  0  0  0  0
 22 16  1  0  0  0  0
 23 21  1  0  0  0  0
 23  8  1  0  0  0  0
 26 22  1  0  0  0  0
 26 25  1  0  0  0  0
 27 28  1  0  0  0  0
 27 21  1  0  0  0  0
M  END
>  <MODEL>
8

>  <REMARK>
 VINA RESULT:      -4.3      6.713      8.828
  Name = 
  2 active torsions:
  status: ('A' for Active; 'I' for Inactive)
    1  A    between atoms: C_5  and  C_24
    2  A    between atoms: O_17  and  C_25
                            x       y       z     vdW  Elec       q    Type
                         _______ _______ _______ _____ _____    ______ ____

>  <TORSDO>
F 2

$$$$
