=
 OpenBabel11122411483D

 37 42  0  0  1  0  0  0  0  0999 V2000
  187.4010  177.5150  141.8800 C   0  0  1  0  0  3  0  0  0  0  0  0
  190.3880  176.0100  142.1270 O   0  0  0  0  0  0  0  0  0  0  0  0
  185.3220  178.3990  143.1920 C   0  0  2  0  0  3  0  0  0  0  0  0
  188.8110  177.7750  142.3720 C   0  0  2  0  0  3  0  0  0  0  0  0
  186.5860  177.5110  143.1790 C   0  0  2  0  0  3  0  0  0  0  0  0
  189.9440  177.1970  141.5270 C   0  0  2  0  0  3  0  0  0  0  0  0
  185.3880  179.4930  142.1340 C   0  0  0  0  0  2  0  0  0  0  0  0
  187.6010  177.8050  144.2710 C   0  0  0  0  0  2  0  0  0  0  0  0
  187.5180  178.3060  139.5010 C   0  0  0  0  0  2  0  0  0  0  0  0
  185.6700  178.9020  140.8950 O   0  0  0  0  0  0  0  0  0  0  0  0
  192.0910  177.6110  143.1620 C   0  0  0  0  0  2  0  0  0  0  0  0
  191.4910  176.2170  143.0100 C   0  0  1  0  0  3  0  0  0  0  0  0
  187.0480  178.6540  140.9090 C   0  0  1  0  0  3  0  0  0  0  0  0
  188.8840  177.3200  143.7560 N   0  0  2  0  0  0  0  0  0  0  0  0
  189.5980  176.9820  140.0440 C   0  0  1  0  0  3  0  0  0  0  0  0
  191.1900  177.0770  144.2700 C   0  0  2  0  0  3  0  0  0  0  0  0
  190.0100  177.9660  144.3310 N   0  0  0  0  0  0  0  0  0  0  0  0
  189.0410  178.2520  139.3960 C   0  0  0  0  0  2  0  0  0  0  0  0
  192.0210  177.1410  139.4520 C   0  0  0  0  0  3  0  0  0  0  0  0
  190.7920  176.4960  139.2800 C   0  0  0  0  0  0  0  0  0  0  0  0
  190.6960  175.4120  138.3920 C   0  0  0  0  0  3  0  0  0  0  0  0
  191.7220  173.9110  136.8070 O   0  0  0  0  0  1  0  0  0  0  0  0
  193.0470  175.6300  137.8610 C   0  0  0  0  0  3  0  0  0  0  0  0
  191.8210  174.9820  137.6850 C   0  0  0  0  0  0  0  0  0  0  0  0
  193.1470  176.7090  138.7450 C   0  0  0  0  0  3  0  0  0  0  0  0
  189.8170  178.1950  145.7690 C   0  0  0  0  0  2  0  0  0  0  0  0
  190.0200  176.9060  146.5690 C   0  0  1  0  0  3  0  0  0  0  0  0
  191.9930  175.6300  147.4190 C   0  0  0  0  0  1  0  0  0  0  0  0
  191.2820  176.9700  147.4210 C   0  0  0  0  0  2  0  0  0  0  0  0
  188.7990  176.6130  147.4320 C   0  0  0  0  0  2  0  0  0  0  0  0
  188.3310  177.8570  148.1670 C   0  0  0  0  0  2  0  0  0  0  0  0
  187.0250  178.1750  147.7960 O   0  0  0  0  0  1  0  0  0  0  0  0
  185.0850  178.9600  144.4600 O   0  0  0  0  0  0  0  0  0  0  0  0
  183.6920  179.0670  144.6390 C   0  0  0  0  0  0  0  0  0  0  0  0
  183.2460  180.3350  144.2980 F   0  0  0  0  0  0  0  0  0  0  0  0
  183.0220  178.1160  143.8850 F   0  0  0  0  0  0  0  0  0  0  0  0
  183.4010  178.8480  145.9720 F   0  0  0  0  0  0  0  0  0  0  0  0
  1  4  1  0  0  0  0
  1  5  1  0  0  0  0
  2 12  1  0  0  0  0
  3 33  1  0  0  0  0
  4 14  1  0  0  0  0
  5  3  1  0  0  0  0
  5  8  1  0  0  0  0
  6  2  1  0  0  0  0
  6  4  1  0  0  0  0
  7  3  1  0  0  0  0
  9 13  1  0  0  0  0
 10 13  1  0  0  0  0
 10  7  1  0  0  0  0
 11 16  1  0  0  0  0
 12 11  1  0  0  0  0
 12 16  1  0  0  0  0
 13  1  1  0  0  0  0
 14  8  1  0  0  0  0
 14 17  1  0  0  0  0
 15  6  1  0  0  0  0
 16 17  1  0  0  0  0
 17 26  1  0  0  0  0
 18  9  1  0  0  0  0
 18 15  1  0  0  0  0
 20 19  1  0  0  0  0
 20 15  1  0  0  0  0
 21 20  2  0  0  0  0
 22 24  1  0  0  0  0
 23 25  1  0  0  0  0
 24 23  2  0  0  0  0
 24 21  1  0  0  0  0
 25 19  2  0  0  0  0
 26 27  1  0  0  0  0
 27 29  1  0  0  0  0
 27 30  1  0  0  0  0
 28 29  1  0  0  0  0
 30 31  1  0  0  0  0
 32 31  1  0  0  0  0
 33 34  1  0  0  0  0
 34 37  1  0  0  0  0
 35 34  1  0  0  0  0
 36 34  1  0  0  0  0
M  END
>  <MODEL>
1

>  <REMARK>
 VINA RESULT:      -9.0      0.000      0.000
  Name = 
  8 active torsions:
  status: ('A' for Active; 'I' for Inactive)
    1  A    between atoms: C_1  and  C_4
    2  A    between atoms: C_1  and  N_27
    3  A    between atoms: C_2  and  O_22
    4  A    between atoms: C_4  and  C_12
    5  A    between atoms: C_4  and  C_37
    6  A    between atoms: C_6  and  O_22
    7  A    between atoms: C_8  and  C_12
    8  A    between atoms: C_23  and  C_30
                            x       y       z     vdW  Elec       q    Type
                         _______ _______ _______ _____ _____    ______ ____

>  <TORSDO>
F 8

$$$$
=
 OpenBabel11122411483D

 37 42  0  0  1  0  0  0  0  0999 V2000
  186.1850  178.7330  142.6510 C   0  0  1  0  0  3  0  0  0  0  0  0
  189.4800  178.4010  143.1880 O   0  0  0  0  0  0  0  0  0  0  0  0
  184.3270  179.1340  140.8590 C   0  0  2  0  0  3  0  0  0  0  0  0
  187.3270  177.7660  142.3980 C   0  0  2  0  0  3  0  0  0  0  0  0
  185.8240  179.2030  141.2370 C   0  0  2  0  0  3  0  0  0  0  0  0
  188.3580  177.6250  143.5160 C   0  0  2  0  0  3  0  0  0  0  0  0
  183.5660  178.1530  141.7400 C   0  0  0  0  0  2  0  0  0  0  0  0
  186.7630  178.4350  140.3230 C   0  0  0  0  0  2  0  0  0  0  0  0
  185.3110  177.9480  144.8690 C   0  0  0  0  0  2  0  0  0  0  0  0
  183.8110  178.4710  143.0820 O   0  0  0  0  0  0  0  0  0  0  0  0
  190.2950  176.1600  142.2680 C   0  0  0  0  0  2  0  0  0  0  0  0
  190.4870  177.6540  142.5060 C   0  0  1  0  0  3  0  0  0  0  0  0
  185.0770  177.9400  143.3620 C   0  0  1  0  0  3  0  0  0  0  0  0
  187.9490  178.1420  141.1340 N   0  0  2  0  0  0  0  0  0  0  0  0
  187.8350  177.9590  144.9230 C   0  0  1  0  0  3  0  0  0  0  0  0
  190.0910  177.1200  141.1010 C   0  0  2  0  0  3  0  0  0  0  0  0
  188.6750  177.0050  140.6920 N   0  0  0  0  0  0  0  0  0  0  0  0
  186.5660  177.1730  145.2630 C   0  0  0  0  0  2  0  0  0  0  0  0
  188.7040  178.2090  147.2530 C   0  0  0  0  0  3  0  0  0  0  0  0
  188.8880  177.7100  145.9590 C   0  0  0  0  0  0  0  0  0  0  0  0
  190.0550  176.9930  145.6520 C   0  0  0  0  0  3  0  0  0  0  0  0
  192.1810  176.0720  146.3260 O   0  0  0  0  0  1  0  0  0  0  0  0
  190.8380  177.2810  147.9240 C   0  0  0  0  0  3  0  0  0  0  0  0
  191.0270  176.7810  146.6340 C   0  0  0  0  0  0  0  0  0  0  0  0
  189.6760  177.9950  148.2350 C   0  0  0  0  0  3  0  0  0  0  0  0
  188.7370  176.9480  139.2260 C   0  0  0  0  0  2  0  0  0  0  0  0
  189.9190  177.7590  138.6870 C   0  0  1  0  0  3  0  0  0  0  0  0
  190.3320  175.4720  137.7680 C   0  0  0  0  0  1  0  0  0  0  0  0
  190.8550  176.8940  137.8520 C   0  0  0  0  0  2  0  0  0  0  0  0
  189.4270  178.9560  137.8840 C   0  0  0  0  0  2  0  0  0  0  0  0
  188.4040  178.5380  136.8410 C   0  0  0  0  0  2  0  0  0  0  0  0
  187.3280  179.4270  136.8360 O   0  0  0  0  0  1  0  0  0  0  0  0
  184.1410  178.8180  139.5010 O   0  0  0  0  0  0  0  0  0  0  0  0
  183.1240  179.6490  138.9920 C   0  0  0  0  0  0  0  0  0  0  0  0
  182.0630  179.7320  139.8800 F   0  0  0  0  0  0  0  0  0  0  0  0
  183.6120  180.9190  138.7230 F   0  0  0  0  0  0  0  0  0  0  0  0
  182.6600  179.1030  137.8110 F   0  0  0  0  0  0  0  0  0  0  0  0
  1 13  1  0  0  0  0
  2  6  1  0  0  0  0
  3  5  1  0  0  0  0
  3  7  1  0  0  0  0
  4  1  1  0  0  0  0
  4  6  1  0  0  0  0
  5  1  1  0  0  0  0
  6 15  1  0  0  0  0
  7 10  1  0  0  0  0
  8 14  1  0  0  0  0
  8  5  1  0  0  0  0
  9 18  1  0  0  0  0
 10 13  1  0  0  0  0
 11 12  1  0  0  0  0
 12  2  1  0  0  0  0
 13  9  1  0  0  0  0
 14  4  1  0  0  0  0
 15 18  1  0  0  0  0
 15 20  1  0  0  0  0
 16 11  1  0  0  0  0
 16 12  1  0  0  0  0
 17 16  1  0  0  0  0
 17 14  1  0  0  0  0
 19 25  1  0  0  0  0
 20 19  2  0  0  0  0
 21 20  1  0  0  0  0
 21 24  2  0  0  0  0
 22 24  1  0  0  0  0
 23 25  2  0  0  0  0
 24 23  1  0  0  0  0
 26 17  1  0  0  0  0
 27 26  1  0  0  0  0
 28 29  1  0  0  0  0
 29 27  1  0  0  0  0
 30 27  1  0  0  0  0
 31 30  1  0  0  0  0
 32 31  1  0  0  0  0
 33  3  1  0  0  0  0
 34 33  1  0  0  0  0
 34 35  1  0  0  0  0
 36 34  1  0  0  0  0
 37 34  1  0  0  0  0
M  END
>  <MODEL>
2

>  <REMARK>
 VINA RESULT:      -8.5      2.594      6.615
  Name = 
  8 active torsions:
  status: ('A' for Active; 'I' for Inactive)
    1  A    between atoms: C_1  and  C_4
    2  A    between atoms: C_1  and  N_27
    3  A    between atoms: C_2  and  O_22
    4  A    between atoms: C_4  and  C_12
    5  A    between atoms: C_4  and  C_37
    6  A    between atoms: C_6  and  O_22
    7  A    between atoms: C_8  and  C_12
    8  A    between atoms: C_23  and  C_30
                            x       y       z     vdW  Elec       q    Type
                         _______ _______ _______ _____ _____    ______ ____

>  <TORSDO>
F 8

$$$$
=
 OpenBabel11122411483D

 37 42  0  0  1  0  0  0  0  0999 V2000
  184.8290  177.9700  143.9840 C   0  0  1  0  0  3  0  0  0  0  0  0
  183.9280  177.5320  140.7830 O   0  0  0  0  0  0  0  0  0  0  0  0
  186.8040  177.8960  145.6930 C   0  0  2  0  0  3  0  0  0  0  0  0
  184.9940  178.6080  142.6180 C   0  0  2  0  0  3  0  0  0  0  0  0
  186.2510  177.4950  144.3070 C   0  0  2  0  0  3  0  0  0  0  0  0
  183.7720  178.5800  141.7020 C   0  0  2  0  0  3  0  0  0  0  0  0
  186.0680  179.0970  146.2700 C   0  0  0  0  0  2  0  0  0  0  0  0
  187.0860  177.9390  143.1180 C   0  0  0  0  0  2  0  0  0  0  0  0
  182.7700  179.1110  144.8540 C   0  0  0  0  0  2  0  0  0  0  0  0
  184.6920  178.8330  146.2480 O   0  0  0  0  0  0  0  0  0  0  0  0
  184.8550  179.4310  139.3450 C   0  0  0  0  0  2  0  0  0  0  0  0
  184.5230  177.9570  139.5570 C   0  0  1  0  0  3  0  0  0  0  0  0
  184.2920  179.0600  144.9250 C   0  0  1  0  0  3  0  0  0  0  0  0
  186.1570  177.9970  141.9850 N   0  0  2  0  0  0  0  0  0  0  0  0
  182.4210  178.4920  142.4320 C   0  0  1  0  0  3  0  0  0  0  0  0
  185.9900  178.4620  139.6630 C   0  0  2  0  0  3  0  0  0  0  0  0
  186.5670  178.8860  140.9560 N   0  0  0  0  0  0  0  0  0  0  0  0
  182.2700  179.5860  143.4910 C   0  0  0  0  0  2  0  0  0  0  0  0
  180.2060  177.6750  141.6100 C   0  0  0  0  0  3  0  0  0  0  0  0
  181.2820  178.5560  141.4600 C   0  0  0  0  0  0  0  0  0  0  0  0
  181.2810  179.4780  140.4010 C   0  0  0  0  0  3  0  0  0  0  0  0
  180.2140  180.4270  138.4560 O   0  0  0  0  0  1  0  0  0  0  0  0
  179.1390  178.6310  139.6580 C   0  0  0  0  0  3  0  0  0  0  0  0
  180.2110  179.5140  139.5020 C   0  0  0  0  0  0  0  0  0  0  0  0
  179.1360  177.7110  140.7110 C   0  0  0  0  0  3  0  0  0  0  0  0
  188.0170  178.8130  140.7350 C   0  0  0  0  0  2  0  0  0  0  0  0
  188.3450  178.0650  139.4400 C   0  0  1  0  0  3  0  0  0  0  0  0
  188.5840  178.6570  137.0240 C   0  0  0  0  0  1  0  0  0  0  0  0
  189.0480  178.9690  138.4350 C   0  0  0  0  0  2  0  0  0  0  0  0
  189.1820  176.8270  139.7330 C   0  0  0  0  0  2  0  0  0  0  0  0
  190.1990  177.0960  140.8310 C   0  0  0  0  0  2  0  0  0  0  0  0
  190.1950  176.0550  141.7590 O   0  0  0  0  0  1  0  0  0  0  0  0
  188.1880  178.1430  145.6560 O   0  0  0  0  0  0  0  0  0  0  0  0
  188.7650  177.5850  146.8130 C   0  0  0  0  0  0  0  0  0  0  0  0
  189.0500  178.5690  147.7480 F   0  0  0  0  0  0  0  0  0  0  0  0
  187.9260  176.6340  147.3740 F   0  0  0  0  0  0  0  0  0  0  0  0
  189.9490  176.9660  146.4610 F   0  0  0  0  0  0  0  0  0  0  0  0
  1  5  1  0  0  0  0
  1 13  1  0  0  0  0
  2  6  1  0  0  0  0
  3  7  1  0  0  0  0
  4  1  1  0  0  0  0
  5  3  1  0  0  0  0
  6 15  1  0  0  0  0
  6  4  1  0  0  0  0
  8  5  1  0  0  0  0
  9 13  1  0  0  0  0
 10  7  1  0  0  0  0
 11 12  1  0  0  0  0
 11 16  1  0  0  0  0
 12 16  1  0  0  0  0
 12  2  1  0  0  0  0
 13 10  1  0  0  0  0
 14  4  1  0  0  0  0
 14  8  1  0  0  0  0
 15 18  1  0  0  0  0
 16 17  1  0  0  0  0
 17 14  1  0  0  0  0
 18  9  1  0  0  0  0
 20 19  1  0  0  0  0
 20 15  1  0  0  0  0
 21 20  2  0  0  0  0
 22 24  1  0  0  0  0
 23 25  1  0  0  0  0
 24 23  2  0  0  0  0
 24 21  1  0  0  0  0
 25 19  2  0  0  0  0
 26 17  1  0  0  0  0
 27 30  1  0  0  0  0
 27 26  1  0  0  0  0
 28 29  1  0  0  0  0
 29 27  1  0  0  0  0
 30 31  1  0  0  0  0
 31 32  1  0  0  0  0
 33  3  1  0  0  0  0
 33 34  1  0  0  0  0
 34 36  1  0  0  0  0
 34 35  1  0  0  0  0
 37 34  1  0  0  0  0
M  END
>  <MODEL>
3

>  <REMARK>
 VINA RESULT:      -8.0      3.387      7.945
  Name = 
  8 active torsions:
  status: ('A' for Active; 'I' for Inactive)
    1  A    between atoms: C_1  and  C_4
    2  A    between atoms: C_1  and  N_27
    3  A    between atoms: C_2  and  O_22
    4  A    between atoms: C_4  and  C_12
    5  A    between atoms: C_4  and  C_37
    6  A    between atoms: C_6  and  O_22
    7  A    between atoms: C_8  and  C_12
    8  A    between atoms: C_23  and  C_30
                            x       y       z     vdW  Elec       q    Type
                         _______ _______ _______ _____ _____    ______ ____

>  <TORSDO>
F 8

$$$$
=
 OpenBabel11122411483D

 37 42  0  0  1  0  0  0  0  0999 V2000
  186.4110  178.7070  142.6940 C   0  0  1  0  0  3  0  0  0  0  0  0
  189.7040  178.4870  143.2900 O   0  0  0  0  0  0  0  0  0  0  0  0
  184.5760  179.1470  140.8860 C   0  0  2  0  0  3  0  0  0  0  0  0
  187.6010  177.8120  142.4050 C   0  0  2  0  0  3  0  0  0  0  0  0
  186.0590  179.2560  141.3050 C   0  0  2  0  0  3  0  0  0  0  0  0
  188.6130  177.6410  143.5360 C   0  0  2  0  0  3  0  0  0  0  0  0
  183.8410  178.0750  141.6800 C   0  0  0  0  0  2  0  0  0  0  0  0
  187.0530  178.5950  140.3660 C   0  0  0  0  0  2  0  0  0  0  0  0
  185.5250  177.7350  144.8310 C   0  0  0  0  0  2  0  0  0  0  0  0
  184.0420  178.3110  143.0460 O   0  0  0  0  0  0  0  0  0  0  0  0
  190.6420  176.3520  142.2430 C   0  0  0  0  0  2  0  0  0  0  0  0
  190.7600  177.8340  142.5850 C   0  0  1  0  0  3  0  0  0  0  0  0
  185.3250  177.8190  143.3220 C   0  0  1  0  0  3  0  0  0  0  0  0
  188.2320  178.3010  141.1850 N   0  0  2  0  0  0  0  0  0  0  0  0
  188.0440  177.8550  144.9500 C   0  0  1  0  0  3  0  0  0  0  0  0
  190.4200  177.3790  141.1380 C   0  0  2  0  0  3  0  0  0  0  0  0
  189.0210  177.2300  140.6860 N   0  0  0  0  0  0  0  0  0  0  0  0
  186.8060  176.9920  145.2040 C   0  0  0  0  0  2  0  0  0  0  0  0
  188.9240  178.1230  147.2730 C   0  0  0  0  0  3  0  0  0  0  0  0
  189.0840  177.5830  145.9930 C   0  0  0  0  0  0  0  0  0  0  0  0
  190.2170  176.8040  145.7050 C   0  0  0  0  0  3  0  0  0  0  0  0
  192.2970  175.8020  146.4040 O   0  0  0  0  0  1  0  0  0  0  0  0
  191.0120  177.1130  147.9700 C   0  0  0  0  0  3  0  0  0  0  0  0
  191.1780  176.5720  146.6930 C   0  0  0  0  0  0  0  0  0  0  0  0
  189.8860  177.8880  148.2610 C   0  0  0  0  0  3  0  0  0  0  0  0
  189.1170  177.2760  139.2210 C   0  0  0  0  0  2  0  0  0  0  0  0
  190.0800  176.2100  138.6930 C   0  0  1  0  0  3  0  0  0  0  0  0
  188.0900  175.8730  137.2210 C   0  0  0  0  0  1  0  0  0  0  0  0
  189.3880  175.2650  137.7180 C   0  0  0  0  0  2  0  0  0  0  0  0
  191.2970  176.8590  138.0470 C   0  0  0  0  0  2  0  0  0  0  0  0
  192.5480  176.0230  138.2620 C   0  0  0  0  0  2  0  0  0  0  0  0
  193.5800  176.8170  138.7620 O   0  0  0  0  0  1  0  0  0  0  0  0
  184.4350  178.9160  139.5060 O   0  0  0  0  0  0  0  0  0  0  0  0
  183.2400  179.5280  139.0790 C   0  0  0  0  0  0  0  0  0  0  0  0
  182.2560  179.4220  140.0490 F   0  0  0  0  0  0  0  0  0  0  0  0
  183.4520  180.8630  138.7690 F   0  0  0  0  0  0  0  0  0  0  0  0
  182.7980  178.8820  137.9400 F   0  0  0  0  0  0  0  0  0  0  0  0
  1 13  1  0  0  0  0
  2  6  1  0  0  0  0
  3  5  1  0  0  0  0
  3  7  1  0  0  0  0
  4  1  1  0  0  0  0
  4  6  1  0  0  0  0
  5  1  1  0  0  0  0
  6 15  1  0  0  0  0
  7 10  1  0  0  0  0
  8 14  1  0  0  0  0
  8  5  1  0  0  0  0
  9 18  1  0  0  0  0
 10 13  1  0  0  0  0
 11 12  1  0  0  0  0
 12  2  1  0  0  0  0
 13  9  1  0  0  0  0
 14  4  1  0  0  0  0
 15 18  1  0  0  0  0
 15 20  1  0  0  0  0
 16 11  1  0  0  0  0
 16 12  1  0  0  0  0
 17 16  1  0  0  0  0
 17 14  1  0  0  0  0
 19 25  1  0  0  0  0
 20 19  2  0  0  0  0
 21 20  1  0  0  0  0
 21 24  2  0  0  0  0
 22 24  1  0  0  0  0
 23 25  2  0  0  0  0
 24 23  1  0  0  0  0
 26 17  1  0  0  0  0
 27 26  1  0  0  0  0
 28 29  1  0  0  0  0
 29 27  1  0  0  0  0
 30 31  1  0  0  0  0
 30 27  1  0  0  0  0
 31 32  1  0  0  0  0
 33  3  1  0  0  0  0
 34 33  1  0  0  0  0
 34 35  1  0  0  0  0
 36 34  1  0  0  0  0
 37 34  1  0  0  0  0
M  END
>  <MODEL>
4

>  <REMARK>
 VINA RESULT:      -8.0      2.390      6.618
  Name = 
  8 active torsions:
  status: ('A' for Active; 'I' for Inactive)
    1  A    between atoms: C_1  and  C_4
    2  A    between atoms: C_1  and  N_27
    3  A    between atoms: C_2  and  O_22
    4  A    between atoms: C_4  and  C_12
    5  A    between atoms: C_4  and  C_37
    6  A    between atoms: C_6  and  O_22
    7  A    between atoms: C_8  and  C_12
    8  A    between atoms: C_23  and  C_30
                            x       y       z     vdW  Elec       q    Type
                         _______ _______ _______ _____ _____    ______ ____

>  <TORSDO>
F 8

$$$$
=
 OpenBabel11122411483D

 37 42  0  0  1  0  0  0  0  0999 V2000
  190.0340  176.9340  141.6370 C   0  0  1  0  0  3  0  0  0  0  0  0
  187.0430  177.1250  143.1440 O   0  0  0  0  0  0  0  0  0  0  0  0
  191.2810  176.6560  139.3590 C   0  0  2  0  0  3  0  0  0  0  0  0
  188.8430  177.8640  141.7740 C   0  0  2  0  0  3  0  0  0  0  0  0
  189.9690  176.5200  140.1620 C   0  0  2  0  0  3  0  0  0  0  0  0
  188.1900  177.9330  143.1530 C   0  0  2  0  0  3  0  0  0  0  0  0
  192.2440  177.6390  140.0110 C   0  0  0  0  0  2  0  0  0  0  0  0
  188.7780  177.2780  139.6010 C   0  0  0  0  0  2  0  0  0  0  0  0
  191.5100  177.6860  143.5230 C   0  0  0  0  0  2  0  0  0  0  0  0
  192.4200  177.2730  141.3510 O   0  0  0  0  0  0  0  0  0  0  0  0
  185.9300  179.3600  142.5980 C   0  0  0  0  0  2  0  0  0  0  0  0
  185.8580  177.8540  142.8240 C   0  0  1  0  0  3  0  0  0  0  0  0
  191.2830  177.7470  142.0160 C   0  0  1  0  0  3  0  0  0  0  0  0
  187.8820  177.5020  140.7390 N   0  0  2  0  0  0  0  0  0  0  0  0
  189.1190  177.5780  144.3260 C   0  0  1  0  0  3  0  0  0  0  0  0
  185.8010  178.4430  141.3860 C   0  0  2  0  0  3  0  0  0  0  0  0
  187.0260  178.6240  140.5790 N   0  0  0  0  0  0  0  0  0  0  0  0
  190.4090  178.4010  144.3040 C   0  0  0  0  0  2  0  0  0  0  0  0
  189.0920  177.4380  146.8220 C   0  0  0  0  0  3  0  0  0  0  0  0
  188.4180  177.7560  145.6380 C   0  0  0  0  0  0  0  0  0  0  0  0
  187.0980  178.2300  145.6990 C   0  0  0  0  0  3  0  0  0  0  0  0
  185.1550  178.8480  146.9890 O   0  0  0  0  0  1  0  0  0  0  0  0
  187.1400  178.0610  148.1120 C   0  0  0  0  0  3  0  0  0  0  0  0
  186.4610  178.3800  146.9340 C   0  0  0  0  0  0  0  0  0  0  0  0
  188.4560  177.5900  148.0570 C   0  0  0  0  0  3  0  0  0  0  0  0
  186.5270  178.7210  139.2010 C   0  0  0  0  0  2  0  0  0  0  0  0
  185.0290  178.4120  139.1290 C   0  0  1  0  0  3  0  0  0  0  0  0
  182.7310  179.3510  138.8460 C   0  0  0  0  0  1  0  0  0  0  0  0
  184.2010  179.6860  139.0210 C   0  0  0  0  0  2  0  0  0  0  0  0
  184.7310  177.4720  137.9670 C   0  0  0  0  0  2  0  0  0  0  0  0
  185.9730  177.2190  137.1300 C   0  0  0  0  0  2  0  0  0  0  0  0
  186.2900  175.8600  137.1330 O   0  0  0  0  0  1  0  0  0  0  0  0
  191.0440  177.0190  138.0200 O   0  0  0  0  0  0  0  0  0  0  0  0
  191.7290  176.1100  137.1910 C   0  0  0  0  0  0  0  0  0  0  0  0
  191.0350  175.8990  136.0090 F   0  0  0  0  0  0  0  0  0  0  0  0
  193.0080  176.5650  136.9090 F   0  0  0  0  0  0  0  0  0  0  0  0
  191.8330  174.9020  137.8530 F   0  0  0  0  0  0  0  0  0  0  0  0
  1  4  1  0  0  0  0
  1 13  1  0  0  0  0
  2  6  1  0  0  0  0
  3  7  1  0  0  0  0
  3  5  1  0  0  0  0
  4  6  1  0  0  0  0
  5  1  1  0  0  0  0
  6 15  1  0  0  0  0
  7 10  1  0  0  0  0
  8  5  1  0  0  0  0
  8 14  1  0  0  0  0
  9 18  1  0  0  0  0
 10 13  1  0  0  0  0
 11 12  1  0  0  0  0
 12  2  1  0  0  0  0
 13  9  1  0  0  0  0
 14  4  1  0  0  0  0
 15 20  1  0  0  0  0
 16 11  1  0  0  0  0
 16 12  1  0  0  0  0
 17 14  1  0  0  0  0
 17 16  1  0  0  0  0
 18 15  1  0  0  0  0
 19 25  1  0  0  0  0
 20 21  1  0  0  0  0
 20 19  2  0  0  0  0
 21 24  2  0  0  0  0
 24 22  1  0  0  0  0
 24 23  1  0  0  0  0
 25 23  2  0  0  0  0
 26 17  1  0  0  0  0
 27 26  1  0  0  0  0
 28 29  1  0  0  0  0
 29 27  1  0  0  0  0
 30 27  1  0  0  0  0
 31 32  1  0  0  0  0
 31 30  1  0  0  0  0
 33  3  1  0  0  0  0
 34 37  1  0  0  0  0
 34 33  1  0  0  0  0
 35 34  1  0  0  0  0
 36 34  1  0  0  0  0
M  END
>  <MODEL>
5

>  <REMARK>
 VINA RESULT:      -7.9      3.931      8.489
  Name = 
  8 active torsions:
  status: ('A' for Active; 'I' for Inactive)
    1  A    between atoms: C_1  and  C_4
    2  A    between atoms: C_1  and  N_27
    3  A    between atoms: C_2  and  O_22
    4  A    between atoms: C_4  and  C_12
    5  A    between atoms: C_4  and  C_37
    6  A    between atoms: C_6  and  O_22
    7  A    between atoms: C_8  and  C_12
    8  A    between atoms: C_23  and  C_30
                            x       y       z     vdW  Elec       q    Type
                         _______ _______ _______ _____ _____    ______ ____

>  <TORSDO>
F 8

$$$$
=
 OpenBabel11122411483D

 37 42  0  0  1  0  0  0  0  0999 V2000
  186.3200  177.5270  144.0370 C   0  0  1  0  0  3  0  0  0  0  0  0
  184.1590  177.5930  141.4720 O   0  0  0  0  0  0  0  0  0  0  0  0
  188.7870  177.0620  144.7590 C   0  0  2  0  0  3  0  0  0  0  0  0
  186.0040  178.3240  142.7850 C   0  0  2  0  0  3  0  0  0  0  0  0
  187.6760  176.8950  143.6990 C   0  0  2  0  0  3  0  0  0  0  0  0
  184.5250  178.5200  142.4600 C   0  0  2  0  0  3  0  0  0  0  0  0
  188.5090  178.2340  145.6910 C   0  0  0  0  0  2  0  0  0  0  0  0
  188.0120  177.4210  142.3140 C   0  0  0  0  0  2  0  0  0  0  0  0
  184.9540  178.7130  145.7760 C   0  0  0  0  0  2  0  0  0  0  0  0
  187.2200  178.0920  146.2190 O   0  0  0  0  0  0  0  0  0  0  0  0
  184.6700  179.5810  139.9480 C   0  0  0  0  0  2  0  0  0  0  0  0
  184.2610  178.1260  140.1510 C   0  0  1  0  0  3  0  0  0  0  0  0
  186.3550  178.5250  145.2050 C   0  0  1  0  0  3  0  0  0  0  0  0
  186.7230  177.7060  141.6770 N   0  0  2  0  0  0  0  0  0  0  0  0
  183.5820  178.4510  143.6730 C   0  0  1  0  0  3  0  0  0  0  0  0
  185.6990  178.4870  139.6830 C   0  0  2  0  0  3  0  0  0  0  0  0
  186.7970  178.6860  140.6520 N   0  0  0  0  0  0  0  0  0  0  0  0
  184.0150  179.4040  144.7890 C   0  0  0  0  0  2  0  0  0  0  0  0
  181.1290  178.4280  144.1550 C   0  0  0  0  0  3  0  0  0  0  0  0
  182.1680  178.7390  143.2700 C   0  0  0  0  0  0  0  0  0  0  0  0
  181.8690  179.3070  142.0220 C   0  0  0  0  0  3  0  0  0  0  0  0
  180.2490  180.1190  140.4280 O   0  0  0  0  0  1  0  0  0  0  0  0
  179.5080  179.2470  142.5530 C   0  0  0  0  0  3  0  0  0  0  0  0
  180.5410  179.5590  141.6650 C   0  0  0  0  0  0  0  0  0  0  0  0
  179.8010  178.6820  143.7980 C   0  0  0  0  0  3  0  0  0  0  0  0
  188.0120  178.5210  139.8440 C   0  0  0  0  0  2  0  0  0  0  0  0
  187.7020  177.8480  138.5040 C   0  0  1  0  0  3  0  0  0  0  0  0
  187.2370  178.3180  136.0950 C   0  0  0  0  0  1  0  0  0  0  0  0
  187.9850  178.7790  137.3320 C   0  0  0  0  0  2  0  0  0  0  0  0
  188.4850  176.5480  138.3640 C   0  0  0  0  0  2  0  0  0  0  0  0
  189.9130  176.7080  138.8570 C   0  0  0  0  0  2  0  0  0  0  0  0
  190.6200  175.5170  138.6860 O   0  0  0  0  0  1  0  0  0  0  0  0
  190.0590  177.1940  144.1730 O   0  0  0  0  0  0  0  0  0  0  0  0
  191.0180  176.7360  145.0980 C   0  0  0  0  0  0  0  0  0  0  0  0
  190.4090  176.2840  146.2590 F   0  0  0  0  0  0  0  0  0  0  0  0
  191.7910  175.7240  144.5480 F   0  0  0  0  0  0  0  0  0  0  0  0
  191.8510  177.7880  145.4260 F   0  0  0  0  0  0  0  0  0  0  0  0
  1 13  1  0  0  0  0
  2  6  1  0  0  0  0
  3  7  1  0  0  0  0
  4  1  1  0  0  0  0
  5  1  1  0  0  0  0
  5  3  1  0  0  0  0
  6  4  1  0  0  0  0
  6 15  1  0  0  0  0
  7 10  1  0  0  0  0
  8  5  1  0  0  0  0
 11 12  1  0  0  0  0
 12  2  1  0  0  0  0
 13  9  1  0  0  0  0
 13 10  1  0  0  0  0
 14  8  1  0  0  0  0
 14  4  1  0  0  0  0
 15 18  1  0  0  0  0
 16 11  1  0  0  0  0
 16 12  1  0  0  0  0
 16 17  1  0  0  0  0
 17 14  1  0  0  0  0
 18  9  1  0  0  0  0
 20 15  1  0  0  0  0
 20 19  2  0  0  0  0
 21 20  1  0  0  0  0
 22 24  1  0  0  0  0
 23 25  2  0  0  0  0
 24 21  2  0  0  0  0
 24 23  1  0  0  0  0
 25 19  1  0  0  0  0
 26 17  1  0  0  0  0
 27 26  1  0  0  0  0
 28 29  1  0  0  0  0
 29 27  1  0  0  0  0
 30 27  1  0  0  0  0
 30 31  1  0  0  0  0
 32 31  1  0  0  0  0
 33  3  1  0  0  0  0
 33 34  1  0  0  0  0
 34 37  1  0  0  0  0
 34 35  1  0  0  0  0
 36 34  1  0  0  0  0
M  END
>  <MODEL>
6

>  <REMARK>
 VINA RESULT:      -7.8      3.375      8.462
  Name = 
  8 active torsions:
  status: ('A' for Active; 'I' for Inactive)
    1  A    between atoms: C_1  and  C_4
    2  A    between atoms: C_1  and  N_27
    3  A    between atoms: C_2  and  O_22
    4  A    between atoms: C_4  and  C_12
    5  A    between atoms: C_4  and  C_37
    6  A    between atoms: C_6  and  O_22
    7  A    between atoms: C_8  and  C_12
    8  A    between atoms: C_23  and  C_30
                            x       y       z     vdW  Elec       q    Type
                         _______ _______ _______ _____ _____    ______ ____

>  <TORSDO>
F 8

$$$$
=
 OpenBabel11122411483D

 37 42  0  0  1  0  0  0  0  0999 V2000
  187.2940  177.4890  141.8810 C   0  0  1  0  0  3  0  0  0  0  0  0
  190.1470  175.7530  142.1980 O   0  0  0  0  0  0  0  0  0  0  0  0
  185.0970  178.2510  143.0710 C   0  0  2  0  0  3  0  0  0  0  0  0
  188.6340  177.5470  142.5900 C   0  0  2  0  0  3  0  0  0  0  0  0
  186.3090  177.2940  143.0400 C   0  0  2  0  0  3  0  0  0  0  0  0
  189.8450  177.0630  141.7960 C   0  0  2  0  0  3  0  0  0  0  0  0
  185.3580  179.5200  142.2710 C   0  0  0  0  0  2  0  0  0  0  0  0
  187.1760  177.2980  144.2880 C   0  0  0  0  0  2  0  0  0  0  0  0
  187.7750  178.7130  139.7440 C   0  0  0  0  0  2  0  0  0  0  0  0
  185.7810  179.1610  140.9850 O   0  0  0  0  0  0  0  0  0  0  0  0
  191.7630  176.9980  143.7390 C   0  0  0  0  0  2  0  0  0  0  0  0
  191.1260  175.7070  143.2360 C   0  0  1  0  0  3  0  0  0  0  0  0
  187.1310  178.8160  141.1230 C   0  0  1  0  0  3  0  0  0  0  0  0
  188.4950  176.8300  143.8520 N   0  0  2  0  0  0  0  0  0  0  0  0
  189.6970  177.1630  140.2680 C   0  0  1  0  0  3  0  0  0  0  0  0
  190.6930  176.3270  144.5940 C   0  0  2  0  0  3  0  0  0  0  0  0
  189.5590  177.2710  144.6830 N   0  0  0  0  0  0  0  0  0  0  0  0
  189.2930  178.5700  139.8230 C   0  0  0  0  0  2  0  0  0  0  0  0
  192.1760  177.3100  139.9870 C   0  0  0  0  0  3  0  0  0  0  0  0
  190.9610  176.7480  139.5790 C   0  0  0  0  0  0  0  0  0  0  0  0
  190.9460  175.8140  138.5310 C   0  0  0  0  0  3  0  0  0  0  0  0
  192.1180  174.5260  136.8610 O   0  0  0  0  0  1  0  0  0  0  0  0
  193.3480  176.0140  138.3100 C   0  0  0  0  0  3  0  0  0  0  0  0
  192.1380  175.4500  137.8980 C   0  0  0  0  0  0  0  0  0  0  0  0
  193.3680  176.9440  139.3540 C   0  0  0  0  0  3  0  0  0  0  0  0
  189.1800  177.2320  146.1010 C   0  0  0  0  0  2  0  0  0  0  0  0
  190.4080  177.3360  147.0090 C   0  0  1  0  0  3  0  0  0  0  0  0
  188.6620  178.2310  148.5540 C   0  0  0  0  0  1  0  0  0  0  0  0
  190.1400  178.2300  148.2130 C   0  0  0  0  0  2  0  0  0  0  0  0
  190.8660  175.9520  147.4520 C   0  0  0  0  0  2  0  0  0  0  0  0
  192.3750  175.8110  147.3490 C   0  0  0  0  0  2  0  0  0  0  0  0
  192.9770  176.1580  148.5590 O   0  0  0  0  0  1  0  0  0  0  0  0
  184.7130  178.5720  144.3860 O   0  0  0  0  0  0  0  0  0  0  0  0
  183.3770  179.0180  144.3560 C   0  0  0  0  0  0  0  0  0  0  0  0
  182.6770  178.4150  143.3220 F   0  0  0  0  0  0  0  0  0  0  0  0
  182.7440  178.7620  145.5640 F   0  0  0  0  0  0  0  0  0  0  0  0
  183.3730  180.3830  144.1440 F   0  0  0  0  0  0  0  0  0  0  0  0
  1  4  1  0  0  0  0
  1  5  1  0  0  0  0
  2 12  1  0  0  0  0
  3 33  1  0  0  0  0
  4 14  1  0  0  0  0
  5  3  1  0  0  0  0
  5  8  1  0  0  0  0
  6  2  1  0  0  0  0
  6  4  1  0  0  0  0
  7  3  1  0  0  0  0
  9 18  1  0  0  0  0
  9 13  1  0  0  0  0
 10 13  1  0  0  0  0
 10  7  1  0  0  0  0
 11 16  1  0  0  0  0
 12 11  1  0  0  0  0
 12 16  1  0  0  0  0
 13  1  1  0  0  0  0
 14  8  1  0  0  0  0
 14 17  1  0  0  0  0
 15  6  1  0  0  0  0
 16 17  1  0  0  0  0
 17 26  1  0  0  0  0
 18 15  1  0  0  0  0
 20 19  1  0  0  0  0
 20 15  1  0  0  0  0
 21 20  2  0  0  0  0
 22 24  1  0  0  0  0
 23 25  1  0  0  0  0
 24 23  2  0  0  0  0
 24 21  1  0  0  0  0
 25 19  2  0  0  0  0
 26 27  1  0  0  0  0
 27 30  1  0  0  0  0
 27 29  1  0  0  0  0
 29 28  1  0  0  0  0
 31 30  1  0  0  0  0
 31 32  1  0  0  0  0
 34 33  1  0  0  0  0
 34 36  1  0  0  0  0
 35 34  1  0  0  0  0
 37 34  1  0  0  0  0
M  END
>  <MODEL>
7

>  <REMARK>
 VINA RESULT:      -7.6      1.233      1.748
  Name = 
  8 active torsions:
  status: ('A' for Active; 'I' for Inactive)
    1  A    between atoms: C_1  and  C_4
    2  A    between atoms: C_1  and  N_27
    3  A    between atoms: C_2  and  O_22
    4  A    between atoms: C_4  and  C_12
    5  A    between atoms: C_4  and  C_37
    6  A    between atoms: C_6  and  O_22
    7  A    between atoms: C_8  and  C_12
    8  A    between atoms: C_23  and  C_30
                            x       y       z     vdW  Elec       q    Type
                         _______ _______ _______ _____ _____    ______ ____

>  <TORSDO>
F 8

$$$$
=
 OpenBabel11122411483D

 37 42  0  0  1  0  0  0  0  0999 V2000
  187.5490  178.2640  138.9060 C   0  0  1  0  0  3  0  0  0  0  0  0
  185.5470  179.6920  141.1880 O   0  0  0  0  0  0  0  0  0  0  0  0
  189.9210  177.2730  138.4450 C   0  0  2  0  0  3  0  0  0  0  0  0
  186.7910  177.9330  140.1770 C   0  0  2  0  0  3  0  0  0  0  0  0
  189.0130  178.1390  139.3450 C   0  0  2  0  0  3  0  0  0  0  0  0
  185.4180  178.5820  140.3390 C   0  0  2  0  0  3  0  0  0  0  0  0
  189.1150  176.2990  137.5970 C   0  0  0  0  0  2  0  0  0  0  0  0
  188.9430  177.7150  140.8030 C   0  0  0  0  0  2  0  0  0  0  0  0
  185.8580  177.7320  137.1290 C   0  0  0  0  0  2  0  0  0  0  0  0
  188.1280  177.0150  136.9070 O   0  0  0  0  0  0  0  0  0  0  0  0
  184.8420  177.9650  142.9350 C   0  0  0  0  0  2  0  0  0  0  0  0
  185.2790  179.3750  142.5540 C   0  0  1  0  0  3  0  0  0  0  0  0
  187.1120  177.2420  137.8450 C   0  0  1  0  0  3  0  0  0  0  0  0
  187.6670  178.2350  141.3030 N   0  0  2  0  0  0  0  0  0  0  0  0
  184.7230  178.9610  139.0200 C   0  0  1  0  0  3  0  0  0  0  0  0
  186.2780  178.3890  143.2220 C   0  0  2  0  0  3  0  0  0  0  0  0
  187.1540  177.5140  142.4140 N   0  0  0  0  0  0  0  0  0  0  0  0
  184.6440  177.7760  138.0540 C   0  0  0  0  0  2  0  0  0  0  0  0
  182.4870  178.8160  140.1280 C   0  0  0  0  0  3  0  0  0  0  0  0
  183.3530  179.5100  139.2750 C   0  0  0  0  0  0  0  0  0  0  0  0
  182.9220  180.7010  138.6690 C   0  0  0  0  0  3  0  0  0  0  0  0
  181.2130  182.3660  138.3130 O   0  0  0  0  0  1  0  0  0  0  0  0
  180.7760  180.4920  139.7680 C   0  0  0  0  0  3  0  0  0  0  0  0
  181.6350  181.1890  138.9150 C   0  0  0  0  0  0  0  0  0  0  0  0
  181.2010  179.3060  140.3750 C   0  0  0  0  0  3  0  0  0  0  0  0
  188.2250  177.1340  143.3440 C   0  0  0  0  0  2  0  0  0  0  0  0
  188.1180  177.9060  144.6610 C   0  0  1  0  0  3  0  0  0  0  0  0
  186.8520  178.0510  146.8110 C   0  0  0  0  0  1  0  0  0  0  0  0
  187.3190  177.1290  145.7010 C   0  0  0  0  0  2  0  0  0  0  0  0
  189.5020  178.2560  145.1930 C   0  0  0  0  0  2  0  0  0  0  0  0
  190.5170  178.3530  144.0660 C   0  0  0  0  0  2  0  0  0  0  0  0
  191.0030  179.6570  143.9650 O   0  0  0  0  0  1  0  0  0  0  0  0
  190.8950  176.5820  139.1890 O   0  0  0  0  0  0  0  0  0  0  0  0
  192.0160  176.3750  138.3610 C   0  0  0  0  0  0  0  0  0  0  0  0
  192.1540  175.0330  138.0410 F   0  0  0  0  0  0  0  0  0  0  0  0
  191.9170  177.1270  137.1990 F   0  0  0  0  0  0  0  0  0  0  0  0
  193.1470  176.7780  139.0430 F   0  0  0  0  0  0  0  0  0  0  0  0
  1  5  1  0  0  0  0
  1  4  1  0  0  0  0
  2 12  1  0  0  0  0
  3 33  1  0  0  0  0
  3  5  1  0  0  0  0
  4  6  1  0  0  0  0
  4 14  1  0  0  0  0
  5  8  1  0  0  0  0
  6  2  1  0  0  0  0
  7  3  1  0  0  0  0
  8 14  1  0  0  0  0
  9 13  1  0  0  0  0
  9 18  1  0  0  0  0
 10  7  1  0  0  0  0
 10 13  1  0  0  0  0
 11 16  1  0  0  0  0
 12 11  1  0  0  0  0
 12 16  1  0  0  0  0
 13  1  1  0  0  0  0
 14 17  1  0  0  0  0
 15 20  1  0  0  0  0
 15  6  1  0  0  0  0
 17 16  1  0  0  0  0
 17 26  1  0  0  0  0
 18 15  1  0  0  0  0
 19 25  1  0  0  0  0
 20 19  2  0  0  0  0
 21 24  2  0  0  0  0
 21 20  1  0  0  0  0
 22 24  1  0  0  0  0
 23 25  2  0  0  0  0
 24 23  1  0  0  0  0
 26 27  1  0  0  0  0
 27 30  1  0  0  0  0
 27 29  1  0  0  0  0
 29 28  1  0  0  0  0
 31 30  1  0  0  0  0
 32 31  1  0  0  0  0
 34 37  1  0  0  0  0
 34 33  1  0  0  0  0
 35 34  1  0  0  0  0
 36 34  1  0  0  0  0
M  END
>  <MODEL>
8

>  <REMARK>
 VINA RESULT:      -7.6      4.223      7.512
  Name = 
  8 active torsions:
  status: ('A' for Active; 'I' for Inactive)
    1  A    between atoms: C_1  and  C_4
    2  A    between atoms: C_1  and  N_27
    3  A    between atoms: C_2  and  O_22
    4  A    between atoms: C_4  and  C_12
    5  A    between atoms: C_4  and  C_37
    6  A    between atoms: C_6  and  O_22
    7  A    between atoms: C_8  and  C_12
    8  A    between atoms: C_23  and  C_30
                            x       y       z     vdW  Elec       q    Type
                         _______ _______ _______ _____ _____    ______ ____

>  <TORSDO>
F 8

$$$$
=
 OpenBabel11122411483D

 37 42  0  0  1  0  0  0  0  0999 V2000
  185.4070  179.0030  140.7950 C   0  0  1  0  0  3  0  0  0  0  0  0
  188.6980  178.8890  140.1550 O   0  0  0  0  0  0  0  0  0  0  0  0
  183.0270  179.3380  139.7720 C   0  0  2  0  0  3  0  0  0  0  0  0
  186.4420  178.1320  140.1100 C   0  0  2  0  0  3  0  0  0  0  0  0
  184.5560  179.5000  139.6200 C   0  0  2  0  0  3  0  0  0  0  0  0
  187.8010  178.0220  140.7970 C   0  0  2  0  0  3  0  0  0  0  0  0
  182.6700  178.2720  140.7990 C   0  0  0  0  0  2  0  0  0  0  0  0
  185.1630  178.8370  138.3960 C   0  0  0  0  0  2  0  0  0  0  0  0
  185.3940  178.0720  143.1260 C   0  0  0  0  0  2  0  0  0  0  0  0
  183.3440  178.5540  141.9930 O   0  0  0  0  0  0  0  0  0  0  0  0
  189.2670  176.7490  138.8770 C   0  0  0  0  0  2  0  0  0  0  0  0
  189.4480  178.2430  139.1260 C   0  0  1  0  0  3  0  0  0  0  0  0
  184.6560  178.1050  141.7920 C   0  0  1  0  0  3  0  0  0  0  0  0
  186.5700  178.6000  138.7350 N   0  0  2  0  0  0  0  0  0  0  0  0
  187.7780  178.2630  142.3160 C   0  0  1  0  0  3  0  0  0  0  0  0
  188.6220  177.7360  137.9100 C   0  0  2  0  0  3  0  0  0  0  0  0
  187.1600  177.5360  138.0030 N   0  0  0  0  0  0  0  0  0  0  0  0
  186.7490  177.3750  143.0200 C   0  0  0  0  0  2  0  0  0  0  0  0
  189.8430  179.1510  143.4090 C   0  0  0  0  0  3  0  0  0  0  0  0
  189.1350  178.0500  142.9140 C   0  0  0  0  0  0  0  0  0  0  0  0
  189.7100  176.7710  142.9780 C   0  0  0  0  0  3  0  0  0  0  0  0
  191.5460  175.3320  143.5930 O   0  0  0  0  0  1  0  0  0  0  0  0
  191.6820  177.7020  144.0260 C   0  0  0  0  0  3  0  0  0  0  0  0
  190.9810  176.5990  143.5320 C   0  0  0  0  0  0  0  0  0  0  0  0
  191.1140  178.9780  143.9650 C   0  0  0  0  0  3  0  0  0  0  0  0
  186.7160  177.5410  136.6020 C   0  0  0  0  0  2  0  0  0  0  0  0
  186.4210  176.1220  136.1080 C   0  0  1  0  0  3  0  0  0  0  0  0
  188.4720  174.7830  135.6180 C   0  0  0  0  0  1  0  0  0  0  0  0
  187.4070  175.6900  135.0300 C   0  0  0  0  0  2  0  0  0  0  0  0
  186.4220  175.1380  137.2700 C   0  0  0  0  0  2  0  0  0  0  0  0
  185.2130  174.2190  137.2160 C   0  0  0  0  0  2  0  0  0  0  0  0
  185.4970  173.0080  137.8470 O   0  0  0  0  0  1  0  0  0  0  0  0
  182.4020  179.0620  138.5430 O   0  0  0  0  0  0  0  0  0  0  0  0
  181.5890  180.1620  138.2060 C   0  0  0  0  0  0  0  0  0  0  0  0
  182.2590  181.3570  138.4260 F   0  0  0  0  0  0  0  0  0  0  0  0
  181.1810  180.0890  136.8830 F   0  0  0  0  0  0  0  0  0  0  0  0
  180.4650  180.1420  139.0090 F   0  0  0  0  0  0  0  0  0  0  0  0
  1 13  1  0  0  0  0
  2  6  1  0  0  0  0
  3  7  1  0  0  0  0
  4  1  1  0  0  0  0
  4  6  1  0  0  0  0
  5  3  1  0  0  0  0
  5  1  1  0  0  0  0
  6 15  1  0  0  0  0
  7 10  1  0  0  0  0
  8 14  1  0  0  0  0
  8  5  1  0  0  0  0
 11 12  1  0  0  0  0
 12  2  1  0  0  0  0
 13 10  1  0  0  0  0
 13  9  1  0  0  0  0
 14  4  1  0  0  0  0
 15 20  1  0  0  0  0
 15 18  1  0  0  0  0
 16 17  1  0  0  0  0
 16 11  1  0  0  0  0
 16 12  1  0  0  0  0
 17 14  1  0  0  0  0
 18  9  1  0  0  0  0
 19 25  1  0  0  0  0
 20 21  1  0  0  0  0
 20 19  2  0  0  0  0
 21 24  2  0  0  0  0
 24 22  1  0  0  0  0
 24 23  1  0  0  0  0
 25 23  2  0  0  0  0
 26 17  1  0  0  0  0
 27 26  1  0  0  0  0
 27 30  1  0  0  0  0
 29 28  1  0  0  0  0
 29 27  1  0  0  0  0
 31 30  1  0  0  0  0
 31 32  1  0  0  0  0
 33  3  1  0  0  0  0
 34 35  1  0  0  0  0
 34 33  1  0  0  0  0
 34 37  1  0  0  0  0
 36 34  1  0  0  0  0
M  END
>  <MODEL>
9

>  <REMARK>
 VINA RESULT:      -7.3      3.602      6.905
  Name = 
  8 active torsions:
  status: ('A' for Active; 'I' for Inactive)
    1  A    between atoms: C_1  and  C_4
    2  A    between atoms: C_1  and  N_27
    3  A    between atoms: C_2  and  O_22
    4  A    between atoms: C_4  and  C_12
    5  A    between atoms: C_4  and  C_37
    6  A    between atoms: C_6  and  O_22
    7  A    between atoms: C_8  and  C_12
    8  A    between atoms: C_23  and  C_30
                            x       y       z     vdW  Elec       q    Type
                         _______ _______ _______ _____ _____    ______ ____

>  <TORSDO>
F 8

$$$$
