=
 OpenBabel11122412263D

 34 40  0  0  1  0  0  0  0  0999 V2000
  189.0530  177.7450  140.3970 C   0  0  1  0  0  3  0  0  0  0  0  0
  190.8870  176.8320  139.0860 C   0  0  0  0  0  2  0  0  0  0  0  0
  182.7080  178.4040  141.0660 C   0  0  0  0  0  0  0  0  0  0  0  0
  187.0420  178.5430  141.6700 C   0  0  2  0  0  3  0  0  0  0  0  0
  185.0140  179.2410  140.3370 C   0  0  2  0  0  3  0  0  0  0  0  0
  182.9290  179.6880  138.8900 C   0  0  0  0  0  1  0  0  0  0  0  0
  182.0400  177.5100  140.4790 O   0  0  0  0  0  0  0  0  0  0  0  0
  183.6990  179.1760  143.2600 C   0  0  0  0  0  3  0  0  0  0  0  0
  189.0670  177.7070  138.0730 C   0  0  2  0  0  3  0  0  0  0  0  0
  187.8460  176.4430  135.4280 C   0  0  0  0  0  2  0  0  0  0  0  0
  185.5630  178.4080  139.1770 C   0  0  0  0  0  2  0  0  0  0  0  0
  184.9740  179.3040  142.8740 C   0  0  0  0  0  3  0  0  0  0  0  0
  187.5340  177.8010  137.9690 C   0  0  1  0  0  3  0  0  0  0  0  0
  191.1270  176.6250  137.5920 C   0  0  0  0  0  2  0  0  0  0  0  0
  185.5130  178.6190  141.6530 C   0  0  2  0  0  3  0  0  0  0  0  0
  182.7200  178.4510  142.4980 N   0  0  0  0  0  2  0  0  0  0  0  0
  189.1250  175.9940  136.1620 C   0  0  1  0  0  3  0  0  0  0  0  0
  187.5170  177.8270  140.3910 C   0  0  1  0  0  3  0  0  0  0  0  0
  183.4850  179.4240  140.2830 C   0  0  1  0  0  3  0  0  0  0  0  0
  187.0240  178.4970  139.1680 N   0  0  2  0  0  0  0  0  0  0  0  0
  188.8700  177.9050  142.8630 C   0  0  0  0  0  2  0  0  0  0  0  0
  187.6560  177.9610  135.3810 C   0  0  0  0  0  2  0  0  0  0  0  0
  187.4670  177.8070  142.7970 O   0  0  0  0  0  0  0  0  0  0  0  0
  187.0980  178.5400  136.6890 C   0  0  0  0  0  2  0  0  0  0  0  0
  189.8590  177.1280  136.9140 C   0  0  1  0  0  3  0  0  0  0  0  0
  189.5090  177.1200  141.7150 C   0  0  0  0  0  2  0  0  0  0  0  0
  189.4450  176.9410  139.2450 N   0  0  2  0  0  0  0  0  0  0  0  0
  188.8190  174.9320  137.0200 O   0  0  0  0  0  0  0  0  0  0  0  0
  187.5140  174.5610  136.6880 C   0  0  0  0  0  2  0  0  0  0  0  0
  185.1010  172.5330  136.9500 O   0  0  0  0  0  0  0  0  0  0  0  0
  187.0570  172.3600  135.6870 C   0  0  0  0  0  2  0  0  0  0  0  0
  187.3120  173.0820  136.9680 C   0  0  2  0  0  3  0  0  0  0  0  0
  185.6930  171.7850  135.9230 C   0  0  0  0  0  2  0  0  0  0  0  0
  186.1220  172.8860  137.7830 N   0  0  0  0  0  2  0  0  0  0  0  0
  1 26  1  1  0  0  0
  2 27  1  0  0  0  0
  3 16  1  0  0  0  0
  4 23  1  1  0  0  0
  5 11  1  6  0  0  0
  5 15  1  0  0  0  0
  6 19  1  0  0  0  0
  7  3  2  0  0  0  0
  9 27  1  0  0  0  0
 10 17  1  0  0  0  0
 12  8  2  0  0  0  0
 13  9  1  0  0  0  0
 13 20  1  0  0  0  0
 14  2  1  0  0  0  0
 15  4  1  0  0  0  0
 15 12  1  0  0  0  0
 16  8  1  0  0  0  0
 17 25  1  0  0  0  0
 17 28  1  0  0  0  0
 18  1  1  0  0  0  0
 18  4  1  0  0  0  0
 19  5  1  0  0  0  0
 19  3  1  0  0  0  0
 20 11  1  0  0  0  0
 20 18  1  0  0  0  0
 22 10  1  0  0  0  0
 22 24  1  0  0  0  0
 23 21  1  0  0  0  0
 24 13  1  0  0  0  0
 25 14  1  0  0  0  0
 25  9  1  0  0  0  0
 26 21  1  0  0  0  0
 27  1  1  0  0  0  0
 29 32  1  0  0  0  0
 29 28  1  0  0  0  0
 30 34  1  0  0  0  0
 31 33  1  0  0  0  0
 31 32  1  0  0  0  0
 32 34  1  0  0  0  0
 33 30  1  0  0  0  0
M  END
>  <MODEL>
1

>  <REMARK>
 VINA RESULT:      -7.8      0.000      0.000
  Name = 
  3 active torsions:
  status: ('A' for Active; 'I' for Inactive)
    1  A    between atoms: C_17  and  O_28
    2  A    between atoms: O_28  and  C_29
    3  A    between atoms: C_29  and  C_32
                            x       y       z     vdW  Elec       q    Type
                         _______ _______ _______ _____ _____    ______ ____

>  <TORSDO>
F 3

$$$$
=
 OpenBabel11122412263D

 34 40  0  0  1  0  0  0  0  0999 V2000
  189.3930  177.7030  140.8050 C   0  0  1  0  0  3  0  0  0  0  0  0
  191.3430  176.8370  139.6360 C   0  0  0  0  0  2  0  0  0  0  0  0
  183.0020  178.2170  140.9850 C   0  0  0  0  0  0  0  0  0  0  0  0
  187.2720  178.4500  141.9200 C   0  0  2  0  0  3  0  0  0  0  0  0
  185.3380  179.1090  140.4370 C   0  0  2  0  0  3  0  0  0  0  0  0
  183.3610  179.5160  138.8350 C   0  0  0  0  0  1  0  0  0  0  0  0
  182.4020  177.3110  140.3460 O   0  0  0  0  0  0  0  0  0  0  0  0
  183.8040  179.0030  143.2500 C   0  0  0  0  0  3  0  0  0  0  0  0
  189.5860  177.6740  138.4880 C   0  0  2  0  0  3  0  0  0  0  0  0
  188.6020  176.3950  135.7540 C   0  0  0  0  0  2  0  0  0  0  0  0
  185.9930  178.2930  139.3200 C   0  0  0  0  0  2  0  0  0  0  0  0
  185.1020  179.1600  142.9640 C   0  0  0  0  0  3  0  0  0  0  0  0
  188.0640  177.7350  138.2670 C   0  0  1  0  0  3  0  0  0  0  0  0
  191.7020  176.6410  138.1640 C   0  0  0  0  0  2  0  0  0  0  0  0
  185.7490  178.4920  141.7860 C   0  0  2  0  0  3  0  0  0  0  0  0
  182.9030  178.2590  142.4130 N   0  0  0  0  0  2  0  0  0  0  0  0
  189.8300  175.9720  136.5830 C   0  0  1  0  0  3  0  0  0  0  0  0
  187.8610  177.7500  140.6800 C   0  0  1  0  0  3  0  0  0  0  0  0
  183.8140  179.2580  140.2660 C   0  0  1  0  0  3  0  0  0  0  0  0
  187.4480  178.4150  139.4240 N   0  0  2  0  0  0  0  0  0  0  0  0
  189.0180  177.8480  143.2490 C   0  0  0  0  0  2  0  0  0  0  0  0
  188.3810  177.9080  135.6960 C   0  0  0  0  0  2  0  0  0  0  0  0
  187.6260  177.7190  143.0750 O   0  0  0  0  0  0  0  0  0  0  0  0
  187.7120  178.4690  136.9590 C   0  0  0  0  0  2  0  0  0  0  0  0
  190.4780  177.1180  137.3920 C   0  0  1  0  0  3  0  0  0  0  0  0
  189.7600  177.0820  142.1520 C   0  0  0  0  0  2  0  0  0  0  0  0
  189.8900  176.9130  139.6830 N   0  0  2  0  0  0  0  0  0  0  0  0
  189.4830  174.9000  137.4120 O   0  0  0  0  0  0  0  0  0  0  0  0
  189.7800  173.7540  136.6690 C   0  0  0  0  0  2  0  0  0  0  0  0
  192.4650  172.1890  136.0890 O   0  0  0  0  0  0  0  0  0  0  0  0
  190.9900  173.2120  134.5960 C   0  0  0  0  0  2  0  0  0  0  0  0
  191.0600  173.9700  135.8810 C   0  0  2  0  0  3  0  0  0  0  0  0
  192.1570  172.2790  134.7250 C   0  0  0  0  0  2  0  0  0  0  0  0
  192.1940  173.4200  136.6100 N   0  0  0  0  0  2  0  0  0  0  0  0
  1 26  1  1  0  0  0
  2 27  1  0  0  0  0
  3 16  1  0  0  0  0
  4 23  1  1  0  0  0
  5 11  1  6  0  0  0
  5 15  1  0  0  0  0
  6 19  1  0  0  0  0
  7  3  2  0  0  0  0
  9 27  1  0  0  0  0
 10 17  1  0  0  0  0
 11 20  1  0  0  0  0
 12  8  2  0  0  0  0
 13  9  1  0  0  0  0
 13 20  1  0  0  0  0
 14  2  1  0  0  0  0
 15  4  1  0  0  0  0
 15 12  1  0  0  0  0
 16  8  1  0  0  0  0
 17 25  1  0  0  0  0
 17 28  1  0  0  0  0
 18  1  1  0  0  0  0
 18  4  1  0  0  0  0
 19  5  1  0  0  0  0
 19  3  1  0  0  0  0
 20 18  1  0  0  0  0
 22 10  1  0  0  0  0
 22 24  1  0  0  0  0
 23 21  1  0  0  0  0
 24 13  1  0  0  0  0
 25 14  1  0  0  0  0
 25  9  1  0  0  0  0
 26 21  1  0  0  0  0
 27  1  1  0  0  0  0
 29 28  1  0  0  0  0
 30 34  1  0  0  0  0
 31 33  1  0  0  0  0
 31 32  1  0  0  0  0
 32 34  1  0  0  0  0
 32 29  1  0  0  0  0
 33 30  1  0  0  0  0
M  END
>  <MODEL>
2

>  <REMARK>
 VINA RESULT:      -7.2      1.808      2.332
  Name = 
  3 active torsions:
  status: ('A' for Active; 'I' for Inactive)
    1  A    between atoms: C_17  and  O_28
    2  A    between atoms: O_28  and  C_29
    3  A    between atoms: C_29  and  C_32
                            x       y       z     vdW  Elec       q    Type
                         _______ _______ _______ _____ _____    ______ ____

>  <TORSDO>
F 3

$$$$
=
 OpenBabel11122412263D

 34 40  0  0  1  0  0  0  0  0999 V2000
  190.5530  177.0880  137.8890 C   0  0  1  0  0  3  0  0  0  0  0  0
  190.3090  176.4260  135.5610 C   0  0  0  0  0  2  0  0  0  0  0  0
  187.9840  177.1850  143.7650 C   0  0  0  0  0  0  0  0  0  0  0  0
  190.6720  177.6250  140.3380 C   0  0  2  0  0  3  0  0  0  0  0  0
  188.5230  178.2570  141.5040 C   0  0  2  0  0  3  0  0  0  0  0  0
  186.2410  178.6430  142.6360 C   0  0  0  0  0  1  0  0  0  0  0  0
  187.1200  176.2880  143.9560 O   0  0  0  0  0  0  0  0  0  0  0  0
  190.3980  177.8690  144.0750 C   0  0  0  0  0  3  0  0  0  0  0  0
  188.5460  177.2250  136.7250 C   0  0  2  0  0  3  0  0  0  0  0  0
  185.6140  176.0690  136.3370 C   0  0  0  0  0  2  0  0  0  0  0  0
  187.7710  177.5590  140.3690 C   0  0  0  0  0  2  0  0  0  0  0  0
  190.7030  178.1260  142.7980 C   0  0  0  0  0  3  0  0  0  0  0  0
  187.6930  177.2040  138.0060 C   0  0  1  0  0  3  0  0  0  0  0  0
  189.1300  176.3510  134.5940 C   0  0  0  0  0  2  0  0  0  0  0  0
  189.8970  177.5800  141.6560 C   0  0  2  0  0  3  0  0  0  0  0  0
  189.2310  177.1260  144.4660 N   0  0  0  0  0  2  0  0  0  0  0  0
  186.8770  175.6710  135.5480 C   0  0  1  0  0  3  0  0  0  0  0  0
  189.7830  177.0470  139.2200 C   0  0  1  0  0  3  0  0  0  0  0  0
  187.7190  178.3200  142.8160 C   0  0  1  0  0  3  0  0  0  0  0  0
  188.4950  177.7660  139.1120 N   0  0  2  0  0  0  0  0  0  0  0  0
  192.6020  177.0480  139.2810 C   0  0  0  0  0  2  0  0  0  0  0  0
  185.5150  177.5660  136.6400 C   0  0  0  0  0  2  0  0  0  0  0  0
  191.8420  176.8430  140.4490 O   0  0  0  0  0  0  0  0  0  0  0  0
  186.3860  177.9990  137.8290 C   0  0  0  0  0  2  0  0  0  0  0  0
  187.9220  176.8000  135.4070 C   0  0  1  0  0  3  0  0  0  0  0  0
  191.9060  176.4040  138.0800 C   0  0  0  0  0  2  0  0  0  0  0  0
  189.7300  176.4070  136.8950 N   0  0  2  0  0  0  0  0  0  0  0  0
  187.4400  174.5260  136.1230 O   0  0  0  0  0  0  0  0  0  0  0  0
  186.9370  173.4580  135.3760 C   0  0  0  0  0  2  0  0  0  0  0  0
  185.1470  173.1570  137.9660 O   0  0  0  0  0  0  0  0  0  0  0  0
  185.0850  171.9490  135.9690 C   0  0  0  0  0  2  0  0  0  0  0  0
  186.4840  172.3480  136.3080 C   0  0  2  0  0  3  0  0  0  0  0  0
  184.3610  172.2450  137.2480 C   0  0  0  0  0  2  0  0  0  0  0  0
  186.4410  172.8330  137.6800 N   0  0  0  0  0  2  0  0  0  0  0  0
  1 26  1  1  0  0  0
  1 18  1  0  0  0  0
  2 27  1  0  0  0  0
  3  7  2  0  0  0  0
  3 16  1  0  0  0  0
  4 23  1  1  0  0  0
  4 15  1  0  0  0  0
  5 11  1  6  0  0  0
  5 15  1  0  0  0  0
  5 19  1  0  0  0  0
  6 19  1  0  0  0  0
  8 16  1  0  0  0  0
  9 27  1  0  0  0  0
  9 13  1  0  0  0  0
 10 22  1  0  0  0  0
 12  8  2  0  0  0  0
 13 20  1  0  0  0  0
 14 25  1  0  0  0  0
 14  2  1  0  0  0  0
 15 12  1  0  0  0  0
 17 28  1  0  0  0  0
 17 10  1  0  0  0  0
 18  4  1  0  0  0  0
 19  3  1  0  0  0  0
 20 18  1  0  0  0  0
 20 11  1  0  0  0  0
 21 23  1  0  0  0  0
 22 24  1  0  0  0  0
 24 13  1  0  0  0  0
 25 17  1  0  0  0  0
 25  9  1  0  0  0  0
 26 21  1  0  0  0  0
 27  1  1  0  0  0  0
 29 28  1  0  0  0  0
 29 32  1  0  0  0  0
 31 32  1  0  0  0  0
 31 33  1  0  0  0  0
 32 34  1  0  0  0  0
 33 30  1  0  0  0  0
 34 30  1  0  0  0  0
M  END
>  <MODEL>
3

>  <REMARK>
 VINA RESULT:      -6.9      2.303      3.773
  Name = 
  3 active torsions:
  status: ('A' for Active; 'I' for Inactive)
    1  A    between atoms: C_17  and  O_28
    2  A    between atoms: O_28  and  C_29
    3  A    between atoms: C_29  and  C_32
                            x       y       z     vdW  Elec       q    Type
                         _______ _______ _______ _____ _____    ______ ____

>  <TORSDO>
F 3

$$$$
=
 OpenBabel11122412263D

 34 40  0  0  1  0  0  0  0  0999 V2000
  189.6840  175.1860  137.0110 C   0  0  1  0  0  3  0  0  0  0  0  0
  188.4110  176.7740  138.3430 C   0  0  0  0  0  2  0  0  0  0  0  0
  194.6680  171.1570  136.7310 C   0  0  0  0  0  0  0  0  0  0  0  0
  191.0630  173.4650  135.8120 C   0  0  2  0  0  3  0  0  0  0  0  0
  193.5420  173.4130  136.2860 C   0  0  2  0  0  3  0  0  0  0  0  0
  196.0060  173.2910  137.0320 C   0  0  0  0  0  1  0  0  0  0  0  0
  195.0530  170.7480  137.8590 O   0  0  0  0  0  0  0  0  0  0  0  0
  193.2760  170.6500  134.6810 C   0  0  0  0  0  3  0  0  0  0  0  0
  190.6660  176.7130  138.4620 C   0  0  2  0  0  3  0  0  0  0  0  0
  192.2170  177.1650  141.1960 C   0  0  0  0  0  2  0  0  0  0  0  0
  193.2480  174.1510  137.5940 C   0  0  0  0  0  2  0  0  0  0  0  0
  192.4990  171.7390  134.6880 C   0  0  0  0  0  3  0  0  0  0  0  0
  191.9570  175.8870  138.6080 C   0  0  1  0  0  3  0  0  0  0  0  0
  188.7800  177.8170  139.3960 C   0  0  0  0  0  2  0  0  0  0  0  0
  192.3040  172.5760  135.9180 C   0  0  2  0  0  3  0  0  0  0  0  0
  194.0560  170.2390  135.8160 N   0  0  0  0  0  2  0  0  0  0  0  0
  190.6960  177.2650  140.9690 C   0  0  1  0  0  3  0  0  0  0  0  0
  190.9290  174.2880  137.1080 C   0  0  1  0  0  3  0  0  0  0  0  0
  194.8470  172.5940  136.3300 C   0  0  1  0  0  3  0  0  0  0  0  0
  192.1430  175.0880  137.3800 N   0  0  2  0  0  0  0  0  0  0  0  0
  188.8270  173.5150  135.3960 C   0  0  0  0  0  2  0  0  0  0  0  0
  193.0560  177.7420  140.0540 C   0  0  0  0  0  2  0  0  0  0  0  0
  189.9150  172.6590  135.6560 O   0  0  0  0  0  0  0  0  0  0  0  0
  193.1810  176.7900  138.8560 C   0  0  0  0  0  2  0  0  0  0  0  0
  190.2920  177.7110  139.5450 C   0  0  1  0  0  3  0  0  0  0  0  0
  188.4780  174.3200  136.6490 C   0  0  0  0  0  2  0  0  0  0  0  0
  189.5230  175.8360  138.3070 N   0  0  2  0  0  0  0  0  0  0  0  0
  190.0950  176.0470  141.3080 O   0  0  0  0  0  0  0  0  0  0  0  0
  189.9550  176.0850  142.6970 C   0  0  0  0  0  2  0  0  0  0  0  0
  187.3930  176.7530  144.4270 O   0  0  0  0  0  0  0  0  0  0  0  0
  189.5210  177.7110  144.4930 C   0  0  0  0  0  2  0  0  0  0  0  0
  189.1580  177.3140  143.1000 C   0  0  2  0  0  3  0  0  0  0  0  0
  188.2030  177.5950  145.2000 C   0  0  0  0  0  2  0  0  0  0  0  0
  187.7370  177.0000  143.1300 N   0  0  0  0  0  2  0  0  0  0  0  0
  1 26  1  1  0  0  0
  1 18  1  0  0  0  0
  1 27  1  0  0  0  0
  2 14  1  0  0  0  0
  3  7  2  0  0  0  0
  4 23  1  1  0  0  0
  4 15  1  0  0  0  0
  4 18  1  0  0  0  0
  5 19  1  0  0  0  0
  5 11  1  1  0  0  0
  8 12  2  0  0  0  0
  8 16  1  0  0  0  0
  9 13  1  0  0  0  0
  9 25  1  0  0  0  0
 12 15  1  0  0  0  0
 13 24  1  0  0  0  0
 14 25  1  0  0  0  0
 15  5  1  0  0  0  0
 16  3  1  0  0  0  0
 17 10  1  0  0  0  0
 17 28  1  0  0  0  0
 18 20  1  0  0  0  0
 19  3  1  0  0  0  0
 19  6  1  0  0  0  0
 20 11  1  0  0  0  0
 20 13  1  0  0  0  0
 21 23  1  0  0  0  0
 21 26  1  0  0  0  0
 22 10  1  0  0  0  0
 24 22  1  0  0  0  0
 25 17  1  0  0  0  0
 27  2  1  0  0  0  0
 27  9  1  0  0  0  0
 28 29  1  0  0  0  0
 29 32  1  0  0  0  0
 30 33  1  0  0  0  0
 31 33  1  0  0  0  0
 32 34  1  0  0  0  0
 32 31  1  0  0  0  0
 34 30  1  0  0  0  0
M  END
>  <MODEL>
4

>  <REMARK>
 VINA RESULT:      -6.8      3.772      9.242
  Name = 
  3 active torsions:
  status: ('A' for Active; 'I' for Inactive)
    1  A    between atoms: C_17  and  O_28
    2  A    between atoms: O_28  and  C_29
    3  A    between atoms: C_29  and  C_32
                            x       y       z     vdW  Elec       q    Type
                         _______ _______ _______ _____ _____    ______ ____

>  <TORSDO>
F 3

$$$$
=
 OpenBabel11122412263D

 34 40  0  0  1  0  0  0  0  0999 V2000
  189.5960  177.8520  139.7010 C   0  0  1  0  0  3  0  0  0  0  0  0
  189.3370  177.5320  137.3040 C   0  0  0  0  0  2  0  0  0  0  0  0
  186.9790  177.2880  145.5300 C   0  0  0  0  0  0  0  0  0  0  0  0
  189.7210  178.0390  142.2020 C   0  0  2  0  0  3  0  0  0  0  0  0
  187.6010  178.6280  143.4390 C   0  0  2  0  0  3  0  0  0  0  0  0
  185.3330  178.9860  144.6100 C   0  0  0  0  0  1  0  0  0  0  0  0
  186.0630  176.4250  145.5940 O   0  0  0  0  0  0  0  0  0  0  0  0
  189.4260  177.7820  145.9360 C   0  0  0  0  0  3  0  0  0  0  0  0
  187.6110  178.2640  138.5640 C   0  0  2  0  0  3  0  0  0  0  0  0
  184.6220  177.3440  138.0150 C   0  0  0  0  0  2  0  0  0  0  0  0
  186.8210  178.1380  142.2170 C   0  0  0  0  0  2  0  0  0  0  0  0
  189.7570  178.1950  144.7070 C   0  0  0  0  0  3  0  0  0  0  0  0
  186.7470  178.1160  139.8290 C   0  0  1  0  0  3  0  0  0  0  0  0
  188.1650  177.6590  136.3340 C   0  0  0  0  0  2  0  0  0  0  0  0
  188.9320  177.8580  143.5000 C   0  0  2  0  0  3  0  0  0  0  0  0
  188.2140  177.0610  146.2190 N   0  0  0  0  0  2  0  0  0  0  0  0
  185.8680  176.9860  137.1810 C   0  0  1  0  0  3  0  0  0  0  0  0
  188.8120  177.6730  141.0130 C   0  0  1  0  0  3  0  0  0  0  0  0
  186.7890  178.5570  144.7470 C   0  0  1  0  0  3  0  0  0  0  0  0
  187.5680  178.4730  141.0030 N   0  0  2  0  0  0  0  0  0  0  0  0
  191.6260  177.5030  141.0790 C   0  0  0  0  0  2  0  0  0  0  0  0
  184.6060  178.7890  138.5210 C   0  0  0  0  0  2  0  0  0  0  0  0
  190.8440  177.1840  142.2060 O   0  0  0  0  0  0  0  0  0  0  0  0
  185.4880  179.0030  139.7600 C   0  0  0  0  0  2  0  0  0  0  0  0
  186.9770  178.0610  137.1980 C   0  0  1  0  0  3  0  0  0  0  0  0
  190.9060  177.0720  139.7990 C   0  0  0  0  0  2  0  0  0  0  0  0
  188.7450  177.3640  138.6220 N   0  0  2  0  0  0  0  0  0  0  0  0
  186.3600  175.7430  137.5930 O   0  0  0  0  0  0  0  0  0  0  0  0
  185.8710  174.8290  136.6560 C   0  0  0  0  0  2  0  0  0  0  0  0
  184.1120  172.2530  137.1750 O   0  0  0  0  0  0  0  0  0  0  0  0
  186.1230  172.4680  136.0100 C   0  0  0  0  0  2  0  0  0  0  0  0
  186.0730  173.4120  137.1650 C   0  0  2  0  0  3  0  0  0  0  0  0
  184.9610  171.5650  136.2980 C   0  0  0  0  0  2  0  0  0  0  0  0
  184.9300  173.0030  137.9690 N   0  0  0  0  0  2  0  0  0  0  0  0
  1 26  1  1  0  0  0
  1 18  1  0  0  0  0
  2 27  1  0  0  0  0
  3  7  2  0  0  0  0
  3 16  1  0  0  0  0
  4 23  1  1  0  0  0
  4 15  1  0  0  0  0
  5 11  1  6  0  0  0
  5 15  1  0  0  0  0
  5 19  1  0  0  0  0
  6 19  1  0  0  0  0
  8 16  1  0  0  0  0
  9 27  1  0  0  0  0
  9 13  1  0  0  0  0
 10 22  1  0  0  0  0
 12  8  2  0  0  0  0
 13 20  1  0  0  0  0
 14 25  1  0  0  0  0
 14  2  1  0  0  0  0
 15 12  1  0  0  0  0
 17 25  1  0  0  0  0
 17 28  1  0  0  0  0
 17 10  1  0  0  0  0
 18  4  1  0  0  0  0
 19  3  1  0  0  0  0
 20 18  1  0  0  0  0
 20 11  1  0  0  0  0
 21 23  1  0  0  0  0
 22 24  1  0  0  0  0
 24 13  1  0  0  0  0
 25  9  1  0  0  0  0
 26 21  1  0  0  0  0
 27  1  1  0  0  0  0
 29 32  1  0  0  0  0
 29 28  1  0  0  0  0
 30 34  1  0  0  0  0
 31 33  1  0  0  0  0
 31 32  1  0  0  0  0
 32 34  1  0  0  0  0
 33 30  1  0  0  0  0
M  END
>  <MODEL>
5

>  <REMARK>
 VINA RESULT:      -6.7      2.103      3.711
  Name = 
  3 active torsions:
  status: ('A' for Active; 'I' for Inactive)
    1  A    between atoms: C_17  and  O_28
    2  A    between atoms: O_28  and  C_29
    3  A    between atoms: C_29  and  C_32
                            x       y       z     vdW  Elec       q    Type
                         _______ _______ _______ _____ _____    ______ ____

>  <TORSDO>
F 3

$$$$
=
 OpenBabel11122412263D

 34 40  0  0  1  0  0  0  0  0999 V2000
  183.8990  178.4830  138.6770 C   0  0  1  0  0  3  0  0  0  0  0  0
  181.8470  178.1610  137.4130 C   0  0  0  0  0  2  0  0  0  0  0  0
  187.0550  177.5030  144.1760 C   0  0  0  0  0  0  0  0  0  0  0  0
  185.9640  178.6530  140.0950 C   0  0  2  0  0  3  0  0  0  0  0  0
  185.6550  178.9390  142.5850 C   0  0  2  0  0  3  0  0  0  0  0  0
  185.2210  178.9780  145.1240 C   0  0  0  0  0  1  0  0  0  0  0  0
  186.6220  176.5250  144.8420 O   0  0  0  0  0  0  0  0  0  0  0  0
  188.7990  178.3130  142.5340 C   0  0  0  0  0  3  0  0  0  0  0  0
  181.7800  178.6410  139.6190 C   0  0  2  0  0  3  0  0  0  0  0  0
  179.6280  177.3390  141.5570 C   0  0  0  0  0  2  0  0  0  0  0  0
  184.2470  178.3650  142.4160 C   0  0  0  0  0  2  0  0  0  0  0  0
  187.9830  178.7810  141.5830 C   0  0  0  0  0  3  0  0  0  0  0  0
  182.2900  178.3640  141.0440 C   0  0  1  0  0  3  0  0  0  0  0  0
  180.3640  178.1430  137.7770 C   0  0  0  0  0  2  0  0  0  0  0  0
  186.5480  178.3530  141.4770 C   0  0  2  0  0  3  0  0  0  0  0  0
  188.3560  177.4340  143.5820 N   0  0  0  0  0  2  0  0  0  0  0  0
  179.7250  177.1590  140.0290 C   0  0  1  0  0  3  0  0  0  0  0  0
  184.4970  178.1850  140.0630 C   0  0  1  0  0  3  0  0  0  0  0  0
  186.2250  178.7450  144.0020 C   0  0  1  0  0  3  0  0  0  0  0  0
  183.6940  178.8120  141.1360 N   0  0  2  0  0  0  0  0  0  0  0  0
  186.2330  178.3890  137.8510 C   0  0  0  0  0  2  0  0  0  0  0  0
  179.9240  178.7620  142.0370 C   0  0  0  0  0  2  0  0  0  0  0  0
  186.6940  177.9540  139.1100 O   0  0  0  0  0  0  0  0  0  0  0  0
  181.4260  179.0760  142.1030 C   0  0  0  0  0  2  0  0  0  0  0  0
  180.3230  178.3720  139.2820 C   0  0  1  0  0  3  0  0  0  0  0  0
  184.8100  177.8820  137.6080 C   0  0  0  0  0  2  0  0  0  0  0  0
  182.5630  177.8980  138.6520 N   0  0  2  0  0  0  0  0  0  0  0  0
  180.4340  175.9880  139.7440 O   0  0  0  0  0  0  0  0  0  0  0  0
  179.4580  175.0030  139.5750 C   0  0  0  0  0  2  0  0  0  0  0  0
  179.3570  174.6670  136.4330 O   0  0  0  0  0  0  0  0  0  0  0  0
  181.1720  174.4810  137.8890 C   0  0  0  0  0  2  0  0  0  0  0  0
  179.9170  173.9950  138.5360 C   0  0  2  0  0  3  0  0  0  0  0  0
  180.7570  174.5900  136.4530 C   0  0  0  0  0  2  0  0  0  0  0  0
  178.9310  173.8910  137.4710 N   0  0  0  0  0  2  0  0  0  0  0  0
  1 26  1  6  0  0  0
  1 18  1  0  0  0  0
  2 14  1  0  0  0  0
  2 27  1  0  0  0  0
  3  7  2  0  0  0  0
  4 23  1  6  0  0  0
  4 15  1  0  0  0  0
  5 11  1  1  0  0  0
  5 19  1  0  0  0  0
  8 16  1  0  0  0  0
  9 13  1  0  0  0  0
 10 22  1  0  0  0  0
 12  8  2  0  0  0  0
 13 20  1  0  0  0  0
 13 24  1  0  0  0  0
 14 25  1  0  0  0  0
 15 12  1  0  0  0  0
 15  5  1  0  0  0  0
 16  3  1  0  0  0  0
 17 10  1  0  0  0  0
 18  4  1  0  0  0  0
 18 20  1  0  0  0  0
 19  3  1  0  0  0  0
 19  6  1  0  0  0  0
 20 11  1  0  0  0  0
 21 23  1  0  0  0  0
 22 24  1  0  0  0  0
 25  9  1  0  0  0  0
 25 17  1  0  0  0  0
 26 21  1  0  0  0  0
 27  1  1  0  0  0  0
 27  9  1  0  0  0  0
 28 17  1  0  0  0  0
 29 28  1  0  0  0  0
 30 33  1  0  0  0  0
 30 34  1  0  0  0  0
 31 32  1  0  0  0  0
 32 29  1  0  0  0  0
 33 31  1  0  0  0  0
 34 32  1  0  0  0  0
M  END
>  <MODEL>
6

>  <REMARK>
 VINA RESULT:      -6.4      3.400      6.798
  Name = 
  3 active torsions:
  status: ('A' for Active; 'I' for Inactive)
    1  A    between atoms: C_17  and  O_28
    2  A    between atoms: O_28  and  C_29
    3  A    between atoms: C_29  and  C_32
                            x       y       z     vdW  Elec       q    Type
                         _______ _______ _______ _____ _____    ______ ____

>  <TORSDO>
F 3

$$$$
=
 OpenBabel11122412263D

 34 40  0  0  1  0  0  0  0  0999 V2000
  185.4890  178.6640  139.7880 C   0  0  1  0  0  3  0  0  0  0  0  0
  187.3730  178.1680  138.3320 C   0  0  0  0  0  2  0  0  0  0  0  0
  179.5250  177.1450  141.5970 C   0  0  0  0  0  0  0  0  0  0  0  0
  183.4840  178.9840  141.2650 C   0  0  2  0  0  3  0  0  0  0  0  0
  181.2100  178.5370  140.2640 C   0  0  2  0  0  3  0  0  0  0  0  0
  178.9690  177.8150  139.2150 C   0  0  0  0  0  1  0  0  0  0  0  0
  179.2070  175.9520  141.3440 O   0  0  0  0  0  0  0  0  0  0  0  0
  180.3700  178.7600  143.3500 C   0  0  0  0  0  3  0  0  0  0  0  0
  185.2530  178.0360  137.5620 C   0  0  2  0  0  3  0  0  0  0  0  0
  184.3450  175.7820  135.5190 C   0  0  0  0  0  2  0  0  0  0  0  0
  181.9090  177.6880  139.2010 C   0  0  0  0  0  2  0  0  0  0  0  0
  181.4360  179.2340  142.6950 C   0  0  0  0  0  3  0  0  0  0  0  0
  183.8090  177.5420  137.7570 C   0  0  1  0  0  3  0  0  0  0  0  0
  187.5050  177.6830  136.8900 C   0  0  0  0  0  2  0  0  0  0  0  0
  182.0610  178.4980  141.5450 C   0  0  2  0  0  3  0  0  0  0  0  0
  179.6810  177.5610  142.9590 N   0  0  0  0  0  2  0  0  0  0  0  0
  185.7710  176.0290  136.0490 C   0  0  1  0  0  3  0  0  0  0  0  0
  184.0570  178.1840  140.0790 C   0  0  1  0  0  3  0  0  0  0  0  0
  179.7390  178.1380  140.4890 C   0  0  1  0  0  3  0  0  0  0  0  0
  183.2030  178.2920  138.8760 N   0  0  2  0  0  0  0  0  0  0  0  0
  185.5380  179.3780  142.1600 C   0  0  0  0  0  2  0  0  0  0  0  0
  183.5630  177.0620  135.2170 C   0  0  0  0  0  2  0  0  0  0  0  0
  184.2920  178.7680  142.4020 O   0  0  0  0  0  0  0  0  0  0  0  0
  182.9730  177.7180  136.4750 C   0  0  0  0  0  2  0  0  0  0  0  0
  186.0740  177.5030  136.4000 C   0  0  1  0  0  3  0  0  0  0  0  0
  186.3020  178.6080  141.0800 C   0  0  0  0  0  2  0  0  0  0  0  0
  186.0350  177.7880  138.7570 N   0  0  2  0  0  0  0  0  0  0  0  0
  186.0120  175.1870  137.1410 O   0  0  0  0  0  0  0  0  0  0  0  0
  186.7490  174.1200  136.6220 C   0  0  0  0  0  2  0  0  0  0  0  0
  183.9390  172.7830  137.1820 O   0  0  0  0  0  0  0  0  0  0  0  0
  185.7920  171.9270  136.0490 C   0  0  0  0  0  2  0  0  0  0  0  0
  186.2170  172.8100  137.1760 C   0  0  2  0  0  3  0  0  0  0  0  0
  184.3340  171.7330  136.3420 C   0  0  0  0  0  2  0  0  0  0  0  0
  185.0200  173.0520  137.9690 N   0  0  0  0  0  2  0  0  0  0  0  0
  1 18  1  0  0  0  0
  1 26  1  1  0  0  0
  2 27  1  0  0  0  0
  3 16  1  0  0  0  0
  4 15  1  0  0  0  0
  4 23  1  1  0  0  0
  5 11  1  6  0  0  0
  5 19  1  0  0  0  0
  5 15  1  0  0  0  0
  6 19  1  0  0  0  0
  7  3  2  0  0  0  0
  9 13  1  0  0  0  0
  9 27  1  0  0  0  0
 10 17  1  0  0  0  0
 12  8  2  0  0  0  0
 13 20  1  0  0  0  0
 14  2  1  0  0  0  0
 15 12  1  0  0  0  0
 16  8  1  0  0  0  0
 17 25  1  0  0  0  0
 17 28  1  0  0  0  0
 18  4  1  0  0  0  0
 19  3  1  0  0  0  0
 20 11  1  0  0  0  0
 20 18  1  0  0  0  0
 21 23  1  0  0  0  0
 22 10  1  0  0  0  0
 22 24  1  0  0  0  0
 24 13  1  0  0  0  0
 25 14  1  0  0  0  0
 25  9  1  0  0  0  0
 26 21  1  0  0  0  0
 27  1  1  0  0  0  0
 29 28  1  0  0  0  0
 29 32  1  0  0  0  0
 30 34  1  0  0  0  0
 31 33  1  0  0  0  0
 31 32  1  0  0  0  0
 32 34  1  0  0  0  0
 33 30  1  0  0  0  0
M  END
>  <MODEL>
7

>  <REMARK>
 VINA RESULT:      -6.4      2.338      3.371
  Name = 
  3 active torsions:
  status: ('A' for Active; 'I' for Inactive)
    1  A    between atoms: C_17  and  O_28
    2  A    between atoms: O_28  and  C_29
    3  A    between atoms: C_29  and  C_32
                            x       y       z     vdW  Elec       q    Type
                         _______ _______ _______ _____ _____    ______ ____

>  <TORSDO>
F 3

$$$$
=
 OpenBabel11122412263D

 34 40  0  0  1  0  0  0  0  0999 V2000
  183.1760  178.6770  141.5020 C   0  0  1  0  0  3  0  0  0  0  0  0
  180.8500  179.3620  141.6880 C   0  0  0  0  0  2  0  0  0  0  0  0
  188.5690  178.7880  138.0310 C   0  0  0  0  0  0  0  0  0  0  0  0
  185.6050  178.1270  141.1840 C   0  0  2  0  0  3  0  0  0  0  0  0
  186.4060  177.6790  138.8320 C   0  0  2  0  0  3  0  0  0  0  0  0
  187.1560  177.4860  136.3740 C   0  0  0  0  0  1  0  0  0  0  0  0
  188.6340  179.7560  137.2260 O   0  0  0  0  0  0  0  0  0  0  0  0
  189.2480  177.9010  140.2990 C   0  0  0  0  0  3  0  0  0  0  0  0
  181.7070  178.7130  139.7010 C   0  0  2  0  0  3  0  0  0  0  0  0
  180.8770  180.1150  136.9760 C   0  0  0  0  0  2  0  0  0  0  0  0
  185.1760  178.4400  138.3310 C   0  0  0  0  0  2  0  0  0  0  0  0
  188.0310  177.6200  140.7810 C   0  0  0  0  0  3  0  0  0  0  0  0
  182.8380  178.8040  138.6610 C   0  0  1  0  0  3  0  0  0  0  0  0
  179.7090  179.5390  140.6880 C   0  0  0  0  0  2  0  0  0  0  0  0
  186.7840  178.2360  140.2150 C   0  0  2  0  0  3  0  0  0  0  0  0
  189.4600  178.7390  139.1510 N   0  0  0  0  0  2  0  0  0  0  0  0
  180.3050  180.4060  138.3770 C   0  0  1  0  0  3  0  0  0  0  0  0
  184.3690  178.7810  140.5360 C   0  0  1  0  0  3  0  0  0  0  0  0
  187.5730  177.6810  137.8260 C   0  0  1  0  0  3  0  0  0  0  0  0
  184.0480  178.1750  139.2260 N   0  0  2  0  0  0  0  0  0  0  0  0
  184.8760  178.5400  143.2990 C   0  0  0  0  0  2  0  0  0  0  0  0
  181.1380  178.6320  136.7060 C   0  0  0  0  0  2  0  0  0  0  0  0
  185.9120  178.8060  142.3830 O   0  0  0  0  0  0  0  0  0  0  0  0
  182.4430  178.1240  137.3360 C   0  0  0  0  0  2  0  0  0  0  0  0
  180.3130  179.1930  139.3340 C   0  0  1  0  0  3  0  0  0  0  0  0
  183.5900  179.2420  142.8600 C   0  0  0  0  0  2  0  0  0  0  0  0
  182.0760  179.4270  140.9080 N   0  0  2  0  0  0  0  0  0  0  0  0
  180.9790  181.4970  138.9360 O   0  0  0  0  0  0  0  0  0  0  0  0
  181.4740  182.2170  137.8460 C   0  0  0  0  0  2  0  0  0  0  0  0
  181.5450  184.7980  136.0190 O   0  0  0  0  0  0  0  0  0  0  0  0
  179.7280  183.7600  137.0540 C   0  0  0  0  0  2  0  0  0  0  0  0
  180.9570  183.6440  137.8940 C   0  0  2  0  0  3  0  0  0  0  0  0
  180.1440  184.7800  136.0370 C   0  0  0  0  0  2  0  0  0  0  0  0
  181.9330  184.5490  137.3040 N   0  0  0  0  0  2  0  0  0  0  0  0
  1 26  1  1  0  0  0
  3 16  1  0  0  0  0
  4 23  1  1  0  0  0
  5 11  1  6  0  0  0
  5 15  1  0  0  0  0
  6 19  1  0  0  0  0
  7  3  2  0  0  0  0
  8 12  2  0  0  0  0
  9 27  1  0  0  0  0
 10 17  1  0  0  0  0
 11 20  1  0  0  0  0
 13 20  1  0  0  0  0
 13  9  1  0  0  0  0
 14  2  1  0  0  0  0
 15 12  1  0  0  0  0
 15  4  1  0  0  0  0
 16  8  1  0  0  0  0
 17 28  1  0  0  0  0
 17 25  1  0  0  0  0
 18  4  1  0  0  0  0
 18  1  1  0  0  0  0
 19  3  1  0  0  0  0
 19  5  1  0  0  0  0
 20 18  1  0  0  0  0
 22 10  1  0  0  0  0
 22 24  1  0  0  0  0
 23 21  1  0  0  0  0
 24 13  1  0  0  0  0
 25  9  1  0  0  0  0
 25 14  1  0  0  0  0
 26 21  1  0  0  0  0
 27  1  1  0  0  0  0
 27  2  1  0  0  0  0
 29 32  1  0  0  0  0
 29 28  1  0  0  0  0
 30 33  1  0  0  0  0
 30 34  1  0  0  0  0
 31 32  1  0  0  0  0
 33 31  1  0  0  0  0
 34 32  1  0  0  0  0
M  END
>  <MODEL>
8

>  <REMARK>
 VINA RESULT:      -6.4      3.288      8.054
  Name = 
  3 active torsions:
  status: ('A' for Active; 'I' for Inactive)
    1  A    between atoms: C_17  and  O_28
    2  A    between atoms: O_28  and  C_29
    3  A    between atoms: C_29  and  C_32
                            x       y       z     vdW  Elec       q    Type
                         _______ _______ _______ _____ _____    ______ ____

>  <TORSDO>
F 3

$$$$
=
 OpenBabel11122412263D

 34 40  0  0  1  0  0  0  0  0999 V2000
  181.9730  178.8930  142.5970 C   0  0  1  0  0  3  0  0  0  0  0  0
  183.4310  179.7530  144.3440 C   0  0  0  0  0  2  0  0  0  0  0  0
  181.2530  174.8170  137.6960 C   0  0  0  0  0  0  0  0  0  0  0  0
  180.5810  177.8360  140.7950 C   0  0  2  0  0  3  0  0  0  0  0  0
  181.7530  177.1300  138.6720 C   0  0  2  0  0  3  0  0  0  0  0  0
  183.0910  176.2280  136.6630 C   0  0  0  0  0  1  0  0  0  0  0  0
  182.0300  173.8260  137.7430 O   0  0  0  0  0  0  0  0  0  0  0  0
  178.9310  175.6840  138.1970 C   0  0  0  0  0  3  0  0  0  0  0  0
  184.2490  179.2610  142.2960 C   0  0  2  0  0  3  0  0  0  0  0  0
  187.1210  177.9670  141.9010 C   0  0  0  0  0  2  0  0  0  0  0  0
  183.0610  177.1240  139.4660 C   0  0  0  0  0  2  0  0  0  0  0  0
  179.2640  176.7260  138.9680 C   0  0  0  0  0  3  0  0  0  0  0  0
  184.3480  178.2750  141.1180 C   0  0  1  0  0  3  0  0  0  0  0  0
  184.9310  180.0230  144.4410 C   0  0  0  0  0  2  0  0  0  0  0  0
  180.5990  176.8260  139.6450 C   0  0  2  0  0  3  0  0  0  0  0  0
  179.8460  174.6210  137.8800 N   0  0  0  0  0  2  0  0  0  0  0  0
  186.4880  178.4240  143.2300 C   0  0  1  0  0  3  0  0  0  0  0  0
  181.9800  177.8800  141.4390 C   0  0  1  0  0  3  0  0  0  0  0  0
  181.7830  176.2000  137.4440 C   0  0  1  0  0  3  0  0  0  0  0  0
  183.0320  178.2070  140.4510 N   0  0  2  0  0  0  0  0  0  0  0  0
  179.5350  178.4690  142.7130 C   0  0  0  0  0  2  0  0  0  0  0  0
  186.8360  178.9000  140.7220 C   0  0  0  0  0  2  0  0  0  0  0  0
  179.6380  177.4330  141.7650 O   0  0  0  0  0  0  0  0  0  0  0  0
  185.4390  178.6990  140.1170 C   0  0  0  0  0  2  0  0  0  0  0  0
  185.4970  179.6020  143.0910 C   0  0  1  0  0  3  0  0  0  0  0  0
  180.8190  178.5560  143.5400 C   0  0  0  0  0  2  0  0  0  0  0  0
  183.2690  178.7970  143.2590 N   0  0  2  0  0  0  0  0  0  0  0  0
  185.8880  177.3280  143.8590 O   0  0  0  0  0  0  0  0  0  0  0  0
  186.9000  176.7530  144.6310 C   0  0  0  0  0  2  0  0  0  0  0  0
  187.9130  177.1310  147.6030 O   0  0  0  0  0  0  0  0  0  0  0  0
  189.0400  177.4990  145.5910 C   0  0  0  0  0  2  0  0  0  0  0  0
  187.5890  177.8250  145.4570 C   0  0  2  0  0  3  0  0  0  0  0  0
  189.1910  177.3680  147.0770 C   0  0  0  0  0  2  0  0  0  0  0  0
  187.0530  177.8340  146.8110 N   0  0  0  0  0  2  0  0  0  0  0  0
  1 27  1  0  0  0  0
  1 26  1  1  0  0  0
  2 14  1  0  0  0  0
  3  7  2  0  0  0  0
  3 16  1  0  0  0  0
  4 18  1  0  0  0  0
  4 23  1  1  0  0  0
  5 11  1  1  0  0  0
  5 15  1  0  0  0  0
  6 19  1  0  0  0  0
  8 12  2  0  0  0  0
  9 25  1  0  0  0  0
  9 27  1  0  0  0  0
 10 17  1  0  0  0  0
 11 20  1  0  0  0  0
 12 15  1  0  0  0  0
 13  9  1  0  0  0  0
 15  4  1  0  0  0  0
 16  8  1  0  0  0  0
 17 28  1  0  0  0  0
 18  1  1  0  0  0  0
 19  3  1  0  0  0  0
 19  5  1  0  0  0  0
 20 13  1  0  0  0  0
 20 18  1  0  0  0  0
 21 26  1  0  0  0  0
 22 10  1  0  0  0  0
 23 21  1  0  0  0  0
 24 22  1  0  0  0  0
 24 13  1  0  0  0  0
 25 17  1  0  0  0  0
 25 14  1  0  0  0  0
 27  2  1  0  0  0  0
 28 29  1  0  0  0  0
 29 32  1  0  0  0  0
 31 33  1  0  0  0  0
 32 31  1  0  0  0  0
 32 34  1  0  0  0  0
 33 30  1  0  0  0  0
 34 30  1  0  0  0  0
M  END
>  <MODEL>
9

>  <REMARK>
 VINA RESULT:      -6.3      3.926      7.626
  Name = 
  3 active torsions:
  status: ('A' for Active; 'I' for Inactive)
    1  A    between atoms: C_17  and  O_28
    2  A    between atoms: O_28  and  C_29
    3  A    between atoms: C_29  and  C_32
                            x       y       z     vdW  Elec       q    Type
                         _______ _______ _______ _____ _____    ______ ____

>  <TORSDO>
F 3

$$$$
