=
 OpenBabel11122411423D

 37 44  0  0  1  0  0  0  0  0999 V2000
  189.3950  176.3150  137.3130 C   0  0  0  0  0  0  0  0  0  0  0  0
  186.1950  178.2880  137.1570 C   0  0  1  0  0  3  0  0  0  0  0  0
  184.9960  179.5810  139.9480 O   0  0  0  0  0  0  0  0  0  0  0  0
  188.3330  177.7110  135.7970 C   0  0  2  0  0  3  0  0  0  0  0  0
  186.1080  177.9280  138.6360 C   0  0  2  0  0  3  0  0  0  0  0  0
  187.6980  178.4860  136.9500 C   0  0  2  0  0  3  0  0  0  0  0  0
  184.8090  178.3380  139.3290 C   0  0  2  0  0  3  0  0  0  0  0  0
  187.4060  177.7670  134.5940 C   0  0  0  0  0  2  0  0  0  0  0  0
  188.3390  178.1710  138.2990 C   0  0  2  0  0  3  0  0  0  0  0  0
  190.7460  177.0290  137.1730 C   0  0  0  0  0  1  0  0  0  0  0  0
  184.0940  177.3710  136.2580 N   0  0  0  0  0  2  0  0  0  0  0  0
  186.0640  177.0810  134.8660 C   0  0  0  0  0  2  0  0  0  0  0  0
  188.6450  176.7870  138.4160 O   0  0  0  0  0  0  0  0  0  0  0  0
  185.3900  178.1080  141.8050 O   0  0  0  0  0  0  0  0  0  0  0  0
  185.2610  179.4360  141.3390 C   0  0  1  0  0  3  0  0  0  0  0  0
  185.5430  177.1780  136.3110 C   0  0  1  0  0  3  0  0  0  0  0  0
  187.2880  178.5320  139.2600 N   0  0  2  0  0  0  0  0  0  0  0  0
  188.6230  176.3710  136.1290 O   0  0  0  0  0  0  0  0  0  0  0  0
  183.5560  178.3250  138.4430 C   0  0  1  0  0  3  0  0  0  0  0  0
  189.7090  174.8570  137.5760 C   0  0  0  0  0  1  0  0  0  0  0  0
  186.6000  178.8190  141.6590 C   0  0  2  0  0  3  0  0  0  0  0  0
  187.4740  178.0390  140.6410 C   0  0  2  0  0  3  0  0  0  0  0  0
  183.4980  177.0800  137.5570 C   0  0  0  0  0  2  0  0  0  0  0  0
  181.7640  177.2780  139.8340 C   0  0  0  0  0  3  0  0  0  0  0  0
  182.3160  178.4360  139.2750 C   0  0  0  0  0  0  0  0  0  0  0  0
  181.6960  179.6760  139.4950 C   0  0  0  0  0  3  0  0  0  0  0  0
  179.9390  180.9510  140.4790 F   0  0  0  0  0  0  0  0  0  0  0  0
  179.9880  178.5920  140.8260 C   0  0  0  0  0  3  0  0  0  0  0  0
  180.5350  179.7520  140.2690 C   0  0  0  0  0  0  0  0  0  0  0  0
  180.6030  177.3560  140.6080 C   0  0  0  0  0  3  0  0  0  0  0  0
  188.9340  178.2170  141.1260 C   0  0  1  0  0  3  0  0  0  0  0  0
  189.2640  177.5450  142.4180 N   0  0  0  0  0  0  0  0  0  0  0  0
  189.6800  176.9630  141.1370 C   0  0  2  0  0  3  0  0  0  0  0  0
  191.4390  177.3080  140.8690 S   0  0  0  0  0  0  0  0  0  0  0  0
  191.7670  177.3530  142.6530 C   0  0  0  0  0  1  0  0  0  0  0  0
  188.0700  176.8500  144.4160 C   0  0  0  0  0  1  0  0  0  0  0  0
  188.2280  176.6500  142.9230 C   0  0  0  0  0  2  0  0  0  0  0  0
  1 20  1  0  0  0  0
  1 13  1  0  0  0  0
  2  5  1  0  0  0  0
  3 15  1  0  0  0  0
  4 18  1  0  0  0  0
  4  6  1  0  0  0  0
  5 17  1  0  0  0  0
  5  7  1  0  0  0  0
  6  2  1  0  0  0  0
  6  9  1  0  0  0  0
  7  3  1  0  0  0  0
  8 12  1  0  0  0  0
  8  4  1  0  0  0  0
  9 13  1  0  0  0  0
  9 17  1  0  0  0  0
 10  1  1  0  0  0  0
 11 16  1  0  0  0  0
 11 23  1  0  0  0  0
 12 16  1  0  0  0  0
 15 21  1  0  0  0  0
 15 14  1  0  0  0  0
 16  2  1  0  0  0  0
 17 22  1  0  0  0  0
 18  1  1  0  0  0  0
 19 25  1  0  0  0  0
 19  7  1  0  0  0  0
 21 14  1  0  0  0  0
 22 31  1  0  0  0  0
 22 21  1  0  0  0  0
 23 19  1  0  0  0  0
 24 30  1  0  0  0  0
 25 26  1  0  0  0  0
 25 24  2  0  0  0  0
 26 29  2  0  0  0  0
 29 27  1  0  0  0  0
 29 28  1  0  0  0  0
 30 28  2  0  0  0  0
 31 33  1  0  0  0  0
 31 32  1  0  0  0  0
 32 37  1  0  0  0  0
 33 32  1  0  0  0  0
 34 33  1  0  0  0  0
 34 35  1  0  0  0  0
 37 36  1  0  0  0  0
M  END
>  <MODEL>
1

>  <REMARK>
 VINA RESULT:      -8.1      0.000      0.000
  Name = 
  4 active torsions:
  status: ('A' for Active; 'I' for Inactive)
    1  A    between atoms: C_1  and  C_27
    2  A    between atoms: N_4  and  C_37
    3  A    between atoms: S_8  and  C_12
    4  A    between atoms: C_23  and  C_30
                            x       y       z     vdW  Elec       q    Type
                         _______ _______ _______ _____ _____    ______ ____

>  <TORSDO>
F 4

$$$$
=
 OpenBabel11122411423D

 37 44  0  0  1  0  0  0  0  0999 V2000
  182.9820  177.2950  138.3980 C   0  0  0  0  0  0  0  0  0  0  0  0
  185.3690  178.8890  140.8310 C   0  0  1  0  0  3  0  0  0  0  0  0
  188.5790  178.9860  140.0660 O   0  0  0  0  0  0  0  0  0  0  0  0
  182.9360  179.0340  139.9300 C   0  0  2  0  0  3  0  0  0  0  0  0
  186.3990  178.0200  140.1190 C   0  0  2  0  0  3  0  0  0  0  0  0
  184.4250  179.2860  139.6950 C   0  0  2  0  0  3  0  0  0  0  0  0
  187.7980  178.0330  140.7330 C   0  0  2  0  0  3  0  0  0  0  0  0
  182.5870  179.4290  141.3560 C   0  0  0  0  0  2  0  0  0  0  0  0
  184.9570  178.5710  138.4560 C   0  0  2  0  0  3  0  0  0  0  0  0
  182.3510  178.1340  137.2800 C   0  0  0  0  0  1  0  0  0  0  0  0
  185.5830  178.1610  143.1740 N   0  0  0  0  0  2  0  0  0  0  0  0
  183.3210  178.5700  142.3890 C   0  0  0  0  0  2  0  0  0  0  0  0
  184.3950  177.2710  138.3260 O   0  0  0  0  0  0  0  0  0  0  0  0
  189.2350  176.9910  138.8980 O   0  0  0  0  0  0  0  0  0  0  0  0
  189.4160  178.3800  139.0870 C   0  0  1  0  0  3  0  0  0  0  0  0
  184.7300  178.0970  141.9890 C   0  0  1  0  0  3  0  0  0  0  0  0
  186.3980  178.4680  138.7240 N   0  0  2  0  0  0  0  0  0  0  0  0
  182.5590  177.6970  139.6870 O   0  0  0  0  0  0  0  0  0  0  0  0
  187.8480  178.2210  142.2560 C   0  0  1  0  0  3  0  0  0  0  0  0
  182.5000  175.8750  138.1900 C   0  0  0  0  0  1  0  0  0  0  0  0
  188.6790  177.8170  137.8970 C   0  0  2  0  0  3  0  0  0  0  0  0
  187.1530  177.5340  137.8610 C   0  0  2  0  0  3  0  0  0  0  0  0
  186.7940  177.3730  142.9680 C   0  0  0  0  0  2  0  0  0  0  0  0
  189.6660  176.5880  142.7760 C   0  0  0  0  0  3  0  0  0  0  0  0
  189.2150  177.9120  142.7840 C   0  0  0  0  0  0  0  0  0  0  0  0
  190.0430  178.9250  143.2930 C   0  0  0  0  0  3  0  0  0  0  0  0
  192.1090  179.5900  144.2790 F   0  0  0  0  0  0  0  0  0  0  0  0
  191.7580  177.2860  143.7780 C   0  0  0  0  0  3  0  0  0  0  0  0
  191.3120  178.6100  143.7890 C   0  0  0  0  0  0  0  0  0  0  0  0
  190.9360  176.2750  143.2710 C   0  0  0  0  0  3  0  0  0  0  0  0
  186.7420  177.6630  136.3740 C   0  0  1  0  0  3  0  0  0  0  0  0
  187.2500  176.5840  135.4750 N   0  0  0  0  0  0  0  0  0  0  0  0
  185.8580  176.5860  135.9390 C   0  0  2  0  0  3  0  0  0  0  0  0
  184.7880  177.1880  134.6060 S   0  0  0  0  0  0  0  0  0  0  0  0
  183.7520  175.7010  134.6800 C   0  0  0  0  0  1  0  0  0  0  0  0
  189.0900  175.0010  135.3820 C   0  0  0  0  0  1  0  0  0  0  0  0
  187.8790  175.4610  136.1650 C   0  0  0  0  0  2  0  0  0  0  0  0
  1 18  1  0  0  0  0
  2 16  1  0  0  0  0
  3  7  1  0  0  0  0
  4  8  1  0  0  0  0
  5  7  1  0  0  0  0
  5  2  1  0  0  0  0
  6  4  1  0  0  0  0
  6  2  1  0  0  0  0
  7 19  1  0  0  0  0
  8 12  1  0  0  0  0
  9 17  1  0  0  0  0
  9  6  1  0  0  0  0
 10  1  1  0  0  0  0
 13  1  1  0  0  0  0
 13  9  1  0  0  0  0
 14 15  1  0  0  0  0
 15  3  1  0  0  0  0
 16 12  1  0  0  0  0
 16 11  1  0  0  0  0
 17  5  1  0  0  0  0
 18  4  1  0  0  0  0
 19 25  1  0  0  0  0
 19 23  1  0  0  0  0
 20  1  1  0  0  0  0
 21 14  1  0  0  0  0
 21 15  1  0  0  0  0
 22 21  1  0  0  0  0
 22 17  1  0  0  0  0
 23 11  1  0  0  0  0
 24 25  2  0  0  0  0
 24 30  1  0  0  0  0
 25 26  1  0  0  0  0
 26 29  2  0  0  0  0
 28 29  1  0  0  0  0
 29 27  1  0  0  0  0
 30 28  2  0  0  0  0
 31 22  1  0  0  0  0
 32 33  1  0  0  0  0
 32 37  1  0  0  0  0
 32 31  1  0  0  0  0
 33 31  1  0  0  0  0
 34 35  1  0  0  0  0
 34 33  1  0  0  0  0
 36 37  1  0  0  0  0
M  END
>  <MODEL>
2

>  <REMARK>
 VINA RESULT:      -7.9      3.200      7.305
  Name = 
  4 active torsions:
  status: ('A' for Active; 'I' for Inactive)
    1  A    between atoms: C_1  and  C_27
    2  A    between atoms: N_4  and  C_37
    3  A    between atoms: S_8  and  C_12
    4  A    between atoms: C_23  and  C_30
                            x       y       z     vdW  Elec       q    Type
                         _______ _______ _______ _____ _____    ______ ____

>  <TORSDO>
F 4

$$$$
=
 OpenBabel11122411423D

 37 44  0  0  1  0  0  0  0  0999 V2000
  188.4020  175.9390  136.4750 C   0  0  0  0  0  0  0  0  0  0  0  0
  185.5720  178.1470  137.6030 C   0  0  1  0  0  3  0  0  0  0  0  0
  185.7450  179.5380  140.5930 O   0  0  0  0  0  0  0  0  0  0  0  0
  186.8980  177.4050  135.4950 C   0  0  2  0  0  3  0  0  0  0  0  0
  186.0900  177.8010  138.9940 C   0  0  2  0  0  3  0  0  0  0  0  0
  186.8590  178.2310  136.7800 C   0  0  2  0  0  3  0  0  0  0  0  0
  185.2330  178.3100  140.1530 C   0  0  2  0  0  3  0  0  0  0  0  0
  185.5570  177.5270  134.7880 C   0  0  0  0  0  2  0  0  0  0  0  0
  187.9840  177.8720  137.7470 C   0  0  2  0  0  3  0  0  0  0  0  0
  189.6130  176.5480  135.7580 C   0  0  0  0  0  1  0  0  0  0  0  0
  183.2310  177.3880  137.6980 N   0  0  0  0  0  2  0  0  0  0  0  0
  184.4110  176.9450  135.6200 C   0  0  0  0  0  2  0  0  0  0  0  0
  188.2180  176.4700  137.7740 O   0  0  0  0  0  0  0  0  0  0  0  0
  186.7810  178.0460  142.1650 O   0  0  0  0  0  0  0  0  0  0  0  0
  186.5580  179.3780  141.7490 C   0  0  1  0  0  3  0  0  0  0  0  0
  184.5520  177.0870  137.1470 C   0  0  1  0  0  3  0  0  0  0  0  0
  187.4600  178.3160  139.0460 N   0  0  2  0  0  0  0  0  0  0  0  0
  187.2100  176.0490  135.7220 O   0  0  0  0  0  0  0  0  0  0  0  0
  183.7250  178.3890  139.8720 C   0  0  1  0  0  3  0  0  0  0  0  0
  188.6980  174.4620  136.6340 C   0  0  0  0  0  1  0  0  0  0  0  0
  187.8640  178.6630  141.5020 C   0  0  2  0  0  3  0  0  0  0  0  0
  188.1750  177.8150  140.2390 C   0  0  2  0  0  3  0  0  0  0  0  0
  183.2180  177.1480  139.1370 C   0  0  0  0  0  2  0  0  0  0  0  0
  181.5980  178.9110  141.0750 C   0  0  0  0  0  3  0  0  0  0  0  0
  182.9600  178.5960  141.1430 C   0  0  0  0  0  0  0  0  0  0  0  0
  183.5850  178.4880  142.3950 C   0  0  0  0  0  3  0  0  0  0  0  0
  183.4580  178.5890  144.7730 F   0  0  0  0  0  0  0  0  0  0  0  0
  181.4900  179.0080  143.4920 C   0  0  0  0  0  3  0  0  0  0  0  0
  182.8500  178.6940  143.5660 C   0  0  0  0  0  0  0  0  0  0  0  0
  180.8650  179.1160  142.2470 C   0  0  0  0  0  3  0  0  0  0  0  0
  189.7120  177.8840  140.0620 C   0  0  1  0  0  3  0  0  0  0  0  0
  190.5090  177.2100  141.1310 N   0  0  0  0  0  0  0  0  0  0  0  0
  190.3100  176.5740  139.8230 C   0  0  2  0  0  3  0  0  0  0  0  0
  191.8140  176.7730  138.8310 S   0  0  0  0  0  0  0  0  0  0  0  0
  192.7150  177.5010  140.2260 C   0  0  0  0  0  1  0  0  0  0  0  0
  190.6010  175.9720  143.2190 C   0  0  0  0  0  1  0  0  0  0  0  0
  189.7230  176.4100  142.0650 C   0  0  0  0  0  2  0  0  0  0  0  0
  1 20  1  0  0  0  0
  1 13  1  0  0  0  0
  2  5  1  0  0  0  0
  3 15  1  0  0  0  0
  4 18  1  0  0  0  0
  4  6  1  0  0  0  0
  5 17  1  0  0  0  0
  5  7  1  0  0  0  0
  6  2  1  0  0  0  0
  6  9  1  0  0  0  0
  7  3  1  0  0  0  0
  8  4  1  0  0  0  0
  8 12  1  0  0  0  0
  9 13  1  0  0  0  0
  9 17  1  0  0  0  0
 10  1  1  0  0  0  0
 11 23  1  0  0  0  0
 12 16  1  0  0  0  0
 15 14  1  0  0  0  0
 16  2  1  0  0  0  0
 16 11  1  0  0  0  0
 17 22  1  0  0  0  0
 18  1  1  0  0  0  0
 19  7  1  0  0  0  0
 19 25  1  0  0  0  0
 21 15  1  0  0  0  0
 21 14  1  0  0  0  0
 22 21  1  0  0  0  0
 23 19  1  0  0  0  0
 24 25  2  0  0  0  0
 24 30  1  0  0  0  0
 25 26  1  0  0  0  0
 26 29  2  0  0  0  0
 28 29  1  0  0  0  0
 29 27  1  0  0  0  0
 30 28  2  0  0  0  0
 31 22  1  0  0  0  0
 31 32  1  0  0  0  0
 32 37  1  0  0  0  0
 33 31  1  0  0  0  0
 33 32  1  0  0  0  0
 34 33  1  0  0  0  0
 34 35  1  0  0  0  0
 37 36  1  0  0  0  0
M  END
>  <MODEL>
3

>  <REMARK>
 VINA RESULT:      -7.6      1.829      2.080
  Name = 
  4 active torsions:
  status: ('A' for Active; 'I' for Inactive)
    1  A    between atoms: C_1  and  C_27
    2  A    between atoms: N_4  and  C_37
    3  A    between atoms: S_8  and  C_12
    4  A    between atoms: C_23  and  C_30
                            x       y       z     vdW  Elec       q    Type
                         _______ _______ _______ _____ _____    ______ ____

>  <TORSDO>
F 4

$$$$
=
 OpenBabel11122411423D

 37 44  0  0  1  0  0  0  0  0999 V2000
  183.7170  178.0390  140.5900 C   0  0  0  0  0  0  0  0  0  0  0  0
  186.1130  178.8250  143.3820 C   0  0  1  0  0  3  0  0  0  0  0  0
  189.3550  178.6230  142.7900 O   0  0  0  0  0  0  0  0  0  0  0  0
  183.7850  179.4610  142.4190 C   0  0  2  0  0  3  0  0  0  0  0  0
  187.0720  177.9680  142.5640 C   0  0  2  0  0  3  0  0  0  0  0  0
  185.3060  179.5470  142.3010 C   0  0  2  0  0  3  0  0  0  0  0  0
  188.4170  177.6800  143.2300 C   0  0  2  0  0  3  0  0  0  0  0  0
  183.3910  179.6340  143.8770 C   0  0  0  0  0  2  0  0  0  0  0  0
  185.8270  179.0030  140.9730 C   0  0  2  0  0  3  0  0  0  0  0  0
  183.2740  179.1440  139.6230 C   0  0  0  0  0  1  0  0  0  0  0  0
  186.0740  177.6630  145.5530 N   0  0  0  0  0  2  0  0  0  0  0  0
  183.9390  178.5110  144.7610 C   0  0  0  0  0  2  0  0  0  0  0  0
  185.1170  177.8360  140.5760 O   0  0  0  0  0  0  0  0  0  0  0  0
  189.8330  176.8030  141.2960 O   0  0  0  0  0  0  0  0  0  0  0  0
  190.1730  178.0970  141.7510 C   0  0  1  0  0  3  0  0  0  0  0  0
  185.3020  177.9310  144.3400 C   0  0  1  0  0  3  0  0  0  0  0  0
  187.2220  178.6580  141.2800 N   0  0  2  0  0  0  0  0  0  0  0  0
  183.2610  178.2540  141.9110 O   0  0  0  0  0  0  0  0  0  0  0  0
  188.3860  177.5800  144.7620 C   0  0  1  0  0  3  0  0  0  0  0  0
  183.0760  176.7580  140.0970 C   0  0  0  0  0  1  0  0  0  0  0  0
  189.4550  177.8640  140.4450 C   0  0  2  0  0  3  0  0  0  0  0  0
  187.9110  177.8030  140.2910 C   0  0  2  0  0  3  0  0  0  0  0  0
  187.1870  176.7680  145.2550 C   0  0  0  0  0  2  0  0  0  0  0  0
  190.0570  177.2790  146.5950 C   0  0  0  0  0  3  0  0  0  0  0  0
  189.6640  176.9980  145.2820 C   0  0  0  0  0  0  0  0  0  0  0  0
  190.4750  176.1860  144.4740 C   0  0  0  0  0  3  0  0  0  0  0  0
  192.4480  174.8780  144.1970 F   0  0  0  0  0  0  0  0  0  0  0  0
  192.0550  175.9440  146.2930 C   0  0  0  0  0  3  0  0  0  0  0  0
  191.6670  175.6610  144.9800 C   0  0  0  0  0  0  0  0  0  0  0  0
  191.2490  176.7530  147.1000 C   0  0  0  0  0  3  0  0  0  0  0  0
  187.6220  178.2530  138.8380 C   0  0  1  0  0  3  0  0  0  0  0  0
  188.3170  177.4660  137.7750 N   0  0  0  0  0  0  0  0  0  0  0  0
  186.8960  177.2460  138.0700 C   0  0  2  0  0  3  0  0  0  0  0  0
  185.8910  178.0660  136.8040 S   0  0  0  0  0  0  0  0  0  0  0  0
  184.7230  176.6790  136.7420 C   0  0  0  0  0  1  0  0  0  0  0  0
  190.1060  175.8970  137.2900 C   0  0  0  0  0  1  0  0  0  0  0  0
  188.9940  176.2640  138.2500 C   0  0  0  0  0  2  0  0  0  0  0  0
  1 18  1  0  0  0  0
  2 16  1  0  0  0  0
  3  7  1  0  0  0  0
  4  8  1  0  0  0  0
  5  7  1  0  0  0  0
  5  2  1  0  0  0  0
  6  4  1  0  0  0  0
  6  2  1  0  0  0  0
  7 19  1  0  0  0  0
  8 12  1  0  0  0  0
  9 17  1  0  0  0  0
  9  6  1  0  0  0  0
 10  1  1  0  0  0  0
 13  1  1  0  0  0  0
 13  9  1  0  0  0  0
 14 15  1  0  0  0  0
 15  3  1  0  0  0  0
 16 12  1  0  0  0  0
 16 11  1  0  0  0  0
 17  5  1  0  0  0  0
 18  4  1  0  0  0  0
 19 23  1  0  0  0  0
 19 25  1  0  0  0  0
 20  1  1  0  0  0  0
 21 14  1  0  0  0  0
 21 15  1  0  0  0  0
 22 21  1  0  0  0  0
 22 17  1  0  0  0  0
 23 11  1  0  0  0  0
 24 30  1  0  0  0  0
 25 24  2  0  0  0  0
 26 29  2  0  0  0  0
 26 25  1  0  0  0  0
 27 29  1  0  0  0  0
 28 30  2  0  0  0  0
 29 28  1  0  0  0  0
 31 22  1  0  0  0  0
 32 33  1  0  0  0  0
 32 37  1  0  0  0  0
 32 31  1  0  0  0  0
 33 31  1  0  0  0  0
 34 33  1  0  0  0  0
 35 34  1  0  0  0  0
 36 37  1  0  0  0  0
M  END
>  <MODEL>
4

>  <REMARK>
 VINA RESULT:      -7.5      3.436      7.939
  Name = 
  4 active torsions:
  status: ('A' for Active; 'I' for Inactive)
    1  A    between atoms: C_1  and  C_27
    2  A    between atoms: N_4  and  C_37
    3  A    between atoms: S_8  and  C_12
    4  A    between atoms: C_23  and  C_30
                            x       y       z     vdW  Elec       q    Type
                         _______ _______ _______ _____ _____    ______ ____

>  <TORSDO>
F 4

$$$$
=
 OpenBabel11122411423D

 37 44  0  0  1  0  0  0  0  0999 V2000
  183.6730  177.9310  140.3280 C   0  0  0  0  0  0  0  0  0  0  0  0
  186.0570  178.8000  143.1060 C   0  0  1  0  0  3  0  0  0  0  0  0
  189.3010  178.6530  142.5120 O   0  0  0  0  0  0  0  0  0  0  0  0
  183.7160  179.3780  142.1380 C   0  0  2  0  0  3  0  0  0  0  0  0
  187.0310  177.9510  142.2980 C   0  0  2  0  0  3  0  0  0  0  0  0
  185.2340  179.4920  142.0170 C   0  0  2  0  0  3  0  0  0  0  0  0
  188.3820  177.6970  142.9670 C   0  0  2  0  0  3  0  0  0  0  0  0
  183.3200  179.5630  143.5950 C   0  0  0  0  0  2  0  0  0  0  0  0
  185.7650  178.9410  140.6960 C   0  0  2  0  0  3  0  0  0  0  0  0
  183.2080  179.0150  139.3480 C   0  0  0  0  0  1  0  0  0  0  0  0
  186.0430  177.6660  145.2920 N   0  0  0  0  0  2  0  0  0  0  0  0
  183.8910  178.4620  144.4920 C   0  0  0  0  0  2  0  0  0  0  0  0
  185.0770  177.7550  140.3150 O   0  0  0  0  0  0  0  0  0  0  0  0
  189.8130  176.8230  141.0420 O   0  0  0  0  0  0  0  0  0  0  0  0
  190.1290  178.1290  141.4800 C   0  0  1  0  0  3  0  0  0  0  0  0
  185.2640  177.9030  144.0780 C   0  0  1  0  0  3  0  0  0  0  0  0
  187.1660  178.6260  141.0060 N   0  0  2  0  0  0  0  0  0  0  0  0
  183.2140  178.1540  141.6470 O   0  0  0  0  0  0  0  0  0  0  0  0
  188.3540  177.6180  144.4990 C   0  0  1  0  0  3  0  0  0  0  0  0
  183.0570  176.6320  139.8530 C   0  0  0  0  0  1  0  0  0  0  0  0
  189.4130  177.8650  140.1780 C   0  0  2  0  0  3  0  0  0  0  0  0
  187.8710  177.7720  140.0260 C   0  0  2  0  0  3  0  0  0  0  0  0
  187.1730  176.7890  145.0040 C   0  0  0  0  0  2  0  0  0  0  0  0
  190.4640  176.3180  144.1740 C   0  0  0  0  0  3  0  0  0  0  0  0
  189.6440  177.0670  145.0250 C   0  0  0  0  0  0  0  0  0  0  0  0
  190.0390  177.2830  146.3550 C   0  0  0  0  0  3  0  0  0  0  0  0
  191.6200  176.9620  148.1090 F   0  0  0  0  0  0  0  0  0  0  0  0
  192.0580  176.0050  145.9700 C   0  0  0  0  0  3  0  0  0  0  0  0
  191.2430  176.7520  146.8240 C   0  0  0  0  0  0  0  0  0  0  0  0
  191.6680  175.7880  144.6450 C   0  0  0  0  0  3  0  0  0  0  0  0
  187.5720  178.1980  138.5680 C   0  0  1  0  0  3  0  0  0  0  0  0
  188.1780  177.3320  137.5130 N   0  0  0  0  0  0  0  0  0  0  0  0
  186.7550  177.2220  137.8530 C   0  0  2  0  0  3  0  0  0  0  0  0
  185.7730  178.0710  136.5890 S   0  0  0  0  0  0  0  0  0  0  0  0
  184.8670  176.5530  136.1820 C   0  0  0  0  0  1  0  0  0  0  0  0
  190.0160  175.7780  137.1890 C   0  0  0  0  0  1  0  0  0  0  0  0
  188.7840  176.1000  138.0080 C   0  0  0  0  0  2  0  0  0  0  0  0
  1 18  1  0  0  0  0
  2 16  1  0  0  0  0
  3  7  1  0  0  0  0
  4  8  1  0  0  0  0
  5  7  1  0  0  0  0
  5  2  1  0  0  0  0
  6  4  1  0  0  0  0
  6  2  1  0  0  0  0
  7 19  1  0  0  0  0
  8 12  1  0  0  0  0
  9 17  1  0  0  0  0
  9  6  1  0  0  0  0
 10  1  1  0  0  0  0
 13  1  1  0  0  0  0
 13  9  1  0  0  0  0
 14 15  1  0  0  0  0
 15  3  1  0  0  0  0
 16 12  1  0  0  0  0
 16 11  1  0  0  0  0
 17  5  1  0  0  0  0
 18  4  1  0  0  0  0
 19 23  1  0  0  0  0
 19 25  1  0  0  0  0
 20  1  1  0  0  0  0
 21 14  1  0  0  0  0
 21 15  1  0  0  0  0
 22 21  1  0  0  0  0
 22 17  1  0  0  0  0
 23 11  1  0  0  0  0
 24 30  2  0  0  0  0
 24 25  1  0  0  0  0
 25 26  2  0  0  0  0
 26 29  1  0  0  0  0
 28 29  2  0  0  0  0
 29 27  1  0  0  0  0
 30 28  1  0  0  0  0
 31 22  1  0  0  0  0
 32 33  1  0  0  0  0
 32 37  1  0  0  0  0
 32 31  1  0  0  0  0
 33 31  1  0  0  0  0
 34 33  1  0  0  0  0
 35 34  1  0  0  0  0
 36 37  1  0  0  0  0
M  END
>  <MODEL>
5

>  <REMARK>
 VINA RESULT:      -7.2      3.394      7.838
  Name = 
  4 active torsions:
  status: ('A' for Active; 'I' for Inactive)
    1  A    between atoms: C_1  and  C_27
    2  A    between atoms: N_4  and  C_37
    3  A    between atoms: S_8  and  C_12
    4  A    between atoms: C_23  and  C_30
                            x       y       z     vdW  Elec       q    Type
                         _______ _______ _______ _____ _____    ______ ____

>  <TORSDO>
F 4

$$$$
=
 OpenBabel11122411423D

 37 44  0  0  1  0  0  0  0  0999 V2000
  184.3910  176.8790  137.8790 C   0  0  0  0  0  0  0  0  0  0  0  0
  186.3220  178.5590  140.6360 C   0  0  1  0  0  3  0  0  0  0  0  0
  189.6130  178.2960  140.6510 O   0  0  0  0  0  0  0  0  0  0  0  0
  184.1880  178.7920  139.1720 C   0  0  2  0  0  3  0  0  0  0  0  0
  187.3860  177.5270  140.2810 C   0  0  2  0  0  3  0  0  0  0  0  0
  185.7090  178.8890  139.2740 C   0  0  2  0  0  3  0  0  0  0  0  0
  188.6020  177.5010  141.2060 C   0  0  2  0  0  3  0  0  0  0  0  0
  183.5690  179.3880  140.4260 C   0  0  0  0  0  2  0  0  0  0  0  0
  186.4280  177.9850  138.2750 C   0  0  2  0  0  3  0  0  0  0  0  0
  184.1260  177.6220  136.5640 C   0  0  0  0  0  1  0  0  0  0  0  0
  185.9190  178.1130  143.0240 N   0  0  0  0  0  2  0  0  0  0  0  0
  183.9520  178.6060  141.6860 C   0  0  0  0  0  2  0  0  0  0  0  0
  185.7720  176.7300  138.1480 O   0  0  0  0  0  0  0  0  0  0  0  0
  190.2950  176.1250  139.8800 O   0  0  0  0  0  0  0  0  0  0  0  0
  190.5790  177.5070  139.9650 C   0  0  1  0  0  3  0  0  0  0  0  0
  185.3550  177.9730  141.6820 C   0  0  1  0  0  3  0  0  0  0  0  0
  187.7500  177.7970  138.8880 N   0  0  2  0  0  0  0  0  0  0  0  0
  183.7330  177.4700  138.9830 O   0  0  0  0  0  0  0  0  0  0  0  0
  188.3250  177.8710  142.6700 C   0  0  1  0  0  3  0  0  0  0  0  0
  183.8170  175.4880  137.7070 C   0  0  0  0  0  1  0  0  0  0  0  0
  190.0750  176.8630  138.6970 C   0  0  2  0  0  3  0  0  0  0  0  0
  188.5750  176.7050  138.3290 C   0  0  2  0  0  3  0  0  0  0  0  0
  187.0510  177.2070  143.1930 C   0  0  0  0  0  2  0  0  0  0  0  0
  189.8810  178.4010  144.5520 C   0  0  0  0  0  3  0  0  0  0  0  0
  189.4940  177.5190  143.5370 C   0  0  0  0  0  0  0  0  0  0  0  0
  190.2110  176.3280  143.3420 C   0  0  0  0  0  3  0  0  0  0  0  0
  191.9940  174.8750  143.9680 F   0  0  0  0  0  0  0  0  0  0  0  0
  191.6860  176.9090  145.1730 C   0  0  0  0  0  3  0  0  0  0  0  0
  191.3040  176.0260  144.1590 C   0  0  0  0  0  0  0  0  0  0  0  0
  190.9730  178.0960  145.3690 C   0  0  0  0  0  3  0  0  0  0  0  0
  188.5290  176.6820  136.7810 C   0  0  1  0  0  3  0  0  0  0  0  0
  189.0990  175.4580  136.1440 N   0  0  0  0  0  0  0  0  0  0  0  0
  187.6480  175.6420  136.2600 C   0  0  2  0  0  3  0  0  0  0  0  0
  186.9840  176.1650  134.6570 S   0  0  0  0  0  0  0  0  0  0  0  0
  187.5570  177.8680  134.9030 C   0  0  0  0  0  1  0  0  0  0  0  0
  190.7460  173.7570  136.6860 C   0  0  0  0  0  1  0  0  0  0  0  0
  189.4210  174.3790  137.0730 C   0  0  0  0  0  2  0  0  0  0  0  0
  1 13  1  0  0  0  0
  1 18  1  0  0  0  0
  2 16  1  0  0  0  0
  3  7  1  0  0  0  0
  4  6  1  0  0  0  0
  4  8  1  0  0  0  0
  5  2  1  0  0  0  0
  5  7  1  0  0  0  0
  6  2  1  0  0  0  0
  7 19  1  0  0  0  0
  8 12  1  0  0  0  0
  9 17  1  0  0  0  0
  9  6  1  0  0  0  0
 10  1  1  0  0  0  0
 11 23  1  0  0  0  0
 13  9  1  0  0  0  0
 14 15  1  0  0  0  0
 15  3  1  0  0  0  0
 16 12  1  0  0  0  0
 16 11  1  0  0  0  0
 17  5  1  0  0  0  0
 18  4  1  0  0  0  0
 19 23  1  0  0  0  0
 19 25  1  0  0  0  0
 20  1  1  0  0  0  0
 21 14  1  0  0  0  0
 21 15  1  0  0  0  0
 22 21  1  0  0  0  0
 22 17  1  0  0  0  0
 24 30  1  0  0  0  0
 25 24  2  0  0  0  0
 26 25  1  0  0  0  0
 26 29  2  0  0  0  0
 27 29  1  0  0  0  0
 28 30  2  0  0  0  0
 29 28  1  0  0  0  0
 31 22  1  0  0  0  0
 32 33  1  0  0  0  0
 32 31  1  0  0  0  0
 32 37  1  0  0  0  0
 33 31  1  0  0  0  0
 34 35  1  0  0  0  0
 34 33  1  0  0  0  0
 36 37  1  0  0  0  0
M  END
>  <MODEL>
6

>  <REMARK>
 VINA RESULT:      -6.9      3.332      7.079
  Name = 
  4 active torsions:
  status: ('A' for Active; 'I' for Inactive)
    1  A    between atoms: C_1  and  C_27
    2  A    between atoms: N_4  and  C_37
    3  A    between atoms: S_8  and  C_12
    4  A    between atoms: C_23  and  C_30
                            x       y       z     vdW  Elec       q    Type
                         _______ _______ _______ _____ _____    ______ ____

>  <TORSDO>
F 4

$$$$
=
 OpenBabel11122411423D

 37 44  0  0  1  0  0  0  0  0999 V2000
  190.4120  176.0550  138.3630 C   0  0  0  0  0  0  0  0  0  0  0  0
  187.9060  178.6280  139.4840 C   0  0  1  0  0  3  0  0  0  0  0  0
  187.0950  178.7590  142.6810 O   0  0  0  0  0  0  0  0  0  0  0  0
  189.8060  178.2100  137.7610 C   0  0  2  0  0  3  0  0  0  0  0  0
  187.7050  177.6670  140.6500 C   0  0  2  0  0  3  0  0  0  0  0  0
  189.4060  178.5050  139.2050 C   0  0  2  0  0  3  0  0  0  0  0  0
  186.5690  178.0320  141.6050 C   0  0  2  0  0  3  0  0  0  0  0  0
  188.9450  179.0460  136.8270 C   0  0  0  0  0  2  0  0  0  0  0  0
  189.9160  177.4540  140.1870 C   0  0  2  0  0  3  0  0  0  0  0  0
  191.9110  176.3800  138.3900 C   0  0  0  0  0  1  0  0  0  0  0  0
  185.6400  178.7990  138.5340 N   0  0  0  0  0  2  0  0  0  0  0  0
  187.4610  178.6830  136.9290 C   0  0  0  0  0  2  0  0  0  0  0  0
  189.8160  176.1440  139.6430 O   0  0  0  0  0  0  0  0  0  0  0  0
  187.0340  176.5540  143.6330 O   0  0  0  0  0  0  0  0  0  0  0  0
  187.2930  177.9300  143.8210 C   0  0  1  0  0  3  0  0  0  0  0  0
  186.9740  178.2380  138.3200 C   0  0  1  0  0  3  0  0  0  0  0  0
  189.0010  177.5920  141.3280 N   0  0  2  0  0  0  0  0  0  0  0  0
  189.6990  176.8430  137.4290 O   0  0  0  0  0  0  0  0  0  0  0  0
  185.3730  178.7490  140.9630 C   0  0  1  0  0  3  0  0  0  0  0  0
  190.2960  174.6130  137.9150 C   0  0  0  0  0  1  0  0  0  0  0  0
  188.3990  176.9150  143.6710 C   0  0  2  0  0  3  0  0  0  0  0  0
  189.0250  176.4910  142.3160 C   0  0  2  0  0  3  0  0  0  0  0  0
  184.9730  178.1090  139.6330 C   0  0  0  0  0  2  0  0  0  0  0  0
  182.9140  178.6280  141.3890 C   0  0  0  0  0  3  0  0  0  0  0  0
  184.2070  178.7810  141.9020 C   0  0  0  0  0  0  0  0  0  0  0  0
  184.3880  178.9690  143.2810 C   0  0  0  0  0  3  0  0  0  0  0  0
  183.4630  179.1860  145.4660 F   0  0  0  0  0  0  0  0  0  0  0  0
  181.9940  178.8490  143.6190 C   0  0  0  0  0  3  0  0  0  0  0  0
  183.2830  179.0030  144.1360 C   0  0  0  0  0  0  0  0  0  0  0  0
  181.8100  178.6610  142.2460 C   0  0  0  0  0  3  0  0  0  0  0  0
  190.4700  176.0460  142.6480 C   0  0  1  0  0  3  0  0  0  0  0  0
  191.4080  177.1470  143.0210 N   0  0  0  0  0  0  0  0  0  0  0  0
  190.8220  176.2750  144.0460 C   0  0  2  0  0  3  0  0  0  0  0  0
  192.0560  175.0530  144.5630 S   0  0  0  0  0  0  0  0  0  0  0  0
  192.0560  175.6780  146.2660 C   0  0  0  0  0  1  0  0  0  0  0  0
  191.4750  179.1840  144.3430 C   0  0  0  0  0  1  0  0  0  0  0  0
  190.7740  178.4470  143.2220 C   0  0  0  0  0  2  0  0  0  0  0  0
  1 10  1  0  0  0  0
  1 13  1  0  0  0  0
  2  5  1  0  0  0  0
  3 15  1  0  0  0  0
  4  6  1  0  0  0  0
  5 17  1  0  0  0  0
  5  7  1  0  0  0  0
  6  2  1  0  0  0  0
  6  9  1  0  0  0  0
  7  3  1  0  0  0  0
  8 12  1  0  0  0  0
  8  4  1  0  0  0  0
  9 17  1  0  0  0  0
 11 23  1  0  0  0  0
 12 16  1  0  0  0  0
 13  9  1  0  0  0  0
 14 21  1  0  0  0  0
 14 15  1  0  0  0  0
 16 11  1  0  0  0  0
 16  2  1  0  0  0  0
 17 22  1  0  0  0  0
 18  4  1  0  0  0  0
 18  1  1  0  0  0  0
 19  7  1  0  0  0  0
 19 25  1  0  0  0  0
 20  1  1  0  0  0  0
 21 15  1  0  0  0  0
 22 31  1  0  0  0  0
 22 21  1  0  0  0  0
 23 19  1  0  0  0  0
 24 25  2  0  0  0  0
 24 30  1  0  0  0  0
 25 26  1  0  0  0  0
 26 29  2  0  0  0  0
 28 29  1  0  0  0  0
 29 27  1  0  0  0  0
 30 28  2  0  0  0  0
 31 32  1  0  0  0  0
 31 33  1  0  0  0  0
 32 37  1  0  0  0  0
 32 33  1  0  0  0  0
 33 34  1  0  0  0  0
 34 35  1  0  0  0  0
 37 36  1  0  0  0  0
M  END
>  <MODEL>
7

>  <REMARK>
 VINA RESULT:      -6.8      2.230      3.183
  Name = 
  4 active torsions:
  status: ('A' for Active; 'I' for Inactive)
    1  A    between atoms: C_1  and  C_27
    2  A    between atoms: N_4  and  C_37
    3  A    between atoms: S_8  and  C_12
    4  A    between atoms: C_23  and  C_30
                            x       y       z     vdW  Elec       q    Type
                         _______ _______ _______ _____ _____    ______ ____

>  <TORSDO>
F 4

$$$$
=
 OpenBabel11122411423D

 37 44  0  0  1  0  0  0  0  0999 V2000
  189.7090  176.7910  142.2350 C   0  0  0  0  0  0  0  0  0  0  0  0
  188.3000  177.7460  138.8800 C   0  0  1  0  0  3  0  0  0  0  0  0
  185.2740  179.0600  138.7500 O   0  0  0  0  0  0  0  0  0  0  0  0
  190.5230  177.5890  140.2170 C   0  0  2  0  0  3  0  0  0  0  0  0
  186.9630  177.6040  139.5980 C   0  0  2  0  0  3  0  0  0  0  0  0
  189.2050  178.3220  139.9710 C   0  0  2  0  0  3  0  0  0  0  0  0
  185.7290  177.7350  138.7070 C   0  0  2  0  0  3  0  0  0  0  0  0
  191.1310  177.2020  138.8780 C   0  0  0  0  0  2  0  0  0  0  0  0
  188.3330  178.4050  141.2210 C   0  0  2  0  0  3  0  0  0  0  0  0
  190.4810  177.8230  143.0670 C   0  0  0  0  0  1  0  0  0  0  0  0
  188.0780  176.1540  137.0140 N   0  0  0  0  0  2  0  0  0  0  0  0
  190.2470  176.2180  138.1060 C   0  0  0  0  0  2  0  0  0  0  0  0
  188.3800  177.1960  141.9670 O   0  0  0  0  0  0  0  0  0  0  0  0
  183.8400  178.0530  140.3940 O   0  0  0  0  0  0  0  0  0  0  0  0
  184.1830  179.2060  139.6530 C   0  0  1  0  0  3  0  0  0  0  0  0
  188.7290  176.3830  138.3030 C   0  0  1  0  0  3  0  0  0  0  0  0
  186.9830  178.6000  140.6720 N   0  0  2  0  0  0  0  0  0  0  0  0
  190.3740  176.4490  141.0340 O   0  0  0  0  0  0  0  0  0  0  0  0
  185.9020  177.2400  137.2640 C   0  0  1  0  0  3  0  0  0  0  0  0
  189.6320  175.5350  143.0780 C   0  0  0  0  0  1  0  0  0  0  0  0
  184.5490  179.0430  141.1070 C   0  0  2  0  0  3  0  0  0  0  0  0
  185.8640  178.3930  141.6150 C   0  0  2  0  0  3  0  0  0  0  0  0
  186.6520  175.9080  137.2060 C   0  0  0  0  0  2  0  0  0  0  0  0
  184.4470  177.5710  135.2600 C   0  0  0  0  0  3  0  0  0  0  0  0
  184.5750  177.1240  136.5790 C   0  0  0  0  0  0  0  0  0  0  0  0
  183.4600  176.5850  137.2400 C   0  0  0  0  0  3  0  0  0  0  0  0
  181.1560  175.9750  137.2240 F   0  0  0  0  0  0  0  0  0  0  0  0
  182.1070  176.9430  135.2640 C   0  0  0  0  0  3  0  0  0  0  0  0
  182.2300  176.4960  136.5830 C   0  0  0  0  0  0  0  0  0  0  0  0
  183.2160  177.4800  134.6030 C   0  0  0  0  0  3  0  0  0  0  0  0
  186.1420  179.0420  142.9930 C   0  0  1  0  0  3  0  0  0  0  0  0
  184.9410  179.2480  143.8560 N   0  0  0  0  0  0  0  0  0  0  0  0
  185.8680  178.1390  144.1070 C   0  0  2  0  0  3  0  0  0  0  0  0
  186.9420  178.5650  145.5030 S   0  0  0  0  0  0  0  0  0  0  0  0
  185.5380  178.6140  146.6500 C   0  0  0  0  0  1  0  0  0  0  0  0
  182.5800  178.9090  144.3170 C   0  0  0  0  0  1  0  0  0  0  0  0
  183.7200  178.6180  143.3630 C   0  0  0  0  0  2  0  0  0  0  0  0
  1 10  1  0  0  0  0
  1 20  1  0  0  0  0
  2  5  1  0  0  0  0
  2  6  1  0  0  0  0
  3 15  1  0  0  0  0
  4 18  1  0  0  0  0
  5 17  1  0  0  0  0
  6  4  1  0  0  0  0
  6  9  1  0  0  0  0
  7  3  1  0  0  0  0
  7  5  1  0  0  0  0
  8  4  1  0  0  0  0
  9 13  1  0  0  0  0
 11 23  1  0  0  0  0
 11 16  1  0  0  0  0
 12 16  1  0  0  0  0
 12  8  1  0  0  0  0
 13  1  1  0  0  0  0
 14 21  1  0  0  0  0
 15 14  1  0  0  0  0
 15 21  1  0  0  0  0
 16  2  1  0  0  0  0
 17  9  1  0  0  0  0
 17 22  1  0  0  0  0
 18  1  1  0  0  0  0
 19  7  1  0  0  0  0
 21 22  1  0  0  0  0
 22 31  1  0  0  0  0
 23 19  1  0  0  0  0
 24 25  1  0  0  0  0
 25 26  2  0  0  0  0
 25 19  1  0  0  0  0
 28 29  2  0  0  0  0
 29 27  1  0  0  0  0
 29 26  1  0  0  0  0
 30 24  2  0  0  0  0
 30 28  1  0  0  0  0
 31 32  1  0  0  0  0
 31 33  1  0  0  0  0
 32 33  1  0  0  0  0
 33 34  1  0  0  0  0
 34 35  1  0  0  0  0
 37 32  1  0  0  0  0
 37 36  1  0  0  0  0
M  END
>  <MODEL>
8

>  <REMARK>
 VINA RESULT:      -6.1      2.721      4.484
  Name = 
  4 active torsions:
  status: ('A' for Active; 'I' for Inactive)
    1  A    between atoms: C_1  and  C_27
    2  A    between atoms: N_4  and  C_37
    3  A    between atoms: S_8  and  C_12
    4  A    between atoms: C_23  and  C_30
                            x       y       z     vdW  Elec       q    Type
                         _______ _______ _______ _____ _____    ______ ____

>  <TORSDO>
F 4

$$$$
=
 OpenBabel11122411423D

 37 44  0  0  1  0  0  0  0  0999 V2000
  183.0930  177.7170  140.9540 C   0  0  0  0  0  0  0  0  0  0  0  0
  186.6780  178.7770  141.3750 C   0  0  1  0  0  3  0  0  0  0  0  0
  188.5970  178.9670  138.6950 O   0  0  0  0  0  0  0  0  0  0  0  0
  184.2930  179.1320  142.3440 C   0  0  2  0  0  3  0  0  0  0  0  0
  186.8660  178.0440  140.0520 C   0  0  2  0  0  3  0  0  0  0  0  0
  185.2900  179.4000  141.2170 C   0  0  2  0  0  3  0  0  0  0  0  0
  188.3130  177.9160  139.5780 C   0  0  2  0  0  3  0  0  0  0  0  0
  185.0120  179.2520  143.6780 C   0  0  0  0  0  2  0  0  0  0  0  0
  184.7850  178.9270  139.8560 C   0  0  2  0  0  3  0  0  0  0  0  0
  182.0110  178.7650  140.6600 C   0  0  0  0  0  1  0  0  0  0  0  0
  188.2580  177.6120  142.8620 N   0  0  0  0  0  2  0  0  0  0  0  0
  186.1120  178.2000  143.8390 C   0  0  0  0  0  2  0  0  0  0  0  0
  184.1000  177.6850  139.9610 O   0  0  0  0  0  0  0  0  0  0  0  0
  188.0530  177.2220  137.1360 O   0  0  0  0  0  0  0  0  0  0  0  0
  188.5040  178.5450  137.3390 C   0  0  1  0  0  3  0  0  0  0  0  0
  186.8410  177.7890  142.5470 C   0  0  1  0  0  3  0  0  0  0  0  0
  186.0230  178.7500  139.0850 N   0  0  2  0  0  0  0  0  0  0  0  0
  183.6680  177.8720  142.2370 O   0  0  0  0  0  0  0  0  0  0  0  0
  189.3650  177.8090  140.6920 C   0  0  1  0  0  3  0  0  0  0  0  0
  182.4000  176.3710  140.9320 C   0  0  0  0  0  1  0  0  0  0  0  0
  187.1030  178.2330  136.8760 C   0  0  2  0  0  3  0  0  0  0  0  0
  185.8980  177.9870  137.8250 C   0  0  2  0  0  3  0  0  0  0  0  0
  188.9200  176.8570  141.8040 C   0  0  0  0  0  2  0  0  0  0  0  0
  191.8620  177.8570  140.7270 C   0  0  0  0  0  3  0  0  0  0  0  0
  190.6870  177.3830  140.1340 C   0  0  0  0  0  0  0  0  0  0  0  0
  190.7670  176.5260  139.0250 C   0  0  0  0  0  3  0  0  0  0  0  0
  192.0860  175.3220  137.4470 F   0  0  0  0  0  0  0  0  0  0  0  0
  193.1840  176.6250  139.1140 C   0  0  0  0  0  3  0  0  0  0  0  0
  192.0130  176.1490  138.5180 C   0  0  0  0  0  0  0  0  0  0  0  0
  193.1080  177.4780  140.2190 C   0  0  0  0  0  3  0  0  0  0  0  0
  184.6440  178.4040  137.0190 C   0  0  1  0  0  3  0  0  0  0  0  0
  184.2300  177.4530  135.9440 N   0  0  0  0  0  0  0  0  0  0  0  0
  183.5160  177.5010  137.2250 C   0  0  2  0  0  3  0  0  0  0  0  0
  181.9670  178.4160  137.0090 S   0  0  0  0  0  0  0  0  0  0  0  0
  181.8740  177.9700  135.2530 C   0  0  0  0  0  1  0  0  0  0  0  0
  185.5660  175.9390  134.5940 C   0  0  0  0  0  1  0  0  0  0  0  0
  184.9390  176.1770  135.9520 C   0  0  0  0  0  2  0  0  0  0  0  0
  1 18  1  0  0  0  0
  2 16  1  0  0  0  0
  3  7  1  0  0  0  0
  4  8  1  0  0  0  0
  5  2  1  0  0  0  0
  6  2  1  0  0  0  0
  6  4  1  0  0  0  0
  7  5  1  0  0  0  0
  7 19  1  0  0  0  0
  8 12  1  0  0  0  0
  9 13  1  0  0  0  0
  9  6  1  0  0  0  0
 10  1  1  0  0  0  0
 13  1  1  0  0  0  0
 14 15  1  0  0  0  0
 15  3  1  0  0  0  0
 16 11  1  0  0  0  0
 16 12  1  0  0  0  0
 17  9  1  0  0  0  0
 17  5  1  0  0  0  0
 18  4  1  0  0  0  0
 19 23  1  0  0  0  0
 20  1  1  0  0  0  0
 21 14  1  0  0  0  0
 21 15  1  0  0  0  0
 21 22  1  0  0  0  0
 22 17  1  0  0  0  0
 23 11  1  0  0  0  0
 25 19  1  0  0  0  0
 25 24  2  0  0  0  0
 26 25  1  0  0  0  0
 27 29  1  0  0  0  0
 28 30  2  0  0  0  0
 29 26  2  0  0  0  0
 29 28  1  0  0  0  0
 30 24  1  0  0  0  0
 31 33  1  0  0  0  0
 31 22  1  0  0  0  0
 32 37  1  0  0  0  0
 32 31  1  0  0  0  0
 32 33  1  0  0  0  0
 34 33  1  0  0  0  0
 35 34  1  0  0  0  0
 36 37  1  0  0  0  0
M  END
>  <MODEL>
9

>  <REMARK>
 VINA RESULT:      -5.9      3.235      8.094
  Name = 
  4 active torsions:
  status: ('A' for Active; 'I' for Inactive)
    1  A    between atoms: C_1  and  C_27
    2  A    between atoms: N_4  and  C_37
    3  A    between atoms: S_8  and  C_12
    4  A    between atoms: C_23  and  C_30
                            x       y       z     vdW  Elec       q    Type
                         _______ _______ _______ _____ _____    ______ ____

>  <TORSDO>
F 4

$$$$
