=
 OpenBabel11122410263D

 30 35  0  0  1  0  0  0  0  0999 V2000
  185.8970  178.3610  141.9900 C   0  0  0  0  0  0  0  0  0  0  0  0
  183.4760  178.9410  142.3590 C   0  0  0  0  0  0  0  0  0  0  0  0
  186.4240  177.6990  146.1120 N   0  0  0  0  0  2  0  0  0  0  0  0
  187.1560  177.9720  142.5420 C   0  0  0  0  0  0  0  0  0  0  0  0
  185.8040  178.5370  140.6030 C   0  0  0  0  0  3  0  0  0  0  0  0
  189.2290  177.8150  139.4600 O   0  0  0  0  0  1  0  0  0  0  0  0
  190.1280  178.4330  143.3200 C   0  0  1  0  0  3  0  0  0  0  0  0
  188.1360  177.9890  140.3050 C   0  0  0  0  0  0  0  0  0  0  0  0
  189.5340  178.2600  144.6670 N   0  0  2  0  0  0  0  0  0  0  0  0
  187.7840  177.2870  146.1020 C   0  0  0  0  0  0  0  0  0  0  0  0
  186.9040  178.3570  139.7600 C   0  0  0  0  0  0  0  0  0  0  0  0
  188.2780  177.8020  141.6910 C   0  0  0  0  0  0  0  0  0  0  0  0
  182.4120  179.1150  143.2480 C   0  0  0  0  0  3  0  0  0  0  0  0
  190.6310  177.7840  145.5050 C   0  0  0  0  0  2  0  0  0  0  0  0
  191.6390  178.3840  143.4430 C   0  0  0  0  0  2  0  0  0  0  0  0
  183.2260  179.1550  141.0080 O   0  0  0  0  0  1  0  0  0  0  0  0
  186.1510  177.9800  144.7490 C   0  0  0  0  0  0  0  0  0  0  0  0
  182.5860  178.9200  144.6150 C   0  0  0  0  0  3  0  0  0  0  0  0
  184.7620  178.5600  142.8410 C   0  0  0  0  0  0  0  0  0  0  0  0
  187.2440  177.7880  143.9320 C   0  0  0  0  0  0  0  0  0  0  0  0
  188.3730  176.9010  147.1460 O   0  0  0  0  0  0  0  0  0  0  0  0
  188.4160  177.3030  144.7340 C   0  0  1  0  0  3  0  0  0  0  0  0
  191.9100  178.3260  144.9200 C   0  0  0  0  0  2  0  0  0  0  0  0
  189.8450  175.9910  142.4980 C   0  0  0  0  0  1  0  0  0  0  0  0
  183.8300  178.5440  145.1110 C   0  0  0  0  0  3  0  0  0  0  0  0
  184.9110  178.3600  144.2430 C   0  0  0  0  0  0  0  0  0  0  0  0
  189.6510  177.4750  142.2100 C   0  0  2  0  0  3  0  0  0  0  0  0
  186.7980  178.5530  138.3800 O   0  0  0  0  0  0  0  0  0  0  0  0
  186.7300  176.5020  137.1470 C   0  0  0  0  0  1  0  0  0  0  0  0
  185.9730  177.7510  137.5470 C   0  0  0  0  0  2  0  0  0  0  0  0
  1  4  1  0  0  0  0
  1 19  1  0  0  0  0
  2 19  2  0  0  0  0
  2 13  1  0  0  0  0
  4 20  1  0  0  0  0
  5  1  2  0  0  0  0
  6  8  1  0  0  0  0
  7 15  1  1  0  0  0
  7  9  1  0  0  0  0
  8 12  1  0  0  0  0
  9 22  1  0  0  0  0
  9 14  1  1  0  0  0
 10  3  1  0  0  0  0
 10 21  2  0  0  0  0
 11  8  2  0  0  0  0
 11  5  1  0  0  0  0
 12 27  1  0  0  0  0
 12  4  2  0  0  0  0
 13 18  2  0  0  0  0
 15 23  1  0  0  0  0
 16  2  1  0  0  0  0
 17  3  1  0  0  0  0
 18 25  1  0  0  0  0
 19 26  1  0  0  0  0
 20 17  2  0  0  0  0
 22 20  1  6  0  0  0
 22 10  1  0  0  0  0
 23 14  1  0  0  0  0
 26 17  1  0  0  0  0
 26 25  2  0  0  0  0
 27 24  1  1  0  0  0
 27  7  1  0  0  0  0
 28 11  1  0  0  0  0
 29 30  1  0  0  0  0
 30 28  1  0  0  0  0
M  END
>  <MODEL>
1

>  <REMARK>
 VINA RESULT:     -10.0      0.000      0.000
  Name = 
  2 active torsions:
  status: ('A' for Active; 'I' for Inactive)
    1  A    between atoms: C_11  and  O_28
    2  A    between atoms: O_28  and  C_30
                            x       y       z     vdW  Elec       q    Type
                         _______ _______ _______ _____ _____    ______ ____

>  <TORSDO>
F 2

$$$$
=
 OpenBabel11122410263D

 30 35  0  0  1  0  0  0  0  0999 V2000
  186.2830  178.3620  142.7110 C   0  0  0  0  0  0  0  0  0  0  0  0
  187.0540  178.2000  145.1010 C   0  0  0  0  0  0  0  0  0  0  0  0
  182.2990  178.8550  143.9710 N   0  0  0  0  0  2  0  0  0  0  0  0
  185.2080  178.5200  141.7840 C   0  0  0  0  0  0  0  0  0  0  0  0
  187.5830  178.2270  142.2050 C   0  0  0  0  0  3  0  0  0  0  0  0
  187.0590  178.3700  138.5640 O   0  0  0  0  0  1  0  0  0  0  0  0
  183.2640  177.5430  139.5670 C   0  0  1  0  0  3  0  0  0  0  0  0
  186.7910  178.3720  139.9300 C   0  0  0  0  0  0  0  0  0  0  0  0
  182.2980  177.7930  140.6620 N   0  0  2  0  0  0  0  0  0  0  0  0
  181.6820  179.0280  142.7030 C   0  0  0  0  0  0  0  0  0  0  0  0
  187.8460  178.2300  140.8330 C   0  0  0  0  0  0  0  0  0  0  0  0
  185.4690  178.5090  140.3910 C   0  0  0  0  0  0  0  0  0  0  0  0
  186.7340  178.1960  146.4620 C   0  0  0  0  0  3  0  0  0  0  0  0
  181.0290  178.0600  139.9920 C   0  0  0  0  0  2  0  0  0  0  0  0
  182.4940  177.3300  138.2770 C   0  0  0  0  0  2  0  0  0  0  0  0
  188.3930  178.0540  144.7560 O   0  0  0  0  0  1  0  0  0  0  0  0
  183.6650  178.6480  143.6510 C   0  0  0  0  0  0  0  0  0  0  0  0
  185.4150  178.3360  146.8840 C   0  0  0  0  0  3  0  0  0  0  0  0
  186.0300  178.3460  144.1210 C   0  0  0  0  0  0  0  0  0  0  0  0
  183.9070  178.6630  142.2940 C   0  0  0  0  0  0  0  0  0  0  0  0
  180.4550  179.2900  142.5860 O   0  0  0  0  0  0  0  0  0  0  0  0
  182.6360  178.9270  141.5410 C   0  0  1  0  0  3  0  0  0  0  0  0
  181.0480  177.3170  138.6820 C   0  0  0  0  0  2  0  0  0  0  0  0
  183.9030  180.0110  139.0950 C   0  0  0  0  0  1  0  0  0  0  0  0
  184.3970  178.4850  145.9480 C   0  0  0  0  0  3  0  0  0  0  0  0
  184.6910  178.4940  144.5800 C   0  0  0  0  0  0  0  0  0  0  0  0
  184.3800  178.5860  139.3570 C   0  0  2  0  0  3  0  0  0  0  0  0
  189.1480  178.0780  140.3450 O   0  0  0  0  0  0  0  0  0  0  0  0
  191.1830  177.3770  141.3910 C   0  0  0  0  0  1  0  0  0  0  0  0
  189.9510  176.9410  140.6270 C   0  0  0  0  0  2  0  0  0  0  0  0
  1 19  1  0  0  0  0
  2 13  1  0  0  0  0
  4 20  1  0  0  0  0
  4  1  2  0  0  0  0
  5  1  1  0  0  0  0
  6  8  1  0  0  0  0
  7 15  1  6  0  0  0
  7  9  1  0  0  0  0
  8 12  2  0  0  0  0
  8 11  1  0  0  0  0
  9 14  1  6  0  0  0
  9 22  1  0  0  0  0
 10  3  1  0  0  0  0
 11  5  2  0  0  0  0
 12  4  1  0  0  0  0
 13 18  2  0  0  0  0
 15 23  1  0  0  0  0
 16  2  1  0  0  0  0
 17  3  1  0  0  0  0
 17 26  1  0  0  0  0
 19 26  1  0  0  0  0
 19  2  2  0  0  0  0
 20 17  2  0  0  0  0
 21 10  2  0  0  0  0
 22 20  1  1  0  0  0
 22 10  1  0  0  0  0
 23 14  1  0  0  0  0
 25 18  1  0  0  0  0
 26 25  2  0  0  0  0
 27 24  1  1  0  0  0
 27  7  1  0  0  0  0
 27 12  1  0  0  0  0
 28 30  1  0  0  0  0
 28 11  1  0  0  0  0
 30 29  1  0  0  0  0
M  END
>  <MODEL>
2

>  <REMARK>
 VINA RESULT:      -9.4      2.434      5.976
  Name = 
  2 active torsions:
  status: ('A' for Active; 'I' for Inactive)
    1  A    between atoms: C_11  and  O_28
    2  A    between atoms: O_28  and  C_30
                            x       y       z     vdW  Elec       q    Type
                         _______ _______ _______ _____ _____    ______ ____

>  <TORSDO>
F 2

$$$$
=
 OpenBabel11122410263D

 30 35  0  0  1  0  0  0  0  0999 V2000
  189.3520  177.2240  143.6120 C   0  0  0  0  0  0  0  0  0  0  0  0
  191.2740  176.2650  144.9210 C   0  0  0  0  0  0  0  0  0  0  0  0
  187.3360  178.1930  147.1760 N   0  0  0  0  0  2  0  0  0  0  0  0
  188.0680  177.8500  143.6110 C   0  0  0  0  0  0  0  0  0  0  0  0
  189.9620  176.9580  142.3790 C   0  0  0  0  0  3  0  0  0  0  0  0
  187.4750  178.1840  139.9570 O   0  0  0  0  0  1  0  0  0  0  0  0
  185.0040  177.9430  143.1080 C   0  0  1  0  0  3  0  0  0  0  0  0
  188.0850  177.8750  141.1700 C   0  0  0  0  0  0  0  0  0  0  0  0
  185.0250  178.0870  144.5830 N   0  0  2  0  0  0  0  0  0  0  0  0
  186.1920  178.8290  146.6220 C   0  0  0  0  0  0  0  0  0  0  0  0
  189.3450  177.2740  141.1650 C   0  0  0  0  0  0  0  0  0  0  0  0
  187.4330  178.1600  142.3820 C   0  0  0  0  0  0  0  0  0  0  0  0
  191.8410  175.9620  146.1620 C   0  0  0  0  0  3  0  0  0  0  0  0
  183.7870  178.7880  144.9110 C   0  0  0  0  0  2  0  0  0  0  0  0
  183.6060  178.2540  142.6080 C   0  0  0  0  0  2  0  0  0  0  0  0
  192.0050  175.9360  143.7840 O   0  0  0  0  0  1  0  0  0  0  0  0
  188.0810  177.7950  146.0360 C   0  0  0  0  0  0  0  0  0  0  0  0
  191.1700  176.2600  147.3440 C   0  0  0  0  0  3  0  0  0  0  0  0
  189.9930  176.8830  144.8460 C   0  0  0  0  0  0  0  0  0  0  0  0
  187.4620  178.1240  144.8490 C   0  0  0  0  0  0  0  0  0  0  0  0
  185.3110  179.3660  147.3430 O   0  0  0  0  0  0  0  0  0  0  0  0
  186.1720  178.8440  145.1150 C   0  0  1  0  0  3  0  0  0  0  0  0
  182.7780  178.4390  143.8480 C   0  0  0  0  0  2  0  0  0  0  0  0
  186.0220  180.2520  142.5160 C   0  0  0  0  0  1  0  0  0  0  0  0
  189.9190  176.8680  147.2990 C   0  0  0  0  0  3  0  0  0  0  0  0
  189.3310  177.1830  146.0700 C   0  0  0  0  0  0  0  0  0  0  0  0
  186.0480  178.7430  142.3040 C   0  0  2  0  0  3  0  0  0  0  0  0
  189.9620  176.9870  139.9430 O   0  0  0  0  0  0  0  0  0  0  0  0
  191.7520  176.3780  138.4750 C   0  0  0  0  0  1  0  0  0  0  0  0
  191.3590  177.1290  139.7310 C   0  0  0  0  0  2  0  0  0  0  0  0
  1 19  1  0  0  0  0
  2 13  1  0  0  0  0
  4  1  1  0  0  0  0
  4 20  1  0  0  0  0
  5  1  2  0  0  0  0
  6  8  1  0  0  0  0
  7 15  1  6  0  0  0
  7  9  1  0  0  0  0
  8 12  1  0  0  0  0
  9 14  1  6  0  0  0
  9 22  1  0  0  0  0
 10  3  1  0  0  0  0
 10 21  2  0  0  0  0
 11  8  2  0  0  0  0
 11  5  1  0  0  0  0
 12  4  2  0  0  0  0
 13 18  2  0  0  0  0
 15 23  1  0  0  0  0
 16  2  1  0  0  0  0
 17 26  1  0  0  0  0
 17  3  1  0  0  0  0
 19  2  2  0  0  0  0
 19 26  1  0  0  0  0
 20 17  2  0  0  0  0
 22 20  1  6  0  0  0
 22 10  1  0  0  0  0
 23 14  1  0  0  0  0
 25 18  1  0  0  0  0
 26 25  2  0  0  0  0
 27 12  1  0  0  0  0
 27 24  1  1  0  0  0
 27  7  1  0  0  0  0
 28 11  1  0  0  0  0
 29 30  1  0  0  0  0
 30 28  1  0  0  0  0
M  END
>  <MODEL>
3

>  <REMARK>
 VINA RESULT:      -9.3      2.024      5.565
  Name = 
  2 active torsions:
  status: ('A' for Active; 'I' for Inactive)
    1  A    between atoms: C_11  and  O_28
    2  A    between atoms: O_28  and  C_30
                            x       y       z     vdW  Elec       q    Type
                         _______ _______ _______ _____ _____    ______ ____

>  <TORSDO>
F 2

$$$$
=
 OpenBabel11122410263D

 30 35  0  0  1  0  0  0  0  0999 V2000
  188.0430  177.7250  142.7570 C   0  0  0  0  0  0  0  0  0  0  0  0
  187.0110  177.8790  145.0470 C   0  0  0  0  0  0  0  0  0  0  0  0
  184.4590  179.0490  140.9930 N   0  0  0  0  0  2  0  0  0  0  0  0
  187.9040  177.8780  141.3440 C   0  0  0  0  0  0  0  0  0  0  0  0
  189.2790  177.3010  143.2620 C   0  0  0  0  0  3  0  0  0  0  0  0
  191.2960  176.8650  140.2130 O   0  0  0  0  0  1  0  0  0  0  0  0
  187.7050  176.8310  138.4260 C   0  0  1  0  0  3  0  0  0  0  0  0
  190.2160  177.1550  141.0420 C   0  0  0  0  0  0  0  0  0  0  0  0
  186.3540  177.4210  138.5780 N   0  0  2  0  0  0  0  0  0  0  0  0
  184.8760  179.0840  139.6360 C   0  0  0  0  0  0  0  0  0  0  0  0
  190.3610  177.0160  142.4240 C   0  0  0  0  0  0  0  0  0  0  0  0
  188.9940  177.5760  140.4900 C   0  0  0  0  0  0  0  0  0  0  0  0
  185.8960  178.1700  145.8380 C   0  0  0  0  0  3  0  0  0  0  0  0
  185.9340  177.7570  137.2210 C   0  0  0  0  0  2  0  0  0  0  0  0
  187.9350  176.5110  136.9610 C   0  0  0  0  0  2  0  0  0  0  0  0
  188.1700  177.4680  145.6980 O   0  0  0  0  0  1  0  0  0  0  0  0
  185.6060  178.5780  141.6820 C   0  0  0  0  0  0  0  0  0  0  0  0
  184.7010  178.5870  145.2590 C   0  0  0  0  0  3  0  0  0  0  0  0
  186.9410  178.0030  143.6300 C   0  0  0  0  0  0  0  0  0  0  0  0
  186.6650  178.3110  140.8410 C   0  0  0  0  0  0  0  0  0  0  0  0
  184.1260  179.5080  138.7160 O   0  0  0  0  0  0  0  0  0  0  0  0
  186.2960  178.6280  139.4220 C   0  0  1  0  0  3  0  0  0  0  0  0
  186.6220  176.7950  136.2870 C   0  0  0  0  0  2  0  0  0  0  0  0
  189.0560  179.0440  138.4330 C   0  0  0  0  0  1  0  0  0  0  0  0
  184.6070  178.7200  143.8770 C   0  0  0  0  0  3  0  0  0  0  0  0
  185.7090  178.4380  143.0630 C   0  0  0  0  0  0  0  0  0  0  0  0
  188.8940  177.6330  138.9900 C   0  0  2  0  0  3  0  0  0  0  0  0
  191.5830  176.5790  142.9430 O   0  0  0  0  0  0  0  0  0  0  0  0
  191.6800  176.3770  145.3260 C   0  0  0  0  0  1  0  0  0  0  0  0
  191.6800  175.6390  144.0040 C   0  0  0  0  0  2  0  0  0  0  0  0
  1  5  1  0  0  0  0
  1 19  1  0  0  0  0
  2 16  1  0  0  0  0
  2 13  1  0  0  0  0
  3 17  1  0  0  0  0
  4  1  2  0  0  0  0
  6  8  1  0  0  0  0
  7 15  1  6  0  0  0
  7  9  1  0  0  0  0
  7 27  1  0  0  0  0
  8 11  1  0  0  0  0
  9 14  1  6  0  0  0
  9 22  1  0  0  0  0
 10  3  1  0  0  0  0
 11 28  1  0  0  0  0
 11  5  2  0  0  0  0
 12  8  2  0  0  0  0
 12  4  1  0  0  0  0
 17 26  1  0  0  0  0
 18 13  2  0  0  0  0
 19  2  2  0  0  0  0
 20  4  1  0  0  0  0
 20 17  2  0  0  0  0
 21 10  2  0  0  0  0
 22 10  1  1  0  0  0
 22 20  1  0  0  0  0
 23 15  1  0  0  0  0
 23 14  1  0  0  0  0
 25 18  1  0  0  0  0
 26 19  1  0  0  0  0
 26 25  2  0  0  0  0
 27 24  1  1  0  0  0
 27 12  1  0  0  0  0
 28 30  1  0  0  0  0
 30 29  1  0  0  0  0
M  END
>  <MODEL>
4

>  <REMARK>
 VINA RESULT:      -8.8      2.232      5.754
  Name = 
  2 active torsions:
  status: ('A' for Active; 'I' for Inactive)
    1  A    between atoms: C_11  and  O_28
    2  A    between atoms: O_28  and  C_30
                            x       y       z     vdW  Elec       q    Type
                         _______ _______ _______ _____ _____    ______ ____

>  <TORSDO>
F 2

$$$$
=
 OpenBabel11122410263D

 30 35  0  0  1  0  0  0  0  0999 V2000
  186.3530  178.0540  144.7030 C   0  0  0  0  0  0  0  0  0  0  0  0
  183.8930  178.4520  145.0520 C   0  0  0  0  0  0  0  0  0  0  0  0
  185.9560  178.8560  140.5910 N   0  0  0  0  0  2  0  0  0  0  0  0
  187.4640  177.9980  143.8080 C   0  0  0  0  0  0  0  0  0  0  0  0
  186.5790  177.7950  146.0610 C   0  0  0  0  0  3  0  0  0  0  0  0
  190.1900  177.0830  146.1650 O   0  0  0  0  0  1  0  0  0  0  0  0
  189.7020  176.5410  142.2200 C   0  0  1  0  0  3  0  0  0  0  0  0
  188.9290  177.4080  145.6710 C   0  0  0  0  0  0  0  0  0  0  0  0
  188.8790  177.0470  141.0960 N   0  0  2  0  0  0  0  0  0  0  0  0
  187.3170  178.7320  140.2050 C   0  0  0  0  0  0  0  0  0  0  0  0
  187.8480  177.4740  146.5510 C   0  0  0  0  0  0  0  0  0  0  0  0
  188.7500  177.6580  144.2990 C   0  0  0  0  0  0  0  0  0  0  0  0
  182.6450  178.7700  144.5080 C   0  0  0  0  0  3  0  0  0  0  0  0
  189.8040  177.1590  139.9720 C   0  0  0  0  0  2  0  0  0  0  0  0
  191.0230  176.0370  141.6690 C   0  0  0  0  0  2  0  0  0  0  0  0
  183.9560  178.2200  146.4220 O   0  0  0  0  0  1  0  0  0  0  0  0
  185.9760  178.5710  141.9810 C   0  0  0  0  0  0  0  0  0  0  0  0
  182.5030  179.0140  143.1450 C   0  0  0  0  0  3  0  0  0  0  0  0
  185.0430  178.3710  144.2160 C   0  0  0  0  0  0  0  0  0  0  0  0
  187.2360  178.2650  142.4480 C   0  0  0  0  0  0  0  0  0  0  0  0
  187.7030  178.9670  139.0290 O   0  0  0  0  0  0  0  0  0  0  0  0
  188.2400  178.3540  141.3350 C   0  0  1  0  0  3  0  0  0  0  0  0
  190.8840  176.1290  140.1760 C   0  0  0  0  0  2  0  0  0  0  0  0
  190.6090  178.8250  143.0460 C   0  0  0  0  0  1  0  0  0  0  0  0
  183.6110  178.9460  142.3070 C   0  0  0  0  0  3  0  0  0  0  0  0
  184.8720  178.6320  142.8270 C   0  0  0  0  0  0  0  0  0  0  0  0
  189.9480  177.4980  143.4030 C   0  0  2  0  0  3  0  0  0  0  0  0
  188.0530  177.2030  147.9080 O   0  0  0  0  0  0  0  0  0  0  0  0
  189.6680  178.5430  149.0600 C   0  0  0  0  0  1  0  0  0  0  0  0
  188.1980  178.2230  148.8860 C   0  0  0  0  0  2  0  0  0  0  0  0
  1  5  1  0  0  0  0
  2 16  1  0  0  0  0
  3 17  1  0  0  0  0
  4 12  1  0  0  0  0
  4  1  2  0  0  0  0
  5 11  2  0  0  0  0
  7 15  1  6  0  0  0
  7 27  1  0  0  0  0
  8  6  1  0  0  0  0
  8 11  1  0  0  0  0
  9 14  1  6  0  0  0
  9 22  1  0  0  0  0
  9  7  1  0  0  0  0
 10  3  1  0  0  0  0
 11 28  1  0  0  0  0
 12  8  2  0  0  0  0
 13  2  1  0  0  0  0
 14 23  1  0  0  0  0
 17 20  2  0  0  0  0
 17 26  1  0  0  0  0
 18 13  2  0  0  0  0
 19  1  1  0  0  0  0
 19  2  2  0  0  0  0
 20  4  1  0  0  0  0
 21 10  2  0  0  0  0
 22 10  1  6  0  0  0
 22 20  1  0  0  0  0
 23 15  1  0  0  0  0
 25 26  2  0  0  0  0
 25 18  1  0  0  0  0
 26 19  1  0  0  0  0
 27 24  1  6  0  0  0
 27 12  1  0  0  0  0
 28 30  1  0  0  0  0
 30 29  1  0  0  0  0
M  END
>  <MODEL>
5

>  <REMARK>
 VINA RESULT:      -8.7      1.980      5.387
  Name = 
  2 active torsions:
  status: ('A' for Active; 'I' for Inactive)
    1  A    between atoms: C_11  and  O_28
    2  A    between atoms: O_28  and  C_30
                            x       y       z     vdW  Elec       q    Type
                         _______ _______ _______ _____ _____    ______ ____

>  <TORSDO>
F 2

$$$$
=
 OpenBabel11122410263D

 30 35  0  0  1  0  0  0  0  0999 V2000
  187.1870  178.2150  140.4790 C   0  0  0  0  0  0  0  0  0  0  0  0
  184.9310  179.0010  139.6900 C   0  0  0  0  0  0  0  0  0  0  0  0
  185.7730  177.9500  144.4330 N   0  0  0  0  0  2  0  0  0  0  0  0
  188.0240  177.7960  141.5580 C   0  0  0  0  0  0  0  0  0  0  0  0
  187.7340  178.2520  139.1890 C   0  0  0  0  0  3  0  0  0  0  0  0
  191.2090  177.1720  139.7460 O   0  0  0  0  0  1  0  0  0  0  0  0
  190.3820  178.1220  143.5540 C   0  0  1  0  0  3  0  0  0  0  0  0
  189.8830  177.5110  140.0000 C   0  0  0  0  0  0  0  0  0  0  0  0
  189.2420  178.1330  144.5010 N   0  0  2  0  0  0  0  0  0  0  0  0
  186.9440  177.4420  145.0580 C   0  0  0  0  0  0  0  0  0  0  0  0
  189.0650  177.9070  138.9410 C   0  0  0  0  0  0  0  0  0  0  0  0
  189.3790  177.4590  141.3120 C   0  0  0  0  0  0  0  0  0  0  0  0
  183.6110  179.3430  139.9960 C   0  0  0  0  0  3  0  0  0  0  0  0
  189.7990  177.6690  145.7680 C   0  0  0  0  0  2  0  0  0  0  0  0
  191.6700  177.9780  144.3430 C   0  0  0  0  0  2  0  0  0  0  0  0
  185.3260  179.0910  138.3590 O   0  0  0  0  0  1  0  0  0  0  0  0
  186.1590  178.1060  143.0770 C   0  0  0  0  0  0  0  0  0  0  0  0
  183.1440  179.2790  141.3050 C   0  0  0  0  0  3  0  0  0  0  0  0
  185.8230  178.5820  140.7180 C   0  0  0  0  0  0  0  0  0  0  0  0
  187.4710  177.7520  142.8490 C   0  0  0  0  0  0  0  0  0  0  0  0
  186.9680  177.1250  146.2770 O   0  0  0  0  0  0  0  0  0  0  0  0
  188.1100  177.2710  144.1190 C   0  0  1  0  0  3  0  0  0  0  0  0
  191.2560  178.0550  145.7860 C   0  0  0  0  0  2  0  0  0  0  0  0
  190.2220  175.6340  142.8440 C   0  0  0  0  0  1  0  0  0  0  0  0
  183.9930  178.8690  142.3280 C   0  0  0  0  0  3  0  0  0  0  0  0
  185.3180  178.5190  142.0480 C   0  0  0  0  0  0  0  0  0  0  0  0
  190.3400  177.0910  142.4090 C   0  0  2  0  0  3  0  0  0  0  0  0
  189.5990  177.9650  137.6490 O   0  0  0  0  0  0  0  0  0  0  0  0
  189.1210  175.7590  136.8530 C   0  0  0  0  0  1  0  0  0  0  0  0
  189.0540  177.2420  136.5550 C   0  0  0  0  0  2  0  0  0  0  0  0
  1 19  2  0  0  0  0
  1  4  1  0  0  0  0
  2 13  2  0  0  0  0
  2 19  1  0  0  0  0
  3 10  1  0  0  0  0
  4 20  2  0  0  0  0
  5  1  1  0  0  0  0
  6  8  1  0  0  0  0
  7 15  1  1  0  0  0
  7  9  1  0  0  0  0
  8 12  2  0  0  0  0
  9 14  1  1  0  0  0
 10 21  2  0  0  0  0
 11  5  2  0  0  0  0
 11  8  1  0  0  0  0
 12  4  1  0  0  0  0
 12 27  1  0  0  0  0
 13 18  1  0  0  0  0
 14 23  1  0  0  0  0
 15 23  1  0  0  0  0
 16  2  1  0  0  0  0
 17  3  1  0  0  0  0
 18 25  2  0  0  0  0
 19 26  1  0  0  0  0
 20 17  1  0  0  0  0
 22 20  1  6  0  0  0
 22  9  1  0  0  0  0
 22 10  1  0  0  0  0
 26 25  1  0  0  0  0
 26 17  2  0  0  0  0
 27 24  1  1  0  0  0
 27  7  1  0  0  0  0
 28 11  1  0  0  0  0
 30 29  1  0  0  0  0
 30 28  1  0  0  0  0
M  END
>  <MODEL>
6

>  <REMARK>
 VINA RESULT:      -8.7      1.512      2.095
  Name = 
  2 active torsions:
  status: ('A' for Active; 'I' for Inactive)
    1  A    between atoms: C_11  and  O_28
    2  A    between atoms: O_28  and  C_30
                            x       y       z     vdW  Elec       q    Type
                         _______ _______ _______ _____ _____    ______ ____

>  <TORSDO>
F 2

$$$$
=
 OpenBabel11122410263D

 30 35  0  0  1  0  0  0  0  0999 V2000
  187.2960  178.1280  141.8520 C   0  0  0  0  0  0  0  0  0  0  0  0
  186.3500  178.3400  144.1740 C   0  0  0  0  0  0  0  0  0  0  0  0
  183.5120  178.8990  140.1800 N   0  0  0  0  0  2  0  0  0  0  0  0
  187.0810  178.1550  140.4400 C   0  0  0  0  0  0  0  0  0  0  0  0
  188.5930  177.8860  142.3230 C   0  0  0  0  0  3  0  0  0  0  0  0
  190.5180  177.4460  139.2160 O   0  0  0  0  0  1  0  0  0  0  0  0
  186.8840  176.8700  137.6190 C   0  0  1  0  0  3  0  0  0  0  0  0
  189.4470  177.6760  140.0760 C   0  0  0  0  0  0  0  0  0  0  0  0
  185.4810  177.3140  137.7960 N   0  0  2  0  0  0  0  0  0  0  0  0
  183.8650  178.8770  138.8040 C   0  0  0  0  0  0  0  0  0  0  0  0
  189.6640  177.6610  141.4540 C   0  0  0  0  0  0  0  0  0  0  0  0
  188.1620  177.9130  139.5560 C   0  0  0  0  0  0  0  0  0  0  0  0
  185.2420  178.5630  144.9970 C   0  0  0  0  0  3  0  0  0  0  0  0
  184.9680  177.4950  136.4410 C   0  0  0  0  0  2  0  0  0  0  0  0
  187.0880  176.4670  136.1710 C   0  0  0  0  0  2  0  0  0  0  0  0
  187.5740  178.1130  144.7930 O   0  0  0  0  0  1  0  0  0  0  0  0
  184.7340  178.6150  140.8430 C   0  0  0  0  0  0  0  0  0  0  0  0
  183.9840  178.7970  144.4500 C   0  0  0  0  0  3  0  0  0  0  0  0
  186.2060  178.3460  142.7570 C   0  0  0  0  0  0  0  0  0  0  0  0
  185.7810  178.4050  139.9710 C   0  0  0  0  0  0  0  0  0  0  0  0
  183.0330  179.1410  137.8960 O   0  0  0  0  0  0  0  0  0  0  0  0
  185.3180  178.5690  138.5530 C   0  0  1  0  0  3  0  0  0  0  0  0
  185.7240  176.5480  135.5450 C   0  0  0  0  0  2  0  0  0  0  0  0
  187.9670  179.2150  137.4000 C   0  0  0  0  0  1  0  0  0  0  0  0
  183.8170  178.8120  143.0690 C   0  0  0  0  0  3  0  0  0  0  0  0
  184.9100  178.5940  142.2240 C   0  0  0  0  0  0  0  0  0  0  0  0
  187.9940  177.8430  138.0630 C   0  0  2  0  0  3  0  0  0  0  0  0
  190.9500  177.4050  141.9410 O   0  0  0  0  0  0  0  0  0  0  0  0
  191.6010  178.5970  143.9130 C   0  0  0  0  0  1  0  0  0  0  0  0
  191.2360  177.2510  143.3240 C   0  0  0  0  0  2  0  0  0  0  0  0
  1  5  1  0  0  0  0
  1 19  1  0  0  0  0
  2 16  1  0  0  0  0
  2 13  1  0  0  0  0
  3 17  1  0  0  0  0
  4  1  2  0  0  0  0
  6  8  1  0  0  0  0
  7 15  1  6  0  0  0
  7  9  1  0  0  0  0
  7 27  1  0  0  0  0
  8 11  1  0  0  0  0
  9 14  1  6  0  0  0
  9 22  1  0  0  0  0
 10  3  1  0  0  0  0
 11 28  1  0  0  0  0
 11  5  2  0  0  0  0
 12  8  2  0  0  0  0
 12  4  1  0  0  0  0
 17 26  1  0  0  0  0
 18 13  2  0  0  0  0
 19  2  2  0  0  0  0
 20  4  1  0  0  0  0
 20 17  2  0  0  0  0
 21 10  2  0  0  0  0
 22 10  1  1  0  0  0
 22 20  1  0  0  0  0
 23 15  1  0  0  0  0
 23 14  1  0  0  0  0
 25 18  1  0  0  0  0
 26 19  1  0  0  0  0
 26 25  2  0  0  0  0
 27 24  1  1  0  0  0
 27 12  1  0  0  0  0
 28 30  1  0  0  0  0
 30 29  1  0  0  0  0
M  END
>  <MODEL>
7

>  <REMARK>
 VINA RESULT:      -8.0      2.426      6.014
  Name = 
  2 active torsions:
  status: ('A' for Active; 'I' for Inactive)
    1  A    between atoms: C_11  and  O_28
    2  A    between atoms: O_28  and  C_30
                            x       y       z     vdW  Elec       q    Type
                         _______ _______ _______ _____ _____    ______ ____

>  <TORSDO>
F 2

$$$$
=
 OpenBabel11122410263D

 30 35  0  0  1  0  0  0  0  0999 V2000
  186.5020  178.2600  141.6830 C   0  0  0  0  0  0  0  0  0  0  0  0
  185.1650  178.5260  139.5680 C   0  0  0  0  0  0  0  0  0  0  0  0
  190.0200  177.6710  139.4510 N   0  0  0  0  0  2  0  0  0  0  0  0
  187.7650  178.0220  142.3060 C   0  0  0  0  0  0  0  0  0  0  0  0
  185.3850  178.4700  142.5030 C   0  0  0  0  0  3  0  0  0  0  0  0
  186.7910  178.1560  145.8910 O   0  0  0  0  0  1  0  0  0  0  0  0
  189.7970  176.3430  143.9500 C   0  0  1  0  0  3  0  0  0  0  0  0
  186.7090  178.1910  144.5010 C   0  0  0  0  0  0  0  0  0  0  0  0
  190.4990  176.3880  142.6450 N   0  0  2  0  0  0  0  0  0  0  0  0
  190.9480  177.5530  140.5200 C   0  0  0  0  0  0  0  0  0  0  0  0
  185.4750  178.4370  143.8970 C   0  0  0  0  0  0  0  0  0  0  0  0
  187.8580  177.9740  143.7200 C   0  0  0  0  0  0  0  0  0  0  0  0
  185.1300  178.5390  138.1710 C   0  0  0  0  0  3  0  0  0  0  0  0
  191.9120  176.2190  142.9700 C   0  0  0  0  0  2  0  0  0  0  0  0
  190.7540  175.8110  144.9990 C   0  0  0  0  0  2  0  0  0  0  0  0
  183.9690  178.7490  140.2420 O   0  0  0  0  0  1  0  0  0  0  0  0
  188.7750  177.8460  140.1080 C   0  0  0  0  0  0  0  0  0  0  0  0
  186.2860  178.3220  137.4270 C   0  0  0  0  0  3  0  0  0  0  0  0
  186.3900  178.2860  140.2550 C   0  0  0  0  0  0  0  0  0  0  0  0
  188.8840  177.8200  141.4820 C   0  0  0  0  0  0  0  0  0  0  0  0
  192.1860  177.4350  140.3210 O   0  0  0  0  0  0  0  0  0  0  0  0
  190.3180  177.6400  141.8870 C   0  0  1  0  0  3  0  0  0  0  0  0
  191.9860  175.4090  144.2390 C   0  0  0  0  0  2  0  0  0  0  0  0
  190.0700  178.8430  144.5800 C   0  0  0  0  0  1  0  0  0  0  0  0
  187.4960  178.0910  138.0730 C   0  0  0  0  0  3  0  0  0  0  0  0
  187.5580  178.0740  139.4710 C   0  0  0  0  0  0  0  0  0  0  0  0
  189.1360  177.6460  144.4420 C   0  0  2  0  0  3  0  0  0  0  0  0
  184.3470  178.6320  144.7010 O   0  0  0  0  0  0  0  0  0  0  0  0
  182.0550  178.7200  144.0160 C   0  0  0  0  0  1  0  0  0  0  0  0
  183.2950  179.5210  144.3530 C   0  0  0  0  0  2  0  0  0  0  0  0
  1  4  1  0  0  0  0
  1  5  2  0  0  0  0
  2 16  1  0  0  0  0
  2 19  1  0  0  0  0
  3 17  1  0  0  0  0
  3 10  1  0  0  0  0
  4 12  2  0  0  0  0
  5 11  1  0  0  0  0
  7 27  1  0  0  0  0
  7 15  1  1  0  0  0
  8  6  1  0  0  0  0
  9 14  1  1  0  0  0
  9  7  1  0  0  0  0
 11  8  2  0  0  0  0
 11 28  1  0  0  0  0
 12 27  1  0  0  0  0
 12  8  1  0  0  0  0
 13  2  2  0  0  0  0
 14 23  1  0  0  0  0
 17 20  2  0  0  0  0
 18 25  2  0  0  0  0
 18 13  1  0  0  0  0
 19  1  1  0  0  0  0
 20 22  1  0  0  0  0
 20  4  1  0  0  0  0
 21 10  2  0  0  0  0
 22 10  1  6  0  0  0
 22  9  1  0  0  0  0
 23 15  1  0  0  0  0
 25 26  1  0  0  0  0
 26 17  1  0  0  0  0
 26 19  2  0  0  0  0
 27 24  1  6  0  0  0
 29 30  1  0  0  0  0
 30 28  1  0  0  0  0
M  END
>  <MODEL>
8

>  <REMARK>
 VINA RESULT:      -7.9      1.891      5.017
  Name = 
  2 active torsions:
  status: ('A' for Active; 'I' for Inactive)
    1  A    between atoms: C_11  and  O_28
    2  A    between atoms: O_28  and  C_30
                            x       y       z     vdW  Elec       q    Type
                         _______ _______ _______ _____ _____    ______ ____

>  <TORSDO>
F 2

$$$$
=
 OpenBabel11122410263D

 30 35  0  0  1  0  0  0  0  0999 V2000
  188.0750  177.6100  143.2700 C   0  0  0  0  0  0  0  0  0  0  0  0
  186.0600  178.1310  144.6840 C   0  0  0  0  0  0  0  0  0  0  0  0
  186.0150  178.7970  139.7980 N   0  0  0  0  0  2  0  0  0  0  0  0
  188.6780  177.5620  141.9760 C   0  0  0  0  0  0  0  0  0  0  0  0
  188.8420  177.2170  144.3760 C   0  0  0  0  0  3  0  0  0  0  0  0
  192.0530  176.2700  142.8460 O   0  0  0  0  0  1  0  0  0  0  0  0
  189.8560  176.1120  139.4940 C   0  0  1  0  0  3  0  0  0  0  0  0
  190.7410  176.7170  142.9730 C   0  0  0  0  0  0  0  0  0  0  0  0
  188.6800  176.7670  138.8730 N   0  0  2  0  0  0  0  0  0  0  0  0
  187.0550  178.6200  138.8480 C   0  0  0  0  0  0  0  0  0  0  0  0
  190.1600  176.7740  144.2410 C   0  0  0  0  0  0  0  0  0  0  0  0
  190.0110  177.0990  141.8340 C   0  0  0  0  0  0  0  0  0  0  0  0
  184.7370  178.5740  144.7600 C   0  0  0  0  0  3  0  0  0  0  0  0
  189.0320  176.9190  137.4650 C   0  0  0  0  0  2  0  0  0  0  0  0
  190.7520  175.5760  138.3930 C   0  0  0  0  0  2  0  0  0  0  0  0
  186.6870  177.7750  145.8730 O   0  0  0  0  0  1  0  0  0  0  0  0
  186.6080  178.3880  141.0210 C   0  0  0  0  0  0  0  0  0  0  0  0
  184.0430  178.9460  143.6130 C   0  0  0  0  0  3  0  0  0  0  0  0
  186.7210  178.0510  143.4250 C   0  0  0  0  0  0  0  0  0  0  0  0
  187.9100  177.9630  140.8700 C   0  0  0  0  0  0  0  0  0  0  0  0
  186.9150  178.9340  137.6360 O   0  0  0  0  0  0  0  0  0  0  0  0
  188.3360  178.0850  139.4370 C   0  0  1  0  0  3  0  0  0  0  0  0
  189.9890  175.8080  137.1200 C   0  0  0  0  0  2  0  0  0  0  0  0
  191.2460  178.2510  139.9540 C   0  0  0  0  0  1  0  0  0  0  0  0
  184.6660  178.8830  142.3720 C   0  0  0  0  0  3  0  0  0  0  0  0
  185.9910  178.4450  142.2680 C   0  0  0  0  0  0  0  0  0  0  0  0
  190.6810  176.9430  140.4960 C   0  0  2  0  0  3  0  0  0  0  0  0
  190.9060  176.3710  145.3540 O   0  0  0  0  0  0  0  0  0  0  0  0
  191.6830  176.3040  147.6170 C   0  0  0  0  0  1  0  0  0  0  0  0
  190.5790  176.7540  146.6820 C   0  0  0  0  0  2  0  0  0  0  0  0
  1 19  1  0  0  0  0
  1  5  1  0  0  0  0
  2 13  1  0  0  0  0
  2 16  1  0  0  0  0
  3 17  1  0  0  0  0
  4  1  2  0  0  0  0
  6  8  1  0  0  0  0
  7 15  1  6  0  0  0
  7 27  1  0  0  0  0
  8 11  1  0  0  0  0
  9 14  1  6  0  0  0
  9 22  1  0  0  0  0
  9  7  1  0  0  0  0
 10  3  1  0  0  0  0
 11  5  2  0  0  0  0
 11 28  1  0  0  0  0
 12  4  1  0  0  0  0
 12  8  2  0  0  0  0
 17 26  1  0  0  0  0
 18 13  2  0  0  0  0
 19  2  2  0  0  0  0
 20 17  2  0  0  0  0
 20  4  1  0  0  0  0
 21 10  2  0  0  0  0
 22 10  1  6  0  0  0
 22 20  1  0  0  0  0
 23 14  1  0  0  0  0
 23 15  1  0  0  0  0
 25 18  1  0  0  0  0
 26 25  2  0  0  0  0
 26 19  1  0  0  0  0
 27 24  1  6  0  0  0
 27 12  1  0  0  0  0
 28 30  1  0  0  0  0
 30 29  1  0  0  0  0
M  END
>  <MODEL>
9

>  <REMARK>
 VINA RESULT:      -7.7      2.488      5.749
  Name = 
  2 active torsions:
  status: ('A' for Active; 'I' for Inactive)
    1  A    between atoms: C_11  and  O_28
    2  A    between atoms: O_28  and  C_30
                            x       y       z     vdW  Elec       q    Type
                         _______ _______ _______ _____ _____    ______ ____

>  <TORSDO>
F 2

$$$$
