=
 OpenBabel11122411503D

 28 32  0  0  1  0  0  0  0  0999 V2000
  190.1080  174.7570  135.9570 C   0  0  0  0  0  0  0  0  0  0  0  0
  186.2620  177.2120  135.4000 O   0  0  0  0  0  0  0  0  0  0  0  0
  191.5660  176.9860  141.3260 O   0  0  0  0  0  0  0  0  0  0  0  0
  188.3050  172.6350  136.2720 C   0  0  0  0  0  3  0  0  0  0  0  0
  189.4570  177.8860  140.6000 C   0  0  1  0  0  3  0  0  0  0  0  0
  191.1890  175.7740  135.8720 C   0  0  0  0  0  2  0  0  0  0  0  0
  185.7140  175.1090  136.5590 O   0  0  0  0  0  0  0  0  0  0  0  0
  186.0980  176.5490  136.7380 S   0  0  0  0  0  0  0  0  0  0  0  0
  185.3210  178.6530  138.3160 C   0  0  1  0  0  3  0  0  0  0  0  0
  187.5560  176.7530  137.6980 C   0  0  0  0  0  0  0  0  0  0  0  0
  193.8210  175.8230  138.5180 O   0  0  0  0  0  1  0  0  0  0  0  0
  189.5140  176.6600  138.5630 C   0  0  0  0  0  0  0  0  0  0  0  0
  186.4560  178.4070  139.2060 N   0  0  0  0  0  2  0  0  0  0  0  0
  184.8070  177.3610  137.6740 C   0  0  0  0  0  2  0  0  0  0  0  0
  192.9370  176.3780  137.5930 C   0  0  2  0  0  3  0  0  0  0  0  0
  189.0140  174.8970  136.8410 C   0  0  0  0  0  0  0  0  0  0  0  0
  190.7180  177.0610  140.4500 C   0  0  0  0  0  0  0  0  0  0  0  0
  184.2040  179.3150  139.0930 C   0  0  0  0  0  1  0  0  0  0  0  0
  191.8770  177.2030  138.3170 C   0  0  0  0  0  2  0  0  0  0  0  0
  188.1380  173.8130  137.0000 C   0  0  0  0  0  3  0  0  0  0  0  0
  190.2660  173.5720  135.2240 C   0  0  0  0  0  3  0  0  0  0  0  0
  189.3630  172.5190  135.3730 C   0  0  0  0  0  3  0  0  0  0  0  0
  192.3490  175.2790  136.7250 C   0  0  0  0  0  2  0  0  0  0  0  0
  188.8150  177.5360  139.3150 C   0  0  0  0  0  0  0  0  0  0  0  0
  190.8660  176.3720  139.1090 C   0  0  2  0  0  3  0  0  0  0  0  0
  187.5710  177.6330  138.7580 C   0  0  0  0  0  0  0  0  0  0  0  0
  188.6280  177.3560  141.7580 C   0  0  0  0  0  1  0  0  0  0  0  0
  188.7580  176.1150  137.5730 N   0  0  0  0  0  0  0  0  0  0  0  0
  1 16  1  0  0  0  0
  2  8  2  0  0  0  0
  4 20  1  0  0  0  0
  5 27  1  1  0  0  0
  6  1  1  0  0  0  0
  6 23  1  0  0  0  0
  7  8  2  0  0  0  0
  8 14  1  0  0  0  0
  8 10  1  0  0  0  0
  9 18  1  1  0  0  0
  9 13  1  0  0  0  0
 10 26  2  0  0  0  0
 12 25  1  0  0  0  0
 12 24  2  0  0  0  0
 14  9  1  0  0  0  0
 15 19  1  0  0  0  0
 15 11  1  1  0  0  0
 16 20  2  0  0  0  0
 16 28  1  0  0  0  0
 17  5  1  0  0  0  0
 17  3  2  0  0  0  0
 21 22  1  0  0  0  0
 21  1  2  0  0  0  0
 22  4  2  0  0  0  0
 23 15  1  0  0  0  0
 24  5  1  0  0  0  0
 25 19  1  6  0  0  0
 25 17  1  0  0  0  0
 26 13  1  0  0  0  0
 26 24  1  0  0  0  0
 28 10  1  0  0  0  0
 28 12  1  0  0  0  0
M  END
>  <MODEL>
1

>  <REMARK>
 VINA RESULT:      -6.6      0.000      0.000
  Name = 
  0 active torsions:
  status: ('A' for Active; 'I' for Inactive)
                            x       y       z     vdW  Elec       q    Type
                         _______ _______ _______ _____ _____    ______ ____

>  <TORSDO>
F 0

$$$$
=
 OpenBabel11122411503D

 28 32  0  0  1  0  0  0  0  0999 V2000
  188.3930  174.3950  135.6830 C   0  0  0  0  0  0  0  0  0  0  0  0
  184.6590  177.0700  135.4950 O   0  0  0  0  0  0  0  0  0  0  0  0
  191.0540  177.2580  140.2260 O   0  0  0  0  0  0  0  0  0  0  0  0
  186.5780  172.5100  136.6860 C   0  0  0  0  0  3  0  0  0  0  0  0
  188.8950  178.2230  139.7890 C   0  0  1  0  0  3  0  0  0  0  0  0
  189.4890  175.2880  135.2230 C   0  0  0  0  0  2  0  0  0  0  0  0
  184.2460  175.2180  137.0670 O   0  0  0  0  0  0  0  0  0  0  0  0
  184.7390  176.6290  136.9300 S   0  0  0  0  0  0  0  0  0  0  0  0
  184.4250  179.0040  138.2650 C   0  0  1  0  0  3  0  0  0  0  0  0
  186.3730  176.8440  137.5400 C   0  0  0  0  0  0  0  0  0  0  0  0
  192.6100  175.4970  137.2590 O   0  0  0  0  0  1  0  0  0  0  0  0
  188.4590  176.7080  138.0090 C   0  0  0  0  0  0  0  0  0  0  0  0
  185.7040  178.7930  138.9430 N   0  0  0  0  0  2  0  0  0  0  0  0
  183.7170  177.6810  137.9550 C   0  0  0  0  0  2  0  0  0  0  0  0
  191.5860  175.9850  136.4470 C   0  0  2  0  0  3  0  0  0  0  0  0
  187.5150  174.7600  136.7290 C   0  0  0  0  0  0  0  0  0  0  0  0
  190.0490  177.2770  139.5320 C   0  0  0  0  0  0  0  0  0  0  0  0
  183.5320  179.8700  139.1270 C   0  0  0  0  0  1  0  0  0  0  0  0
  190.7470  176.9980  137.2200 C   0  0  0  0  0  2  0  0  0  0  0  0
  186.6320  173.7930  137.2310 C   0  0  0  0  0  3  0  0  0  0  0  0
  188.3290  173.1040  135.1370 C   0  0  0  0  0  3  0  0  0  0  0  0
  187.4190  172.1690  135.6290 C   0  0  0  0  0  3  0  0  0  0  0  0
  190.7700  174.8250  135.9010 C   0  0  0  0  0  2  0  0  0  0  0  0
  187.9810  177.7440  138.7290 C   0  0  0  0  0  0  0  0  0  0  0  0
  189.8770  176.3870  138.3190 C   0  0  2  0  0  3  0  0  0  0  0  0
  186.6570  177.8670  138.4190 C   0  0  0  0  0  0  0  0  0  0  0  0
  188.2950  177.9460  141.1580 C   0  0  0  0  0  1  0  0  0  0  0  0
  187.4850  176.0910  137.2880 N   0  0  0  0  0  0  0  0  0  0  0  0
  1 16  1  0  0  0  0
  2  8  2  0  0  0  0
  4 20  1  0  0  0  0
  5 27  1  1  0  0  0
  6  1  1  0  0  0  0
  6 23  1  0  0  0  0
  8  7  2  0  0  0  0
  8 10  1  0  0  0  0
  8 14  1  0  0  0  0
  9 13  1  0  0  0  0
  9 18  1  1  0  0  0
 10 26  2  0  0  0  0
 12 25  1  0  0  0  0
 12 24  2  0  0  0  0
 14  9  1  0  0  0  0
 15 19  1  0  0  0  0
 15 11  1  1  0  0  0
 16 20  2  0  0  0  0
 16 28  1  0  0  0  0
 17  5  1  0  0  0  0
 17  3  2  0  0  0  0
 21 22  1  0  0  0  0
 21  1  2  0  0  0  0
 22  4  2  0  0  0  0
 23 15  1  0  0  0  0
 24  5  1  0  0  0  0
 25 19  1  6  0  0  0
 25 17  1  0  0  0  0
 26 24  1  0  0  0  0
 26 13  1  0  0  0  0
 28 10  1  0  0  0  0
 28 12  1  0  0  0  0
M  END
>  <MODEL>
2

>  <REMARK>
 VINA RESULT:      -6.5      1.203      1.446
  Name = 
  0 active torsions:
  status: ('A' for Active; 'I' for Inactive)
                            x       y       z     vdW  Elec       q    Type
                         _______ _______ _______ _____ _____    ______ ____

>  <TORSDO>
F 0

$$$$
=
 OpenBabel11122411503D

 28 32  0  0  1  0  0  0  0  0999 V2000
  185.3240  178.8060  144.2090 C   0  0  0  0  0  0  0  0  0  0  0  0
  188.5600  180.0590  141.1940 O   0  0  0  0  0  0  0  0  0  0  0  0
  181.3100  176.9470  140.1650 O   0  0  0  0  0  0  0  0  0  0  0  0
  187.1280  176.7360  144.7710 C   0  0  0  0  0  3  0  0  0  0  0  0
  183.3430  177.6170  139.0680 C   0  0  1  0  0  3  0  0  0  0  0  0
  184.2390  179.7980  143.9920 C   0  0  0  0  0  2  0  0  0  0  0  0
  188.8810  177.6890  141.7820 O   0  0  0  0  0  0  0  0  0  0  0  0
  188.2270  178.6420  140.8250 S   0  0  0  0  0  0  0  0  0  0  0  0
  187.8720  178.8360  138.1120 C   0  0  1  0  0  3  0  0  0  0  0  0
  186.4840  178.4310  140.7380 C   0  0  0  0  0  0  0  0  0  0  0  0
  180.7450  178.5690  143.5380 O   0  0  0  0  0  1  0  0  0  0  0  0
  184.3900  178.1900  141.1240 C   0  0  0  0  0  0  0  0  0  0  0  0
  186.5190  178.2950  138.2490 N   0  0  0  0  0  2  0  0  0  0  0  0
  188.8220  178.2770  139.1770 C   0  0  0  0  0  2  0  0  0  0  0  0
  181.8400  179.4010  143.3080 C   0  0  2  0  0  3  0  0  0  0  0  0
  185.8790  178.0570  143.1460 C   0  0  0  0  0  0  0  0  0  0  0  0
  182.4310  177.4220  140.2610 C   0  0  0  0  0  0  0  0  0  0  0  0
  188.4080  178.5150  136.7330 C   0  0  0  0  0  1  0  0  0  0  0  0
  182.3220  179.2430  141.8690 C   0  0  0  0  0  2  0  0  0  0  0  0
  186.7620  177.0100  143.4530 C   0  0  0  0  0  3  0  0  0  0  0  0
  185.7030  178.5280  145.5300 C   0  0  0  0  0  3  0  0  0  0  0  0
  186.6080  177.5050  145.8100 C   0  0  0  0  0  3  0  0  0  0  0  0
  182.9220  179.1170  144.3360 C   0  0  0  0  0  2  0  0  0  0  0  0
  184.5330  178.1250  139.7840 C   0  0  0  0  0  0  0  0  0  0  0  0
  183.0030  177.9050  141.5780 C   0  0  2  0  0  3  0  0  0  0  0  0
  185.8590  178.3090  139.5160 C   0  0  0  0  0  0  0  0  0  0  0  0
  183.6540  176.2730  138.4300 C   0  0  0  0  0  1  0  0  0  0  0  0
  185.5830  178.3370  141.7610 N   0  0  0  0  0  0  0  0  0  0  0  0
  1 21  1  0  0  0  0
  3 17  2  0  0  0  0
  4 22  1  0  0  0  0
  5 27  1  1  0  0  0
  5 24  1  0  0  0  0
  5 17  1  0  0  0  0
  6  1  1  0  0  0  0
  6 23  1  0  0  0  0
  8  2  2  0  0  0  0
  8  7  2  0  0  0  0
  9 18  1  6  0  0  0
  9 13  1  0  0  0  0
  9 14  1  0  0  0  0
 10  8  1  0  0  0  0
 10 28  1  0  0  0  0
 12 25  1  0  0  0  0
 12 28  1  0  0  0  0
 13 26  1  0  0  0  0
 14  8  1  0  0  0  0
 15 11  1  1  0  0  0
 15 23  1  0  0  0  0
 16 20  1  0  0  0  0
 16  1  2  0  0  0  0
 17 25  1  0  0  0  0
 19 15  1  0  0  0  0
 20  4  2  0  0  0  0
 21 22  2  0  0  0  0
 24 12  2  0  0  0  0
 25 19  1  6  0  0  0
 26 24  1  0  0  0  0
 26 10  2  0  0  0  0
 28 16  1  0  0  0  0
M  END
>  <MODEL>
3

>  <REMARK>
 VINA RESULT:      -6.5      3.966      8.380
  Name = 
  0 active torsions:
  status: ('A' for Active; 'I' for Inactive)
                            x       y       z     vdW  Elec       q    Type
                         _______ _______ _______ _____ _____    ______ ____

>  <TORSDO>
F 0

$$$$
=
 OpenBabel11122411503D

 28 32  0  0  1  0  0  0  0  0999 V2000
  185.9930  177.6940  136.1790 C   0  0  0  0  0  0  0  0  0  0  0  0
  183.6300  180.0400  139.3480 O   0  0  0  0  0  0  0  0  0  0  0  0
  190.7630  176.5260  139.6150 O   0  0  0  0  0  0  0  0  0  0  0  0
  184.0130  175.7610  136.6220 C   0  0  0  0  0  3  0  0  0  0  0  0
  189.0840  177.6790  140.8920 C   0  0  1  0  0  3  0  0  0  0  0  0
  187.1440  178.5830  135.8690 C   0  0  0  0  0  2  0  0  0  0  0  0
  183.0680  177.6490  139.5300 O   0  0  0  0  0  0  0  0  0  0  0  0
  183.9750  178.7400  140.0170 S   0  0  0  0  0  0  0  0  0  0  0  0
  184.9740  179.5970  142.4240 C   0  0  1  0  0  3  0  0  0  0  0  0
  185.6770  178.3700  139.7810 C   0  0  0  0  0  0  0  0  0  0  0  0
  190.5850  177.1380  135.8840 O   0  0  0  0  0  1  0  0  0  0  0  0
  187.6050  177.8070  139.0350 C   0  0  0  0  0  0  0  0  0  0  0  0
  186.2280  178.8930  142.1550 N   0  0  0  0  0  2  0  0  0  0  0  0
  183.7730  178.8870  141.7890 C   0  0  0  0  0  2  0  0  0  0  0  0
  189.6160  178.1170  136.1020 C   0  0  2  0  0  3  0  0  0  0  0  0
  185.6730  177.3140  137.5020 C   0  0  0  0  0  0  0  0  0  0  0  0
  189.6750  177.0800  139.6340 C   0  0  0  0  0  0  0  0  0  0  0  0
  184.7670  179.7090  143.9190 C   0  0  0  0  0  1  0  0  0  0  0  0
  189.4830  178.3940  137.5970 C   0  0  0  0  0  2  0  0  0  0  0  0
  184.6950  176.3280  137.6990 C   0  0  0  0  0  3  0  0  0  0  0  0
  185.2990  177.1240  135.1020 C   0  0  0  0  0  3  0  0  0  0  0  0
  184.3070  176.1690  135.3220 C   0  0  0  0  0  3  0  0  0  0  0  0
  188.3080  177.6950  135.4540 C   0  0  0  0  0  2  0  0  0  0  0  0
  187.7830  178.1110  140.3380 C   0  0  0  0  0  0  0  0  0  0  0  0
  188.8290  177.2620  138.3910 C   0  0  2  0  0  3  0  0  0  0  0  0
  186.5680  178.5040  140.8240 C   0  0  0  0  0  0  0  0  0  0  0  0
  188.8710  176.5910  141.9320 C   0  0  0  0  0  1  0  0  0  0  0  0
  186.3030  177.9120  138.6560 N   0  0  0  0  0  0  0  0  0  0  0  0
  1 16  1  0  0  0  0
  2  8  2  0  0  0  0
  3 17  2  0  0  0  0
  4 20  1  0  0  0  0
  5 27  1  1  0  0  0
  6  1  1  0  0  0  0
  7  8  2  0  0  0  0
  8 14  1  0  0  0  0
  9 18  1  1  0  0  0
 10  8  1  0  0  0  0
 10 26  2  0  0  0  0
 12 24  2  0  0  0  0
 13  9  1  0  0  0  0
 14  9  1  0  0  0  0
 15 11  1  1  0  0  0
 15 19  1  0  0  0  0
 16 20  2  0  0  0  0
 16 28  1  0  0  0  0
 17  5  1  0  0  0  0
 21 22  1  0  0  0  0
 21  1  2  0  0  0  0
 22  4  2  0  0  0  0
 23  6  1  0  0  0  0
 23 15  1  0  0  0  0
 24 26  1  0  0  0  0
 24  5  1  0  0  0  0
 25 19  1  6  0  0  0
 25 12  1  0  0  0  0
 25 17  1  0  0  0  0
 26 13  1  0  0  0  0
 28 12  1  0  0  0  0
 28 10  1  0  0  0  0
M  END
>  <MODEL>
4

>  <REMARK>
 VINA RESULT:      -6.1      3.033      3.999
  Name = 
  0 active torsions:
  status: ('A' for Active; 'I' for Inactive)
                            x       y       z     vdW  Elec       q    Type
                         _______ _______ _______ _____ _____    ______ ____

>  <TORSDO>
F 0

$$$$
=
 OpenBabel11122411503D

 28 32  0  0  1  0  0  0  0  0999 V2000
  180.7980  178.9590  143.0340 C   0  0  0  0  0  0  0  0  0  0  0  0
  179.5240  175.5970  140.1690 O   0  0  0  0  0  0  0  0  0  0  0  0
  186.3960  179.5270  140.9690 O   0  0  0  0  0  0  0  0  0  0  0  0
  179.0520  180.4930  141.4680 C   0  0  0  0  0  3  0  0  0  0  0  0
  185.1910  177.9070  139.6620 C   0  0  1  0  0  3  0  0  0  0  0  0
  181.7960  178.3050  143.9200 C   0  0  0  0  0  2  0  0  0  0  0  0
  179.0480  177.7740  139.1190 O   0  0  0  0  0  0  0  0  0  0  0  0
  180.0600  176.6760  139.2720 S   0  0  0  0  0  0  0  0  0  0  0  0
  181.7510  175.2630  137.6400 C   0  0  1  0  0  3  0  0  0  0  0  0
  181.6060  177.2540  139.8760 C   0  0  0  0  0  0  0  0  0  0  0  0
  185.0750  179.9950  144.4850 O   0  0  0  0  0  1  0  0  0  0  0  0
  183.2110  178.1810  140.9510 C   0  0  0  0  0  0  0  0  0  0  0  0
  182.8620  176.1260  138.0410 N   0  0  0  0  0  2  0  0  0  0  0  0
  180.4140  176.0100  137.6490 C   0  0  0  0  0  2  0  0  0  0  0  0
  184.2200  178.9100  144.2960 C   0  0  2  0  0  3  0  0  0  0  0  0
  180.9020  178.9120  141.6250 C   0  0  0  0  0  0  0  0  0  0  0  0
  185.3660  178.8930  140.7970 C   0  0  0  0  0  0  0  0  0  0  0  0
  182.0150  174.7090  136.2570 C   0  0  0  0  0  1  0  0  0  0  0  0
  184.5540  178.2060  142.9840 C   0  0  0  0  0  2  0  0  0  0  0  0
  180.0320  179.7070  140.8620 C   0  0  0  0  0  3  0  0  0  0  0  0
  179.8060  179.7470  143.6350 C   0  0  0  0  0  3  0  0  0  0  0  0
  178.9310  180.5030  142.8560 C   0  0  0  0  0  3  0  0  0  0  0  0
  182.7770  179.3780  144.3720 C   0  0  0  0  0  2  0  0  0  0  0  0
  183.7810  177.5350  139.9120 C   0  0  0  0  0  0  0  0  0  0  0  0
  184.1780  178.9980  141.7320 C   0  0  2  0  0  3  0  0  0  0  0  0
  182.7750  176.9100  139.2320 C   0  0  0  0  0  0  0  0  0  0  0  0
  185.3100  178.6280  138.3290 C   0  0  0  0  0  1  0  0  0  0  0  0
  181.8560  178.0700  140.9440 N   0  0  0  0  0  0  0  0  0  0  0  0
  1 21  1  0  0  0  0
  1  6  1  0  0  0  0
  4 22  1  0  0  0  0
  5 27  1  6  0  0  0
  5 24  1  0  0  0  0
  5 17  1  0  0  0  0
  6 23  1  0  0  0  0
  7  8  2  0  0  0  0
  8 10  1  0  0  0  0
  8  2  2  0  0  0  0
  9 18  1  6  0  0  0
  9 14  1  0  0  0  0
  9 13  1  0  0  0  0
 10 28  1  0  0  0  0
 12 25  1  0  0  0  0
 13 26  1  0  0  0  0
 14  8  1  0  0  0  0
 15 23  1  0  0  0  0
 15 11  1  6  0  0  0
 16  1  2  0  0  0  0
 17  3  2  0  0  0  0
 17 25  1  0  0  0  0
 19 15  1  0  0  0  0
 20  4  2  0  0  0  0
 20 16  1  0  0  0  0
 22 21  2  0  0  0  0
 24 12  2  0  0  0  0
 25 19  1  1  0  0  0
 26 10  2  0  0  0  0
 26 24  1  0  0  0  0
 28 12  1  0  0  0  0
 28 16  1  0  0  0  0
M  END
>  <MODEL>
5

>  <REMARK>
 VINA RESULT:      -5.9      5.747      9.052
  Name = 
  0 active torsions:
  status: ('A' for Active; 'I' for Inactive)
                            x       y       z     vdW  Elec       q    Type
                         _______ _______ _______ _____ _____    ______ ____

>  <TORSDO>
F 0

$$$$
=
 OpenBabel11122411503D

 28 32  0  0  1  0  0  0  0  0999 V2000
  182.4070  176.3830  137.9080 C   0  0  0  0  0  0  0  0  0  0  0  0
  184.3010  172.2100  137.5520 O   0  0  0  0  0  0  0  0  0  0  0  0
  187.4240  179.4980  136.8860 O   0  0  0  0  0  0  0  0  0  0  0  0
  181.2170  175.6800  135.4700 C   0  0  0  0  0  3  0  0  0  0  0  0
  187.8540  177.1410  136.6740 C   0  0  1  0  0  3  0  0  0  0  0  0
  182.9960  176.9310  139.1580 C   0  0  0  0  0  2  0  0  0  0  0  0
  183.5410  172.9420  135.3260 O   0  0  0  0  0  0  0  0  0  0  0  0
  184.6950  172.9150  136.2850 S   0  0  0  0  0  0  0  0  0  0  0  0
  187.3870  172.4040  136.1710 C   0  0  1  0  0  3  0  0  0  0  0  0
  185.3170  174.5180  136.6510 C   0  0  0  0  0  0  0  0  0  0  0  0
  184.4740  180.3570  139.0950 O   0  0  0  0  0  1  0  0  0  0  0  0
  185.5990  176.5760  137.1750 C   0  0  0  0  0  0  0  0  0  0  0  0
  187.6600  173.8410  136.1340 N   0  0  0  0  0  2  0  0  0  0  0  0
  186.0550  172.0560  135.4990 C   0  0  0  0  0  2  0  0  0  0  0  0
  184.3830  179.0190  139.4750 C   0  0  2  0  0  3  0  0  0  0  0  0
  183.2080  175.8630  136.8660 C   0  0  0  0  0  0  0  0  0  0  0  0
  187.0010  178.3550  136.9740 C   0  0  0  0  0  0  0  0  0  0  0  0
  188.5130  171.6580  135.4870 C   0  0  0  0  0  1  0  0  0  0  0  0
  185.5890  178.2450  138.9500 C   0  0  0  0  0  2  0  0  0  0  0  0
  182.5940  175.5400  135.6460 C   0  0  0  0  0  3  0  0  0  0  0  0
  181.0220  176.5150  137.7250 C   0  0  0  0  0  3  0  0  0  0  0  0
  180.4280  176.1560  136.5150 C   0  0  0  0  0  3  0  0  0  0  0  0
  183.0560  178.4450  139.0090 C   0  0  0  0  0  2  0  0  0  0  0  0
  186.8220  176.0990  136.8640 C   0  0  0  0  0  0  0  0  0  0  0  0
  185.5930  178.0400  137.4350 C   0  0  2  0  0  3  0  0  0  0  0  0
  186.6670  174.7760  136.5570 C   0  0  0  0  0  0  0  0  0  0  0  0
  188.3030  177.1710  135.2220 C   0  0  0  0  0  1  0  0  0  0  0  0
  184.6260  175.6400  137.0140 N   0  0  0  0  0  0  0  0  0  0  0  0
  1  6  1  0  0  0  0
  3 17  2  0  0  0  0
  4 20  2  0  0  0  0
  4 22  1  0  0  0  0
  5 27  1  6  0  0  0
  5 24  1  0  0  0  0
  5 17  1  0  0  0  0
  7  8  2  0  0  0  0
  8 10  1  0  0  0  0
  8  2  2  0  0  0  0
  9 18  1  6  0  0  0
 10 28  1  0  0  0  0
 12 25  1  0  0  0  0
 13  9  1  0  0  0  0
 13 26  1  0  0  0  0
 14  9  1  0  0  0  0
 14  8  1  0  0  0  0
 15 11  1  6  0  0  0
 16 28  1  0  0  0  0
 16  1  2  0  0  0  0
 17 25  1  0  0  0  0
 19 15  1  0  0  0  0
 20 16  1  0  0  0  0
 21  1  1  0  0  0  0
 22 21  2  0  0  0  0
 23  6  1  0  0  0  0
 23 15  1  0  0  0  0
 24 12  2  0  0  0  0
 25 19  1  1  0  0  0
 26 10  2  0  0  0  0
 26 24  1  0  0  0  0
 28 12  1  0  0  0  0
M  END
>  <MODEL>
6

>  <REMARK>
 VINA RESULT:      -5.7      3.596      6.830
  Name = 
  0 active torsions:
  status: ('A' for Active; 'I' for Inactive)
                            x       y       z     vdW  Elec       q    Type
                         _______ _______ _______ _____ _____    ______ ____

>  <TORSDO>
F 0

$$$$
=
 OpenBabel11122411503D

 28 32  0  0  1  0  0  0  0  0999 V2000
  187.3660  175.0760  135.9540 C   0  0  0  0  0  0  0  0  0  0  0  0
  183.1950  173.6970  134.5990 O   0  0  0  0  0  0  0  0  0  0  0  0
  185.4800  179.2560  139.8130 O   0  0  0  0  0  0  0  0  0  0  0  0
  187.4110  172.5750  137.2170 C   0  0  0  0  0  3  0  0  0  0  0  0
  183.6000  178.0840  138.8760 C   0  0  1  0  0  3  0  0  0  0  0  0
  187.4790  176.4500  135.3980 C   0  0  0  0  0  2  0  0  0  0  0  0
  183.8830  172.3740  136.5600 O   0  0  0  0  0  0  0  0  0  0  0  0
  183.1570  173.6040  136.0980 S   0  0  0  0  0  0  0  0  0  0  0  0
  180.8010  174.8810  136.6800 C   0  0  1  0  0  3  0  0  0  0  0  0
  183.7890  175.0790  136.8140 C   0  0  0  0  0  0  0  0  0  0  0  0
  188.5860  179.2120  137.6500 O   0  0  0  0  0  1  0  0  0  0  0  0
  184.9940  176.6940  137.5430 C   0  0  0  0  0  0  0  0  0  0  0  0
  181.5220  175.8240  137.5360 N   0  0  0  0  0  2  0  0  0  0  0  0
  181.4630  173.5000  136.6660 C   0  0  0  0  0  2  0  0  0  0  0  0
  187.8470  178.6300  136.6210 C   0  0  2  0  0  3  0  0  0  0  0  0
  186.2660  174.6760  136.7480 C   0  0  0  0  0  0  0  0  0  0  0  0
  185.0700  178.4150  139.0270 C   0  0  0  0  0  0  0  0  0  0  0  0
  179.3710  174.7560  137.1590 C   0  0  0  0  0  1  0  0  0  0  0  0
  186.3640  178.6290  136.9800 C   0  0  0  0  0  2  0  0  0  0  0  0
  186.3220  173.4290  137.3900 C   0  0  0  0  0  3  0  0  0  0  0  0
  188.4540  174.2080  135.7810 C   0  0  0  0  0  3  0  0  0  0  0  0
  188.4730  172.9590  136.4020 C   0  0  0  0  0  3  0  0  0  0  0  0
  188.3910  177.2430  136.3240 C   0  0  0  0  0  2  0  0  0  0  0  0
  183.7240  176.9900  137.8890 C   0  0  0  0  0  0  0  0  0  0  0  0
  185.9880  177.6520  138.0950 C   0  0  2  0  0  3  0  0  0  0  0  0
  182.9350  175.9860  137.4030 C   0  0  0  0  0  0  0  0  0  0  0  0
  183.0540  177.5440  140.1870 C   0  0  0  0  0  1  0  0  0  0  0  0
  185.0880  175.4930  136.9110 N   0  0  0  0  0  0  0  0  0  0  0  0
  1 16  1  0  0  0  0
  2  8  2  0  0  0  0
  4 20  1  0  0  0  0
  5 17  1  0  0  0  0
  5 27  1  1  0  0  0
  6  1  1  0  0  0  0
  6 23  1  0  0  0  0
  8  7  2  0  0  0  0
  8 14  1  0  0  0  0
  8 10  1  0  0  0  0
  9 18  1  1  0  0  0
  9 13  1  0  0  0  0
 10 28  1  0  0  0  0
 10 26  2  0  0  0  0
 12 24  2  0  0  0  0
 12 25  1  0  0  0  0
 14  9  1  0  0  0  0
 15 19  1  0  0  0  0
 15 11  1  1  0  0  0
 16 28  1  0  0  0  0
 16 20  2  0  0  0  0
 17  3  2  0  0  0  0
 21  1  2  0  0  0  0
 21 22  1  0  0  0  0
 22  4  2  0  0  0  0
 23 15  1  0  0  0  0
 24  5  1  0  0  0  0
 25 19  1  6  0  0  0
 25 17  1  0  0  0  0
 26 13  1  0  0  0  0
 26 24  1  0  0  0  0
 28 12  1  0  0  0  0
M  END
>  <MODEL>
7

>  <REMARK>
 VINA RESULT:      -5.6      3.374      4.814
  Name = 
  0 active torsions:
  status: ('A' for Active; 'I' for Inactive)
                            x       y       z     vdW  Elec       q    Type
                         _______ _______ _______ _____ _____    ______ ____

>  <TORSDO>
F 0

$$$$
=
 OpenBabel11122411503D

 28 32  0  0  1  0  0  0  0  0999 V2000
  180.6730  179.3840  141.6500 C   0  0  0  0  0  0  0  0  0  0  0  0
  179.3560  176.5040  138.3180 O   0  0  0  0  0  0  0  0  0  0  0  0
  186.5510  179.0940  140.5150 O   0  0  0  0  0  0  0  0  0  0  0  0
  179.4840  181.3070  139.9930 C   0  0  0  0  0  3  0  0  0  0  0  0
  185.3290  177.8060  138.8930 C   0  0  1  0  0  3  0  0  0  0  0  0
  181.3910  178.5060  142.6100 C   0  0  0  0  0  2  0  0  0  0  0  0
  179.4220  178.7970  137.4210 O   0  0  0  0  0  0  0  0  0  0  0  0
  180.2020  177.5300  137.6200 S   0  0  0  0  0  0  0  0  0  0  0  0
  181.8840  175.9550  136.1330 C   0  0  1  0  0  3  0  0  0  0  0  0
  181.7010  177.7830  138.5020 C   0  0  0  0  0  0  0  0  0  0  0  0
  184.7640  179.5470  143.8210 O   0  0  0  0  0  1  0  0  0  0  0  0
  183.2370  178.3370  139.8900 C   0  0  0  0  0  0  0  0  0  0  0  0
  183.0400  176.5790  136.7780 N   0  0  0  0  0  2  0  0  0  0  0  0
  180.7040  176.9250  136.0120 C   0  0  0  0  0  2  0  0  0  0  0  0
  183.7860  178.6460  143.4020 C   0  0  2  0  0  3  0  0  0  0  0  0
  180.9990  179.4170  140.2740 C   0  0  0  0  0  0  0  0  0  0  0  0
  185.4740  178.6650  140.1310 C   0  0  0  0  0  0  0  0  0  0  0  0
  182.2780  175.4580  134.7590 C   0  0  0  0  0  1  0  0  0  0  0  0
  184.2120  177.9840  142.0950 C   0  0  0  0  0  2  0  0  0  0  0  0
  180.4090  180.4030  139.4690 C   0  0  0  0  0  3  0  0  0  0  0  0
  179.7380  180.2930  142.1670 C   0  0  0  0  0  3  0  0  0  0  0  0
  179.1390  181.2430  141.3420 C   0  0  0  0  0  3  0  0  0  0  0  0
  182.4460  179.3550  143.3050 C   0  0  0  0  0  2  0  0  0  0  0  0
  183.8560  177.6720  138.8920 C   0  0  0  0  0  0  0  0  0  0  0  0
  184.1820  178.9140  140.8810 C   0  0  2  0  0  3  0  0  0  0  0  0
  182.8870  177.2820  138.0110 C   0  0  0  0  0  0  0  0  0  0  0  0
  185.7820  178.5830  137.6680 C   0  0  0  0  0  1  0  0  0  0  0  0
  181.9010  178.4680  139.6680 N   0  0  0  0  0  0  0  0  0  0  0  0
  1 21  1  0  0  0  0
  1  6  1  0  0  0  0
  4 22  1  0  0  0  0
  5 27  1  6  0  0  0
  5 17  1  0  0  0  0
  6 23  1  0  0  0  0
  7  8  2  0  0  0  0
  8  2  2  0  0  0  0
  8 10  1  0  0  0  0
  9 18  1  6  0  0  0
  9 13  1  0  0  0  0
 10 28  1  0  0  0  0
 12 25  1  0  0  0  0
 13 26  1  0  0  0  0
 14  9  1  0  0  0  0
 14  8  1  0  0  0  0
 15 11  1  6  0  0  0
 16  1  2  0  0  0  0
 17  3  2  0  0  0  0
 17 25  1  0  0  0  0
 19 15  1  0  0  0  0
 20  4  2  0  0  0  0
 20 16  1  0  0  0  0
 22 21  2  0  0  0  0
 23 15  1  0  0  0  0
 24  5  1  0  0  0  0
 24 12  2  0  0  0  0
 25 19  1  1  0  0  0
 26 10  2  0  0  0  0
 26 24  1  0  0  0  0
 28 12  1  0  0  0  0
 28 16  1  0  0  0  0
M  END
>  <MODEL>
8

>  <REMARK>
 VINA RESULT:      -5.5      5.411      8.778
  Name = 
  0 active torsions:
  status: ('A' for Active; 'I' for Inactive)
                            x       y       z     vdW  Elec       q    Type
                         _______ _______ _______ _____ _____    ______ ____

>  <TORSDO>
F 0

$$$$
=
 OpenBabel11122411503D

 28 32  0  0  1  0  0  0  0  0999 V2000
  182.6710  178.2950  137.4890 C   0  0  0  0  0  0  0  0  0  0  0  0
  187.1560  179.2310  137.1070 O   0  0  0  0  0  0  0  0  0  0  0  0
  183.1030  172.4250  136.3590 O   0  0  0  0  0  0  0  0  0  0  0  0
  183.1480  178.7720  140.2090 C   0  0  0  0  0  3  0  0  0  0  0  0
  185.2910  173.4220  136.4120 C   0  0  1  0  0  3  0  0  0  0  0  0
  182.2640  177.9560  136.1000 C   0  0  0  0  0  2  0  0  0  0  0  0
  186.6560  178.6190  139.4410 O   0  0  0  0  0  0  0  0  0  0  0  0
  187.0860  178.1040  138.0990 S   0  0  0  0  0  0  0  0  0  0  0  0
  188.9850  176.3820  137.1240 C   0  0  1  0  0  3  0  0  0  0  0  0
  186.0440  176.8260  137.4920 C   0  0  0  0  0  0  0  0  0  0  0  0
  180.3070  174.8320  135.5150 O   0  0  0  0  0  1  0  0  0  0  0  0
  184.4120  175.5840  136.8700 C   0  0  0  0  0  0  0  0  0  0  0  0
  187.9790  175.3240  137.0290 N   0  0  0  0  0  2  0  0  0  0  0  0
  188.6960  177.3440  138.2810 C   0  0  0  0  0  2  0  0  0  0  0  0
  181.2550  175.8120  135.2230 C   0  0  2  0  0  3  0  0  0  0  0  0
  183.7630  177.6630  138.1270 C   0  0  0  0  0  0  0  0  0  0  0  0
  183.7780  173.4370  136.4650 C   0  0  0  0  0  0  0  0  0  0  0  0
  190.3540  175.7620  137.3070 C   0  0  0  0  0  1  0  0  0  0  0  0
  182.6540  175.2020  135.2270 C   0  0  0  0  0  2  0  0  0  0  0  0
  183.9680  177.8980  139.4950 C   0  0  0  0  0  3  0  0  0  0  0  0
  181.8560  179.1770  138.2120 C   0  0  0  0  0  3  0  0  0  0  0  0
  182.0980  179.4230  139.5640 C   0  0  0  0  0  3  0  0  0  0  0  0
  181.1050  176.9730  136.1920 C   0  0  0  0  0  2  0  0  0  0  0  0
  185.5320  174.8580  136.6690 C   0  0  0  0  0  0  0  0  0  0  0  0
  183.1660  174.8150  136.6150 C   0  0  2  0  0  3  0  0  0  0  0  0
  186.5880  175.6470  137.0290 C   0  0  0  0  0  0  0  0  0  0  0  0
  185.8400  172.5900  137.5590 C   0  0  0  0  0  1  0  0  0  0  0  0
  184.6790  176.7980  137.4220 N   0  0  0  0  0  0  0  0  0  0  0  0
  1 16  2  0  0  0  0
  1 21  1  0  0  0  0
  2  8  2  0  0  0  0
  3 17  2  0  0  0  0
  5 17  1  0  0  0  0
  5 24  1  0  0  0  0
  5 27  1  1  0  0  0
  6 23  1  0  0  0  0
  6  1  1  0  0  0  0
  8 14  1  0  0  0  0
  8  7  2  0  0  0  0
  9 18  1  1  0  0  0
  9 14  1  0  0  0  0
 10  8  1  0  0  0  0
 12 28  1  0  0  0  0
 13  9  1  0  0  0  0
 15 19  1  0  0  0  0
 15 11  1  1  0  0  0
 15 23  1  0  0  0  0
 16 20  1  0  0  0  0
 17 25  1  0  0  0  0
 20  4  2  0  0  0  0
 21 22  2  0  0  0  0
 22  4  1  0  0  0  0
 24 12  2  0  0  0  0
 24 26  1  0  0  0  0
 25 19  1  6  0  0  0
 25 12  1  0  0  0  0
 26 13  1  0  0  0  0
 26 10  2  0  0  0  0
 28 10  1  0  0  0  0
 28 16  1  0  0  0  0
M  END
>  <MODEL>
9

>  <REMARK>
 VINA RESULT:      -5.5      2.910      7.773
  Name = 
  0 active torsions:
  status: ('A' for Active; 'I' for Inactive)
                            x       y       z     vdW  Elec       q    Type
                         _______ _______ _______ _____ _____    ______ ____

>  <TORSDO>
F 0

$$$$
