=
 OpenBabel11122410263D

 30 35  0  0  1  0  0  0  0  0999 V2000
  186.8450  177.8200  144.2220 C   0  0  0  0  0  0  0  0  0  0  0  0
  184.4390  178.4530  144.5590 C   0  0  0  0  0  0  0  0  0  0  0  0
  186.8580  178.5970  140.0900 N   0  0  0  0  0  2  0  0  0  0  0  0
  188.0670  177.6670  143.3670 C   0  0  0  0  0  0  0  0  0  0  0  0
  186.9620  177.5820  145.6720 C   0  0  0  0  0  3  0  0  0  0  0  0
  190.4170  176.7690  146.0700 O   0  0  0  0  0  0  0  0  0  0  0  0
  190.9060  176.7480  142.0010 C   0  0  1  0  0  3  0  0  0  0  0  0
  189.3370  177.0240  145.4700 C   0  0  0  0  0  0  0  0  0  0  0  0
  189.7850  176.7000  141.0470 N   0  0  2  0  0  0  0  0  0  0  0  0
  188.2380  178.2240  139.7390 C   0  0  1  0  0  3  0  0  0  0  0  0
  188.1050  177.2310  146.2590 C   0  0  0  0  0  0  0  0  0  0  0  0
  189.3030  177.0080  143.9610 C   0  0  2  0  0  3  0  0  0  0  0  0
  183.1650  178.5770  143.7640 C   0  0  0  0  0  3  0  0  0  0  0  0
  190.4390  176.4670  139.7570 C   0  0  0  0  0  2  0  0  0  0  0  0
  192.1470  177.2330  141.2860 C   0  0  0  0  0  2  0  0  0  0  0  0
  184.6220  179.6170  145.3080 O   0  0  0  0  0  1  0  0  0  0  0  0
  186.7790  178.4070  141.4740 N   0  0  0  0  0  0  0  0  0  0  0  0
  183.1540  178.7320  142.4370 C   0  0  0  0  0  3  0  0  0  0  0  0
  185.6600  178.2120  143.6920 C   0  0  0  0  0  0  0  0  0  0  0  0
  187.9880  177.9930  142.0580 C   0  0  0  0  0  0  0  0  0  0  0  0
  188.8730  179.3340  138.9280 C   0  0  0  0  0  1  0  0  0  0  0  0
  189.0570  177.9840  141.0330 C   0  0  1  0  0  3  0  0  0  0  0  0
  191.8750  176.9570  139.8300 C   0  0  0  0  0  2  0  0  0  0  0  0
  190.8270  178.9610  143.3370 C   0  0  0  0  0  1  0  0  0  0  0  0
  184.4000  178.7270  141.6550 C   0  0  0  0  0  3  0  0  0  0  0  0
  185.5750  178.4800  142.2380 C   0  0  2  0  0  3  0  0  0  0  0  0
  190.6410  177.4440  143.3510 C   0  0  2  0  0  3  0  0  0  0  0  0
  188.1130  177.0340  147.7420 C   0  0  0  0  0  2  0  0  0  0  0  0
  189.7090  178.5950  148.8640 C   0  0  0  0  0  1  0  0  0  0  0  0
  188.2610  178.3600  148.4730 C   0  0  0  0  0  2  0  0  0  0  0  0
  1  5  1  0  0  0  0
  2 16  1  0  0  0  0
  3 17  1  0  0  0  0
  4  1  1  0  0  0  0
  5 11  2  0  0  0  0
  7 15  1  6  0  0  0
  7 27  1  0  0  0  0
  8  6  2  0  0  0  0
  8 11  1  0  0  0  0
  9 14  1  6  0  0  0
  9  7  1  0  0  0  0
 10 21  1  1  0  0  0
 10  3  1  0  0  0  0
 10 22  1  0  0  0  0
 11 28  1  0  0  0  0
 12  4  1  6  0  0  0
 12  8  1  0  0  0  0
 13  2  2  0  0  0  0
 14 23  1  0  0  0  0
 17 20  1  0  0  0  0
 17 26  1  0  0  0  0
 18 13  1  0  0  0  0
 19  1  2  0  0  0  0
 19  2  1  0  0  0  0
 20  4  2  0  0  0  0
 22  9  1  0  0  0  0
 22 20  1  1  0  0  0
 23 15  1  0  0  0  0
 25 18  2  0  0  0  0
 26 25  1  6  0  0  0
 26 19  1  0  0  0  0
 27 24  1  6  0  0  0
 27 12  1  0  0  0  0
 28 30  1  0  0  0  0
 30 29  1  0  0  0  0
M  END
>  <MODEL>
1

>  <REMARK>
 VINA RESULT:     -10.4      0.000      0.000
  Name = 
  2 active torsions:
  status: ('A' for Active; 'I' for Inactive)
    1  A    between atoms: C_11  and  C_28
    2  A    between atoms: C_28  and  C_30
                            x       y       z     vdW  Elec       q    Type
                         _______ _______ _______ _____ _____    ______ ____

>  <TORSDO>
F 2

$$$$
=
 OpenBabel11122410263D

 30 35  0  0  1  0  0  0  0  0999 V2000
  186.3240  178.0380  143.2000 C   0  0  0  0  0  0  0  0  0  0  0  0
  183.8950  178.6730  143.1520 C   0  0  0  0  0  0  0  0  0  0  0  0
  186.9250  178.5600  139.0720 N   0  0  0  0  0  2  0  0  0  0  0  0
  187.6550  177.8420  142.5380 C   0  0  0  0  0  0  0  0  0  0  0  0
  186.2320  177.8900  144.6640 C   0  0  0  0  0  3  0  0  0  0  0  0
  189.5960  177.1280  145.5980 O   0  0  0  0  0  0  0  0  0  0  0  0
  190.6580  176.8610  141.6480 C   0  0  1  0  0  3  0  0  0  0  0  0
  188.6120  177.3380  144.8360 C   0  0  0  0  0  0  0  0  0  0  0  0
  189.6830  176.7480  140.5500 N   0  0  2  0  0  0  0  0  0  0  0  0
  188.3400  178.1770  138.9440 C   0  0  1  0  0  3  0  0  0  0  0  0
  187.2800  177.5840  145.4270 C   0  0  0  0  0  0  0  0  0  0  0  0
  188.7930  177.2290  143.3410 C   0  0  2  0  0  3  0  0  0  0  0  0
  182.7470  178.7380  142.1780 C   0  0  0  0  0  3  0  0  0  0  0  0
  190.5140  176.4410  139.3820 C   0  0  0  0  0  2  0  0  0  0  0  0
  191.9890  177.3110  141.0880 C   0  0  0  0  0  2  0  0  0  0  0  0
  183.9710  179.8820  143.8460 O   0  0  0  0  0  1  0  0  0  0  0  0
  186.6500  178.4550  140.4390 N   0  0  0  0  0  0  0  0  0  0  0  0
  182.9260  178.8120  140.8570 C   0  0  0  0  0  3  0  0  0  0  0  0
  185.2270  178.3880  142.4840 C   0  0  0  0  0  0  0  0  0  0  0  0
  187.7630  178.0870  141.2140 C   0  0  0  0  0  0  0  0  0  0  0  0
  189.0860  179.2400  138.1650 C   0  0  0  0  0  1  0  0  0  0  0  0
  188.9660  178.0220  140.3540 C   0  0  1  0  0  3  0  0  0  0  0  0
  191.9260  176.9450  139.6280 C   0  0  0  0  0  2  0  0  0  0  0  0
  190.3930  179.1520  142.8210 C   0  0  0  0  0  1  0  0  0  0  0  0
  184.2690  178.7680  140.2610 C   0  0  0  0  0  3  0  0  0  0  0  0
  185.3490  178.5660  141.0190 C   0  0  2  0  0  3  0  0  0  0  0  0
  190.2040  177.6370  142.9020 C   0  0  2  0  0  3  0  0  0  0  0  0
  187.0780  177.4780  146.9060 C   0  0  0  0  0  2  0  0  0  0  0  0
  186.2050  179.7100  147.6110 C   0  0  0  0  0  1  0  0  0  0  0  0
  185.8490  178.2580  147.3510 C   0  0  0  0  0  2  0  0  0  0  0  0
  1  5  1  0  0  0  0
  2 16  1  0  0  0  0
  3 17  1  0  0  0  0
  4  1  1  0  0  0  0
  5 11  2  0  0  0  0
  7 15  1  6  0  0  0
  7 27  1  0  0  0  0
  8 11  1  0  0  0  0
  8  6  2  0  0  0  0
  9 14  1  6  0  0  0
  9  7  1  0  0  0  0
 10 21  1  6  0  0  0
 10  3  1  0  0  0  0
 10 22  1  0  0  0  0
 11 28  1  0  0  0  0
 12  4  1  6  0  0  0
 12  8  1  0  0  0  0
 13  2  2  0  0  0  0
 14 23  1  0  0  0  0
 17 26  1  0  0  0  0
 17 20  1  0  0  0  0
 18 13  1  0  0  0  0
 19  2  1  0  0  0  0
 19  1  2  0  0  0  0
 20  4  2  0  0  0  0
 22  9  1  0  0  0  0
 22 20  1  1  0  0  0
 23 15  1  0  0  0  0
 25 18  2  0  0  0  0
 26 25  1  6  0  0  0
 26 19  1  0  0  0  0
 27 24  1  6  0  0  0
 27 12  1  0  0  0  0
 28 30  1  0  0  0  0
 30 29  1  0  0  0  0
M  END
>  <MODEL>
2

>  <REMARK>
 VINA RESULT:      -9.5      1.121      1.341
  Name = 
  2 active torsions:
  status: ('A' for Active; 'I' for Inactive)
    1  A    between atoms: C_11  and  C_28
    2  A    between atoms: C_28  and  C_30
                            x       y       z     vdW  Elec       q    Type
                         _______ _______ _______ _____ _____    ______ ____

>  <TORSDO>
F 2

$$$$
=
 OpenBabel11122410263D

 30 35  0  0  1  0  0  0  0  0999 V2000
  186.5230  178.2790  142.1860 C   0  0  0  0  0  0  0  0  0  0  0  0
  184.0710  178.7770  141.9820 C   0  0  2  0  0  3  0  0  0  0  0  0
  186.4530  177.7730  146.3590 N   0  0  0  0  0  2  0  0  0  0  0  0
  187.7370  177.9080  142.9830 C   0  0  0  0  0  0  0  0  0  0  0  0
  186.6400  178.3720  140.7200 C   0  0  0  0  0  3  0  0  0  0  0  0
  190.0630  177.5290  140.1400 O   0  0  0  0  0  0  0  0  0  0  0  0
  190.7690  177.5180  144.1770 C   0  0  1  0  0  3  0  0  0  0  0  0
  189.0230  177.8140  140.7950 C   0  0  0  0  0  0  0  0  0  0  0  0
  189.8500  178.1080  145.1650 N   0  0  2  0  0  0  0  0  0  0  0  0
  187.8740  177.5030  146.6320 C   0  0  1  0  0  3  0  0  0  0  0  0
  187.7800  178.1450  140.0690 C   0  0  0  0  0  0  0  0  0  0  0  0
  189.0970  177.9140  142.3000 C   0  0  2  0  0  3  0  0  0  0  0  0
  182.9290  179.2760  142.8300 C   0  0  0  0  0  3  0  0  0  0  0  0
  190.6210  178.0830  146.4120 C   0  0  0  0  0  2  0  0  0  0  0  0
  191.7070  176.5610  144.8790 C   0  0  0  0  0  2  0  0  0  0  0  0
  183.6670  177.6220  141.3110 O   0  0  0  0  0  1  0  0  0  0  0  0
  186.3790  177.9130  144.9690 N   0  0  0  0  0  0  0  0  0  0  0  0
  182.9350  179.2040  144.1640 C   0  0  0  0  0  3  0  0  0  0  0  0
  185.3240  178.4860  142.7850 C   0  0  0  0  0  0  0  0  0  0  0  0
  187.6050  177.7130  144.3140 C   0  0  0  0  0  0  0  0  0  0  0  0
  187.9980  176.2640  147.4960 C   0  0  0  0  0  1  0  0  0  0  0  0
  188.6290  177.2900  145.2960 C   0  0  1  0  0  3  0  0  0  0  0  0
  191.6810  176.9980  146.3200 C   0  0  0  0  0  2  0  0  0  0  0  0
  189.6270  175.5160  143.0040 C   0  0  0  0  0  1  0  0  0  0  0  0
  184.1000  178.6860  144.8980 C   0  0  0  0  0  3  0  0  0  0  0  0
  185.2220  178.3530  144.2570 C   0  0  0  0  0  0  0  0  0  0  0  0
  190.1360  176.9530  142.8890 C   0  0  2  0  0  3  0  0  0  0  0  0
  187.7810  178.2490  138.5760 C   0  0  0  0  0  2  0  0  0  0  0  0
  186.3270  176.8740  137.0790 C   0  0  0  0  0  1  0  0  0  0  0  0
  186.3790  178.0700  138.0110 C   0  0  0  0  0  2  0  0  0  0  0  0
  1 19  2  0  0  0  0
  1  4  1  0  0  0  0
  2 16  1  1  0  0  0
  2 19  1  0  0  0  0
  2 13  1  0  0  0  0
  3 10  1  0  0  0  0
  4 20  2  0  0  0  0
  5  1  1  0  0  0  0
  6  8  2  0  0  0  0
  7 15  1  1  0  0  0
  7  9  1  0  0  0  0
  9 22  1  0  0  0  0
  9 14  1  1  0  0  0
 10 21  1  1  0  0  0
 11  5  2  0  0  0  0
 11  8  1  0  0  0  0
 12  8  1  6  0  0  0
 12 27  1  0  0  0  0
 12  4  1  0  0  0  0
 13 18  2  0  0  0  0
 15 23  1  0  0  0  0
 17  3  1  0  0  0  0
 18 25  1  0  0  0  0
 19 26  1  0  0  0  0
 20 17  1  0  0  0  0
 22 20  1  6  0  0  0
 22 10  1  0  0  0  0
 23 14  1  0  0  0  0
 26 25  2  0  0  0  0
 26 17  1  0  0  0  0
 27 24  1  1  0  0  0
 27  7  1  0  0  0  0
 28 11  1  0  0  0  0
 29 30  1  0  0  0  0
 30 28  1  0  0  0  0
M  END
>  <MODEL>
3

>  <REMARK>
 VINA RESULT:      -9.0      2.332      5.420
  Name = 
  2 active torsions:
  status: ('A' for Active; 'I' for Inactive)
    1  A    between atoms: C_11  and  C_28
    2  A    between atoms: C_28  and  C_30
                            x       y       z     vdW  Elec       q    Type
                         _______ _______ _______ _____ _____    ______ ____

>  <TORSDO>
F 2

$$$$
=
 OpenBabel11122410263D

 30 35  0  0  1  0  0  0  0  0999 V2000
  186.2490  178.1140  141.8380 C   0  0  0  0  0  0  0  0  0  0  0  0
  184.9890  178.7290  139.7560 C   0  0  0  0  0  0  0  0  0  0  0  0
  189.8450  177.2250  139.8500 N   0  0  0  0  0  2  0  0  0  0  0  0
  187.4950  177.6910  142.5570 C   0  0  0  0  0  0  0  0  0  0  0  0
  185.0570  178.4620  142.6340 C   0  0  0  0  0  3  0  0  0  0  0  0
  186.1840  178.0110  145.9940 O   0  0  0  0  0  0  0  0  0  0  0  0
  189.7090  176.4310  144.6260 C   0  0  1  0  0  3  0  0  0  0  0  0
  186.2160  177.9680  144.7330 C   0  0  0  0  0  0  0  0  0  0  0  0
  189.9120  175.9710  143.2410 N   0  0  2  0  0  0  0  0  0  0  0  0
  190.6910  176.8020  140.9770 C   0  0  1  0  0  3  0  0  0  0  0  0
  185.0360  178.4150  143.9650 C   0  0  0  0  0  0  0  0  0  0  0  0
  187.4150  177.3660  144.0410 C   0  0  2  0  0  3  0  0  0  0  0  0
  185.0420  178.4810  138.2700 C   0  0  0  0  0  3  0  0  0  0  0  0
  191.2040  175.2820  143.2920 C   0  0  0  0  0  2  0  0  0  0  0  0
  191.0560  176.6520  145.2780 C   0  0  0  0  0  2  0  0  0  0  0  0
  184.8450  180.0980  139.9830 O   0  0  0  0  0  1  0  0  0  0  0  0
  188.6260  177.5840  140.4350 N   0  0  0  0  0  0  0  0  0  0  0  0
  186.1590  178.1080  137.6400 C   0  0  0  0  0  3  0  0  0  0  0  0
  186.2170  178.2200  140.4880 C   0  0  0  0  0  0  0  0  0  0  0  0
  188.6180  177.4800  141.8360 C   0  0  0  0  0  0  0  0  0  0  0  0
  192.0150  177.5360  140.9200 C   0  0  0  0  0  1  0  0  0  0  0  0
  189.9720  177.1170  142.3140 C   0  0  1  0  0  3  0  0  0  0  0  0
  192.0110  175.8210  144.4610 C   0  0  0  0  0  2  0  0  0  0  0  0
  189.2960  178.9850  144.6490 C   0  0  0  0  0  1  0  0  0  0  0  0
  187.4060  177.8510  138.3770 C   0  0  0  0  0  3  0  0  0  0  0  0
  187.4360  177.8980  139.7100 C   0  0  2  0  0  3  0  0  0  0  0  0
  188.7080  177.5860  144.8350 C   0  0  2  0  0  3  0  0  0  0  0  0
  183.7780  178.8090  144.6720 C   0  0  0  0  0  2  0  0  0  0  0  0
  181.4100  178.5660  143.9120 C   0  0  0  0  0  1  0  0  0  0  0  0
  182.7230  179.2940  143.6880 C   0  0  0  0  0  2  0  0  0  0  0  0
  1  4  1  0  0  0  0
  1  5  1  0  0  0  0
  2 16  1  0  0  0  0
  2 19  1  0  0  0  0
  3 17  1  0  0  0  0
  3 10  1  0  0  0  0
  5 11  2  0  0  0  0
  7 27  1  0  0  0  0
  7 15  1  6  0  0  0
  8  6  2  0  0  0  0
  9 14  1  1  0  0  0
  9  7  1  0  0  0  0
 10 21  1  1  0  0  0
 10 22  1  0  0  0  0
 11 28  1  0  0  0  0
 11  8  1  0  0  0  0
 12  4  1  6  0  0  0
 12  8  1  0  0  0  0
 12 27  1  0  0  0  0
 13  2  2  0  0  0  0
 14 23  1  0  0  0  0
 17 20  1  0  0  0  0
 18 13  1  0  0  0  0
 18 25  2  0  0  0  0
 19  1  2  0  0  0  0
 20  4  2  0  0  0  0
 22 20  1  6  0  0  0
 22  9  1  0  0  0  0
 23 15  1  0  0  0  0
 26 25  1  1  0  0  0
 26 17  1  0  0  0  0
 26 19  1  0  0  0  0
 27 24  1  6  0  0  0
 30 29  1  0  0  0  0
 30 28  1  0  0  0  0
M  END
>  <MODEL>
4

>  <REMARK>
 VINA RESULT:      -8.5      1.898      4.223
  Name = 
  2 active torsions:
  status: ('A' for Active; 'I' for Inactive)
    1  A    between atoms: C_11  and  C_28
    2  A    between atoms: C_28  and  C_30
                            x       y       z     vdW  Elec       q    Type
                         _______ _______ _______ _____ _____    ______ ____

>  <TORSDO>
F 2

$$$$
=
 OpenBabel11122410263D

 30 35  0  0  1  0  0  0  0  0999 V2000
  189.4800  177.5830  144.1350 C   0  0  0  0  0  0  0  0  0  0  0  0
  191.3950  177.0720  142.5950 C   0  0  0  0  0  0  0  0  0  0  0  0
  186.6950  178.2470  141.0560 N   0  0  0  0  0  2  0  0  0  0  0  0
  188.0400  177.9150  144.3940 C   0  0  0  0  0  0  0  0  0  0  0  0
  190.3600  177.3080  145.2850 C   0  0  0  0  0  3  0  0  0  0  0  0
  188.1570  177.6520  148.0760 O   0  0  0  0  0  0  0  0  0  0  0  0
  185.1880  179.0040  145.5960 C   0  0  1  0  0  3  0  0  0  0  0  0
  188.5420  177.7040  146.8750 C   0  0  0  0  0  0  0  0  0  0  0  0
  185.4260  179.4630  144.2170 N   0  0  2  0  0  0  0  0  0  0  0  0
  185.4970  178.6020  141.8340 C   0  0  1  0  0  3  0  0  0  0  0  0
  189.9370  177.3440  146.5470 C   0  0  0  0  0  0  0  0  0  0  0  0
  187.6030  178.2310  145.8160 C   0  0  2  0  0  3  0  0  0  0  0  0
  191.8220  177.3290  141.1730 C   0  0  0  0  0  3  0  0  0  0  0  0
  184.1470  180.0630  143.8270 C   0  0  0  0  0  2  0  0  0  0  0  0
  183.7190  178.6880  145.7690 C   0  0  0  0  0  2  0  0  0  0  0  0
  191.5470  175.7140  142.8760 O   0  0  0  0  0  1  0  0  0  0  0  0
  187.6720  177.9650  142.0170 N   0  0  0  0  0  0  0  0  0  0  0  0
  190.9540  177.6330  140.2030 C   0  0  0  0  0  3  0  0  0  0  0  0
  189.9640  177.4910  142.8730 C   0  0  0  0  0  0  0  0  0  0  0  0
  187.2080  178.0570  143.3400 C   0  0  0  0  0  0  0  0  0  0  0  0
  184.3180  177.7820  141.3520 C   0  0  0  0  0  1  0  0  0  0  0  0
  185.7520  178.3240  143.3370 C   0  0  1  0  0  3  0  0  0  0  0  0
  183.0360  179.4610  144.6710 C   0  0  0  0  0  2  0  0  0  0  0  0
  185.7380  176.4840  145.7890 C   0  0  0  0  0  1  0  0  0  0  0  0
  189.5200  177.7990  140.4820 C   0  0  0  0  0  3  0  0  0  0  0  0
  189.0530  177.7380  141.7310 C   0  0  2  0  0  3  0  0  0  0  0  0
  186.1370  177.9180  146.1410 C   0  0  2  0  0  3  0  0  0  0  0  0
  190.9130  177.0290  147.6360 C   0  0  0  0  0  2  0  0  0  0  0  0
  192.8990  175.6650  148.3000 C   0  0  0  0  0  1  0  0  0  0  0  0
  191.9510  176.0190  147.1690 C   0  0  0  0  0  2  0  0  0  0  0  0
  1  4  1  0  0  0  0
  1  5  1  0  0  0  0
  2 19  1  0  0  0  0
  2 16  1  0  0  0  0
  3 10  1  0  0  0  0
  3 17  1  0  0  0  0
  5 11  2  0  0  0  0
  7 15  1  6  0  0  0
  7 27  1  0  0  0  0
  8  6  2  0  0  0  0
  9 14  1  6  0  0  0
  9  7  1  0  0  0  0
 10 21  1  6  0  0  0
 10 22  1  0  0  0  0
 11  8  1  0  0  0  0
 11 28  1  0  0  0  0
 12  4  1  6  0  0  0
 12 27  1  0  0  0  0
 12  8  1  0  0  0  0
 13  2  2  0  0  0  0
 14 23  1  0  0  0  0
 17 20  1  0  0  0  0
 18 25  2  0  0  0  0
 18 13  1  0  0  0  0
 19  1  2  0  0  0  0
 20  4  2  0  0  0  0
 22 20  1  6  0  0  0
 22  9  1  0  0  0  0
 23 15  1  0  0  0  0
 26 25  1  1  0  0  0
 26 17  1  0  0  0  0
 26 19  1  0  0  0  0
 27 24  1  6  0  0  0
 30 28  1  0  0  0  0
 30 29  1  0  0  0  0
M  END
>  <MODEL>
5

>  <REMARK>
 VINA RESULT:      -8.4      1.774      5.515
  Name = 
  2 active torsions:
  status: ('A' for Active; 'I' for Inactive)
    1  A    between atoms: C_11  and  C_28
    2  A    between atoms: C_28  and  C_30
                            x       y       z     vdW  Elec       q    Type
                         _______ _______ _______ _____ _____    ______ ____

>  <TORSDO>
F 2

$$$$
=
 OpenBabel11122410263D

 30 35  0  0  1  0  0  0  0  0999 V2000
  184.9710  178.4780  141.5860 C   0  0  0  0  0  0  0  0  0  0  0  0
  185.1200  178.6770  139.0880 C   0  0  2  0  0  3  0  0  0  0  0  0
  189.1150  178.0830  142.1760 N   0  0  0  0  0  2  0  0  0  0  0  0
  185.5930  178.3490  142.9440 C   0  0  0  0  0  0  0  0  0  0  0  0
  183.5130  178.6730  141.4910 C   0  0  0  0  0  3  0  0  0  0  0  0
  182.4920  178.7200  144.9140 O   0  0  0  0  0  0  0  0  0  0  0  0
  186.2820  177.6880  146.0840 C   0  0  1  0  0  3  0  0  0  0  0  0
  183.2610  178.5760  143.9250 C   0  0  0  0  0  0  0  0  0  0  0  0
  187.3010  177.1560  145.1640 N   0  0  2  0  0  0  0  0  0  0  0  0
  189.1750  177.9170  143.6370 C   0  0  1  0  0  3  0  0  0  0  0  0
  182.7200  178.7360  142.5590 C   0  0  0  0  0  0  0  0  0  0  0  0
  184.6900  178.1420  144.1510 C   0  0  2  0  0  3  0  0  0  0  0  0
  186.0580  178.3170  137.9640 C   0  0  0  0  0  3  0  0  0  0  0  0
  188.3770  176.7170  146.0560 C   0  0  0  0  0  2  0  0  0  0  0  0
  186.9610  178.2020  147.3350 C   0  0  0  0  0  2  0  0  0  0  0  0
  184.7390  180.0130  138.9510 O   0  0  0  0  0  1  0  0  0  0  0  0
  187.7570  178.2670  141.8950 N   0  0  0  0  0  0  0  0  0  0  0  0
  187.3620  178.0990  138.1540 C   0  0  0  0  0  3  0  0  0  0  0  0
  185.7270  178.4610  140.4610 C   0  0  0  0  0  0  0  0  0  0  0  0
  186.9390  178.2820  143.0370 C   0  0  0  0  0  0  0  0  0  0  0  0
  190.2030  178.8690  144.2140 C   0  0  0  0  0  1  0  0  0  0  0  0
  187.7830  178.2110  144.2520 C   0  0  1  0  0  3  0  0  0  0  0  0
  188.2880  177.4890  147.3620 C   0  0  0  0  0  2  0  0  0  0  0  0
  185.6900  180.1190  145.4250 C   0  0  0  0  0  1  0  0  0  0  0  0
  187.9570  178.1330  139.4990 C   0  0  0  0  0  3  0  0  0  0  0  0
  187.1950  178.2990  140.5820 C   0  0  0  0  0  0  0  0  0  0  0  0
  185.2420  178.6580  145.4850 C   0  0  2  0  0  3  0  0  0  0  0  0
  181.2550  178.9570  142.3480 C   0  0  0  0  0  2  0  0  0  0  0  0
  179.8670  177.4420  140.9260 C   0  0  0  0  0  1  0  0  0  0  0  0
  180.8450  178.6020  140.9260 C   0  0  0  0  0  2  0  0  0  0  0  0
  1  4  1  0  0  0  0
  2 16  1  6  0  0  0
  2 19  1  0  0  0  0
  3 10  1  0  0  0  0
  4 20  2  0  0  0  0
  5  1  1  0  0  0  0
  5 11  2  0  0  0  0
  7 15  1  1  0  0  0
  8 12  1  0  0  0  0
  8  6  2  0  0  0  0
  9 14  1  1  0  0  0
  9  7  1  0  0  0  0
 10 21  1  1  0  0  0
 10 22  1  0  0  0  0
 11  8  1  0  0  0  0
 12  4  1  6  0  0  0
 12 27  1  0  0  0  0
 13 18  2  0  0  0  0
 13  2  1  0  0  0  0
 14 23  1  0  0  0  0
 15 23  1  0  0  0  0
 17  3  1  0  0  0  0
 17 20  1  0  0  0  0
 18 25  1  0  0  0  0
 19 26  1  0  0  0  0
 19  1  2  0  0  0  0
 22 20  1  6  0  0  0
 22  9  1  0  0  0  0
 25 26  2  0  0  0  0
 26 17  1  0  0  0  0
 27 24  1  6  0  0  0
 27  7  1  0  0  0  0
 28 11  1  0  0  0  0
 30 29  1  0  0  0  0
 30 28  1  0  0  0  0
M  END
>  <MODEL>
6

>  <REMARK>
 VINA RESULT:      -8.3      2.293      6.166
  Name = 
  2 active torsions:
  status: ('A' for Active; 'I' for Inactive)
    1  A    between atoms: C_11  and  C_28
    2  A    between atoms: C_28  and  C_30
                            x       y       z     vdW  Elec       q    Type
                         _______ _______ _______ _____ _____    ______ ____

>  <TORSDO>
F 2

$$$$
=
 OpenBabel11122410263D

 30 35  0  0  1  0  0  0  0  0999 V2000
  187.1960  178.0150  142.5040 C   0  0  0  0  0  0  0  0  0  0  0  0
  189.5920  177.2910  142.6930 C   0  0  0  0  0  0  0  0  0  0  0  0
  187.1870  178.1810  138.3030 N   0  0  0  0  0  2  0  0  0  0  0  0
  185.9790  178.3720  141.7040 C   0  0  0  0  0  0  0  0  0  0  0  0
  187.0780  177.9260  143.9710 C   0  0  0  0  0  3  0  0  0  0  0  0
  183.6310  178.6740  144.5390 O   0  0  0  0  0  0  0  0  0  0  0  0
  183.1570  179.6100  140.5770 C   0  0  1  0  0  3  0  0  0  0  0  0
  184.7100  178.5460  143.8980 C   0  0  0  0  0  0  0  0  0  0  0  0
  184.2820  179.8550  139.6580 N   0  0  2  0  0  0  0  0  0  0  0  0
  185.8130  178.6410  138.0440 C   0  0  1  0  0  3  0  0  0  0  0  0
  185.9370  178.1510  144.6200 C   0  0  0  0  0  0  0  0  0  0  0  0
  184.7500  178.8980  142.4300 C   0  0  2  0  0  3  0  0  0  0  0  0
  190.8680  177.3310  141.8910 C   0  0  0  0  0  3  0  0  0  0  0  0
  183.6350  180.3790  138.4520 C   0  0  0  0  0  2  0  0  0  0  0  0
  181.9120  179.3130  139.7710 C   0  0  0  0  0  2  0  0  0  0  0  0
  189.3930  175.9920  143.1630 O   0  0  0  0  0  1  0  0  0  0  0  0
  187.2640  178.0560  139.6940 N   0  0  0  0  0  0  0  0  0  0  0  0
  190.8810  177.4760  140.5630 C   0  0  0  0  0  3  0  0  0  0  0  0
  188.3770  177.7360  141.9010 C   0  0  0  0  0  0  0  0  0  0  0  0
  186.0580  178.3450  140.3560 C   0  0  0  0  0  0  0  0  0  0  0  0
  185.1670  177.7480  137.0050 C   0  0  0  0  0  1  0  0  0  0  0  0
  184.9930  178.5970  139.3590 C   0  0  1  0  0  3  0  0  0  0  0  0
  182.1920  179.9040  138.4140 C   0  0  0  0  0  2  0  0  0  0  0  0
  183.2030  177.1530  141.3850 C   0  0  0  0  0  1  0  0  0  0  0  0
  189.6380  177.6730  139.8010 C   0  0  0  0  0  3  0  0  0  0  0  0
  188.4640  177.7990  140.4230 C   0  0  2  0  0  3  0  0  0  0  0  0
  183.4080  178.6260  141.7380 C   0  0  2  0  0  3  0  0  0  0  0  0
  185.9260  178.0130  146.1100 C   0  0  0  0  0  2  0  0  0  0  0  0
  187.5960  178.2020  147.9590 C   0  0  0  0  0  1  0  0  0  0  0  0
  187.2770  177.5440  146.6300 C   0  0  0  0  0  2  0  0  0  0  0  0
  1  5  1  0  0  0  0
  2 16  1  0  0  0  0
  3 17  1  0  0  0  0
  4  1  1  0  0  0  0
  5 11  2  0  0  0  0
  7 15  1  6  0  0  0
  7 27  1  0  0  0  0
  8  6  2  0  0  0  0
  8 11  1  0  0  0  0
  9 14  1  6  0  0  0
  9  7  1  0  0  0  0
 10 21  1  6  0  0  0
 10  3  1  0  0  0  0
 10 22  1  0  0  0  0
 11 28  1  0  0  0  0
 12  4  1  6  0  0  0
 12  8  1  0  0  0  0
 13  2  2  0  0  0  0
 17 20  1  0  0  0  0
 17 26  1  0  0  0  0
 18 13  1  0  0  0  0
 19  1  2  0  0  0  0
 19  2  1  0  0  0  0
 20  4  2  0  0  0  0
 22  9  1  0  0  0  0
 22 20  1  1  0  0  0
 23 14  1  0  0  0  0
 23 15  1  0  0  0  0
 25 18  2  0  0  0  0
 26 25  1  1  0  0  0
 26 19  1  0  0  0  0
 27 24  1  6  0  0  0
 27 12  1  0  0  0  0
 28 30  1  0  0  0  0
 30 29  1  0  0  0  0
M  END
>  <MODEL>
7

>  <REMARK>
 VINA RESULT:      -8.0      2.007      5.707
  Name = 
  2 active torsions:
  status: ('A' for Active; 'I' for Inactive)
    1  A    between atoms: C_11  and  C_28
    2  A    between atoms: C_28  and  C_30
                            x       y       z     vdW  Elec       q    Type
                         _______ _______ _______ _____ _____    ______ ____

>  <TORSDO>
F 2

$$$$
=
 OpenBabel11122410263D

 30 35  0  0  1  0  0  0  0  0999 V2000
  188.0720  178.0560  141.2560 C   0  0  0  0  0  0  0  0  0  0  0  0
  189.1540  177.9220  143.5160 C   0  0  0  0  0  0  0  0  0  0  0  0
  191.4480  176.7060  139.1460 N   0  0  0  0  0  2  0  0  0  0  0  0
  188.0810  177.8620  139.7690 C   0  0  0  0  0  0  0  0  0  0  0  0
  186.8170  178.4750  141.9070 C   0  0  0  0  0  3  0  0  0  0  0  0
  184.5350  178.6990  139.1670 O   0  0  0  0  0  0  0  0  0  0  0  0
  187.6010  178.0480  136.5280 C   0  0  1  0  0  3  0  0  0  0  0  0
  185.6390  178.5600  139.7620 C   0  0  0  0  0  0  0  0  0  0  0  0
  189.0250  178.1600  136.8900 N   0  0  2  0  0  0  0  0  0  0  0  0
  190.9560  176.7700  137.7600 C   0  0  1  0  0  3  0  0  0  0  0  0
  185.6890  178.6940  141.2330 C   0  0  0  0  0  0  0  0  0  0  0  0
  186.8990  178.3660  138.9540 C   0  0  2  0  0  3  0  0  0  0  0  0
  190.5310  177.9180  144.1290 C   0  0  0  0  0  3  0  0  0  0  0  0
  189.7160  178.0840  135.6010 C   0  0  0  0  0  2  0  0  0  0  0  0
  187.4750  177.2490  135.2500 C   0  0  0  0  0  2  0  0  0  0  0  0
  188.4170  176.8640  144.0510 O   0  0  0  0  0  1  0  0  0  0  0  0
  190.3590  177.1030  139.9280 N   0  0  0  0  0  0  0  0  0  0  0  0
  191.6260  177.5790  143.4410 C   0  0  0  0  0  3  0  0  0  0  0  0
  189.1750  177.8130  142.0040 C   0  0  0  0  0  0  0  0  0  0  0  0
  189.1970  177.3710  139.1860 C   0  0  0  0  0  0  0  0  0  0  0  0
  191.2440  175.4580  137.0590 C   0  0  0  0  0  1  0  0  0  0  0  0
  189.4300  177.0410  137.7620 C   0  0  1  0  0  3  0  0  0  0  0  0
  188.8310  177.3590  134.6020 C   0  0  0  0  0  2  0  0  0  0  0  0
  186.5140  176.1000  137.8370 C   0  0  0  0  0  1  0  0  0  0  0  0
  191.5600  177.2470  142.0100 C   0  0  0  0  0  3  0  0  0  0  0  0
  190.4160  177.3590  141.3320 C   0  0  2  0  0  3  0  0  0  0  0  0
  186.6320  177.6120  137.6450 C   0  0  2  0  0  3  0  0  0  0  0  0
  184.4680  179.0970  141.9980 C   0  0  0  0  0  2  0  0  0  0  0  0
  183.2720  178.9870  144.1890 C   0  0  0  0  0  1  0  0  0  0  0  0
  184.5400  178.6170  143.4400 C   0  0  0  0  0  2  0  0  0  0  0  0
  1  5  1  0  0  0  0
  1 19  2  0  0  0  0
  2 16  1  0  0  0  0
  2 13  2  0  0  0  0
  3 17  1  0  0  0  0
  4  1  1  0  0  0  0
  6  8  2  0  0  0  0
  7 15  1  6  0  0  0
  7  9  1  0  0  0  0
  7 27  1  0  0  0  0
  8 11  1  0  0  0  0
  9 14  1  6  0  0  0
  9 22  1  0  0  0  0
 10 21  1  1  0  0  0
 10 22  1  0  0  0  0
 10  3  1  0  0  0  0
 11  5  2  0  0  0  0
 11 28  1  0  0  0  0
 12  8  1  1  0  0  0
 12  4  1  0  0  0  0
 17 26  1  0  0  0  0
 18 13  1  0  0  0  0
 19  2  1  0  0  0  0
 20  4  2  0  0  0  0
 20 17  1  0  0  0  0
 22 20  1  1  0  0  0
 23 15  1  0  0  0  0
 23 14  1  0  0  0  0
 25 18  2  0  0  0  0
 26 19  1  0  0  0  0
 26 25  1  6  0  0  0
 27 24  1  1  0  0  0
 27 12  1  0  0  0  0
 28 30  1  0  0  0  0
 30 29  1  0  0  0  0
M  END
>  <MODEL>
8

>  <REMARK>
 VINA RESULT:      -8.0      2.532      5.911
  Name = 
  2 active torsions:
  status: ('A' for Active; 'I' for Inactive)
    1  A    between atoms: C_11  and  C_28
    2  A    between atoms: C_28  and  C_30
                            x       y       z     vdW  Elec       q    Type
                         _______ _______ _______ _____ _____    ______ ____

>  <TORSDO>
F 2

$$$$
=
 OpenBabel11122410263D

 30 35  0  0  1  0  0  0  0  0999 V2000
  186.0860  178.2200  143.0510 C   0  0  0  0  0  0  0  0  0  0  0  0
  185.6210  178.5480  140.6060 C   0  0  2  0  0  3  0  0  0  0  0  0
  190.2490  177.8590  142.5930 N   0  0  0  0  0  2  0  0  0  0  0  0
  187.0200  178.0310  144.2080 C   0  0  0  0  0  0  0  0  0  0  0  0
  184.6480  178.3980  143.3240 C   0  0  0  0  0  3  0  0  0  0  0  0
  184.4920  178.2550  146.8900 O   0  0  0  0  0  0  0  0  0  0  0  0
  188.4550  177.2230  147.0470 C   0  0  1  0  0  3  0  0  0  0  0  0
  184.9970  178.1730  145.7370 C   0  0  0  0  0  0  0  0  0  0  0  0
  189.2200  176.7530  145.8790 N   0  0  2  0  0  0  0  0  0  0  0  0
  190.6640  177.6190  143.9850 C   0  0  1  0  0  3  0  0  0  0  0  0
  184.1390  178.3940  144.5550 C   0  0  0  0  0  0  0  0  0  0  0  0
  186.4390  177.7500  145.5860 C   0  0  2  0  0  3  0  0  0  0  0  0
  186.2570  178.2600  139.2700 C   0  0  0  0  0  3  0  0  0  0  0  0
  190.4830  176.2860  146.4590 C   0  0  0  0  0  2  0  0  0  0  0  0
  189.4170  177.6820  148.1200 C   0  0  0  0  0  2  0  0  0  0  0  0
  185.2150  179.8830  140.6370 O   0  0  0  0  0  1  0  0  0  0  0  0
  188.8630  178.0360  142.6610 N   0  0  0  0  0  0  0  0  0  0  0  0
  187.5690  178.0520  139.1260 C   0  0  0  0  0  3  0  0  0  0  0  0
  186.5450  178.2720  141.7770 C   0  0  0  0  0  0  0  0  0  0  0  0
  188.3490  177.9810  143.9670 C   0  0  0  0  0  0  0  0  0  0  0  0
  191.7990  178.5560  144.3440 C   0  0  0  0  0  1  0  0  0  0  0  0
  189.4630  177.8600  144.9340 C   0  0  1  0  0  3  0  0  0  0  0  0
  190.7130  176.9900  147.7850 C   0  0  0  0  0  2  0  0  0  0  0  0
  187.7140  179.6740  146.6810 C   0  0  0  0  0  1  0  0  0  0  0  0
  188.4740  178.0270  140.2850 C   0  0  0  0  0  3  0  0  0  0  0  0
  187.9980  178.1260  141.5280 C   0  0  0  0  0  0  0  0  0  0  0  0
  187.2990  178.2060  146.7700 C   0  0  2  0  0  3  0  0  0  0  0  0
  182.6660  178.6030  144.7180 C   0  0  0  0  0  2  0  0  0  0  0  0
  180.5330  178.6680  143.4180 C   0  0  0  0  0  1  0  0  0  0  0  0
  182.0160  178.9900  143.3980 C   0  0  0  0  0  2  0  0  0  0  0  0
  1  5  1  0  0  0  0
  1  4  1  0  0  0  0
  2 16  1  6  0  0  0
  2 19  1  0  0  0  0
  3 17  1  0  0  0  0
  3 10  1  0  0  0  0
  5 11  2  0  0  0  0
  7 15  1  1  0  0  0
  8  6  2  0  0  0  0
  9 14  1  1  0  0  0
  9  7  1  0  0  0  0
 10 21  1  1  0  0  0
 10 22  1  0  0  0  0
 11 28  1  0  0  0  0
 11  8  1  0  0  0  0
 12  4  1  6  0  0  0
 12  8  1  0  0  0  0
 12 27  1  0  0  0  0
 13  2  1  0  0  0  0
 14 23  1  0  0  0  0
 17 20  1  0  0  0  0
 18 13  2  0  0  0  0
 18 25  1  0  0  0  0
 19  1  2  0  0  0  0
 20  4  2  0  0  0  0
 22 20  1  6  0  0  0
 22  9  1  0  0  0  0
 23 15  1  0  0  0  0
 25 26  2  0  0  0  0
 26 19  1  0  0  0  0
 26 17  1  0  0  0  0
 27 24  1  6  0  0  0
 27  7  1  0  0  0  0
 30 29  1  0  0  0  0
 30 28  1  0  0  0  0
M  END
>  <MODEL>
9

>  <REMARK>
 VINA RESULT:      -7.7      2.006      5.246
  Name = 
  2 active torsions:
  status: ('A' for Active; 'I' for Inactive)
    1  A    between atoms: C_11  and  C_28
    2  A    between atoms: C_28  and  C_30
                            x       y       z     vdW  Elec       q    Type
                         _______ _______ _______ _____ _____    ______ ____

>  <TORSDO>
F 2

$$$$
