=
 OpenBabel11122412213D

 34 41  0  0  1  0  0  0  0  0999 V2000
  187.6100  178.0970  141.6450 C   0  0  0  0  0  0  0  0  0  0  0  0
  185.7420  178.5900  139.9530 C   0  0  0  0  0  3  0  0  0  0  0  0
  189.9980  177.2980  147.7580 C   0  0  0  0  0  0  0  0  0  0  0  0
  189.2000  177.4670  143.3790 C   0  0  0  0  0  0  0  0  0  0  0  0
  188.5750  177.3550  145.7670 C   0  0  0  0  0  0  0  0  0  0  0  0
  188.0470  177.5280  148.1920 C   0  0  0  0  0  2  0  0  0  0  0  0
  189.2510  177.9390  148.8140 O   0  0  0  0  0  0  0  0  0  0  0  0
  191.6000  176.5030  146.1480 C   0  0  0  0  0  3  0  0  0  0  0  0
  185.2460  178.5540  142.2580 C   0  0  0  0  0  0  0  0  0  0  0  0
  182.4420  178.9480  143.5560 C   0  0  0  0  0  3  0  0  0  0  0  0
  187.3030  178.1200  145.4740 C   0  0  0  0  0  3  0  0  0  0  0  0
  190.8320  176.4740  145.0480 C   0  0  0  0  0  3  0  0  0  0  0  0
  185.5840  178.4190  143.6970 C   0  0  1  0  0  3  0  0  0  0  0  0
  184.2490  178.8090  140.1750 C   0  0  0  0  0  3  0  0  0  0  0  0
  189.5070  177.1300  144.7990 C   0  0  0  0  0  0  0  0  0  0  0  0
  191.2630  177.1750  147.4090 C   0  0  0  0  0  3  0  0  0  0  0  0
  182.7200  178.8790  142.2500 C   0  0  0  0  0  0  0  0  0  0  0  0
  187.9120  177.8910  143.0010 C   0  0  0  0  0  0  0  0  0  0  0  0
  188.7380  176.8020  147.1640 C   0  0  2  0  0  3  0  0  0  0  0  0
  186.8670  178.1080  144.0320 C   0  0  0  0  0  0  0  0  0  0  0  0
  189.8840  177.5420  141.0400 C   0  0  0  0  0  3  0  0  0  0  0  0
  183.3210  178.9010  144.7240 C   0  0  0  0  0  3  0  0  0  0  0  0
  190.1800  177.3050  142.3830 C   0  0  0  0  0  3  0  0  0  0  0  0
  184.6270  178.6770  144.7850 C   0  0  0  0  0  3  0  0  0  0  0  0
  184.0710  178.7560  141.6680 C   0  0  0  0  0  0  0  0  0  0  0  0
  188.5970  177.9300  140.6670 C   0  0  0  0  0  3  0  0  0  0  0  0
  186.2750  178.4550  141.2920 N   0  0  0  0  0  0  0  0  0  0  0  0
  181.6600  178.9500  141.3320 O   0  0  0  0  0  0  0  0  0  0  0  0
  180.4890  178.1360  141.3940 C   0  0  0  0  0  2  0  0  0  0  0  0
  179.4740  181.1810  141.9930 O   0  0  0  0  0  0  0  0  0  0  0  0
  179.4600  179.9080  140.0070 C   0  0  0  0  0  2  0  0  0  0  0  0
  179.2410  178.9750  141.1630 C   0  0  2  0  0  3  0  0  0  0  0  0
  179.2720  181.2780  140.6100 C   0  0  0  0  0  2  0  0  0  0  0  0
  179.0270  179.8980  142.3400 C   0  0  0  0  0  2  0  0  0  0  0  0
  1 18  1  0  0  0  0
  2 14  2  0  0  0  0
  2 27  1  0  0  0  0
  3  7  1  0  0  0  0
  4 15  1  0  0  0  0
  5 19  1  0  0  0  0
  6  7  1  0  0  0  0
  8 16  1  0  0  0  0
  9 13  1  0  0  0  0
 10 22  1  0  0  0  0
 11  5  1  0  0  0  0
 12  8  2  0  0  0  0
 13 20  1  0  0  0  0
 13 24  1  1  0  0  0
 14 25  1  0  0  0  0
 15 12  1  0  0  0  0
 15  5  2  0  0  0  0
 16  3  2  0  0  0  0
 17 10  2  0  0  0  0
 18  4  2  0  0  0  0
 18 20  1  0  0  0  0
 19  3  1  0  0  0  0
 19  6  1  1  0  0  0
 20 11  2  0  0  0  0
 21 23  2  0  0  0  0
 22 24  2  0  0  0  0
 23  4  1  0  0  0  0
 25 17  1  0  0  0  0
 25  9  2  0  0  0  0
 26 21  1  0  0  0  0
 26  1  2  0  0  0  0
 27  1  1  0  0  0  0
 27  9  1  0  0  0  0
 28 29  1  0  0  0  0
 28 17  1  0  0  0  0
 30 34  1  0  0  0  0
 31 33  1  0  0  0  0
 31 32  1  0  0  0  0
 32 29  1  1  0  0  0
 32 34  1  0  0  0  0
 33 30  1  0  0  0  0
M  END
>  <MODEL>
1

>  <REMARK>
 VINA RESULT:     -11.7      0.000      0.000
  Name = 
  3 active torsions:
  status: ('A' for Active; 'I' for Inactive)
    1  A    between atoms: C_17  and  O_28
    2  A    between atoms: O_28  and  C_29
    3  A    between atoms: C_29  and  C_32
                            x       y       z     vdW  Elec       q    Type
                         _______ _______ _______ _____ _____    ______ ____

>  <TORSDO>
F 3

$$$$
=
 OpenBabel11122412213D

 34 41  0  0  1  0  0  0  0  0999 V2000
  187.3940  178.1920  141.6550 C   0  0  0  0  0  0  0  0  0  0  0  0
  185.4800  178.6790  140.0140 C   0  0  0  0  0  3  0  0  0  0  0  0
  189.9350  177.3390  147.6990 C   0  0  0  0  0  0  0  0  0  0  0  0
  189.0350  177.5630  143.3430 C   0  0  0  0  0  0  0  0  0  0  0  0
  188.4660  177.4020  145.7420 C   0  0  0  0  0  0  0  0  0  0  0  0
  187.9910  177.5270  148.1810 C   0  0  0  0  0  2  0  0  0  0  0  0
  189.2020  177.9490  148.7820 O   0  0  0  0  0  0  0  0  0  0  0  0
  191.5140  176.5970  146.0410 C   0  0  0  0  0  3  0  0  0  0  0  0
  185.0370  178.5980  142.3290 C   0  0  0  0  0  0  0  0  0  0  0  0
  182.2570  178.9220  143.6970 C   0  0  0  0  0  3  0  0  0  0  0  0
  187.1750  178.1490  145.4900 C   0  0  0  0  0  3  0  0  0  0  0  0
  190.7210  176.5720  144.9580 C   0  0  0  0  0  3  0  0  0  0  0  0
  185.4110  178.4450  143.7580 C   0  0  1  0  0  3  0  0  0  0  0  0
  183.9880  178.8680  140.2740 C   0  0  0  0  0  3  0  0  0  0  0  0
  189.3800  177.2090  144.7490 C   0  0  0  0  0  0  0  0  0  0  0  0
  191.1940  177.2440  147.3190 C   0  0  0  0  0  3  0  0  0  0  0  0
  182.5060  178.8780  142.3840 C   0  0  0  0  0  0  0  0  0  0  0  0
  187.7300  177.9700  143.0010 C   0  0  0  0  0  0  0  0  0  0  0  0
  188.6700  176.8290  147.1250 C   0  0  2  0  0  3  0  0  0  0  0  0
  186.7060  178.1520  144.0590 C   0  0  0  0  0  0  0  0  0  0  0  0
  189.6630  177.6870  140.9900 C   0  0  0  0  0  3  0  0  0  0  0  0
  183.1640  178.8720  144.8430 C   0  0  0  0  0  3  0  0  0  0  0  0
  189.9930  177.4330  142.3220 C   0  0  0  0  0  3  0  0  0  0  0  0
  184.4740  178.6700  144.8710 C   0  0  0  0  0  3  0  0  0  0  0  0
  183.8450  178.7880  141.7690 C   0  0  0  0  0  0  0  0  0  0  0  0
  188.3610  178.0580  140.6530 C   0  0  0  0  0  3  0  0  0  0  0  0
  186.0450  178.5310  141.3380 N   0  0  0  0  0  0  0  0  0  0  0  0
  181.4240  178.9440  141.4910 O   0  0  0  0  0  0  0  0  0  0  0  0
  180.1170  178.4490  141.7770 C   0  0  0  0  0  2  0  0  0  0  0  0
  181.2330  176.5620  139.3580 O   0  0  0  0  0  0  0  0  0  0  0  0
  179.4650  176.2350  140.8860 C   0  0  0  0  0  2  0  0  0  0  0  0
  179.5530  177.7020  140.5780 C   0  0  2  0  0  3  0  0  0  0  0  0
  180.3390  175.5940  139.8360 C   0  0  0  0  0  2  0  0  0  0  0  0
  180.5320  177.7750  139.4300 C   0  0  0  0  0  2  0  0  0  0  0  0
  1 18  1  0  0  0  0
  2 14  2  0  0  0  0
  2 27  1  0  0  0  0
  3  7  1  0  0  0  0
  4 15  1  0  0  0  0
  5 19  1  0  0  0  0
  6  7  1  0  0  0  0
  8 16  1  0  0  0  0
  9 13  1  0  0  0  0
 10 22  1  0  0  0  0
 11  5  1  0  0  0  0
 12  8  2  0  0  0  0
 13 20  1  0  0  0  0
 13 24  1  1  0  0  0
 14 25  1  0  0  0  0
 15 12  1  0  0  0  0
 15  5  2  0  0  0  0
 16  3  2  0  0  0  0
 17 10  2  0  0  0  0
 18  4  2  0  0  0  0
 18 20  1  0  0  0  0
 19  3  1  0  0  0  0
 19  6  1  1  0  0  0
 20 11  2  0  0  0  0
 21 23  2  0  0  0  0
 22 24  2  0  0  0  0
 23  4  1  0  0  0  0
 25  9  2  0  0  0  0
 25 17  1  0  0  0  0
 26 21  1  0  0  0  0
 26  1  2  0  0  0  0
 27  1  1  0  0  0  0
 27  9  1  0  0  0  0
 28 29  1  0  0  0  0
 28 17  1  0  0  0  0
 30 34  1  0  0  0  0
 30 33  1  0  0  0  0
 32 31  1  0  0  0  0
 32 29  1  1  0  0  0
 33 31  1  0  0  0  0
 34 32  1  0  0  0  0
M  END
>  <MODEL>
2

>  <REMARK>
 VINA RESULT:     -11.6      0.953      1.702
  Name = 
  3 active torsions:
  status: ('A' for Active; 'I' for Inactive)
    1  A    between atoms: C_17  and  O_28
    2  A    between atoms: O_28  and  C_29
    3  A    between atoms: C_29  and  C_32
                            x       y       z     vdW  Elec       q    Type
                         _______ _______ _______ _____ _____    ______ ____

>  <TORSDO>
F 3

$$$$
=
 OpenBabel11122412213D

 34 41  0  0  1  0  0  0  0  0999 V2000
  189.9430  177.5690  141.7100 C   0  0  0  0  0  0  0  0  0  0  0  0
  190.1660  177.5070  139.1520 C   0  0  0  0  0  3  0  0  0  0  0  0
  186.5790  178.4110  147.3390 C   0  0  0  0  0  0  0  0  0  0  0  0
  189.4970  177.4870  144.1030 C   0  0  0  0  0  0  0  0  0  0  0  0
  187.2470  177.8900  145.0420 C   0  0  0  0  0  0  0  0  0  0  0  0
  185.0680  178.5870  146.0210 C   0  0  0  0  0  2  0  0  0  0  0  0
  185.3890  179.2230  147.2450 O   0  0  0  0  0  0  0  0  0  0  0  0
  188.7040  177.3840  147.8070 C   0  0  0  0  0  3  0  0  0  0  0  0
  188.0700  177.9760  140.1280 C   0  0  0  0  0  0  0  0  0  0  0  0
  185.3870  178.4490  138.6180 C   0  0  0  0  0  3  0  0  0  0  0  0
  186.7940  178.4670  143.7190 C   0  0  0  0  0  3  0  0  0  0  0  0
  189.0770  177.0400  146.5640 C   0  0  0  0  0  3  0  0  0  0  0  0
  187.1470  178.2080  141.2670 C   0  0  1  0  0  3  0  0  0  0  0  0
  189.1010  177.6580  138.0700 C   0  0  0  0  0  3  0  0  0  0  0  0
  188.5420  177.5170  145.2470 C   0  0  0  0  0  0  0  0  0  0  0  0
  187.6140  178.3070  148.1480 C   0  0  0  0  0  3  0  0  0  0  0  0
  186.5600  178.0960  138.0810 C   0  0  0  0  0  0  0  0  0  0  0  0
  189.0520  177.7100  142.7860 C   0  0  0  0  0  0  0  0  0  0  0  0
  186.1910  177.6950  146.1040 C   0  0  2  0  0  3  0  0  0  0  0  0
  187.6380  178.0840  142.5310 C   0  0  0  0  0  0  0  0  0  0  0  0
  191.7400  177.0620  143.2460 C   0  0  0  0  0  3  0  0  0  0  0  0
  185.0210  178.7440  140.0030 C   0  0  0  0  0  3  0  0  0  0  0  0
  190.8500  177.1700  144.3160 C   0  0  0  0  0  3  0  0  0  0  0  0
  185.7500  178.6410  141.1060 C   0  0  0  0  0  3  0  0  0  0  0  0
  187.8290  177.9440  138.8200 C   0  0  0  0  0  0  0  0  0  0  0  0
  191.2860  177.2530  141.9410 C   0  0  0  0  0  3  0  0  0  0  0  0
  189.4400  177.7310  140.3840 N   0  0  0  0  0  0  0  0  0  0  0  0
  186.6250  177.8690  136.6960 O   0  0  0  0  0  0  0  0  0  0  0  0
  185.5350  177.3870  135.9110 C   0  0  0  0  0  2  0  0  0  0  0  0
  187.4890  174.9290  136.8020 O   0  0  0  0  0  0  0  0  0  0  0  0
  185.1390  175.0530  136.6270 C   0  0  0  0  0  2  0  0  0  0  0  0
  185.7350  175.9220  135.5570 C   0  0  2  0  0  3  0  0  0  0  0  0
  186.3100  174.2430  137.1270 C   0  0  0  0  0  2  0  0  0  0  0  0
  187.2090  175.5890  135.5970 C   0  0  0  0  0  2  0  0  0  0  0  0
  1 26  2  0  0  0  0
  1 18  1  0  0  0  0
  2 27  1  0  0  0  0
  3 16  2  0  0  0  0
  4 23  1  0  0  0  0
  4 15  1  0  0  0  0
  5 15  2  0  0  0  0
  5 19  1  0  0  0  0
  6  7  1  0  0  0  0
  7  3  1  0  0  0  0
  8 16  1  0  0  0  0
  9 27  1  0  0  0  0
  9 13  1  0  0  0  0
 10 22  1  0  0  0  0
 11  5  1  0  0  0  0
 12  8  2  0  0  0  0
 13 24  1  1  0  0  0
 13 20  1  0  0  0  0
 14 25  1  0  0  0  0
 14  2  2  0  0  0  0
 15 12  1  0  0  0  0
 17 10  2  0  0  0  0
 17 25  1  0  0  0  0
 18  4  2  0  0  0  0
 19  6  1  6  0  0  0
 19  3  1  0  0  0  0
 20 18  1  0  0  0  0
 20 11  2  0  0  0  0
 21 23  2  0  0  0  0
 22 24  2  0  0  0  0
 25  9  2  0  0  0  0
 26 21  1  0  0  0  0
 27  1  1  0  0  0  0
 28 17  1  0  0  0  0
 29 28  1  0  0  0  0
 30 33  1  0  0  0  0
 31 33  1  0  0  0  0
 32 34  1  0  0  0  0
 32 29  1  1  0  0  0
 32 31  1  0  0  0  0
 34 30  1  0  0  0  0
M  END
>  <MODEL>
3

>  <REMARK>
 VINA RESULT:     -11.4      3.307      5.331
  Name = 
  3 active torsions:
  status: ('A' for Active; 'I' for Inactive)
    1  A    between atoms: C_17  and  O_28
    2  A    between atoms: O_28  and  C_29
    3  A    between atoms: C_29  and  C_32
                            x       y       z     vdW  Elec       q    Type
                         _______ _______ _______ _____ _____    ______ ____

>  <TORSDO>
F 3

$$$$
=
 OpenBabel11122412213D

 34 41  0  0  1  0  0  0  0  0999 V2000
  184.7730  178.5620  142.8390 C   0  0  0  0  0  0  0  0  0  0  0  0
  183.9520  178.8900  140.4280 C   0  0  0  0  0  3  0  0  0  0  0  0
  189.3480  177.1110  147.3860 C   0  0  0  0  0  0  0  0  0  0  0  0
  185.7780  178.3920  145.0520 C   0  0  0  0  0  0  0  0  0  0  0  0
  188.1710  177.8730  145.3790 C   0  0  0  0  0  0  0  0  0  0  0  0
  190.4960  177.0590  145.7340 C   0  0  0  0  0  2  0  0  0  0  0  0
  190.4540  176.3030  146.9310 O   0  0  0  0  0  0  0  0  0  0  0  0
  187.4300  178.1020  148.4490 C   0  0  0  0  0  3  0  0  0  0  0  0
  186.2020  178.3050  140.8220 C   0  0  0  0  0  0  0  0  0  0  0  0
  188.4330  177.9680  138.6740 C   0  0  0  0  0  3  0  0  0  0  0  0
  188.2770  177.4330  143.9360 C   0  0  0  0  0  3  0  0  0  0  0  0
  186.7850  178.5770  147.3720 C   0  0  0  0  0  3  0  0  0  0  0  0
  187.3610  177.9480  141.6780 C   0  0  1  0  0  3  0  0  0  0  0  0
  184.7240  178.8440  139.1130 C   0  0  0  0  0  3  0  0  0  0  0  0
  186.9760  178.2340  145.9250 C   0  0  0  0  0  0  0  0  0  0  0  0
  188.5390  177.1400  148.4260 C   0  0  0  0  0  3  0  0  0  0  0  0
  187.1790  178.3840  138.4710 C   0  0  0  0  0  0  0  0  0  0  0  0
  185.8900  178.3020  143.6510 C   0  0  0  0  0  0  0  0  0  0  0  0
  189.4560  177.9480  146.1710 C   0  0  2  0  0  3  0  0  0  0  0  0
  187.1890  177.9450  143.0290 C   0  0  0  0  0  0  0  0  0  0  0  0
  183.4110  178.9220  144.8030 C   0  0  0  0  0  3  0  0  0  0  0  0
  189.1070  177.5270  139.8950 C   0  0  0  0  0  3  0  0  0  0  0  0
  184.5250  178.6960  145.6130 C   0  0  0  0  0  3  0  0  0  0  0  0
  188.6650  177.5220  141.1450 C   0  0  0  0  0  3  0  0  0  0  0  0
  186.1270  178.4710  139.5040 C   0  0  0  0  0  0  0  0  0  0  0  0
  183.5350  178.8640  143.4150 C   0  0  0  0  0  3  0  0  0  0  0  0
  184.9410  178.5340  141.4220 N   0  0  0  0  0  0  0  0  0  0  0  0
  186.7940  178.7550  137.1720 O   0  0  0  0  0  0  0  0  0  0  0  0
  187.4290  178.2860  135.9830 C   0  0  0  0  0  2  0  0  0  0  0  0
  186.3480  175.3400  136.8830 O   0  0  0  0  0  0  0  0  0  0  0  0
  185.2280  177.1610  135.8840 C   0  0  0  0  0  2  0  0  0  0  0  0
  186.6390  177.1400  135.3710 C   0  0  2  0  0  3  0  0  0  0  0  0
  185.0710  175.8220  136.5610 C   0  0  0  0  0  2  0  0  0  0  0  0
  187.1880  175.8240  135.8700 C   0  0  0  0  0  2  0  0  0  0  0  0
  1 26  2  0  0  0  0
  1 18  1  0  0  0  0
  2 27  1  0  0  0  0
  3 16  2  0  0  0  0
  4 23  1  0  0  0  0
  4 15  1  0  0  0  0
  5 15  2  0  0  0  0
  5 19  1  0  0  0  0
  6  7  1  0  0  0  0
  7  3  1  0  0  0  0
  9 27  1  0  0  0  0
  9 13  1  0  0  0  0
 10 22  1  0  0  0  0
 11  5  1  0  0  0  0
 12  8  2  0  0  0  0
 13 24  1  6  0  0  0
 13 20  1  0  0  0  0
 14 25  1  0  0  0  0
 14  2  2  0  0  0  0
 15 12  1  0  0  0  0
 16  8  1  0  0  0  0
 17 10  2  0  0  0  0
 17 25  1  0  0  0  0
 18  4  2  0  0  0  0
 19  6  1  6  0  0  0
 19  3  1  0  0  0  0
 20 18  1  0  0  0  0
 20 11  2  0  0  0  0
 21 23  2  0  0  0  0
 22 24  2  0  0  0  0
 25  9  2  0  0  0  0
 26 21  1  0  0  0  0
 27  1  1  0  0  0  0
 28 17  1  0  0  0  0
 29 28  1  0  0  0  0
 31 33  1  0  0  0  0
 32 34  1  0  0  0  0
 32 31  1  0  0  0  0
 32 29  1  1  0  0  0
 33 30  1  0  0  0  0
 34 30  1  0  0  0  0
M  END
>  <MODEL>
4

>  <REMARK>
 VINA RESULT:     -11.4      2.815      5.577
  Name = 
  3 active torsions:
  status: ('A' for Active; 'I' for Inactive)
    1  A    between atoms: C_17  and  O_28
    2  A    between atoms: O_28  and  C_29
    3  A    between atoms: C_29  and  C_32
                            x       y       z     vdW  Elec       q    Type
                         _______ _______ _______ _____ _____    ______ ____

>  <TORSDO>
F 3

$$$$
=
 OpenBabel11122412213D

 34 41  0  0  1  0  0  0  0  0999 V2000
  185.1220  178.3310  144.5930 C   0  0  0  0  0  0  0  0  0  0  0  0
  183.1190  178.9430  143.1070 C   0  0  0  0  0  3  0  0  0  0  0  0
  191.4200  176.6000  145.6190 C   0  0  0  0  0  0  0  0  0  0  0  0
  187.1720  177.9200  145.8440 C   0  0  0  0  0  0  0  0  0  0  0  0
  189.3470  177.5510  144.7300 C   0  0  0  0  0  0  0  0  0  0  0  0
  191.4750  176.8820  143.6270 C   0  0  0  0  0  2  0  0  0  0  0  0
  192.0850  175.9580  144.5100 O   0  0  0  0  0  0  0  0  0  0  0  0
  190.4110  177.2700  147.6990 C   0  0  0  0  0  3  0  0  0  0  0  0
  185.2090  178.4870  142.1150 C   0  0  0  0  0  0  0  0  0  0  0  0
  185.8940  178.6450  139.0800 C   0  0  0  0  0  3  0  0  0  0  0  0
  188.6390  177.3370  143.4100 C   0  0  0  0  0  3  0  0  0  0  0  0
  189.2880  177.8440  147.2400 C   0  0  0  0  0  3  0  0  0  0  0  0
  186.6430  178.1020  142.1330 C   0  0  1  0  0  3  0  0  0  0  0  0
  183.0440  179.1500  141.5980 C   0  0  0  0  0  3  0  0  0  0  0  0
  188.6510  177.7330  145.8870 C   0  0  0  0  0  0  0  0  0  0  0  0
  191.3130  176.4120  146.9190 C   0  0  0  0  0  3  0  0  0  0  0  0
  184.7390  178.9860  139.6620 C   0  0  0  0  0  0  0  0  0  0  0  0
  186.4970  178.0460  144.6140 C   0  0  0  0  0  0  0  0  0  0  0  0
  190.8560  177.6120  144.6990 C   0  0  2  0  0  3  0  0  0  0  0  0
  187.2390  177.8880  143.3380 C   0  0  0  0  0  0  0  0  0  0  0  0
  185.0630  178.2910  147.0100 C   0  0  0  0  0  3  0  0  0  0  0  0
  187.1210  178.0860  139.6470 C   0  0  0  0  0  3  0  0  0  0  0  0
  186.4360  178.0390  147.0360 C   0  0  0  0  0  3  0  0  0  0  0  0
  187.4360  177.8630  140.9150 C   0  0  0  0  0  3  0  0  0  0  0  0
  184.4270  178.8370  141.0970 C   0  0  0  0  0  0  0  0  0  0  0  0
  184.4060  178.4470  145.7890 C   0  0  0  0  0  3  0  0  0  0  0  0
  184.4870  178.5250  143.3300 N   0  0  0  0  0  0  0  0  0  0  0  0
  183.7110  179.5110  138.8610 O   0  0  0  0  0  0  0  0  0  0  0  0
  182.8020  178.7160  138.1010 C   0  0  0  0  0  2  0  0  0  0  0  0
  180.1550  179.7820  139.6880 O   0  0  0  0  0  0  0  0  0  0  0  0
  181.6770  180.9120  138.2840 C   0  0  0  0  0  2  0  0  0  0  0  0
  181.5390  179.5020  137.7860 C   0  0  2  0  0  3  0  0  0  0  0  0
  180.5400  181.0610  139.2640 C   0  0  0  0  0  2  0  0  0  0  0  0
  180.3840  178.9460  138.5860 C   0  0  0  0  0  2  0  0  0  0  0  0
  1 18  2  0  0  0  0
  1 26  1  0  0  0  0
  2 27  1  0  0  0  0
  3 16  2  0  0  0  0
  4 15  1  0  0  0  0
  4 23  2  0  0  0  0
  5 15  2  0  0  0  0
  6  7  1  0  0  0  0
  7  3  1  0  0  0  0
  9 13  1  0  0  0  0
  9 27  1  0  0  0  0
 10 22  1  0  0  0  0
 10 17  2  0  0  0  0
 11  5  1  0  0  0  0
 12  8  2  0  0  0  0
 13 24  1  6  0  0  0
 13 20  1  0  0  0  0
 14  2  2  0  0  0  0
 15 12  1  0  0  0  0
 16  8  1  0  0  0  0
 17 25  1  0  0  0  0
 18  4  1  0  0  0  0
 19  6  1  6  0  0  0
 19  5  1  0  0  0  0
 19  3  1  0  0  0  0
 20 11  2  0  0  0  0
 20 18  1  0  0  0  0
 21 23  1  0  0  0  0
 22 24  2  0  0  0  0
 25 14  1  0  0  0  0
 25  9  2  0  0  0  0
 26 21  2  0  0  0  0
 27  1  1  0  0  0  0
 28 17  1  0  0  0  0
 29 28  1  0  0  0  0
 31 33  1  0  0  0  0
 32 29  1  1  0  0  0
 32 31  1  0  0  0  0
 32 34  1  0  0  0  0
 33 30  1  0  0  0  0
 34 30  1  0  0  0  0
M  END
>  <MODEL>
5

>  <REMARK>
 VINA RESULT:     -11.0      1.822      3.825
  Name = 
  3 active torsions:
  status: ('A' for Active; 'I' for Inactive)
    1  A    between atoms: C_17  and  O_28
    2  A    between atoms: O_28  and  C_29
    3  A    between atoms: C_29  and  C_32
                            x       y       z     vdW  Elec       q    Type
                         _______ _______ _______ _____ _____    ______ ____

>  <TORSDO>
F 3

$$$$
=
 OpenBabel11122412213D

 34 41  0  0  1  0  0  0  0  0999 V2000
  190.7110  177.4890  142.4860 C   0  0  0  0  0  0  0  0  0  0  0  0
  192.2920  177.0510  140.5090 C   0  0  0  0  0  3  0  0  0  0  0  0
  184.8310  178.8900  145.1640 C   0  0  0  0  0  0  0  0  0  0  0  0
  189.0320  177.7390  144.2330 C   0  0  0  0  0  0  0  0  0  0  0  0
  186.6380  178.0810  143.7240 C   0  0  0  0  0  0  0  0  0  0  0  0
  184.2840  178.7240  143.2340 C   0  0  0  0  0  2  0  0  0  0  0  0
  183.8920  179.5680  144.3020 O   0  0  0  0  0  0  0  0  0  0  0  0
  186.3470  178.1420  146.8760 C   0  0  0  0  0  3  0  0  0  0  0  0
  190.0080  177.4760  140.1030 C   0  0  0  0  0  0  0  0  0  0  0  0
  188.5860  177.4680  137.3310 C   0  0  0  0  0  3  0  0  0  0  0  0
  186.9850  178.4020  142.2870 C   0  0  0  0  0  3  0  0  0  0  0  0
  187.3330  177.6430  146.1140 C   0  0  0  0  0  3  0  0  0  0  0  0
  188.6150  177.7990  140.5040 C   0  0  1  0  0  3  0  0  0  0  0  0
  191.9900  176.9360  139.0190 C   0  0  0  0  0  3  0  0  0  0  0  0
  187.6070  177.8610  144.6560 C   0  0  0  0  0  0  0  0  0  0  0  0
  185.2570  179.0050  146.4060 C   0  0  0  0  0  3  0  0  0  0  0  0
  189.8580  177.1430  137.5820 C   0  0  0  0  0  0  0  0  0  0  0  0
  189.3790  177.7150  142.8680 C   0  0  0  0  0  0  0  0  0  0  0  0
  185.1710  177.9590  144.0660 C   0  0  2  0  0  3  0  0  0  0  0  0
  188.3360  177.9160  141.8310 C   0  0  0  0  0  0  0  0  0  0  0  0
  191.3750  177.3880  144.8080 C   0  0  0  0  0  3  0  0  0  0  0  0
  187.5270  177.9410  138.2230 C   0  0  0  0  0  3  0  0  0  0  0  0
  190.0470  177.5810  145.1930 C   0  0  0  0  0  3  0  0  0  0  0  0
  187.5360  178.0750  139.5410 C   0  0  0  0  0  3  0  0  0  0  0  0
  190.5180  177.2200  138.9010 C   0  0  0  0  0  0  0  0  0  0  0  0
  191.7080  177.3330  143.4550 C   0  0  0  0  0  3  0  0  0  0  0  0
  191.0140  177.3970  141.0950 N   0  0  0  0  0  0  0  0  0  0  0  0
  190.6650  176.7100  136.5170 O   0  0  0  0  0  0  0  0  0  0  0  0
  190.1600  176.1990  135.2840 C   0  0  0  0  0  2  0  0  0  0  0  0
  190.3600  173.7670  137.4540 O   0  0  0  0  0  0  0  0  0  0  0  0
  188.8750  174.1170  135.6540 C   0  0  0  0  0  2  0  0  0  0  0  0
  190.2140  174.6790  135.2720 C   0  0  2  0  0  3  0  0  0  0  0  0
  189.1660  173.2990  136.8880 C   0  0  0  0  0  2  0  0  0  0  0  0
  191.1370  174.1970  136.3680 C   0  0  0  0  0  2  0  0  0  0  0  0
  1 18  2  0  0  0  0
  1 26  1  0  0  0  0
  2 27  1  0  0  0  0
  3 16  2  0  0  0  0
  4 15  1  0  0  0  0
  4 23  2  0  0  0  0
  5 19  1  0  0  0  0
  5 15  2  0  0  0  0
  6  7  1  0  0  0  0
  7  3  1  0  0  0  0
  9 13  1  0  0  0  0
  9 27  1  0  0  0  0
 10 17  2  0  0  0  0
 10 22  1  0  0  0  0
 11  5  1  0  0  0  0
 12  8  2  0  0  0  0
 13 24  1  6  0  0  0
 13 20  1  0  0  0  0
 14  2  2  0  0  0  0
 15 12  1  0  0  0  0
 16  8  1  0  0  0  0
 17 25  1  0  0  0  0
 18  4  1  0  0  0  0
 19  6  1  6  0  0  0
 19  3  1  0  0  0  0
 20 11  2  0  0  0  0
 20 18  1  0  0  0  0
 21 23  1  0  0  0  0
 22 24  2  0  0  0  0
 25 14  1  0  0  0  0
 25  9  2  0  0  0  0
 26 21  2  0  0  0  0
 27  1  1  0  0  0  0
 28 17  1  0  0  0  0
 29 28  1  0  0  0  0
 31 33  1  0  0  0  0
 32 29  1  1  0  0  0
 32 31  1  0  0  0  0
 32 34  1  0  0  0  0
 33 30  1  0  0  0  0
 34 30  1  0  0  0  0
M  END
>  <MODEL>
6

>  <REMARK>
 VINA RESULT:     -10.9      3.921      7.577
  Name = 
  3 active torsions:
  status: ('A' for Active; 'I' for Inactive)
    1  A    between atoms: C_17  and  O_28
    2  A    between atoms: O_28  and  C_29
    3  A    between atoms: C_29  and  C_32
                            x       y       z     vdW  Elec       q    Type
                         _______ _______ _______ _____ _____    ______ ____

>  <TORSDO>
F 3

$$$$
=
 OpenBabel11122412213D

 34 41  0  0  1  0  0  0  0  0999 V2000
  190.3930  177.5720  142.9710 C   0  0  0  0  0  0  0  0  0  0  0  0
  192.3090  177.1540  141.3120 C   0  0  0  0  0  3  0  0  0  0  0  0
  184.1040  178.8710  144.5440 C   0  0  0  0  0  0  0  0  0  0  0  0
  188.4250  177.7990  144.3880 C   0  0  0  0  0  0  0  0  0  0  0  0
  186.1540  178.0890  143.4570 C   0  0  0  0  0  0  0  0  0  0  0  0
  183.9140  178.6800  142.5500 C   0  0  0  0  0  2  0  0  0  0  0  0
  183.3220  179.5240  143.5220 O   0  0  0  0  0  0  0  0  0  0  0  0
  185.3050  178.1650  146.5070 C   0  0  0  0  0  3  0  0  0  0  0  0
  190.1260  177.5300  140.5000 C   0  0  0  0  0  0  0  0  0  0  0  0
  189.2220  177.4740  137.5200 C   0  0  0  0  0  3  0  0  0  0  0  0
  186.7460  178.4080  142.1020 C   0  0  0  0  0  3  0  0  0  0  0  0
  186.4200  177.6820  145.9380 C   0  0  0  0  0  3  0  0  0  0  0  0
  188.6790  177.8260  140.6440 C   0  0  1  0  0  3  0  0  0  0  0  0
  192.2800  177.0230  139.7920 C   0  0  0  0  0  3  0  0  0  0  0  0
  186.9460  177.8950  144.5490 C   0  0  0  0  0  0  0  0  0  0  0  0
  184.2990  179.0020  145.8410 C   0  0  0  0  0  3  0  0  0  0  0  0
  190.4350  177.1760  137.9970 C   0  0  0  0  0  0  0  0  0  0  0  0
  189.0100  177.7730  143.1070 C   0  0  0  0  0  0  0  0  0  0  0  0
  184.6520  177.9390  143.5340 C   0  0  2  0  0  3  0  0  0  0  0  0
  188.1650  177.9470  141.8990 C   0  0  0  0  0  0  0  0  0  0  0  0
  190.6340  177.5010  145.3750 C   0  0  0  0  0  3  0  0  0  0  0  0
  188.0120  177.9310  138.2040 C   0  0  0  0  0  3  0  0  0  0  0  0
  189.2560  177.6690  145.5150 C   0  0  0  0  0  3  0  0  0  0  0  0
  187.7830  178.0740  139.5020 C   0  0  0  0  0  3  0  0  0  0  0  0
  190.8470  177.2760  139.4110 C   0  0  0  0  0  0  0  0  0  0  0  0
  191.2040  177.4440  144.1040 C   0  0  0  0  0  3  0  0  0  0  0  0
  190.9410  177.4780  141.6560 N   0  0  0  0  0  0  0  0  0  0  0  0
  191.4270  176.7530  137.0970 O   0  0  0  0  0  0  0  0  0  0  0  0
  191.2880  175.6380  136.2170 C   0  0  0  0  0  2  0  0  0  0  0  0
  194.3760  176.0020  137.2110 O   0  0  0  0  0  0  0  0  0  0  0  0
  192.9600  174.1150  137.2170 C   0  0  0  0  0  2  0  0  0  0  0  0
  192.6260  174.9470  136.0120 C   0  0  2  0  0  3  0  0  0  0  0  0
  194.2640  174.6950  137.7060 C   0  0  0  0  0  2  0  0  0  0  0  0
  193.7280  175.9800  135.9670 C   0  0  0  0  0  2  0  0  0  0  0  0
  1 18  2  0  0  0  0
  1 26  1  0  0  0  0
  2 27  1  0  0  0  0
  3 16  2  0  0  0  0
  4 15  1  0  0  0  0
  4 23  2  0  0  0  0
  5 19  1  0  0  0  0
  5 15  2  0  0  0  0
  6  7  1  0  0  0  0
  7  3  1  0  0  0  0
  9 13  1  0  0  0  0
  9 27  1  0  0  0  0
 10 17  2  0  0  0  0
 10 22  1  0  0  0  0
 11  5  1  0  0  0  0
 12  8  2  0  0  0  0
 13 24  1  6  0  0  0
 13 20  1  0  0  0  0
 14  2  2  0  0  0  0
 15 12  1  0  0  0  0
 16  8  1  0  0  0  0
 17 25  1  0  0  0  0
 18  4  1  0  0  0  0
 19  6  1  6  0  0  0
 19  3  1  0  0  0  0
 20 11  2  0  0  0  0
 20 18  1  0  0  0  0
 21 23  1  0  0  0  0
 22 24  2  0  0  0  0
 25 14  1  0  0  0  0
 25  9  2  0  0  0  0
 26 21  2  0  0  0  0
 27  1  1  0  0  0  0
 28 17  1  0  0  0  0
 29 28  1  0  0  0  0
 30 33  1  0  0  0  0
 31 33  1  0  0  0  0
 32 29  1  1  0  0  0
 32 31  1  0  0  0  0
 34 32  1  0  0  0  0
 34 30  1  0  0  0  0
M  END
>  <MODEL>
7

>  <REMARK>
 VINA RESULT:     -10.9      4.066      8.493
  Name = 
  3 active torsions:
  status: ('A' for Active; 'I' for Inactive)
    1  A    between atoms: C_17  and  O_28
    2  A    between atoms: O_28  and  C_29
    3  A    between atoms: C_29  and  C_32
                            x       y       z     vdW  Elec       q    Type
                         _______ _______ _______ _____ _____    ______ ____

>  <TORSDO>
F 3

$$$$
=
 OpenBabel11122412213D

 34 41  0  0  1  0  0  0  0  0999 V2000
  186.6480  178.4010  140.9920 C   0  0  0  0  0  0  0  0  0  0  0  0
  184.8720  178.7740  139.1750 C   0  0  0  0  0  3  0  0  0  0  0  0
  188.6620  177.7700  147.2580 C   0  0  0  0  0  0  0  0  0  0  0  0
  188.1530  177.8740  142.8340 C   0  0  0  0  0  0  0  0  0  0  0  0
  187.3750  177.7330  145.1760 C   0  0  0  0  0  0  0  0  0  0  0  0
  186.6750  177.8820  147.5590 C   0  0  0  0  0  2  0  0  0  0  0  0
  187.8080  178.3680  148.2570 O   0  0  0  0  0  0  0  0  0  0  0  0
  190.4140  177.0660  145.7650 C   0  0  0  0  0  3  0  0  0  0  0  0
  184.2250  178.7170  141.4420 C   0  0  0  0  0  0  0  0  0  0  0  0
  181.3210  178.9450  142.5460 C   0  0  0  0  0  3  0  0  0  0  0  0
  186.0830  178.4190  144.7920 C   0  0  0  0  0  3  0  0  0  0  0  0
  189.7250  176.9870  144.6160 C   0  0  0  0  0  3  0  0  0  0  0  0
  184.4730  178.6070  142.9020 C   0  0  1  0  0  3  0  0  0  0  0  0
  183.3570  178.9030  139.2950 C   0  0  0  0  0  3  0  0  0  0  0  0
  188.3830  177.5620  144.2740 C   0  0  0  0  0  0  0  0  0  0  0  0
  189.9530  177.7220  146.9950 C   0  0  0  0  0  3  0  0  0  0  0  0
  181.6900  178.8880  141.2620 C   0  0  0  0  0  0  0  0  0  0  0  0
  186.8690  178.2180  142.3670 C   0  0  0  0  0  0  0  0  0  0  0  0
  187.4760  177.1960  146.5840 C   0  0  2  0  0  3  0  0  0  0  0  0
  185.7460  178.3760  143.3240 C   0  0  0  0  0  0  0  0  0  0  0  0
  188.9870  177.9820  140.5450 C   0  0  0  0  0  3  0  0  0  0  0  0
  182.1210  178.9560  143.7700 C   0  0  0  0  0  3  0  0  0  0  0  0
  189.2050  177.7680  141.9070 C   0  0  0  0  0  3  0  0  0  0  0  0
  183.4300  178.8110  143.9210 C   0  0  0  0  0  3  0  0  0  0  0  0
  183.0820  178.8450  140.7730 C   0  0  0  0  0  0  0  0  0  0  0  0
  187.7070  178.2900  140.0850 C   0  0  0  0  0  3  0  0  0  0  0  0
  185.3200  178.6760  140.5480 N   0  0  0  0  0  0  0  0  0  0  0  0
  180.6920  178.8910  140.2740 O   0  0  0  0  0  0  0  0  0  0  0  0
  179.6100  179.8210  140.2300 C   0  0  0  0  0  2  0  0  0  0  0  0
  179.5840  181.7360  137.5860 O   0  0  0  0  0  0  0  0  0  0  0  0
  178.9610  182.1730  139.8190 C   0  0  0  0  0  2  0  0  0  0  0  0
  180.1070  181.2030  139.8340 C   0  0  2  0  0  3  0  0  0  0  0  0
  178.9320  182.6760  138.3970 C   0  0  0  0  0  2  0  0  0  0  0  0
  180.5810  181.1780  138.4000 C   0  0  0  0  0  2  0  0  0  0  0  0
  1 18  1  0  0  0  0
  2 14  2  0  0  0  0
  2 27  1  0  0  0  0
  3  7  1  0  0  0  0
  4 15  1  0  0  0  0
  5 19  1  0  0  0  0
  6  7  1  0  0  0  0
  8 16  1  0  0  0  0
  9 13  1  0  0  0  0
 10 22  1  0  0  0  0
 11  5  1  0  0  0  0
 12  8  2  0  0  0  0
 13 20  1  0  0  0  0
 13 24  1  1  0  0  0
 14 25  1  0  0  0  0
 15 12  1  0  0  0  0
 15  5  2  0  0  0  0
 16  3  2  0  0  0  0
 17 10  2  0  0  0  0
 18  4  2  0  0  0  0
 18 20  1  0  0  0  0
 19  3  1  0  0  0  0
 19  6  1  1  0  0  0
 20 11  2  0  0  0  0
 21 23  2  0  0  0  0
 22 24  2  0  0  0  0
 23  4  1  0  0  0  0
 25 17  1  0  0  0  0
 25  9  2  0  0  0  0
 26 21  1  0  0  0  0
 26  1  2  0  0  0  0
 27  1  1  0  0  0  0
 27  9  1  0  0  0  0
 28 17  1  0  0  0  0
 29 28  1  0  0  0  0
 30 33  1  0  0  0  0
 30 34  1  0  0  0  0
 31 32  1  0  0  0  0
 32 29  1  6  0  0  0
 33 31  1  0  0  0  0
 34 32  1  0  0  0  0
M  END
>  <MODEL>
8

>  <REMARK>
 VINA RESULT:     -10.8      1.409      1.848
  Name = 
  3 active torsions:
  status: ('A' for Active; 'I' for Inactive)
    1  A    between atoms: C_17  and  O_28
    2  A    between atoms: O_28  and  C_29
    3  A    between atoms: C_29  and  C_32
                            x       y       z     vdW  Elec       q    Type
                         _______ _______ _______ _____ _____    ______ ____

>  <TORSDO>
F 3

$$$$
=
 OpenBabel11122412213D

 34 41  0  0  1  0  0  0  0  0999 V2000
  185.2410  178.2960  144.8190 C   0  0  0  0  0  0  0  0  0  0  0  0
  183.1560  178.9490  143.4690 C   0  0  0  0  0  3  0  0  0  0  0  0
  191.5700  176.4820  145.4250 C   0  0  0  0  0  0  0  0  0  0  0  0
  187.3600  177.8460  145.9330 C   0  0  0  0  0  0  0  0  0  0  0  0
  189.4560  177.4680  144.6800 C   0  0  0  0  0  0  0  0  0  0  0  0
  191.5030  176.7910  143.4370 C   0  0  0  0  0  2  0  0  0  0  0  0
  192.1560  175.8480  144.2680 O   0  0  0  0  0  0  0  0  0  0  0  0
  190.7010  177.1350  147.5720 C   0  0  0  0  0  3  0  0  0  0  0  0
  185.1740  178.4840  142.3420 C   0  0  0  0  0  0  0  0  0  0  0  0
  185.6700  178.6760  139.2730 C   0  0  0  0  0  3  0  0  0  0  0  0
  188.6650  177.2790  143.4050 C   0  0  0  0  0  3  0  0  0  0  0  0
  189.5580  177.7270  147.1920 C   0  0  0  0  0  3  0  0  0  0  0  0
  186.6020  178.0830  142.2650 C   0  0  1  0  0  3  0  0  0  0  0  0
  182.9890  179.1770  141.9700 C   0  0  0  0  0  3  0  0  0  0  0  0
  188.8360  177.6420  145.8810 C   0  0  0  0  0  0  0  0  0  0  0  0
  191.5420  176.2780  146.7270 C   0  0  0  0  0  3  0  0  0  0  0  0
  184.5580  179.0210  139.9300 C   0  0  0  0  0  0  0  0  0  0  0  0
  186.6110  177.9950  144.7490 C   0  0  0  0  0  0  0  0  0  0  0  0
  190.9610  177.5120  144.5550 C   0  0  2  0  0  3  0  0  0  0  0  0
  187.2690  177.8460  143.4280 C   0  0  0  0  0  0  0  0  0  0  0  0
  185.3330  178.2240  147.2340 C   0  0  0  0  0  3  0  0  0  0  0  0
  186.9230  178.0960  139.7540 C   0  0  0  0  0  3  0  0  0  0  0  0
  186.7010  177.9560  147.1700 C   0  0  0  0  0  3  0  0  0  0  0  0
  187.3140  177.8520  140.9980 C   0  0  0  0  0  3  0  0  0  0  0  0
  184.3340  178.8560  141.3800 C   0  0  0  0  0  0  0  0  0  0  0  0
  184.6020  178.4030  146.0590 C   0  0  0  0  0  3  0  0  0  0  0  0
  184.5300  178.5130  143.6010 N   0  0  0  0  0  0  0  0  0  0  0  0
  183.4880  179.5680  139.2030 O   0  0  0  0  0  0  0  0  0  0  0  0
  182.7680  178.8690  138.1880 C   0  0  0  0  0  2  0  0  0  0  0  0
  180.7560  176.5130  137.1580 O   0  0  0  0  0  0  0  0  0  0  0  0
  182.5870  176.4440  138.6430 C   0  0  0  0  0  2  0  0  0  0  0  0
  181.9080  177.7740  138.8000 C   0  0  2  0  0  3  0  0  0  0  0  0
  181.6050  175.6300  137.8380 C   0  0  0  0  0  2  0  0  0  0  0  0
  180.6330  177.6270  138.0020 C   0  0  0  0  0  2  0  0  0  0  0  0
  1 26  1  0  0  0  0
  2 27  1  0  0  0  0
  3 16  2  0  0  0  0
  4 23  2  0  0  0  0
  5 15  2  0  0  0  0
  6  7  1  0  0  0  0
  7  3  1  0  0  0  0
  9 27  1  0  0  0  0
 10 22  1  0  0  0  0
 10 17  2  0  0  0  0
 11 20  2  0  0  0  0
 11  5  1  0  0  0  0
 12  8  2  0  0  0  0
 13 24  1  6  0  0  0
 13  9  1  0  0  0  0
 13 20  1  0  0  0  0
 14  2  2  0  0  0  0
 15  4  1  0  0  0  0
 15 12  1  0  0  0  0
 16  8  1  0  0  0  0
 17 25  1  0  0  0  0
 18  1  2  0  0  0  0
 18  4  1  0  0  0  0
 19  6  1  6  0  0  0
 19  5  1  0  0  0  0
 19  3  1  0  0  0  0
 20 18  1  0  0  0  0
 22 24  2  0  0  0  0
 23 21  1  0  0  0  0
 25 14  1  0  0  0  0
 25  9  2  0  0  0  0
 26 21  2  0  0  0  0
 27  1  1  0  0  0  0
 28 17  1  0  0  0  0
 29 28  1  0  0  0  0
 30 33  1  0  0  0  0
 30 34  1  0  0  0  0
 31 32  1  0  0  0  0
 32 29  1  6  0  0  0
 33 31  1  0  0  0  0
 34 32  1  0  0  0  0
M  END
>  <MODEL>
9

>  <REMARK>
 VINA RESULT:     -10.5      2.243      4.195
  Name = 
  3 active torsions:
  status: ('A' for Active; 'I' for Inactive)
    1  A    between atoms: C_17  and  O_28
    2  A    between atoms: O_28  and  C_29
    3  A    between atoms: C_29  and  C_32
                            x       y       z     vdW  Elec       q    Type
                         _______ _______ _______ _____ _____    ______ ____

>  <TORSDO>
F 3

$$$$
