=
 OpenBabel11122411253D

 37 43  0  0  1  0  0  0  0  0999 V2000
  184.9750  175.8240  137.5930 C   0  0  0  0  0  2  0  0  0  0  0  0
  188.9960  177.0000  136.9150 C   0  0  0  0  0  0  0  0  0  0  0  0
  185.9900  178.5080  139.3500 C   0  0  0  0  0  0  0  0  0  0  0  0
  184.6710  174.4310  137.0360 C   0  0  2  0  0  3  0  0  0  0  0  0
  182.5990  178.8160  137.8140 C   0  0  0  0  0  2  0  0  0  0  0  0
  188.3240  177.9200  139.1820 C   0  0  0  0  0  0  0  0  0  0  0  0
  184.8410  178.7930  138.4120 C   0  0  2  0  0  3  0  0  0  0  0  0
  182.2050  175.2410  137.0870 C   0  0  2  0  0  3  0  0  0  0  0  0
  187.1060  178.2530  138.6160 C   0  0  0  0  0  0  0  0  0  0  0  0
  183.5250  178.2260  138.7850 N   0  0  1  0  0  0  0  0  0  0  0  0
  188.4320  177.9410  140.5820 C   0  0  0  0  0  3  0  0  0  0  0  0
  183.2330  174.2560  136.5140 C   0  0  0  0  0  2  0  0  0  0  0  0
  186.8530  178.2050  137.2390 N   0  0  0  0  0  0  0  0  0  0  0  0
  188.4880  175.5800  137.1070 C   0  0  0  0  0  1  0  0  0  0  0  0
  184.8510  178.8180  141.5520 C   0  0  0  0  0  2  0  0  0  0  0  0
  187.2990  178.2550  141.3640 C   0  0  0  0  0  3  0  0  0  0  0  0
  187.8900  177.8620  136.2660 C   0  0  0  0  0  2  0  0  0  0  0  0
  182.3160  176.6510  136.4790 C   0  0  1  0  0  3  0  0  0  0  0  0
  181.6340  177.7710  137.2680 C   0  0  0  0  0  2  0  0  0  0  0  0
  186.0660  178.5410  140.7460 C   0  0  0  0  0  0  0  0  0  0  0  0
  185.4100  178.2980  137.0230 C   0  0  1  0  0  3  0  0  0  0  0  0
  189.4700  177.5750  138.2720 C   0  0  0  0  0  2  0  0  0  0  0  0
  183.1340  178.6880  140.1420 C   0  0  2  0  0  3  0  0  0  0  0  0
  190.1810  176.9540  135.9730 C   0  0  0  0  0  1  0  0  0  0  0  0
  183.6030  177.0170  135.7190 C   0  0  0  0  0  2  0  0  0  0  0  0
  182.2590  175.2630  138.4840 O   0  0  0  0  0  1  0  0  0  0  0  0
  184.9000  176.9300  136.5350 C   0  0  2  0  0  3  0  0  0  0  0  0
  183.8320  177.9680  141.1210 O   0  0  0  0  0  0  0  0  0  0  0  0
  180.8170  179.6700  140.4400 C   0  0  0  0  0  3  0  0  0  0  0  0
  181.6600  178.5480  140.4280 C   0  0  0  0  0  0  0  0  0  0  0  0
  181.1290  177.2810  140.6920 C   0  0  0  0  0  3  0  0  0  0  0  0
  179.2580  175.9050  141.2230 F   0  0  0  0  0  0  0  0  0  0  0  0
  178.9310  178.2530  140.9810 C   0  0  0  0  0  3  0  0  0  0  0  0
  179.7670  177.1330  140.9680 C   0  0  0  0  0  0  0  0  0  0  0  0
  179.4560  179.5220  140.7170 C   0  0  0  0  0  3  0  0  0  0  0  0
  186.0680  172.8080  137.5920 C   0  0  0  0  0  1  0  0  0  0  0  0
  184.9230  173.4780  138.0250 O   0  0  0  0  0  0  0  0  0  0  0  0
  2 14  1  0  0  0  0
  2 22  1  0  0  0  0
  3 20  1  0  0  0  0
  4  1  1  0  0  0  0
  4 37  1  1  0  0  0
  6 11  2  0  0  0  0
  7 10  1  0  0  0  0
  7  3  1  1  0  0  0
  8 26  1  1  0  0  0
  9  6  1  0  0  0  0
  9  3  2  0  0  0  0
 10  5  1  6  0  0  0
 10 23  1  0  0  0  0
 11 16  1  0  0  0  0
 12  4  1  0  0  0  0
 12  8  1  0  0  0  0
 13  9  1  0  0  0  0
 17  2  1  0  0  0  0
 17 13  1  0  0  0  0
 18 25  1  1  0  0  0
 18  8  1  0  0  0  0
 18 19  1  0  0  0  0
 19  5  1  0  0  0  0
 20 16  2  0  0  0  0
 20 15  1  0  0  0  0
 21 13  1  1  0  0  0
 21  7  1  0  0  0  0
 22  6  1  0  0  0  0
 23 30  1  1  0  0  0
 23 28  1  0  0  0  0
 24  2  1  0  0  0  0
 27 25  1  1  0  0  0
 27 21  1  0  0  0  0
 27  1  1  0  0  0  0
 28 15  1  0  0  0  0
 29 35  1  0  0  0  0
 30 29  2  0  0  0  0
 30 31  1  0  0  0  0
 31 34  2  0  0  0  0
 34 33  1  0  0  0  0
 34 32  1  0  0  0  0
 35 33  2  0  0  0  0
 36 37  1  0  0  0  0
M  END
>  <MODEL>
1

>  <REMARK>
 VINA RESULT:      -6.5      0.000      0.000
  Name = 
  2 active torsions:
  status: ('A' for Active; 'I' for Inactive)
    1  A    between atoms: C_4  and  O_37
    2  A    between atoms: C_23  and  C_30
                            x       y       z     vdW  Elec       q    Type
                         _______ _______ _______ _____ _____    ______ ____

>  <TORSDO>
F 2

$$$$
=
 OpenBabel11122411253D

 37 43  0  0  1  0  0  0  0  0999 V2000
  186.8600  175.1800  137.0920 C   0  0  0  0  0  2  0  0  0  0  0  0
  190.9830  175.9290  136.4160 C   0  0  0  0  0  0  0  0  0  0  0  0
  188.0590  177.9670  138.5480 C   0  0  0  0  0  0  0  0  0  0  0  0
  186.4510  173.7600  136.6960 C   0  0  2  0  0  3  0  0  0  0  0  0
  184.7450  178.3630  136.8700 C   0  0  0  0  0  2  0  0  0  0  0  0
  190.3380  177.1720  138.5320 C   0  0  0  0  0  0  0  0  0  0  0  0
  186.9630  178.2280  137.5430 C   0  0  2  0  0  3  0  0  0  0  0  0
  184.0630  174.7700  136.5640 C   0  0  2  0  0  3  0  0  0  0  0  0
  189.1660  177.5320  137.8890 C   0  0  0  0  0  0  0  0  0  0  0  0
  185.5930  177.8210  137.9350 N   0  0  1  0  0  0  0  0  0  0  0  0
  190.4130  177.3550  139.9220 C   0  0  0  0  0  3  0  0  0  0  0  0
  185.0160  173.6410  136.1490 C   0  0  0  0  0  2  0  0  0  0  0  0
  188.9430  177.3370  136.5190 N   0  0  0  0  0  0  0  0  0  0  0  0
  190.3500  174.5900  136.7600 C   0  0  0  0  0  1  0  0  0  0  0  0
  186.8980  178.6370  140.6560 C   0  0  0  0  0  2  0  0  0  0  0  0
  189.2930  177.8550  140.6210 C   0  0  0  0  0  3  0  0  0  0  0  0
  189.9710  176.7930  135.6310 C   0  0  0  0  0  2  0  0  0  0  0  0
  184.3100  176.0810  135.7950 C   0  0  1  0  0  3  0  0  0  0  0  0
  183.7070  177.3410  136.4200 C   0  0  0  0  0  2  0  0  0  0  0  0
  188.1040  178.1640  139.9310 C   0  0  0  0  0  0  0  0  0  0  0  0
  187.5200  177.5220  136.2430 C   0  0  1  0  0  3  0  0  0  0  0  0
  191.4720  176.6250  137.7100 C   0  0  0  0  0  2  0  0  0  0  0  0
  185.2110  178.4770  139.2130 C   0  0  2  0  0  3  0  0  0  0  0  0
  192.1810  175.6700  135.5290 C   0  0  0  0  0  1  0  0  0  0  0  0
  185.6420  176.2430  135.0420 C   0  0  0  0  0  2  0  0  0  0  0  0
  184.0850  174.9590  137.9490 O   0  0  0  0  0  1  0  0  0  0  0  0
  186.9060  176.1500  135.9070 C   0  0  2  0  0  3  0  0  0  0  0  0
  185.8200  177.8270  140.2950 O   0  0  0  0  0  0  0  0  0  0  0  0
  183.0600  177.3640  139.9590 C   0  0  0  0  0  3  0  0  0  0  0  0
  183.7240  178.4960  139.4630 C   0  0  0  0  0  0  0  0  0  0  0  0
  182.9970  179.6590  139.1890 C   0  0  0  0  0  3  0  0  0  0  0  0
  180.9170  180.8220  139.1380 F   0  0  0  0  0  0  0  0  0  0  0  0
  180.9580  178.5630  139.8980 C   0  0  0  0  0  3  0  0  0  0  0  0
  181.6160  179.6940  139.4050 C   0  0  0  0  0  0  0  0  0  0  0  0
  181.6800  177.3980  140.1750 C   0  0  0  0  0  3  0  0  0  0  0  0
  187.6280  172.0440  137.4510 C   0  0  0  0  0  1  0  0  0  0  0  0
  186.5950  172.9170  137.8000 O   0  0  0  0  0  0  0  0  0  0  0  0
  2 14  1  0  0  0  0
  2 22  1  0  0  0  0
  3 20  1  0  0  0  0
  4  1  1  0  0  0  0
  4 37  1  1  0  0  0
  6 11  2  0  0  0  0
  7 10  1  0  0  0  0
  7  3  1  1  0  0  0
  8 26  1  1  0  0  0
  9  6  1  0  0  0  0
  9  3  2  0  0  0  0
 10  5  1  6  0  0  0
 10 23  1  0  0  0  0
 11 16  1  0  0  0  0
 12  8  1  0  0  0  0
 12  4  1  0  0  0  0
 13  9  1  0  0  0  0
 17  2  1  0  0  0  0
 17 13  1  0  0  0  0
 18 25  1  1  0  0  0
 18 19  1  0  0  0  0
 18  8  1  0  0  0  0
 19  5  1  0  0  0  0
 20 16  2  0  0  0  0
 20 15  1  0  0  0  0
 21 13  1  1  0  0  0
 21  7  1  0  0  0  0
 22  6  1  0  0  0  0
 23 30  1  1  0  0  0
 23 28  1  0  0  0  0
 24  2  1  0  0  0  0
 27 25  1  1  0  0  0
 27 21  1  0  0  0  0
 27  1  1  0  0  0  0
 28 15  1  0  0  0  0
 29 35  1  0  0  0  0
 30 29  2  0  0  0  0
 31 34  2  0  0  0  0
 31 30  1  0  0  0  0
 32 34  1  0  0  0  0
 33 35  2  0  0  0  0
 34 33  1  0  0  0  0
 36 37  1  0  0  0  0
M  END
>  <MODEL>
2

>  <REMARK>
 VINA RESULT:      -6.0      1.690      2.499
  Name = 
  2 active torsions:
  status: ('A' for Active; 'I' for Inactive)
    1  A    between atoms: C_4  and  O_37
    2  A    between atoms: C_23  and  C_30
                            x       y       z     vdW  Elec       q    Type
                         _______ _______ _______ _____ _____    ______ ____

>  <TORSDO>
F 2

$$$$
=
 OpenBabel11122411253D

 37 43  0  0  1  0  0  0  0  0999 V2000
  187.1850  177.1050  137.9680 C   0  0  0  0  0  2  0  0  0  0  0  0
  182.9690  177.1680  137.4760 C   0  0  0  0  0  0  0  0  0  0  0  0
  185.8970  174.4390  136.3680 C   0  0  0  0  0  0  0  0  0  0  0  0
  187.6720  178.1520  138.9720 C   0  0  2  0  0  3  0  0  0  0  0  0
  188.9990  175.8520  134.8400 C   0  0  0  0  0  2  0  0  0  0  0  0
  183.7000  174.7430  137.3210 C   0  0  0  0  0  0  0  0  0  0  0  0
  186.8710  175.2380  135.5350 C   0  0  2  0  0  3  0  0  0  0  0  0
  189.9460  177.8780  137.7490 C   0  0  2  0  0  3  0  0  0  0  0  0
  184.7740  175.1800  136.5640 C   0  0  0  0  0  0  0  0  0  0  0  0
  188.3000  175.1450  135.9170 N   0  0  1  0  0  0  0  0  0  0  0  0
  183.7380  173.4360  137.8290 C   0  0  0  0  0  3  0  0  0  0  0  0
  189.0550  178.7470  138.6480 C   0  0  0  0  0  2  0  0  0  0  0  0
  184.8860  176.4820  136.0580 N   0  0  0  0  0  0  0  0  0  0  0  0
  183.7390  177.5380  138.7330 C   0  0  0  0  0  1  0  0  0  0  0  0
  187.1860  172.3180  136.6490 C   0  0  0  0  0  2  0  0  0  0  0  0
  184.8720  172.6280  137.5940 C   0  0  0  0  0  3  0  0  0  0  0  0
  183.8300  177.4800  136.2300 C   0  0  0  0  0  2  0  0  0  0  0  0
  189.5210  177.9090  136.2690 C   0  0  1  0  0  3  0  0  0  0  0  0
  190.0720  176.7800  135.3960 C   0  0  0  0  0  2  0  0  0  0  0  0
  185.9630  173.1310  136.8580 C   0  0  0  0  0  0  0  0  0  0  0  0
  186.2570  176.6930  135.6000 C   0  0  1  0  0  3  0  0  0  0  0  0
  182.5450  175.6800  137.5390 C   0  0  0  0  0  2  0  0  0  0  0  0
  188.7420  173.7270  135.9070 C   0  0  2  0  0  3  0  0  0  0  0  0
  181.7200  178.0210  137.4190 C   0  0  0  0  0  1  0  0  0  0  0  0
  188.1170  178.4360  135.9260 C   0  0  0  0  0  2  0  0  0  0  0  0
  190.0350  176.5730  138.2450 O   0  0  0  0  0  1  0  0  0  0  0  0
  186.9490  177.6730  136.5650 C   0  0  2  0  0  3  0  0  0  0  0  0
  188.2900  173.0680  137.0580 O   0  0  0  0  0  0  0  0  0  0  0  0
  190.8550  173.0520  134.6820 C   0  0  0  0  0  3  0  0  0  0  0  0
  190.2390  173.5590  135.8350 C   0  0  0  0  0  0  0  0  0  0  0  0
  191.0220  173.9110  136.9400 C   0  0  0  0  0  3  0  0  0  0  0  0
  193.1640  174.0950  137.9680 F   0  0  0  0  0  0  0  0  0  0  0  0
  193.0210  173.2460  135.7460 C   0  0  0  0  0  3  0  0  0  0  0  0
  192.4110  173.7540  136.8970 C   0  0  0  0  0  0  0  0  0  0  0  0
  192.2430  172.8950  134.6380 C   0  0  0  0  0  3  0  0  0  0  0  0
  188.2980  178.5550  141.0560 C   0  0  0  0  0  1  0  0  0  0  0  0
  187.6990  177.5860  140.2480 O   0  0  0  0  0  0  0  0  0  0  0  0
  1  4  1  0  0  0  0
  2 22  1  0  0  0  0
  2 14  1  0  0  0  0
  3  9  2  0  0  0  0
  3 20  1  0  0  0  0
  4 37  1  1  0  0  0
  5 19  1  0  0  0  0
  6 22  1  0  0  0  0
  6 11  2  0  0  0  0
  7 21  1  0  0  0  0
  7 10  1  0  0  0  0
  7  3  1  1  0  0  0
  8 26  1  1  0  0  0
  8 12  1  0  0  0  0
  9  6  1  0  0  0  0
 10  5  1  6  0  0  0
 12  4  1  0  0  0  0
 13 17  1  0  0  0  0
 13  9  1  0  0  0  0
 15 20  1  0  0  0  0
 15 28  1  0  0  0  0
 16 11  1  0  0  0  0
 17  2  1  0  0  0  0
 18 19  1  1  0  0  0
 18  8  1  0  0  0  0
 20 16  2  0  0  0  0
 21 13  1  1  0  0  0
 21 27  1  0  0  0  0
 23 30  1  1  0  0  0
 23 10  1  0  0  0  0
 23 28  1  0  0  0  0
 24  2  1  0  0  0  0
 25 18  1  0  0  0  0
 27 25  1  6  0  0  0
 27  1  1  0  0  0  0
 29 30  1  0  0  0  0
 30 31  2  0  0  0  0
 33 34  2  0  0  0  0
 34 31  1  0  0  0  0
 34 32  1  0  0  0  0
 35 29  2  0  0  0  0
 35 33  1  0  0  0  0
 37 36  1  0  0  0  0
M  END
>  <MODEL>
3

>  <REMARK>
 VINA RESULT:      -6.0      3.412      8.297
  Name = 
  2 active torsions:
  status: ('A' for Active; 'I' for Inactive)
    1  A    between atoms: C_4  and  O_37
    2  A    between atoms: C_23  and  C_30
                            x       y       z     vdW  Elec       q    Type
                         _______ _______ _______ _____ _____    ______ ____

>  <TORSDO>
F 2

$$$$
=
 OpenBabel11122411253D

 37 43  0  0  1  0  0  0  0  0999 V2000
  186.7710  177.1120  136.9150 C   0  0  0  0  0  2  0  0  0  0  0  0
  182.7590  176.4200  135.7150 C   0  0  0  0  0  0  0  0  0  0  0  0
  186.1080  173.9730  135.9010 C   0  0  0  0  0  0  0  0  0  0  0  0
  186.9360  178.4360  137.6660 C   0  0  2  0  0  3  0  0  0  0  0  0
  189.2990  175.4140  134.5980 C   0  0  0  0  0  2  0  0  0  0  0  0
  183.7450  174.1690  136.3480 C   0  0  0  0  0  0  0  0  0  0  0  0
  187.1470  174.6780  135.0610 C   0  0  2  0  0  3  0  0  0  0  0  0
  189.4270  178.2130  136.9680 C   0  0  2  0  0  3  0  0  0  0  0  0
  184.9000  174.5620  135.6950 C   0  0  0  0  0  0  0  0  0  0  0  0
  188.4700  174.8980  135.6910 N   0  0  1  0  0  0  0  0  0  0  0  0
  183.8100  173.0480  137.1900 C   0  0  0  0  0  3  0  0  0  0  0  0
  188.2900  179.1320  137.4330 C   0  0  0  0  0  2  0  0  0  0  0  0
  184.9820  175.7010  134.8830 N   0  0  0  0  0  0  0  0  0  0  0  0
  183.2160  177.1990  136.9370 C   0  0  0  0  0  1  0  0  0  0  0  0
  187.5200  172.2040  136.9600 C   0  0  0  0  0  2  0  0  0  0  0  0
  185.0430  172.3870  137.3780 C   0  0  0  0  0  3  0  0  0  0  0  0
  183.8180  176.5410  134.5970 C   0  0  0  0  0  2  0  0  0  0  0  0
  189.3110  177.8140  135.4850 C   0  0  1  0  0  3  0  0  0  0  0  0
  190.1380  176.6000  135.0570 C   0  0  0  0  0  2  0  0  0  0  0  0
  186.2040  172.8510  136.7300 C   0  0  0  0  0  0  0  0  0  0  0  0
  186.3900  175.9950  134.6250 C   0  0  1  0  0  3  0  0  0  0  0  0
  182.4820  174.9470  136.1060 C   0  0  0  0  0  2  0  0  0  0  0  0
  189.0450  173.6040  136.1400 C   0  0  2  0  0  3  0  0  0  0  0  0
  181.4680  177.0350  135.2190 C   0  0  0  0  0  1  0  0  0  0  0  0
  187.9610  178.0240  134.7780 C   0  0  0  0  0  2  0  0  0  0  0  0
  189.5440  177.0990  137.8050 O   0  0  0  0  0  1  0  0  0  0  0  0
  186.7700  177.2760  135.3920 C   0  0  2  0  0  3  0  0  0  0  0  0
  188.4370  173.1880  137.3330 O   0  0  0  0  0  0  0  0  0  0  0  0
  191.0800  174.4230  137.4070 C   0  0  0  0  0  3  0  0  0  0  0  0
  190.5340  173.6500  136.3720 C   0  0  0  0  0  0  0  0  0  0  0  0
  191.3820  172.9150  135.5370 C   0  0  0  0  0  3  0  0  0  0  0  0
  193.5820  172.2390  134.9190 F   0  0  0  0  0  0  0  0  0  0  0  0
  193.3060  173.7250  136.7610 C   0  0  0  0  0  3  0  0  0  0  0  0
  192.7660  172.9520  135.7300 C   0  0  0  0  0  0  0  0  0  0  0  0
  192.4640  174.4610  137.6000 C   0  0  0  0  0  3  0  0  0  0  0  0
  185.4620  178.6490  139.3030 C   0  0  0  0  0  1  0  0  0  0  0  0
  186.7600  178.2120  139.0330 O   0  0  0  0  0  0  0  0  0  0  0  0
  1  4  1  0  0  0  0
  2 22  1  0  0  0  0
  2 14  1  0  0  0  0
  3 20  1  0  0  0  0
  4 37  1  1  0  0  0
  5 19  1  0  0  0  0
  6 11  2  0  0  0  0
  7 10  1  0  0  0  0
  7  3  1  1  0  0  0
  8 12  1  0  0  0  0
  8 26  1  1  0  0  0
  9  3  2  0  0  0  0
  9  6  1  0  0  0  0
 10  5  1  6  0  0  0
 10 23  1  0  0  0  0
 11 16  1  0  0  0  0
 12  4  1  0  0  0  0
 13  9  1  0  0  0  0
 15 28  1  0  0  0  0
 17 13  1  0  0  0  0
 17  2  1  0  0  0  0
 18 25  1  1  0  0  0
 18  8  1  0  0  0  0
 19 18  1  0  0  0  0
 20 15  1  0  0  0  0
 20 16  2  0  0  0  0
 21 13  1  1  0  0  0
 21  7  1  0  0  0  0
 21 27  1  0  0  0  0
 22  6  1  0  0  0  0
 23 30  1  1  0  0  0
 23 28  1  0  0  0  0
 24  2  1  0  0  0  0
 27 25  1  6  0  0  0
 27  1  1  0  0  0  0
 29 35  1  0  0  0  0
 30 29  2  0  0  0  0
 31 34  2  0  0  0  0
 31 30  1  0  0  0  0
 32 34  1  0  0  0  0
 33 35  2  0  0  0  0
 34 33  1  0  0  0  0
 37 36  1  0  0  0  0
M  END
>  <MODEL>
4

>  <REMARK>
 VINA RESULT:      -5.5      3.971      8.417
  Name = 
  2 active torsions:
  status: ('A' for Active; 'I' for Inactive)
    1  A    between atoms: C_4  and  O_37
    2  A    between atoms: C_23  and  C_30
                            x       y       z     vdW  Elec       q    Type
                         _______ _______ _______ _____ _____    ______ ____

>  <TORSDO>
F 2

$$$$
=
 OpenBabel11122411253D

 37 43  0  0  1  0  0  0  0  0999 V2000
  183.2090  177.4460  137.1650 C   0  0  0  0  0  2  0  0  0  0  0  0
  181.2300  180.9730  138.4520 C   0  0  0  0  0  0  0  0  0  0  0  0
  180.1100  176.9750  138.3890 C   0  0  0  0  0  0  0  0  0  0  0  0
  184.7060  177.6670  136.9340 C   0  0  2  0  0  3  0  0  0  0  0  0
  180.8800  175.0780  135.2640 C   0  0  0  0  0  2  0  0  0  0  0  0
  180.1410  179.0260  139.6600 C   0  0  0  0  0  0  0  0  0  0  0  0
  180.2660  176.5550  136.9470 C   0  0  2  0  0  3  0  0  0  0  0  0
  184.5140  175.5530  135.4380 C   0  0  2  0  0  3  0  0  0  0  0  0
  180.2070  178.3290  138.4660 C   0  0  0  0  0  0  0  0  0  0  0  0
  181.0640  175.3320  136.6950 N   0  0  1  0  0  0  0  0  0  0  0  0
  179.8670  178.3050  140.8330 C   0  0  0  0  0  3  0  0  0  0  0  0
  185.3030  176.8200  135.7940 C   0  0  0  0  0  2  0  0  0  0  0  0
  180.5380  178.9220  137.2400 N   0  0  0  0  0  0  0  0  0  0  0  0
  182.6790  180.6000  138.7180 C   0  0  0  0  0  1  0  0  0  0  0  0
  179.7270  174.7510  139.4610 C   0  0  0  0  0  2  0  0  0  0  0  0
  179.7100  176.9030  140.7690 C   0  0  0  0  0  3  0  0  0  0  0  0
  180.7760  180.3600  137.1080 C   0  0  0  0  0  2  0  0  0  0  0  0
  183.2370  175.8460  134.6290 C   0  0  1  0  0  3  0  0  0  0  0  0
  182.2010  174.7200  134.5940 C   0  0  0  0  0  2  0  0  0  0  0  0
  179.8330  176.2290  139.5380 C   0  0  0  0  0  0  0  0  0  0  0  0
  180.8300  177.8680  136.2710 C   0  0  1  0  0  3  0  0  0  0  0  0
  180.3440  180.5160  139.6360 C   0  0  0  0  0  2  0  0  0  0  0  0
  180.4940  174.1850  137.4490 C   0  0  2  0  0  3  0  0  0  0  0  0
  181.1430  182.4800  138.3420 C   0  0  0  0  0  1  0  0  0  0  0  0
  182.7030  177.2880  134.6090 C   0  0  0  0  0  2  0  0  0  0  0  0
  184.2520  174.7900  136.5800 O   0  0  0  0  0  1  0  0  0  0  0  0
  182.3420  177.8790  135.9790 C   0  0  2  0  0  3  0  0  0  0  0  0
  180.8560  174.2620  138.8010 O   0  0  0  0  0  0  0  0  0  0  0  0
  180.0380  171.9980  136.2540 C   0  0  0  0  0  3  0  0  0  0  0  0
  180.9340  172.8400  136.9290 C   0  0  0  0  0  0  0  0  0  0  0  0
  182.2560  172.4260  137.1290 C   0  0  0  0  0  3  0  0  0  0  0  0
  183.9600  170.7820  136.8580 F   0  0  0  0  0  0  0  0  0  0  0  0
  181.7840  170.3410  135.9920 C   0  0  0  0  0  3  0  0  0  0  0  0
  182.6800  171.1780  136.6620 C   0  0  0  0  0  0  0  0  0  0  0  0
  180.4620  170.7510  135.7880 C   0  0  0  0  0  3  0  0  0  0  0  0
  186.7140  177.7840  137.8570 C   0  0  0  0  0  1  0  0  0  0  0  0
  185.3970  177.4010  138.1170 O   0  0  0  0  0  0  0  0  0  0  0  0
  2 14  1  0  0  0  0
  2 22  1  0  0  0  0
  3  9  2  0  0  0  0
  3 20  1  0  0  0  0
  4  1  1  0  0  0  0
  4 37  1  1  0  0  0
  6 11  2  0  0  0  0
  7  3  1  1  0  0  0
  8 12  1  0  0  0  0
  8 26  1  1  0  0  0
  9  6  1  0  0  0  0
 10  5  1  6  0  0  0
 10  7  1  0  0  0  0
 10 23  1  0  0  0  0
 12  4  1  0  0  0  0
 13  9  1  0  0  0  0
 15 20  1  0  0  0  0
 16 11  1  0  0  0  0
 17 13  1  0  0  0  0
 17  2  1  0  0  0  0
 18 19  1  1  0  0  0
 18  8  1  0  0  0  0
 19  5  1  0  0  0  0
 20 16  2  0  0  0  0
 21  7  1  0  0  0  0
 21 13  1  1  0  0  0
 22  6  1  0  0  0  0
 23 30  1  6  0  0  0
 23 28  1  0  0  0  0
 24  2  1  0  0  0  0
 25 18  1  0  0  0  0
 27 25  1  6  0  0  0
 27 21  1  0  0  0  0
 27  1  1  0  0  0  0
 28 15  1  0  0  0  0
 29 30  1  0  0  0  0
 30 31  2  0  0  0  0
 33 34  2  0  0  0  0
 34 32  1  0  0  0  0
 34 31  1  0  0  0  0
 35 33  1  0  0  0  0
 35 29  2  0  0  0  0
 36 37  1  0  0  0  0
M  END
>  <MODEL>
5

>  <REMARK>
 VINA RESULT:      -4.9      2.841      6.551
  Name = 
  2 active torsions:
  status: ('A' for Active; 'I' for Inactive)
    1  A    between atoms: C_4  and  O_37
    2  A    between atoms: C_23  and  C_30
                            x       y       z     vdW  Elec       q    Type
                         _______ _______ _______ _____ _____    ______ ____

>  <TORSDO>
F 2

$$$$
=
 OpenBabel11122411253D

 37 43  0  0  1  0  0  0  0  0999 V2000
  187.0070  177.6430  139.0550 C   0  0  0  0  0  2  0  0  0  0  0  0
  182.9250  178.8030  138.9610 C   0  0  0  0  0  0  0  0  0  0  0  0
  185.0300  175.7430  137.1040 C   0  0  0  0  0  0  0  0  0  0  0  0
  187.7810  178.3170  140.1900 C   0  0  2  0  0  3  0  0  0  0  0  0
  188.3220  176.6600  135.5970 C   0  0  0  0  0  2  0  0  0  0  0  0
  183.0200  176.3580  138.2890 C   0  0  0  0  0  0  0  0  0  0  0  0
  186.1390  176.4400  136.3520 C   0  0  2  0  0  3  0  0  0  0  0  0
  189.8630  177.7660  138.7390 C   0  0  2  0  0  3  0  0  0  0  0  0
  184.1370  176.6730  137.5350 C   0  0  0  0  0  0  0  0  0  0  0  0
  187.5130  175.9360  136.5800 N   0  0  1  0  0  0  0  0  0  0  0  0
  182.7490  175.0040  138.5370 C   0  0  0  0  0  3  0  0  0  0  0  0
  189.2550  178.6190  139.8610 C   0  0  0  0  0  2  0  0  0  0  0  0
  184.5510  177.9870  137.2750 N   0  0  0  0  0  0  0  0  0  0  0  0
  183.8140  178.7150  140.1910 C   0  0  0  0  0  1  0  0  0  0  0  0
  185.7580  173.3650  136.8650 C   0  0  0  0  0  2  0  0  0  0  0  0
  183.6340  174.0160  138.0540 C   0  0  0  0  0  3  0  0  0  0  0  0
  183.7850  179.1490  137.7250 C   0  0  0  0  0  2  0  0  0  0  0  0
  189.4000  178.1990  137.3350 C   0  0  1  0  0  3  0  0  0  0  0  0
  189.6150  177.1730  136.2200 C   0  0  0  0  0  2  0  0  0  0  0  0
  184.7860  174.3850  137.3320 C   0  0  0  0  0  0  0  0  0  0  0  0
  185.9120  177.9540  136.7440 C   0  0  1  0  0  3  0  0  0  0  0  0
  182.1450  177.4780  138.7820 C   0  0  0  0  0  2  0  0  0  0  0  0
  187.5850  174.4850  136.2650 C   0  0  2  0  0  3  0  0  0  0  0  0
  181.9280  179.9210  139.1780 C   0  0  0  0  0  1  0  0  0  0  0  0
  188.1600  179.1030  137.2230 C   0  0  0  0  0  2  0  0  0  0  0  0
  189.6430  176.4050  138.9700 O   0  0  0  0  0  1  0  0  0  0  0  0
  186.8650  178.5250  137.8100 C   0  0  2  0  0  3  0  0  0  0  0  0
  187.0300  173.7320  137.3080 O   0  0  0  0  0  0  0  0  0  0  0  0
  189.3630  173.4390  134.7940 C   0  0  0  0  0  3  0  0  0  0  0  0
  188.9880  173.9860  136.0300 C   0  0  0  0  0  0  0  0  0  0  0  0
  189.9270  174.0650  137.0640 C   0  0  0  0  0  3  0  0  0  0  0  0
  192.1350  173.6770  137.8730 F   0  0  0  0  0  0  0  0  0  0  0  0
  191.5990  173.0520  135.6360 C   0  0  0  0  0  3  0  0  0  0  0  0
  191.2310  173.5990  136.8690 C   0  0  0  0  0  0  0  0  0  0  0  0
  190.6650  172.9720  134.5980 C   0  0  0  0  0  3  0  0  0  0  0  0
  186.9690  178.2510  142.2470 C   0  0  0  0  0  1  0  0  0  0  0  0
  187.7170  177.5130  141.3290 O   0  0  0  0  0  0  0  0  0  0  0  0
  1  4  1  0  0  0  0
  2 24  1  0  0  0  0
  2 14  1  0  0  0  0
  3 20  2  0  0  0  0
  3  9  1  0  0  0  0
  4 37  1  1  0  0  0
  5 19  1  0  0  0  0
  6 11  1  0  0  0  0
  6 22  1  0  0  0  0
  7 10  1  0  0  0  0
  7 21  1  0  0  0  0
  7  3  1  1  0  0  0
  8 26  1  1  0  0  0
  8 12  1  0  0  0  0
  9  6  2  0  0  0  0
 10  5  1  6  0  0  0
 12  4  1  0  0  0  0
 13  9  1  0  0  0  0
 13 17  1  0  0  0  0
 15 28  1  0  0  0  0
 15 20  1  0  0  0  0
 16 11  2  0  0  0  0
 17  2  1  0  0  0  0
 18 19  1  6  0  0  0
 18  8  1  0  0  0  0
 20 16  1  0  0  0  0
 21 13  1  1  0  0  0
 21 27  1  0  0  0  0
 22  2  1  0  0  0  0
 23 30  1  1  0  0  0
 23 10  1  0  0  0  0
 23 28  1  0  0  0  0
 25 18  1  0  0  0  0
 27 25  1  6  0  0  0
 27  1  1  0  0  0  0
 29 30  1  0  0  0  0
 30 31  2  0  0  0  0
 33 34  2  0  0  0  0
 34 31  1  0  0  0  0
 34 32  1  0  0  0  0
 35 29  2  0  0  0  0
 35 33  1  0  0  0  0
 37 36  1  0  0  0  0
M  END
>  <MODEL>
6

>  <REMARK>
 VINA RESULT:      -4.5      3.055      7.772
  Name = 
  2 active torsions:
  status: ('A' for Active; 'I' for Inactive)
    1  A    between atoms: C_4  and  O_37
    2  A    between atoms: C_23  and  C_30
                            x       y       z     vdW  Elec       q    Type
                         _______ _______ _______ _____ _____    ______ ____

>  <TORSDO>
F 2

$$$$
=
 OpenBabel11122411253D

 37 43  0  0  1  0  0  0  0  0999 V2000
  184.5990  176.4730  137.0530 C   0  0  0  0  0  2  0  0  0  0  0  0
  180.8190  175.1260  135.6710 C   0  0  0  0  0  0  0  0  0  0  0  0
  184.6090  173.4310  135.6160 C   0  0  0  0  0  0  0  0  0  0  0  0
  184.4850  177.6880  137.9760 C   0  0  2  0  0  3  0  0  0  0  0  0
  187.4200  175.6680  134.5950 C   0  0  0  0  0  2  0  0  0  0  0  0
  182.2590  173.0670  136.0250 C   0  0  0  0  0  0  0  0  0  0  0  0
  185.4730  174.4440  134.9030 C   0  0  2  0  0  3  0  0  0  0  0  0
  186.9650  178.0870  137.3170 C   0  0  2  0  0  3  0  0  0  0  0  0
  183.3030  173.7770  135.4590 C   0  0  0  0  0  0  0  0  0  0  0  0
  186.7220  174.8480  135.5890 N   0  0  1  0  0  0  0  0  0  0  0  0
  182.5600  171.8810  136.7130 C   0  0  0  0  0  3  0  0  0  0  0  0
  185.6620  178.6770  137.8720 C   0  0  0  0  0  2  0  0  0  0  0  0
  183.1410  175.0070  134.8070 N   0  0  0  0  0  0  0  0  0  0  0  0
  181.1060  175.8120  136.9970 C   0  0  0  0  0  1  0  0  0  0  0  0
  186.3640  171.8690  136.4660 C   0  0  0  0  0  2  0  0  0  0  0  0
  183.9050  171.4730  136.8420 C   0  0  0  0  0  3  0  0  0  0  0  0
  181.8250  175.6150  134.6060 C   0  0  0  0  0  2  0  0  0  0  0  0
  186.9300  177.8770  135.7920 C   0  0  1  0  0  3  0  0  0  0  0  0
  187.9930  176.9310  135.2280 C   0  0  0  0  0  2  0  0  0  0  0  0
  184.9410  172.2520  136.2910 C   0  0  0  0  0  0  0  0  0  0  0  0
  184.4550  175.6200  134.6260 C   0  0  1  0  0  3  0  0  0  0  0  0
  180.8590  173.5890  135.8570 C   0  0  0  0  0  2  0  0  0  0  0  0
  187.5580  173.6540  135.8770 C   0  0  2  0  0  3  0  0  0  0  0  0
  179.4260  175.5200  135.2280 C   0  0  0  0  0  1  0  0  0  0  0  0
  185.5640  177.8930  135.0860 C   0  0  0  0  0  2  0  0  0  0  0  0
  187.3160  176.9200  138.0020 O   0  0  0  0  0  1  0  0  0  0  0  0
  184.5590  176.8360  135.5650 C   0  0  2  0  0  3  0  0  0  0  0  0
  187.0550  172.9640  136.9890 O   0  0  0  0  0  0  0  0  0  0  0  0
  190.0140  173.5890  135.2580 C   0  0  0  0  0  3  0  0  0  0  0  0
  189.0050  173.9790  136.1510 C   0  0  0  0  0  0  0  0  0  0  0  0
  189.3440  174.6750  137.3160 C   0  0  0  0  0  3  0  0  0  0  0  0
  191.0030  175.6510  138.7210 F   0  0  0  0  0  0  0  0  0  0  0  0
  191.6830  174.5850  136.7010 C   0  0  0  0  0  3  0  0  0  0  0  0
  190.6800  174.9770  137.5920 C   0  0  0  0  0  0  0  0  0  0  0  0
  191.3500  173.8900  135.5340 C   0  0  0  0  0  3  0  0  0  0  0  0
  183.0650  177.5960  139.6710 C   0  0  0  0  0  1  0  0  0  0  0  0
  184.3650  177.2510  139.2960 O   0  0  0  0  0  0  0  0  0  0  0  0
  1  4  1  0  0  0  0
  2 22  1  0  0  0  0
  2 14  1  0  0  0  0
  3 20  1  0  0  0  0
  4 37  1  1  0  0  0
  5 19  1  0  0  0  0
  6 11  2  0  0  0  0
  7 10  1  0  0  0  0
  7  3  1  1  0  0  0
  8 12  1  0  0  0  0
  8 26  1  1  0  0  0
  9  3  2  0  0  0  0
  9  6  1  0  0  0  0
 10  5  1  6  0  0  0
 10 23  1  0  0  0  0
 11 16  1  0  0  0  0
 12  4  1  0  0  0  0
 13  9  1  0  0  0  0
 15 28  1  0  0  0  0
 17 13  1  0  0  0  0
 17  2  1  0  0  0  0
 18 25  1  1  0  0  0
 18  8  1  0  0  0  0
 19 18  1  0  0  0  0
 20 15  1  0  0  0  0
 20 16  2  0  0  0  0
 21 13  1  1  0  0  0
 21  7  1  0  0  0  0
 21 27  1  0  0  0  0
 22  6  1  0  0  0  0
 23 30  1  1  0  0  0
 23 28  1  0  0  0  0
 24  2  1  0  0  0  0
 27 25  1  6  0  0  0
 27  1  1  0  0  0  0
 29 35  2  0  0  0  0
 29 30  1  0  0  0  0
 30 31  2  0  0  0  0
 31 34  1  0  0  0  0
 33 34  2  0  0  0  0
 34 32  1  0  0  0  0
 35 33  1  0  0  0  0
 37 36  1  0  0  0  0
M  END
>  <MODEL>
7

>  <REMARK>
 VINA RESULT:      -4.4      3.164      7.947
  Name = 
  2 active torsions:
  status: ('A' for Active; 'I' for Inactive)
    1  A    between atoms: C_4  and  O_37
    2  A    between atoms: C_23  and  C_30
                            x       y       z     vdW  Elec       q    Type
                         _______ _______ _______ _____ _____    ______ ____

>  <TORSDO>
F 2

$$$$
=
 OpenBabel11122411253D

 37 43  0  0  1  0  0  0  0  0999 V2000
  184.6180  177.3950  137.3720 C   0  0  0  0  0  2  0  0  0  0  0  0
  180.7470  179.1350  137.2810 C   0  0  0  0  0  0  0  0  0  0  0  0
  182.1030  175.2440  136.7670 C   0  0  0  0  0  0  0  0  0  0  0  0
  185.6670  178.3360  137.9690 C   0  0  2  0  0  3  0  0  0  0  0  0
  185.1150  174.8010  134.6030 C   0  0  0  0  0  2  0  0  0  0  0  0
  180.4420  176.6670  137.7870 C   0  0  0  0  0  0  0  0  0  0  0  0
  183.1110  175.3330  135.6460 C   0  0  2  0  0  3  0  0  0  0  0  0
  187.3520  176.8420  136.6750 C   0  0  2  0  0  3  0  0  0  0  0  0
  181.4170  176.4160  136.8370 C   0  0  0  0  0  0  0  0  0  0  0  0
  184.4410  174.7310  135.9020 N   0  0  1  0  0  0  0  0  0  0  0  0
  180.0810  175.6260  138.6550 C   0  0  0  0  0  3  0  0  0  0  0  0
  187.0730  178.1900  137.3540 C   0  0  0  0  0  2  0  0  0  0  0  0
  181.9120  177.3900  135.9580 N   0  0  0  0  0  0  0  0  0  0  0  0
  181.8440  179.4210  138.2930 C   0  0  0  0  0  1  0  0  0  0  0  0
  182.5070  172.9040  137.5430 C   0  0  0  0  0  2  0  0  0  0  0  0
  180.7420  174.3810  138.5660 C   0  0  0  0  0  3  0  0  0  0  0  0
  181.3810  178.7520  135.9240 C   0  0  0  0  0  2  0  0  0  0  0  0
  186.6730  176.7080  135.3000 C   0  0  1  0  0  3  0  0  0  0  0  0
  186.5530  175.2830  134.7550 C   0  0  0  0  0  2  0  0  0  0  0  0
  181.7630  174.1860  137.6140 C   0  0  0  0  0  0  0  0  0  0  0  0
  183.1310  176.8820  135.3320 C   0  0  1  0  0  3  0  0  0  0  0  0
  179.8080  178.0300  137.8240 C   0  0  0  0  0  2  0  0  0  0  0  0
  184.2920  173.3000  136.2730 C   0  0  2  0  0  3  0  0  0  0  0  0
  179.9390  180.4010  137.0910 C   0  0  0  0  0  1  0  0  0  0  0  0
  185.5410  177.6880  134.9480 C   0  0  0  0  0  2  0  0  0  0  0  0
  187.0360  175.7790  137.5260 O   0  0  0  0  0  1  0  0  0  0  0  0
  184.3310  177.6680  135.8920 C   0  0  2  0  0  3  0  0  0  0  0  0
  183.8740  173.1830  137.6050 O   0  0  0  0  0  0  0  0  0  0  0  0
  185.6450  171.4610  135.1750 C   0  0  0  0  0  3  0  0  0  0  0  0
  185.5600  172.4990  136.1150 C   0  0  0  0  0  0  0  0  0  0  0  0
  186.6630  172.7930  136.9230 C   0  0  0  0  0  3  0  0  0  0  0  0
  188.9090  172.3440  137.5810 F   0  0  0  0  0  0  0  0  0  0  0  0
  187.9250  171.0200  135.8610 C   0  0  0  0  0  3  0  0  0  0  0  0
  187.8440  172.0550  136.7970 C   0  0  0  0  0  0  0  0  0  0  0  0
  186.8250  170.7230  135.0500 C   0  0  0  0  0  3  0  0  0  0  0  0
  184.8030  179.0020  139.8940 C   0  0  0  0  0  1  0  0  0  0  0  0
  185.7420  178.1250  139.3470 O   0  0  0  0  0  0  0  0  0  0  0  0
  1  4  1  0  0  0  0
  2 22  1  0  0  0  0
  2 14  1  0  0  0  0
  3  9  2  0  0  0  0
  3 20  1  0  0  0  0
  4 37  1  1  0  0  0
  5 19  1  0  0  0  0
  6 22  1  0  0  0  0
  6 11  2  0  0  0  0
  7 10  1  0  0  0  0
  7  3  1  1  0  0  0
  8 12  1  0  0  0  0
  8 26  1  1  0  0  0
  9  6  1  0  0  0  0
 10  5  1  6  0  0  0
 10 23  1  0  0  0  0
 12  4  1  0  0  0  0
 13  9  1  0  0  0  0
 15 28  1  0  0  0  0
 15 20  1  0  0  0  0
 16 11  1  0  0  0  0
 17 13  1  0  0  0  0
 17  2  1  0  0  0  0
 18 19  1  1  0  0  0
 18  8  1  0  0  0  0
 20 16  2  0  0  0  0
 21  7  1  0  0  0  0
 21 27  1  0  0  0  0
 21 13  1  1  0  0  0
 23 30  1  1  0  0  0
 23 28  1  0  0  0  0
 24  2  1  0  0  0  0
 25 18  1  0  0  0  0
 27 25  1  6  0  0  0
 27  1  1  0  0  0  0
 29 30  1  0  0  0  0
 30 31  2  0  0  0  0
 33 34  2  0  0  0  0
 34 31  1  0  0  0  0
 34 32  1  0  0  0  0
 35 29  2  0  0  0  0
 35 33  1  0  0  0  0
 37 36  1  0  0  0  0
M  END
>  <MODEL>
8

>  <REMARK>
 VINA RESULT:      -4.2      2.801      7.368
  Name = 
  2 active torsions:
  status: ('A' for Active; 'I' for Inactive)
    1  A    between atoms: C_4  and  O_37
    2  A    between atoms: C_23  and  C_30
                            x       y       z     vdW  Elec       q    Type
                         _______ _______ _______ _____ _____    ______ ____

>  <TORSDO>
F 2

$$$$
=
 OpenBabel11122411253D

 37 43  0  0  1  0  0  0  0  0999 V2000
  181.2330  179.3320  138.9890 C   0  0  0  0  0  2  0  0  0  0  0  0
  180.0800  179.2050  143.0720 C   0  0  0  0  0  0  0  0  0  0  0  0
  183.5070  177.9820  141.0700 C   0  0  0  0  0  0  0  0  0  0  0  0
  180.3260  180.2370  138.1530 C   0  0  2  0  0  3  0  0  0  0  0  0
  182.9940  176.1230  137.8710 C   0  0  0  0  0  2  0  0  0  0  0  0
  182.6150  179.1060  143.0110 C   0  0  0  0  0  0  0  0  0  0  0  0
  183.0120  177.0290  140.0080 C   0  0  2  0  0  3  0  0  0  0  0  0
  181.2160  178.8360  136.1560 C   0  0  2  0  0  3  0  0  0  0  0  0
  182.4930  178.2380  141.9390 C   0  0  0  0  0  0  0  0  0  0  0  0
  183.4660  177.2900  138.6220 N   0  0  1  0  0  0  0  0  0  0  0  0
  183.8740  179.6720  143.2640 C   0  0  0  0  0  3  0  0  0  0  0  0
  180.1230  179.7650  136.7010 C   0  0  0  0  0  2  0  0  0  0  0  0
  181.2790  177.6610  141.5440 N   0  0  0  0  0  0  0  0  0  0  0  0
  179.8940  180.3700  142.1150 C   0  0  0  0  0  1  0  0  0  0  0  0
  185.8850  178.2530  140.3520 C   0  0  0  0  0  2  0  0  0  0  0  0
  184.9560  179.3790  142.4050 C   0  0  0  0  0  3  0  0  0  0  0  0
  180.0350  177.8760  142.2850 C   0  0  0  0  0  2  0  0  0  0  0  0
  181.1110  177.3990  136.6990 C   0  0  1  0  0  3  0  0  0  0  0  0
  182.3670  176.5380  136.5460 C   0  0  0  0  0  2  0  0  0  0  0  0
  184.7740  178.5270  141.2980 C   0  0  0  0  0  0  0  0  0  0  0  0
  181.4460  177.0760  140.2150 C   0  0  1  0  0  3  0  0  0  0  0  0
  181.4030  179.3780  143.8580 C   0  0  0  0  0  2  0  0  0  0  0  0
  184.9510  177.3110  138.5640 C   0  0  2  0  0  3  0  0  0  0  0  0
  178.9320  179.2150  144.0570 C   0  0  0  0  0  1  0  0  0  0  0  0
  180.2430  177.1530  137.9460 C   0  0  0  0  0  2  0  0  0  0  0  0
  182.4860  179.3850  136.3600 O   0  0  0  0  0  1  0  0  0  0  0  0
  180.6580  177.9280  139.2040 C   0  0  2  0  0  3  0  0  0  0  0  0
  185.4400  178.5280  139.0580 O   0  0  0  0  0  0  0  0  0  0  0  0
  185.6580  178.2040  136.3010 C   0  0  0  0  0  3  0  0  0  0  0  0
  185.5060  177.1180  137.1760 C   0  0  0  0  0  0  0  0  0  0  0  0
  185.8690  175.8340  136.7540 C   0  0  0  0  0  3  0  0  0  0  0  0
  186.7260  174.3890  135.0640 F   0  0  0  0  0  0  0  0  0  0  0  0
  186.5250  176.7180  134.5980 C   0  0  0  0  0  3  0  0  0  0  0  0
  186.3770  175.6340  135.4670 C   0  0  0  0  0  0  0  0  0  0  0  0
  186.1660  178.0030  135.0150 C   0  0  0  0  0  3  0  0  0  0  0  0
  180.1510  182.1960  137.1390 C   0  0  0  0  0  1  0  0  0  0  0  0
  180.8480  181.5320  138.1500 O   0  0  0  0  0  0  0  0  0  0  0  0
  1 27  1  0  0  0  0
  2 22  1  0  0  0  0
  2 24  1  0  0  0  0
  3 20  2  0  0  0  0
  3  9  1  0  0  0  0
  4 37  1  6  0  0  0
  4  1  1  0  0  0  0
  6 11  1  0  0  0  0
  6 22  1  0  0  0  0
  7 21  1  0  0  0  0
  7  3  1  1  0  0  0
  8 26  1  1  0  0  0
  8 18  1  0  0  0  0
  8 12  1  0  0  0  0
  9  6  2  0  0  0  0
 10  5  1  6  0  0  0
 10  7  1  0  0  0  0
 12  4  1  0  0  0  0
 13  9  1  0  0  0  0
 13 17  1  0  0  0  0
 14  2  1  0  0  0  0
 15 20  1  0  0  0  0
 16 11  2  0  0  0  0
 17  2  1  0  0  0  0
 18 19  1  1  0  0  0
 18 25  1  0  0  0  0
 19  5  1  0  0  0  0
 20 16  1  0  0  0  0
 21 13  1  1  0  0  0
 23 30  1  6  0  0  0
 23 10  1  0  0  0  0
 23 28  1  0  0  0  0
 27 25  1  6  0  0  0
 27 21  1  0  0  0  0
 28 15  1  0  0  0  0
 29 30  1  0  0  0  0
 31 30  2  0  0  0  0
 32 34  1  0  0  0  0
 33 35  1  0  0  0  0
 33 34  2  0  0  0  0
 34 31  1  0  0  0  0
 35 29  2  0  0  0  0
 36 37  1  0  0  0  0
M  END
>  <MODEL>
9

>  <REMARK>
 VINA RESULT:      -3.9      2.808      6.888
  Name = 
  2 active torsions:
  status: ('A' for Active; 'I' for Inactive)
    1  A    between atoms: C_4  and  O_37
    2  A    between atoms: C_23  and  C_30
                            x       y       z     vdW  Elec       q    Type
                         _______ _______ _______ _____ _____    ______ ____

>  <TORSDO>
F 2

$$$$
