=
 OpenBabel11122412183D

 34 39  0  0  1  0  0  0  0  0999 V2000
  187.4660  178.5640  140.0980 C   0  0  2  0  0  3  0  0  0  0  0  0
  189.3930  177.8110  141.6800 C   0  0  0  0  0  2  0  0  0  0  0  0
  180.7450  179.8280  140.3680 C   0  0  0  0  0  2  0  0  0  0  0  0
  185.3170  178.5460  138.8690 C   0  0  0  0  0  0  0  0  0  0  0  0
  183.2290  177.8190  139.9920 C   0  0  0  0  0  0  0  0  0  0  0  0
  180.8590  177.3580  140.6900 C   0  0  0  0  0  2  0  0  0  0  0  0
  180.0840  178.4980  140.0470 C   0  0  0  0  0  2  0  0  0  0  0  0
  181.8950  180.0010  138.1340 C   0  0  0  0  0  2  0  0  0  0  0  0
  187.1060  177.6080  142.4050 C   0  0  2  0  0  3  0  0  0  0  0  0
  183.8530  177.8880  141.1800 C   0  0  0  0  0  3  0  0  0  0  0  0
  183.2990  179.9710  138.7120 C   0  0  0  0  0  2  0  0  0  0  0  0
  185.8730  178.4730  142.6620 C   0  0  1  0  0  3  0  0  0  0  0  0
  189.3920  177.2180  143.0840 C   0  0  0  0  0  2  0  0  0  0  0  0
  183.8090  178.5360  138.7880 C   0  0  1  0  0  3  0  0  0  0  0  0
  180.9220  180.6590  139.1060 C   0  0  0  0  0  2  0  0  0  0  0  0
  185.9430  178.6820  140.0680 C   0  0  0  0  0  0  0  0  0  0  0  0
  182.0380  176.9250  139.8220 C   0  0  0  0  0  2  0  0  0  0  0  0
  185.0910  178.7420  141.3440 C   0  0  1  0  0  3  0  0  0  0  0  0
  187.2930  177.3640  137.9570 C   0  0  0  0  0  3  0  0  0  0  0  0
  186.1260  178.2650  137.6260 C   0  0  0  0  0  2  0  0  0  0  0  0
  187.9700  177.3370  143.6200 C   0  0  0  0  0  2  0  0  0  0  0  0
  187.9290  177.4990  139.1310 C   0  0  0  0  0  3  0  0  0  0  0  0
  188.0140  178.4130  141.5200 C   0  0  2  0  0  3  0  0  0  0  0  0
  184.9920  177.9480  143.8000 C   0  0  0  0  0  2  0  0  0  0  0  0
  184.4690  179.0880  144.6590 C   0  0  0  0  0  2  0  0  0  0  0  0
  184.6260  178.7540  146.1290 C   0  0  0  0  0  2  0  0  0  0  0  0
  185.5280  179.6440  146.7100 O   0  0  0  0  0  0  0  0  0  0  0  0
  186.2820  178.8590  147.5830 C   0  0  0  0  0  2  0  0  0  0  0  0
  187.0480  177.8000  146.8050 C   0  0  0  0  0  2  0  0  0  0  0  0
  190.3750  177.4060  147.8010 C   0  0  0  0  0  2  0  0  0  0  0  0
  188.4860  177.9600  148.8440 C   0  0  0  0  0  2  0  0  0  0  0  0
  188.0370  177.0700  147.7010 C   0  0  2  0  0  3  0  0  0  0  0  0
  189.7920  178.4060  148.5900 O   0  0  0  0  0  0  0  0  0  0  0  0
  189.2960  176.8100  146.9320 C   0  0  0  0  0  2  0  0  0  0  0  0
  1 22  1  6  0  0  0
  1 23  1  0  0  0  0
  2 13  1  0  0  0  0
  4 16  2  0  0  0  0
  5 10  2  0  0  0  0
  7  3  1  0  0  0  0
  7  6  1  0  0  0  0
  8 11  1  0  0  0  0
  8 15  1  0  0  0  0
  9 12  1  0  0  0  0
  9 21  1  1  0  0  0
 12 24  1  1  0  0  0
 13 21  1  0  0  0  0
 14 11  1  1  0  0  0
 14  4  1  0  0  0  0
 14  5  1  0  0  0  0
 15  3  1  0  0  0  0
 16  1  1  0  0  0  0
 16 18  1  0  0  0  0
 17  5  1  0  0  0  0
 17  6  1  0  0  0  0
 18 10  1  6  0  0  0
 18 12  1  0  0  0  0
 19 22  2  0  0  0  0
 20 19  1  0  0  0  0
 20  4  1  0  0  0  0
 23  2  1  6  0  0  0
 23  9  1  0  0  0  0
 24 25  1  0  0  0  0
 25 26  1  0  0  0  0
 26 27  1  0  0  0  0
 27 28  1  0  0  0  0
 29 28  1  0  0  0  0
 30 33  1  0  0  0  0
 32 29  1  6  0  0  0
 32 31  1  0  0  0  0
 33 31  1  0  0  0  0
 34 32  1  0  0  0  0
 34 30  1  0  0  0  0
M  END
>  <MODEL>
1

>  <REMARK>
 VINA RESULT:      -8.4      0.000      0.000
  Name = 
  7 active torsions:
  status: ('A' for Active; 'I' for Inactive)
    1  A    between atoms: C_10  and  O_17
    2  A    between atoms: C_10  and  C_22
    3  A    between atoms: C_13  and  C_24
    4  A    between atoms: O_17  and  C_28
    5  A    between atoms: C_22  and  C_24
    6  A    between atoms: C_28  and  C_29
    7  A    between atoms: C_29  and  C_32
                            x       y       z     vdW  Elec       q    Type
                         _______ _______ _______ _____ _____    ______ ____

>  <TORSDO>
F 7

$$$$
=
 OpenBabel11122412183D

 34 39  0  0  1  0  0  0  0  0999 V2000
  185.0750  179.0630  145.4120 C   0  0  2  0  0  3  0  0  0  0  0  0
  182.5860  179.2920  144.6810 C   0  0  0  0  0  2  0  0  0  0  0  0
  191.2230  178.0340  142.5870 C   0  0  0  0  0  2  0  0  0  0  0  0
  187.3400  178.1090  145.7030 C   0  0  0  0  0  0  0  0  0  0  0  0
  188.4660  176.9380  143.8290 C   0  0  0  0  0  0  0  0  0  0  0  0
  190.0810  175.8430  142.2460 C   0  0  0  0  0  2  0  0  0  0  0  0
  191.4010  176.5250  142.5760 C   0  0  0  0  0  2  0  0  0  0  0  0
  191.0820  178.1800  145.0970 C   0  0  0  0  0  2  0  0  0  0  0  0
  184.2180  178.4680  143.1140 C   0  0  2  0  0  3  0  0  0  0  0  0
  187.5420  177.4220  142.9820 C   0  0  0  0  0  3  0  0  0  0  0  0
  189.6640  178.7250  145.1120 C   0  0  0  0  0  2  0  0  0  0  0  0
  185.5120  178.9020  142.4280 C   0  0  1  0  0  3  0  0  0  0  0  0
  181.8730  178.9920  143.3680 C   0  0  0  0  0  2  0  0  0  0  0  0
  188.6590  177.5810  145.1890 C   0  0  1  0  0  3  0  0  0  0  0  0
  191.8250  178.6370  143.8470 C   0  0  0  0  0  2  0  0  0  0  0  0
  186.4360  178.6570  144.8500 C   0  0  0  0  0  0  0  0  0  0  0  0
  189.2100  175.6820  143.4890 C   0  0  0  0  0  2  0  0  0  0  0  0
  186.7440  178.6560  143.3450 C   0  0  1  0  0  3  0  0  0  0  0  0
  185.5180  177.5130  147.2710 C   0  0  0  0  0  3  0  0  0  0  0  0
  186.9740  177.8980  147.1520 C   0  0  0  0  0  2  0  0  0  0  0  0
  182.9510  178.7220  142.3240 C   0  0  0  0  0  2  0  0  0  0  0  0
  184.6140  178.0590  146.4430 C   0  0  0  0  0  3  0  0  0  0  0  0
  184.0520  179.3590  144.3120 C   0  0  2  0  0  3  0  0  0  0  0  0
  185.6730  178.3250  141.0180 C   0  0  0  0  0  2  0  0  0  0  0  0
  184.9010  179.1440  139.9980 C   0  0  0  0  0  2  0  0  0  0  0  0
  184.8120  178.3990  138.6810 C   0  0  0  0  0  2  0  0  0  0  0  0
  185.8530  178.8060  137.8490 O   0  0  0  0  0  0  0  0  0  0  0  0
  186.0940  177.7070  137.0240 C   0  0  0  0  0  2  0  0  0  0  0  0
  187.3110  176.9400  137.5180 C   0  0  0  0  0  2  0  0  0  0  0  0
  190.4320  177.3910  139.0250 C   0  0  0  0  0  2  0  0  0  0  0  0
  189.6740  177.5140  136.9340 C   0  0  0  0  0  2  0  0  0  0  0  0
  188.4760  177.8790  137.7900 C   0  0  2  0  0  3  0  0  0  0  0  0
  190.6330  176.8780  137.7370 O   0  0  0  0  0  0  0  0  0  0  0  0
  188.9600  177.6680  139.1920 C   0  0  0  0  0  2  0  0  0  0  0  0
  1 22  1  1  0  0  0
  3 15  1  0  0  0  0
  4 20  1  0  0  0  0
  5 14  1  0  0  0  0
  6  7  1  0  0  0  0
  6 17  1  0  0  0  0
  7  3  1  0  0  0  0
  8 11  1  0  0  0  0
  9 21  1  6  0  0  0
  9 23  1  0  0  0  0
 10  5  2  0  0  0  0
 12 24  1  6  0  0  0
 12  9  1  0  0  0  0
 12 18  1  0  0  0  0
 13  2  1  0  0  0  0
 14 11  1  6  0  0  0
 14  4  1  0  0  0  0
 15  8  1  0  0  0  0
 16  1  1  0  0  0  0
 16  4  2  0  0  0  0
 17  5  1  0  0  0  0
 18 10  1  6  0  0  0
 18 16  1  0  0  0  0
 20 19  1  0  0  0  0
 21 13  1  0  0  0  0
 22 19  2  0  0  0  0
 23  2  1  1  0  0  0
 23  1  1  0  0  0  0
 25 24  1  0  0  0  0
 26 25  1  0  0  0  0
 27 26  1  0  0  0  0
 28 29  1  0  0  0  0
 28 27  1  0  0  0  0
 30 34  1  0  0  0  0
 31 33  1  0  0  0  0
 31 32  1  0  0  0  0
 32 29  1  6  0  0  0
 32 34  1  0  0  0  0
 33 30  1  0  0  0  0
M  END
>  <MODEL>
2

>  <REMARK>
 VINA RESULT:      -8.1      3.105      8.244
  Name = 
  7 active torsions:
  status: ('A' for Active; 'I' for Inactive)
    1  A    between atoms: C_10  and  O_17
    2  A    between atoms: C_10  and  C_22
    3  A    between atoms: C_13  and  C_24
    4  A    between atoms: O_17  and  C_28
    5  A    between atoms: C_22  and  C_24
    6  A    between atoms: C_28  and  C_29
    7  A    between atoms: C_29  and  C_32
                            x       y       z     vdW  Elec       q    Type
                         _______ _______ _______ _____ _____    ______ ____

>  <TORSDO>
F 7

$$$$
=
 OpenBabel11122412183D

 34 39  0  0  1  0  0  0  0  0999 V2000
  186.5540  178.3960  138.7810 C   0  0  2  0  0  3  0  0  0  0  0  0
  188.7380  178.1960  140.1860 C   0  0  0  0  0  2  0  0  0  0  0  0
  179.8090  179.0070  139.7640 C   0  0  0  0  0  2  0  0  0  0  0  0
  184.2930  177.9000  137.9050 C   0  0  0  0  0  0  0  0  0  0  0  0
  182.4660  177.2240  139.4400 C   0  0  0  0  0  0  0  0  0  0  0  0
  180.2760  176.6870  140.5510 C   0  0  0  0  0  2  0  0  0  0  0  0
  179.2900  177.5800  139.8130 C   0  0  0  0  0  2  0  0  0  0  0  0
  180.6480  178.8120  137.3970 C   0  0  0  0  0  2  0  0  0  0  0  0
  186.6000  177.9250  141.2600 C   0  0  2  0  0  3  0  0  0  0  0  0
  183.2140  177.6080  140.4880 C   0  0  0  0  0  3  0  0  0  0  0  0
  182.1050  179.0480  137.7610 C   0  0  0  0  0  2  0  0  0  0  0  0
  185.3060  178.6960  141.5150 C   0  0  1  0  0  3  0  0  0  0  0  0
  188.9830  177.9210  141.6640 C   0  0  0  0  0  2  0  0  0  0  0  0
  182.8000  177.7210  138.0460 C   0  0  1  0  0  3  0  0  0  0  0  0
  179.7240  179.5620  138.3500 C   0  0  0  0  0  2  0  0  0  0  0  0
  185.0360  178.3510  138.9490 C   0  0  0  0  0  0  0  0  0  0  0  0
  181.3870  176.2000  139.6250 C   0  0  0  0  0  2  0  0  0  0  0  0
  184.3440  178.5980  140.2970 C   0  0  1  0  0  3  0  0  0  0  0  0
  186.2790  176.7540  136.9700 C   0  0  0  0  0  3  0  0  0  0  0  0
  184.9760  177.4410  136.6390 C   0  0  0  0  0  2  0  0  0  0  0  0
  187.6320  178.0080  142.3660 C   0  0  0  0  0  2  0  0  0  0  0  0
  187.0290  177.2000  137.9890 C   0  0  0  0  0  3  0  0  0  0  0  0
  187.2840  178.6080  140.1100 C   0  0  2  0  0  3  0  0  0  0  0  0
  184.6440  178.3420  142.8500 C   0  0  0  0  0  2  0  0  0  0  0  0
  184.6440  179.5320  143.7960 C   0  0  0  0  0  2  0  0  0  0  0  0
  184.4650  179.0670  145.2270 C   0  0  0  0  0  2  0  0  0  0  0  0
  185.6080  179.3810  145.9610 O   0  0  0  0  0  0  0  0  0  0  0  0
  185.9560  178.1890  146.5970 C   0  0  0  0  0  2  0  0  0  0  0  0
  187.1330  177.5400  145.8830 C   0  0  0  0  0  2  0  0  0  0  0  0
  190.2470  176.7640  147.2670 C   0  0  0  0  0  2  0  0  0  0  0  0
  189.5750  177.8280  145.4280 C   0  0  0  0  0  2  0  0  0  0  0  0
  188.4560  178.0570  146.4270 C   0  0  2  0  0  3  0  0  0  0  0  0
  190.3690  176.7590  145.8710 O   0  0  0  0  0  0  0  0  0  0  0  0
  188.8570  177.2320  147.6120 C   0  0  0  0  0  2  0  0  0  0  0  0
  1 22  1  1  0  0  0
  1 16  1  0  0  0  0
  1 23  1  0  0  0  0
  2 13  1  0  0  0  0
  3  7  1  0  0  0  0
  4 14  1  0  0  0  0
  4 16  2  0  0  0  0
  5 17  1  0  0  0  0
  5 10  2  0  0  0  0
  7  6  1  0  0  0  0
  8 11  1  0  0  0  0
  8 15  1  0  0  0  0
  9 12  1  0  0  0  0
  9 21  1  1  0  0  0
 12 24  1  1  0  0  0
 13 21  1  0  0  0  0
 14 11  1  1  0  0  0
 14  5  1  0  0  0  0
 15  3  1  0  0  0  0
 16 18  1  0  0  0  0
 17  6  1  0  0  0  0
 18 10  1  1  0  0  0
 18 12  1  0  0  0  0
 19 22  2  0  0  0  0
 20 19  1  0  0  0  0
 20  4  1  0  0  0  0
 23  2  1  6  0  0  0
 23  9  1  0  0  0  0
 24 25  1  0  0  0  0
 25 26  1  0  0  0  0
 26 27  1  0  0  0  0
 27 28  1  0  0  0  0
 29 28  1  0  0  0  0
 30 34  1  0  0  0  0
 31 33  1  0  0  0  0
 31 32  1  0  0  0  0
 32 29  1  6  0  0  0
 32 34  1  0  0  0  0
 33 30  1  0  0  0  0
M  END
>  <MODEL>
3

>  <REMARK>
 VINA RESULT:      -7.6      1.231      1.565
  Name = 
  7 active torsions:
  status: ('A' for Active; 'I' for Inactive)
    1  A    between atoms: C_10  and  O_17
    2  A    between atoms: C_10  and  C_22
    3  A    between atoms: C_13  and  C_24
    4  A    between atoms: O_17  and  C_28
    5  A    between atoms: C_22  and  C_24
    6  A    between atoms: C_28  and  C_29
    7  A    between atoms: C_29  and  C_32
                            x       y       z     vdW  Elec       q    Type
                         _______ _______ _______ _____ _____    ______ ____

>  <TORSDO>
F 7

$$$$
=
 OpenBabel11122412183D

 34 39  0  0  1  0  0  0  0  0999 V2000
  184.8590  179.1700  145.0230 C   0  0  2  0  0  3  0  0  0  0  0  0
  182.4200  179.3700  144.1330 C   0  0  0  0  0  2  0  0  0  0  0  0
  191.1440  177.8750  142.6430 C   0  0  0  0  0  2  0  0  0  0  0  0
  187.0900  178.2170  145.5140 C   0  0  0  0  0  0  0  0  0  0  0  0
  188.3040  176.9010  143.7980 C   0  0  0  0  0  0  0  0  0  0  0  0
  189.9930  175.6770  142.3940 C   0  0  0  0  0  2  0  0  0  0  0  0
  191.3000  176.3680  142.7510 C   0  0  0  0  0  2  0  0  0  0  0  0
  190.8610  178.2060  145.1230 C   0  0  0  0  0  2  0  0  0  0  0  0
  184.1270  178.4180  142.7280 C   0  0  2  0  0  3  0  0  0  0  0  0
  187.4380  177.3310  142.8650 C   0  0  0  0  0  3  0  0  0  0  0  0
  189.4520  178.7650  145.0160 C   0  0  0  0  0  2  0  0  0  0  0  0
  185.4650  178.7870  142.0890 C   0  0  1  0  0  3  0  0  0  0  0  0
  181.7790  178.9830  142.8060 C   0  0  0  0  0  2  0  0  0  0  0  0
  188.4280  177.6400  145.1170 C   0  0  1  0  0  3  0  0  0  0  0  0
  191.6820  178.5630  143.8890 C   0  0  0  0  0  2  0  0  0  0  0  0
  186.2440  178.7110  144.5720 C   0  0  0  0  0  0  0  0  0  0  0  0
  189.0490  175.6160  143.5930 C   0  0  0  0  0  2  0  0  0  0  0  0
  186.6390  178.5960  143.0920 C   0  0  1  0  0  3  0  0  0  0  0  0
  185.1730  177.7550  147.0110 C   0  0  0  0  0  3  0  0  0  0  0  0
  186.6380  178.1160  146.9510 C   0  0  0  0  0  2  0  0  0  0  0  0
  182.9110  178.6270  141.8490 C   0  0  0  0  0  2  0  0  0  0  0  0
  184.3250  178.2490  146.0950 C   0  0  0  0  0  3  0  0  0  0  0  0
  183.9050  179.3950  143.8470 C   0  0  2  0  0  3  0  0  0  0  0  0
  185.6980  178.1080  140.7360 C   0  0  0  0  0  2  0  0  0  0  0  0
  186.5820  178.9580  139.8400 C   0  0  0  0  0  2  0  0  0  0  0  0
  187.7860  178.1620  139.3770 C   0  0  0  0  0  2  0  0  0  0  0  0
  188.7350  179.0290  138.8400 O   0  0  0  0  0  0  0  0  0  0  0  0
  189.3900  178.2750  137.8660 C   0  0  0  0  0  2  0  0  0  0  0  0
  190.2110  177.1750  138.5220 C   0  0  0  0  0  2  0  0  0  0  0  0
  192.7340  174.8220  137.9590 C   0  0  0  0  0  2  0  0  0  0  0  0
  190.6600  175.1050  137.1930 C   0  0  0  0  0  2  0  0  0  0  0  0
  191.1370  176.5080  137.5160 C   0  0  2  0  0  3  0  0  0  0  0  0
  191.4940  174.1800  137.8390 O   0  0  0  0  0  0  0  0  0  0  0  0
  192.4780  176.2950  138.1490 C   0  0  0  0  0  2  0  0  0  0  0  0
  1 22  1  1  0  0  0
  3  7  1  0  0  0  0
  3 15  1  0  0  0  0
  4 20  1  0  0  0  0
  5 14  1  0  0  0  0
  6  7  1  0  0  0  0
  6 17  1  0  0  0  0
  9 21  1  6  0  0  0
  9 23  1  0  0  0  0
 10  5  2  0  0  0  0
 11  8  1  0  0  0  0
 12 24  1  6  0  0  0
 12  9  1  0  0  0  0
 12 18  1  0  0  0  0
 13  2  1  0  0  0  0
 14 11  1  6  0  0  0
 14  4  1  0  0  0  0
 15  8  1  0  0  0  0
 16  1  1  0  0  0  0
 16  4  2  0  0  0  0
 17  5  1  0  0  0  0
 18 10  1  1  0  0  0
 18 16  1  0  0  0  0
 20 19  1  0  0  0  0
 21 13  1  0  0  0  0
 22 19  2  0  0  0  0
 23  2  1  1  0  0  0
 23  1  1  0  0  0  0
 25 24  1  0  0  0  0
 26 25  1  0  0  0  0
 27 26  1  0  0  0  0
 28 29  1  0  0  0  0
 28 27  1  0  0  0  0
 30 34  1  0  0  0  0
 31 32  1  0  0  0  0
 31 33  1  0  0  0  0
 32 34  1  0  0  0  0
 32 29  1  1  0  0  0
 33 30  1  0  0  0  0
M  END
>  <MODEL>
4

>  <REMARK>
 VINA RESULT:      -7.4      3.305      8.314
  Name = 
  7 active torsions:
  status: ('A' for Active; 'I' for Inactive)
    1  A    between atoms: C_10  and  O_17
    2  A    between atoms: C_10  and  C_22
    3  A    between atoms: C_13  and  C_24
    4  A    between atoms: O_17  and  C_28
    5  A    between atoms: C_22  and  C_24
    6  A    between atoms: C_28  and  C_29
    7  A    between atoms: C_29  and  C_32
                            x       y       z     vdW  Elec       q    Type
                         _______ _______ _______ _____ _____    ______ ____

>  <TORSDO>
F 7

$$$$
=
 OpenBabel11122412183D

 34 39  0  0  1  0  0  0  0  0999 V2000
  185.0790  179.0530  145.4310 C   0  0  2  0  0  3  0  0  0  0  0  0
  182.5890  179.2970  144.7060 C   0  0  0  0  0  2  0  0  0  0  0  0
  191.2050  177.9270  142.5950 C   0  0  0  0  0  2  0  0  0  0  0  0
  187.3360  178.0790  145.7250 C   0  0  0  0  0  0  0  0  0  0  0  0
  188.4420  176.8740  143.8610 C   0  0  0  0  0  0  0  0  0  0  0  0
  190.0410  175.7440  142.2850 C   0  0  0  0  0  2  0  0  0  0  0  0
  191.3680  176.4160  142.6020 C   0  0  0  0  0  2  0  0  0  0  0  0
  191.0760  178.1060  145.1040 C   0  0  0  0  0  2  0  0  0  0  0  0
  184.2070  178.4380  143.1440 C   0  0  2  0  0  3  0  0  0  0  0  0
  187.5200  177.3570  143.0110 C   0  0  0  0  0  3  0  0  0  0  0  0
  189.6630  178.6650  145.1170 C   0  0  0  0  0  2  0  0  0  0  0  0
  185.5030  178.8500  142.4480 C   0  0  1  0  0  3  0  0  0  0  0  0
  181.8680  178.9890  143.4000 C   0  0  0  0  0  2  0  0  0  0  0  0
  188.6470  177.5320  145.2120 C   0  0  1  0  0  3  0  0  0  0  0  0
  191.8190  178.5400  143.8450 C   0  0  0  0  0  2  0  0  0  0  0  0
  186.4340  178.6260  144.8680 C   0  0  0  0  0  0  0  0  0  0  0  0
  189.1730  175.6070  143.5330 C   0  0  0  0  0  2  0  0  0  0  0  0
  186.7360  178.6030  143.3630 C   0  0  1  0  0  3  0  0  0  0  0  0
  185.5140  177.5210  147.3060 C   0  0  0  0  0  3  0  0  0  0  0  0
  186.9730  177.8900  147.1780 C   0  0  0  0  0  2  0  0  0  0  0  0
  182.9390  178.6950  142.3550 C   0  0  0  0  0  2  0  0  0  0  0  0
  184.6120  178.0660  146.4760 C   0  0  0  0  0  3  0  0  0  0  0  0
  184.0540  179.3450  144.3310 C   0  0  2  0  0  3  0  0  0  0  0  0
  185.6530  178.2540  141.0440 C   0  0  0  0  0  2  0  0  0  0  0  0
  184.9300  179.1000  140.0090 C   0  0  0  0  0  2  0  0  0  0  0  0
  184.6070  178.2700  138.7820 C   0  0  0  0  0  2  0  0  0  0  0  0
  183.2570  178.4170  138.4680 O   0  0  0  0  0  0  0  0  0  0  0  0
  182.7730  177.1120  138.3810 C   0  0  0  0  0  2  0  0  0  0  0  0
  182.0660  176.7300  139.6730 C   0  0  0  0  0  2  0  0  0  0  0  0
  179.0660  175.0630  140.3340 C   0  0  0  0  0  2  0  0  0  0  0  0
  179.8400  177.1110  140.7470 C   0  0  0  0  0  2  0  0  0  0  0  0
  180.5580  176.6860  139.4800 C   0  0  2  0  0  3  0  0  0  0  0  0
  179.3040  175.9740  141.3710 O   0  0  0  0  0  0  0  0  0  0  0  0
  180.1290  175.2640  139.2840 C   0  0  0  0  0  2  0  0  0  0  0  0
  1 22  1  1  0  0  0
  3  7  1  0  0  0  0
  3 15  1  0  0  0  0
  4 20  1  0  0  0  0
  5 14  1  0  0  0  0
  6  7  1  0  0  0  0
  6 17  1  0  0  0  0
  8 11  1  0  0  0  0
  9 21  1  6  0  0  0
  9 23  1  0  0  0  0
 10  5  2  0  0  0  0
 12 24  1  6  0  0  0
 12  9  1  0  0  0  0
 12 18  1  0  0  0  0
 13  2  1  0  0  0  0
 14 11  1  6  0  0  0
 14  4  1  0  0  0  0
 15  8  1  0  0  0  0
 16  1  1  0  0  0  0
 16  4  2  0  0  0  0
 17  5  1  0  0  0  0
 18 10  1  6  0  0  0
 18 16  1  0  0  0  0
 20 19  1  0  0  0  0
 21 13  1  0  0  0  0
 22 19  2  0  0  0  0
 23  2  1  1  0  0  0
 23  1  1  0  0  0  0
 25 24  1  0  0  0  0
 26 25  1  0  0  0  0
 27 26  1  0  0  0  0
 28 27  1  0  0  0  0
 28 29  1  0  0  0  0
 30 33  1  0  0  0  0
 31 33  1  0  0  0  0
 32 29  1  1  0  0  0
 32 31  1  0  0  0  0
 34 32  1  0  0  0  0
 34 30  1  0  0  0  0
M  END
>  <MODEL>
5

>  <REMARK>
 VINA RESULT:      -7.3      3.117      8.660
  Name = 
  7 active torsions:
  status: ('A' for Active; 'I' for Inactive)
    1  A    between atoms: C_10  and  O_17
    2  A    between atoms: C_10  and  C_22
    3  A    between atoms: C_13  and  C_24
    4  A    between atoms: O_17  and  C_28
    5  A    between atoms: C_22  and  C_24
    6  A    between atoms: C_28  and  C_29
    7  A    between atoms: C_29  and  C_32
                            x       y       z     vdW  Elec       q    Type
                         _______ _______ _______ _____ _____    ______ ____

>  <TORSDO>
F 7

$$$$
=
 OpenBabel11122412183D

 34 39  0  0  1  0  0  0  0  0999 V2000
  182.3870  177.1560  136.9990 C   0  0  2  0  0  3  0  0  0  0  0  0
  180.3260  178.2510  138.1550 C   0  0  0  0  0  2  0  0  0  0  0  0
  189.1020  176.3690  138.0620 C   0  0  0  0  0  2  0  0  0  0  0  0
  184.6210  176.9130  135.9610 C   0  0  0  0  0  0  0  0  0  0  0  0
  186.5970  178.0460  136.9410 C   0  0  0  0  0  0  0  0  0  0  0  0
  188.8940  178.8130  137.6150 C   0  0  0  0  0  2  0  0  0  0  0  0
  189.7470  177.5730  137.3970 C   0  0  0  0  0  2  0  0  0  0  0  0
  188.1300  175.4770  135.9170 C   0  0  0  0  0  2  0  0  0  0  0  0
  182.5450  178.7760  138.9270 C   0  0  2  0  0  3  0  0  0  0  0  0
  185.8880  178.3050  138.0520 C   0  0  0  0  0  3  0  0  0  0  0  0
  186.6850  175.6090  136.3690 C   0  0  0  0  0  2  0  0  0  0  0  0
  183.7800  178.0910  139.5100 C   0  0  1  0  0  3  0  0  0  0  0  0
  180.2040  179.2360  139.3100 C   0  0  0  0  0  2  0  0  0  0  0  0
  186.1300  176.9730  135.9760 C   0  0  1  0  0  3  0  0  0  0  0  0
  189.0450  175.1900  137.1020 C   0  0  0  0  0  2  0  0  0  0  0  0
  183.9110  177.1110  137.1020 C   0  0  0  0  0  0  0  0  0  0  0  0
  187.7720  178.9060  136.5840 C   0  0  0  0  0  2  0  0  0  0  0  0
  184.6660  177.4780  138.3880 C   0  0  1  0  0  3  0  0  0  0  0  0
  182.6870  177.6670  134.6110 C   0  0  0  0  0  3  0  0  0  0  0  0
  183.9000  176.7680  134.6420 C   0  0  0  0  0  2  0  0  0  0  0  0
  181.5850  179.3550  139.9460 C   0  0  0  0  0  2  0  0  0  0  0  0
  181.9680  177.8590  135.7280 C   0  0  0  0  0  3  0  0  0  0  0  0
  181.7300  177.6990  138.2710 C   0  0  2  0  0  3  0  0  0  0  0  0
  184.5570  178.9750  140.4900 C   0  0  0  0  0  2  0  0  0  0  0  0
  184.6830  178.3090  141.8500 C   0  0  0  0  0  2  0  0  0  0  0  0
  183.7800  178.9930  142.8580 C   0  0  0  0  0  2  0  0  0  0  0  0
  184.5610  179.6390  143.8140 O   0  0  0  0  0  0  0  0  0  0  0  0
  184.4070  178.8720  144.9700 C   0  0  0  0  0  2  0  0  0  0  0  0
  185.6530  178.9770  145.8360 C   0  0  0  0  0  2  0  0  0  0  0  0
  188.5280  177.1650  145.0160 C   0  0  0  0  0  2  0  0  0  0  0  0
  187.5080  177.7000  146.9240 C   0  0  0  0  0  2  0  0  0  0  0  0
  186.3890  177.6470  145.9000 C   0  0  2  0  0  3  0  0  0  0  0  0
  188.7370  177.7910  146.2520 O   0  0  0  0  0  0  0  0  0  0  0  0
  187.1000  177.4150  144.6020 C   0  0  0  0  0  2  0  0  0  0  0  0
  1 22  1  6  0  0  0
  1 16  1  0  0  0  0
  1 23  1  0  0  0  0
  2 13  1  0  0  0  0
  4 14  1  0  0  0  0
  4 16  2  0  0  0  0
  5 10  2  0  0  0  0
  7  6  1  0  0  0  0
  7  3  1  0  0  0  0
  8 11  1  0  0  0  0
  8 15  1  0  0  0  0
  9 12  1  0  0  0  0
  9 21  1  1  0  0  0
 12 24  1  6  0  0  0
 13 21  1  0  0  0  0
 14 11  1  1  0  0  0
 14  5  1  0  0  0  0
 15  3  1  0  0  0  0
 16 18  1  0  0  0  0
 17  5  1  0  0  0  0
 17  6  1  0  0  0  0
 18 10  1  6  0  0  0
 18 12  1  0  0  0  0
 19 20  1  0  0  0  0
 19 22  2  0  0  0  0
 20  4  1  0  0  0  0
 23  2  1  6  0  0  0
 23  9  1  0  0  0  0
 24 25  1  0  0  0  0
 25 26  1  0  0  0  0
 26 27  1  0  0  0  0
 27 28  1  0  0  0  0
 28 29  1  0  0  0  0
 30 33  1  0  0  0  0
 32 29  1  6  0  0  0
 32 31  1  0  0  0  0
 33 31  1  0  0  0  0
 34 30  1  0  0  0  0
 34 32  1  0  0  0  0
M  END
>  <MODEL>
6

>  <REMARK>
 VINA RESULT:      -7.3      2.119      5.902
  Name = 
  7 active torsions:
  status: ('A' for Active; 'I' for Inactive)
    1  A    between atoms: C_10  and  O_17
    2  A    between atoms: C_10  and  C_22
    3  A    between atoms: C_13  and  C_24
    4  A    between atoms: O_17  and  C_28
    5  A    between atoms: C_22  and  C_24
    6  A    between atoms: C_28  and  C_29
    7  A    between atoms: C_29  and  C_32
                            x       y       z     vdW  Elec       q    Type
                         _______ _______ _______ _____ _____    ______ ____

>  <TORSDO>
F 7

$$$$
=
 OpenBabel11122412183D

 34 39  0  0  1  0  0  0  0  0999 V2000
  186.0980  177.7290  144.8410 C   0  0  2  0  0  3  0  0  0  0  0  0
  188.3490  177.8790  146.1440 C   0  0  0  0  0  2  0  0  0  0  0  0
  183.8840  177.1310  138.3930 C   0  0  0  0  0  2  0  0  0  0  0  0
  184.3010  178.2610  143.2250 C   0  0  0  0  0  0  0  0  0  0  0  0
  184.8520  178.9060  140.8950 C   0  0  0  0  0  0  0  0  0  0  0  0
  184.8570  179.4270  138.4350 C   0  0  0  0  0  2  0  0  0  0  0  0
  183.7280  178.5590  137.8990 C   0  0  0  0  0  2  0  0  0  0  0  0
  182.1660  177.3830  140.2180 C   0  0  0  0  0  2  0  0  0  0  0  0
  188.3370  178.1350  143.7500 C   0  0  2  0  0  3  0  0  0  0  0  0
  186.1150  178.4910  141.0860 C   0  0  0  0  0  3  0  0  0  0  0  0
  183.1470  177.1290  141.3500 C   0  0  0  0  0  2  0  0  0  0  0  0
  187.9550  177.3650  142.4870 C   0  0  1  0  0  3  0  0  0  0  0  0
  189.7830  178.1150  145.6870 C   0  0  0  0  0  2  0  0  0  0  0  0
  183.7510  178.4440  141.8300 C   0  0  1  0  0  3  0  0  0  0  0  0
  182.5720  176.6140  138.9660 C   0  0  0  0  0  2  0  0  0  0  0  0
  185.5570  177.7780  143.4140 C   0  0  0  0  0  0  0  0  0  0  0  0
  184.5520  179.9320  139.8430 C   0  0  0  0  0  2  0  0  0  0  0  0
  186.4350  177.5010  142.1850 C   0  0  1  0  0  3  0  0  0  0  0  0
  184.4040  179.4190  145.4110 C   0  0  0  0  0  3  0  0  0  0  0  0
  183.4970  178.7480  144.4060 C   0  0  0  0  0  2  0  0  0  0  0  0
  189.7890  178.0170  144.1650 C   0  0  0  0  0  2  0  0  0  0  0  0
  185.6410  178.9420  145.6170 C   0  0  0  0  0  3  0  0  0  0  0  0
  187.6080  177.4780  144.8870 C   0  0  2  0  0  3  0  0  0  0  0  0
  188.8500  177.6880  141.2870 C   0  0  0  0  0  2  0  0  0  0  0  0
  190.0460  176.7530  141.2270 C   0  0  0  0  0  2  0  0  0  0  0  0
  190.9170  177.0870  140.0320 C   0  0  0  0  0  2  0  0  0  0  0  0
  190.9340  176.0030  139.1560 O   0  0  0  0  0  0  0  0  0  0  0  0
  190.5990  176.5480  137.9160 C   0  0  0  0  0  2  0  0  0  0  0  0
  189.3130  175.9190  137.4000 C   0  0  0  0  0  2  0  0  0  0  0  0
  187.4230  178.6290  136.2580 C   0  0  0  0  0  2  0  0  0  0  0  0
  186.9820  176.4900  136.6960 C   0  0  0  0  0  2  0  0  0  0  0  0
  188.1230  176.8380  137.6330 C   0  0  2  0  0  3  0  0  0  0  0  0
  186.9110  177.4590  135.6830 O   0  0  0  0  0  0  0  0  0  0  0  0
  188.4960  178.2350  137.2410 C   0  0  0  0  0  2  0  0  0  0  0  0
  1 23  1  0  0  0  0
  1 22  1  6  0  0  0
  3 15  1  0  0  0  0
  4 16  2  0  0  0  0
  4 20  1  0  0  0  0
  5 10  2  0  0  0  0
  5 14  1  0  0  0  0
  6 17  1  0  0  0  0
  7  3  1  0  0  0  0
  7  6  1  0  0  0  0
  8 11  1  0  0  0  0
  9 21  1  1  0  0  0
  9 23  1  0  0  0  0
 12 24  1  6  0  0  0
 12  9  1  0  0  0  0
 13  2  1  0  0  0  0
 14 11  1  6  0  0  0
 14  4  1  0  0  0  0
 15  8  1  0  0  0  0
 16  1  1  0  0  0  0
 17  5  1  0  0  0  0
 18 10  1  6  0  0  0
 18 12  1  0  0  0  0
 18 16  1  0  0  0  0
 19 22  2  0  0  0  0
 20 19  1  0  0  0  0
 21 13  1  0  0  0  0
 23  2  1  1  0  0  0
 25 24  1  0  0  0  0
 26 25  1  0  0  0  0
 27 26  1  0  0  0  0
 28 27  1  0  0  0  0
 29 28  1  0  0  0  0
 30 34  1  0  0  0  0
 31 32  1  0  0  0  0
 32 29  1  6  0  0  0
 33 30  1  0  0  0  0
 33 31  1  0  0  0  0
 34 32  1  0  0  0  0
M  END
>  <MODEL>
7

>  <REMARK>
 VINA RESULT:      -6.9      2.911      6.781
  Name = 
  7 active torsions:
  status: ('A' for Active; 'I' for Inactive)
    1  A    between atoms: C_10  and  O_17
    2  A    between atoms: C_10  and  C_22
    3  A    between atoms: C_13  and  C_24
    4  A    between atoms: O_17  and  C_28
    5  A    between atoms: C_22  and  C_24
    6  A    between atoms: C_28  and  C_29
    7  A    between atoms: C_29  and  C_32
                            x       y       z     vdW  Elec       q    Type
                         _______ _______ _______ _____ _____    ______ ____

>  <TORSDO>
F 7

$$$$
=
 OpenBabel11122412183D

 34 39  0  0  1  0  0  0  0  0999 V2000
  185.0840  179.0580  145.2250 C   0  0  2  0  0  3  0  0  0  0  0  0
  182.6410  179.3110  144.3590 C   0  0  0  0  0  2  0  0  0  0  0  0
  191.3540  177.8760  142.7480 C   0  0  0  0  0  2  0  0  0  0  0  0
  187.3150  178.0740  145.6530 C   0  0  0  0  0  0  0  0  0  0  0  0
  188.5170  176.8490  143.8640 C   0  0  0  0  0  0  0  0  0  0  0  0
  190.1950  175.6970  142.3880 C   0  0  0  0  0  2  0  0  0  0  0  0
  191.5070  176.3650  142.7750 C   0  0  0  0  0  2  0  0  0  0  0  0
  191.0840  178.0750  145.2440 C   0  0  0  0  0  2  0  0  0  0  0  0
  184.3390  178.4310  142.8970 C   0  0  2  0  0  3  0  0  0  0  0  0
  187.6470  177.3300  142.9600 C   0  0  0  0  0  3  0  0  0  0  0  0
  189.6760  178.6420  145.1740 C   0  0  0  0  0  2  0  0  0  0  0  0
  185.6750  178.8310  142.2720 C   0  0  1  0  0  3  0  0  0  0  0  0
  181.9930  178.9970  143.0170 C   0  0  0  0  0  2  0  0  0  0  0  0
  188.6500  177.5160  145.2190 C   0  0  1  0  0  3  0  0  0  0  0  0
  191.8990  178.4950  144.0260 C   0  0  0  0  0  2  0  0  0  0  0  0
  186.4660  178.6200  144.7430 C   0  0  0  0  0  0  0  0  0  0  0  0
  189.2570  175.5750  143.5870 C   0  0  0  0  0  2  0  0  0  0  0  0
  186.8530  178.5840  143.2570 C   0  0  1  0  0  3  0  0  0  0  0  0
  185.4030  177.5380  147.1330 C   0  0  0  0  0  3  0  0  0  0  0  0
  186.8700  177.8980  147.0850 C   0  0  0  0  0  2  0  0  0  0  0  0
  183.1200  178.6900  142.0360 C   0  0  0  0  0  2  0  0  0  0  0  0
  184.5530  178.0820  146.2490 C   0  0  0  0  0  3  0  0  0  0  0  0
  184.1250  179.3480  144.0670 C   0  0  2  0  0  3  0  0  0  0  0  0
  185.9000  178.2240  140.8840 C   0  0  0  0  0  2  0  0  0  0  0  0
  187.2520  178.6280  140.3200 C   0  0  0  0  0  2  0  0  0  0  0  0
  187.5740  177.8090  139.0850 C   0  0  0  0  0  2  0  0  0  0  0  0
  187.9170  178.6660  138.0400 O   0  0  0  0  0  0  0  0  0  0  0  0
  187.4220  178.0400  136.8960 C   0  0  0  0  0  2  0  0  0  0  0  0
  187.1590  176.5680  137.1790 C   0  0  0  0  0  2  0  0  0  0  0  0
  183.9180  175.3010  137.5120 C   0  0  0  0  0  2  0  0  0  0  0  0
  184.7930  177.1350  136.5970 C   0  0  0  0  0  2  0  0  0  0  0  0
  185.8920  176.0950  136.4820 C   0  0  2  0  0  3  0  0  0  0  0  0
  183.8520  176.7000  137.5430 O   0  0  0  0  0  0  0  0  0  0  0  0
  185.3430  174.9090  137.2130 C   0  0  0  0  0  2  0  0  0  0  0  0
  1 22  1  1  0  0  0
  3  7  1  0  0  0  0
  3 15  1  0  0  0  0
  4 20  1  0  0  0  0
  5 14  1  0  0  0  0
  6  7  1  0  0  0  0
  6 17  1  0  0  0  0
  9 21  1  6  0  0  0
  9 23  1  0  0  0  0
 10  5  2  0  0  0  0
 11  8  1  0  0  0  0
 12 24  1  6  0  0  0
 12  9  1  0  0  0  0
 12 18  1  0  0  0  0
 13  2  1  0  0  0  0
 14 11  1  6  0  0  0
 14  4  1  0  0  0  0
 15  8  1  0  0  0  0
 16  1  1  0  0  0  0
 16  4  2  0  0  0  0
 17  5  1  0  0  0  0
 18 10  1  6  0  0  0
 18 16  1  0  0  0  0
 20 19  1  0  0  0  0
 21 13  1  0  0  0  0
 22 19  2  0  0  0  0
 23  2  1  1  0  0  0
 23  1  1  0  0  0  0
 25 24  1  0  0  0  0
 26 25  1  0  0  0  0
 27 26  1  0  0  0  0
 28 29  1  0  0  0  0
 28 27  1  0  0  0  0
 30 33  1  0  0  0  0
 31 33  1  0  0  0  0
 32 31  1  0  0  0  0
 32 29  1  1  0  0  0
 32 34  1  0  0  0  0
 34 30  1  0  0  0  0
M  END
>  <MODEL>
8

>  <REMARK>
 VINA RESULT:      -6.9      3.179      8.675
  Name = 
  7 active torsions:
  status: ('A' for Active; 'I' for Inactive)
    1  A    between atoms: C_10  and  O_17
    2  A    between atoms: C_10  and  C_22
    3  A    between atoms: C_13  and  C_24
    4  A    between atoms: O_17  and  C_28
    5  A    between atoms: C_22  and  C_24
    6  A    between atoms: C_28  and  C_29
    7  A    between atoms: C_29  and  C_32
                            x       y       z     vdW  Elec       q    Type
                         _______ _______ _______ _____ _____    ______ ____

>  <TORSDO>
F 7

$$$$
=
 OpenBabel11122412183D

 34 39  0  0  1  0  0  0  0  0999 V2000
  185.3120  179.2010  141.6870 C   0  0  2  0  0  3  0  0  0  0  0  0
  183.8050  179.2830  139.5640 C   0  0  0  0  0  2  0  0  0  0  0  0
  191.7150  177.5220  143.4250 C   0  0  0  0  0  2  0  0  0  0  0  0
  186.7990  178.3160  143.4560 C   0  0  0  0  0  0  0  0  0  0  0  0
  188.6380  176.7510  142.8920 C   0  0  0  0  0  0  0  0  0  0  0  0
  190.7030  175.3190  142.8380 C   0  0  0  0  0  2  0  0  0  0  0  0
  191.6490  176.0460  143.7820 C   0  0  0  0  0  2  0  0  0  0  0  0
  190.1340  178.2210  145.2570 C   0  0  0  0  0  2  0  0  0  0  0  0
  185.9120  178.1200  139.4870 C   0  0  2  0  0  3  0  0  0  0  0  0
  188.4770  177.0430  141.5900 C   0  0  0  0  0  3  0  0  0  0  0  0
  189.0790  178.7670  144.3110 C   0  0  0  0  0  2  0  0  0  0  0  0
  187.4060  178.3800  139.6720 C   0  0  1  0  0  3  0  0  0  0  0  0
  183.9770  178.7060  138.1640 C   0  0  0  0  0  2  0  0  0  0  0  0
  188.0750  177.6770  143.9520 C   0  0  1  0  0  3  0  0  0  0  0  0
  191.5300  178.3840  144.6650 C   0  0  0  0  0  2  0  0  0  0  0  0
  186.6660  178.6700  142.1510 C   0  0  0  0  0  0  0  0  0  0  0  0
  189.2520  175.4450  143.2960 C   0  0  0  0  0  2  0  0  0  0  0  0
  187.8030  178.3330  141.1750 C   0  0  1  0  0  3  0  0  0  0  0  0
  184.3410  178.0960  143.6600 C   0  0  0  0  0  3  0  0  0  0  0  0
  185.6190  178.4340  144.3910 C   0  0  0  0  0  2  0  0  0  0  0  0
  185.4120  178.2030  138.0600 C   0  0  0  0  0  2  0  0  0  0  0  0
  184.1920  178.4540  142.3750 C   0  0  0  0  0  3  0  0  0  0  0  0
  185.1950  179.2550  140.1610 C   0  0  2  0  0  3  0  0  0  0  0  0
  188.2880  177.5040  138.7770 C   0  0  0  0  0  2  0  0  0  0  0  0
  189.0740  178.3480  137.7860 C   0  0  0  0  0  2  0  0  0  0  0  0
  189.1870  177.6300  136.4560 C   0  0  0  0  0  2  0  0  0  0  0  0
  189.0690  176.2560  136.6610 O   0  0  0  0  0  0  0  0  0  0  0  0
  189.9160  175.6850  135.7120 C   0  0  0  0  0  2  0  0  0  0  0  0
  191.3620  176.0490  136.0160 C   0  0  0  0  0  2  0  0  0  0  0  0
  194.0760  174.8750  137.8800 C   0  0  0  0  0  2  0  0  0  0  0  0
  192.4690  176.3780  138.2340 C   0  0  0  0  0  2  0  0  0  0  0  0
  191.8410  175.3690  137.2900 C   0  0  2  0  0  3  0  0  0  0  0  0
  193.8630  176.2210  138.2060 O   0  0  0  0  0  0  0  0  0  0  0  0
  192.9660  174.4380  136.9580 C   0  0  0  0  0  2  0  0  0  0  0  0
  1 16  1  0  0  0  0
  1 22  1  6  0  0  0
  3  7  1  0  0  0  0
  3 15  1  0  0  0  0
  4 14  1  0  0  0  0
  4 20  1  0  0  0  0
  5 17  1  0  0  0  0
  5 14  1  0  0  0  0
  6 17  1  0  0  0  0
  6  7  1  0  0  0  0
  9 21  1  6  0  0  0
  9 12  1  0  0  0  0
  9 23  1  0  0  0  0
 10  5  2  0  0  0  0
 11  8  1  0  0  0  0
 12 24  1  6  0  0  0
 12 18  1  0  0  0  0
 13  2  1  0  0  0  0
 14 11  1  6  0  0  0
 15  8  1  0  0  0  0
 16  4  2  0  0  0  0
 18 10  1  1  0  0  0
 18 16  1  0  0  0  0
 19 20  1  0  0  0  0
 21 13  1  0  0  0  0
 22 19  2  0  0  0  0
 23  2  1  1  0  0  0
 23  1  1  0  0  0  0
 25 24  1  0  0  0  0
 26 27  1  0  0  0  0
 26 25  1  0  0  0  0
 28 29  1  0  0  0  0
 28 27  1  0  0  0  0
 30 33  1  0  0  0  0
 32 29  1  6  0  0  0
 32 31  1  0  0  0  0
 33 31  1  0  0  0  0
 34 32  1  0  0  0  0
 34 30  1  0  0  0  0
M  END
>  <MODEL>
9

>  <REMARK>
 VINA RESULT:      -6.8      3.769      8.567
  Name = 
  7 active torsions:
  status: ('A' for Active; 'I' for Inactive)
    1  A    between atoms: C_10  and  O_17
    2  A    between atoms: C_10  and  C_22
    3  A    between atoms: C_13  and  C_24
    4  A    between atoms: O_17  and  C_28
    5  A    between atoms: C_22  and  C_24
    6  A    between atoms: C_28  and  C_29
    7  A    between atoms: C_29  and  C_32
                            x       y       z     vdW  Elec       q    Type
                         _______ _______ _______ _____ _____    ______ ____

>  <TORSDO>
F 7

$$$$
