=
 OpenBabel11122411513D

 28 32  0  0  1  0  0  0  0  0999 V2000
  186.4570  177.5190  143.0270 C   0  0  0  0  0  0  0  0  0  0  0  0
  187.0720  177.9170  138.5410 O   0  0  0  0  0  0  0  0  0  0  0  0
  192.1250  179.1180  144.1060 O   0  0  0  0  0  1  0  0  0  0  0  0
  185.1910  179.5980  141.6400 C   0  0  0  0  0  3  0  0  0  0  0  0
  191.8570  177.4300  142.3900 C   0  0  1  0  0  3  0  0  0  0  0  0
  187.0730  176.5070  143.7600 O   0  0  0  0  0  0  0  0  0  0  0  0
  188.9640  179.4430  138.9660 O   0  0  0  0  0  0  0  0  0  0  0  0
  188.5260  178.0060  138.9070 S   0  0  0  0  0  0  0  0  0  0  0  0
  190.3510  176.2110  138.0710 C   0  0  0  0  0  0  0  0  0  0  0  0
  188.8160  177.1970  140.4530 C   0  0  1  0  0  3  0  0  0  0  0  0
  188.0010  178.0010  147.0410 C   0  0  0  0  0  1  0  0  0  0  0  0
  189.4520  177.2010  142.7220 C   0  0  1  0  0  3  0  0  0  0  0  0
  190.5760  175.7540  139.4980 C   0  0  0  0  0  2  0  0  0  0  0  0
  189.4870  177.1360  137.7480 N   0  0  0  0  0  0  0  0  0  0  0  0
  188.1120  177.7550  145.5520 C   0  0  1  0  0  3  0  0  0  0  0  0
  187.1760  178.2490  142.0520 C   0  0  0  0  0  0  0  0  0  0  0  0
  191.5110  177.9020  143.7950 C   0  0  2  0  0  3  0  0  0  0  0  0
  191.0670  175.5480  137.0350 N   0  0  0  0  0  1  0  0  0  0  0  0
  189.5600  177.4310  145.2100 C   0  0  0  0  0  2  0  0  0  0  0  0
  186.5270  179.2910  141.3740 C   0  0  0  0  0  3  0  0  0  0  0  0
  185.1180  177.8390  143.2920 C   0  0  0  0  0  3  0  0  0  0  0  0
  184.4870  178.8710  142.5980 C   0  0  0  0  0  3  0  0  0  0  0  0
  187.1910  176.5990  145.1730 C   0  0  0  0  0  2  0  0  0  0  0  0
  190.6300  176.6350  141.9340 C   0  0  1  0  0  3  0  0  0  0  0  0
  189.9990  178.0300  143.8760 C   0  0  2  0  0  3  0  0  0  0  0  0
  190.2790  176.8790  140.4730 C   0  0  2  0  0  3  0  0  0  0  0  0
  192.0970  178.5320  141.5550 O   0  0  0  0  0  1  0  0  0  0  0  0
  188.6330  178.0140  141.7120 C   0  0  2  0  0  3  0  0  0  0  0  0
  1 21  1  0  0  0  0
  1  6  1  0  0  0  0
  2  8  2  0  0  0  0
  4 22  1  0  0  0  0
  5 27  1  6  0  0  0
  5 17  1  0  0  0  0
  6 23  1  0  0  0  0
  8  7  2  0  0  0  0
  9 13  1  0  0  0  0
 10  8  1  6  0  0  0
 10 26  1  0  0  0  0
 10 28  1  0  0  0  0
 12 25  1  0  0  0  0
 13 26  1  0  0  0  0
 14  9  2  0  0  0  0
 14  8  1  0  0  0  0
 15 11  1  0  0  0  0
 16  1  2  0  0  0  0
 17 25  1  0  0  0  0
 17  3  1  0  0  0  0
 18  9  1  0  0  0  0
 19 15  1  0  0  0  0
 20  4  2  0  0  0  0
 20 16  1  0  0  0  0
 22 21  2  0  0  0  0
 23 15  1  0  0  0  0
 24  5  1  0  0  0  0
 24 12  1  0  0  0  0
 25 19  1  0  0  0  0
 26 24  1  0  0  0  0
 28 16  1  0  0  0  0
 28 12  1  0  0  0  0
M  END
>  <MODEL>
1

>  <REMARK>
 VINA RESULT:      -7.3      0.000      0.000
  Name = 
  0 active torsions:
  status: ('A' for Active; 'I' for Inactive)
                            x       y       z     vdW  Elec       q    Type
                         _______ _______ _______ _____ _____    ______ ____

>  <TORSDO>
F 0

$$$$
=
 OpenBabel11122411513D

 28 32  0  0  1  0  0  0  0  0999 V2000
  186.5300  177.7540  142.7600 C   0  0  0  0  0  0  0  0  0  0  0  0
  182.4980  178.6400  140.8600 O   0  0  0  0  0  0  0  0  0  0  0  0
  189.4310  179.8700  137.9680 O   0  0  0  0  0  1  0  0  0  0  0  0
  184.9300  179.8000  143.8110 C   0  0  0  0  0  3  0  0  0  0  0  0
  187.6280  178.3330  137.4650 C   0  0  1  0  0  3  0  0  0  0  0  0
  187.3650  176.7530  142.2660 O   0  0  0  0  0  0  0  0  0  0  0  0
  183.5810  180.3220  139.4150 O   0  0  0  0  0  0  0  0  0  0  0  0
  183.3080  178.8570  139.6140 S   0  0  0  0  0  0  0  0  0  0  0  0
  182.9950  177.3650  137.3940 C   0  0  0  0  0  0  0  0  0  0  0  0
  184.8200  177.9430  139.7050 C   0  0  1  0  0  3  0  0  0  0  0  0
  190.8470  178.0250  142.6000 C   0  0  0  0  0  1  0  0  0  0  0  0
  187.1700  177.8050  139.8020 C   0  0  1  0  0  3  0  0  0  0  0  0
  184.3930  176.8040  137.5580 C   0  0  0  0  0  2  0  0  0  0  0  0
  182.4660  178.2140  138.2350 N   0  0  0  0  0  0  0  0  0  0  0  0
  189.4580  177.9350  142.0070 C   0  0  1  0  0  3  0  0  0  0  0  0
  185.8740  178.6500  141.8830 C   0  0  0  0  0  0  0  0  0  0  0  0
  188.8760  178.6280  138.2860 C   0  0  2  0  0  3  0  0  0  0  0  0
  182.2040  176.8880  136.3130 N   0  0  0  0  0  1  0  0  0  0  0  0
  189.5740  177.8090  140.4930 C   0  0  0  0  0  2  0  0  0  0  0  0
  185.0840  179.6710  142.4290 C   0  0  0  0  0  3  0  0  0  0  0  0
  186.3760  177.8950  144.1460 C   0  0  0  0  0  3  0  0  0  0  0  0
  185.5760  178.9110  144.6690 C   0  0  0  0  0  3  0  0  0  0  0  0
  188.7450  176.7240  142.6000 C   0  0  0  0  0  2  0  0  0  0  0  0
  186.7660  177.4510  138.3730 C   0  0  1  0  0  3  0  0  0  0  0  0
  188.4820  178.5770  139.7520 C   0  0  2  0  0  3  0  0  0  0  0  0
  185.2840  177.7910  138.2900 C   0  0  2  0  0  3  0  0  0  0  0  0
  186.9730  179.5280  137.1320 O   0  0  0  0  0  1  0  0  0  0  0  0
  185.9990  178.6120  140.3740 C   0  0  2  0  0  3  0  0  0  0  0  0
  1 21  1  0  0  0  0
  3 17  1  0  0  0  0
  4 22  1  0  0  0  0
  5 27  1  1  0  0  0
  5 17  1  0  0  0  0
  5 24  1  0  0  0  0
  6 23  1  0  0  0  0
  6  1  1  0  0  0  0
  7  8  2  0  0  0  0
  8  2  2  0  0  0  0
  9 13  1  0  0  0  0
  9 14  2  0  0  0  0
 10  8  1  6  0  0  0
 10 28  1  0  0  0  0
 12 28  1  0  0  0  0
 13 26  1  0  0  0  0
 14  8  1  0  0  0  0
 15 23  1  0  0  0  0
 15 11  1  0  0  0  0
 16 20  1  0  0  0  0
 16  1  2  0  0  0  0
 17 25  1  0  0  0  0
 18  9  1  0  0  0  0
 19 15  1  0  0  0  0
 20  4  2  0  0  0  0
 21 22  2  0  0  0  0
 24 12  1  0  0  0  0
 25 12  1  0  0  0  0
 25 19  1  0  0  0  0
 26 24  1  0  0  0  0
 26 10  1  0  0  0  0
 28 16  1  0  0  0  0
M  END
>  <MODEL>
2

>  <REMARK>
 VINA RESULT:      -5.9      3.321      5.006
  Name = 
  0 active torsions:
  status: ('A' for Active; 'I' for Inactive)
                            x       y       z     vdW  Elec       q    Type
                         _______ _______ _______ _____ _____    ______ ____

>  <TORSDO>
F 0

$$$$
=
 OpenBabel11122411513D

 28 32  0  0  1  0  0  0  0  0999 V2000
  189.0690  177.7270  138.4360 C   0  0  0  0  0  0  0  0  0  0  0  0
  193.5480  177.0880  138.8730 O   0  0  0  0  0  0  0  0  0  0  0  0
  188.4880  172.6440  135.3260 O   0  0  0  0  0  1  0  0  0  0  0  0
  190.1370  177.1160  140.9540 C   0  0  0  0  0  3  0  0  0  0  0  0
  190.2960  174.0800  134.5940 C   0  0  1  0  0  3  0  0  0  0  0  0
  188.4920  178.0230  137.2030 O   0  0  0  0  0  0  0  0  0  0  0  0
  193.2100  174.6710  138.5050 O   0  0  0  0  0  0  0  0  0  0  0  0
  193.3370  176.0150  137.8440 S   0  0  0  0  0  0  0  0  0  0  0  0
  194.5100  176.0710  135.4200 C   0  0  0  0  0  0  0  0  0  0  0  0
  191.9030  176.3760  136.8740 C   0  0  1  0  0  3  0  0  0  0  0  0
  185.2210  176.2480  137.1180 C   0  0  0  0  0  1  0  0  0  0  0  0
  189.7240  175.8980  136.1150 C   0  0  1  0  0  3  0  0  0  0  0  0
  193.1570  176.2240  134.7540 C   0  0  0  0  0  2  0  0  0  0  0  0
  194.6610  176.0020  136.7160 N   0  0  0  0  0  0  0  0  0  0  0  0
  186.7290  176.3740  137.0720 C   0  0  1  0  0  3  0  0  0  0  0  0
  190.0540  176.7180  138.5530 C   0  0  0  0  0  0  0  0  0  0  0  0
  188.8280  173.9540  134.9750 C   0  0  2  0  0  3  0  0  0  0  0  0
  195.6680  176.0750  134.5940 N   0  0  0  0  0  1  0  0  0  0  0  0
  187.2520  175.6160  135.8590 C   0  0  0  0  0  2  0  0  0  0  0  0
  190.5700  176.4220  139.8220 C   0  0  0  0  0  3  0  0  0  0  0  0
  188.6350  178.4140  139.5790 C   0  0  0  0  0  3  0  0  0  0  0  0
  189.1690  178.1120  140.8320 C   0  0  0  0  0  3  0  0  0  0  0  0
  187.0980  177.8520  136.9910 C   0  0  0  0  0  2  0  0  0  0  0  0
  190.6780  175.5090  134.9900 C   0  0  1  0  0  3  0  0  0  0  0  0
  188.5720  174.9010  136.1340 C   0  0  2  0  0  3  0  0  0  0  0  0
  192.0680  175.5980  135.6050 C   0  0  2  0  0  3  0  0  0  0  0  0
  191.0600  173.1300  135.2880 O   0  0  0  0  0  1  0  0  0  0  0  0
  190.5690  175.8900  137.3940 C   0  0  2  0  0  3  0  0  0  0  0  0
  1 16  2  0  0  0  0
  1 21  1  0  0  0  0
  5 17  1  0  0  0  0
  5 24  1  0  0  0  0
  5 27  1  1  0  0  0
  6  1  1  0  0  0  0
  8  7  2  0  0  0  0
  8  2  2  0  0  0  0
  9 14  2  0  0  0  0
 10 28  1  0  0  0  0
 10  8  1  1  0  0  0
 12 25  1  0  0  0  0
 12 28  1  0  0  0  0
 13  9  1  0  0  0  0
 13 26  1  0  0  0  0
 14  8  1  0  0  0  0
 15 11  1  0  0  0  0
 16 20  1  0  0  0  0
 17  3  1  0  0  0  0
 17 25  1  0  0  0  0
 18  9  1  0  0  0  0
 19 25  1  0  0  0  0
 19 15  1  0  0  0  0
 20  4  2  0  0  0  0
 21 22  2  0  0  0  0
 22  4  1  0  0  0  0
 23 15  1  0  0  0  0
 23  6  1  0  0  0  0
 24 26  1  0  0  0  0
 24 12  1  0  0  0  0
 26 10  1  0  0  0  0
 28 16  1  0  0  0  0
M  END
>  <MODEL>
3

>  <REMARK>
 VINA RESULT:      -5.9      3.803      7.076
  Name = 
  0 active torsions:
  status: ('A' for Active; 'I' for Inactive)
                            x       y       z     vdW  Elec       q    Type
                         _______ _______ _______ _____ _____    ______ ____

>  <TORSDO>
F 0

$$$$
=
 OpenBabel11122411513D

 28 32  0  0  1  0  0  0  0  0999 V2000
  188.0020  172.8500  136.6400 C   0  0  0  0  0  0  0  0  0  0  0  0
  192.4720  173.6460  136.8480 O   0  0  0  0  0  0  0  0  0  0  0  0
  186.8560  178.6420  135.6450 O   0  0  0  0  0  1  0  0  0  0  0  0
  189.6680  171.9060  134.5950 C   0  0  0  0  0  3  0  0  0  0  0  0
  188.3830  178.2110  137.4750 C   0  0  1  0  0  3  0  0  0  0  0  0
  187.1330  173.3080  137.6280 O   0  0  0  0  0  0  0  0  0  0  0  0
  192.1360  175.7060  135.5310 O   0  0  0  0  0  0  0  0  0  0  0  0
  192.0540  175.0880  136.8980 S   0  0  0  0  0  0  0  0  0  0  0  0
  192.6010  176.6910  138.9930 C   0  0  0  0  0  0  0  0  0  0  0  0
  190.4160  175.2240  137.5510 C   0  0  1  0  0  3  0  0  0  0  0  0
  184.0020  174.3230  135.8890 C   0  0  0  0  0  1  0  0  0  0  0  0
  188.1350  175.7870  137.3620 C   0  0  1  0  0  3  0  0  0  0  0  0
  191.1230  176.8110  139.3040 C   0  0  0  0  0  2  0  0  0  0  0  0
  193.0640  175.9630  138.0110 N   0  0  0  0  0  0  0  0  0  0  0  0
  185.4480  174.4450  136.3180 C   0  0  1  0  0  3  0  0  0  0  0  0
  189.0190  173.6870  136.1230 C   0  0  0  0  0  0  0  0  0  0  0  0
  187.0560  177.8860  136.8030 C   0  0  2  0  0  3  0  0  0  0  0  0
  193.5230  177.3450  139.8560 N   0  0  0  0  0  1  0  0  0  0  0  0
  185.6860  175.8490  136.8580 C   0  0  0  0  0  2  0  0  0  0  0  0
  189.8370  173.1980  135.0950 C   0  0  0  0  0  3  0  0  0  0  0  0
  187.8340  171.5570  136.1260 C   0  0  0  0  0  3  0  0  0  0  0  0
  188.6660  171.0850  135.1110 C   0  0  0  0  0  3  0  0  0  0  0  0
  185.7350  173.3950  137.3870 C   0  0  0  0  0  2  0  0  0  0  0  0
  188.8010  176.9050  138.1580 C   0  0  1  0  0  3  0  0  0  0  0  0
  187.0580  176.4020  136.4790 C   0  0  2  0  0  3  0  0  0  0  0  0
  190.2940  176.6330  138.0450 C   0  0  2  0  0  3  0  0  0  0  0  0
  189.3250  178.6160  136.5170 O   0  0  0  0  0  1  0  0  0  0  0  0
  189.2660  175.1110  136.5770 C   0  0  2  0  0  3  0  0  0  0  0  0
  1  6  1  0  0  0  0
  2  8  2  0  0  0  0
  3 17  1  0  0  0  0
  4 20  2  0  0  0  0
  4 22  1  0  0  0  0
  5 27  1  6  0  0  0
  5 24  1  0  0  0  0
  7  8  2  0  0  0  0
  8 14  1  0  0  0  0
  9 13  1  0  0  0  0
  9 18  1  0  0  0  0
 10  8  1  6  0  0  0
 10 26  1  0  0  0  0
 11 15  1  0  0  0  0
 12 24  1  0  0  0  0
 14  9  2  0  0  0  0
 15 19  1  0  0  0  0
 15 23  1  0  0  0  0
 16 28  1  0  0  0  0
 16  1  2  0  0  0  0
 17  5  1  0  0  0  0
 20 16  1  0  0  0  0
 21  1  1  0  0  0  0
 22 21  2  0  0  0  0
 23  6  1  0  0  0  0
 25 17  1  0  0  0  0
 25 19  1  0  0  0  0
 25 12  1  0  0  0  0
 26 24  1  0  0  0  0
 26 13  1  0  0  0  0
 28 12  1  0  0  0  0
 28 10  1  0  0  0  0
M  END
>  <MODEL>
4

>  <REMARK>
 VINA RESULT:      -5.8      4.981      7.557
  Name = 
  0 active torsions:
  status: ('A' for Active; 'I' for Inactive)
                            x       y       z     vdW  Elec       q    Type
                         _______ _______ _______ _____ _____    ______ ____

>  <TORSDO>
F 0

$$$$
=
 OpenBabel11122411513D

 28 32  0  0  1  0  0  0  0  0999 V2000
  187.1510  177.5280  136.8310 C   0  0  0  0  0  0  0  0  0  0  0  0
  182.7100  177.1000  135.9590 O   0  0  0  0  0  0  0  0  0  0  0  0
  186.1420  177.6390  142.7320 O   0  0  0  0  0  1  0  0  0  0  0  0
  186.1740  175.1120  135.8040 C   0  0  0  0  0  3  0  0  0  0  0  0
  184.7110  179.0970  141.4320 C   0  0  1  0  0  3  0  0  0  0  0  0
  187.6810  178.7070  137.3510 O   0  0  0  0  0  0  0  0  0  0  0  0
  182.3830  176.1890  138.2290 O   0  0  0  0  0  0  0  0  0  0  0  0
  182.5520  177.4400  137.4130 S   0  0  0  0  0  0  0  0  0  0  0  0
  181.2370  179.6320  138.2610 C   0  0  0  0  0  0  0  0  0  0  0  0
  183.9460  178.3730  137.9760 C   0  0  1  0  0  3  0  0  0  0  0  0
  190.3640  177.6960  139.7260 C   0  0  0  0  0  1  0  0  0  0  0  0
  185.8570  178.6580  139.3240 C   0  0  1  0  0  3  0  0  0  0  0  0
  182.5240  180.2030  138.8230 C   0  0  0  0  0  2  0  0  0  0  0  0
  181.1810  178.4870  137.6350 N   0  0  0  0  0  0  0  0  0  0  0  0
  188.9410  177.8900  139.2460 C   0  0  1  0  0  3  0  0  0  0  0  0
  185.9520  176.9820  137.3470 C   0  0  0  0  0  0  0  0  0  0  0  0
  186.1240  178.6170  141.7340 C   0  0  2  0  0  3  0  0  0  0  0  0
  180.0550  180.4170  138.3630 N   0  0  0  0  0  1  0  0  0  0  0  0
  188.1430  178.5900  140.3370 C   0  0  0  0  0  2  0  0  0  0  0  0
  185.4840  175.7680  136.8250 C   0  0  0  0  0  3  0  0  0  0  0  0
  187.8410  176.8590  135.8110 C   0  0  0  0  0  3  0  0  0  0  0  0
  187.3520  175.6580  135.2960 C   0  0  0  0  0  3  0  0  0  0  0  0
  188.9610  178.7220  137.9670 C   0  0  0  0  0  2  0  0  0  0  0  0
  184.7450  179.4930  139.9520 C   0  0  1  0  0  3  0  0  0  0  0  0
  186.7100  178.0740  140.4420 C   0  0  2  0  0  3  0  0  0  0  0  0
  183.4810  179.0890  139.2060 C   0  0  2  0  0  3  0  0  0  0  0  0
  183.7880  178.0680  141.6700 O   0  0  0  0  0  1  0  0  0  0  0  0
  185.1470  177.6000  138.4720 C   0  0  2  0  0  3  0  0  0  0  0  0
  1 16  1  0  0  0  0
  1  6  1  0  0  0  0
  2  8  2  0  0  0  0
  4 20  1  0  0  0  0
  5 27  1  6  0  0  0
  5 17  1  0  0  0  0
  6 23  1  0  0  0  0
  8 14  1  0  0  0  0
  8  7  2  0  0  0  0
  9 18  1  0  0  0  0
  9 13  1  0  0  0  0
 10  8  1  1  0  0  0
 10 28  1  0  0  0  0
 10 26  1  0  0  0  0
 12 24  1  0  0  0  0
 12 25  1  0  0  0  0
 13 26  1  0  0  0  0
 14  9  2  0  0  0  0
 15 11  1  0  0  0  0
 15 19  1  0  0  0  0
 16 28  1  0  0  0  0
 17  3  1  0  0  0  0
 19 25  1  0  0  0  0
 20 16  2  0  0  0  0
 21  1  2  0  0  0  0
 22  4  2  0  0  0  0
 22 21  1  0  0  0  0
 23 15  1  0  0  0  0
 24  5  1  0  0  0  0
 25 17  1  0  0  0  0
 26 24  1  0  0  0  0
 28 12  1  0  0  0  0
M  END
>  <MODEL>
5

>  <REMARK>
 VINA RESULT:      -5.8      4.227      7.169
  Name = 
  0 active torsions:
  status: ('A' for Active; 'I' for Inactive)
                            x       y       z     vdW  Elec       q    Type
                         _______ _______ _______ _____ _____    ______ ____

>  <TORSDO>
F 0

$$$$
=
 OpenBabel11122411513D

 28 32  0  0  1  0  0  0  0  0999 V2000
  187.3070  177.6750  142.7130 C   0  0  0  0  0  0  0  0  0  0  0  0
  191.6810  176.9200  143.6890 O   0  0  0  0  0  0  0  0  0  0  0  0
  186.4300  180.3670  147.9890 O   0  0  0  0  0  1  0  0  0  0  0  0
  189.2930  179.0730  141.3160 C   0  0  0  0  0  3  0  0  0  0  0  0
  187.6070  178.2530  148.1120 C   0  0  1  0  0  3  0  0  0  0  0  0
  186.2840  177.0110  143.3870 O   0  0  0  0  0  0  0  0  0  0  0  0
  191.6090  178.7780  145.3110 O   0  0  0  0  0  0  0  0  0  0  0  0
  191.2800  177.3300  145.0770 S   0  0  0  0  0  0  0  0  0  0  0  0
  191.4730  175.6800  147.1960 C   0  0  0  0  0  0  0  0  0  0  0  0
  189.5540  177.0300  145.3250 C   0  0  1  0  0  3  0  0  0  0  0  0
  183.5200  179.4710  143.7940 C   0  0  0  0  0  1  0  0  0  0  0  0
  187.3500  177.7540  145.7380 C   0  0  1  0  0  3  0  0  0  0  0  0
  189.9650  175.6720  147.3440 C   0  0  0  0  0  2  0  0  0  0  0  0
  192.0910  176.3360  146.2500 N   0  0  0  0  0  0  0  0  0  0  0  0
  184.8700  178.8470  144.0760 C   0  0  1  0  0  3  0  0  0  0  0  0
  188.4100  178.2130  143.4160 C   0  0  0  0  0  0  0  0  0  0  0  0
  186.4140  179.0320  147.5750 C   0  0  2  0  0  3  0  0  0  0  0  0
  192.2380  174.8780  148.0880 N   0  0  0  0  0  1  0  0  0  0  0  0
  185.0280  178.6700  145.5810 C   0  0  0  0  0  2  0  0  0  0  0  0
  189.3890  178.9160  142.7010 C   0  0  0  0  0  3  0  0  0  0  0  0
  187.2140  177.8440  141.3240 C   0  0  0  0  0  3  0  0  0  0  0  0
  188.2060  178.5370  140.6280 C   0  0  0  0  0  3  0  0  0  0  0  0
  184.9520  177.5030  143.3590 C   0  0  0  0  0  2  0  0  0  0  0  0
  187.8810  177.1830  147.0510 C   0  0  1  0  0  3  0  0  0  0  0  0
  186.4530  178.9410  146.0590 C   0  0  2  0  0  3  0  0  0  0  0  0
  189.3670  176.9600  146.8090 C   0  0  2  0  0  3  0  0  0  0  0  0
  188.7070  179.1070  148.2810 O   0  0  0  0  0  1  0  0  0  0  0  0
  188.5920  178.1220  144.9170 C   0  0  2  0  0  3  0  0  0  0  0  0
  1  6  1  0  0  0  0
  1 16  1  0  0  0  0
  2  8  2  0  0  0  0
  4 20  1  0  0  0  0
  5 27  1  6  0  0  0
  8  7  2  0  0  0  0
  8 14  1  0  0  0  0
  9 13  1  0  0  0  0
  9 18  1  0  0  0  0
 10  8  1  1  0  0  0
 10 26  1  0  0  0  0
 11 15  1  0  0  0  0
 12 25  1  0  0  0  0
 12 24  1  0  0  0  0
 14  9  2  0  0  0  0
 15 19  1  0  0  0  0
 16 28  1  0  0  0  0
 17  3  1  0  0  0  0
 17  5  1  0  0  0  0
 19 25  1  0  0  0  0
 20 16  2  0  0  0  0
 21  1  2  0  0  0  0
 22  4  2  0  0  0  0
 22 21  1  0  0  0  0
 23  6  1  0  0  0  0
 23 15  1  0  0  0  0
 24  5  1  0  0  0  0
 25 17  1  0  0  0  0
 26 24  1  0  0  0  0
 26 13  1  0  0  0  0
 28 10  1  0  0  0  0
 28 12  1  0  0  0  0
M  END
>  <MODEL>
6

>  <REMARK>
 VINA RESULT:      -5.5      3.631      5.887
  Name = 
  0 active torsions:
  status: ('A' for Active; 'I' for Inactive)
                            x       y       z     vdW  Elec       q    Type
                         _______ _______ _______ _____ _____    ______ ____

>  <TORSDO>
F 0

$$$$
=
 OpenBabel11122411513D

 28 32  0  0  1  0  0  0  0  0999 V2000
  187.8040  177.1600  142.3950 C   0  0  0  0  0  0  0  0  0  0  0  0
  185.9310  177.6710  138.2850 O   0  0  0  0  0  0  0  0  0  0  0  0
  193.2670  178.2850  140.2190 O   0  0  0  0  0  1  0  0  0  0  0  0
  186.1680  179.3780  141.8910 C   0  0  0  0  0  3  0  0  0  0  0  0
  191.9760  176.6850  138.9380 C   0  0  1  0  0  3  0  0  0  0  0  0
  188.6320  176.0790  142.6890 O   0  0  0  0  0  0  0  0  0  0  0  0
  187.8720  179.0330  137.6020 O   0  0  0  0  0  0  0  0  0  0  0  0
  187.3530  177.6360  137.8050 S   0  0  0  0  0  0  0  0  0  0  0  0
  188.2810  175.7390  136.1340 C   0  0  0  0  0  0  0  0  0  0  0  0
  188.3630  176.7530  138.9580 C   0  0  1  0  0  3  0  0  0  0  0  0
  191.3050  177.3790  144.9300 C   0  0  0  0  0  1  0  0  0  0  0  0
  190.1210  176.6270  140.5220 C   0  0  1  0  0  3  0  0  0  0  0  0
  189.2020  175.2160  137.2180 C   0  0  0  0  0  2  0  0  0  0  0  0
  187.4600  176.7380  136.3200 N   0  0  0  0  0  0  0  0  0  0  0  0
  190.5730  177.1800  143.6200 C   0  0  1  0  0  3  0  0  0  0  0  0
  187.9410  177.8690  141.1780 C   0  0  0  0  0  0  0  0  0  0  0  0
  192.4840  177.1310  140.3020 C   0  0  2  0  0  3  0  0  0  0  0  0
  188.2660  175.0610  134.8840 N   0  0  0  0  0  1  0  0  0  0  0  0
  191.5750  176.7590  142.5530 C   0  0  0  0  0  2  0  0  0  0  0  0
  187.1180  178.9800  140.9480 C   0  0  0  0  0  3  0  0  0  0  0  0
  186.8530  177.5710  143.3390 C   0  0  0  0  0  3  0  0  0  0  0  0
  186.0350  178.6730  143.0860 C   0  0  0  0  0  3  0  0  0  0  0  0
  189.5020  176.1110  143.8130 C   0  0  0  0  0  2  0  0  0  0  0  0
  190.6360  176.0020  139.2280 C   0  0  1  0  0  3  0  0  0  0  0  0
  191.2720  177.3700  141.1870 C   0  0  2  0  0  3  0  0  0  0  0  0
  189.5730  176.3240  138.1870 C   0  0  2  0  0  3  0  0  0  0  0  0
  191.8180  177.7940  138.0940 O   0  0  0  0  0  1  0  0  0  0  0  0
  188.9580  177.5360  140.1060 C   0  0  2  0  0  3  0  0  0  0  0  0
  1  6  1  0  0  0  0
  1 21  1  0  0  0  0
  3 17  1  0  0  0  0
  4 22  1  0  0  0  0
  5 27  1  6  0  0  0
  5 24  1  0  0  0  0
  5 17  1  0  0  0  0
  6 23  1  0  0  0  0
  7  8  2  0  0  0  0
  8  2  2  0  0  0  0
  9 14  2  0  0  0  0
  9 13  1  0  0  0  0
 10  8  1  6  0  0  0
 10 28  1  0  0  0  0
 12 25  1  0  0  0  0
 13 26  1  0  0  0  0
 14  8  1  0  0  0  0
 15 23  1  0  0  0  0
 15 11  1  0  0  0  0
 16  1  2  0  0  0  0
 17 25  1  0  0  0  0
 18  9  1  0  0  0  0
 19 15  1  0  0  0  0
 20 16  1  0  0  0  0
 20  4  2  0  0  0  0
 22 21  2  0  0  0  0
 24 12  1  0  0  0  0
 25 19  1  0  0  0  0
 26 10  1  0  0  0  0
 26 24  1  0  0  0  0
 28 12  1  0  0  0  0
 28 16  1  0  0  0  0
M  END
>  <MODEL>
7

>  <REMARK>
 VINA RESULT:      -5.4      1.848      2.619
  Name = 
  0 active torsions:
  status: ('A' for Active; 'I' for Inactive)
                            x       y       z     vdW  Elec       q    Type
                         _______ _______ _______ _____ _____    ______ ____

>  <TORSDO>
F 0

$$$$
=
 OpenBabel11122411513D

 28 32  0  0  1  0  0  0  0  0999 V2000
  183.7520  175.4010  137.4460 C   0  0  0  0  0  0  0  0  0  0  0  0
  186.4260  178.3920  139.5820 O   0  0  0  0  0  0  0  0  0  0  0  0
  178.9300  178.8370  138.3350 O   0  0  0  0  0  1  0  0  0  0  0  0
  185.6330  176.8660  135.9750 C   0  0  0  0  0  3  0  0  0  0  0  0
  180.3090  178.4980  140.2970 C   0  0  1  0  0  3  0  0  0  0  0  0
  182.7960  174.6570  138.1340 O   0  0  0  0  0  0  0  0  0  0  0  0
  184.7750  180.1630  139.1060 O   0  0  0  0  0  0  0  0  0  0  0  0
  185.1270  179.0130  140.0070 S   0  0  0  0  0  0  0  0  0  0  0  0
  184.3880  179.2200  142.5890 C   0  0  0  0  0  0  0  0  0  0  0  0
  183.8410  177.7970  140.0040 C   0  0  1  0  0  3  0  0  0  0  0  0
  179.8540  174.3730  135.8700 C   0  0  0  0  0  1  0  0  0  0  0  0
  181.8080  176.9140  139.2050 C   0  0  1  0  0  3  0  0  0  0  0  0
  183.2330  178.2680  142.3490 C   0  0  0  0  0  2  0  0  0  0  0  0
  185.2370  179.5570  141.6550 N   0  0  0  0  0  0  0  0  0  0  0  0
  180.8090  175.0660  136.8180 C   0  0  1  0  0  3  0  0  0  0  0  0
  183.9140  176.7840  137.6970 C   0  0  0  0  0  0  0  0  0  0  0  0
  179.5840  177.8770  139.1120 C   0  0  2  0  0  3  0  0  0  0  0  0
  184.5900  179.7080  143.9090 N   0  0  0  0  0  1  0  0  0  0  0  0
  180.0030  175.7890  137.8900 C   0  0  0  0  0  2  0  0  0  0  0  0
  184.8550  177.5000  136.9450 C   0  0  0  0  0  3  0  0  0  0  0  0
  184.5320  174.7730  136.4640 C   0  0  0  0  0  3  0  0  0  0  0  0
  185.4720  175.5020  135.7350 C   0  0  0  0  0  3  0  0  0  0  0  0
  181.7300  174.0210  137.4420 C   0  0  0  0  0  2  0  0  0  0  0  0
  181.5050  177.5740  140.5470 C   0  0  1  0  0  3  0  0  0  0  0  0
  180.6150  177.1300  138.2830 C   0  0  2  0  0  3  0  0  0  0  0  0
  182.7740  178.3370  140.9040 C   0  0  2  0  0  3  0  0  0  0  0  0
  180.7200  179.8020  139.9850 O   0  0  0  0  0  1  0  0  0  0  0  0
  183.1020  177.5690  138.7050 C   0  0  2  0  0  3  0  0  0  0  0  0
  1 16  1  0  0  0  0
  1  6  1  0  0  0  0
  2  8  2  0  0  0  0
  3 17  1  0  0  0  0
  4 20  1  0  0  0  0
  5 27  1  6  0  0  0
  5 24  1  0  0  0  0
  7  8  2  0  0  0  0
  8 14  1  0  0  0  0
  9 18  1  0  0  0  0
 10  8  1  6  0  0  0
 10 26  1  0  0  0  0
 11 15  1  0  0  0  0
 12 24  1  0  0  0  0
 13  9  1  0  0  0  0
 14  9  2  0  0  0  0
 15 23  1  0  0  0  0
 15 19  1  0  0  0  0
 16 28  1  0  0  0  0
 17  5  1  0  0  0  0
 19 25  1  0  0  0  0
 20 16  2  0  0  0  0
 21  1  2  0  0  0  0
 22  4  2  0  0  0  0
 22 21  1  0  0  0  0
 23  6  1  0  0  0  0
 24 26  1  0  0  0  0
 25 17  1  0  0  0  0
 25 12  1  0  0  0  0
 26 13  1  0  0  0  0
 28 12  1  0  0  0  0
 28 10  1  0  0  0  0
M  END
>  <MODEL>
8

>  <REMARK>
 VINA RESULT:      -5.3      5.620      8.968
  Name = 
  0 active torsions:
  status: ('A' for Active; 'I' for Inactive)
                            x       y       z     vdW  Elec       q    Type
                         _______ _______ _______ _____ _____    ______ ____

>  <TORSDO>
F 0

$$$$
=
 OpenBabel11122411513D

 28 32  0  0  1  0  0  0  0  0999 V2000
  183.0910  178.0230  137.1090 C   0  0  0  0  0  0  0  0  0  0  0  0
  187.4390  179.2590  137.5850 O   0  0  0  0  0  0  0  0  0  0  0  0
  184.5200  172.2290  137.5940 O   0  0  0  0  0  1  0  0  0  0  0  0
  183.9020  179.3410  139.4440 C   0  0  0  0  0  3  0  0  0  0  0  0
  185.9080  173.4900  136.0610 C   0  0  1  0  0  3  0  0  0  0  0  0
  182.6430  177.3570  135.9700 O   0  0  0  0  0  0  0  0  0  0  0  0
  187.8930  177.1140  138.7180 O   0  0  0  0  0  0  0  0  0  0  0  0
  187.7130  177.7950  137.3900 S   0  0  0  0  0  0  0  0  0  0  0  0
  189.1650  176.8460  135.3300 C   0  0  0  0  0  0  0  0  0  0  0  0
  186.3980  177.0460  136.4740 C   0  0  1  0  0  3  0  0  0  0  0  0
  180.1000  174.8940  137.1220 C   0  0  0  0  0  1  0  0  0  0  0  0
  184.5990  175.5390  136.2620 C   0  0  1  0  0  3  0  0  0  0  0  0
  187.9440  176.1400  134.7770 C   0  0  0  0  0  2  0  0  0  0  0  0
  189.1340  177.5800  136.4110 N   0  0  0  0  0  0  0  0  0  0  0  0
  181.4910  175.4580  136.9260 C   0  0  1  0  0  3  0  0  0  0  0  0
  184.3020  177.6500  137.7380 C   0  0  0  0  0  0  0  0  0  0  0  0
  184.5040  173.1290  136.5250 C   0  0  2  0  0  3  0  0  0  0  0  0
  190.3790  176.7610  134.5940 N   0  0  0  0  0  1  0  0  0  0  0  0
  182.3910  174.3690  136.3570 C   0  0  0  0  0  2  0  0  0  0  0  0
  184.6870  178.3170  138.9090 C   0  0  0  0  0  3  0  0  0  0  0  0
  182.3050  179.0460  137.6560 C   0  0  0  0  0  3  0  0  0  0  0  0
  182.7120  179.7060  138.8170 C   0  0  0  0  0  3  0  0  0  0  0  0
  181.4110  176.6490  135.9760 C   0  0  0  0  0  2  0  0  0  0  0  0
  185.7840  174.9200  135.5250 C   0  0  1  0  0  3  0  0  0  0  0  0
  183.8080  174.4190  136.9240 C   0  0  2  0  0  3  0  0  0  0  0  0
  186.9750  175.7920  135.8930 C   0  0  2  0  0  3  0  0  0  0  0  0
  186.8070  173.4180  137.1350 O   0  0  0  0  0  1  0  0  0  0  0  0
  185.2080  176.5360  137.2550 C   0  0  2  0  0  3  0  0  0  0  0  0
  1 21  2  0  0  0  0
  1 16  1  0  0  0  0
  5 17  1  0  0  0  0
  5 27  1  1  0  0  0
  6 23  1  0  0  0  0
  6  1  1  0  0  0  0
  8  2  2  0  0  0  0
  8  7  2  0  0  0  0
  9 14  2  0  0  0  0
 10 28  1  0  0  0  0
 10  8  1  1  0  0  0
 12 25  1  0  0  0  0
 12 28  1  0  0  0  0
 13  9  1  0  0  0  0
 13 26  1  0  0  0  0
 14  8  1  0  0  0  0
 15 11  1  0  0  0  0
 16 20  2  0  0  0  0
 17 25  1  0  0  0  0
 17  3  1  0  0  0  0
 18  9  1  0  0  0  0
 19 25  1  0  0  0  0
 19 15  1  0  0  0  0
 20  4  1  0  0  0  0
 21 22  1  0  0  0  0
 22  4  2  0  0  0  0
 23 15  1  0  0  0  0
 24 26  1  0  0  0  0
 24  5  1  0  0  0  0
 24 12  1  0  0  0  0
 26 10  1  0  0  0  0
 28 16  1  0  0  0  0
M  END
>  <MODEL>
9

>  <REMARK>
 VINA RESULT:      -5.1      5.408      7.569
  Name = 
  0 active torsions:
  status: ('A' for Active; 'I' for Inactive)
                            x       y       z     vdW  Elec       q    Type
                         _______ _______ _______ _____ _____    ______ ____

>  <TORSDO>
F 0

$$$$
