=
 OpenBabel11122410233D

 30 35  0  0  1  0  0  0  0  0999 V2000
  185.4190  178.1730  142.3740 C   0  0  0  0  0  0  0  0  0  0  0  0
  186.3270  178.2600  144.7010 C   0  0  0  0  0  0  0  0  0  0  0  0
  181.4430  178.9650  143.7000 C   0  0  0  0  0  2  0  0  0  0  0  0
  184.2990  178.2750  141.5160 C   0  0  0  0  0  0  0  0  0  0  0  0
  186.7460  177.7960  141.7740 C   0  0  0  0  0  2  0  0  0  0  0  0
  186.0890  178.9400  138.3650 O   0  0  0  0  0  0  0  0  0  0  0  0
  182.6050  176.5700  139.8350 C   0  0  1  0  0  3  0  0  0  0  0  0
  185.8660  178.5920  139.5570 C   0  0  0  0  0  0  0  0  0  0  0  0
  181.4580  177.2780  140.5550 C   0  0  2  0  0  3  0  0  0  0  0  0
  180.7920  178.9420  142.3020 C   0  0  1  0  0  3  0  0  0  0  0  0
  186.9550  178.4250  140.4750 N   0  0  0  0  0  0  0  0  0  0  0  0
  184.4490  178.4200  140.0220 C   0  0  1  0  0  3  0  0  0  0  0  0
  186.1080  178.4630  146.0660 C   0  0  0  0  0  3  0  0  0  0  0  0
  180.4150  177.5670  139.5020 C   0  0  0  0  0  2  0  0  0  0  0  0
  181.8820  175.7240  138.7990 C   0  0  0  0  0  2  0  0  0  0  0  0
  187.5960  177.9980  144.3000 F   0  0  0  0  0  0  0  0  0  0  0  0
  182.8740  178.6940  143.4090 C   0  0  0  0  0  0  0  0  0  0  0  0
  184.8300  178.7480  146.5470 C   0  0  0  0  0  3  0  0  0  0  0  0
  185.2510  178.3420  143.7830 C   0  0  0  0  0  0  0  0  0  0  0  0
  183.0400  178.4670  142.0770 C   0  0  0  0  0  0  0  0  0  0  0  0
  180.3820  180.3480  141.9080 C   0  0  0  0  0  1  0  0  0  0  0  0
  181.8090  178.4440  141.3710 N   0  0  0  0  0  0  0  0  0  0  0  0
  180.5460  176.4110  138.5190 C   0  0  0  0  0  2  0  0  0  0  0  0
  183.0460  178.2210  138.0980 O   0  0  0  0  0  1  0  0  0  0  0  0
  183.7550  178.8320  145.6650 C   0  0  0  0  0  3  0  0  0  0  0  0
  183.9510  178.6330  144.2950 C   0  0  0  0  0  0  0  0  0  0  0  0
  183.6330  177.4800  139.1280 C   0  0  2  0  0  3  0  0  0  0  0  0
  188.3210  178.6920  140.0470 C   0  0  0  0  0  2  0  0  0  0  0  0
  190.1680  177.5040  139.8440 C   0  0  0  0  0  1  0  0  0  0  0  0
  189.2070  177.8960  140.7750 O   0  0  0  0  0  0  0  0  0  0  0  0
  1 19  1  0  0  0  0
  2 13  1  0  0  0  0
  4 20  1  0  0  0  0
  4  1  2  0  0  0  0
  5  1  1  0  0  0  0
  6  8  2  0  0  0  0
  7 15  1  6  0  0  0
  7  9  1  0  0  0  0
  8 11  1  0  0  0  0
  9 14  1  6  0  0  0
  9 22  1  0  0  0  0
 10 21  1  6  0  0  0
 10  3  1  0  0  0  0
 11  5  1  0  0  0  0
 12  8  1  1  0  0  0
 12  4  1  0  0  0  0
 13 18  2  0  0  0  0
 16  2  1  0  0  0  0
 17  3  1  0  0  0  0
 17 26  1  0  0  0  0
 19 26  1  0  0  0  0
 19  2  2  0  0  0  0
 20 17  2  0  0  0  0
 22 20  1  0  0  0  0
 22 10  1  0  0  0  0
 23 15  1  0  0  0  0
 23 14  1  0  0  0  0
 25 18  1  0  0  0  0
 26 25  2  0  0  0  0
 27 24  1  6  0  0  0
 27  7  1  0  0  0  0
 27 12  1  0  0  0  0
 28 11  1  0  0  0  0
 28 30  1  0  0  0  0
 29 30  1  0  0  0  0
M  END
>  <MODEL>
1

>  <REMARK>
 VINA RESULT:      -8.4      0.000      0.000
  Name = 
  2 active torsions:
  status: ('A' for Active; 'I' for Inactive)
    1  A    between atoms: N_11  and  C_28
    2  A    between atoms: C_28  and  O_30
                            x       y       z     vdW  Elec       q    Type
                         _______ _______ _______ _____ _____    ______ ____

>  <TORSDO>
F 2

$$$$
=
 OpenBabel11122410233D

 30 35  0  0  1  0  0  0  0  0999 V2000
  189.0550  177.3780  139.6760 C   0  0  0  0  0  0  0  0  0  0  0  0
  190.7490  176.6520  137.9880 C   0  0  0  0  0  0  0  0  0  0  0  0
  192.0210  177.9020  142.6970 C   0  0  0  0  0  2  0  0  0  0  0  0
  188.7810  177.8140  140.9940 C   0  0  0  0  0  0  0  0  0  0  0  0
  187.8970  177.1490  138.7440 C   0  0  0  0  0  2  0  0  0  0  0  0
  185.5030  179.3760  140.3770 O   0  0  0  0  0  0  0  0  0  0  0  0
  187.5120  176.8430  143.4530 C   0  0  1  0  0  3  0  0  0  0  0  0
  186.5340  178.6700  140.2110 C   0  0  0  0  0  0  0  0  0  0  0  0
  188.7960  177.3370  144.1180 C   0  0  2  0  0  3  0  0  0  0  0  0
  191.0530  178.3710  143.8020 C   0  0  1  0  0  3  0  0  0  0  0  0
  186.8550  178.1550  138.9120 N   0  0  0  0  0  0  0  0  0  0  0  0
  187.4570  178.4300  141.3710 C   0  0  1  0  0  3  0  0  0  0  0  0
  192.0860  176.4100  137.6590 C   0  0  0  0  0  3  0  0  0  0  0  0
  188.3730  178.0080  145.4030 C   0  0  0  0  0  2  0  0  0  0  0  0
  186.6590  176.4210  144.6380 C   0  0  0  0  0  2  0  0  0  0  0  0
  189.8200  176.4690  137.0170 F   0  0  0  0  0  0  0  0  0  0  0  0
  191.1200  177.6660  141.5400 C   0  0  0  0  0  0  0  0  0  0  0  0
  193.0960  176.5890  138.6040 C   0  0  0  0  0  3  0  0  0  0  0  0
  190.4000  177.0870  139.2900 C   0  0  0  0  0  0  0  0  0  0  0  0
  189.8280  177.8780  141.9100 C   0  0  0  0  0  0  0  0  0  0  0  0
  191.2660  179.8480  144.0720 C   0  0  0  0  0  1  0  0  0  0  0  0
  189.6950  178.1520  143.2960 N   0  0  0  0  0  0  0  0  0  0  0  0
  187.1400  177.2310  145.8420 C   0  0  0  0  0  2  0  0  0  0  0  0
  186.2810  178.9450  143.3860 O   0  0  0  0  0  1  0  0  0  0  0  0
  192.7780  177.0130  139.8930 C   0  0  0  0  0  3  0  0  0  0  0  0
  191.4470  177.2620  140.2440 C   0  0  0  0  0  0  0  0  0  0  0  0
  186.7390  177.8780  142.6070 C   0  0  2  0  0  3  0  0  0  0  0  0
  186.0120  178.4750  137.7690 C   0  0  0  0  0  2  0  0  0  0  0  0
  184.2320  177.1830  137.6010 C   0  0  0  0  0  1  0  0  0  0  0  0
  185.5540  177.2970  137.1760 O   0  0  0  0  0  0  0  0  0  0  0  0
  1  4  1  0  0  0  0
  2 19  1  0  0  0  0
  3 10  1  0  0  0  0
  4 12  1  0  0  0  0
  4 20  2  0  0  0  0
  5 11  1  0  0  0  0
  5  1  1  0  0  0  0
  7  9  1  0  0  0  0
  7 15  1  1  0  0  0
  8  6  2  0  0  0  0
  9 14  1  1  0  0  0
 10 21  1  6  0  0  0
 11  8  1  0  0  0  0
 12  8  1  6  0  0  0
 12 27  1  0  0  0  0
 13  2  2  0  0  0  0
 13 18  1  0  0  0  0
 14 23  1  0  0  0  0
 15 23  1  0  0  0  0
 16  2  1  0  0  0  0
 17 20  1  0  0  0  0
 17  3  1  0  0  0  0
 18 25  2  0  0  0  0
 19  1  2  0  0  0  0
 19 26  1  0  0  0  0
 20 22  1  0  0  0  0
 22 10  1  0  0  0  0
 22  9  1  0  0  0  0
 25 26  1  0  0  0  0
 26 17  2  0  0  0  0
 27 24  1  1  0  0  0
 27  7  1  0  0  0  0
 28 11  1  0  0  0  0
 30 29  1  0  0  0  0
 30 28  1  0  0  0  0
M  END
>  <MODEL>
2

>  <REMARK>
 VINA RESULT:      -8.0      3.622      7.556
  Name = 
  2 active torsions:
  status: ('A' for Active; 'I' for Inactive)
    1  A    between atoms: N_11  and  C_28
    2  A    between atoms: C_28  and  O_30
                            x       y       z     vdW  Elec       q    Type
                         _______ _______ _______ _____ _____    ______ ____

>  <TORSDO>
F 2

$$$$
=
 OpenBabel11122410233D

 30 35  0  0  1  0  0  0  0  0999 V2000
  188.5200  177.5470  141.3980 C   0  0  0  0  0  0  0  0  0  0  0  0
  186.7040  178.1010  143.0230 C   0  0  0  0  0  0  0  0  0  0  0  0
  186.0670  178.5160  138.0450 C   0  0  0  0  0  2  0  0  0  0  0  0
  188.9430  177.4610  140.0510 C   0  0  0  0  0  0  0  0  0  0  0  0
  189.4640  177.0830  142.4740 C   0  0  0  0  0  2  0  0  0  0  0  0
  192.5820  177.5280  140.6200 O   0  0  0  0  0  0  0  0  0  0  0  0
  189.6050  175.4330  138.0380 C   0  0  1  0  0  3  0  0  0  0  0  0
  191.3450  177.4150  140.8390 C   0  0  0  0  0  0  0  0  0  0  0  0
  188.6720  176.2490  137.1450 C   0  0  2  0  0  3  0  0  0  0  0  0
  187.1280  178.2100  136.9680 C   0  0  1  0  0  3  0  0  0  0  0  0
  190.8450  177.4490  142.1830 N   0  0  0  0  0  0  0  0  0  0  0  0
  190.3980  177.3140  139.6790 C   0  0  1  0  0  3  0  0  0  0  0  0
  185.4060  178.5640  143.2580 C   0  0  0  0  0  3  0  0  0  0  0  0
  189.3350  176.3090  135.7890 C   0  0  0  0  0  2  0  0  0  0  0  0
  190.1600  174.3890  137.0830 C   0  0  0  0  0  2  0  0  0  0  0  0
  187.4650  177.7880  144.1020 F   0  0  0  0  0  0  0  0  0  0  0  0
  186.7810  178.2170  139.3130 C   0  0  0  0  0  0  0  0  0  0  0  0
  184.5730  178.9160  142.1970 C   0  0  0  0  0  3  0  0  0  0  0  0
  187.1940  177.9860  141.6990 C   0  0  0  0  0  0  0  0  0  0  0  0
  188.0250  177.7380  139.0410 C   0  0  0  0  0  0  0  0  0  0  0  0
  187.5990  179.5050  136.3350 C   0  0  0  0  0  1  0  0  0  0  0  0
  188.2480  177.5570  137.6510 N   0  0  0  0  0  0  0  0  0  0  0  0
  190.0800  174.9860  135.6780 C   0  0  0  0  0  2  0  0  0  0  0  0
  191.6520  176.7200  137.7340 O   0  0  0  0  0  1  0  0  0  0  0  0
  185.0300  178.8090  140.8850 C   0  0  0  0  0  3  0  0  0  0  0  0
  186.3250  178.3490  140.6260 C   0  0  0  0  0  0  0  0  0  0  0  0
  190.7730  176.2040  138.6910 C   0  0  2  0  0  3  0  0  0  0  0  0
  191.7570  177.6500  143.2990 C   0  0  0  0  0  2  0  0  0  0  0  0
  191.5450  177.0930  145.4230 C   0  0  0  0  0  1  0  0  0  0  0  0
  191.7110  176.5460  144.1510 O   0  0  0  0  0  0  0  0  0  0  0  0
  1 19  1  0  0  0  0
  1  5  1  0  0  0  0
  2 13  1  0  0  0  0
  2 16  1  0  0  0  0
  3 17  1  0  0  0  0
  4  1  2  0  0  0  0
  6  8  2  0  0  0  0
  7 15  1  6  0  0  0
  7 27  1  0  0  0  0
  8 11  1  0  0  0  0
  9 14  1  6  0  0  0
  9 22  1  0  0  0  0
  9  7  1  0  0  0  0
 10 21  1  1  0  0  0
 10 22  1  0  0  0  0
 10  3  1  0  0  0  0
 11  5  1  0  0  0  0
 11 28  1  0  0  0  0
 12  4  1  1  0  0  0
 12  8  1  0  0  0  0
 17 26  1  0  0  0  0
 18 13  2  0  0  0  0
 19  2  2  0  0  0  0
 20 17  2  0  0  0  0
 20  4  1  0  0  0  0
 22 20  1  0  0  0  0
 23 14  1  0  0  0  0
 23 15  1  0  0  0  0
 25 18  1  0  0  0  0
 26 25  2  0  0  0  0
 26 19  1  0  0  0  0
 27 24  1  6  0  0  0
 27 12  1  0  0  0  0
 28 30  1  0  0  0  0
 30 29  1  0  0  0  0
M  END
>  <MODEL>
3

>  <REMARK>
 VINA RESULT:      -7.7      3.646      6.289
  Name = 
  2 active torsions:
  status: ('A' for Active; 'I' for Inactive)
    1  A    between atoms: N_11  and  C_28
    2  A    between atoms: C_28  and  O_30
                            x       y       z     vdW  Elec       q    Type
                         _______ _______ _______ _____ _____    ______ ____

>  <TORSDO>
F 2

$$$$
=
 OpenBabel11122410233D

 30 35  0  0  1  0  0  0  0  0999 V2000
  188.0990  177.4700  142.8950 C   0  0  0  0  0  0  0  0  0  0  0  0
  189.4980  176.6950  144.8160 C   0  0  0  0  0  0  0  0  0  0  0  0
  185.0790  179.0150  145.4810 C   0  0  0  0  0  2  0  0  0  0  0  0
  186.9180  178.1070  142.4480 C   0  0  0  0  0  0  0  0  0  0  0  0
  189.0320  176.8900  141.8660 C   0  0  0  0  0  2  0  0  0  0  0  0
  188.0360  179.0030  139.0540 O   0  0  0  0  0  0  0  0  0  0  0  0
  184.3920  177.4520  141.1090 C   0  0  1  0  0  3  0  0  0  0  0  0
  187.9920  178.4420  140.1830 C   0  0  0  0  0  0  0  0  0  0  0  0
  183.7670  178.2550  142.2500 C   0  0  2  0  0  3  0  0  0  0  0  0
  184.1530  179.5380  144.3630 C   0  0  1  0  0  3  0  0  0  0  0  0
  189.1370  177.7400  140.6860 N   0  0  0  0  0  0  0  0  0  0  0  0
  186.7550  178.5770  141.0240 C   0  0  1  0  0  3  0  0  0  0  0  0
  189.6900  176.6000  146.1970 C   0  0  0  0  0  3  0  0  0  0  0  0
  182.6750  179.0910  141.6260 C   0  0  0  0  0  2  0  0  0  0  0  0
  183.1980  177.1440  140.2200 C   0  0  0  0  0  2  0  0  0  0  0  0
  190.4650  176.1880  144.0100 F   0  0  0  0  0  0  0  0  0  0  0  0
  186.2150  178.4250  144.7260 C   0  0  0  0  0  0  0  0  0  0  0  0
  188.7430  177.1100  147.0840 C   0  0  0  0  0  3  0  0  0  0  0  0
  188.3360  177.3160  144.2960 C   0  0  0  0  0  0  0  0  0  0  0  0
  185.9740  178.5060  143.3900 C   0  0  0  0  0  0  0  0  0  0  0  0
  184.1800  181.0550  144.3480 C   0  0  0  0  0  1  0  0  0  0  0  0
  184.6840  179.0210  143.0980 N   0  0  0  0  0  0  0  0  0  0  0  0
  182.1600  178.2360  140.4770 C   0  0  0  0  0  2  0  0  0  0  0  0
  184.9620  179.2890  139.6140 O   0  0  0  0  0  1  0  0  0  0  0  0
  187.5910  177.7240  146.5980 C   0  0  0  0  0  3  0  0  0  0  0  0
  187.3780  177.8310  145.2200 C   0  0  0  0  0  0  0  0  0  0  0  0
  185.4770  178.1730  140.2810 C   0  0  2  0  0  3  0  0  0  0  0  0
  190.3690  177.6990  139.9110 C   0  0  0  0  0  2  0  0  0  0  0  0
  190.2330  176.1990  138.3010 C   0  0  0  0  0  1  0  0  0  0  0  0
  190.6900  176.3760  139.6060 O   0  0  0  0  0  0  0  0  0  0  0  0
  1 19  1  0  0  0  0
  2 13  1  0  0  0  0
  4  1  2  0  0  0  0
  4 20  1  0  0  0  0
  5  1  1  0  0  0  0
  6  8  2  0  0  0  0
  7 15  1  6  0  0  0
  7  9  1  0  0  0  0
  8 11  1  0  0  0  0
  9 14  1  6  0  0  0
  9 22  1  0  0  0  0
 10 21  1  6  0  0  0
 10  3  1  0  0  0  0
 11  5  1  0  0  0  0
 12  8  1  6  0  0  0
 12  4  1  0  0  0  0
 13 18  2  0  0  0  0
 15 23  1  0  0  0  0
 16  2  1  0  0  0  0
 17 26  1  0  0  0  0
 17  3  1  0  0  0  0
 19  2  2  0  0  0  0
 19 26  1  0  0  0  0
 20 17  2  0  0  0  0
 22 20  1  0  0  0  0
 22 10  1  0  0  0  0
 23 14  1  0  0  0  0
 25 18  1  0  0  0  0
 26 25  2  0  0  0  0
 27 24  1  1  0  0  0
 27 12  1  0  0  0  0
 27  7  1  0  0  0  0
 28 11  1  0  0  0  0
 29 30  1  0  0  0  0
 30 28  1  0  0  0  0
M  END
>  <MODEL>
4

>  <REMARK>
 VINA RESULT:      -7.2      1.992      3.162
  Name = 
  2 active torsions:
  status: ('A' for Active; 'I' for Inactive)
    1  A    between atoms: N_11  and  C_28
    2  A    between atoms: C_28  and  O_30
                            x       y       z     vdW  Elec       q    Type
                         _______ _______ _______ _____ _____    ______ ____

>  <TORSDO>
F 2

$$$$
=
 OpenBabel11122410233D

 30 35  0  0  1  0  0  0  0  0999 V2000
  185.8950  178.1850  141.8580 C   0  0  0  0  0  0  0  0  0  0  0  0
  185.3340  178.3010  144.2910 C   0  0  0  0  0  0  0  0  0  0  0  0
  181.9220  179.2260  140.7050 C   0  0  0  0  0  2  0  0  0  0  0  0
  185.4630  178.3160  140.5170 C   0  0  0  0  0  0  0  0  0  0  0  0
  187.3020  177.7200  142.1130 C   0  0  0  0  0  2  0  0  0  0  0  0
  188.7560  178.7820  138.9320 O   0  0  0  0  0  0  0  0  0  0  0  0
  184.9130  176.6470  138.1690 C   0  0  1  0  0  3  0  0  0  0  0  0
  187.8790  178.4850  139.7890 C   0  0  0  0  0  0  0  0  0  0  0  0
  183.6060  177.4370  138.1160 C   0  0  2  0  0  3  0  0  0  0  0  0
  182.1750  179.1900  139.1840 C   0  0  1  0  0  3  0  0  0  0  0  0
  188.2470  178.2930  141.1620 N   0  0  0  0  0  0  0  0  0  0  0  0
  186.4400  178.4030  139.3700 C   0  0  1  0  0  3  0  0  0  0  0  0
  184.3950  178.5610  145.2930 C   0  0  0  0  0  3  0  0  0  0  0  0
  183.3600  177.7450  136.6580 C   0  0  0  0  0  2  0  0  0  0  0  0
  184.8500  175.8060  136.9050 C   0  0  0  0  0  2  0  0  0  0  0  0
  186.5890  177.9610  144.6780 F   0  0  0  0  0  0  0  0  0  0  0  0
  183.2480  178.8710  141.2730 C   0  0  0  0  0  0  0  0  0  0  0  0
  183.0890  178.9280  144.9680 C   0  0  0  0  0  3  0  0  0  0  0  0
  184.9720  178.4090  142.9260 C   0  0  0  0  0  0  0  0  0  0  0  0
  184.1220  178.5920  140.2690 C   0  0  0  0  0  0  0  0  0  0  0  0
  182.1460  180.6020  138.6300 C   0  0  0  0  0  1  0  0  0  0  0  0
  183.5060  178.6100  138.9900 N   0  0  0  0  0  0  0  0  0  0  0  0
  183.9510  176.5520  135.9190 C   0  0  0  0  0  2  0  0  0  0  0  0
  186.3590  178.2140  136.9900 O   0  0  0  0  0  1  0  0  0  0  0  0
  182.7080  179.0390  143.6330 C   0  0  0  0  0  3  0  0  0  0  0  0
  183.6310  178.7840  142.6130 C   0  0  0  0  0  0  0  0  0  0  0  0
  186.2140  177.4780  138.1700 C   0  0  2  0  0  3  0  0  0  0  0  0
  189.6290  178.4740  141.5820 C   0  0  0  0  0  2  0  0  0  0  0  0
  191.1150  177.6180  142.9690 C   0  0  0  0  0  1  0  0  0  0  0  0
  189.7850  178.0290  142.8950 O   0  0  0  0  0  0  0  0  0  0  0  0
  1  5  1  0  0  0  0
  1 19  1  0  0  0  0
  2 16  1  0  0  0  0
  2 13  1  0  0  0  0
  3 17  1  0  0  0  0
  4  1  2  0  0  0  0
  6  8  2  0  0  0  0
  7 15  1  6  0  0  0
  7 27  1  0  0  0  0
  8 11  1  0  0  0  0
  9 14  1  6  0  0  0
  9  7  1  0  0  0  0
  9 22  1  0  0  0  0
 10 21  1  1  0  0  0
 10  3  1  0  0  0  0
 11 28  1  0  0  0  0
 11  5  1  0  0  0  0
 12  8  1  1  0  0  0
 12  4  1  0  0  0  0
 17 26  1  0  0  0  0
 18 13  2  0  0  0  0
 19  2  2  0  0  0  0
 20  4  1  0  0  0  0
 20 17  2  0  0  0  0
 22 10  1  0  0  0  0
 22 20  1  0  0  0  0
 23 14  1  0  0  0  0
 23 15  1  0  0  0  0
 25 18  1  0  0  0  0
 26 19  1  0  0  0  0
 26 25  2  0  0  0  0
 27 24  1  6  0  0  0
 27 12  1  0  0  0  0
 28 30  1  0  0  0  0
 30 29  1  0  0  0  0
M  END
>  <MODEL>
5

>  <REMARK>
 VINA RESULT:      -6.9      1.831      2.583
  Name = 
  2 active torsions:
  status: ('A' for Active; 'I' for Inactive)
    1  A    between atoms: N_11  and  C_28
    2  A    between atoms: C_28  and  O_30
                            x       y       z     vdW  Elec       q    Type
                         _______ _______ _______ _____ _____    ______ ____

>  <TORSDO>
F 2

$$$$
=
 OpenBabel11122410233D

 30 35  0  0  1  0  0  0  0  0999 V2000
  185.7590  178.6640  140.3440 C   0  0  0  0  0  0  0  0  0  0  0  0
  188.2320  178.4450  140.0540 C   0  0  0  0  0  0  0  0  0  0  0  0
  184.9840  177.2010  136.4120 C   0  0  0  0  0  2  0  0  0  0  0  0
  184.4650  178.5070  139.7930 C   0  0  0  0  0  0  0  0  0  0  0  0
  185.8840  179.2800  141.7110 C   0  0  0  0  0  2  0  0  0  0  0  0
  182.5440  178.4410  142.9360 O   0  0  0  0  0  0  0  0  0  0  0  0
  182.2330  180.1420  138.8220 C   0  0  1  0  0  3  0  0  0  0  0  0
  183.4920  178.6230  142.1250 C   0  0  0  0  0  0  0  0  0  0  0  0
  182.2890  179.2110  137.6120 C   0  0  2  0  0  3  0  0  0  0  0  0
  183.4460  177.2910  136.5010 C   0  0  1  0  0  3  0  0  0  0  0  0
  184.8260  178.8330  142.6090 N   0  0  0  0  0  0  0  0  0  0  0  0
  183.2240  178.5490  140.6490 C   0  0  1  0  0  3  0  0  0  0  0  0
  189.3160  178.0640  139.2580 C   0  0  0  0  0  3  0  0  0  0  0  0
  180.8550  178.9020  137.2520 C   0  0  0  0  0  2  0  0  0  0  0  0
  181.0050  180.9920  138.5370 C   0  0  0  0  0  2  0  0  0  0  0  0
  188.4990  178.9180  141.2970 F   0  0  0  0  0  0  0  0  0  0  0  0
  185.4250  177.6940  137.7430 C   0  0  0  0  0  0  0  0  0  0  0  0
  189.1140  177.5580  137.9750 C   0  0  0  0  0  3  0  0  0  0  0  0
  186.9080  178.3190  139.5670 C   0  0  0  0  0  0  0  0  0  0  0  0
  184.3460  178.0860  138.4720 C   0  0  0  0  0  0  0  0  0  0  0  0
  182.8590  175.8940  136.5710 C   0  0  0  0  0  1  0  0  0  0  0  0
  183.1350  178.0200  137.7330 N   0  0  0  0  0  0  0  0  0  0  0  0
  180.0950  180.1660  137.6280 C   0  0  0  0  0  2  0  0  0  0  0  0
  180.8690  178.7680  140.3020 O   0  0  0  0  0  1  0  0  0  0  0  0
  187.8220  177.4270  137.4710 C   0  0  0  0  0  3  0  0  0  0  0  0
  186.7220  177.8010  138.2500 C   0  0  0  0  0  0  0  0  0  0  0  0
  182.0780  179.4630  140.2010 C   0  0  2  0  0  3  0  0  0  0  0  0
  185.0990  178.8010  144.0380 C   0  0  0  0  0  2  0  0  0  0  0  0
  186.4100  178.0290  145.6350 C   0  0  0  0  0  1  0  0  0  0  0  0
  186.0130  177.7850  144.3220 O   0  0  0  0  0  0  0  0  0  0  0  0
  1  5  1  0  0  0  0
  2 16  1  0  0  0  0
  3 10  1  0  0  0  0
  3 17  1  0  0  0  0
  4  1  1  0  0  0  0
  5 11  1  0  0  0  0
  7 15  1  6  0  0  0
  7 27  1  0  0  0  0
  8 11  1  0  0  0  0
  8  6  2  0  0  0  0
  9 14  1  1  0  0  0
  9 22  1  0  0  0  0
  9  7  1  0  0  0  0
 10 21  1  1  0  0  0
 10 22  1  0  0  0  0
 11 28  1  0  0  0  0
 12  4  1  6  0  0  0
 12  8  1  0  0  0  0
 13  2  2  0  0  0  0
 14 23  1  0  0  0  0
 17 26  2  0  0  0  0
 17 20  1  0  0  0  0
 18 13  1  0  0  0  0
 19  2  1  0  0  0  0
 19  1  2  0  0  0  0
 20  4  2  0  0  0  0
 22 20  1  0  0  0  0
 23 15  1  0  0  0  0
 25 18  2  0  0  0  0
 25 26  1  0  0  0  0
 26 19  1  0  0  0  0
 27 24  1  6  0  0  0
 27 12  1  0  0  0  0
 28 30  1  0  0  0  0
 30 29  1  0  0  0  0
M  END
>  <MODEL>
6

>  <REMARK>
 VINA RESULT:      -6.8      2.547      5.270
  Name = 
  2 active torsions:
  status: ('A' for Active; 'I' for Inactive)
    1  A    between atoms: N_11  and  C_28
    2  A    between atoms: C_28  and  O_30
                            x       y       z     vdW  Elec       q    Type
                         _______ _______ _______ _____ _____    ______ ____

>  <TORSDO>
F 2

$$$$
=
 OpenBabel11122410233D

 30 35  0  0  1  0  0  0  0  0999 V2000
  187.2090  178.2220  140.2680 C   0  0  0  0  0  0  0  0  0  0  0  0
  185.0290  178.9970  139.3200 C   0  0  0  0  0  0  0  0  0  0  0  0
  185.6940  178.2520  144.2560 C   0  0  0  0  0  2  0  0  0  0  0  0
  187.9630  177.8610  141.4090 C   0  0  0  0  0  0  0  0  0  0  0  0
  187.9020  178.2540  138.9330 C   0  0  0  0  0  2  0  0  0  0  0  0
  190.5950  175.9120  139.7220 O   0  0  0  0  0  0  0  0  0  0  0  0
  190.1830  178.8720  143.0360 C   0  0  1  0  0  3  0  0  0  0  0  0
  189.6360  176.7110  139.9010 C   0  0  0  0  0  0  0  0  0  0  0  0
  189.2490  178.5720  144.2070 C   0  0  2  0  0  3  0  0  0  0  0  0
  186.9930  177.7660  144.9310 C   0  0  1  0  0  3  0  0  0  0  0  0
  188.8510  177.1570  138.7860 N   0  0  0  0  0  0  0  0  0  0  0  0
  189.2810  177.1350  141.2960 C   0  0  1  0  0  3  0  0  0  0  0  0
  183.6940  179.3560  139.5240 C   0  0  0  0  0  3  0  0  0  0  0  0
  190.1090  177.9580  145.2850 C   0  0  0  0  0  2  0  0  0  0  0  0
  191.4700  179.2880  143.7300 C   0  0  0  0  0  2  0  0  0  0  0  0
  185.4960  179.0040  138.0460 F   0  0  0  0  0  0  0  0  0  0  0  0
  186.0630  178.3010  142.8170 C   0  0  0  0  0  0  0  0  0  0  0  0
  183.1450  179.3590  140.8060 C   0  0  0  0  0  3  0  0  0  0  0  0
  185.8460  178.6270  140.4170 C   0  0  0  0  0  0  0  0  0  0  0  0
  187.3760  177.9790  142.6650 C   0  0  0  0  0  0  0  0  0  0  0  0
  186.8070  176.3450  145.4290 C   0  0  0  0  0  1  0  0  0  0  0  0
  188.0400  177.7980  143.9070 N   0  0  0  0  0  0  0  0  0  0  0  0
  191.4650  178.6280  145.1080 C   0  0  0  0  0  2  0  0  0  0  0  0
  191.1350  176.6510  142.7240 O   0  0  0  0  0  1  0  0  0  0  0  0
  183.9280  179.0020  141.9010 C   0  0  0  0  0  3  0  0  0  0  0  0
  185.2670  178.6380  141.7210 C   0  0  0  0  0  0  0  0  0  0  0  0
  190.4740  177.6990  142.0750 C   0  0  2  0  0  3  0  0  0  0  0  0
  189.1350  176.6620  137.4470 C   0  0  0  0  0  2  0  0  0  0  0  0
  187.6440  175.1650  136.8130 C   0  0  0  0  0  1  0  0  0  0  0  0
  187.9440  176.5240  136.7330 O   0  0  0  0  0  0  0  0  0  0  0  0
  1 19  2  0  0  0  0
  1  4  1  0  0  0  0
  2 13  2  0  0  0  0
  2 19  1  0  0  0  0
  3 10  1  0  0  0  0
  4 20  2  0  0  0  0
  5  1  1  0  0  0  0
  6  8  2  0  0  0  0
  7 15  1  1  0  0  0
  7  9  1  0  0  0  0
  9 14  1  1  0  0  0
 10 21  1  6  0  0  0
 11  5  1  0  0  0  0
 11  8  1  0  0  0  0
 12  8  1  6  0  0  0
 12  4  1  0  0  0  0
 12 27  1  0  0  0  0
 13 18  1  0  0  0  0
 15 23  1  0  0  0  0
 16  2  1  0  0  0  0
 17  3  1  0  0  0  0
 18 25  2  0  0  0  0
 19 26  1  0  0  0  0
 20 17  1  0  0  0  0
 20 22  1  0  0  0  0
 22  9  1  0  0  0  0
 22 10  1  0  0  0  0
 23 14  1  0  0  0  0
 26 25  1  0  0  0  0
 26 17  2  0  0  0  0
 27 24  1  1  0  0  0
 27  7  1  0  0  0  0
 28 11  1  0  0  0  0
 30 29  1  0  0  0  0
 30 28  1  0  0  0  0
M  END
>  <MODEL>
7

>  <REMARK>
 VINA RESULT:      -6.7      3.015      6.561
  Name = 
  2 active torsions:
  status: ('A' for Active; 'I' for Inactive)
    1  A    between atoms: N_11  and  C_28
    2  A    between atoms: C_28  and  O_30
                            x       y       z     vdW  Elec       q    Type
                         _______ _______ _______ _____ _____    ______ ____

>  <TORSDO>
F 2

$$$$
=
 OpenBabel11122410233D

 30 35  0  0  1  0  0  0  0  0999 V2000
  184.5680  178.2840  141.1450 C   0  0  0  0  0  0  0  0  0  0  0  0
  183.6650  178.5990  143.4540 C   0  0  0  0  0  0  0  0  0  0  0  0
  180.7530  178.9680  139.3630 C   0  0  0  0  0  2  0  0  0  0  0  0
  184.3240  178.2600  139.7510 C   0  0  0  0  0  0  0  0  0  0  0  0
  185.9460  177.9310  141.6350 C   0  0  0  0  0  2  0  0  0  0  0  0
  187.7820  178.7700  138.5880 O   0  0  0  0  0  0  0  0  0  0  0  0
  184.1870  176.3430  137.5360 C   0  0  1  0  0  3  0  0  0  0  0  0
  186.8080  178.5040  139.3440 C   0  0  0  0  0  0  0  0  0  0  0  0
  182.8660  177.0450  137.2240 C   0  0  2  0  0  3  0  0  0  0  0  0
  181.2180  178.8020  137.9020 C   0  0  1  0  0  3  0  0  0  0  0  0
  186.9870  178.4670  140.7660 N   0  0  0  0  0  0  0  0  0  0  0  0
  185.4470  178.2960  138.7450 C   0  0  1  0  0  3  0  0  0  0  0  0
  182.5830  178.8960  144.2880 C   0  0  0  0  0  3  0  0  0  0  0  0
  182.8140  177.1960  135.7230 C   0  0  0  0  0  2  0  0  0  0  0  0
  184.3430  175.3830  136.3680 C   0  0  0  0  0  2  0  0  0  0  0  0
  184.8680  178.3730  144.0400 F   0  0  0  0  0  0  0  0  0  0  0  0
  182.0000  178.7500  140.1400 C   0  0  0  0  0  0  0  0  0  0  0  0
  181.3210  179.1510  143.7530 C   0  0  0  0  0  3  0  0  0  0  0  0
  183.4940  178.5530  142.0490 C   0  0  0  0  0  0  0  0  0  0  0  0
  183.0190  178.4300  139.2970 C   0  0  0  0  0  0  0  0  0  0  0  0
  181.2020  180.1500  137.2070 C   0  0  0  0  0  1  0  0  0  0  0  0
  182.5900  178.2870  137.9510 N   0  0  0  0  0  0  0  0  0  0  0  0
  183.5570  175.9750  135.1980 C   0  0  0  0  0  2  0  0  0  0  0  0
  185.7100  177.8750  136.4070 O   0  0  0  0  0  1  0  0  0  0  0  0
  181.1260  179.1100  142.3740 C   0  0  0  0  0  3  0  0  0  0  0  0
  182.1940  178.8150  141.5210 C   0  0  0  0  0  0  0  0  0  0  0  0
  185.4360  177.2480  137.6270 C   0  0  2  0  0  3  0  0  0  0  0  0
  188.2860  178.7710  141.3480 C   0  0  0  0  0  2  0  0  0  0  0  0
  189.9370  177.3310  141.0910 C   0  0  0  0  0  1  0  0  0  0  0  0
  188.8380  177.6140  141.9000 O   0  0  0  0  0  0  0  0  0  0  0  0
  1  5  1  0  0  0  0
  1 19  1  0  0  0  0
  2 16  1  0  0  0  0
  2 13  1  0  0  0  0
  3 17  1  0  0  0  0
  4  1  2  0  0  0  0
  6  8  2  0  0  0  0
  7 15  1  6  0  0  0
  7 27  1  0  0  0  0
  8 11  1  0  0  0  0
  9 14  1  6  0  0  0
  9  7  1  0  0  0  0
  9 22  1  0  0  0  0
 10 21  1  1  0  0  0
 10 22  1  0  0  0  0
 10  3  1  0  0  0  0
 11 28  1  0  0  0  0
 11  5  1  0  0  0  0
 12  8  1  1  0  0  0
 12  4  1  0  0  0  0
 17 26  1  0  0  0  0
 18 13  2  0  0  0  0
 19  2  2  0  0  0  0
 20  4  1  0  0  0  0
 20 17  2  0  0  0  0
 22 20  1  0  0  0  0
 23 14  1  0  0  0  0
 23 15  1  0  0  0  0
 25 18  1  0  0  0  0
 26 19  1  0  0  0  0
 26 25  2  0  0  0  0
 27 24  1  6  0  0  0
 27 12  1  0  0  0  0
 28 30  1  0  0  0  0
 29 30  1  0  0  0  0
M  END
>  <MODEL>
8

>  <REMARK>
 VINA RESULT:      -6.6      1.971      3.093
  Name = 
  2 active torsions:
  status: ('A' for Active; 'I' for Inactive)
    1  A    between atoms: N_11  and  C_28
    2  A    between atoms: C_28  and  O_30
                            x       y       z     vdW  Elec       q    Type
                         _______ _______ _______ _____ _____    ______ ____

>  <TORSDO>
F 2

$$$$
=
 OpenBabel11122410233D

 30 35  0  0  1  0  0  0  0  0999 V2000
  188.0590  178.0890  140.5340 C   0  0  0  0  0  0  0  0  0  0  0  0
  189.1680  178.3580  138.3100 C   0  0  0  0  0  0  0  0  0  0  0  0
  184.1590  178.2620  138.8160 C   0  0  0  0  0  2  0  0  0  0  0  0
  186.8580  177.9890  141.2740 C   0  0  0  0  0  0  0  0  0  0  0  0
  189.3630  178.1050  141.2850 C   0  0  0  0  0  2  0  0  0  0  0  0
  188.2170  176.3780  144.2960 O   0  0  0  0  0  0  0  0  0  0  0  0
  185.2740  179.5460  143.1900 C   0  0  1  0  0  3  0  0  0  0  0  0
  188.1650  177.0070  143.2040 C   0  0  0  0  0  0  0  0  0  0  0  0
  184.1120  179.2060  142.2580 C   0  0  2  0  0  3  0  0  0  0  0  0
  183.3860  178.0890  140.1390 C   0  0  1  0  0  3  0  0  0  0  0  0
  189.3510  177.1870  142.4180 N   0  0  0  0  0  0  0  0  0  0  0  0
  186.8400  177.5040  142.7020 C   0  0  1  0  0  3  0  0  0  0  0  0
  189.0550  178.4910  136.9230 C   0  0  0  0  0  3  0  0  0  0  0  0
  182.9410  178.8720  143.1500 C   0  0  0  0  0  2  0  0  0  0  0  0
  184.5850  180.2550  144.3440 C   0  0  0  0  0  2  0  0  0  0  0  0
  190.4170  178.3160  138.8380 F   0  0  0  0  0  0  0  0  0  0  0  0
  185.5790  178.2260  139.2500 C   0  0  0  0  0  0  0  0  0  0  0  0
  187.8030  178.5290  136.3110 C   0  0  0  0  0  3  0  0  0  0  0  0
  188.0070  178.2560  139.1150 C   0  0  0  0  0  0  0  0  0  0  0  0
  185.6450  178.1300  140.6060 C   0  0  0  0  0  0  0  0  0  0  0  0
  182.7390  176.7180  140.1760 C   0  0  0  0  0  1  0  0  0  0  0  0
  184.3680  178.2020  141.2210 N   0  0  0  0  0  0  0  0  0  0  0  0
  183.1420  179.7520  144.3760 C   0  0  0  0  0  2  0  0  0  0  0  0
  185.3000  177.5110  144.5290 O   0  0  0  0  0  1  0  0  0  0  0  0
  186.6460  178.4340  137.0810 C   0  0  0  0  0  3  0  0  0  0  0  0
  186.7350  178.2990  138.4710 C   0  0  0  0  0  0  0  0  0  0  0  0
  186.0860  178.3500  143.7340 C   0  0  2  0  0  3  0  0  0  0  0  0
  190.6150  176.6140  142.8580 C   0  0  0  0  0  2  0  0  0  0  0  0
  191.6780  178.0290  144.1730 C   0  0  0  0  0  1  0  0  0  0  0  0
  191.6060  177.5970  142.8500 O   0  0  0  0  0  0  0  0  0  0  0  0
  1  4  1  0  0  0  0
  1  5  1  0  0  0  0
  2 16  1  0  0  0  0
  2 19  1  0  0  0  0
  3 17  1  0  0  0  0
  3 10  1  0  0  0  0
  5 11  1  0  0  0  0
  7 27  1  0  0  0  0
  7 15  1  1  0  0  0
  8  6  2  0  0  0  0
  9 14  1  1  0  0  0
  9  7  1  0  0  0  0
 10 21  1  6  0  0  0
 10 22  1  0  0  0  0
 11 28  1  0  0  0  0
 11  8  1  0  0  0  0
 12  4  1  6  0  0  0
 12  8  1  0  0  0  0
 12 27  1  0  0  0  0
 13  2  2  0  0  0  0
 14 23  1  0  0  0  0
 15 23  1  0  0  0  0
 17 20  1  0  0  0  0
 18 13  1  0  0  0  0
 18 25  2  0  0  0  0
 19  1  2  0  0  0  0
 20 22  1  0  0  0  0
 20  4  2  0  0  0  0
 22  9  1  0  0  0  0
 25 26  1  0  0  0  0
 26 19  1  0  0  0  0
 26 17  2  0  0  0  0
 27 24  1  6  0  0  0
 30 28  1  0  0  0  0
 30 29  1  0  0  0  0
M  END
>  <MODEL>
9

>  <REMARK>
 VINA RESULT:      -6.6      2.701      5.673
  Name = 
  2 active torsions:
  status: ('A' for Active; 'I' for Inactive)
    1  A    between atoms: N_11  and  C_28
    2  A    between atoms: C_28  and  O_30
                            x       y       z     vdW  Elec       q    Type
                         _______ _______ _______ _____ _____    ______ ____

>  <TORSDO>
F 2

$$$$
