=
 OpenBabel11122411543D

 28 32  0  0  1  0  0  0  0  0999 V2000
  180.1160  178.0890  141.9840 C   0  0  0  0  0  0  0  0  0  0  0  0
  180.5110  180.8760  139.5590 O   0  0  0  0  0  0  0  0  0  0  0  0
  181.6370  174.3450  137.0980 O   0  0  0  0  0  0  0  0  0  0  0  0
  182.2730  178.9970  143.5270 C   0  0  0  0  0  3  0  0  0  0  0  0
  183.5020  175.7060  137.8490 C   0  0  2  0  0  3  0  0  0  0  0  0
  178.9570  177.5350  141.2190 C   0  0  0  0  0  2  0  0  0  0  0  0
  182.6760  181.6920  138.7190 O   0  0  0  0  0  0  0  0  0  0  0  0
  181.6950  180.5550  138.6890 S   0  0  0  0  0  0  0  0  0  0  0  0
  181.4400  179.0250  136.4400 C   0  0  0  0  0  0  0  0  0  0  0  0
  182.4950  179.0710  139.2460 C   0  0  2  0  0  3  0  0  0  0  0  0
  179.5460  173.9780  140.5790 O   0  0  0  0  0  0  0  0  0  0  0  0
  182.2170  176.7060  139.6840 C   0  0  2  0  0  3  0  0  0  0  0  0
  182.2650  178.1530  136.9420 N   0  0  0  0  0  0  0  0  0  0  0  0
  181.1810  180.2750  137.0730 N   0  0  0  0  0  2  0  0  0  0  0  0
  179.4630  175.2110  140.3430 C   0  0  0  0  0  0  0  0  0  0  0  0
  181.3620  178.3310  141.3690 C   0  0  0  0  0  0  0  0  0  0  0  0
  182.1070  175.2110  137.8840 C   0  0  0  0  0  0  0  0  0  0  0  0
  180.6990  178.6810  135.1990 C   0  0  0  0  0  1  0  0  0  0  0  0
  179.9030  175.7340  139.0150 C   0  0  0  0  0  2  0  0  0  0  0  0
  182.4390  178.7720  142.1590 C   0  0  0  0  0  3  0  0  0  0  0  0
  179.9610  178.3120  143.3560 C   0  0  0  0  0  3  0  0  0  0  0  0
  181.0330  178.7700  144.1250 C   0  0  0  0  0  3  0  0  0  0  0  0
  178.9370  176.0850  141.3440 N   0  0  0  0  0  2  0  0  0  0  0  0
  183.4320  176.9470  138.7690 C   0  0  2  0  0  3  0  0  0  0  0  0
  181.3590  175.7880  138.9390 N   0  0  0  0  0  0  0  0  0  0  0  0
  183.1560  178.3120  138.1070 C   0  0  2  0  0  3  0  0  0  0  0  0
  184.0290  175.9630  136.4430 C   0  0  0  0  0  1  0  0  0  0  0  0
  181.5570  178.0670  139.8990 C   0  0  1  0  0  3  0  0  0  0  0  0
  1 21  1  0  0  0  0
  3 17  2  0  0  0  0
  4 22  1  0  0  0  0
  5 27  1  6  0  0  0
  5 17  1  0  0  0  0
  5 24  1  0  0  0  0
  6 23  1  0  0  0  0
  6  1  1  0  0  0  0
  8  7  2  0  0  0  0
  8  2  2  0  0  0  0
  9 13  2  0  0  0  0
  9 14  1  0  0  0  0
 10  8  1  6  0  0  0
 10 28  1  0  0  0  0
 12 25  1  6  0  0  0
 12 28  1  0  0  0  0
 13 26  1  0  0  0  0
 14  8  1  0  0  0  0
 15 11  2  0  0  0  0
 15 23  1  0  0  0  0
 16  1  2  0  0  0  0
 16 20  1  0  0  0  0
 17 25  1  0  0  0  0
 18  9  1  0  0  0  0
 19 15  1  0  0  0  0
 20  4  2  0  0  0  0
 21 22  2  0  0  0  0
 24 12  1  0  0  0  0
 25 19  1  0  0  0  0
 26 24  1  0  0  0  0
 26 10  1  0  0  0  0
 28 16  1  0  0  0  0
M  END
>  <MODEL>
1

>  <REMARK>
 VINA RESULT:      -6.5      0.000      0.000
  Name = 
  0 active torsions:
  status: ('A' for Active; 'I' for Inactive)
                            x       y       z     vdW  Elec       q    Type
                         _______ _______ _______ _____ _____    ______ ____

>  <TORSDO>
F 0

$$$$
=
 OpenBabel11122411543D

 28 32  0  0  1  0  0  0  0  0999 V2000
  180.6360  180.6980  138.3260 C   0  0  0  0  0  0  0  0  0  0  0  0
  184.2600  180.4780  139.1150 O   0  0  0  0  0  0  0  0  0  0  0  0
  181.6070  175.4230  134.9440 O   0  0  0  0  0  0  0  0  0  0  0  0
  179.9290  180.2990  141.0100 C   0  0  0  0  0  3  0  0  0  0  0  0
  181.8120  175.0520  137.3350 C   0  0  2  0  0  3  0  0  0  0  0  0
  180.9230  180.9140  136.8760 C   0  0  0  0  0  2  0  0  0  0  0  0
  185.2490  178.8420  140.6650 O   0  0  0  0  0  0  0  0  0  0  0  0
  184.5890  179.0270  139.3290 S   0  0  0  0  0  0  0  0  0  0  0  0
  185.2450  177.3890  137.2410 C   0  0  0  0  0  0  0  0  0  0  0  0
  183.1180  178.0340  139.2550 C   0  0  2  0  0  3  0  0  0  0  0  0
  178.9640  178.5280  134.9070 O   0  0  0  0  0  0  0  0  0  0  0  0
  181.2330  177.3710  137.8870 C   0  0  2  0  0  3  0  0  0  0  0  0
  184.2220  176.6330  137.5170 N   0  0  0  0  0  0  0  0  0  0  0  0
  185.6360  178.4700  138.0840 N   0  0  0  0  0  2  0  0  0  0  0  0
  179.9710  179.0380  135.4630 C   0  0  0  0  0  0  0  0  0  0  0  0
  181.1490  179.5860  139.0270 C   0  0  0  0  0  0  0  0  0  0  0  0
  181.5690  175.8680  136.1230 C   0  0  0  0  0  0  0  0  0  0  0  0
  185.9900  177.1570  135.9780 C   0  0  0  0  0  1  0  0  0  0  0  0
  181.2650  178.2920  135.4590 C   0  0  0  0  0  2  0  0  0  0  0  0
  180.7740  179.3910  140.3680 C   0  0  0  0  0  3  0  0  0  0  0  0
  179.7850  181.5980  138.9760 C   0  0  0  0  0  3  0  0  0  0  0  0
  179.4370  181.4050  140.3150 C   0  0  0  0  0  3  0  0  0  0  0  0
  179.8620  180.3250  136.0730 N   0  0  0  0  0  2  0  0  0  0  0  0
  181.9710  176.1320  138.4300 C   0  0  2  0  0  3  0  0  0  0  0  0
  181.2380  177.2090  136.4360 N   0  0  0  0  0  0  0  0  0  0  0  0
  183.3960  176.6320  138.7400 C   0  0  2  0  0  3  0  0  0  0  0  0
  182.9780  174.0810  137.2000 C   0  0  0  0  0  1  0  0  0  0  0  0
  182.0410  178.5890  138.3350 C   0  0  1  0  0  3  0  0  0  0  0  0
  1 21  2  0  0  0  0
  1 16  1  0  0  0  0
  2  8  2  0  0  0  0
  3 17  2  0  0  0  0
  5 27  1  6  0  0  0
  5 24  1  0  0  0  0
  6  1  1  0  0  0  0
  8  7  2  0  0  0  0
  9 13  2  0  0  0  0
  9 14  1  0  0  0  0
 10  8  1  6  0  0  0
 11 15  2  0  0  0  0
 12 25  1  6  0  0  0
 12 28  1  0  0  0  0
 12 24  1  0  0  0  0
 13 26  1  0  0  0  0
 14  8  1  0  0  0  0
 15 23  1  0  0  0  0
 16 20  2  0  0  0  0
 17 25  1  0  0  0  0
 17  5  1  0  0  0  0
 18  9  1  0  0  0  0
 19 15  1  0  0  0  0
 19 25  1  0  0  0  0
 20  4  1  0  0  0  0
 21 22  1  0  0  0  0
 22  4  2  0  0  0  0
 23  6  1  0  0  0  0
 24 26  1  0  0  0  0
 26 10  1  0  0  0  0
 28 16  1  0  0  0  0
 28 10  1  0  0  0  0
M  END
>  <MODEL>
2

>  <REMARK>
 VINA RESULT:      -5.5      2.704      4.056
  Name = 
  0 active torsions:
  status: ('A' for Active; 'I' for Inactive)
                            x       y       z     vdW  Elec       q    Type
                         _______ _______ _______ _____ _____    ______ ____

>  <TORSDO>
F 0

$$$$
=
 OpenBabel11122411543D

 28 32  0  0  1  0  0  0  0  0999 V2000
  185.5910  175.7230  136.9130 C   0  0  0  0  0  0  0  0  0  0  0  0
  182.7460  175.1470  134.5940 O   0  0  0  0  0  0  0  0  0  0  0  0
  181.4600  179.1860  140.2520 O   0  0  0  0  0  0  0  0  0  0  0  0
  185.7140  173.0050  137.5910 C   0  0  0  0  0  3  0  0  0  0  0  0
  180.9470  176.8140  140.3020 C   0  0  2  0  0  3  0  0  0  0  0  0
  185.5940  177.1860  136.6110 C   0  0  0  0  0  2  0  0  0  0  0  0
  180.8390  173.6660  135.0720 O   0  0  0  0  0  0  0  0  0  0  0  0
  181.5110  174.9610  135.4300 S   0  0  0  0  0  0  0  0  0  0  0  0
  180.0170  177.0920  136.2630 C   0  0  0  0  0  0  0  0  0  0  0  0
  181.9210  174.9550  137.1580 C   0  0  2  0  0  3  0  0  0  0  0  0
  185.5060  179.0520  139.7600 O   0  0  0  0  0  0  0  0  0  0  0  0
  182.9170  176.2150  138.9700 C   0  0  2  0  0  3  0  0  0  0  0  0
  180.2420  176.7620  137.5020 N   0  0  0  0  0  0  0  0  0  0  0  0
  180.4230  176.2670  135.1740 N   0  0  0  0  0  2  0  0  0  0  0  0
  185.0860  178.5530  138.6840 C   0  0  0  0  0  0  0  0  0  0  0  0
  184.4280  175.0600  137.3580 C   0  0  0  0  0  0  0  0  0  0  0  0
  181.7350  178.0040  139.9090 C   0  0  0  0  0  0  0  0  0  0  0  0
  179.3710  178.3980  135.9730 C   0  0  0  0  0  1  0  0  0  0  0  0
  183.6320  178.6350  138.3560 C   0  0  0  0  0  2  0  0  0  0  0  0
  184.5090  173.7000  137.7090 C   0  0  0  0  0  3  0  0  0  0  0  0
  186.7950  175.0190  136.8040 C   0  0  0  0  0  3  0  0  0  0  0  0
  186.8570  173.6640  137.1350 C   0  0  0  0  0  3  0  0  0  0  0  0
  186.0110  177.9300  137.7900 N   0  0  0  0  0  2  0  0  0  0  0  0
  181.5110  175.7230  139.3620 C   0  0  2  0  0  3  0  0  0  0  0  0
  182.8710  177.6650  139.1360 N   0  0  0  0  0  0  0  0  0  0  0  0
  180.7900  175.4940  138.0190 C   0  0  2  0  0  3  0  0  0  0  0  0
  179.4400  177.0220  140.2310 C   0  0  0  0  0  1  0  0  0  0  0  0
  183.1300  175.8080  137.5120 C   0  0  1  0  0  3  0  0  0  0  0  0
  1 16  1  0  0  0  0
  2  8  2  0  0  0  0
  4 20  1  0  0  0  0
  5 27  1  6  0  0  0
  6  1  1  0  0  0  0
  6 23  1  0  0  0  0
  7  8  2  0  0  0  0
  9 13  2  0  0  0  0
 10  8  1  6  0  0  0
 10 28  1  0  0  0  0
 10 26  1  0  0  0  0
 12 25  1  6  0  0  0
 12 24  1  0  0  0  0
 13 26  1  0  0  0  0
 14  8  1  0  0  0  0
 14  9  1  0  0  0  0
 15 11  2  0  0  0  0
 16 28  1  0  0  0  0
 16 20  2  0  0  0  0
 17  3  2  0  0  0  0
 17  5  1  0  0  0  0
 18  9  1  0  0  0  0
 19 15  1  0  0  0  0
 19 25  1  0  0  0  0
 21  1  2  0  0  0  0
 21 22  1  0  0  0  0
 22  4  2  0  0  0  0
 23 15  1  0  0  0  0
 24  5  1  0  0  0  0
 25 17  1  0  0  0  0
 26 24  1  0  0  0  0
 28 12  1  0  0  0  0
M  END
>  <MODEL>
3

>  <REMARK>
 VINA RESULT:      -5.4      2.748      6.206
  Name = 
  0 active torsions:
  status: ('A' for Active; 'I' for Inactive)
                            x       y       z     vdW  Elec       q    Type
                         _______ _______ _______ _____ _____    ______ ____

>  <TORSDO>
F 0

$$$$
=
 OpenBabel11122411543D

 28 32  0  0  1  0  0  0  0  0999 V2000
  185.6520  176.9210  137.4660 C   0  0  0  0  0  0  0  0  0  0  0  0
  183.0700  177.4790  134.8530 O   0  0  0  0  0  0  0  0  0  0  0  0
  181.3710  179.3720  141.4500 O   0  0  0  0  0  0  0  0  0  0  0  0
  185.5330  174.1410  137.1270 C   0  0  0  0  0  3  0  0  0  0  0  0
  180.7160  177.1960  140.5960 C   0  0  2  0  0  3  0  0  0  0  0  0
  185.7770  178.3900  137.7130 C   0  0  0  0  0  2  0  0  0  0  0  0
  181.0350  176.1170  134.5950 O   0  0  0  0  0  0  0  0  0  0  0  0
  181.7360  177.1320  135.4540 S   0  0  0  0  0  0  0  0  0  0  0  0
  180.2840  178.9680  136.8640 C   0  0  0  0  0  0  0  0  0  0  0  0
  181.9390  176.4780  137.0930 C   0  0  2  0  0  3  0  0  0  0  0  0
  185.4320  179.0270  141.3020 O   0  0  0  0  0  0  0  0  0  0  0  0
  182.7900  176.9160  139.3170 C   0  0  2  0  0  3  0  0  0  0  0  0
  180.3420  178.2030  137.9150 N   0  0  0  0  0  0  0  0  0  0  0  0
  180.7660  178.5440  135.5910 N   0  0  0  0  0  2  0  0  0  0  0  0
  185.1120  178.9820  140.0860 C   0  0  0  0  0  0  0  0  0  0  0  0
  184.4080  176.2610  137.5380 C   0  0  0  0  0  0  0  0  0  0  0  0
  181.6130  178.3660  140.7300 C   0  0  0  0  0  0  0  0  0  0  0  0
  179.7560  180.3490  137.0080 C   0  0  0  0  0  1  0  0  0  0  0  0
  183.7140  179.3160  139.6830 C   0  0  0  0  0  2  0  0  0  0  0  0
  184.3660  174.8640  137.3810 C   0  0  0  0  0  3  0  0  0  0  0  0
  186.8170  176.1870  137.2180 C   0  0  0  0  0  3  0  0  0  0  0  0
  186.7590  174.8030  137.0420 C   0  0  0  0  0  3  0  0  0  0  0  0
  186.0960  178.6260  139.1130 N   0  0  0  0  0  2  0  0  0  0  0  0
  181.3210  176.4570  139.3800 C   0  0  2  0  0  3  0  0  0  0  0  0
  182.8110  178.2120  139.9900 N   0  0  0  0  0  0  0  0  0  0  0  0
  180.7500  176.7870  137.9860 C   0  0  2  0  0  3  0  0  0  0  0  0
  179.2420  177.5620  140.4720 C   0  0  0  0  0  1  0  0  0  0  0  0
  183.1470  177.0290  137.8350 C   0  0  1  0  0  3  0  0  0  0  0  0
  1 16  1  0  0  0  0
  1  6  1  0  0  0  0
  2  8  2  0  0  0  0
  4 20  1  0  0  0  0
  5 27  1  6  0  0  0
  5 17  1  0  0  0  0
  6 23  1  0  0  0  0
  7  8  2  0  0  0  0
  8 14  1  0  0  0  0
  9 18  1  0  0  0  0
  9 13  2  0  0  0  0
 10  8  1  6  0  0  0
 10 28  1  0  0  0  0
 10 26  1  0  0  0  0
 12 24  1  0  0  0  0
 12 25  1  1  0  0  0
 13 26  1  0  0  0  0
 14  9  1  0  0  0  0
 15 11  2  0  0  0  0
 16 28  1  0  0  0  0
 17  3  2  0  0  0  0
 19 25  1  0  0  0  0
 19 15  1  0  0  0  0
 20 16  2  0  0  0  0
 21  1  2  0  0  0  0
 22  4  2  0  0  0  0
 22 21  1  0  0  0  0
 23 15  1  0  0  0  0
 24  5  1  0  0  0  0
 25 17  1  0  0  0  0
 26 24  1  0  0  0  0
 28 12  1  0  0  0  0
M  END
>  <MODEL>
4

>  <REMARK>
 VINA RESULT:      -5.3      2.552      5.789
  Name = 
  0 active torsions:
  status: ('A' for Active; 'I' for Inactive)
                            x       y       z     vdW  Elec       q    Type
                         _______ _______ _______ _____ _____    ______ ____

>  <TORSDO>
F 0

$$$$
=
 OpenBabel11122411543D

 28 32  0  0  1  0  0  0  0  0999 V2000
  184.2470  175.9190  135.6440 C   0  0  0  0  0  0  0  0  0  0  0  0
  181.1320  177.9110  135.2810 O   0  0  0  0  0  0  0  0  0  0  0  0
  185.3050  179.5130  140.7590 O   0  0  0  0  0  0  0  0  0  0  0  0
  182.8010  173.5620  136.1020 C   0  0  0  0  0  3  0  0  0  0  0  0
  183.4320  177.9970  141.0520 C   0  0  2  0  0  3  0  0  0  0  0  0
  185.0950  177.1270  135.4100 C   0  0  0  0  0  2  0  0  0  0  0  0
  179.1470  177.6620  136.7160 O   0  0  0  0  0  0  0  0  0  0  0  0
  180.5730  178.1320  136.6590 S   0  0  0  0  0  0  0  0  0  0  0  0
  181.3850  180.2300  138.2100 C   0  0  0  0  0  0  0  0  0  0  0  0
  181.5310  177.2550  137.8700 C   0  0  2  0  0  3  0  0  0  0  0  0
  187.5590  177.3900  138.1060 O   0  0  0  0  0  0  0  0  0  0  0  0
  183.7310  176.9740  138.8430 C   0  0  2  0  0  3  0  0  0  0  0  0
  181.8130  179.3960  139.1120 N   0  0  0  0  0  0  0  0  0  0  0  0
  180.6500  179.8000  137.0670 N   0  0  0  0  0  2  0  0  0  0  0  0
  186.5260  177.6490  137.4360 C   0  0  0  0  0  0  0  0  0  0  0  0
  183.2580  175.8890  136.6490 C   0  0  0  0  0  0  0  0  0  0  0  0
  184.5550  178.6070  140.3050 C   0  0  0  0  0  0  0  0  0  0  0  0
  181.7260  181.6700  138.3440 C   0  0  0  0  0  1  0  0  0  0  0  0
  185.5330  178.6280  137.9700 C   0  0  0  0  0  2  0  0  0  0  0  0
  182.5520  174.6960  136.8780 C   0  0  0  0  0  3  0  0  0  0  0  0
  184.4940  174.7760  134.8760 C   0  0  0  0  0  3  0  0  0  0  0  0
  183.7700  173.6020  135.0990 C   0  0  0  0  0  3  0  0  0  0  0  0
  186.3300  177.0140  136.1710 N   0  0  0  0  0  2  0  0  0  0  0  0
  182.6810  177.2250  139.9420 C   0  0  2  0  0  3  0  0  0  0  0  0
  184.7300  178.0230  139.0270 N   0  0  0  0  0  0  0  0  0  0  0  0
  181.5280  177.9520  139.2210 C   0  0  2  0  0  3  0  0  0  0  0  0
  182.5930  179.0020  141.8310 C   0  0  0  0  0  1  0  0  0  0  0  0
  183.0000  177.1000  137.5060 C   0  0  1  0  0  3  0  0  0  0  0  0
  1 16  1  0  0  0  0
  2  8  2  0  0  0  0
  4 20  1  0  0  0  0
  5 27  1  6  0  0  0
  6  1  1  0  0  0  0
  6 23  1  0  0  0  0
  8  7  2  0  0  0  0
  8 14  1  0  0  0  0
  9 18  1  0  0  0  0
  9 13  2  0  0  0  0
 10  8  1  6  0  0  0
 10 26  1  0  0  0  0
 12 25  1  6  0  0  0
 12 24  1  0  0  0  0
 13 26  1  0  0  0  0
 14  9  1  0  0  0  0
 15 19  1  0  0  0  0
 15 11  2  0  0  0  0
 16 20  2  0  0  0  0
 16 28  1  0  0  0  0
 17  3  2  0  0  0  0
 17  5  1  0  0  0  0
 19 25  1  0  0  0  0
 21 22  1  0  0  0  0
 21  1  2  0  0  0  0
 22  4  2  0  0  0  0
 23 15  1  0  0  0  0
 24  5  1  0  0  0  0
 25 17  1  0  0  0  0
 26 24  1  0  0  0  0
 28 10  1  0  0  0  0
 28 12  1  0  0  0  0
M  END
>  <MODEL>
5

>  <REMARK>
 VINA RESULT:      -5.1      2.795      6.156
  Name = 
  0 active torsions:
  status: ('A' for Active; 'I' for Inactive)
                            x       y       z     vdW  Elec       q    Type
                         _______ _______ _______ _____ _____    ______ ____

>  <TORSDO>
F 0

$$$$
=
 OpenBabel11122411543D

 28 32  0  0  1  0  0  0  0  0999 V2000
  185.1880  174.8040  136.0440 C   0  0  0  0  0  0  0  0  0  0  0  0
  181.8360  175.7840  134.7760 O   0  0  0  0  0  0  0  0  0  0  0  0
  184.5560  179.7530  139.9560 O   0  0  0  0  0  0  0  0  0  0  0  0
  184.2130  172.3620  137.0170 C   0  0  0  0  0  3  0  0  0  0  0  0
  183.0210  177.9460  140.4790 C   0  0  2  0  0  3  0  0  0  0  0  0
  185.7910  176.0830  135.5580 C   0  0  0  0  0  2  0  0  0  0  0  0
  179.7290  175.4270  135.9960 O   0  0  0  0  0  0  0  0  0  0  0  0
  181.0110  176.2080  135.9590 S   0  0  0  0  0  0  0  0  0  0  0  0
  181.0800  178.7730  136.9010 C   0  0  0  0  0  0  0  0  0  0  0  0
  181.9060  175.9470  137.4710 C   0  0  2  0  0  3  0  0  0  0  0  0
  187.6340  177.6490  138.3060 O   0  0  0  0  0  0  0  0  0  0  0  0
  183.9100  176.4910  138.7150 C   0  0  2  0  0  3  0  0  0  0  0  0
  181.5090  178.3370  138.0490 N   0  0  0  0  0  0  0  0  0  0  0  0
  180.6640  177.8890  135.8630 N   0  0  0  0  0  2  0  0  0  0  0  0
  186.7030  177.4560  137.4820 C   0  0  0  0  0  0  0  0  0  0  0  0
  184.0680  174.7900  136.9000 C   0  0  0  0  0  0  0  0  0  0  0  0
  184.1040  178.6020  139.7110 C   0  0  0  0  0  0  0  0  0  0  0  0
  181.0820  180.2350  136.6400 C   0  0  0  0  0  1  0  0  0  0  0  0
  185.4490  178.2580  137.5940 C   0  0  0  0  0  2  0  0  0  0  0  0
  183.5990  173.5590  137.3920 C   0  0  0  0  0  3  0  0  0  0  0  0
  185.8000  173.6000  135.6780 C   0  0  0  0  0  3  0  0  0  0  0  0
  185.3120  172.3820  136.1570 C   0  0  0  0  0  3  0  0  0  0  0  0
  186.8700  176.4850  136.4480 N   0  0  0  0  0  2  0  0  0  0  0  0
  182.6550  176.7480  139.5710 C   0  0  2  0  0  3  0  0  0  0  0  0
  184.6190  177.7680  138.6890 N   0  0  0  0  0  0  0  0  0  0  0  0
  181.5200  176.9480  138.5470 C   0  0  2  0  0  3  0  0  0  0  0  0
  181.8670  178.8750  140.8320 C   0  0  0  0  0  1  0  0  0  0  0  0
  183.4150  176.0770  137.3290 C   0  0  1  0  0  3  0  0  0  0  0  0
  1 16  1  0  0  0  0
  2  8  2  0  0  0  0
  4 20  1  0  0  0  0
  5 27  1  6  0  0  0
  6  1  1  0  0  0  0
  6 23  1  0  0  0  0
  8  7  2  0  0  0  0
  9 13  2  0  0  0  0
 10  8  1  6  0  0  0
 10 26  1  0  0  0  0
 12 25  1  6  0  0  0
 12 24  1  0  0  0  0
 13 26  1  0  0  0  0
 14  8  1  0  0  0  0
 14  9  1  0  0  0  0
 15 19  1  0  0  0  0
 15 11  2  0  0  0  0
 16 28  1  0  0  0  0
 16 20  2  0  0  0  0
 17  3  2  0  0  0  0
 17  5  1  0  0  0  0
 18  9  1  0  0  0  0
 19 25  1  0  0  0  0
 21  1  2  0  0  0  0
 21 22  1  0  0  0  0
 22  4  2  0  0  0  0
 23 15  1  0  0  0  0
 24  5  1  0  0  0  0
 25 17  1  0  0  0  0
 26 24  1  0  0  0  0
 28 10  1  0  0  0  0
 28 12  1  0  0  0  0
M  END
>  <MODEL>
6

>  <REMARK>
 VINA RESULT:      -5.0      2.714      6.425
  Name = 
  0 active torsions:
  status: ('A' for Active; 'I' for Inactive)
                            x       y       z     vdW  Elec       q    Type
                         _______ _______ _______ _____ _____    ______ ____

>  <TORSDO>
F 0

$$$$
=
 OpenBabel11122411543D

 28 32  0  0  1  0  0  0  0  0999 V2000
  182.6230  176.2770  138.3010 C   0  0  0  0  0  0  0  0  0  0  0  0
  184.6580  173.2070  137.8130 O   0  0  0  0  0  0  0  0  0  0  0  0
  188.0040  179.3870  137.0500 O   0  0  0  0  0  0  0  0  0  0  0  0
  181.0230  175.6870  136.0760 C   0  0  0  0  0  3  0  0  0  0  0  0
  187.1210  178.2280  135.1080 C   0  0  2  0  0  3  0  0  0  0  0  0
  183.4270  176.6680  139.4990 C   0  0  0  0  0  2  0  0  0  0  0  0
  185.4320  172.3840  135.6260 O   0  0  0  0  0  0  0  0  0  0  0  0
  185.5910  173.4600  136.6620 S   0  0  0  0  0  0  0  0  0  0  0  0
  188.0200  174.6570  137.0300 C   0  0  0  0  0  0  0  0  0  0  0  0
  185.2590  175.0420  135.9250 C   0  0  2  0  0  3  0  0  0  0  0  0
  184.5560  180.1280  139.0950 O   0  0  0  0  0  0  0  0  0  0  0  0
  185.1380  177.4290  136.3110 C   0  0  2  0  0  3  0  0  0  0  0  0
  187.6600  175.6260  136.2400 N   0  0  0  0  0  0  0  0  0  0  0  0
  187.2170  173.4940  137.2170 N   0  0  0  0  0  2  0  0  0  0  0  0
  184.6210  178.8720  139.1220 C   0  0  0  0  0  0  0  0  0  0  0  0
  183.2290  176.0110  137.0560 C   0  0  0  0  0  0  0  0  0  0  0  0
  187.1200  178.6590  136.5250 C   0  0  0  0  0  0  0  0  0  0  0  0
  189.2770  174.7940  137.8090 C   0  0  0  0  0  1  0  0  0  0  0  0
  185.8760  178.1940  138.6810 C   0  0  0  0  0  2  0  0  0  0  0  0
  182.4130  175.7310  135.9450 C   0  0  0  0  0  3  0  0  0  0  0  0
  181.2300  176.2360  138.4210 C   0  0  0  0  0  3  0  0  0  0  0  0
  180.4310  175.9360  137.3150 C   0  0  0  0  0  3  0  0  0  0  0  0
  183.5000  178.1190  139.5880 N   0  0  0  0  0  2  0  0  0  0  0  0
  186.0410  177.1210  135.1010 C   0  0  2  0  0  3  0  0  0  0  0  0
  185.9790  178.1970  137.2260 N   0  0  0  0  0  0  0  0  0  0  0  0
  186.5050  175.6680  135.3220 C   0  0  2  0  0  3  0  0  0  0  0  0
  188.4920  177.8070  134.5940 C   0  0  0  0  0  1  0  0  0  0  0  0
  184.7250  176.0810  136.9000 C   0  0  1  0  0  3  0  0  0  0  0  0
  1 21  1  0  0  0  0
  1  6  1  0  0  0  0
  4 22  1  0  0  0  0
  5 27  1  1  0  0  0
  5 17  1  0  0  0  0
  6 23  1  0  0  0  0
  7  8  2  0  0  0  0
  8 14  1  0  0  0  0
  8  2  2  0  0  0  0
  9 14  1  0  0  0  0
  9 18  1  0  0  0  0
 10  8  1  1  0  0  0
 10 28  1  0  0  0  0
 11 15  2  0  0  0  0
 12 28  1  0  0  0  0
 12 25  1  1  0  0  0
 13  9  2  0  0  0  0
 15 23  1  0  0  0  0
 16  1  2  0  0  0  0
 17  3  2  0  0  0  0
 17 25  1  0  0  0  0
 19 15  1  0  0  0  0
 20  4  2  0  0  0  0
 20 16  1  0  0  0  0
 22 21  2  0  0  0  0
 24  5  1  0  0  0  0
 24 26  1  0  0  0  0
 24 12  1  0  0  0  0
 25 19  1  0  0  0  0
 26 10  1  0  0  0  0
 26 13  1  0  0  0  0
 28 16  1  0  0  0  0
M  END
>  <MODEL>
7

>  <REMARK>
 VINA RESULT:      -4.8      3.786      6.798
  Name = 
  0 active torsions:
  status: ('A' for Active; 'I' for Inactive)
                            x       y       z     vdW  Elec       q    Type
                         _______ _______ _______ _____ _____    ______ ____

>  <TORSDO>
F 0

$$$$
=
 OpenBabel11122411543D

 28 32  0  0  1  0  0  0  0  0999 V2000
  190.1480  174.6340  136.5500 C   0  0  0  0  0  0  0  0  0  0  0  0
  189.6110  177.7420  138.5140 O   0  0  0  0  0  0  0  0  0  0  0  0
  183.8550  174.6770  135.7830 O   0  0  0  0  0  0  0  0  0  0  0  0
  191.6130  176.0080  134.5940 C   0  0  0  0  0  3  0  0  0  0  0  0
  184.9540  176.4880  134.5980 C   0  0  2  0  0  3  0  0  0  0  0  0
  189.3790  173.8250  137.5440 C   0  0  0  0  0  2  0  0  0  0  0  0
  189.0560  179.9290  137.5310 O   0  0  0  0  0  0  0  0  0  0  0  0
  188.5500  178.5430  137.8120 S   0  0  0  0  0  0  0  0  0  0  0  0
  185.8930  178.1280  138.2970 C   0  0  0  0  0  0  0  0  0  0  0  0
  188.0860  177.7640  136.2850 C   0  0  2  0  0  3  0  0  0  0  0  0
  186.8260  171.8850  135.7770 O   0  0  0  0  0  0  0  0  0  0  0  0
  187.1970  175.7550  135.2670 C   0  0  2  0  0  3  0  0  0  0  0  0
  185.7150  177.8190  137.0450 N   0  0  0  0  0  0  0  0  0  0  0  0
  187.1350  178.6280  138.7840 N   0  0  0  0  0  2  0  0  0  0  0  0
  187.3160  172.7980  136.4900 C   0  0  0  0  0  0  0  0  0  0  0  0
  189.5970  175.7790  135.9390 C   0  0  0  0  0  0  0  0  0  0  0  0
  184.9100  175.2870  135.4620 C   0  0  0  0  0  0  0  0  0  0  0  0
  184.7860  177.8940  139.2590 C   0  0  0  0  0  1  0  0  0  0  0  0
  186.4420  173.9210  136.9440 C   0  0  0  0  0  2  0  0  0  0  0  0
  190.3370  176.4490  134.9490 C   0  0  0  0  0  3  0  0  0  0  0  0
  191.4260  174.1960  136.1840 C   0  0  0  0  0  3  0  0  0  0  0  0
  192.1590  174.8820  135.2140 C   0  0  0  0  0  3  0  0  0  0  0  0
  188.6930  172.7370  136.8640 N   0  0  0  0  0  2  0  0  0  0  0  0
  186.4010  176.9920  134.8090 C   0  0  2  0  0  3  0  0  0  0  0  0
  186.2020  174.8610  135.8550 N   0  0  0  0  0  0  0  0  0  0  0  0
  186.6380  178.0390  135.9150 C   0  0  2  0  0  3  0  0  0  0  0  0
  183.8580  177.5030  134.8980 C   0  0  0  0  0  1  0  0  0  0  0  0
  188.2110  176.2480  136.2990 C   0  0  1  0  0  3  0  0  0  0  0  0
  1  6  1  0  0  0  0
  4 20  2  0  0  0  0
  4 22  1  0  0  0  0
  5 24  1  0  0  0  0
  5 27  1  1  0  0  0
  5 17  1  0  0  0  0
  7  8  2  0  0  0  0
  8  2  2  0  0  0  0
  8 14  1  0  0  0  0
  9 14  1  0  0  0  0
  9 18  1  0  0  0  0
 10 28  1  0  0  0  0
 10  8  1  1  0  0  0
 11 15  2  0  0  0  0
 12 25  1  1  0  0  0
 12 28  1  0  0  0  0
 13  9  2  0  0  0  0
 15 23  1  0  0  0  0
 15 19  1  0  0  0  0
 16 28  1  0  0  0  0
 16  1  2  0  0  0  0
 17  3  2  0  0  0  0
 17 25  1  0  0  0  0
 20 16  1  0  0  0  0
 21  1  1  0  0  0  0
 22 21  2  0  0  0  0
 23  6  1  0  0  0  0
 24 12  1  0  0  0  0
 24 26  1  0  0  0  0
 25 19  1  0  0  0  0
 26 10  1  0  0  0  0
 26 13  1  0  0  0  0
M  END
>  <MODEL>
8

>  <REMARK>
 VINA RESULT:      -4.7      5.325      8.448
  Name = 
  0 active torsions:
  status: ('A' for Active; 'I' for Inactive)
                            x       y       z     vdW  Elec       q    Type
                         _______ _______ _______ _____ _____    ______ ____

>  <TORSDO>
F 0

$$$$
=
 OpenBabel11122411543D

 28 32  0  0  1  0  0  0  0  0999 V2000
  181.0310  178.3290  137.2870 C   0  0  0  0  0  0  0  0  0  0  0  0
  180.8540  174.6680  136.6780 O   0  0  0  0  0  0  0  0  0  0  0  0
  187.2770  177.3860  137.8350 O   0  0  0  0  0  0  0  0  0  0  0  0
  180.1180  178.9020  134.7000 C   0  0  0  0  0  3  0  0  0  0  0  0
  186.4780  177.0630  135.5660 C   0  0  2  0  0  3  0  0  0  0  0  0
  181.5240  178.1140  138.6820 C   0  0  0  0  0  2  0  0  0  0  0  0
  181.5660  173.5700  134.5940 O   0  0  0  0  0  0  0  0  0  0  0  0
  182.0330  174.2940  135.8230 S   0  0  0  0  0  0  0  0  0  0  0  0
  184.4610  173.6950  136.9260 C   0  0  0  0  0  0  0  0  0  0  0  0
  182.9430  175.7430  135.3460 C   0  0  2  0  0  3  0  0  0  0  0  0
  184.5560  180.1030  139.1920 O   0  0  0  0  0  0  0  0  0  0  0  0
  184.1720  177.6710  136.1400 C   0  0  2  0  0  3  0  0  0  0  0  0
  184.9980  174.6860  136.2740 N   0  0  0  0  0  0  0  0  0  0  0  0
  183.1100  173.2930  136.7120 N   0  0  0  0  0  2  0  0  0  0  0  0
  183.8440  179.0840  138.9950 C   0  0  0  0  0  0  0  0  0  0  0  0
  181.6810  177.7580  136.1740 C   0  0  0  0  0  0  0  0  0  0  0  0
  186.3290  177.3810  137.0040 C   0  0  0  0  0  0  0  0  0  0  0  0
  185.2600  173.0030  137.9680 C   0  0  0  0  0  1  0  0  0  0  0  0
  184.5040  177.7740  138.7140 C   0  0  0  0  0  2  0  0  0  0  0  0
  181.2220  178.0660  134.8820 C   0  0  0  0  0  3  0  0  0  0  0  0
  179.9300  179.1710  137.0940 C   0  0  0  0  0  3  0  0  0  0  0  0
  179.4700  179.4530  135.8060 C   0  0  0  0  0  3  0  0  0  0  0  0
  182.4220  179.1960  139.0570 N   0  0  0  0  0  2  0  0  0  0  0  0
  185.0090  176.8800  135.1170 C   0  0  2  0  0  3  0  0  0  0  0  0
  184.9990  177.7290  137.3430 N   0  0  0  0  0  0  0  0  0  0  0  0
  184.4230  175.4550  135.1540 C   0  0  2  0  0  3  0  0  0  0  0  0
  187.3980  175.8810  135.2880 C   0  0  0  0  0  1  0  0  0  0  0  0
  182.8870  176.8740  136.3610 C   0  0  1  0  0  3  0  0  0  0  0  0
  1  6  1  0  0  0  0
  4 20  2  0  0  0  0
  4 22  1  0  0  0  0
  5 27  1  1  0  0  0
  5 17  1  0  0  0  0
  6 23  1  0  0  0  0
  7  8  2  0  0  0  0
  8  2  2  0  0  0  0
  8 14  1  0  0  0  0
  9 18  1  0  0  0  0
 10  8  1  1  0  0  0
 10 28  1  0  0  0  0
 12 28  1  0  0  0  0
 12 25  1  1  0  0  0
 13  9  2  0  0  0  0
 14  9  1  0  0  0  0
 15 23  1  0  0  0  0
 15 11  2  0  0  0  0
 16 28  1  0  0  0  0
 16  1  2  0  0  0  0
 17 25  1  0  0  0  0
 17  3  2  0  0  0  0
 19 15  1  0  0  0  0
 20 16  1  0  0  0  0
 21  1  1  0  0  0  0
 22 21  2  0  0  0  0
 24 26  1  0  0  0  0
 24  5  1  0  0  0  0
 24 12  1  0  0  0  0
 25 19  1  0  0  0  0
 26 10  1  0  0  0  0
 26 13  1  0  0  0  0
M  END
>  <MODEL>
9

>  <REMARK>
 VINA RESULT:      -4.7      3.341      6.044
  Name = 
  0 active torsions:
  status: ('A' for Active; 'I' for Inactive)
                            x       y       z     vdW  Elec       q    Type
                         _______ _______ _______ _____ _____    ______ ____

>  <TORSDO>
F 0

$$$$
