=
 OpenBabel11122412283D

 34 40  0  0  1  0  0  0  0  0999 V2000
  189.8070  177.4280  140.2920 C   0  0  1  0  0  3  0  0  0  0  0  0
  191.6750  176.5870  138.7840 C   0  0  0  0  0  2  0  0  0  0  0  0
  183.5540  178.2640  141.0620 C   0  0  0  0  0  0  0  0  0  0  0  0
  187.8840  178.1510  141.6810 C   0  0  2  0  0  3  0  0  0  0  0  0
  185.9050  178.9760  140.3780 C   0  0  2  0  0  3  0  0  0  0  0  0
  183.8890  179.6720  138.9620 C   0  0  0  0  0  1  0  0  0  0  0  0
  183.0420  177.2230  140.4030 C   0  0  0  0  0  2  0  0  0  0  0  0
  184.4480  179.3180  143.1730 C   0  0  0  0  0  2  0  0  0  0  0  0
  189.6360  177.4280  137.8190 C   0  0  2  0  0  3  0  0  0  0  0  0
  188.1040  176.2560  135.2150 C   0  0  0  0  0  2  0  0  0  0  0  0
  186.2510  178.1300  139.3030 O   0  0  0  0  0  0  0  0  0  0  0  0
  185.9610  179.1300  142.9700 C   0  0  0  0  0  2  0  0  0  0  0  0
  188.0960  177.5140  137.8670 C   0  0  1  0  0  3  0  0  0  0  0  0
  191.8990  176.1260  137.0340 S   0  0  0  0  0  0  0  0  0  0  0  0
  186.3680  178.3380  141.7180 C   0  0  2  0  0  3  0  0  0  0  0  0
  183.5850  178.2030  142.5680 C   0  0  0  0  0  2  0  0  0  0  0  0
  189.3560  175.6850  135.9080 C   0  0  1  0  0  3  0  0  0  0  0  0
  188.2830  177.4620  140.3770 C   0  0  1  0  0  3  0  0  0  0  0  0
  184.4000  179.2930  140.3470 C   0  0  1  0  0  3  0  0  0  0  0  0
  187.6530  178.1830  139.1760 C   0  0  2  0  0  3  0  0  0  0  0  0
  189.7370  177.4440  142.7830 C   0  0  0  0  0  2  0  0  0  0  0  0
  187.9760  177.7800  135.2960 C   0  0  0  0  0  2  0  0  0  0  0  0
  188.3270  177.3650  142.7640 O   0  0  0  0  0  0  0  0  0  0  0  0
  187.5040  178.2720  136.6700 C   0  0  0  0  0  2  0  0  0  0  0  0
  190.2430  176.7580  136.5850 C   0  0  1  0  0  3  0  0  0  0  0  0
  190.3400  176.7480  141.5530 C   0  0  0  0  0  2  0  0  0  0  0  0
  190.1860  176.6840  139.0180 C   0  0  2  0  0  3  0  0  0  0  0  0
  188.9290  174.5600  136.8470 C   0  0  0  0  0  2  0  0  0  0  0  0
  188.5180  173.4420  136.1190 O   0  0  0  0  0  0  0  0  0  0  0  0
  185.4030  173.3170  137.5300 C   0  0  0  0  0  2  0  0  0  0  0  0
  186.6420  171.9850  136.0090 C   0  0  0  0  0  2  0  0  0  0  0  0
  187.4870  172.8870  136.8770 C   0  0  2  0  0  3  0  0  0  0  0  0
  185.2400  172.2610  136.4620 C   0  0  0  0  0  2  0  0  0  0  0  0
  186.6670  173.9060  137.3840 O   0  0  0  0  0  0  0  0  0  0  0  0
  1 18  1  0  0  0  0
  1 26  1  1  0  0  0
  2 27  1  0  0  0  0
  3 16  1  0  0  0  0
  4 15  1  0  0  0  0
  4 23  1  1  0  0  0
  5 11  1  6  0  0  0
  5 15  1  0  0  0  0
  6 19  1  0  0  0  0
  7  3  2  0  0  0  0
  9 13  1  0  0  0  0
  9 27  1  0  0  0  0
 10 22  1  0  0  0  0
 10 17  1  0  0  0  0
 12  8  1  0  0  0  0
 13 20  1  0  0  0  0
 14  2  1  0  0  0  0
 15 12  1  0  0  0  0
 16  8  1  0  0  0  0
 17 25  1  0  0  0  0
 17 28  1  0  0  0  0
 18  4  1  0  0  0  0
 19  5  1  0  0  0  0
 19  3  1  0  0  0  0
 20 11  1  0  0  0  0
 20 18  1  0  0  0  0
 22 24  1  0  0  0  0
 23 21  1  0  0  0  0
 24 13  1  0  0  0  0
 25 14  1  0  0  0  0
 25  9  1  0  0  0  0
 26 21  1  0  0  0  0
 27  1  1  0  0  0  0
 29 28  1  0  0  0  0
 29 32  1  0  0  0  0
 31 33  1  0  0  0  0
 31 32  1  0  0  0  0
 32 34  1  0  0  0  0
 33 30  1  0  0  0  0
 34 30  1  0  0  0  0
M  END
>  <MODEL>
1

>  <REMARK>
 VINA RESULT:      -7.7      0.000      0.000
  Name = 
  3 active torsions:
  status: ('A' for Active; 'I' for Inactive)
    1  A    between atoms: C_17  and  C_28
    2  A    between atoms: C_28  and  O_29
    3  A    between atoms: O_29  and  C_32
                            x       y       z     vdW  Elec       q    Type
                         _______ _______ _______ _____ _____    ______ ____

>  <TORSDO>
F 3

$$$$
=
 OpenBabel11122412283D

 34 40  0  0  1  0  0  0  0  0999 V2000
  189.6940  177.4950  141.2840 C   0  0  1  0  0  3  0  0  0  0  0  0
  191.8190  176.7930  140.0750 C   0  0  0  0  0  2  0  0  0  0  0  0
  183.3860  178.2170  140.9840 C   0  0  0  0  0  0  0  0  0  0  0  0
  187.5380  178.0880  142.3580 C   0  0  2  0  0  3  0  0  0  0  0  0
  185.8050  179.0010  140.7900 C   0  0  2  0  0  3  0  0  0  0  0  0
  184.0580  179.7920  139.0940 C   0  0  0  0  0  1  0  0  0  0  0  0
  183.0230  177.2290  140.1650 C   0  0  0  0  0  2  0  0  0  0  0  0
  183.8670  179.1050  143.2960 C   0  0  0  0  0  2  0  0  0  0  0  0
  189.9660  177.6930  138.8280 C   0  0  2  0  0  3  0  0  0  0  0  0
  188.9480  176.7220  135.9090 C   0  0  0  0  0  2  0  0  0  0  0  0
  186.3550  178.2470  139.7310 O   0  0  0  0  0  0  0  0  0  0  0  0
  185.3960  178.9450  143.3540 C   0  0  0  0  0  2  0  0  0  0  0  0
  188.4410  177.7620  138.6050 C   0  0  1  0  0  3  0  0  0  0  0  0
  192.3610  176.4750  138.3630 S   0  0  0  0  0  0  0  0  0  0  0  0
  186.0360  178.2600  142.1370 C   0  0  2  0  0  3  0  0  0  0  0  0
  183.1500  178.0350  142.4620 C   0  0  0  0  0  2  0  0  0  0  0  0
  190.0690  176.1060  136.7680 C   0  0  1  0  0  3  0  0  0  0  0  0
  188.1780  177.5100  141.0970 C   0  0  1  0  0  3  0  0  0  0  0  0
  184.3240  179.3070  140.5140 C   0  0  1  0  0  3  0  0  0  0  0  0
  187.7560  178.3200  139.8620 C   0  0  2  0  0  3  0  0  0  0  0  0
  189.1810  177.3100  143.7150 C   0  0  0  0  0  2  0  0  0  0  0  0
  188.7740  178.2330  136.0840 C   0  0  0  0  0  2  0  0  0  0  0  0
  187.7990  177.2210  143.4380 O   0  0  0  0  0  0  0  0  0  0  0  0
  188.0540  178.6090  137.3840 C   0  0  0  0  0  2  0  0  0  0  0  0
  190.7970  177.1290  137.6740 C   0  0  1  0  0  3  0  0  0  0  0  0
  190.0090  176.7200  142.5640 C   0  0  0  0  0  2  0  0  0  0  0  0
  190.3090  176.8580  140.0450 C   0  0  2  0  0  3  0  0  0  0  0  0
  189.5060  174.9070  137.5250 C   0  0  0  0  0  2  0  0  0  0  0  0
  190.4530  173.8830  137.5950 O   0  0  0  0  0  0  0  0  0  0  0  0
  191.9850  172.2160  135.0280 C   0  0  0  0  0  2  0  0  0  0  0  0
  189.7590  172.8130  135.5870 C   0  0  0  0  0  2  0  0  0  0  0  0
  190.8170  173.6490  136.2680 C   0  0  2  0  0  3  0  0  0  0  0  0
  190.5450  171.8610  134.7380 C   0  0  0  0  0  2  0  0  0  0  0  0
  192.0300  172.9460  136.2250 O   0  0  0  0  0  0  0  0  0  0  0  0
  1 26  1  1  0  0  0
  3 16  1  0  0  0  0
  4 23  1  1  0  0  0
  5 11  1  6  0  0  0
  5 15  1  0  0  0  0
  6 19  1  0  0  0  0
  7  3  2  0  0  0  0
  8 12  1  0  0  0  0
  9 27  1  0  0  0  0
 10 22  1  0  0  0  0
 10 17  1  0  0  0  0
 11 20  1  0  0  0  0
 13  9  1  0  0  0  0
 13 20  1  0  0  0  0
 14  2  1  0  0  0  0
 15  4  1  0  0  0  0
 15 12  1  0  0  0  0
 16  8  1  0  0  0  0
 17 28  1  0  0  0  0
 17 25  1  0  0  0  0
 18  1  1  0  0  0  0
 18  4  1  0  0  0  0
 19  5  1  0  0  0  0
 19  3  1  0  0  0  0
 20 18  1  0  0  0  0
 22 24  1  0  0  0  0
 23 21  1  0  0  0  0
 24 13  1  0  0  0  0
 25 14  1  0  0  0  0
 25  9  1  0  0  0  0
 26 21  1  0  0  0  0
 27  2  1  0  0  0  0
 27  1  1  0  0  0  0
 28 29  1  0  0  0  0
 30 34  1  0  0  0  0
 31 32  1  0  0  0  0
 32 29  1  0  0  0  0
 33 30  1  0  0  0  0
 33 31  1  0  0  0  0
 34 32  1  0  0  0  0
M  END
>  <MODEL>
2

>  <REMARK>
 VINA RESULT:      -7.5      1.704      2.197
  Name = 
  3 active torsions:
  status: ('A' for Active; 'I' for Inactive)
    1  A    between atoms: C_17  and  C_28
    2  A    between atoms: C_28  and  O_29
    3  A    between atoms: O_29  and  C_32
                            x       y       z     vdW  Elec       q    Type
                         _______ _______ _______ _____ _____    ______ ____

>  <TORSDO>
F 3

$$$$
=
 OpenBabel11122412283D

 34 40  0  0  1  0  0  0  0  0999 V2000
  191.4400  176.9600  138.2640 C   0  0  1  0  0  3  0  0  0  0  0  0
  191.4200  176.1900  135.8390 C   0  0  0  0  0  2  0  0  0  0  0  0
  188.2740  177.3230  143.7620 C   0  0  0  0  0  0  0  0  0  0  0  0
  191.3440  177.6020  140.6570 C   0  0  2  0  0  3  0  0  0  0  0  0
  189.0500  178.1860  141.4920 C   0  0  2  0  0  3  0  0  0  0  0  0
  186.6580  178.6300  142.2850 C   0  0  0  0  0  1  0  0  0  0  0  0
  187.5420  176.2080  143.7470 C   0  0  0  0  0  2  0  0  0  0  0  0
  190.3920  178.5670  144.3390 C   0  0  0  0  0  2  0  0  0  0  0  0
  189.3600  176.8040  136.9240 C   0  0  2  0  0  3  0  0  0  0  0  0
  186.4810  175.3620  136.5610 C   0  0  0  0  0  2  0  0  0  0  0  0
  188.4760  177.3100  140.5460 O   0  0  0  0  0  0  0  0  0  0  0  0
  191.1430  178.4920  142.9990 C   0  0  0  0  0  2  0  0  0  0  0  0
  188.4780  176.7660  138.1900 C   0  0  1  0  0  3  0  0  0  0  0  0
  190.1960  175.6490  134.6000 S   0  0  0  0  0  0  0  0  0  0  0  0
  190.4580  177.6660  141.9010 C   0  0  2  0  0  3  0  0  0  0  0  0
  189.5030  177.3520  144.6340 C   0  0  0  0  0  2  0  0  0  0  0  0
  187.8300  174.9360  135.9530 C   0  0  1  0  0  3  0  0  0  0  0  0
  190.6020  176.8740  139.5370 C   0  0  1  0  0  3  0  0  0  0  0  0
  188.1050  178.3760  142.6890 C   0  0  1  0  0  3  0  0  0  0  0  0
  189.1990  177.4700  139.3480 C   0  0  2  0  0  3  0  0  0  0  0  0
  193.3900  177.1140  139.8070 C   0  0  0  0  0  2  0  0  0  0  0  0
  186.3240  176.8730  136.7600 C   0  0  0  0  0  2  0  0  0  0  0  0
  192.5470  176.9180  140.9240 O   0  0  0  0  0  0  0  0  0  0  0  0
  187.0970  177.4020  137.9740 C   0  0  0  0  0  2  0  0  0  0  0  0
  188.7950  176.1160  135.6800 C   0  0  1  0  0  3  0  0  0  0  0  0
  192.8300  176.4000  138.5670 C   0  0  0  0  0  2  0  0  0  0  0  0
  190.7160  176.1770  137.1760 C   0  0  2  0  0  3  0  0  0  0  0  0
  188.4360  173.8370  136.8200 C   0  0  0  0  0  2  0  0  0  0  0  0
  187.5070  172.8180  137.0410 O   0  0  0  0  0  0  0  0  0  0  0  0
  187.6340  170.0350  135.0530 C   0  0  0  0  0  2  0  0  0  0  0  0
  186.0420  171.7300  135.5150 C   0  0  0  0  0  2  0  0  0  0  0  0
  187.4680  172.1110  135.8380 C   0  0  2  0  0  3  0  0  0  0  0  0
  186.1570  170.3390  134.9690 C   0  0  0  0  0  2  0  0  0  0  0  0
  188.2230  170.9350  135.9530 O   0  0  0  0  0  0  0  0  0  0  0  0
  1 26  1  1  0  0  0
  1 18  1  0  0  0  0
  2 27  1  0  0  0  0
  3 16  1  0  0  0  0
  4 23  1  1  0  0  0
  4 15  1  0  0  0  0
  5 11  1  6  0  0  0
  5 15  1  0  0  0  0
  5 19  1  0  0  0  0
  6 19  1  0  0  0  0
  7  3  2  0  0  0  0
  8 16  1  0  0  0  0
  9 27  1  0  0  0  0
  9 13  1  0  0  0  0
 10 22  1  0  0  0  0
 12  8  1  0  0  0  0
 13 20  1  0  0  0  0
 14 25  1  0  0  0  0
 14  2  1  0  0  0  0
 15 12  1  0  0  0  0
 17 10  1  0  0  0  0
 17 28  1  0  0  0  0
 18  4  1  0  0  0  0
 19  3  1  0  0  0  0
 20 18  1  0  0  0  0
 20 11  1  0  0  0  0
 21 23  1  0  0  0  0
 22 24  1  0  0  0  0
 24 13  1  0  0  0  0
 25 17  1  0  0  0  0
 25  9  1  0  0  0  0
 26 21  1  0  0  0  0
 27  1  1  0  0  0  0
 28 29  1  0  0  0  0
 30 34  1  0  0  0  0
 31 32  1  0  0  0  0
 32 34  1  0  0  0  0
 32 29  1  0  0  0  0
 33 30  1  0  0  0  0
 33 31  1  0  0  0  0
M  END
>  <MODEL>
3

>  <REMARK>
 VINA RESULT:      -7.0      1.989      3.528
  Name = 
  3 active torsions:
  status: ('A' for Active; 'I' for Inactive)
    1  A    between atoms: C_17  and  C_28
    2  A    between atoms: C_28  and  O_29
    3  A    between atoms: O_29  and  C_32
                            x       y       z     vdW  Elec       q    Type
                         _______ _______ _______ _____ _____    ______ ____

>  <TORSDO>
F 3

$$$$
=
 OpenBabel11122412283D

 34 40  0  0  1  0  0  0  0  0999 V2000
  179.3260  178.5780  137.4870 C   0  0  1  0  0  3  0  0  0  0  0  0
  179.3310  176.5330  139.0010 C   0  0  0  0  0  2  0  0  0  0  0  0
  180.7180  184.7480  136.8680 C   0  0  0  0  0  0  0  0  0  0  0  0
  179.4380  180.6340  136.1050 C   0  0  2  0  0  3  0  0  0  0  0  0
  179.1920  182.7740  137.3930 C   0  0  2  0  0  3  0  0  0  0  0  0
  179.0690  184.9040  138.8070 C   0  0  0  0  0  1  0  0  0  0  0  0
  181.7950  184.8790  137.6440 C   0  0  0  0  0  2  0  0  0  0  0  0
  179.6500  184.2650  134.6330 C   0  0  0  0  0  2  0  0  0  0  0  0
  179.1260  178.7350  139.9530 C   0  0  2  0  0  3  0  0  0  0  0  0
  180.4660  179.7790  142.7130 C   0  0  0  0  0  2  0  0  0  0  0  0
  179.7570  182.1620  138.5320 O   0  0  0  0  0  0  0  0  0  0  0  0
  179.2990  182.7760  134.7990 C   0  0  0  0  0  2  0  0  0  0  0  0
  179.5660  180.2140  139.9540 C   0  0  1  0  0  3  0  0  0  0  0  0
  179.5060  176.1640  140.7780 S   0  0  0  0  0  0  0  0  0  0  0  0
  179.7740  182.1250  136.1060 C   0  0  2  0  0  3  0  0  0  0  0  0
  180.9210  184.7010  135.3750 C   0  0  0  0  0  2  0  0  0  0  0  0
  180.6540  178.4090  142.0340 C   0  0  1  0  0  3  0  0  0  0  0  0
  179.8130  180.0250  137.4560 C   0  0  1  0  0  3  0  0  0  0  0  0
  179.3960  184.2970  137.4480 C   0  0  1  0  0  3  0  0  0  0  0  0
  179.2250  180.8590  138.6030 C   0  0  2  0  0  3  0  0  0  0  0  0
  179.5940  178.6530  135.0120 C   0  0  0  0  0  2  0  0  0  0  0  0
  179.0900  180.4130  142.4890 C   0  0  0  0  0  2  0  0  0  0  0  0
  180.1380  179.9540  135.0890 O   0  0  0  0  0  0  0  0  0  0  0  0
  178.9310  181.0250  141.0920 C   0  0  0  0  0  2  0  0  0  0  0  0
  179.4220  177.9360  141.2240 C   0  0  1  0  0  3  0  0  0  0  0  0
  179.9160  177.8490  136.2800 C   0  0  0  0  0  2  0  0  0  0  0  0
  179.7640  177.9690  138.8130 C   0  0  2  0  0  3  0  0  0  0  0  0
  181.9470  178.4340  141.2260 C   0  0  0  0  0  2  0  0  0  0  0  0
  182.9380  179.1450  141.9060 O   0  0  0  0  0  0  0  0  0  0  0  0
  186.2780  178.9060  141.2000 C   0  0  0  0  0  2  0  0  0  0  0  0
  184.8160  178.0340  142.8510 C   0  0  0  0  0  2  0  0  0  0  0  0
  184.1260  178.4880  141.5860 C   0  0  2  0  0  3  0  0  0  0  0  0
  186.2670  178.2990  142.5830 C   0  0  0  0  0  2  0  0  0  0  0  0
  184.9850  179.3620  140.9040 O   0  0  0  0  0  0  0  0  0  0  0  0
  1 26  1  6  0  0  0
  1 27  1  0  0  0  0
  2 14  1  0  0  0  0
  3 19  1  0  0  0  0
  3  7  2  0  0  0  0
  4 23  1  6  0  0  0
  4 15  1  0  0  0  0
  4 18  1  0  0  0  0
  5 19  1  0  0  0  0
  5 11  1  1  0  0  0
  8 12  1  0  0  0  0
  8 16  1  0  0  0  0
  9 13  1  0  0  0  0
  9 25  1  0  0  0  0
 11 20  1  0  0  0  0
 12 15  1  0  0  0  0
 13 24  1  0  0  0  0
 14 25  1  0  0  0  0
 15  5  1  0  0  0  0
 16  3  1  0  0  0  0
 17 10  1  0  0  0  0
 18  1  1  0  0  0  0
 18 20  1  0  0  0  0
 19  6  1  0  0  0  0
 20 13  1  0  0  0  0
 21 23  1  0  0  0  0
 21 26  1  0  0  0  0
 22 10  1  0  0  0  0
 24 22  1  0  0  0  0
 25 17  1  0  0  0  0
 27  2  1  0  0  0  0
 27  9  1  0  0  0  0
 28 29  1  0  0  0  0
 28 17  1  0  0  0  0
 30 33  1  0  0  0  0
 32 29  1  0  0  0  0
 32 31  1  0  0  0  0
 33 31  1  0  0  0  0
 34 30  1  0  0  0  0
 34 32  1  0  0  0  0
M  END
>  <MODEL>
4

>  <REMARK>
 VINA RESULT:      -7.0      5.466      9.985
  Name = 
  3 active torsions:
  status: ('A' for Active; 'I' for Inactive)
    1  A    between atoms: C_17  and  C_28
    2  A    between atoms: C_28  and  O_29
    3  A    between atoms: O_29  and  C_32
                            x       y       z     vdW  Elec       q    Type
                         _______ _______ _______ _____ _____    ______ ____

>  <TORSDO>
F 3

$$$$
=
 OpenBabel11122412283D

 34 40  0  0  1  0  0  0  0  0999 V2000
  190.8390  177.2890  138.4040 C   0  0  1  0  0  3  0  0  0  0  0  0
  190.6690  176.7510  135.9230 C   0  0  0  0  0  2  0  0  0  0  0  0
  187.9010  177.4180  144.0380 C   0  0  0  0  0  0  0  0  0  0  0  0
  190.8800  177.7130  140.8470 C   0  0  2  0  0  3  0  0  0  0  0  0
  188.6780  178.4150  141.8240 C   0  0  2  0  0  3  0  0  0  0  0  0
  186.3630  178.9930  142.7510 C   0  0  0  0  0  1  0  0  0  0  0  0
  187.0710  176.3780  143.9540 C   0  0  0  0  0  2  0  0  0  0  0  0
  190.1420  178.4140  144.6360 C   0  0  0  0  0  2  0  0  0  0  0  0
  188.7100  177.4400  137.1420 C   0  0  2  0  0  3  0  0  0  0  0  0
  185.7010  176.2950  136.7710 C   0  0  0  0  0  2  0  0  0  0  0  0
  187.9950  177.6850  140.8280 O   0  0  0  0  0  0  0  0  0  0  0  0
  190.8390  178.3970  143.2650 C   0  0  0  0  0  2  0  0  0  0  0  0
  187.8700  177.3620  138.4350 C   0  0  1  0  0  3  0  0  0  0  0  0
  189.3600  176.4350  134.6930 S   0  0  0  0  0  0  0  0  0  0  0  0
  190.0450  177.7390  142.1270 C   0  0  2  0  0  3  0  0  0  0  0  0
  189.1560  177.2590  144.8580 C   0  0  0  0  0  2  0  0  0  0  0  0
  186.9860  175.8110  136.0720 C   0  0  1  0  0  3  0  0  0  0  0  0
  190.0380  177.1600  139.6980 C   0  0  1  0  0  3  0  0  0  0  0  0
  187.7940  178.5760  143.0710 C   0  0  1  0  0  3  0  0  0  0  0  0
  188.6900  177.8910  139.6210 C   0  0  2  0  0  3  0  0  0  0  0  0
  192.8440  177.1280  139.8730 C   0  0  0  0  0  2  0  0  0  0  0  0
  185.6900  177.7890  137.1100 C   0  0  0  0  0  2  0  0  0  0  0  0
  192.0250  176.9050  141.0020 O   0  0  0  0  0  0  0  0  0  0  0  0
  186.5470  178.1340  138.3330 C   0  0  0  0  0  2  0  0  0  0  0  0
  188.0450  176.9220  135.8660 C   0  0  1  0  0  3  0  0  0  0  0  0
  192.1810  176.5840  138.5990 C   0  0  0  0  0  2  0  0  0  0  0  0
  190.0110  176.6760  137.2820 C   0  0  2  0  0  3  0  0  0  0  0  0
  187.5170  174.5870  136.8130 C   0  0  0  0  0  2  0  0  0  0  0  0
  187.6050  173.4920  135.9510 O   0  0  0  0  0  0  0  0  0  0  0  0
  184.7310  172.6280  137.5940 C   0  0  0  0  0  2  0  0  0  0  0  0
  185.4770  172.6230  135.3430 C   0  0  0  0  0  2  0  0  0  0  0  0
  186.5870  172.6330  136.3670 C   0  0  2  0  0  3  0  0  0  0  0  0
  184.2270  172.6010  136.1700 C   0  0  0  0  0  2  0  0  0  0  0  0
  186.0580  173.0780  137.5870 O   0  0  0  0  0  0  0  0  0  0  0  0
  1 26  1  1  0  0  0
  1 18  1  0  0  0  0
  2 27  1  0  0  0  0
  3 16  1  0  0  0  0
  4 23  1  1  0  0  0
  4 15  1  0  0  0  0
  5 11  1  6  0  0  0
  5 15  1  0  0  0  0
  5 19  1  0  0  0  0
  6 19  1  0  0  0  0
  7  3  2  0  0  0  0
  8 16  1  0  0  0  0
  9 27  1  0  0  0  0
  9 13  1  0  0  0  0
 10 22  1  0  0  0  0
 12  8  1  0  0  0  0
 13 20  1  0  0  0  0
 14 25  1  0  0  0  0
 14  2  1  0  0  0  0
 15 12  1  0  0  0  0
 17 10  1  0  0  0  0
 17 28  1  0  0  0  0
 18  4  1  0  0  0  0
 19  3  1  0  0  0  0
 20 18  1  0  0  0  0
 20 11  1  0  0  0  0
 21 23  1  0  0  0  0
 22 24  1  0  0  0  0
 24 13  1  0  0  0  0
 25 17  1  0  0  0  0
 25  9  1  0  0  0  0
 26 21  1  0  0  0  0
 27  1  1  0  0  0  0
 29 32  1  0  0  0  0
 29 28  1  0  0  0  0
 31 33  1  0  0  0  0
 31 32  1  0  0  0  0
 32 34  1  0  0  0  0
 33 30  1  0  0  0  0
 34 30  1  0  0  0  0
M  END
>  <MODEL>
5

>  <REMARK>
 VINA RESULT:      -6.8      1.819      3.249
  Name = 
  3 active torsions:
  status: ('A' for Active; 'I' for Inactive)
    1  A    between atoms: C_17  and  C_28
    2  A    between atoms: C_28  and  O_29
    3  A    between atoms: O_29  and  C_32
                            x       y       z     vdW  Elec       q    Type
                         _______ _______ _______ _____ _____    ______ ____

>  <TORSDO>
F 3

$$$$
=
 OpenBabel11122412283D

 34 40  0  0  1  0  0  0  0  0999 V2000
  187.7600  176.5840  136.2680 C   0  0  1  0  0  3  0  0  0  0  0  0
  185.8500  176.2970  134.6120 C   0  0  0  0  0  2  0  0  0  0  0  0
  189.4920  177.1230  142.3590 C   0  0  0  0  0  0  0  0  0  0  0  0
  189.5260  176.8000  137.9950 C   0  0  2  0  0  3  0  0  0  0  0  0
  188.8160  178.0200  140.0700 C   0  0  2  0  0  3  0  0  0  0  0  0
  187.9600  179.1560  142.1980 C   0  0  0  0  0  1  0  0  0  0  0  0
  188.5880  176.3670  142.9830 C   0  0  0  0  0  2  0  0  0  0  0  0
  191.7140  177.4020  141.1960 C   0  0  0  0  0  2  0  0  0  0  0  0
  185.4680  177.4190  136.7080 C   0  0  2  0  0  3  0  0  0  0  0  0
  182.8200  177.1960  138.5640 C   0  0  0  0  0  2  0  0  0  0  0  0
  187.4870  177.5850  139.8790 O   0  0  0  0  0  0  0  0  0  0  0  0
  191.2840  177.2900  139.7230 C   0  0  0  0  0  2  0  0  0  0  0  0
  185.7210  177.4860  138.2290 C   0  0  1  0  0  3  0  0  0  0  0  0
  184.0330  176.4530  134.6010 S   0  0  0  0  0  0  0  0  0  0  0  0
  189.8010  176.9660  139.4890 C   0  0  2  0  0  3  0  0  0  0  0  0
  190.8760  176.5580  142.1650 C   0  0  0  0  0  2  0  0  0  0  0  0
  183.1300  176.4220  137.2680 C   0  0  1  0  0  3  0  0  0  0  0  0
  188.0290  176.5910  137.7710 C   0  0  1  0  0  3  0  0  0  0  0  0
  189.0690  178.3320  141.5540 C   0  0  1  0  0  3  0  0  0  0  0  0
  187.2210  177.6750  138.4990 C   0  0  2  0  0  3  0  0  0  0  0  0
  190.1020  175.7590  136.0630 C   0  0  0  0  0  2  0  0  0  0  0  0
  183.4210  178.6030  138.6190 C   0  0  0  0  0  2  0  0  0  0  0  0
  190.2240  175.6940  137.4690 O   0  0  0  0  0  0  0  0  0  0  0  0
  184.9250  178.6040  138.9170 C   0  0  0  0  0  2  0  0  0  0  0  0
  184.0190  177.2020  136.2690 C   0  0  1  0  0  3  0  0  0  0  0  0
  188.6490  175.5170  135.6280 C   0  0  0  0  0  2  0  0  0  0  0  0
  186.2750  176.3120  136.0620 C   0  0  2  0  0  3  0  0  0  0  0  0
  183.6810  175.0480  137.6360 C   0  0  0  0  0  2  0  0  0  0  0  0
  183.0550  174.0510  136.8860 O   0  0  0  0  0  0  0  0  0  0  0  0
  185.9040  172.5410  135.7400 C   0  0  0  0  0  2  0  0  0  0  0  0
  185.0640  173.2210  137.8510 C   0  0  0  0  0  2  0  0  0  0  0  0
  184.0050  173.0330  136.7900 C   0  0  2  0  0  3  0  0  0  0  0  0
  186.3410  172.8710  137.1480 C   0  0  0  0  0  2  0  0  0  0  0  0
  184.6250  173.0780  135.5340 O   0  0  0  0  0  0  0  0  0  0  0  0
  1 26  1  6  0  0  0
  1 18  1  0  0  0  0
  2 27  1  0  0  0  0
  3  7  2  0  0  0  0
  4 23  1  1  0  0  0
  4 15  1  0  0  0  0
  5 11  1  1  0  0  0
  5 19  1  0  0  0  0
  8 16  1  0  0  0  0
  9 13  1  0  0  0  0
 10 22  1  0  0  0  0
 12  8  1  0  0  0  0
 13 20  1  0  0  0  0
 13 24  1  0  0  0  0
 14  2  1  0  0  0  0
 14 25  1  0  0  0  0
 15 12  1  0  0  0  0
 15  5  1  0  0  0  0
 16  3  1  0  0  0  0
 17 28  1  0  0  0  0
 17 10  1  0  0  0  0
 18  4  1  0  0  0  0
 18 20  1  0  0  0  0
 19  6  1  0  0  0  0
 19  3  1  0  0  0  0
 20 11  1  0  0  0  0
 21 23  1  0  0  0  0
 22 24  1  0  0  0  0
 25  9  1  0  0  0  0
 25 17  1  0  0  0  0
 26 21  1  0  0  0  0
 27  1  1  0  0  0  0
 27  9  1  0  0  0  0
 29 28  1  0  0  0  0
 30 33  1  0  0  0  0
 32 29  1  0  0  0  0
 32 31  1  0  0  0  0
 33 31  1  0  0  0  0
 34 30  1  0  0  0  0
 34 32  1  0  0  0  0
M  END
>  <MODEL>
6

>  <REMARK>
 VINA RESULT:      -6.6      2.292      5.179
  Name = 
  3 active torsions:
  status: ('A' for Active; 'I' for Inactive)
    1  A    between atoms: C_17  and  C_28
    2  A    between atoms: C_28  and  O_29
    3  A    between atoms: O_29  and  C_32
                            x       y       z     vdW  Elec       q    Type
                         _______ _______ _______ _____ _____    ______ ____

>  <TORSDO>
F 3

$$$$
=
 OpenBabel11122412283D

 34 40  0  0  1  0  0  0  0  0999 V2000
  189.7360  177.4070  137.4630 C   0  0  1  0  0  3  0  0  0  0  0  0
  188.5400  177.4230  135.2180 C   0  0  0  0  0  2  0  0  0  0  0  0
  189.2480  176.6150  143.7500 C   0  0  0  0  0  0  0  0  0  0  0  0
  190.7810  177.2990  139.7100 C   0  0  2  0  0  3  0  0  0  0  0  0
  189.2750  177.9810  141.5980 C   0  0  2  0  0  3  0  0  0  0  0  0
  187.6250  178.5620  143.4670 C   0  0  0  0  0  1  0  0  0  0  0  0
  188.2850  175.6970  143.8510 C   0  0  0  0  0  2  0  0  0  0  0  0
  191.6800  177.2490  143.5280 C   0  0  0  0  0  2  0  0  0  0  0  0
  187.3450  178.0180  137.2220 C   0  0  2  0  0  3  0  0  0  0  0  0
  184.2760  177.2620  137.9380 C   0  0  0  0  0  2  0  0  0  0  0  0
  188.1490  177.5440  140.8670 O   0  0  0  0  0  0  0  0  0  0  0  0
  191.7850  177.4580  142.0080 C   0  0  0  0  0  2  0  0  0  0  0  0
  187.0640  177.7470  138.7150 C   0  0  1  0  0  3  0  0  0  0  0  0
  186.8270  177.4970  134.5960 S   0  0  0  0  0  0  0  0  0  0  0  0
  190.5170  177.1310  141.2050 C   0  0  2  0  0  3  0  0  0  0  0  0
  190.6740  176.1700  143.9500 C   0  0  0  0  0  2  0  0  0  0  0  0
  185.0930  176.8180  136.7090 C   0  0  1  0  0  3  0  0  0  0  0  0
  189.4820  177.0810  138.9340 C   0  0  1  0  0  3  0  0  0  0  0  0
  188.9770  177.9560  143.1060 C   0  0  1  0  0  3  0  0  0  0  0  0
  188.3530  177.9350  139.5290 C   0  0  2  0  0  3  0  0  0  0  0  0
  192.0920  176.7530  137.9400 C   0  0  0  0  0  2  0  0  0  0  0  0
  184.6490  178.6440  138.4810 C   0  0  0  0  0  2  0  0  0  0  0  0
  191.7420  176.3740  139.2550 O   0  0  0  0  0  0  0  0  0  0  0  0
  185.9550  178.6420  139.2850 C   0  0  0  0  0  2  0  0  0  0  0  0
  186.1640  177.8450  136.2650 C   0  0  1  0  0  3  0  0  0  0  0  0
  190.9090  176.5540  136.9800 C   0  0  0  0  0  2  0  0  0  0  0  0
  188.4500  177.1240  136.6970 C   0  0  2  0  0  3  0  0  0  0  0  0
  185.6510  175.4220  136.9670 C   0  0  0  0  0  2  0  0  0  0  0  0
  185.3200  174.5600  135.9200 O   0  0  0  0  0  0  0  0  0  0  0  0
  188.5040  173.5020  135.2470 C   0  0  0  0  0  2  0  0  0  0  0  0
  187.1340  173.6700  137.1750 C   0  0  0  0  0  2  0  0  0  0  0  0
  186.3720  173.6450  135.8710 C   0  0  2  0  0  3  0  0  0  0  0  0
  188.5680  173.5560  136.7560 C   0  0  0  0  0  2  0  0  0  0  0  0
  187.2550  173.9920  134.8380 O   0  0  0  0  0  0  0  0  0  0  0  0
  1 26  1  6  0  0  0
  1 18  1  0  0  0  0
  2 27  1  0  0  0  0
  3  7  2  0  0  0  0
  3 16  1  0  0  0  0
  4 23  1  6  0  0  0
  4 15  1  0  0  0  0
  5 11  1  6  0  0  0
  5 19  1  0  0  0  0
  8 16  1  0  0  0  0
  9 13  1  0  0  0  0
 10 22  1  0  0  0  0
 12  8  1  0  0  0  0
 13 24  1  0  0  0  0
 13 20  1  0  0  0  0
 14  2  1  0  0  0  0
 14 25  1  0  0  0  0
 15  5  1  0  0  0  0
 15 12  1  0  0  0  0
 17 28  1  0  0  0  0
 17 10  1  0  0  0  0
 18 20  1  0  0  0  0
 18  4  1  0  0  0  0
 19  6  1  0  0  0  0
 19  3  1  0  0  0  0
 20 11  1  0  0  0  0
 21 23  1  0  0  0  0
 22 24  1  0  0  0  0
 25 17  1  0  0  0  0
 25  9  1  0  0  0  0
 26 21  1  0  0  0  0
 27  9  1  0  0  0  0
 27  1  1  0  0  0  0
 29 28  1  0  0  0  0
 30 33  1  0  0  0  0
 32 29  1  0  0  0  0
 32 31  1  0  0  0  0
 33 31  1  0  0  0  0
 34 30  1  0  0  0  0
 34 32  1  0  0  0  0
M  END
>  <MODEL>
7

>  <REMARK>
 VINA RESULT:      -6.6      2.007      4.443
  Name = 
  3 active torsions:
  status: ('A' for Active; 'I' for Inactive)
    1  A    between atoms: C_17  and  C_28
    2  A    between atoms: C_28  and  O_29
    3  A    between atoms: O_29  and  C_32
                            x       y       z     vdW  Elec       q    Type
                         _______ _______ _______ _____ _____    ______ ____

>  <TORSDO>
F 3

$$$$
=
 OpenBabel11122412283D

 34 40  0  0  1  0  0  0  0  0999 V2000
  180.1890  176.0760  139.5750 C   0  0  1  0  0  3  0  0  0  0  0  0
  179.7130  178.0800  141.0670 C   0  0  0  0  0  2  0  0  0  0  0  0
  184.5830  172.5790  136.5970 C   0  0  0  0  0  0  0  0  0  0  0  0
  180.8060  174.1210  138.1790 C   0  0  2  0  0  3  0  0  0  0  0  0
  182.8560  174.4470  136.7690 C   0  0  2  0  0  3  0  0  0  0  0  0
  185.0300  174.8240  135.4720 C   0  0  0  0  0  1  0  0  0  0  0  0
  185.6290  172.6710  137.4200 C   0  0  0  0  0  2  0  0  0  0  0  0
  182.4620  171.4420  135.8390 C   0  0  0  0  0  2  0  0  0  0  0  0
  181.6280  178.0940  139.6090 C   0  0  2  0  0  3  0  0  0  0  0  0
  184.5550  179.3170  140.2750 C   0  0  0  0  0  2  0  0  0  0  0  0
  183.3770  175.3480  137.7220 O   0  0  0  0  0  0  0  0  0  0  0  0
  181.4030  172.3060  136.5470 C   0  0  0  0  0  2  0  0  0  0  0  0
  182.8180  177.3280  138.9930 C   0  0  1  0  0  3  0  0  0  0  0  0
  180.5810  179.5770  141.6430 S   0  0  0  0  0  0  0  0  0  0  0  0
  181.9540  173.3970  137.4770 C   0  0  2  0  0  3  0  0  0  0  0  0
  183.7820  171.3020  136.6080 C   0  0  0  0  0  2  0  0  0  0  0  0
  183.3410  179.2120  141.2180 C   0  0  1  0  0  3  0  0  0  0  0  0
  181.3620  175.2750  139.0120 C   0  0  1  0  0  3  0  0  0  0  0  0
  183.9940  173.8140  135.9520 C   0  0  1  0  0  3  0  0  0  0  0  0
  182.3010  176.1440  138.1630 C   0  0  2  0  0  3  0  0  0  0  0  0
  178.9310  173.9300  139.4420 C   0  0  0  0  0  2  0  0  0  0  0  0
  184.1940  179.5100  138.7990 C   0  0  0  0  0  2  0  0  0  0  0  0
  180.0960  173.2480  139.0290 O   0  0  0  0  0  0  0  0  0  0  0  0
  183.7160  178.2200  138.1230 C   0  0  0  0  0  2  0  0  0  0  0  0
  181.9750  179.2930  140.4930 C   0  0  1  0  0  3  0  0  0  0  0  0
  179.2850  175.1180  140.3500 C   0  0  0  0  0  2  0  0  0  0  0  0
  180.7610  177.1830  140.4520 C   0  0  2  0  0  3  0  0  0  0  0  0
  183.5010  177.9690  142.0890 C   0  0  0  0  0  2  0  0  0  0  0  0
  183.1700  178.2530  143.4150 O   0  0  0  0  0  0  0  0  0  0  0  0
  185.4590  178.9490  145.8620 C   0  0  0  0  0  2  0  0  0  0  0  0
  185.5000  177.9010  143.7350 C   0  0  0  0  0  2  0  0  0  0  0  0
  184.3240  178.8240  143.9510 C   0  0  2  0  0  3  0  0  0  0  0  0
  186.2740  177.9990  145.0150 C   0  0  0  0  0  2  0  0  0  0  0  0
  184.1630  179.0180  145.3310 O   0  0  0  0  0  0  0  0  0  0  0  0
  1 26  1  1  0  0  0
  1 27  1  0  0  0  0
  2 14  1  0  0  0  0
  3 16  1  0  0  0  0
  3  7  2  0  0  0  0
  4 18  1  0  0  0  0
  4 23  1  1  0  0  0
  5 15  1  0  0  0  0
  5 11  1  1  0  0  0
  6 19  1  0  0  0  0
  8 12  1  0  0  0  0
  8 16  1  0  0  0  0
  9 27  1  0  0  0  0
  9 25  1  0  0  0  0
 10 17  1  0  0  0  0
 11 20  1  0  0  0  0
 12 15  1  0  0  0  0
 13  9  1  0  0  0  0
 15  4  1  0  0  0  0
 17 28  1  0  0  0  0
 18  1  1  0  0  0  0
 19  3  1  0  0  0  0
 19  5  1  0  0  0  0
 20 13  1  0  0  0  0
 20 18  1  0  0  0  0
 21 26  1  0  0  0  0
 22 10  1  0  0  0  0
 23 21  1  0  0  0  0
 24 22  1  0  0  0  0
 24 13  1  0  0  0  0
 25 17  1  0  0  0  0
 25 14  1  0  0  0  0
 27  2  1  0  0  0  0
 28 29  1  0  0  0  0
 29 32  1  0  0  0  0
 31 32  1  0  0  0  0
 31 33  1  0  0  0  0
 32 34  1  0  0  0  0
 33 30  1  0  0  0  0
 34 30  1  0  0  0  0
M  END
>  <MODEL>
8

>  <REMARK>
 VINA RESULT:      -6.3      4.370      8.857
  Name = 
  3 active torsions:
  status: ('A' for Active; 'I' for Inactive)
    1  A    between atoms: C_17  and  C_28
    2  A    between atoms: C_28  and  O_29
    3  A    between atoms: O_29  and  C_32
                            x       y       z     vdW  Elec       q    Type
                         _______ _______ _______ _____ _____    ______ ____

>  <TORSDO>
F 3

$$$$
=
 OpenBabel11122412283D

 34 40  0  0  1  0  0  0  0  0999 V2000
  184.1460  178.4130  140.6480 C   0  0  1  0  0  3  0  0  0  0  0  0
  181.8790  179.0300  141.6240 C   0  0  0  0  0  2  0  0  0  0  0  0
  187.6660  177.6820  135.4070 C   0  0  0  0  0  0  0  0  0  0  0  0
  186.3150  177.8950  139.5630 C   0  0  2  0  0  3  0  0  0  0  0  0
  186.1250  176.8830  137.2750 C   0  0  2  0  0  3  0  0  0  0  0  0
  185.8330  175.9840  134.8960 C   0  0  0  0  0  1  0  0  0  0  0  0
  187.1670  178.6140  134.5940 C   0  0  0  0  0  2  0  0  0  0  0  0
  189.2930  176.9490  137.1910 C   0  0  0  0  0  2  0  0  0  0  0  0
  182.0180  178.0510  139.4290 C   0  0  2  0  0  3  0  0  0  0  0  0
  180.2150  178.8280  136.8510 C   0  0  0  0  0  2  0  0  0  0  0  0
  184.9070  177.5650  137.0670 O   0  0  0  0  0  0  0  0  0  0  0  0
  188.4280  177.1100  138.4530 C   0  0  0  0  0  2  0  0  0  0  0  0
  182.7430  177.9700  138.0690 C   0  0  1  0  0  3  0  0  0  0  0  0
  180.1630  179.2320  141.0410 S   0  0  0  0  0  0  0  0  0  0  0  0
  187.0330  177.7120  138.2270 C   0  0  2  0  0  3  0  0  0  0  0  0
  188.9860  177.9620  136.0800 C   0  0  0  0  0  2  0  0  0  0  0  0
  180.2110  179.4970  138.2380 C   0  0  1  0  0  3  0  0  0  0  0  0
  184.8900  178.3870  139.3150 C   0  0  1  0  0  3  0  0  0  0  0  0
  186.7940  176.5620  135.9290 C   0  0  1  0  0  3  0  0  0  0  0  0
  184.1890  177.4980  138.2780 C   0  0  2  0  0  3  0  0  0  0  0  0
  186.3960  178.7600  141.6590 C   0  0  0  0  0  2  0  0  0  0  0  0
  180.5410  177.3320  136.8700 C   0  0  0  0  0  2  0  0  0  0  0  0
  186.9840  178.8320  140.3770 O   0  0  0  0  0  0  0  0  0  0  0  0
  182.0340  177.0440  137.0700 C   0  0  0  0  0  2  0  0  0  0  0  0
  180.5680  178.5360  139.3990 C   0  0  1  0  0  3  0  0  0  0  0  0
  184.9480  179.2710  141.6270 C   0  0  0  0  0  2  0  0  0  0  0  0
  182.7500  178.9650  140.3910 C   0  0  2  0  0  3  0  0  0  0  0  0
  181.0870  180.7450  138.1840 C   0  0  0  0  0  2  0  0  0  0  0  0
  181.1580  181.2400  136.8800 O   0  0  0  0  0  0  0  0  0  0  0  0
  181.3720  184.6470  137.1150 C   0  0  0  0  0  2  0  0  0  0  0  0
  180.4340  183.0980  135.5840 C   0  0  0  0  0  2  0  0  0  0  0  0
  180.6650  182.5420  136.9700 C   0  0  2  0  0  3  0  0  0  0  0  0
  180.8940  184.5210  135.6880 C   0  0  0  0  0  2  0  0  0  0  0  0
  181.5970  183.3600  137.6240 O   0  0  0  0  0  0  0  0  0  0  0  0
  1 26  1  1  0  0  0
  3 19  1  0  0  0  0
  3 16  1  0  0  0  0
  4 23  1  1  0  0  0
  5 11  1  6  0  0  0
  5 15  1  0  0  0  0
  6 19  1  0  0  0  0
  7  3  2  0  0  0  0
  8 12  1  0  0  0  0
  9 27  1  0  0  0  0
 10 22  1  0  0  0  0
 10 17  1  0  0  0  0
 11 20  1  0  0  0  0
 13 20  1  0  0  0  0
 13  9  1  0  0  0  0
 14  2  1  0  0  0  0
 15 12  1  0  0  0  0
 15  4  1  0  0  0  0
 16  8  1  0  0  0  0
 17 25  1  0  0  0  0
 18  4  1  0  0  0  0
 18  1  1  0  0  0  0
 19  5  1  0  0  0  0
 20 18  1  0  0  0  0
 22 24  1  0  0  0  0
 23 21  1  0  0  0  0
 24 13  1  0  0  0  0
 25  9  1  0  0  0  0
 25 14  1  0  0  0  0
 26 21  1  0  0  0  0
 27  1  1  0  0  0  0
 27  2  1  0  0  0  0
 28 17  1  0  0  0  0
 29 32  1  0  0  0  0
 29 28  1  0  0  0  0
 30 34  1  0  0  0  0
 31 33  1  0  0  0  0
 31 32  1  0  0  0  0
 32 34  1  0  0  0  0
 33 30  1  0  0  0  0
M  END
>  <MODEL>
9

>  <REMARK>
 VINA RESULT:      -6.2      3.936      8.116
  Name = 
  3 active torsions:
  status: ('A' for Active; 'I' for Inactive)
    1  A    between atoms: C_17  and  C_28
    2  A    between atoms: C_28  and  O_29
    3  A    between atoms: O_29  and  C_32
                            x       y       z     vdW  Elec       q    Type
                         _______ _______ _______ _____ _____    ______ ____

>  <TORSDO>
F 3

$$$$
