=
 OpenBabel11122410223D

 30 35  0  0  1  0  0  0  0  0999 V2000
  187.3660  178.1580  140.6270 C   0  0  1  0  0  3  0  0  0  0  0  0
  185.0270  178.8470  139.8530 C   0  0  0  0  0  0  0  0  0  0  0  0
  185.9490  177.9230  144.7240 C   0  0  0  0  0  2  0  0  0  0  0  0
  188.1110  177.4490  141.7790 C   0  0  1  0  0  3  0  0  0  0  0  0
  187.6270  177.4810  139.4190 O   0  0  0  0  0  0  0  0  0  0  0  0
  191.1830  177.3320  139.8170 O   0  0  0  0  0  0  0  0  0  0  0  0
  190.7310  178.1360  143.5680 C   0  0  1  0  0  3  0  0  0  0  0  0
  189.9700  177.4970  140.1230 C   0  0  0  0  0  0  0  0  0  0  0  0
  189.6990  178.2210  144.6630 C   0  0  2  0  0  3  0  0  0  0  0  0
  187.3100  177.7110  145.2790 C   0  0  0  0  0  0  0  0  0  0  0  0
  188.9620  177.7680  139.0300 C   0  0  2  0  0  3  0  0  0  0  0  0
  189.5520  177.4600  141.5010 N   0  0  0  0  0  0  0  0  0  0  0  0
  183.6880  179.1370  140.1270 C   0  0  0  0  0  3  0  0  0  0  0  0
  190.3250  177.4000  145.7620 C   0  0  0  0  0  2  0  0  0  0  0  0
  192.0130  177.8630  144.3300 C   0  0  0  0  0  2  0  0  0  0  0  0
  185.5040  179.0360  138.5620 O   0  0  0  0  0  1  0  0  0  0  0  0
  186.2530  177.7150  143.2600 C   0  0  2  0  0  3  0  0  0  0  0  0
  183.1790  178.9840  141.4180 C   0  0  0  0  0  3  0  0  0  0  0  0
  185.8740  178.3800  140.8770 C   0  0  0  0  0  0  0  0  0  0  0  0
  187.6920  178.1480  143.0670 C   0  0  1  0  0  3  0  0  0  0  0  0
  187.5240  177.5710  146.5120 O   0  0  0  0  0  0  0  0  0  0  0  0
  188.3570  177.7450  144.3010 N   0  0  0  0  0  0  0  0  0  0  0  0
  191.7200  177.5300  145.6690 O   0  0  0  0  0  0  0  0  0  0  0  0
  190.2290  175.6500  143.0490 C   0  0  0  0  0  1  0  0  0  0  0  0
  184.0120  178.5510  142.4500 C   0  0  0  0  0  3  0  0  0  0  0  0
  185.3600  178.2810  142.1970 C   0  0  0  0  0  0  0  0  0  0  0  0
  190.5230  177.0460  142.5090 C   0  0  2  0  0  3  0  0  0  0  0  0
  189.1060  179.1850  138.4830 C   0  0  0  0  0  2  0  0  0  0  0  0
  189.1680  178.2510  136.4860 C   0  0  0  0  0  1  0  0  0  0  0  0
  188.5380  179.2610  137.2110 O   0  0  0  0  0  0  0  0  0  0  0  0
  1  5  1  6  0  0  0
  1 19  1  0  0  0  0
  1  4  1  0  0  0  0
  2 13  2  0  0  0  0
  2 19  1  0  0  0  0
  3 10  1  0  0  0  0
  4 12  1  6  0  0  0
  4 20  1  0  0  0  0
  6  8  2  0  0  0  0
  7 15  1  1  0  0  0
  7  9  1  0  0  0  0
  8 12  1  0  0  0  0
  9 14  1  1  0  0  0
 10 21  2  0  0  0  0
 11 28  1  1  0  0  0
 11  5  1  0  0  0  0
 11  8  1  0  0  0  0
 12 27  1  0  0  0  0
 13 18  1  0  0  0  0
 15 23  1  0  0  0  0
 16  2  1  0  0  0  0
 17  3  1  1  0  0  0
 18 25  2  0  0  0  0
 19 26  2  0  0  0  0
 20 17  1  0  0  0  0
 20 22  1  1  0  0  0
 22  9  1  0  0  0  0
 22 10  1  0  0  0  0
 23 14  1  0  0  0  0
 26 25  1  0  0  0  0
 26 17  1  0  0  0  0
 27 24  1  1  0  0  0
 27  7  1  0  0  0  0
 29 30  1  0  0  0  0
 30 28  1  0  0  0  0
M  END
>  <MODEL>
1

>  <REMARK>
 VINA RESULT:      -9.3      0.000      0.000
  Name = 
  2 active torsions:
  status: ('A' for Active; 'I' for Inactive)
    1  A    between atoms: C_11  and  C_28
    2  A    between atoms: C_28  and  O_30
                            x       y       z     vdW  Elec       q    Type
                         _______ _______ _______ _____ _____    ______ ____

>  <TORSDO>
F 2

$$$$
=
 OpenBabel11122410223D

 30 35  0  0  1  0  0  0  0  0999 V2000
  189.2200  177.4550  143.4340 C   0  0  1  0  0  3  0  0  0  0  0  0
  191.2090  176.5290  144.7490 C   0  0  0  0  0  0  0  0  0  0  0  0
  186.9910  177.9350  147.1290 C   0  0  0  0  0  2  0  0  0  0  0  0
  187.9460  178.3150  143.5910 C   0  0  1  0  0  3  0  0  0  0  0  0
  190.0600  178.0430  142.4680 O   0  0  0  0  0  0  0  0  0  0  0  0
  187.5320  178.4910  139.9720 O   0  0  0  0  0  0  0  0  0  0  0  0
  184.8430  177.9820  142.6970 C   0  0  1  0  0  3  0  0  0  0  0  0
  188.0420  178.2630  141.1030 C   0  0  0  0  0  0  0  0  0  0  0  0
  184.6420  177.9140  144.1900 C   0  0  2  0  0  3  0  0  0  0  0  0
  185.7320  178.2960  146.4290 C   0  0  0  0  0  0  0  0  0  0  0  0
  189.4860  177.8240  141.1880 C   0  0  2  0  0  3  0  0  0  0  0  0
  187.2520  178.3870  142.3000 N   0  0  0  0  0  0  0  0  0  0  0  0
  191.8090  176.1650  145.9570 C   0  0  0  0  0  3  0  0  0  0  0  0
  183.4970  178.8720  144.4060 C   0  0  0  0  0  2  0  0  0  0  0  0
  183.4810  178.4140  142.1900 C   0  0  0  0  0  2  0  0  0  0  0  0
  191.8790  176.2660  143.5610 O   0  0  0  0  0  1  0  0  0  0  0  0
  187.9490  178.0380  145.9660 C   0  0  2  0  0  3  0  0  0  0  0  0
  191.1550  176.3890  147.1700 C   0  0  0  0  0  3  0  0  0  0  0  0
  189.9420  177.1450  144.7450 C   0  0  0  0  0  0  0  0  0  0  0  0
  187.1410  177.7000  144.7300 C   0  0  1  0  0  3  0  0  0  0  0  0
  184.6650  178.5570  147.0460 O   0  0  0  0  0  0  0  0  0  0  0  0
  185.8200  178.2560  144.9990 N   0  0  0  0  0  0  0  0  0  0  0  0
  182.6750  178.8390  143.2670 O   0  0  0  0  0  0  0  0  0  0  0  0
  185.8410  180.3700  142.7640 C   0  0  0  0  0  1  0  0  0  0  0  0
  189.8870  176.9710  147.1820 C   0  0  0  0  0  3  0  0  0  0  0  0
  189.2630  177.3180  145.9800 C   0  0  0  0  0  0  0  0  0  0  0  0
  185.9120  178.9570  142.1900 C   0  0  2  0  0  3  0  0  0  0  0  0
  189.6540  176.3810  140.7250 C   0  0  0  0  0  2  0  0  0  0  0  0
  190.1010  176.3760  138.5660 C   0  0  0  0  0  1  0  0  0  0  0  0
  190.7090  176.2940  139.8170 O   0  0  0  0  0  0  0  0  0  0  0  0
  1  5  1  6  0  0  0
  1  4  1  0  0  0  0
  1 19  1  0  0  0  0
  2 13  1  0  0  0  0
  4 12  1  6  0  0  0
  4 20  1  0  0  0  0
  6  8  2  0  0  0  0
  7 15  1  6  0  0  0
  7  9  1  0  0  0  0
  8 11  1  0  0  0  0
  8 12  1  0  0  0  0
  9 14  1  1  0  0  0
  9 22  1  0  0  0  0
 10 21  2  0  0  0  0
 10  3  1  0  0  0  0
 11 28  1  1  0  0  0
 11  5  1  0  0  0  0
 13 18  2  0  0  0  0
 15 23  1  0  0  0  0
 16  2  1  0  0  0  0
 17 26  1  0  0  0  0
 17  3  1  1  0  0  0
 18 25  1  0  0  0  0
 19  2  2  0  0  0  0
 19 26  1  0  0  0  0
 20 22  1  1  0  0  0
 20 17  1  0  0  0  0
 22 10  1  0  0  0  0
 23 14  1  0  0  0  0
 26 25  2  0  0  0  0
 27 12  1  0  0  0  0
 27  7  1  0  0  0  0
 27 24  1  1  0  0  0
 29 30  1  0  0  0  0
 30 28  1  0  0  0  0
M  END
>  <MODEL>
2

>  <REMARK>
 VINA RESULT:      -9.1      1.963      5.681
  Name = 
  2 active torsions:
  status: ('A' for Active; 'I' for Inactive)
    1  A    between atoms: C_11  and  C_28
    2  A    between atoms: C_28  and  O_30
                            x       y       z     vdW  Elec       q    Type
                         _______ _______ _______ _____ _____    ______ ____

>  <TORSDO>
F 2

$$$$
=
 OpenBabel11122410223D

 30 35  0  0  1  0  0  0  0  0999 V2000
  186.4690  178.3030  142.5280 C   0  0  1  0  0  3  0  0  0  0  0  0
  187.1400  178.1350  144.9910 C   0  0  0  0  0  0  0  0  0  0  0  0
  182.3160  178.8140  143.6860 C   0  0  0  0  0  2  0  0  0  0  0  0
  185.3520  178.8300  141.5990 C   0  0  1  0  0  3  0  0  0  0  0  0
  187.6890  178.9140  142.1790 O   0  0  0  0  0  0  0  0  0  0  0  0
  187.4430  178.2960  138.6610 O   0  0  0  0  0  0  0  0  0  0  0  0
  183.6740  177.5880  139.1140 C   0  0  1  0  0  3  0  0  0  0  0  0
  187.0850  178.3930  139.8660 C   0  0  0  0  0  0  0  0  0  0  0  0
  182.5350  177.7200  140.0940 C   0  0  2  0  0  3  0  0  0  0  0  0
  181.8200  178.7270  142.2890 C   0  0  0  0  0  0  0  0  0  0  0  0
  188.1340  178.3500  140.9540 C   0  0  2  0  0  3  0  0  0  0  0  0
  185.6920  178.5110  140.2080 N   0  0  0  0  0  0  0  0  0  0  0  0
  186.8080  178.1380  146.3480 C   0  0  0  0  0  3  0  0  0  0  0  0
  181.4670  178.3820  139.2600 C   0  0  0  0  0  2  0  0  0  0  0  0
  182.9680  177.5750  137.7720 C   0  0  0  0  0  2  0  0  0  0  0  0
  188.4490  177.8550  144.6200 O   0  0  0  0  0  1  0  0  0  0  0  0
  183.7930  178.9600  143.4080 C   0  0  2  0  0  3  0  0  0  0  0  0
  185.4960  178.3880  146.7570 C   0  0  0  0  0  3  0  0  0  0  0  0
  186.1540  178.4050  144.0210 C   0  0  0  0  0  0  0  0  0  0  0  0
  184.0450  178.2300  142.1040 C   0  0  1  0  0  3  0  0  0  0  0  0
  180.5980  178.8110  141.9980 O   0  0  0  0  0  0  0  0  0  0  0  0
  182.8420  178.4740  141.3160 N   0  0  0  0  0  0  0  0  0  0  0  0
  181.6190  177.9560  137.9300 O   0  0  0  0  0  0  0  0  0  0  0  0
  184.1800  180.1260  139.0930 C   0  0  0  0  0  1  0  0  0  0  0  0
  184.5020  178.6280  145.8080 C   0  0  0  0  0  3  0  0  0  0  0  0
  184.8140  178.6040  144.4450 C   0  0  0  0  0  0  0  0  0  0  0  0
  184.7270  178.7020  139.1290 C   0  0  2  0  0  3  0  0  0  0  0  0
  188.6810  176.9380  141.1410 C   0  0  0  0  0  2  0  0  0  0  0  0
  190.6800  177.1290  140.2300 C   0  0  0  0  0  1  0  0  0  0  0  0
  190.0370  176.9940  141.4600 O   0  0  0  0  0  0  0  0  0  0  0  0
  1  5  1  1  0  0  0
  1 19  1  0  0  0  0
  2 13  1  0  0  0  0
  4 12  1  6  0  0  0
  4 20  1  0  0  0  0
  4  1  1  0  0  0  0
  6  8  2  0  0  0  0
  7 15  1  6  0  0  0
  7 27  1  0  0  0  0
  7  9  1  0  0  0  0
  8 12  1  0  0  0  0
  8 11  1  0  0  0  0
  9 14  1  6  0  0  0
  9 22  1  0  0  0  0
 10  3  1  0  0  0  0
 11 28  1  1  0  0  0
 11  5  1  0  0  0  0
 13 18  2  0  0  0  0
 15 23  1  0  0  0  0
 16  2  1  0  0  0  0
 17  3  1  1  0  0  0
 17 26  1  0  0  0  0
 19 26  1  0  0  0  0
 19  2  2  0  0  0  0
 20 22  1  6  0  0  0
 20 17  1  0  0  0  0
 21 10  2  0  0  0  0
 22 10  1  0  0  0  0
 23 14  1  0  0  0  0
 25 18  1  0  0  0  0
 26 25  2  0  0  0  0
 27 24  1  1  0  0  0
 27 12  1  0  0  0  0
 28 30  1  0  0  0  0
 29 30  1  0  0  0  0
M  END
>  <MODEL>
3

>  <REMARK>
 VINA RESULT:      -8.9      2.450      6.254
  Name = 
  2 active torsions:
  status: ('A' for Active; 'I' for Inactive)
    1  A    between atoms: C_11  and  C_28
    2  A    between atoms: C_28  and  O_30
                            x       y       z     vdW  Elec       q    Type
                         _______ _______ _______ _____ _____    ______ ____

>  <TORSDO>
F 2

$$$$
=
 OpenBabel11122410223D

 30 35  0  0  1  0  0  0  0  0999 V2000
  188.1620  177.8190  142.4820 C   0  0  1  0  0  3  0  0  0  0  0  0
  187.0240  177.9390  144.7710 C   0  0  0  0  0  0  0  0  0  0  0  0
  184.4500  179.0030  140.5670 C   0  0  0  0  0  2  0  0  0  0  0  0
  188.0430  178.3350  141.0310 C   0  0  1  0  0  3  0  0  0  0  0  0
  189.4030  178.2170  143.0170 O   0  0  0  0  0  0  0  0  0  0  0  0
  191.3890  177.1170  140.2480 O   0  0  0  0  0  0  0  0  0  0  0  0
  188.1850  176.9520  138.0980 C   0  0  1  0  0  3  0  0  0  0  0  0
  190.3610  177.4350  140.9060 C   0  0  0  0  0  0  0  0  0  0  0  0
  186.7360  177.3670  138.0670 C   0  0  2  0  0  3  0  0  0  0  0  0
  184.9750  178.7700  139.1980 C   0  0  0  0  0  0  0  0  0  0  0  0
  190.4180  177.4270  142.4160 C   0  0  2  0  0  3  0  0  0  0  0  0
  189.1360  177.7740  140.2300 N   0  0  0  0  0  0  0  0  0  0  0  0
  185.8980  178.1840  145.5620 C   0  0  0  0  0  3  0  0  0  0  0  0
  186.6170  178.0240  136.7140 C   0  0  0  0  0  2  0  0  0  0  0  0
  188.5350  176.8270  136.6280 C   0  0  0  0  0  2  0  0  0  0  0  0
  188.1750  177.4480  145.3750 O   0  0  0  0  0  1  0  0  0  0  0  0
  185.7460  178.9230  141.3380 C   0  0  2  0  0  3  0  0  0  0  0  0
  184.7150  178.6520  144.9860 C   0  0  0  0  0  3  0  0  0  0  0  0
  186.9800  178.1800  143.3840 C   0  0  0  0  0  0  0  0  0  0  0  0
  186.6390  177.9820  140.5550 C   0  0  1  0  0  3  0  0  0  0  0  0
  184.2810  178.9590  138.1640 O   0  0  0  0  0  0  0  0  0  0  0  0
  186.3110  178.2520  139.1600 N   0  0  0  0  0  0  0  0  0  0  0  0
  187.5120  177.3900  135.8370 O   0  0  0  0  0  0  0  0  0  0  0  0
  189.0560  179.3780  138.3440 C   0  0  0  0  0  1  0  0  0  0  0  0
  184.6460  178.8680  143.6100 C   0  0  0  0  0  3  0  0  0  0  0  0
  185.7560  178.6030  142.8020 C   0  0  0  0  0  0  0  0  0  0  0  0
  189.1630  177.9180  138.7770 C   0  0  2  0  0  3  0  0  0  0  0  0
  190.4310  176.0020  142.9610 C   0  0  0  0  0  2  0  0  0  0  0  0
  191.5440  176.3780  144.8280 C   0  0  0  0  0  1  0  0  0  0  0  0
  191.6500  175.7460  143.5900 O   0  0  0  0  0  0  0  0  0  0  0  0
  1  5  1  1  0  0  0
  1 19  1  0  0  0  0
  2 16  1  0  0  0  0
  2 13  1  0  0  0  0
  4 12  1  6  0  0  0
  4  1  1  0  0  0  0
  6  8  2  0  0  0  0
  7 15  1  6  0  0  0
  7 27  1  0  0  0  0
  8 11  1  0  0  0  0
  9 14  1  6  0  0  0
  9  7  1  0  0  0  0
  9 22  1  0  0  0  0
 10  3  1  0  0  0  0
 11 28  1  1  0  0  0
 11  5  1  0  0  0  0
 12  8  1  0  0  0  0
 17  3  1  6  0  0  0
 17 26  1  0  0  0  0
 18 13  2  0  0  0  0
 19  2  2  0  0  0  0
 20 22  1  6  0  0  0
 20  4  1  0  0  0  0
 20 17  1  0  0  0  0
 21 10  2  0  0  0  0
 22 10  1  0  0  0  0
 23 15  1  0  0  0  0
 23 14  1  0  0  0  0
 25 18  1  0  0  0  0
 26 19  1  0  0  0  0
 26 25  2  0  0  0  0
 27 24  1  1  0  0  0
 27 12  1  0  0  0  0
 28 30  1  0  0  0  0
 30 29  1  0  0  0  0
M  END
>  <MODEL>
4

>  <REMARK>
 VINA RESULT:      -8.5      1.635      5.703
  Name = 
  2 active torsions:
  status: ('A' for Active; 'I' for Inactive)
    1  A    between atoms: C_11  and  C_28
    2  A    between atoms: C_28  and  O_30
                            x       y       z     vdW  Elec       q    Type
                         _______ _______ _______ _____ _____    ______ ____

>  <TORSDO>
F 2

$$$$
=
 OpenBabel11122410223D

 30 35  0  0  1  0  0  0  0  0999 V2000
  187.1600  178.0220  141.6240 C   0  0  1  0  0  3  0  0  0  0  0  0
  188.4930  177.6650  143.7780 C   0  0  0  0  0  0  0  0  0  0  0  0
  183.5460  178.6290  143.9510 C   0  0  0  0  0  2  0  0  0  0  0  0
  185.8590  178.6540  141.0840 C   0  0  1  0  0  3  0  0  0  0  0  0
  188.2640  178.6030  140.9710 O   0  0  0  0  0  0  0  0  0  0  0  0
  186.9920  178.2270  137.6450 O   0  0  0  0  0  0  0  0  0  0  0  0
  183.4730  177.6480  139.1260 C   0  0  1  0  0  3  0  0  0  0  0  0
  186.9980  178.2600  138.9050 C   0  0  0  0  0  0  0  0  0  0  0  0
  182.6700  177.7630  140.3970 C   0  0  2  0  0  3  0  0  0  0  0  0
  182.6690  178.6530  142.7530 C   0  0  0  0  0  0  0  0  0  0  0  0
  188.3090  178.1020  139.6430 C   0  0  2  0  0  3  0  0  0  0  0  0
  185.7690  178.4140  139.6390 N   0  0  0  0  0  0  0  0  0  0  0  0
  188.5620  177.5940  145.1720 C   0  0  0  0  0  3  0  0  0  0  0  0
  181.4490  178.5230  139.9400 C   0  0  0  0  0  2  0  0  0  0  0  0
  182.4150  177.7530  138.0440 C   0  0  0  0  0  2  0  0  0  0  0  0
  189.6240  177.3560  143.0340 O   0  0  0  0  0  1  0  0  0  0  0  0
  184.8880  178.7310  143.2680 C   0  0  2  0  0  3  0  0  0  0  0  0
  187.4370  177.8710  145.9530 C   0  0  0  0  0  3  0  0  0  0  0  0
  187.2900  178.0390  143.1480 C   0  0  0  0  0  0  0  0  0  0  0  0
  184.7160  178.0780  141.9120 C   0  0  1  0  0  3  0  0  0  0  0  0
  181.4210  178.8070  142.8300 O   0  0  0  0  0  0  0  0  0  0  0  0
  183.3550  178.4220  141.5160 N   0  0  0  0  0  0  0  0  0  0  0  0
  181.1920  178.1790  138.6020 O   0  0  0  0  0  0  0  0  0  0  0  0
  184.1010  180.1600  139.0890 C   0  0  0  0  0  1  0  0  0  0  0  0
  186.2300  178.2140  145.3430 C   0  0  0  0  0  3  0  0  0  0  0  0
  186.1400  178.2660  143.9480 C   0  0  0  0  0  0  0  0  0  0  0  0
  184.5500  178.7140  138.8940 C   0  0  2  0  0  3  0  0  0  0  0  0
  188.8020  176.6600  139.5920 C   0  0  0  0  0  2  0  0  0  0  0  0
  190.9690  177.0740  139.6100 C   0  0  0  0  0  1  0  0  0  0  0  0
  189.9480  176.5790  138.8000 O   0  0  0  0  0  0  0  0  0  0  0  0
  1  5  1  6  0  0  0
  1 19  1  0  0  0  0
  2 13  1  0  0  0  0
  4 12  1  6  0  0  0
  4  1  1  0  0  0  0
  4 20  1  0  0  0  0
  6  8  2  0  0  0  0
  7 15  1  6  0  0  0
  7  9  1  0  0  0  0
  8 12  1  0  0  0  0
  8 11  1  0  0  0  0
  9 14  1  6  0  0  0
  9 22  1  0  0  0  0
 10 21  2  0  0  0  0
 10  3  1  0  0  0  0
 11 28  1  1  0  0  0
 11  5  1  0  0  0  0
 13 18  2  0  0  0  0
 15 23  1  0  0  0  0
 16  2  1  0  0  0  0
 17 26  1  0  0  0  0
 17  3  1  1  0  0  0
 19  2  2  0  0  0  0
 19 26  1  0  0  0  0
 20 22  1  6  0  0  0
 20 17  1  0  0  0  0
 22 10  1  0  0  0  0
 23 14  1  0  0  0  0
 25 18  1  0  0  0  0
 26 25  2  0  0  0  0
 27 24  1  1  0  0  0
 27  7  1  0  0  0  0
 27 12  1  0  0  0  0
 30 28  1  0  0  0  0
 30 29  1  0  0  0  0
M  END
>  <MODEL>
5

>  <REMARK>
 VINA RESULT:      -8.1      2.386      6.030
  Name = 
  2 active torsions:
  status: ('A' for Active; 'I' for Inactive)
    1  A    between atoms: C_11  and  C_28
    2  A    between atoms: C_28  and  O_30
                            x       y       z     vdW  Elec       q    Type
                         _______ _______ _______ _____ _____    ______ ____

>  <TORSDO>
F 2

$$$$
=
 OpenBabel11122410223D

 30 35  0  0  1  0  0  0  0  0999 V2000
  186.8790  178.0240  140.2500 C   0  0  1  0  0  3  0  0  0  0  0  0
  188.6980  177.1590  138.6730 C   0  0  0  0  0  0  0  0  0  0  0  0
  189.5930  177.6170  143.6150 C   0  0  0  0  0  2  0  0  0  0  0  0
  186.6730  178.6780  141.6340 C   0  0  1  0  0  3  0  0  0  0  0  0
  186.3370  178.8610  139.2560 O   0  0  0  0  0  0  0  0  0  0  0  0
  183.1790  179.3790  140.8630 O   0  0  0  0  0  0  0  0  0  0  0  0
  184.7230  178.1020  144.1640 C   0  0  1  0  0  3  0  0  0  0  0  0
  184.3850  179.0390  140.7210 C   0  0  0  0  0  0  0  0  0  0  0  0
  186.0350  177.7700  144.8290 C   0  0  2  0  0  3  0  0  0  0  0  0
  188.5410  177.9220  144.6180 C   0  0  0  0  0  0  0  0  0  0  0  0
  184.9210  178.7790  139.3310 C   0  0  2  0  0  3  0  0  0  0  0  0
  185.2370  178.8680  141.8690 N   0  0  0  0  0  0  0  0  0  0  0  0
  189.9930  176.6850  138.4480 C   0  0  0  0  0  3  0  0  0  0  0  0
  185.9390  178.5270  146.1290 C   0  0  0  0  0  2  0  0  0  0  0  0
  183.8220  178.4330  145.3380 C   0  0  0  0  0  2  0  0  0  0  0  0
  187.7970  177.1770  137.6160 O   0  0  0  0  0  1  0  0  0  0  0  0
  188.8550  178.0270  142.3620 C   0  0  2  0  0  3  0  0  0  0  0  0
  190.9180  176.6260  139.4930 C   0  0  0  0  0  3  0  0  0  0  0  0
  188.3190  177.6010  139.9560 C   0  0  0  0  0  0  0  0  0  0  0  0
  187.3860  177.7910  142.6480 C   0  0  1  0  0  3  0  0  0  0  0  0
  188.7710  177.9430  145.8560 O   0  0  0  0  0  0  0  0  0  0  0  0
  187.2360  178.1240  144.0600 N   0  0  0  0  0  0  0  0  0  0  0  0
  184.5890  178.5730  146.5130 O   0  0  0  0  0  0  0  0  0  0  0  0
  185.3900  180.5550  143.6760 C   0  0  0  0  0  1  0  0  0  0  0  0
  190.5490  177.0330  140.7760 C   0  0  0  0  0  3  0  0  0  0  0  0
  189.2490  177.4870  141.0210 C   0  0  0  0  0  0  0  0  0  0  0  0
  184.7290  179.2740  143.1760 C   0  0  2  0  0  3  0  0  0  0  0  0
  184.3940  177.4620  138.7720 C   0  0  0  0  0  2  0  0  0  0  0  0
  182.6990  178.0710  137.4990 C   0  0  0  0  0  1  0  0  0  0  0  0
  184.0200  177.6300  137.4390 O   0  0  0  0  0  0  0  0  0  0  0  0
  1  5  1  6  0  0  0
  1  4  1  0  0  0  0
  2 19  1  0  0  0  0
  3 10  1  0  0  0  0
  4 12  1  1  0  0  0
  4 20  1  0  0  0  0
  5 11  1  0  0  0  0
  7  9  1  0  0  0  0
  7 15  1  1  0  0  0
  8  6  2  0  0  0  0
  8 12  1  0  0  0  0
  9 14  1  1  0  0  0
 10 21  2  0  0  0  0
 11 28  1  1  0  0  0
 11  8  1  0  0  0  0
 12 27  1  0  0  0  0
 13  2  2  0  0  0  0
 13 18  1  0  0  0  0
 14 23  1  0  0  0  0
 15 23  1  0  0  0  0
 16  2  1  0  0  0  0
 17 20  1  0  0  0  0
 17  3  1  1  0  0  0
 18 25  2  0  0  0  0
 19  1  1  0  0  0  0
 19 26  2  0  0  0  0
 20 22  1  1  0  0  0
 22 10  1  0  0  0  0
 22  9  1  0  0  0  0
 25 26  1  0  0  0  0
 26 17  1  0  0  0  0
 27 24  1  1  0  0  0
 27  7  1  0  0  0  0
 30 29  1  0  0  0  0
 30 28  1  0  0  0  0
M  END
>  <MODEL>
6

>  <REMARK>
 VINA RESULT:      -7.2      1.807      5.049
  Name = 
  2 active torsions:
  status: ('A' for Active; 'I' for Inactive)
    1  A    between atoms: C_11  and  C_28
    2  A    between atoms: C_28  and  O_30
                            x       y       z     vdW  Elec       q    Type
                         _______ _______ _______ _____ _____    ______ ____

>  <TORSDO>
F 2

$$$$
=
 OpenBabel11122410223D

 30 35  0  0  1  0  0  0  0  0999 V2000
  185.7930  178.4410  141.0340 C   0  0  1  0  0  3  0  0  0  0  0  0
  184.2130  178.8540  143.0040 C   0  0  0  0  0  0  0  0  0  0  0  0
  182.3870  178.1180  138.3610 C   0  0  0  0  0  2  0  0  0  0  0  0
  185.8700  178.5180  139.4940 C   0  0  1  0  0  3  0  0  0  0  0  0
  186.7920  179.2610  141.5920 O   0  0  0  0  0  0  0  0  0  0  0  0
  189.4810  178.0220  139.5770 O   0  0  0  0  0  0  0  0  0  0  0  0
  186.8830  176.5090  137.1540 C   0  0  1  0  0  3  0  0  0  0  0  0
  188.2990  178.2300  139.9620 C   0  0  0  0  0  0  0  0  0  0  0  0
  185.4170  176.5240  136.8010 C   0  0  2  0  0  3  0  0  0  0  0  0
  183.2170  177.6810  137.2090 C   0  0  0  0  0  0  0  0  0  0  0  0
  188.0470  178.6250  141.4000 C   0  0  2  0  0  3  0  0  0  0  0  0
  187.1940  178.0630  139.0540 N   0  0  0  0  0  0  0  0  0  0  0  0
  182.9240  179.0040  143.5230 C   0  0  0  0  0  3  0  0  0  0  0  0
  185.4460  176.7590  135.3110 C   0  0  0  0  0  2  0  0  0  0  0  0
  187.5420  176.1020  135.8510 C   0  0  0  0  0  2  0  0  0  0  0  0
  185.2920  178.8410  143.8790 O   0  0  0  0  0  1  0  0  0  0  0  0
  183.4880  178.5680  139.2910 C   0  0  2  0  0  3  0  0  0  0  0  0
  181.8130  178.9950  142.6770 C   0  0  0  0  0  3  0  0  0  0  0  0
  184.4040  178.7120  141.6150 C   0  0  0  0  0  0  0  0  0  0  0  0
  184.6930  177.7140  138.9550 C   0  0  1  0  0  3  0  0  0  0  0  0
  182.7240  177.4170  136.0800 O   0  0  0  0  0  0  0  0  0  0  0  0
  184.6090  177.5240  137.5120 N   0  0  0  0  0  0  0  0  0  0  0  0
  186.6100  176.1670  134.7950 O   0  0  0  0  0  0  0  0  0  0  0  0
  187.1760  179.0550  136.7840 C   0  0  0  0  0  1  0  0  0  0  0  0
  181.9830  178.8250  141.3020 C   0  0  0  0  0  3  0  0  0  0  0  0
  183.2650  178.6490  140.7710 C   0  0  0  0  0  0  0  0  0  0  0  0
  187.4860  177.8320  137.6420 C   0  0  2  0  0  3  0  0  0  0  0  0
  188.2360  177.4390  142.3400 C   0  0  0  0  0  2  0  0  0  0  0  0
  189.9660  176.1620  142.8320 C   0  0  0  0  0  1  0  0  0  0  0  0
  189.5130  177.4790  142.9020 O   0  0  0  0  0  0  0  0  0  0  0  0
  1  5  1  1  0  0  0
  1 19  1  0  0  0  0
  2 13  1  0  0  0  0
  2 16  1  0  0  0  0
  4 12  1  6  0  0  0
  4  1  1  0  0  0  0
  6  8  2  0  0  0  0
  7 15  1  6  0  0  0
  7 27  1  0  0  0  0
  8 11  1  0  0  0  0
  9 14  1  6  0  0  0
  9  7  1  0  0  0  0
  9 22  1  0  0  0  0
 10 22  1  0  0  0  0
 10  3  1  0  0  0  0
 11  5  1  0  0  0  0
 11 28  1  1  0  0  0
 12  8  1  0  0  0  0
 17  3  1  6  0  0  0
 17 26  1  0  0  0  0
 18 13  2  0  0  0  0
 19  2  2  0  0  0  0
 20 22  1  6  0  0  0
 20 17  1  0  0  0  0
 20  4  1  0  0  0  0
 21 10  2  0  0  0  0
 23 14  1  0  0  0  0
 23 15  1  0  0  0  0
 25 18  1  0  0  0  0
 26 25  2  0  0  0  0
 26 19  1  0  0  0  0
 27 24  1  6  0  0  0
 27 12  1  0  0  0  0
 28 30  1  0  0  0  0
 29 30  1  0  0  0  0
M  END
>  <MODEL>
7

>  <REMARK>
 VINA RESULT:      -7.0      2.688      6.340
  Name = 
  2 active torsions:
  status: ('A' for Active; 'I' for Inactive)
    1  A    between atoms: C_11  and  C_28
    2  A    between atoms: C_28  and  O_30
                            x       y       z     vdW  Elec       q    Type
                         _______ _______ _______ _____ _____    ______ ____

>  <TORSDO>
F 2

$$$$
=
 OpenBabel11122410223D

 30 35  0  0  1  0  0  0  0  0999 V2000
  185.9900  178.3460  140.2650 C   0  0  1  0  0  3  0  0  0  0  0  0
  187.3360  177.8420  138.1480 C   0  0  0  0  0  0  0  0  0  0  0  0
  189.6130  178.0760  142.6420 C   0  0  0  0  0  2  0  0  0  0  0  0
  186.1380  178.8700  141.7100 C   0  0  1  0  0  3  0  0  0  0  0  0
  185.0880  179.1690  139.5630 O   0  0  0  0  0  0  0  0  0  0  0  0
  182.5190  179.1490  142.0570 O   0  0  0  0  0  0  0  0  0  0  0  0
  185.1070  177.8670  144.6200 C   0  0  1  0  0  3  0  0  0  0  0  0
  183.6560  178.9840  141.5380 C   0  0  0  0  0  0  0  0  0  0  0  0
  186.5860  177.6690  144.8390 C   0  0  2  0  0  3  0  0  0  0  0  0
  188.8820  178.1680  143.9320 C   0  0  0  0  0  0  0  0  0  0  0  0
  183.7770  178.8940  140.0340 C   0  0  2  0  0  3  0  0  0  0  0  0
  184.8260  178.8500  142.3670 N   0  0  0  0  0  0  0  0  0  0  0  0
  188.5480  177.5610  137.5120 C   0  0  0  0  0  3  0  0  0  0  0  0
  186.8030  178.3150  146.1840 C   0  0  0  0  0  2  0  0  0  0  0  0
  184.5690  177.9940  146.0320 C   0  0  0  0  0  2  0  0  0  0  0  0
  186.1630  177.8120  137.4040 O   0  0  0  0  0  1  0  0  0  0  0  0
  188.4950  178.4680  141.7060 C   0  0  2  0  0  3  0  0  0  0  0  0
  189.7430  177.5560  138.2330 C   0  0  0  0  0  3  0  0  0  0  0  0
  187.3120  178.1410  139.5250 C   0  0  0  0  0  0  0  0  0  0  0  0
  187.2130  178.0190  142.3760 C   0  0  1  0  0  3  0  0  0  0  0  0
  189.4680  178.1350  145.0460 O   0  0  0  0  0  0  0  0  0  0  0  0
  187.4570  178.2310  143.7990 N   0  0  0  0  0  0  0  0  0  0  0  0
  185.6320  178.1540  146.9440 O   0  0  0  0  0  0  0  0  0  0  0  0
  185.3300  180.4150  144.2200 C   0  0  0  0  0  1  0  0  0  0  0  0
  189.7340  177.8200  139.6030 C   0  0  0  0  0  3  0  0  0  0  0  0
  188.5260  178.0790  140.2590 C   0  0  0  0  0  0  0  0  0  0  0  0
  184.6910  179.0940  143.8000 C   0  0  2  0  0  3  0  0  0  0  0  0
  183.2510  177.5600  139.5150 C   0  0  0  0  0  2  0  0  0  0  0  0
  181.8650  178.6790  138.2160 C   0  0  0  0  0  1  0  0  0  0  0  0
  182.8500  177.6930  138.1860 O   0  0  0  0  0  0  0  0  0  0  0  0
  1 19  1  6  0  0  0
  1  4  1  0  0  0  0
  2 19  1  0  0  0  0
  3 10  1  0  0  0  0
  4 12  1  1  0  0  0
  4 20  1  0  0  0  0
  5 11  1  0  0  0  0
  5  1  1  0  0  0  0
  7  9  1  0  0  0  0
  7 15  1  1  0  0  0
  8  6  2  0  0  0  0
  8 12  1  0  0  0  0
  9 14  1  1  0  0  0
 10 21  2  0  0  0  0
 11 28  1  1  0  0  0
 11  8  1  0  0  0  0
 12 27  1  0  0  0  0
 13  2  2  0  0  0  0
 13 18  1  0  0  0  0
 14 23  1  0  0  0  0
 15 23  1  0  0  0  0
 16  2  1  0  0  0  0
 17 20  1  0  0  0  0
 17  3  1  1  0  0  0
 18 25  2  0  0  0  0
 19 26  2  0  0  0  0
 20 22  1  1  0  0  0
 22 10  1  0  0  0  0
 22  9  1  0  0  0  0
 25 26  1  0  0  0  0
 26 17  1  0  0  0  0
 27 24  1  1  0  0  0
 27  7  1  0  0  0  0
 30 29  1  0  0  0  0
 30 28  1  0  0  0  0
M  END
>  <MODEL>
8

>  <REMARK>
 VINA RESULT:      -6.8      1.923      5.064
  Name = 
  2 active torsions:
  status: ('A' for Active; 'I' for Inactive)
    1  A    between atoms: C_11  and  C_28
    2  A    between atoms: C_28  and  O_30
                            x       y       z     vdW  Elec       q    Type
                         _______ _______ _______ _____ _____    ______ ____

>  <TORSDO>
F 2

$$$$
=
 OpenBabel11122410223D

 30 35  0  0  1  0  0  0  0  0999 V2000
  187.6300  177.9540  142.5480 C   0  0  1  0  0  3  0  0  0  0  0  0
  188.4720  177.7690  144.9570 C   0  0  0  0  0  0  0  0  0  0  0  0
  191.5280  176.7250  141.0830 C   0  0  0  0  0  2  0  0  0  0  0  0
  187.9180  177.4620  141.1120 C   0  0  1  0  0  3  0  0  0  0  0  0
  186.3250  177.5740  142.9160 O   0  0  0  0  0  0  0  0  0  0  0  0
  184.7200  178.7660  139.9450 O   0  0  0  0  0  0  0  0  0  0  0  0
  188.1680  178.9000  138.2130 C   0  0  1  0  0  3  0  0  0  0  0  0
  185.6510  178.4140  140.7190 C   0  0  0  0  0  0  0  0  0  0  0  0
  189.6020  178.4540  138.3530 C   0  0  2  0  0  3  0  0  0  0  0  0
  191.1810  176.9930  139.6650 C   0  0  0  0  0  0  0  0  0  0  0  0
  185.4070  178.3970  142.2110 C   0  0  2  0  0  3  0  0  0  0  0  0
  186.9450  178.0610  140.1930 N   0  0  0  0  0  0  0  0  0  0  0  0
  189.4850  177.4850  145.8760 C   0  0  0  0  0  3  0  0  0  0  0  0
  189.8750  177.8190  137.0130 C   0  0  0  0  0  2  0  0  0  0  0  0
  188.0070  179.0590  136.7140 C   0  0  0  0  0  2  0  0  0  0  0  0
  187.2640  178.2740  145.4230 O   0  0  0  0  0  1  0  0  0  0  0  0
  190.1480  176.8190  141.6890 C   0  0  2  0  0  3  0  0  0  0  0  0
  190.7220  177.0020  145.4420 C   0  0  0  0  0  3  0  0  0  0  0  0
  188.6830  177.5520  143.5810 C   0  0  0  0  0  0  0  0  0  0  0  0
  189.3770  177.7930  140.8210 C   0  0  1  0  0  3  0  0  0  0  0  0
  191.9950  176.8080  138.7210 O   0  0  0  0  0  0  0  0  0  0  0  0
  189.8700  177.5410  139.4720 N   0  0  0  0  0  0  0  0  0  0  0  0
  189.1090  178.4880  136.0440 O   0  0  0  0  0  0  0  0  0  0  0  0
  187.2280  176.4900  138.3000 C   0  0  0  0  0  1  0  0  0  0  0  0
  190.9570  176.8090  144.0810 C   0  0  0  0  0  3  0  0  0  0  0  0
  189.9610  177.1120  143.1470 C   0  0  0  0  0  0  0  0  0  0  0  0
  187.0950  177.9430  138.7460 C   0  0  2  0  0  3  0  0  0  0  0  0
  185.3550  179.8110  142.7790 C   0  0  0  0  0  2  0  0  0  0  0  0
  183.4470  179.2010  143.7020 C   0  0  0  0  0  1  0  0  0  0  0  0
  184.6670  179.8080  143.9930 O   0  0  0  0  0  0  0  0  0  0  0  0
  1  5  1  1  0  0  0
  1 19  1  0  0  0  0
  2 16  1  0  0  0  0
  2 13  1  0  0  0  0
  4 12  1  6  0  0  0
  4  1  1  0  0  0  0
  6  8  2  0  0  0  0
  7 15  1  6  0  0  0
  7  9  1  0  0  0  0
  7 27  1  0  0  0  0
  8 11  1  0  0  0  0
  9 14  1  6  0  0  0
  9 22  1  0  0  0  0
 10  3  1  0  0  0  0
 11 28  1  1  0  0  0
 11  5  1  0  0  0  0
 12  8  1  0  0  0  0
 17  3  1  6  0  0  0
 17 26  1  0  0  0  0
 18 13  2  0  0  0  0
 19  2  2  0  0  0  0
 20 22  1  6  0  0  0
 20  4  1  0  0  0  0
 20 17  1  0  0  0  0
 21 10  2  0  0  0  0
 22 10  1  0  0  0  0
 23 15  1  0  0  0  0
 23 14  1  0  0  0  0
 25 18  1  0  0  0  0
 26 19  1  0  0  0  0
 26 25  2  0  0  0  0
 27 24  1  1  0  0  0
 27 12  1  0  0  0  0
 28 30  1  0  0  0  0
 29 30  1  0  0  0  0
M  END
>  <MODEL>
9

>  <REMARK>
 VINA RESULT:      -6.5      1.840      6.421
  Name = 
  2 active torsions:
  status: ('A' for Active; 'I' for Inactive)
    1  A    between atoms: C_11  and  C_28
    2  A    between atoms: C_28  and  O_30
                            x       y       z     vdW  Elec       q    Type
                         _______ _______ _______ _____ _____    ______ ____

>  <TORSDO>
F 2

$$$$
