=
 OpenBabel11122412173D

 34 40  0  0  1  0  0  0  0  0999 V2000
  185.5290  178.5800  140.5560 C   0  0  0  0  0  0  0  0  0  0  0  0
  187.5120  178.0600  141.8590 N   0  0  0  0  0  2  0  0  0  0  0  0
  180.2620  176.1870  139.9640 C   0  0  0  0  0  2  0  0  0  0  0  0
  183.3710  178.6740  139.4090 C   0  0  0  0  0  0  0  0  0  0  0  0
  181.3100  178.9280  140.7520 C   0  0  0  0  0  0  0  0  0  0  0  0
  179.2190  177.8390  141.5750 C   0  0  0  0  0  2  0  0  0  0  0  0
  178.9730  176.6550  140.6380 C   0  0  0  0  0  2  0  0  0  0  0  0
  179.9510  177.9640  138.1680 C   0  0  0  0  0  2  0  0  0  0  0  0
  185.6650  178.9970  142.9920 C   0  0  1  0  0  3  0  0  0  0  0  0
  185.3430  179.0890  145.9310 C   0  0  0  0  0  2  0  0  0  0  0  0
  182.0370  178.8880  141.8280 N   0  0  0  0  0  0  0  0  0  0  0  0
  181.1730  178.8860  138.2070 C   0  0  0  0  0  2  0  0  0  0  0  0
  184.2160  178.7500  143.0340 N   0  0  2  0  0  0  0  0  0  0  0  0
  187.7690  177.8380  143.2210 N   0  0  0  0  0  2  0  0  0  0  0  0
  181.9370  178.8070  139.4590 N   0  0  0  0  0  0  0  0  0  0  0  0
  180.2680  176.4990  138.4660 C   0  0  0  0  0  2  0  0  0  0  0  0
  186.6440  178.5650  145.3060 C   0  0  2  0  0  3  0  0  0  0  0  0
  184.1200  178.7150  140.6060 C   0  0  0  0  0  0  0  0  0  0  0  0
  179.8860  178.9260  140.8710 N   0  0  0  0  0  2  0  0  0  0  0  0
  183.4730  178.7980  141.7930 C   0  0  1  0  0  3  0  0  0  0  0  0
  185.4150  178.2700  138.1530 C   0  0  0  0  0  3  0  0  0  0  0  0
  184.1060  178.3130  145.4880 C   0  0  0  0  0  2  0  0  0  0  0  0
  184.0310  178.4520  138.1900 C   0  0  0  0  0  3  0  0  0  0  0  0
  183.4770  178.9950  144.2760 C   0  0  0  0  0  2  0  0  0  0  0  0
  186.4670  178.0450  143.8780 C   0  0  1  0  0  3  0  0  0  0  0  0
  186.1590  178.3260  139.3310 C   0  0  0  0  0  3  0  0  0  0  0  0
  186.2440  178.6510  141.6840 C   0  0  2  0  0  3  0  0  0  0  0  0
  187.2310  177.4660  146.1790 C   0  0  0  0  0  2  0  0  0  0  0  0
  188.5410  177.8620  146.6690 N   0  0  0  0  0  2  0  0  0  0  0  0
  191.7610  177.3100  146.0640 O   0  0  0  0  0  0  0  0  0  0  0  0
  190.2650  176.3560  147.4040 C   0  0  0  0  0  3  0  0  0  0  0  0
  189.4870  176.8490  146.2300 C   0  0  2  0  0  3  0  0  0  0  0  0
  191.5430  176.6450  147.2540 C   0  0  0  0  0  3  0  0  0  0  0  0
  190.5550  177.4890  145.3430 C   0  0  0  0  0  2  0  0  0  0  0  0
  1 18  1  0  0  0  0
  1 27  1  0  0  0  0
  2 14  1  0  0  0  0
  3  7  1  0  0  0  0
  4 15  1  0  0  0  0
  4 18  2  0  0  0  0
  5 19  1  0  0  0  0
  5 11  2  0  0  0  0
  7  6  1  0  0  0  0
  8 12  1  0  0  0  0
  8 16  1  0  0  0  0
  9 13  1  0  0  0  0
  9 25  1  0  0  0  0
 12 15  1  0  0  0  0
 13 24  1  0  0  0  0
 14 25  1  0  0  0  0
 15  5  1  0  0  0  0
 16  3  1  0  0  0  0
 17 10  1  0  0  0  0
 17 28  1  0  0  0  0
 18 20  1  0  0  0  0
 19  6  1  0  0  0  0
 20 11  1  0  0  0  0
 20 13  1  0  0  0  0
 21 23  2  0  0  0  0
 21 26  1  0  0  0  0
 22 10  1  0  0  0  0
 23  4  1  0  0  0  0
 24 22  1  0  0  0  0
 25 17  1  0  0  0  0
 26  1  2  0  0  0  0
 27  2  1  0  0  0  0
 27  9  1  0  0  0  0
 28 29  1  0  0  0  0
 30 33  1  0  0  0  0
 32 29  1  0  0  0  0
 32 31  1  0  0  0  0
 33 31  2  0  0  0  0
 34 30  1  0  0  0  0
 34 32  1  0  0  0  0
M  END
>  <MODEL>
1

>  <REMARK>
 VINA RESULT:      -8.8      0.000      0.000
  Name = 
  3 active torsions:
  status: ('A' for Active; 'I' for Inactive)
    1  A    between atoms: C_17  and  C_28
    2  A    between atoms: C_28  and  N_29
    3  A    between atoms: N_29  and  C_32
                            x       y       z     vdW  Elec       q    Type
                         _______ _______ _______ _____ _____    ______ ____

>  <TORSDO>
F 3

$$$$
=
 OpenBabel11122412173D

 34 40  0  0  1  0  0  0  0  0999 V2000
  190.1510  177.4840  140.7260 C   0  0  0  0  0  0  0  0  0  0  0  0
  190.3860  177.0670  143.1070 N   0  0  0  0  0  2  0  0  0  0  0  0
  186.7850  175.3400  136.4960 C   0  0  0  0  0  2  0  0  0  0  0  0
  189.6170  177.5170  138.3400 C   0  0  0  0  0  0  0  0  0  0  0  0
  187.3210  178.1070  137.6330 C   0  0  0  0  0  0  0  0  0  0  0  0
  185.1760  177.2890  136.6480 C   0  0  0  0  0  2  0  0  0  0  0  0
  185.5220  175.9860  135.9270 C   0  0  0  0  0  2  0  0  0  0  0  0
  188.2040  176.8170  134.9850 C   0  0  0  0  0  2  0  0  0  0  0  0
  188.4960  178.2820  142.3840 C   0  0  1  0  0  3  0  0  0  0  0  0
  186.1160  178.8680  144.0420 C   0  0  0  0  0  2  0  0  0  0  0  0
  186.9870  178.1980  138.8850 N   0  0  0  0  0  0  0  0  0  0  0  0
  189.1170  177.6600  135.8790 C   0  0  0  0  0  2  0  0  0  0  0  0
  187.4840  178.1300  141.3280 N   0  0  2  0  0  0  0  0  0  0  0  0
  189.5050  177.0540  144.2000 N   0  0  0  0  0  2  0  0  0  0  0  0
  188.6710  177.7400  137.2760 N   0  0  0  0  0  0  0  0  0  0  0  0
  187.9520  175.4040  135.5090 C   0  0  0  0  0  2  0  0  0  0  0  0
  187.3420  178.1740  144.6560 C   0  0  2  0  0  3  0  0  0  0  0  0
  189.2200  177.7070  139.6810 C   0  0  0  0  0  0  0  0  0  0  0  0
  186.3080  178.2070  136.6310 N   0  0  0  0  0  2  0  0  0  0  0  0
  187.9310  178.0200  139.9570 C   0  0  1  0  0  3  0  0  0  0  0  0
  191.8120  176.7950  139.0980 C   0  0  0  0  0  3  0  0  0  0  0  0
  185.5180  178.1040  142.8640 C   0  0  0  0  0  2  0  0  0  0  0  0
  190.9160  177.0620  138.0630 C   0  0  0  0  0  3  0  0  0  0  0  0
  186.1200  178.6160  141.5590 C   0  0  0  0  0  2  0  0  0  0  0  0
  188.2050  177.4410  143.6270 C   0  0  1  0  0  3  0  0  0  0  0  0
  191.4300  176.9980  140.4240 C   0  0  0  0  0  3  0  0  0  0  0  0
  189.7880  177.6950  141.9960 C   0  0  2  0  0  3  0  0  0  0  0  0
  186.8970  177.1980  145.7350 C   0  0  0  0  0  2  0  0  0  0  0  0
  186.6090  177.9140  146.9670 N   0  0  0  0  0  2  0  0  0  0  0  0
  189.7740  177.2170  147.6970 O   0  0  0  0  0  0  0  0  0  0  0  0
  188.2120  178.4660  148.6710 C   0  0  0  0  0  3  0  0  0  0  0  0
  187.4720  177.3600  147.9970 C   0  0  2  0  0  3  0  0  0  0  0  0
  189.5090  178.3320  148.4670 C   0  0  0  0  0  3  0  0  0  0  0  0
  188.5830  176.5340  147.3500 C   0  0  0  0  0  2  0  0  0  0  0  0
  1 27  1  0  0  0  0
  2 14  1  0  0  0  0
  4 18  1  0  0  0  0
  5 11  2  0  0  0  0
  7  3  1  0  0  0  0
  7  6  1  0  0  0  0
  8 16  1  0  0  0  0
  8 12  1  0  0  0  0
  9 25  1  0  0  0  0
 10 17  1  0  0  0  0
 11 20  1  0  0  0  0
 12 15  1  0  0  0  0
 13 24  1  0  0  0  0
 13  9  1  0  0  0  0
 15  5  1  0  0  0  0
 15  4  1  0  0  0  0
 16  3  1  0  0  0  0
 17 28  1  0  0  0  0
 18 20  1  0  0  0  0
 18  1  2  0  0  0  0
 19  6  1  0  0  0  0
 19  5  1  0  0  0  0
 20 13  1  0  0  0  0
 21 26  2  0  0  0  0
 22 10  1  0  0  0  0
 23  4  2  0  0  0  0
 23 21  1  0  0  0  0
 24 22  1  0  0  0  0
 25 14  1  0  0  0  0
 25 17  1  0  0  0  0
 26  1  1  0  0  0  0
 27  9  1  0  0  0  0
 27  2  1  0  0  0  0
 28 29  1  0  0  0  0
 29 32  1  0  0  0  0
 30 33  1  0  0  0  0
 32 31  1  0  0  0  0
 33 31  2  0  0  0  0
 34 30  1  0  0  0  0
 34 32  1  0  0  0  0
M  END
>  <MODEL>
2

>  <REMARK>
 VINA RESULT:      -8.4      3.632      5.315
  Name = 
  3 active torsions:
  status: ('A' for Active; 'I' for Inactive)
    1  A    between atoms: C_17  and  C_28
    2  A    between atoms: C_28  and  N_29
    3  A    between atoms: N_29  and  C_32
                            x       y       z     vdW  Elec       q    Type
                         _______ _______ _______ _____ _____    ______ ____

>  <TORSDO>
F 3

$$$$
=
 OpenBabel11122412173D

 34 40  0  0  1  0  0  0  0  0999 V2000
  188.3170  177.9940  141.4440 C   0  0  0  0  0  0  0  0  0  0  0  0
  186.4200  178.1810  142.9510 N   0  0  0  0  0  2  0  0  0  0  0  0
  189.8010  174.3710  137.1450 C   0  0  0  0  0  2  0  0  0  0  0  0
  190.0170  177.3840  139.7970 C   0  0  0  0  0  0  0  0  0  0  0  0
  189.4130  177.3740  137.3980 C   0  0  0  0  0  0  0  0  0  0  0  0
  188.9860  175.9820  135.3690 C   0  0  0  0  0  2  0  0  0  0  0  0
  189.6500  174.6320  135.6470 C   0  0  0  0  0  2  0  0  0  0  0  0
  191.9750  175.6940  137.1410 C   0  0  0  0  0  2  0  0  0  0  0  0
  186.1100  178.8380  140.7050 C   0  0  1  0  0  3  0  0  0  0  0  0
  183.4900  179.3500  139.4300 C   0  0  0  0  0  2  0  0  0  0  0  0
  188.1970  177.6880  137.7300 N   0  0  0  0  0  0  0  0  0  0  0  0
  191.8090  176.8700  138.1080 C   0  0  0  0  0  2  0  0  0  0  0  0
  186.4250  178.2700  139.3860 N   0  0  2  0  0  0  0  0  0  0  0  0
  185.0280  178.2600  142.7830 N   0  0  0  0  0  2  0  0  0  0  0  0
  190.4090  177.1850  138.4250 N   0  0  0  0  0  0  0  0  0  0  0  0
  191.2650  174.4170  137.5860 C   0  0  0  0  0  2  0  0  0  0  0  0
  183.5790  179.0470  140.9330 C   0  0  2  0  0  3  0  0  0  0  0  0
  188.7020  177.8020  140.0950 C   0  0  0  0  0  0  0  0  0  0  0  0
  189.7060  177.0590  136.0360 N   0  0  0  0  0  2  0  0  0  0  0  0
  187.8000  177.9320  139.0920 C   0  0  1  0  0  3  0  0  0  0  0  0
  190.5110  177.2620  142.1750 C   0  0  0  0  0  3  0  0  0  0  0  0
  184.0720  178.2430  138.5560 C   0  0  0  0  0  2  0  0  0  0  0  0
  190.9110  177.1190  140.8460 C   0  0  0  0  0  3  0  0  0  0  0  0
  185.5370  178.5430  138.2520 C   0  0  0  0  0  2  0  0  0  0  0  0
  184.8360  178.2650  141.3230 C   0  0  1  0  0  3  0  0  0  0  0  0
  189.2180  177.6900  142.4740 C   0  0  0  0  0  3  0  0  0  0  0  0
  187.0810  178.4210  141.7290 C   0  0  2  0  0  3  0  0  0  0  0  0
  182.3440  178.2800  141.3800 C   0  0  0  0  0  2  0  0  0  0  0  0
  181.1450  179.0480  141.0850 N   0  0  0  0  0  2  0  0  0  0  0  0
  178.9310  178.6960  143.5360 O   0  0  0  0  0  0  0  0  0  0  0  0
  181.1520  178.7830  143.4750 C   0  0  0  0  0  3  0  0  0  0  0  0
  180.6900  179.6300  142.3360 C   0  0  2  0  0  3  0  0  0  0  0  0
  180.1140  178.2820  144.1160 C   0  0  0  0  0  3  0  0  0  0  0  0
  179.1680  179.5410  142.4250 C   0  0  0  0  0  2  0  0  0  0  0  0
  1 27  1  0  0  0  0
  1 26  1  0  0  0  0
  3 16  1  0  0  0  0
  4 18  1  0  0  0  0
  4 23  2  0  0  0  0
  5 11  2  0  0  0  0
  5 15  1  0  0  0  0
  6  7  1  0  0  0  0
  6 19  1  0  0  0  0
  7  3  1  0  0  0  0
  8 16  1  0  0  0  0
  8 12  1  0  0  0  0
  9 25  1  0  0  0  0
  9 27  1  0  0  0  0
 10 17  1  0  0  0  0
 11 20  1  0  0  0  0
 12 15  1  0  0  0  0
 13  9  1  0  0  0  0
 14  2  1  0  0  0  0
 15  4  1  0  0  0  0
 17 25  1  0  0  0  0
 17 28  1  0  0  0  0
 18  1  2  0  0  0  0
 19  5  1  0  0  0  0
 20 13  1  0  0  0  0
 20 18  1  0  0  0  0
 21 26  2  0  0  0  0
 22 10  1  0  0  0  0
 23 21  1  0  0  0  0
 24 22  1  0  0  0  0
 24 13  1  0  0  0  0
 25 14  1  0  0  0  0
 27  2  1  0  0  0  0
 29 28  1  0  0  0  0
 29 32  1  0  0  0  0
 30 33  1  0  0  0  0
 31 33  2  0  0  0  0
 32 34  1  0  0  0  0
 32 31  1  0  0  0  0
 34 30  1  0  0  0  0
M  END
>  <MODEL>
3

>  <REMARK>
 VINA RESULT:      -8.1      4.193      8.294
  Name = 
  3 active torsions:
  status: ('A' for Active; 'I' for Inactive)
    1  A    between atoms: C_17  and  C_28
    2  A    between atoms: C_28  and  N_29
    3  A    between atoms: N_29  and  C_32
                            x       y       z     vdW  Elec       q    Type
                         _______ _______ _______ _____ _____    ______ ____

>  <TORSDO>
F 3

$$$$
=
 OpenBabel11122412173D

 34 40  0  0  1  0  0  0  0  0999 V2000
  188.1730  178.1060  139.7100 C   0  0  0  0  0  0  0  0  0  0  0  0
  188.9370  178.0300  142.0150 N   0  0  0  0  0  2  0  0  0  0  0  0
  184.5020  174.9430  136.4960 C   0  0  0  0  0  2  0  0  0  0  0  0
  187.1920  177.7560  137.4980 C   0  0  0  0  0  0  0  0  0  0  0  0
  184.7340  177.8790  137.2440 C   0  0  0  0  0  0  0  0  0  0  0  0
  182.6250  176.6130  136.8120 C   0  0  0  0  0  2  0  0  0  0  0  0
  183.0570  175.3030  136.1520 C   0  0  0  0  0  2  0  0  0  0  0  0
  185.3080  176.4290  134.5940 C   0  0  0  0  0  2  0  0  0  0  0  0
  186.7530  178.8280  141.6040 C   0  0  1  0  0  3  0  0  0  0  0  0
  184.6730  179.2260  143.6700 C   0  0  0  0  0  2  0  0  0  0  0  0
  184.6380  178.0700  138.5250 N   0  0  0  0  0  0  0  0  0  0  0  0
  186.2080  177.5120  135.1960 C   0  0  0  0  0  2  0  0  0  0  0  0
  185.6010  178.3860  140.8040 N   0  0  2  0  0  0  0  0  0  0  0  0
  188.3000  178.0120  143.2660 N   0  0  0  0  0  2  0  0  0  0  0  0
  186.0330  177.6920  136.6440 N   0  0  0  0  0  0  0  0  0  0  0  0
  185.4240  175.0700  135.2820 C   0  0  0  0  0  2  0  0  0  0  0  0
  186.0990  178.8190  144.0690 C   0  0  2  0  0  3  0  0  0  0  0  0
  187.0340  178.0460  138.8700 C   0  0  0  0  0  0  0  0  0  0  0  0
  183.5450  177.6910  136.4740 N   0  0  0  0  0  2  0  0  0  0  0  0
  185.7870  178.1790  139.3840 C   0  0  1  0  0  3  0  0  0  0  0  0
  189.5860  177.4960  137.8350 C   0  0  0  0  0  3  0  0  0  0  0  0
  184.0070  178.2360  142.7180 C   0  0  0  0  0  2  0  0  0  0  0  0
  188.4730  177.4850  136.9930 C   0  0  0  0  0  3  0  0  0  0  0  0
  184.2430  178.6720  141.2750 C   0  0  0  0  0  2  0  0  0  0  0  0
  186.8660  178.1110  142.9490 C   0  0  1  0  0  3  0  0  0  0  0  0
  189.4360  177.7980  139.1880 C   0  0  0  0  0  3  0  0  0  0  0  0
  188.0300  178.4120  141.0040 C   0  0  2  0  0  3  0  0  0  0  0  0
  186.0570  177.9260  145.2990 C   0  0  0  0  0  2  0  0  0  0  0  0
  186.6820  178.5990  146.4270 N   0  0  0  0  0  2  0  0  0  0  0  0
  189.7280  177.6100  147.3100 O   0  0  0  0  0  0  0  0  0  0  0  0
  187.9090  178.1850  148.4530 C   0  0  0  0  0  3  0  0  0  0  0  0
  187.4060  177.5890  147.1810 C   0  0  2  0  0  3  0  0  0  0  0  0
  189.2280  178.1700  148.4690 C   0  0  0  0  0  3  0  0  0  0  0  0
  188.6860  177.2090  146.4390 C   0  0  0  0  0  2  0  0  0  0  0  0
  1 27  1  0  0  0  0
  2 14  1  0  0  0  0
  4 18  1  0  0  0  0
  5 11  2  0  0  0  0
  7  3  1  0  0  0  0
  7  6  1  0  0  0  0
  8 12  1  0  0  0  0
  8 16  1  0  0  0  0
  9 25  1  0  0  0  0
 10 17  1  0  0  0  0
 11 20  1  0  0  0  0
 12 15  1  0  0  0  0
 13 24  1  0  0  0  0
 13  9  1  0  0  0  0
 15  5  1  0  0  0  0
 15  4  1  0  0  0  0
 16  3  1  0  0  0  0
 17 28  1  0  0  0  0
 18 20  1  0  0  0  0
 18  1  2  0  0  0  0
 19  6  1  0  0  0  0
 19  5  1  0  0  0  0
 20 13  1  0  0  0  0
 21 26  2  0  0  0  0
 22 10  1  0  0  0  0
 23  4  2  0  0  0  0
 23 21  1  0  0  0  0
 24 22  1  0  0  0  0
 25 14  1  0  0  0  0
 25 17  1  0  0  0  0
 26  1  1  0  0  0  0
 27  9  1  0  0  0  0
 27  2  1  0  0  0  0
 28 29  1  0  0  0  0
 29 32  1  0  0  0  0
 30 33  1  0  0  0  0
 31 33  2  0  0  0  0
 32 31  1  0  0  0  0
 34 32  1  0  0  0  0
 34 30  1  0  0  0  0
M  END
>  <MODEL>
4

>  <REMARK>
 VINA RESULT:      -8.1      2.531      3.889
  Name = 
  3 active torsions:
  status: ('A' for Active; 'I' for Inactive)
    1  A    between atoms: C_17  and  C_28
    2  A    between atoms: C_28  and  N_29
    3  A    between atoms: N_29  and  C_32
                            x       y       z     vdW  Elec       q    Type
                         _______ _______ _______ _____ _____    ______ ____

>  <TORSDO>
F 3

$$$$
=
 OpenBabel11122412173D

 34 40  0  0  1  0  0  0  0  0999 V2000
  185.6720  178.5310  140.2820 C   0  0  0  0  0  0  0  0  0  0  0  0
  187.3570  178.1200  141.9840 N   0  0  0  0  0  2  0  0  0  0  0  0
  180.6800  175.9750  138.7460 C   0  0  0  0  0  2  0  0  0  0  0  0
  183.7930  178.5180  138.7170 C   0  0  0  0  0  0  0  0  0  0  0  0
  181.4970  178.7750  139.6000 C   0  0  0  0  0  0  0  0  0  0  0  0
  179.3010  177.6650  140.0310 C   0  0  0  0  0  2  0  0  0  0  0  0
  179.2730  176.4370  139.1210 C   0  0  0  0  0  2  0  0  0  0  0  0
  180.7110  177.6650  136.8430 C   0  0  0  0  0  2  0  0  0  0  0  0
  185.3010  179.0540  142.6720 C   0  0  1  0  0  3  0  0  0  0  0  0
  184.3840  179.2610  145.4780 C   0  0  0  0  0  2  0  0  0  0  0  0
  181.9900  178.7990  140.8020 N   0  0  0  0  0  0  0  0  0  0  0  0
  181.8830  178.6210  137.0850 C   0  0  0  0  0  2  0  0  0  0  0  0
  183.8790  178.7710  142.4310 N   0  0  2  0  0  0  0  0  0  0  0  0
  187.3340  177.9620  143.3790 N   0  0  0  0  0  2  0  0  0  0  0  0
  182.3770  178.6150  138.4690 N   0  0  0  0  0  0  0  0  0  0  0  0
  180.9860  176.2240  137.2670 C   0  0  0  0  0  2  0  0  0  0  0  0
  185.7950  178.7470  145.1550 C   0  0  2  0  0  3  0  0  0  0  0  0
  184.2810  178.6300  140.0380 C   0  0  0  0  0  0  0  0  0  0  0  0
  180.0790  178.7390  139.4280 N   0  0  0  0  0  2  0  0  0  0  0  0
  183.4040  178.7460  141.0640 C   0  0  1  0  0  3  0  0  0  0  0  0
  186.0570  178.1160  137.9230 C   0  0  0  0  0  3  0  0  0  0  0  0
  183.2770  178.4350  144.8290 C   0  0  0  0  0  2  0  0  0  0  0  0
  184.6920  178.2620  137.6700 C   0  0  0  0  0  3  0  0  0  0  0  0
  182.8980  179.0480  143.4840 C   0  0  0  0  0  2  0  0  0  0  0  0
  185.9220  178.1620  143.7470 C   0  0  1  0  0  3  0  0  0  0  0  0
  186.5440  178.2420  139.2230 C   0  0  0  0  0  3  0  0  0  0  0  0
  186.1410  178.6680  141.5270 C   0  0  2  0  0  3  0  0  0  0  0  0
  186.2100  177.7010  146.1790 C   0  0  0  0  0  2  0  0  0  0  0  0
  186.6530  178.3490  147.4030 N   0  0  0  0  0  2  0  0  0  0  0  0
  189.8430  177.4290  147.2720 O   0  0  0  0  0  0  0  0  0  0  0  0
  188.5570  178.2880  148.8700 C   0  0  0  0  0  3  0  0  0  0  0  0
  187.6400  177.4770  148.0170 C   0  0  2  0  0  3  0  0  0  0  0  0
  189.7880  178.2230  148.4000 C   0  0  0  0  0  3  0  0  0  0  0  0
  188.5670  176.9080  146.9440 C   0  0  0  0  0  2  0  0  0  0  0  0
  1 27  1  0  0  0  0
  2 14  1  0  0  0  0
  3  7  1  0  0  0  0
  4 18  2  0  0  0  0
  5 11  2  0  0  0  0
  7  6  1  0  0  0  0
  8 12  1  0  0  0  0
  8 16  1  0  0  0  0
  9 25  1  0  0  0  0
 11 20  1  0  0  0  0
 12 15  1  0  0  0  0
 13  9  1  0  0  0  0
 13 24  1  0  0  0  0
 14 25  1  0  0  0  0
 15  4  1  0  0  0  0
 15  5  1  0  0  0  0
 16  3  1  0  0  0  0
 17 10  1  0  0  0  0
 17 28  1  0  0  0  0
 18  1  1  0  0  0  0
 18 20  1  0  0  0  0
 19  5  1  0  0  0  0
 19  6  1  0  0  0  0
 20 13  1  0  0  0  0
 21 26  1  0  0  0  0
 22 10  1  0  0  0  0
 23 21  2  0  0  0  0
 23  4  1  0  0  0  0
 24 22  1  0  0  0  0
 25 17  1  0  0  0  0
 26  1  2  0  0  0  0
 27  2  1  0  0  0  0
 27  9  1  0  0  0  0
 28 29  1  0  0  0  0
 29 32  1  0  0  0  0
 30 33  1  0  0  0  0
 32 31  1  0  0  0  0
 33 31  2  0  0  0  0
 34 30  1  0  0  0  0
 34 32  1  0  0  0  0
M  END
>  <MODEL>
5

>  <REMARK>
 VINA RESULT:      -8.0      1.244      1.406
  Name = 
  3 active torsions:
  status: ('A' for Active; 'I' for Inactive)
    1  A    between atoms: C_17  and  C_28
    2  A    between atoms: C_28  and  N_29
    3  A    between atoms: N_29  and  C_32
                            x       y       z     vdW  Elec       q    Type
                         _______ _______ _______ _____ _____    ______ ____

>  <TORSDO>
F 3

$$$$
=
 OpenBabel11122412173D

 34 40  0  0  1  0  0  0  0  0999 V2000
  185.4900  177.5560  137.2260 C   0  0  0  0  0  0  0  0  0  0  0  0
  187.7670  176.7170  137.3440 N   0  0  0  0  0  2  0  0  0  0  0  0
  180.5940  176.5740  140.2060 C   0  0  0  0  0  2  0  0  0  0  0  0
  183.1050  178.0550  137.4390 C   0  0  0  0  0  0  0  0  0  0  0  0
  182.2680  179.0250  139.5540 C   0  0  0  0  0  0  0  0  0  0  0  0
  180.9200  178.6480  141.6230 C   0  0  0  0  0  2  0  0  0  0  0  0
  180.0160  177.4530  141.3150 C   0  0  0  0  0  2  0  0  0  0  0  0
  179.5440  178.1060  138.4650 C   0  0  0  0  0  2  0  0  0  0  0  0
  187.0730  178.2530  138.9970 C   0  0  1  0  0  3  0  0  0  0  0  0
  188.5360  178.8290  141.5030 C   0  0  0  0  0  2  0  0  0  0  0  0
  183.4710  178.9430  140.0380 N   0  0  0  0  0  0  0  0  0  0  0  0
  180.6730  178.6710  137.5980 C   0  0  0  0  0  2  0  0  0  0  0  0
  185.9010  178.4040  139.8720 N   0  0  2  0  0  0  0  0  0  0  0  0
  188.7340  176.6240  138.3570 N   0  0  0  0  0  2  0  0  0  0  0  0
  182.0030  178.5660  138.2130 N   0  0  0  0  0  0  0  0  0  0  0  0
  179.7700  176.6650  138.9200 C   0  0  0  0  0  2  0  0  0  0  0  0
  189.1440  177.9010  140.4410 C   0  0  2  0  0  3  0  0  0  0  0  0
  184.4070  178.0620  137.9860 C   0  0  0  0  0  0  0  0  0  0  0  0
  181.1960  179.4130  140.4140 N   0  0  0  0  0  2  0  0  0  0  0  0
  184.5900  178.4740  139.2640 C   0  0  1  0  0  3  0  0  0  0  0  0
  183.9580  176.9590  135.4420 C   0  0  0  0  0  3  0  0  0  0  0  0
  187.1790  178.3530  142.0150 C   0  0  0  0  0  2  0  0  0  0  0  0
  182.8960  177.5020  136.1660 C   0  0  0  0  0  3  0  0  0  0  0  0
  186.0640  179.0030  141.2000 C   0  0  0  0  0  2  0  0  0  0  0  0
  188.1010  177.2540  139.5280 C   0  0  1  0  0  3  0  0  0  0  0  0
  185.2480  176.9790  135.9720 C   0  0  0  0  0  3  0  0  0  0  0  0
  186.7290  177.5910  137.7290 C   0  0  2  0  0  3  0  0  0  0  0  0
  189.9710  176.8170  141.1160 C   0  0  0  0  0  2  0  0  0  0  0  0
  190.6260  177.3510  142.2990 N   0  0  0  0  0  2  0  0  0  0  0  0
  191.6810  176.4090  145.3050 O   0  0  0  0  0  0  0  0  0  0  0  0
  189.7410  177.1680  144.5270 C   0  0  0  0  0  3  0  0  0  0  0  0
  190.3610  176.4280  143.3890 C   0  0  2  0  0  3  0  0  0  0  0  0
  190.5320  177.1230  145.5810 C   0  0  0  0  0  3  0  0  0  0  0  0
  191.6800  175.9260  143.9740 C   0  0  0  0  0  2  0  0  0  0  0  0
  1 27  1  0  0  0  0
  1 18  1  0  0  0  0
  2 27  1  0  0  0  0
  2 14  1  0  0  0  0
  3  7  1  0  0  0  0
  4 18  2  0  0  0  0
  4 15  1  0  0  0  0
  5 11  2  0  0  0  0
  5 19  1  0  0  0  0
  7  6  1  0  0  0  0
  8 16  1  0  0  0  0
  9 25  1  0  0  0  0
  9 13  1  0  0  0  0
 10 22  1  0  0  0  0
 12 15  1  0  0  0  0
 12  8  1  0  0  0  0
 13 24  1  0  0  0  0
 14 25  1  0  0  0  0
 15  5  1  0  0  0  0
 16  3  1  0  0  0  0
 17 28  1  0  0  0  0
 17 10  1  0  0  0  0
 18 20  1  0  0  0  0
 19  6  1  0  0  0  0
 20 13  1  0  0  0  0
 20 11  1  0  0  0  0
 21 26  1  0  0  0  0
 21 23  2  0  0  0  0
 23  4  1  0  0  0  0
 24 22  1  0  0  0  0
 25 17  1  0  0  0  0
 26  1  2  0  0  0  0
 27  9  1  0  0  0  0
 28 29  1  0  0  0  0
 29 32  1  0  0  0  0
 30 33  1  0  0  0  0
 31 33  2  0  0  0  0
 32 34  1  0  0  0  0
 32 31  1  0  0  0  0
 34 30  1  0  0  0  0
M  END
>  <MODEL>
6

>  <REMARK>
 VINA RESULT:      -7.5      2.228      3.366
  Name = 
  3 active torsions:
  status: ('A' for Active; 'I' for Inactive)
    1  A    between atoms: C_17  and  C_28
    2  A    between atoms: C_28  and  N_29
    3  A    between atoms: N_29  and  C_32
                            x       y       z     vdW  Elec       q    Type
                         _______ _______ _______ _____ _____    ______ ____

>  <TORSDO>
F 3

$$$$
=
 OpenBabel11122412173D

 34 40  0  0  1  0  0  0  0  0999 V2000
  189.5210  177.4300  138.2860 C   0  0  0  0  0  0  0  0  0  0  0  0
  191.0940  177.0900  140.1060 N   0  0  0  0  0  2  0  0  0  0  0  0
  184.4470  175.0430  136.7480 C   0  0  0  0  0  2  0  0  0  0  0  0
  187.7190  177.3740  136.6340 C   0  0  0  0  0  0  0  0  0  0  0  0
  185.4060  177.8590  137.3660 C   0  0  0  0  0  0  0  0  0  0  0  0
  183.1250  176.9350  137.7880 C   0  0  0  0  0  2  0  0  0  0  0  0
  183.0570  175.6250  137.0020 C   0  0  0  0  0  2  0  0  0  0  0  0
  184.6770  176.5270  134.6930 C   0  0  0  0  0  2  0  0  0  0  0  0
  189.0760  178.2130  140.5910 C   0  0  1  0  0  3  0  0  0  0  0  0
  188.0460  178.7580  143.3110 C   0  0  0  0  0  2  0  0  0  0  0  0
  185.8440  177.9740  138.5840 N   0  0  0  0  0  0  0  0  0  0  0  0
  185.8960  177.4290  134.9020 C   0  0  0  0  0  2  0  0  0  0  0  0
  187.6500  177.9940  140.3040 N   0  0  2  0  0  0  0  0  0  0  0  0
  190.9970  177.0750  141.5060 N   0  0  0  0  0  2  0  0  0  0  0  0
  186.3250  177.5320  136.3030 N   0  0  0  0  0  0  0  0  0  0  0  0
  184.8350  175.1220  135.2700 C   0  0  0  0  0  2  0  0  0  0  0  0
  189.4330  178.1280  143.1150 C   0  0  2  0  0  3  0  0  0  0  0  0
  188.1510  177.5890  137.9610 C   0  0  0  0  0  0  0  0  0  0  0  0
  183.9990  177.8930  137.1240 N   0  0  0  0  0  2  0  0  0  0  0  0
  187.2380  177.8610  138.9240 C   0  0  1  0  0  3  0  0  0  0  0  0
  189.9850  176.7560  136.0020 C   0  0  0  0  0  3  0  0  0  0  0  0
  186.9180  177.9400  142.6890 C   0  0  0  0  0  2  0  0  0  0  0  0
  188.6460  176.9600  135.6650 C   0  0  0  0  0  3  0  0  0  0  0  0
  186.6420  178.4360  141.2730 C   0  0  0  0  0  2  0  0  0  0  0  0
  189.5860  177.3980  141.7790 C   0  0  1  0  0  3  0  0  0  0  0  0
  190.4190  176.9830  137.3080 C   0  0  0  0  0  3  0  0  0  0  0  0
  189.9390  177.6630  139.5350 C   0  0  2  0  0  3  0  0  0  0  0  0
  189.7310  177.1680  144.2560 C   0  0  0  0  0  2  0  0  0  0  0  0
  189.7870  177.8920  145.5160 N   0  0  0  0  0  2  0  0  0  0  0  0
  188.7430  177.8760  148.6700 O   0  0  0  0  0  0  0  0  0  0  0  0
  187.7000  177.8080  146.7070 C   0  0  0  0  0  3  0  0  0  0  0  0
  189.0110  177.1320  146.4820 C   0  0  2  0  0  3  0  0  0  0  0  0
  187.6050  178.2070  147.9610 C   0  0  0  0  0  3  0  0  0  0  0  0
  189.6820  177.2010  147.8530 C   0  0  0  0  0  2  0  0  0  0  0  0
  1 27  1  0  0  0  0
  2 14  1  0  0  0  0
  3  7  1  0  0  0  0
  4 18  2  0  0  0  0
  5 11  2  0  0  0  0
  7  6  1  0  0  0  0
  8 12  1  0  0  0  0
  8 16  1  0  0  0  0
  9 25  1  0  0  0  0
 11 20  1  0  0  0  0
 12 15  1  0  0  0  0
 13  9  1  0  0  0  0
 13 24  1  0  0  0  0
 14 25  1  0  0  0  0
 15  4  1  0  0  0  0
 15  5  1  0  0  0  0
 16  3  1  0  0  0  0
 17 10  1  0  0  0  0
 17 28  1  0  0  0  0
 18  1  1  0  0  0  0
 18 20  1  0  0  0  0
 19  5  1  0  0  0  0
 19  6  1  0  0  0  0
 20 13  1  0  0  0  0
 21 26  1  0  0  0  0
 22 10  1  0  0  0  0
 23 21  2  0  0  0  0
 23  4  1  0  0  0  0
 24 22  1  0  0  0  0
 25 17  1  0  0  0  0
 26  1  2  0  0  0  0
 27  2  1  0  0  0  0
 27  9  1  0  0  0  0
 28 29  1  0  0  0  0
 29 32  1  0  0  0  0
 31 33  2  0  0  0  0
 32 31  1  0  0  0  0
 32 34  1  0  0  0  0
 33 30  1  0  0  0  0
 34 30  1  0  0  0  0
M  END
>  <MODEL>
7

>  <REMARK>
 VINA RESULT:      -7.4      3.146      4.610
  Name = 
  3 active torsions:
  status: ('A' for Active; 'I' for Inactive)
    1  A    between atoms: C_17  and  C_28
    2  A    between atoms: C_28  and  N_29
    3  A    between atoms: N_29  and  C_32
                            x       y       z     vdW  Elec       q    Type
                         _______ _______ _______ _____ _____    ______ ____

>  <TORSDO>
F 3

$$$$
=
 OpenBabel11122412173D

 34 40  0  0  1  0  0  0  0  0999 V2000
  189.6400  177.6300  139.6820 C   0  0  0  0  0  0  0  0  0  0  0  0
  190.9490  176.9910  141.6270 N   0  0  0  0  0  2  0  0  0  0  0  0
  184.7290  175.7140  137.2290 C   0  0  0  0  0  2  0  0  0  0  0  0
  188.0690  177.8690  137.8230 C   0  0  0  0  0  0  0  0  0  0  0  0
  185.7000  178.3810  138.3150 C   0  0  0  0  0  0  0  0  0  0  0  0
  183.3510  177.5330  138.3270 C   0  0  0  0  0  2  0  0  0  0  0  0
  183.3390  176.3330  137.3780 C   0  0  0  0  0  2  0  0  0  0  0  0
  185.2790  177.4230  135.4240 C   0  0  0  0  0  2  0  0  0  0  0  0
  188.9250  178.1500  141.9940 C   0  0  1  0  0  3  0  0  0  0  0  0
  187.5690  178.4150  144.6100 C   0  0  0  0  0  2  0  0  0  0  0  0
  185.9780  178.3240  139.5830 N   0  0  0  0  0  0  0  0  0  0  0  0
  186.4930  178.2280  135.8970 C   0  0  0  0  0  2  0  0  0  0  0  0
  187.5430  178.0420  141.5050 N   0  0  2  0  0  0  0  0  0  0  0  0
  190.6680  176.8120  142.9910 N   0  0  0  0  0  2  0  0  0  0  0  0
  186.7380  178.1380  137.3430 N   0  0  0  0  0  0  0  0  0  0  0  0
  185.3100  175.9510  135.8330 C   0  0  0  0  0  2  0  0  0  0  0  0
  188.9460  177.7420  144.5110 C   0  0  2  0  0  3  0  0  0  0  0  0
  188.3320  177.8980  139.2110 C   0  0  0  0  0  0  0  0  0  0  0  0
  184.3380  178.5170  137.9050 N   0  0  0  0  0  2  0  0  0  0  0  0
  187.3100  178.0990  140.0780 C   0  0  1  0  0  3  0  0  0  0  0  0
  190.3750  177.2150  137.4080 C   0  0  0  0  0  3  0  0  0  0  0  0
  186.5030  177.7370  143.7520 C   0  0  0  0  0  2  0  0  0  0  0  0
  189.1000  177.5280  136.9340 C   0  0  0  0  0  3  0  0  0  0  0  0
  186.4330  178.4150  142.3870 C   0  0  0  0  0  2  0  0  0  0  0  0
  189.2460  177.1720  143.1230 C   0  0  1  0  0  3  0  0  0  0  0  0
  190.6420  177.2590  138.7760 C   0  0  0  0  0  3  0  0  0  0  0  0
  189.9000  177.6890  140.9930 C   0  0  2  0  0  3  0  0  0  0  0  0
  189.0570  176.6360  145.5490 C   0  0  0  0  0  2  0  0  0  0  0  0
  189.6170  177.1640  146.7830 N   0  0  0  0  0  2  0  0  0  0  0  0
  192.5010  176.2730  148.1710 O   0  0  0  0  0  0  0  0  0  0  0  0
  191.5600  175.8760  146.1950 C   0  0  0  0  0  3  0  0  0  0  0  0
  191.0590  177.2190  146.6100 C   0  0  2  0  0  3  0  0  0  0  0  0
  192.3710  175.3910  147.1160 C   0  0  0  0  0  3  0  0  0  0  0  0
  191.7340  177.4450  147.9620 C   0  0  0  0  0  2  0  0  0  0  0  0
  1 27  1  0  0  0  0
  2 14  1  0  0  0  0
  3  7  1  0  0  0  0
  4 18  2  0  0  0  0
  5 11  2  0  0  0  0
  7  6  1  0  0  0  0
  8 16  1  0  0  0  0
  8 12  1  0  0  0  0
  9 25  1  0  0  0  0
 11 20  1  0  0  0  0
 12 15  1  0  0  0  0
 13  9  1  0  0  0  0
 13 24  1  0  0  0  0
 14 25  1  0  0  0  0
 15  4  1  0  0  0  0
 15  5  1  0  0  0  0
 16  3  1  0  0  0  0
 17 10  1  0  0  0  0
 17 28  1  0  0  0  0
 18  1  1  0  0  0  0
 18 20  1  0  0  0  0
 19  5  1  0  0  0  0
 19  6  1  0  0  0  0
 20 13  1  0  0  0  0
 21 26  1  0  0  0  0
 22 10  1  0  0  0  0
 23 21  2  0  0  0  0
 23  4  1  0  0  0  0
 24 22  1  0  0  0  0
 25 17  1  0  0  0  0
 26  1  2  0  0  0  0
 27  2  1  0  0  0  0
 27  9  1  0  0  0  0
 28 29  1  0  0  0  0
 31 32  1  0  0  0  0
 31 33  2  0  0  0  0
 32 29  1  0  0  0  0
 32 34  1  0  0  0  0
 33 30  1  0  0  0  0
 34 30  1  0  0  0  0
M  END
>  <MODEL>
8

>  <REMARK>
 VINA RESULT:      -7.3      2.742      4.153
  Name = 
  3 active torsions:
  status: ('A' for Active; 'I' for Inactive)
    1  A    between atoms: C_17  and  C_28
    2  A    between atoms: C_28  and  N_29
    3  A    between atoms: N_29  and  C_32
                            x       y       z     vdW  Elec       q    Type
                         _______ _______ _______ _____ _____    ______ ____

>  <TORSDO>
F 3

$$$$
=
 OpenBabel11122412173D

 34 40  0  0  1  0  0  0  0  0999 V2000
  188.2700  177.9870  141.2090 C   0  0  0  0  0  0  0  0  0  0  0  0
  186.3120  178.2100  142.6300 N   0  0  0  0  0  2  0  0  0  0  0  0
  189.9260  174.2720  137.0540 C   0  0  0  0  0  2  0  0  0  0  0  0
  190.0380  177.3400  139.6480 C   0  0  0  0  0  0  0  0  0  0  0  0
  189.5350  177.2810  137.2270 C   0  0  0  0  0  0  0  0  0  0  0  0
  189.1910  175.8470  135.2120 C   0  0  0  0  0  2  0  0  0  0  0  0
  189.8390  174.5020  135.5450 C   0  0  0  0  0  2  0  0  0  0  0  0
  192.1020  175.5920  137.1140 C   0  0  0  0  0  2  0  0  0  0  0  0
  186.0990  178.8200  140.3600 C   0  0  1  0  0  3  0  0  0  0  0  0
  183.5370  179.3090  138.9650 C   0  0  0  0  0  2  0  0  0  0  0  0
  188.3070  177.6040  137.5000 N   0  0  0  0  0  0  0  0  0  0  0  0
  191.8970  176.7880  138.0480 C   0  0  0  0  0  2  0  0  0  0  0  0
  186.4680  178.2240  139.0670 N   0  0  2  0  0  0  0  0  0  0  0  0
  184.9290  178.2870  142.4020 N   0  0  0  0  0  2  0  0  0  0  0  0
  190.4870  177.1120  138.2980 N   0  0  0  0  0  0  0  0  0  0  0  0
  191.3710  174.3250  137.5550 C   0  0  0  0  0  2  0  0  0  0  0  0
  183.5610  179.0370  140.4770 C   0  0  2  0  0  3  0  0  0  0  0  0
  188.7120  177.7660  139.8820 C   0  0  0  0  0  0  0  0  0  0  0  0
  189.8840  176.9370  135.8850 N   0  0  0  0  0  2  0  0  0  0  0  0
  187.8540  177.8760  138.8390 C   0  0  1  0  0  3  0  0  0  0  0  0
  190.4300  177.2680  142.0480 C   0  0  0  0  0  3  0  0  0  0  0  0
  184.1520  178.1820  138.1400 C   0  0  0  0  0  2  0  0  0  0  0  0
  190.8860  177.0960  140.7400 C   0  0  0  0  0  3  0  0  0  0  0  0
  185.6290  178.4740  137.8920 C   0  0  0  0  0  2  0  0  0  0  0  0
  184.7980  178.2620  140.9350 C   0  0  1  0  0  3  0  0  0  0  0  0
  189.1260  177.7040  142.2820 C   0  0  0  0  0  3  0  0  0  0  0  0
  187.0250  178.4220  141.4320 C   0  0  2  0  0  3  0  0  0  0  0  0
  182.3070  178.2810  140.8860 C   0  0  0  0  0  2  0  0  0  0  0  0
  182.3420  176.9290  140.3540 N   0  0  0  0  0  2  0  0  0  0  0  0
  179.8850  177.9980  138.3900 O   0  0  0  0  0  0  0  0  0  0  0  0
  181.0640  176.1140  138.4870 C   0  0  0  0  0  3  0  0  0  0  0  0
  181.0000  176.6150  139.8910 C   0  0  2  0  0  3  0  0  0  0  0  0
  180.4160  176.9360  137.6840 C   0  0  0  0  0  3  0  0  0  0  0  0
  180.1810  177.9000  139.7710 C   0  0  0  0  0  2  0  0  0  0  0  0
  1 27  1  0  0  0  0
  1 26  1  0  0  0  0
  3 16  1  0  0  0  0
  4 18  1  0  0  0  0
  4 23  2  0  0  0  0
  5 11  2  0  0  0  0
  5 15  1  0  0  0  0
  6  7  1  0  0  0  0
  6 19  1  0  0  0  0
  7  3  1  0  0  0  0
  8 16  1  0  0  0  0
  8 12  1  0  0  0  0
  9 25  1  0  0  0  0
  9 27  1  0  0  0  0
 10 17  1  0  0  0  0
 11 20  1  0  0  0  0
 12 15  1  0  0  0  0
 13  9  1  0  0  0  0
 14  2  1  0  0  0  0
 15  4  1  0  0  0  0
 17 28  1  0  0  0  0
 17 25  1  0  0  0  0
 18  1  2  0  0  0  0
 19  5  1  0  0  0  0
 20 13  1  0  0  0  0
 20 18  1  0  0  0  0
 21 26  2  0  0  0  0
 22 10  1  0  0  0  0
 23 21  1  0  0  0  0
 24 22  1  0  0  0  0
 24 13  1  0  0  0  0
 25 14  1  0  0  0  0
 27  2  1  0  0  0  0
 29 28  1  0  0  0  0
 30 34  1  0  0  0  0
 31 32  1  0  0  0  0
 32 29  1  0  0  0  0
 33 30  1  0  0  0  0
 33 31  2  0  0  0  0
 34 32  1  0  0  0  0
M  END
>  <MODEL>
9

>  <REMARK>
 VINA RESULT:      -7.1      4.331      8.692
  Name = 
  3 active torsions:
  status: ('A' for Active; 'I' for Inactive)
    1  A    between atoms: C_17  and  C_28
    2  A    between atoms: C_28  and  N_29
    3  A    between atoms: N_29  and  C_32
                            x       y       z     vdW  Elec       q    Type
                         _______ _______ _______ _____ _____    ______ ____

>  <TORSDO>
F 3

$$$$
