=
 OpenBabel11122412233D

 34 40  0  0  1  0  0  0  0  0999 V2000
  183.9490  178.6240  144.3280 C   0  0  0  0  0  0  0  0  0  0  0  0
  181.4460  179.0450  143.6270 C   0  0  0  0  0  3  0  0  0  0  0  0
  190.0310  176.5330  142.9380 C   0  0  0  0  0  0  0  0  0  0  0  0
  186.3080  178.2410  144.8010 C   0  0  0  0  0  0  0  0  0  0  0  0
  187.8290  177.7870  142.9430 C   0  0  0  0  0  0  0  0  0  0  0  0
  189.1910  177.5210  140.7960 C   0  0  0  0  0  1  0  0  0  0  0  0
  190.1230  175.3960  142.4020 O   0  0  0  0  0  0  0  0  0  0  0  0
  190.3450  178.3000  145.0190 S   0  0  0  0  0  0  0  0  0  0  0  0
  183.0960  178.5610  142.0540 C   0  0  0  0  0  0  0  0  0  0  0  0
  182.9110  179.4780  139.0360 C   0  0  0  0  0  2  0  0  0  0  0  0
  186.7690  177.9030  142.0930 N   0  0  0  0  0  0  0  0  0  0  0  0
  188.6740  177.7090  145.4130 C   0  0  0  0  0  2  0  0  0  0  0  0
  184.4190  178.2680  141.5640 N   0  0  0  0  0  0  0  0  0  0  0  0
  180.7870  179.0490  142.2460 C   0  0  0  0  0  3  0  0  0  0  0  0
  187.6200  177.9620  144.3500 C   0  0  0  0  0  0  0  0  0  0  0  0
  190.6730  176.7820  144.1830 N   0  0  0  0  0  2  0  0  0  0  0  0
  182.0760  179.9100  140.2390 C   0  0  2  0  0  3  0  0  0  0  0  0
  185.2540  178.3450  143.8770 C   0  0  0  0  0  0  0  0  0  0  0  0
  189.2040  177.6170  142.3190 C   0  0  2  0  0  3  0  0  0  0  0  0
  185.5030  178.1640  142.5100 C   0  0  0  0  0  0  0  0  0  0  0  0
  184.7100  178.6930  146.5720 C   0  0  0  0  0  3  0  0  0  0  0  0
  184.3890  179.3570  139.3710 C   0  0  0  0  0  2  0  0  0  0  0  0
  186.0180  178.4180  146.1630 C   0  0  0  0  0  3  0  0  0  0  0  0
  184.6630  178.0730  140.1390 C   0  0  0  0  0  2  0  0  0  0  0  0
  181.8830  178.7400  141.2140 C   0  0  1  0  0  3  0  0  0  0  0  0
  183.7100  178.7900  145.6560 N   0  0  0  0  0  0  0  0  0  0  0  0
  182.8620  178.7290  143.3390 C   0  0  0  0  0  0  0  0  0  0  0  0
  180.8370  180.3670  139.7750 O   0  0  0  0  0  0  0  0  0  0  0  0
  181.1120  181.0010  138.6060 N   0  0  0  0  0  2  0  0  0  0  0  0
  178.9570  183.8560  138.2470 N   0  0  0  0  0  0  0  0  0  0  0  0
  181.0550  183.1770  137.5040 C   0  0  0  0  0  3  0  0  0  0  0  0
  180.5090  182.2520  138.2720 C   0  0  0  0  0  0  0  0  0  0  0  0
  180.0780  184.3060  137.4280 C   0  0  0  0  0  3  0  0  0  0  0  0
  179.2090  182.6840  138.7250 C   0  0  0  0  0  2  0  0  0  0  0  0
  1 26  1  0  0  0  0
  3 16  1  0  0  0  0
  4 23  2  0  0  0  0
  5 15  2  0  0  0  0
  7  3  2  0  0  0  0
  8 12  1  0  0  0  0
  9 27  2  0  0  0  0
 10 22  1  0  0  0  0
 10 17  1  0  0  0  0
 11 20  2  0  0  0  0
 11  5  1  0  0  0  0
 13  9  1  0  0  0  0
 13 20  1  0  0  0  0
 14  2  2  0  0  0  0
 15  4  1  0  0  0  0
 15 12  1  0  0  0  0
 16  8  1  0  0  0  0
 17 28  1  6  0  0  0
 17 25  1  0  0  0  0
 18  1  2  0  0  0  0
 18  4  1  0  0  0  0
 19  6  1  6  0  0  0
 19  3  1  0  0  0  0
 19  5  1  0  0  0  0
 20 18  1  0  0  0  0
 22 24  1  0  0  0  0
 23 21  1  0  0  0  0
 24 13  1  0  0  0  0
 25  9  1  0  0  0  0
 25 14  1  1  0  0  0
 26 21  2  0  0  0  0
 27  2  1  0  0  0  0
 27  1  1  0  0  0  0
 29 28  1  0  0  0  0
 30 34  1  0  0  0  0
 31 32  2  0  0  0  0
 32 29  1  0  0  0  0
 32 34  1  0  0  0  0
 33 31  1  0  0  0  0
 33 30  2  0  0  0  0
M  END
>  <MODEL>
1

>  <REMARK>
 VINA RESULT:      -9.7      0.000      0.000
  Name = 
  3 active torsions:
  status: ('A' for Active; 'I' for Inactive)
    1  A    between atoms: C_17  and  O_28
    2  A    between atoms: O_28  and  N_29
    3  A    between atoms: N_29  and  C_32
                            x       y       z     vdW  Elec       q    Type
                         _______ _______ _______ _____ _____    ______ ____

>  <TORSDO>
F 3

$$$$
=
 OpenBabel11122412233D

 34 40  0  0  1  0  0  0  0  0999 V2000
  188.7960  177.7750  141.1850 C   0  0  0  0  0  0  0  0  0  0  0  0
  188.6100  177.9680  138.5650 C   0  0  0  0  0  3  0  0  0  0  0  0
  186.3930  178.8720  147.2110 C   0  0  0  0  0  0  0  0  0  0  0  0
  188.7880  177.6120  143.6160 C   0  0  0  0  0  0  0  0  0  0  0  0
  186.7170  178.0800  144.8260 C   0  0  0  0  0  0  0  0  0  0  0  0
  184.3770  178.4460  145.7890 C   0  0  0  0  0  1  0  0  0  0  0  0
  186.0010  180.0450  147.4530 O   0  0  0  0  0  0  0  0  0  0  0  0
  188.1090  176.7450  147.5070 S   0  0  0  0  0  0  0  0  0  0  0  0
  186.7910  178.3910  139.9590 C   0  0  0  0  0  0  0  0  0  0  0  0
  183.7940  178.0590  139.0150 C   0  0  0  0  0  2  0  0  0  0  0  0
  186.1120  178.3160  143.6270 N   0  0  0  0  0  0  0  0  0  0  0  0
  188.9310  177.5680  146.1120 C   0  0  0  0  0  2  0  0  0  0  0  0
  186.0660  178.5040  141.1980 N   0  0  0  0  0  0  0  0  0  0  0  0
  187.4190  178.3280  137.6760 C   0  0  0  0  0  3  0  0  0  0  0  0
  188.1010  177.7090  144.8490 C   0  0  0  0  0  0  0  0  0  0  0  0
  187.4250  178.2940  148.0020 N   0  0  0  0  0  2  0  0  0  0  0  0
  185.0840  177.5940  138.3440 C   0  0  2  0  0  3  0  0  0  0  0  0
  188.1110  177.8730  142.4120 C   0  0  0  0  0  0  0  0  0  0  0  0
  185.8350  178.0880  146.0630 C   0  0  2  0  0  3  0  0  0  0  0  0
  186.7580  178.2350  142.4360 C   0  0  0  0  0  0  0  0  0  0  0  0
  190.7920  177.1770  142.3160 C   0  0  0  0  0  3  0  0  0  0  0  0
  183.8100  177.8350  140.5190 C   0  0  0  0  0  2  0  0  0  0  0  0
  190.1460  177.2620  143.5530 C   0  0  0  0  0  3  0  0  0  0  0  0
  184.6590  178.8920  141.2100 C   0  0  0  0  0  2  0  0  0  0  0  0
  186.2200  178.5940  138.6010 C   0  0  1  0  0  3  0  0  0  0  0  0
  190.1110  177.4310  141.1670 N   0  0  0  0  0  0  0  0  0  0  0  0
  188.0630  178.0510  139.9370 C   0  0  0  0  0  0  0  0  0  0  0  0
  184.8470  177.4690  136.9700 O   0  0  0  0  0  0  0  0  0  0  0  0
  184.1960  176.2850  136.8320 N   0  0  0  0  0  2  0  0  0  0  0  0
  185.1060  172.9610  137.8550 N   0  0  0  0  0  0  0  0  0  0  0  0
  186.0710  174.7300  136.6900 C   0  0  0  0  0  3  0  0  0  0  0  0
  184.8480  175.0390  137.0820 C   0  0  0  0  0  0  0  0  0  0  0  0
  186.3370  173.3380  137.1670 C   0  0  0  0  0  3  0  0  0  0  0  0
  184.2610  173.9350  137.8030 C   0  0  0  0  0  2  0  0  0  0  0  0
  1 18  1  0  0  0  0
  2 27  1  0  0  0  0
  3  7  2  0  0  0  0
  3 16  1  0  0  0  0
  4 15  1  0  0  0  0
  5 15  2  0  0  0  0
  5 19  1  0  0  0  0
  8 16  1  0  0  0  0
  9 13  1  0  0  0  0
 10 22  1  0  0  0  0
 11  5  1  0  0  0  0
 12  8  1  0  0  0  0
 13 24  1  0  0  0  0
 13 20  1  0  0  0  0
 14  2  2  0  0  0  0
 15 12  1  0  0  0  0
 17 28  1  6  0  0  0
 17 25  1  0  0  0  0
 17 10  1  0  0  0  0
 18 20  1  0  0  0  0
 18  4  2  0  0  0  0
 19  6  1  6  0  0  0
 19  3  1  0  0  0  0
 20 11  2  0  0  0  0
 21 23  2  0  0  0  0
 22 24  1  0  0  0  0
 23  4  1  0  0  0  0
 25 14  1  6  0  0  0
 25  9  1  0  0  0  0
 26  1  2  0  0  0  0
 26 21  1  0  0  0  0
 27  9  2  0  0  0  0
 27  1  1  0  0  0  0
 29 28  1  0  0  0  0
 29 32  1  0  0  0  0
 31 32  2  0  0  0  0
 31 33  1  0  0  0  0
 32 34  1  0  0  0  0
 33 30  2  0  0  0  0
 34 30  1  0  0  0  0
M  END
>  <MODEL>
2

>  <REMARK>
 VINA RESULT:      -9.5      3.778      6.270
  Name = 
  3 active torsions:
  status: ('A' for Active; 'I' for Inactive)
    1  A    between atoms: C_17  and  O_28
    2  A    between atoms: O_28  and  N_29
    3  A    between atoms: N_29  and  C_32
                            x       y       z     vdW  Elec       q    Type
                         _______ _______ _______ _____ _____    ______ ____

>  <TORSDO>
F 3

$$$$
=
 OpenBabel11122412233D

 34 40  0  0  1  0  0  0  0  0999 V2000
  184.2250  178.5380  144.4750 C   0  0  0  0  0  0  0  0  0  0  0  0
  181.7400  178.9630  143.7150 C   0  0  0  0  0  3  0  0  0  0  0  0
  190.3230  176.3970  143.2440 C   0  0  0  0  0  0  0  0  0  0  0  0
  186.5710  178.1500  145.0040 C   0  0  0  0  0  0  0  0  0  0  0  0
  188.1290  177.6630  143.1850 C   0  0  0  0  0  0  0  0  0  0  0  0
  189.5350  177.3600  141.0710 C   0  0  0  0  0  1  0  0  0  0  0  0
  190.4210  175.2530  142.7260 O   0  0  0  0  0  0  0  0  0  0  0  0
  190.6030  178.1910  145.3070 S   0  0  0  0  0  0  0  0  0  0  0  0
  183.4200  178.4480  142.1850 C   0  0  0  0  0  0  0  0  0  0  0  0
  183.3030  179.3250  139.1520 C   0  0  0  0  0  2  0  0  0  0  0  0
  187.0870  177.7730  142.3120 N   0  0  0  0  0  0  0  0  0  0  0  0
  188.9210  177.6150  145.6730 C   0  0  0  0  0  2  0  0  0  0  0  0
  184.7510  178.1430  141.7270 N   0  0  0  0  0  0  0  0  0  0  0  0
  181.1100  178.9510  142.3210 C   0  0  0  0  0  3  0  0  0  0  0  0
  187.8900  177.8580  144.5850 C   0  0  0  0  0  0  0  0  0  0  0  0
  190.9400  176.6600  144.4990 N   0  0  0  0  0  2  0  0  0  0  0  0
  182.4460  179.7780  140.3310 C   0  0  2  0  0  3  0  0  0  0  0  0
  185.5380  178.2460  144.0560 C   0  0  0  0  0  0  0  0  0  0  0  0
  189.5150  177.4780  142.5930 C   0  0  2  0  0  3  0  0  0  0  0  0
  185.8150  178.0460  142.6980 C   0  0  0  0  0  0  0  0  0  0  0  0
  184.9380  178.6340  146.7340 C   0  0  0  0  0  3  0  0  0  0  0  0
  184.7740  179.2020  139.5190 C   0  0  0  0  0  2  0  0  0  0  0  0
  186.2530  178.3470  146.3570 C   0  0  0  0  0  3  0  0  0  0  0  0
  185.0240  177.9270  140.3100 C   0  0  0  0  0  2  0  0  0  0  0  0
  182.2260  178.6230  141.3170 C   0  0  1  0  0  3  0  0  0  0  0  0
  183.9590  178.7240  145.7950 N   0  0  0  0  0  0  0  0  0  0  0  0
  183.1600  178.6360  143.4620 C   0  0  0  0  0  0  0  0  0  0  0  0
  181.2200  180.2350  139.8340 O   0  0  0  0  0  0  0  0  0  0  0  0
  181.5010  180.7250  138.5990 N   0  0  0  0  0  2  0  0  0  0  0  0
  179.0450  181.6050  136.1260 N   0  0  0  0  0  0  0  0  0  0  0  0
  180.0810  179.6760  136.9150 C   0  0  0  0  0  3  0  0  0  0  0  0
  180.5230  180.7420  137.5580 C   0  0  0  0  0  0  0  0  0  0  0  0
  179.0740  180.1600  135.9220 C   0  0  0  0  0  3  0  0  0  0  0  0
  179.8730  181.9300  137.0610 C   0  0  0  0  0  2  0  0  0  0  0  0
  1 26  1  0  0  0  0
  3 16  1  0  0  0  0
  4 23  2  0  0  0  0
  5 15  2  0  0  0  0
  7  3  2  0  0  0  0
  8 12  1  0  0  0  0
  9 27  2  0  0  0  0
 10 22  1  0  0  0  0
 10 17  1  0  0  0  0
 11 20  2  0  0  0  0
 11  5  1  0  0  0  0
 13  9  1  0  0  0  0
 13 20  1  0  0  0  0
 14  2  2  0  0  0  0
 15  4  1  0  0  0  0
 15 12  1  0  0  0  0
 16  8  1  0  0  0  0
 17 28  1  6  0  0  0
 17 25  1  0  0  0  0
 18  1  2  0  0  0  0
 18  4  1  0  0  0  0
 19  6  1  6  0  0  0
 19  5  1  0  0  0  0
 19  3  1  0  0  0  0
 20 18  1  0  0  0  0
 22 24  1  0  0  0  0
 23 21  1  0  0  0  0
 24 13  1  0  0  0  0
 25  9  1  0  0  0  0
 25 14  1  1  0  0  0
 26 21  2  0  0  0  0
 27  2  1  0  0  0  0
 27  1  1  0  0  0  0
 29 28  1  0  0  0  0
 30 34  1  0  0  0  0
 31 32  2  0  0  0  0
 32 29  1  0  0  0  0
 33 30  2  0  0  0  0
 33 31  1  0  0  0  0
 34 32  1  0  0  0  0
M  END
>  <MODEL>
3

>  <REMARK>
 VINA RESULT:      -8.9      1.076      1.267
  Name = 
  3 active torsions:
  status: ('A' for Active; 'I' for Inactive)
    1  A    between atoms: C_17  and  O_28
    2  A    between atoms: O_28  and  N_29
    3  A    between atoms: N_29  and  C_32
                            x       y       z     vdW  Elec       q    Type
                         _______ _______ _______ _____ _____    ______ ____

>  <TORSDO>
F 3

$$$$
=
 OpenBabel11122412233D

 34 40  0  0  1  0  0  0  0  0999 V2000
  187.8580  177.7050  138.4540 C   0  0  0  0  0  0  0  0  0  0  0  0
  186.3310  178.6220  140.3940 C   0  0  0  0  0  3  0  0  0  0  0  0
  193.7830  176.1460  136.0550 C   0  0  0  0  0  0  0  0  0  0  0  0
  189.3930  176.8140  136.7860 C   0  0  0  0  0  0  0  0  0  0  0  0
  191.6750  176.2530  137.4570 C   0  0  0  0  0  0  0  0  0  0  0  0
  193.9170  175.5950  138.4940 C   0  0  0  0  0  1  0  0  0  0  0  0
  194.6850  177.0180  136.1810 O   0  0  0  0  0  0  0  0  0  0  0  0
  192.0060  174.6430  134.5940 S   0  0  0  0  0  0  0  0  0  0  0  0
  188.5580  178.0390  140.7560 C   0  0  0  0  0  0  0  0  0  0  0  0
  189.6560  177.1350  143.5780 C   0  0  0  0  0  2  0  0  0  0  0  0
  191.3620  176.6520  138.7230 N   0  0  0  0  0  0  0  0  0  0  0  0
  190.9280  176.0570  134.9630 C   0  0  0  0  0  2  0  0  0  0  0  0
  189.8720  177.5490  140.4300 N   0  0  0  0  0  0  0  0  0  0  0  0
  186.6390  178.8640  141.8720 C   0  0  0  0  0  3  0  0  0  0  0  0
  190.6720  176.3220  136.4360 C   0  0  0  0  0  0  0  0  0  0  0  0
  193.4160  175.6890  134.7590 N   0  0  0  0  0  2  0  0  0  0  0  0
  188.2150  177.3030  143.1010 C   0  0  2  0  0  3  0  0  0  0  0  0
  189.1320  177.2160  138.1070 C   0  0  0  0  0  0  0  0  0  0  0  0
  193.0400  175.6210  137.2460 C   0  0  2  0  0  3  0  0  0  0  0  0
  190.1420  177.1330  139.0740 C   0  0  0  0  0  0  0  0  0  0  0  0
  187.1080  177.4120  136.2240 C   0  0  0  0  0  3  0  0  0  0  0  0
  190.5400  176.4790  142.5290 C   0  0  0  0  0  2  0  0  0  0  0  0
  188.3590  176.9210  135.8410 C   0  0  0  0  0  3  0  0  0  0  0  0
  190.9180  177.4770  141.4450 C   0  0  0  0  0  2  0  0  0  0  0  0
  188.1050  178.4670  142.1060 C   0  0  1  0  0  3  0  0  0  0  0  0
  186.8830  177.7900  137.5110 N   0  0  0  0  0  0  0  0  0  0  0  0
  187.6090  178.1170  139.8470 C   0  0  0  0  0  0  0  0  0  0  0  0
  187.4060  177.5380  144.2180 O   0  0  0  0  0  0  0  0  0  0  0  0
  188.0120  176.8770  145.2370 N   0  0  0  0  0  2  0  0  0  0  0  0
  187.5320  178.5260  148.3950 N   0  0  0  0  0  0  0  0  0  0  0  0
  189.2660  177.4940  147.2370 C   0  0  0  0  0  3  0  0  0  0  0  0
  188.1490  177.4610  146.5330 C   0  0  0  0  0  0  0  0  0  0  0  0
  188.9480  178.1960  148.5170 C   0  0  0  0  0  2  0  0  0  0  0  0
  187.0820  178.1040  147.2620 C   0  0  0  0  0  3  0  0  0  0  0  0
  1 27  1  0  0  0  0
  2 14  2  0  0  0  0
  3  7  2  0  0  0  0
  3 19  1  0  0  0  0
  4 18  1  0  0  0  0
  5 11  2  0  0  0  0
  8 16  1  0  0  0  0
  8 12  1  0  0  0  0
  9 25  1  0  0  0  0
 11 20  1  0  0  0  0
 12 15  1  0  0  0  0
 13  9  1  0  0  0  0
 13 24  1  0  0  0  0
 15  4  2  0  0  0  0
 15  5  1  0  0  0  0
 16  3  1  0  0  0  0
 17 10  1  0  0  0  0
 17 28  1  1  0  0  0
 18  1  1  0  0  0  0
 18 20  2  0  0  0  0
 19  5  1  0  0  0  0
 19  6  1  1  0  0  0
 20 13  1  0  0  0  0
 21 26  1  0  0  0  0
 22 10  1  0  0  0  0
 23 21  2  0  0  0  0
 23  4  1  0  0  0  0
 24 22  1  0  0  0  0
 25 14  1  6  0  0  0
 25 17  1  0  0  0  0
 26  1  2  0  0  0  0
 27  2  1  0  0  0  0
 27  9  2  0  0  0  0
 28 29  1  0  0  0  0
 29 32  1  0  0  0  0
 30 33  1  0  0  0  0
 31 33  1  0  0  0  0
 32 31  2  0  0  0  0
 32 34  1  0  0  0  0
 34 30  2  0  0  0  0
M  END
>  <MODEL>
4

>  <REMARK>
 VINA RESULT:      -8.8      5.091      9.015
  Name = 
  3 active torsions:
  status: ('A' for Active; 'I' for Inactive)
    1  A    between atoms: C_17  and  O_28
    2  A    between atoms: O_28  and  N_29
    3  A    between atoms: N_29  and  C_32
                            x       y       z     vdW  Elec       q    Type
                         _______ _______ _______ _____ _____    ______ ____

>  <TORSDO>
F 3

$$$$
=
 OpenBabel11122412233D

 34 40  0  0  1  0  0  0  0  0999 V2000
  186.5590  178.2810  140.6390 C   0  0  0  0  0  0  0  0  0  0  0  0
  189.0440  177.6820  141.2700 C   0  0  0  0  0  3  0  0  0  0  0  0
  180.1350  178.3740  142.0560 C   0  0  0  0  0  0  0  0  0  0  0  0
  184.2220  178.8370  140.2330 C   0  0  0  0  0  0  0  0  0  0  0  0
  182.6420  178.7400  142.0940 C   0  0  0  0  0  0  0  0  0  0  0  0
  181.2780  178.7240  144.2570 C   0  0  0  0  0  1  0  0  0  0  0  0
  179.6350  177.2910  142.4640 O   0  0  0  0  0  0  0  0  0  0  0  0
  180.4830  180.3750  140.2050 S   0  0  0  0  0  0  0  0  0  0  0  0
  187.3330  177.6380  142.8500 C   0  0  0  0  0  0  0  0  0  0  0  0
  187.8420  178.0520  145.9410 C   0  0  0  0  0  2  0  0  0  0  0  0
  183.6730  178.3610  142.9030 N   0  0  0  0  0  0  0  0  0  0  0  0
  181.8240  179.2730  139.6720 C   0  0  0  0  0  2  0  0  0  0  0  0
  185.9950  177.7860  143.3630 N   0  0  0  0  0  0  0  0  0  0  0  0
  189.6610  177.2790  142.6100 C   0  0  0  0  0  3  0  0  0  0  0  0
  182.8990  178.9970  140.7080 C   0  0  0  0  0  0  0  0  0  0  0  0
  179.6260  178.9880  140.8780 N   0  0  0  0  0  2  0  0  0  0  0  0
  188.7760  178.2960  144.7580 C   0  0  2  0  0  3  0  0  0  0  0  0
  185.2420  178.4390  141.1140 C   0  0  0  0  0  0  0  0  0  0  0  0
  181.3000  179.0030  142.7570 C   0  0  2  0  0  3  0  0  0  0  0  0
  184.9460  178.1960  142.4610 C   0  0  0  0  0  0  0  0  0  0  0  0
  185.8740  178.8930  138.4530 C   0  0  0  0  0  3  0  0  0  0  0  0
  186.4210  178.5150  145.6620 C   0  0  0  0  0  2  0  0  0  0  0  0
  184.5550  179.0610  138.8870 C   0  0  0  0  0  3  0  0  0  0  0  0
  185.6980  177.5200  144.7670 C   0  0  0  0  0  2  0  0  0  0  0  0
  188.5290  177.2640  143.6500 C   0  0  1  0  0  3  0  0  0  0  0  0
  186.8410  178.5110  139.3290 N   0  0  0  0  0  0  0  0  0  0  0  0
  187.6110  177.8660  141.5840 C   0  0  0  0  0  0  0  0  0  0  0  0
  190.0960  178.2160  145.2150 O   0  0  0  0  0  0  0  0  0  0  0  0
  190.0280  177.4970  146.3650 N   0  0  0  0  0  2  0  0  0  0  0  0
  192.8060  175.2470  146.7390 N   0  0  0  0  0  0  0  0  0  0  0  0
  191.6190  176.7530  148.0570 C   0  0  0  0  0  3  0  0  0  0  0  0
  191.1320  176.7200  146.8300 C   0  0  0  0  0  0  0  0  0  0  0  0
  192.7590  175.7870  148.0940 C   0  0  0  0  0  2  0  0  0  0  0  0
  191.8760  175.7830  146.0230 C   0  0  0  0  0  3  0  0  0  0  0  0
  1 18  1  0  0  0  0
  1 27  1  0  0  0  0
  2 27  1  0  0  0  0
  2 14  2  0  0  0  0
  3  7  2  0  0  0  0
  3 19  1  0  0  0  0
  4 15  2  0  0  0  0
  4 18  1  0  0  0  0
  5 19  1  0  0  0  0
  5 11  2  0  0  0  0
  8 16  1  0  0  0  0
  9 13  1  0  0  0  0
  9 25  1  0  0  0  0
 12  8  1  0  0  0  0
 12 15  1  0  0  0  0
 13 24  1  0  0  0  0
 15  5  1  0  0  0  0
 16  3  1  0  0  0  0
 17 28  1  1  0  0  0
 17 10  1  0  0  0  0
 18 20  2  0  0  0  0
 19  6  1  1  0  0  0
 20 11  1  0  0  0  0
 20 13  1  0  0  0  0
 21 23  2  0  0  0  0
 21 26  1  0  0  0  0
 22 10  1  0  0  0  0
 23  4  1  0  0  0  0
 24 22  1  0  0  0  0
 25 14  1  6  0  0  0
 25 17  1  0  0  0  0
 26  1  2  0  0  0  0
 27  9  2  0  0  0  0
 28 29  1  0  0  0  0
 29 32  1  0  0  0  0
 30 33  1  0  0  0  0
 31 33  1  0  0  0  0
 32 31  2  0  0  0  0
 34 30  2  0  0  0  0
 34 32  1  0  0  0  0
M  END
>  <MODEL>
5

>  <REMARK>
 VINA RESULT:      -8.7      3.109      9.646
  Name = 
  3 active torsions:
  status: ('A' for Active; 'I' for Inactive)
    1  A    between atoms: C_17  and  O_28
    2  A    between atoms: O_28  and  N_29
    3  A    between atoms: N_29  and  C_32
                            x       y       z     vdW  Elec       q    Type
                         _______ _______ _______ _____ _____    ______ ____

>  <TORSDO>
F 3

$$$$
=
 OpenBabel11122412233D

 34 40  0  0  1  0  0  0  0  0999 V2000
  190.8290  177.4460  142.6810 C   0  0  0  0  0  0  0  0  0  0  0  0
  192.6940  177.1260  140.8490 C   0  0  0  0  0  3  0  0  0  0  0  0
  184.7560  179.2630  144.4400 C   0  0  0  0  0  0  0  0  0  0  0  0
  188.9820  177.7320  144.2430 C   0  0  0  0  0  0  0  0  0  0  0  0
  186.7340  178.1040  143.3610 C   0  0  0  0  0  0  0  0  0  0  0  0
  184.4920  178.2910  142.1470 C   0  0  0  0  0  1  0  0  0  0  0  0
  184.3670  180.3900  144.0300 O   0  0  0  0  0  0  0  0  0  0  0  0
  185.5640  177.5030  146.3900 S   0  0  0  0  0  0  0  0  0  0  0  0
  190.4700  177.5240  140.2790 C   0  0  0  0  0  0  0  0  0  0  0  0
  189.2070  176.5870  137.5390 C   0  0  0  0  0  2  0  0  0  0  0  0
  187.2530  178.0240  142.1030 N   0  0  0  0  0  0  0  0  0  0  0  0
  187.1900  178.1690  145.9320 C   0  0  0  0  0  2  0  0  0  0  0  0
  189.0650  177.7550  140.4960 N   0  0  0  0  0  0  0  0  0  0  0  0
  192.6010  177.1370  139.3220 C   0  0  0  0  0  3  0  0  0  0  0  0
  187.6060  177.9510  144.4880 C   0  0  0  0  0  0  0  0  0  0  0  0
  184.8090  178.9980  145.8370 N   0  0  0  0  0  2  0  0  0  0  0  0
  190.5380  176.2020  138.1810 C   0  0  2  0  0  3  0  0  0  0  0  0
  189.4590  177.6650  142.9220 C   0  0  0  0  0  0  0  0  0  0  0  0
  185.2230  178.2080  143.4840 C   0  0  2  0  0  3  0  0  0  0  0  0
  188.5720  177.8220  141.8510 C   0  0  0  0  0  0  0  0  0  0  0  0
  191.2570  177.3660  145.0120 C   0  0  0  0  0  3  0  0  0  0  0  0
  188.0730  176.6470  138.5500 C   0  0  0  0  0  2  0  0  0  0  0  0
  189.9040  177.5810  145.2920 C   0  0  0  0  0  3  0  0  0  0  0  0
  188.1520  177.9260  139.3700 C   0  0  0  0  0  2  0  0  0  0  0  0
  191.1300  177.3880  138.9540 C   0  0  1  0  0  3  0  0  0  0  0  0
  191.6890  177.3030  143.7240 N   0  0  0  0  0  0  0  0  0  0  0  0
  191.3040  177.3780  141.2880 C   0  0  0  0  0  0  0  0  0  0  0  0
  191.4140  175.7940  137.1690 O   0  0  0  0  0  0  0  0  0  0  0  0
  191.5940  174.4640  137.3750 N   0  0  0  0  0  2  0  0  0  0  0  0
  194.2070  172.3810  136.0500 N   0  0  0  0  0  0  0  0  0  0  0  0
  193.9970  174.1080  137.5950 C   0  0  0  0  0  3  0  0  0  0  0  0
  192.8270  173.8160  137.0580 C   0  0  0  0  0  0  0  0  0  0  0  0
  194.9980  173.1880  136.9740 C   0  0  0  0  0  2  0  0  0  0  0  0
  192.9700  172.7450  136.1020 C   0  0  0  0  0  3  0  0  0  0  0  0
  1 18  2  0  0  0  0
  1 26  1  0  0  0  0
  2 27  1  0  0  0  0
  3 16  1  0  0  0  0
  4 15  1  0  0  0  0
  4 23  2  0  0  0  0
  5 19  1  0  0  0  0
  5 15  2  0  0  0  0
  7  3  2  0  0  0  0
  9 13  1  0  0  0  0
  9 27  2  0  0  0  0
 10 17  1  0  0  0  0
 10 22  1  0  0  0  0
 11  5  1  0  0  0  0
 12  8  1  0  0  0  0
 13 20  1  0  0  0  0
 14  2  2  0  0  0  0
 15 12  1  0  0  0  0
 16  8  1  0  0  0  0
 17 28  1  6  0  0  0
 17 25  1  0  0  0  0
 18  4  1  0  0  0  0
 19  6  1  6  0  0  0
 19  3  1  0  0  0  0
 20 11  2  0  0  0  0
 20 18  1  0  0  0  0
 21 23  1  0  0  0  0
 22 24  1  0  0  0  0
 24 13  1  0  0  0  0
 25 14  1  1  0  0  0
 25  9  1  0  0  0  0
 26 21  2  0  0  0  0
 27  1  1  0  0  0  0
 28 29  1  0  0  0  0
 30 34  2  0  0  0  0
 30 33  1  0  0  0  0
 32 29  1  0  0  0  0
 32 31  2  0  0  0  0
 33 31  1  0  0  0  0
 34 32  1  0  0  0  0
M  END
>  <MODEL>
6

>  <REMARK>
 VINA RESULT:      -8.7      4.226      9.278
  Name = 
  3 active torsions:
  status: ('A' for Active; 'I' for Inactive)
    1  A    between atoms: C_17  and  O_28
    2  A    between atoms: O_28  and  N_29
    3  A    between atoms: N_29  and  C_32
                            x       y       z     vdW  Elec       q    Type
                         _______ _______ _______ _____ _____    ______ ____

>  <TORSDO>
F 3

$$$$
=
 OpenBabel11122412233D

 34 40  0  0  1  0  0  0  0  0999 V2000
  189.9180  177.4700  141.9700 C   0  0  0  0  0  0  0  0  0  0  0  0
  190.3120  177.6500  139.3720 C   0  0  0  0  0  3  0  0  0  0  0  0
  186.4160  178.8740  147.3610 C   0  0  0  0  0  0  0  0  0  0  0  0
  189.3780  177.3370  144.3420 C   0  0  0  0  0  0  0  0  0  0  0  0
  187.1570  178.0250  145.0900 C   0  0  0  0  0  0  0  0  0  0  0  0
  184.7150  178.6370  145.5390 C   0  0  0  0  0  1  0  0  0  0  0  0
  186.1020  180.0830  147.5250 O   0  0  0  0  0  0  0  0  0  0  0  0
  187.8070  176.5890  147.9920 S   0  0  0  0  0  0  0  0  0  0  0  0
  188.2910  178.2700  140.3530 C   0  0  0  0  0  0  0  0  0  0  0  0
  185.5440  178.2310  138.7920 C   0  0  0  0  0  2  0  0  0  0  0  0
  186.8460  178.3080  143.7930 N   0  0  0  0  0  0  0  0  0  0  0  0
  188.9850  177.3080  146.8110 C   0  0  0  0  0  2  0  0  0  0  0  0
  187.3350  178.4710  141.4120 N   0  0  0  0  0  0  0  0  0  0  0  0
  189.3780  178.1180  138.2550 C   0  0  0  0  0  3  0  0  0  0  0  0
  188.4590  177.5170  145.4020 C   0  0  0  0  0  0  0  0  0  0  0  0
  187.1940  178.2040  148.3460 N   0  0  0  0  0  2  0  0  0  0  0  0
  186.8940  177.6310  138.4050 C   0  0  2  0  0  3  0  0  0  0  0  0
  189.0020  177.6510  143.0240 C   0  0  0  0  0  0  0  0  0  0  0  0
  186.0380  178.1370  146.1120 C   0  0  2  0  0  3  0  0  0  0  0  0
  187.7180  178.1470  142.7650 C   0  0  0  0  0  0  0  0  0  0  0  0
  191.5580  176.6870  143.4920 C   0  0  0  0  0  3  0  0  0  0  0  0
  185.2190  178.0240  140.2630 C   0  0  0  0  0  2  0  0  0  0  0  0
  190.6770  176.8520  144.5650 C   0  0  0  0  0  3  0  0  0  0  0  0
  186.0040  178.9980  141.1280 C   0  0  0  0  0  2  0  0  0  0  0  0
  188.0440  178.5140  138.9070 C   0  0  1  0  0  3  0  0  0  0  0  0
  191.1650  176.9960  142.2280 N   0  0  0  0  0  0  0  0  0  0  0  0
  189.4980  177.8040  140.5980 C   0  0  0  0  0  0  0  0  0  0  0  0
  186.9410  177.5140  137.0110 O   0  0  0  0  0  0  0  0  0  0  0  0
  186.7960  176.1870  136.7640 N   0  0  0  0  0  2  0  0  0  0  0  0
  189.2020  174.5280  134.6710 N   0  0  0  0  0  0  0  0  0  0  0  0
  188.6890  174.6570  136.9370 C   0  0  0  0  0  3  0  0  0  0  0  0
  187.8630  175.4040  136.2260 C   0  0  0  0  0  0  0  0  0  0  0  0
  189.6350  174.0230  135.9690 C   0  0  0  0  0  2  0  0  0  0  0  0
  188.1910  175.3150  134.8240 C   0  0  0  0  0  3  0  0  0  0  0  0
  1 26  2  0  0  0  0
  1 18  1  0  0  0  0
  2 27  1  0  0  0  0
  3  7  2  0  0  0  0
  3 16  1  0  0  0  0
  4 23  1  0  0  0  0
  4 15  1  0  0  0  0
  5 15  2  0  0  0  0
  5 19  1  0  0  0  0
  8 16  1  0  0  0  0
  9 27  2  0  0  0  0
  9 13  1  0  0  0  0
 10 22  1  0  0  0  0
 11  5  1  0  0  0  0
 12  8  1  0  0  0  0
 13 20  1  0  0  0  0
 14  2  2  0  0  0  0
 15 12  1  0  0  0  0
 17 28  1  6  0  0  0
 17 10  1  0  0  0  0
 17 25  1  0  0  0  0
 18  4  2  0  0  0  0
 19  6  1  6  0  0  0
 19  3  1  0  0  0  0
 20 18  1  0  0  0  0
 20 11  2  0  0  0  0
 21 23  2  0  0  0  0
 22 24  1  0  0  0  0
 24 13  1  0  0  0  0
 25 14  1  6  0  0  0
 25  9  1  0  0  0  0
 26 21  1  0  0  0  0
 27  1  1  0  0  0  0
 29 28  1  0  0  0  0
 30 34  2  0  0  0  0
 30 33  1  0  0  0  0
 32 29  1  0  0  0  0
 32 31  2  0  0  0  0
 33 31  1  0  0  0  0
 34 32  1  0  0  0  0
M  END
>  <MODEL>
7

>  <REMARK>
 VINA RESULT:      -8.6      4.298      7.148
  Name = 
  3 active torsions:
  status: ('A' for Active; 'I' for Inactive)
    1  A    between atoms: C_17  and  O_28
    2  A    between atoms: O_28  and  N_29
    3  A    between atoms: N_29  and  C_32
                            x       y       z     vdW  Elec       q    Type
                         _______ _______ _______ _____ _____    ______ ____

>  <TORSDO>
F 3

$$$$
=
 OpenBabel11122412233D

 34 40  0  0  1  0  0  0  0  0999 V2000
  186.2230  178.3260  143.1180 C   0  0  0  0  0  0  0  0  0  0  0  0
  188.8250  177.9300  143.2130 C   0  0  0  0  0  3  0  0  0  0  0  0
  180.8030  180.1430  139.8600 C   0  0  0  0  0  0  0  0  0  0  0  0
  183.8260  178.6720  142.8510 C   0  0  0  0  0  0  0  0  0  0  0  0
  182.9160  178.9550  140.6010 C   0  0  0  0  0  0  0  0  0  0  0  0
  182.2430  179.0360  138.1360 C   0  0  0  0  0  1  0  0  0  0  0  0
  180.8640  181.2370  139.2390 O   0  0  0  0  0  0  0  0  0  0  0  0
  179.9040  178.5120  141.8810 S   0  0  0  0  0  0  0  0  0  0  0  0
  187.7060  178.2590  141.1950 C   0  0  0  0  0  0  0  0  0  0  0  0
  188.7780  177.1450  138.4400 C   0  0  0  0  0  2  0  0  0  0  0  0
  184.1800  178.8120  140.1100 N   0  0  0  0  0  0  0  0  0  0  0  0
  181.3810  179.1760  142.7030 C   0  0  0  0  0  2  0  0  0  0  0  0
  186.5840  178.4790  140.3200 N   0  0  0  0  0  0  0  0  0  0  0  0
  189.8610  177.8520  142.0900 C   0  0  0  0  0  3  0  0  0  0  0  0
  182.7040  178.8820  142.0160 C   0  0  0  0  0  0  0  0  0  0  0  0
  179.8260  179.9600  140.8770 N   0  0  0  0  0  2  0  0  0  0  0  0
  189.2250  176.8200  139.8630 C   0  0  2  0  0  3  0  0  0  0  0  0
  185.1060  178.5360  142.2860 C   0  0  0  0  0  0  0  0  0  0  0  0
  181.7840  179.0420  139.5910 C   0  0  2  0  0  3  0  0  0  0  0  0
  185.2680  178.6160  140.8970 C   0  0  0  0  0  0  0  0  0  0  0  0
  184.8370  178.3880  145.0400 C   0  0  0  0  0  3  0  0  0  0  0  0
  187.2650  177.2450  138.3170 C   0  0  0  0  0  2  0  0  0  0  0  0
  183.7040  178.5960  144.2480 C   0  0  0  0  0  3  0  0  0  0  0  0
  186.7680  178.5700  138.8750 C   0  0  0  0  0  2  0  0  0  0  0  0
  189.1140  178.0580  140.7630 C   0  0  1  0  0  3  0  0  0  0  0  0
  186.0620  178.2570  144.4660 N   0  0  0  0  0  0  0  0  0  0  0  0
  187.5540  178.1850  142.5010 C   0  0  0  0  0  0  0  0  0  0  0  0
  190.5490  176.3670  139.8160 O   0  0  0  0  0  0  0  0  0  0  0  0
  190.6360  175.6540  138.6640 N   0  0  0  0  0  2  0  0  0  0  0  0
  193.9250  176.0250  137.2610 N   0  0  0  0  0  0  0  0  0  0  0  0
  192.2020  174.4620  137.2220 C   0  0  0  0  0  3  0  0  0  0  0  0
  191.8760  175.5000  137.9700 C   0  0  0  0  0  0  0  0  0  0  0  0
  193.5760  174.7250  136.6970 C   0  0  0  0  0  3  0  0  0  0  0  0
  192.9520  176.4610  137.9860 C   0  0  0  0  0  2  0  0  0  0  0  0
  1 26  1  0  0  0  0
  3 16  1  0  0  0  0
  4 23  2  0  0  0  0
  5 15  2  0  0  0  0
  7  3  2  0  0  0  0
  8 12  1  0  0  0  0
  9 27  2  0  0  0  0
 10 17  1  0  0  0  0
 11  5  1  0  0  0  0
 11 20  2  0  0  0  0
 13 20  1  0  0  0  0
 13  9  1  0  0  0  0
 14  2  2  0  0  0  0
 15 12  1  0  0  0  0
 15  4  1  0  0  0  0
 16  8  1  0  0  0  0
 17 28  1  6  0  0  0
 17 25  1  0  0  0  0
 18  4  1  0  0  0  0
 18  1  2  0  0  0  0
 19  6  1  6  0  0  0
 19  3  1  0  0  0  0
 19  5  1  0  0  0  0
 20 18  1  0  0  0  0
 22 10  1  0  0  0  0
 22 24  1  0  0  0  0
 23 21  1  0  0  0  0
 24 13  1  0  0  0  0
 25  9  1  0  0  0  0
 25 14  1  1  0  0  0
 26 21  2  0  0  0  0
 27  1  1  0  0  0  0
 27  2  1  0  0  0  0
 29 28  1  0  0  0  0
 30 34  1  0  0  0  0
 31 32  2  0  0  0  0
 32 34  1  0  0  0  0
 32 29  1  0  0  0  0
 33 31  1  0  0  0  0
 33 30  2  0  0  0  0
M  END
>  <MODEL>
8

>  <REMARK>
 VINA RESULT:      -8.5      3.416      8.665
  Name = 
  3 active torsions:
  status: ('A' for Active; 'I' for Inactive)
    1  A    between atoms: C_17  and  O_28
    2  A    between atoms: O_28  and  N_29
    3  A    between atoms: N_29  and  C_32
                            x       y       z     vdW  Elec       q    Type
                         _______ _______ _______ _____ _____    ______ ____

>  <TORSDO>
F 3

$$$$
=
 OpenBabel11122412233D

 34 40  0  0  1  0  0  0  0  0999 V2000
  186.2880  178.2000  143.8550 C   0  0  0  0  0  0  0  0  0  0  0  0
  186.8120  178.0780  146.4330 C   0  0  0  0  0  3  0  0  0  0  0  0
  188.2620  178.9000  137.6180 C   0  0  0  0  0  0  0  0  0  0  0  0
  185.9750  178.2620  141.4400 C   0  0  0  0  0  0  0  0  0  0  0  0
  187.9300  178.0660  139.9880 C   0  0  0  0  0  0  0  0  0  0  0  0
  190.1240  177.6560  138.7400 C   0  0  0  0  0  1  0  0  0  0  0  0
  189.0280  179.8720  137.3790 O   0  0  0  0  0  0  0  0  0  0  0  0
  185.8660  177.5630  137.4590 S   0  0  0  0  0  0  0  0  0  0  0  0
  188.4990  177.9450  144.8310 C   0  0  0  0  0  0  0  0  0  0  0  0
  191.2490  176.4810  145.3530 C   0  0  0  0  0  2  0  0  0  0  0  0
  188.7050  177.9620  141.1050 N   0  0  0  0  0  0  0  0  0  0  0  0
  185.5570  178.4970  138.9860 C   0  0  0  0  0  2  0  0  0  0  0  0
  189.0770  177.9030  143.5120 N   0  0  0  0  0  0  0  0  0  0  0  0
  188.1410  177.9070  147.1710 C   0  0  0  0  0  3  0  0  0  0  0  0
  186.5120  178.2170  140.1330 C   0  0  0  0  0  0  0  0  0  0  0  0
  187.0120  178.8020  136.9470 N   0  0  0  0  0  2  0  0  0  0  0  0
  189.9590  176.4510  146.1680 C   0  0  2  0  0  3  0  0  0  0  0  0
  186.8250  178.1550  142.5540 C   0  0  0  0  0  0  0  0  0  0  0  0
  188.6150  177.8690  138.6460 C   0  0  2  0  0  3  0  0  0  0  0  0
  188.2060  178.0100  142.3670 C   0  0  0  0  0  0  0  0  0  0  0  0
  184.1020  178.4580  142.9740 C   0  0  0  0  0  3  0  0  0  0  0  0
  190.9910  176.4140  143.8560 C   0  0  0  0  0  2  0  0  0  0  0  0
  184.5970  178.4170  141.6680 C   0  0  0  0  0  3  0  0  0  0  0  0
  190.5180  177.7610  143.3310 C   0  0  0  0  0  2  0  0  0  0  0  0
  189.2460  177.8090  146.1080 C   0  0  1  0  0  3  0  0  0  0  0  0
  184.9490  178.3490  144.0330 N   0  0  0  0  0  0  0  0  0  0  0  0
  187.2010  178.0830  145.0060 C   0  0  0  0  0  0  0  0  0  0  0  0
  190.2800  176.1260  147.4910 O   0  0  0  0  0  0  0  0  0  0  0  0
  191.6200  175.9080  147.4840 N   0  0  0  0  0  2  0  0  0  0  0  0
  193.2450  177.8970  149.9990 N   0  0  0  0  0  0  0  0  0  0  0  0
  193.5050  175.7980  149.0300 C   0  0  0  0  0  3  0  0  0  0  0  0
  192.4700  176.4300  148.5070 C   0  0  0  0  0  0  0  0  0  0  0  0
  194.0950  176.7130  150.0530 C   0  0  0  0  0  2  0  0  0  0  0  0
  192.3200  177.7300  149.1150 C   0  0  0  0  0  3  0  0  0  0  0  0
  1 26  1  0  0  0  0
  1 27  1  0  0  0  0
  2 14  2  0  0  0  0
  3 19  1  0  0  0  0
  4 23  2  0  0  0  0
  4 18  1  0  0  0  0
  5 15  2  0  0  0  0
  5 11  1  0  0  0  0
  7  3  2  0  0  0  0
  8 12  1  0  0  0  0
  9 27  2  0  0  0  0
  9 25  1  0  0  0  0
 10 17  1  0  0  0  0
 11 20  2  0  0  0  0
 12 15  1  0  0  0  0
 13  9  1  0  0  0  0
 15  4  1  0  0  0  0
 16  8  1  0  0  0  0
 16  3  1  0  0  0  0
 17 28  1  1  0  0  0
 18  1  2  0  0  0  0
 19  6  1  1  0  0  0
 19  5  1  0  0  0  0
 20 18  1  0  0  0  0
 20 13  1  0  0  0  0
 21 26  2  0  0  0  0
 22 10  1  0  0  0  0
 23 21  1  0  0  0  0
 24 13  1  0  0  0  0
 24 22  1  0  0  0  0
 25 17  1  0  0  0  0
 25 14  1  1  0  0  0
 27  2  1  0  0  0  0
 29 28  1  0  0  0  0
 29 32  1  0  0  0  0
 30 33  1  0  0  0  0
 31 33  1  0  0  0  0
 32 31  2  0  0  0  0
 32 34  1  0  0  0  0
 34 30  2  0  0  0  0
M  END
>  <MODEL>
9

>  <REMARK>
 VINA RESULT:      -8.5      4.236      9.596
  Name = 
  3 active torsions:
  status: ('A' for Active; 'I' for Inactive)
    1  A    between atoms: C_17  and  O_28
    2  A    between atoms: O_28  and  N_29
    3  A    between atoms: N_29  and  C_32
                            x       y       z     vdW  Elec       q    Type
                         _______ _______ _______ _____ _____    ______ ____

>  <TORSDO>
F 3

$$$$
