=
 OpenBabel11122412293D

 34 40  0  0  1  0  0  0  0  0999 V2000
  189.4590  177.6690  140.0170 C   0  0  1  0  0  3  0  0  0  0  0  0
  191.3300  176.5310  138.6850 C   0  0  0  0  0  2  0  0  0  0  0  0
  182.9440  178.3270  140.9680 C   0  0  1  0  0  3  0  0  0  0  0  0
  187.4710  178.5500  141.1960 C   0  0  2  0  0  3  0  0  0  0  0  0
  185.2610  178.7350  139.9990 C   0  0  0  0  0  0  0  0  0  0  0  0
  183.1600  179.0630  138.5930 C   0  0  0  0  0  1  0  0  0  0  0  0
  183.1980  176.9610  140.9200 F   0  0  0  0  0  0  0  0  0  0  0  0
  184.2300  178.4650  142.8680 C   0  0  0  0  0  2  0  0  0  0  0  0
  189.4640  177.4920  137.5990 N   0  0  2  0  0  0  0  0  0  0  0  0
  188.2550  176.0690  134.9760 C   0  0  0  0  0  2  0  0  0  0  0  0
  185.8770  178.1380  138.7420 C   0  0  0  0  0  2  0  0  0  0  0  0
  185.3600  179.3780  142.4100 C   0  0  0  0  0  2  0  0  0  0  0  0
  187.9890  177.5200  137.4900 C   0  0  1  0  0  3  0  0  0  0  0  0
  191.4740  176.2310  137.2040 C   0  0  0  0  0  2  0  0  0  0  0  0
  185.9820  178.8350  141.1520 C   0  0  0  0  0  0  0  0  0  0  0  0
  183.0160  178.8540  142.2750 O   0  0  0  0  0  0  0  0  0  0  0  0
  189.3950  175.5990  135.8980 C   0  0  1  0  0  3  0  0  0  0  0  0
  187.9380  177.7280  139.9980 C   0  0  1  0  0  3  0  0  0  0  0  0
  183.7910  179.1310  139.9770 C   0  0  1  0  0  3  0  0  0  0  0  0
  187.3930  178.2890  138.6910 C   0  0  2  0  0  3  0  0  0  0  0  0
  189.2360  177.9080  142.4800 C   0  0  0  0  0  2  0  0  0  0  0  0
  188.1060  177.5890  134.9060 C   0  0  0  0  0  2  0  0  0  0  0  0
  187.8270  177.8660  142.3780 O   0  0  0  0  0  0  0  0  0  0  0  0
  187.5200  178.1900  136.1870 C   0  0  0  0  0  2  0  0  0  0  0  0
  190.1930  176.7530  136.5560 C   0  0  1  0  0  3  0  0  0  0  0  0
  189.8930  177.0850  141.3600 C   0  0  0  0  0  2  0  0  0  0  0  0
  189.8550  176.8130  138.8270 C   0  0  2  0  0  3  0  0  0  0  0  0
  188.8900  174.7150  136.8580 O   0  0  0  0  0  0  0  0  0  0  0  0
  188.6160  173.5340  136.1630 C   0  0  0  0  0  2  0  0  0  0  0  0
  185.2970  173.0040  137.5930 C   0  0  0  0  0  2  0  0  0  0  0  0
  186.6170  171.7480  135.6300 S   0  0  0  0  0  0  0  0  0  0  0  0
  187.4790  172.7930  136.8410 C   0  0  2  0  0  3  0  0  0  0  0  0
  185.0180  172.2440  136.3180 C   0  0  0  0  0  2  0  0  0  0  0  0
  186.5350  173.7400  137.4150 N   0  0  0  0  0  2  0  0  0  0  0  0
  1 26  1  1  0  0  0
  2 27  1  0  0  0  0
  3  7  1  1  0  0  0
  3 16  1  0  0  0  0
  4 15  1  6  0  0  0
  4 23  1  0  0  0  0
  5 15  2  0  0  0  0
  6 19  1  0  0  0  0
  9 27  1  0  0  0  0
 10 17  1  0  0  0  0
 11  5  1  0  0  0  0
 12  8  1  0  0  0  0
 13  9  1  0  0  0  0
 13 20  1  0  0  0  0
 14  2  1  0  0  0  0
 15 12  1  0  0  0  0
 16  8  1  0  0  0  0
 17 25  1  0  0  0  0
 17 28  1  0  0  0  0
 18  1  1  0  0  0  0
 18  4  1  0  0  0  0
 19  5  1  0  0  0  0
 19  3  1  0  0  0  0
 20 11  1  0  0  0  0
 20 18  1  0  0  0  0
 22 10  1  0  0  0  0
 22 24  1  0  0  0  0
 23 21  1  0  0  0  0
 24 13  1  0  0  0  0
 25 14  1  0  0  0  0
 25  9  1  0  0  0  0
 26 21  1  0  0  0  0
 27  1  1  0  0  0  0
 29 32  1  0  0  0  0
 29 28  1  0  0  0  0
 31 33  1  0  0  0  0
 31 32  1  0  0  0  0
 32 34  1  0  0  0  0
 33 30  1  0  0  0  0
 34 30  1  0  0  0  0
M  END
>  <MODEL>
1

>  <REMARK>
 VINA RESULT:      -7.9      0.000      0.000
  Name = 
  3 active torsions:
  status: ('A' for Active; 'I' for Inactive)
    1  A    between atoms: C_17  and  O_28
    2  A    between atoms: O_28  and  C_29
    3  A    between atoms: C_29  and  C_32
                            x       y       z     vdW  Elec       q    Type
                         _______ _______ _______ _____ _____    ______ ____

>  <TORSDO>
F 3

$$$$
=
 OpenBabel11122412293D

 34 40  0  0  1  0  0  0  0  0999 V2000
  184.2480  178.9040  139.1820 C   0  0  1  0  0  3  0  0  0  0  0  0
  181.9450  178.8450  138.0580 C   0  0  0  0  0  2  0  0  0  0  0  0
  188.0570  176.7260  144.1340 C   0  0  1  0  0  3  0  0  0  0  0  0
  186.3870  178.7110  140.4110 C   0  0  2  0  0  3  0  0  0  0  0  0
  186.3930  178.1810  142.8750 C   0  0  0  0  0  0  0  0  0  0  0  0
  186.2260  177.8570  145.3980 C   0  0  0  0  0  1  0  0  0  0  0  0
  187.4440  175.6050  143.5880 F   0  0  0  0  0  0  0  0  0  0  0  0
  189.1440  177.0630  142.1380 C   0  0  0  0  0  2  0  0  0  0  0  0
  182.1620  179.1350  140.3930 N   0  0  2  0  0  0  0  0  0  0  0  0
  179.9980  177.7880  142.3610 C   0  0  0  0  0  2  0  0  0  0  0  0
  184.8730  178.0930  142.8730 C   0  0  0  0  0  2  0  0  0  0  0  0
  188.5880  178.4130  141.7060 C   0  0  0  0  0  2  0  0  0  0  0  0
  182.7110  178.5850  141.6520 C   0  0  1  0  0  3  0  0  0  0  0  0
  180.5420  178.8700  138.6340 C   0  0  0  0  0  2  0  0  0  0  0  0
  187.0840  178.3760  141.7150 C   0  0  0  0  0  0  0  0  0  0  0  0
  189.3010  177.0200  143.5340 O   0  0  0  0  0  0  0  0  0  0  0  0
  180.1230  177.6740  140.8310 C   0  0  1  0  0  3  0  0  0  0  0  0
  184.9040  178.3500  140.4380 C   0  0  1  0  0  3  0  0  0  0  0  0
  187.1380  177.9510  144.1820 C   0  0  1  0  0  3  0  0  0  0  0  0
  184.2330  178.8460  141.7120 C   0  0  2  0  0  3  0  0  0  0  0  0
  186.4880  178.6360  138.1390 C   0  0  0  0  0  2  0  0  0  0  0  0
  180.5210  179.1090  142.9260 C   0  0  0  0  0  2  0  0  0  0  0  0
  186.9910  178.0480  139.3210 O   0  0  0  0  0  0  0  0  0  0  0  0
  182.0480  179.2100  142.8910 C   0  0  0  0  0  2  0  0  0  0  0  0
  180.7240  178.9300  140.1500 C   0  0  1  0  0  3  0  0  0  0  0  0
  184.9890  178.3370  137.9720 C   0  0  0  0  0  2  0  0  0  0  0  0
  182.7910  178.4830  139.2530 C   0  0  2  0  0  3  0  0  0  0  0  0
  180.8420  176.5200  140.5010 O   0  0  0  0  0  0  0  0  0  0  0  0
  179.8790  175.5780  140.1320 C   0  0  0  0  0  2  0  0  0  0  0  0
  181.6410  174.3080  137.1960 C   0  0  0  0  0  2  0  0  0  0  0  0
  179.3840  173.5190  138.4040 S   0  0  0  0  0  0  0  0  0  0  0  0
  180.0900  175.1690  138.6870 C   0  0  2  0  0  3  0  0  0  0  0  0
  180.8310  173.0520  137.4210 C   0  0  0  0  0  2  0  0  0  0  0  0
  181.5110  175.1420  138.3750 N   0  0  0  0  0  2  0  0  0  0  0  0
  1 26  1  6  0  0  0
  1 27  1  0  0  0  0
  1 18  1  0  0  0  0
  2 14  1  0  0  0  0
  2 27  1  0  0  0  0
  3  7  1  6  0  0  0
  3 19  1  0  0  0  0
  4 23  1  6  0  0  0
  4 18  1  0  0  0  0
  4 15  1  0  0  0  0
  5 19  1  0  0  0  0
  8 16  1  0  0  0  0
  9 13  1  0  0  0  0
 10 22  1  0  0  0  0
 11  5  1  0  0  0  0
 12 15  1  0  0  0  0
 12  8  1  0  0  0  0
 13 20  1  0  0  0  0
 13 24  1  0  0  0  0
 14 25  1  0  0  0  0
 15  5  2  0  0  0  0
 16  3  1  0  0  0  0
 17 10  1  0  0  0  0
 18 20  1  0  0  0  0
 19  6  1  0  0  0  0
 20 11  1  0  0  0  0
 21 23  1  0  0  0  0
 24 22  1  0  0  0  0
 25  9  1  0  0  0  0
 25 17  1  0  0  0  0
 26 21  1  0  0  0  0
 27  9  1  0  0  0  0
 28 17  1  0  0  0  0
 29 28  1  0  0  0  0
 30 33  1  0  0  0  0
 30 34  1  0  0  0  0
 31 32  1  0  0  0  0
 32 29  1  0  0  0  0
 33 31  1  0  0  0  0
 34 32  1  0  0  0  0
M  END
>  <MODEL>
2

>  <REMARK>
 VINA RESULT:      -7.7      3.781      7.072
  Name = 
  3 active torsions:
  status: ('A' for Active; 'I' for Inactive)
    1  A    between atoms: C_17  and  O_28
    2  A    between atoms: O_28  and  C_29
    3  A    between atoms: C_29  and  C_32
                            x       y       z     vdW  Elec       q    Type
                         _______ _______ _______ _____ _____    ______ ____

>  <TORSDO>
F 3

$$$$
=
 OpenBabel11122412293D

 34 40  0  0  1  0  0  0  0  0999 V2000
  188.5700  177.9440  139.4800 C   0  0  1  0  0  3  0  0  0  0  0  0
  187.9560  177.5930  137.0160 C   0  0  0  0  0  2  0  0  0  0  0  0
  186.7170  177.3000  145.8000 C   0  0  1  0  0  3  0  0  0  0  0  0
  188.9390  178.0900  141.9220 C   0  0  2  0  0  3  0  0  0  0  0  0
  186.9820  178.3360  143.4910 C   0  0  0  0  0  0  0  0  0  0  0  0
  184.9260  178.8010  144.9240 C   0  0  0  0  0  1  0  0  0  0  0  0
  186.4590  176.0780  145.1880 F   0  0  0  0  0  0  0  0  0  0  0  0
  188.9590  176.9900  145.3990 C   0  0  0  0  0  2  0  0  0  0  0  0
  186.4310  178.5770  138.5300 N   0  0  2  0  0  0  0  0  0  0  0  0
  183.2880  177.9390  138.2460 C   0  0  0  0  0  2  0  0  0  0  0  0
  186.0160  178.2830  142.3160 C   0  0  0  0  0  2  0  0  0  0  0  0
  189.2720  178.1560  144.4710 C   0  0  0  0  0  2  0  0  0  0  0  0
  185.7010  178.4250  139.8080 C   0  0  1  0  0  3  0  0  0  0  0  0
  186.6620  177.8210  136.2570 C   0  0  0  0  0  2  0  0  0  0  0  0
  188.3210  178.1540  143.3050 C   0  0  0  0  0  0  0  0  0  0  0  0
  188.0090  177.3720  146.3630 O   0  0  0  0  0  0  0  0  0  0  0  0
  184.4720  177.3610  137.4500 C   0  0  1  0  0  3  0  0  0  0  0  0
  187.9060  177.7850  140.8410 C   0  0  1  0  0  3  0  0  0  0  0  0
  186.4180  178.5000  144.8950 C   0  0  1  0  0  3  0  0  0  0  0  0
  186.6680  178.6600  140.9900 C   0  0  2  0  0  3  0  0  0  0  0  0
  190.6680  177.3240  140.6580 C   0  0  0  0  0  2  0  0  0  0  0  0
  183.5260  179.3580  138.7630 C   0  0  0  0  0  2  0  0  0  0  0  0
  189.9560  177.1140  141.8600 O   0  0  0  0  0  0  0  0  0  0  0  0
  184.5270  179.4110  139.9200 C   0  0  0  0  0  2  0  0  0  0  0  0
  185.6660  178.3370  137.2950 C   0  0  1  0  0  3  0  0  0  0  0  0
  189.7850  177.0190  139.4360 C   0  0  0  0  0  2  0  0  0  0  0  0
  187.5050  177.5950  138.4550 C   0  0  2  0  0  3  0  0  0  0  0  0
  184.8740  176.1460  138.0170 O   0  0  0  0  0  0  0  0  0  0  0  0
  183.7120  175.3750  138.0970 C   0  0  0  0  0  2  0  0  0  0  0  0
  184.2640  171.9420  136.9760 C   0  0  0  0  0  2  0  0  0  0  0  0
  182.1430  173.5660  136.7790 S   0  0  0  0  0  0  0  0  0  0  0  0
  183.8060  174.2080  137.1310 C   0  0  2  0  0  3  0  0  0  0  0  0
  182.7570  171.8670  136.9040 C   0  0  0  0  0  2  0  0  0  0  0  0
  184.6190  173.1460  137.7040 N   0  0  0  0  0  2  0  0  0  0  0  0
  1 26  1  1  0  0  0
  1 18  1  0  0  0  0
  2 27  1  0  0  0  0
  3  7  1  6  0  0  0
  3 16  1  0  0  0  0
  4 23  1  1  0  0  0
  4 15  1  0  0  0  0
  5 19  1  0  0  0  0
  8 16  1  0  0  0  0
  9 13  1  0  0  0  0
 10 22  1  0  0  0  0
 11  5  1  0  0  0  0
 12  8  1  0  0  0  0
 13 24  1  0  0  0  0
 13 20  1  0  0  0  0
 14  2  1  0  0  0  0
 14 25  1  0  0  0  0
 15  5  2  0  0  0  0
 15 12  1  0  0  0  0
 17 28  1  0  0  0  0
 17 10  1  0  0  0  0
 18 20  1  0  0  0  0
 18  4  1  0  0  0  0
 19  6  1  0  0  0  0
 19  3  1  0  0  0  0
 20 11  1  0  0  0  0
 21 23  1  0  0  0  0
 22 24  1  0  0  0  0
 25 17  1  0  0  0  0
 25  9  1  0  0  0  0
 26 21  1  0  0  0  0
 27  9  1  0  0  0  0
 27  1  1  0  0  0  0
 28 29  1  0  0  0  0
 30 34  1  0  0  0  0
 31 33  1  0  0  0  0
 31 32  1  0  0  0  0
 32 34  1  0  0  0  0
 32 29  1  0  0  0  0
 33 30  1  0  0  0  0
M  END
>  <MODEL>
3

>  <REMARK>
 VINA RESULT:      -7.6      2.486      4.314
  Name = 
  3 active torsions:
  status: ('A' for Active; 'I' for Inactive)
    1  A    between atoms: C_17  and  O_28
    2  A    between atoms: O_28  and  C_29
    3  A    between atoms: C_29  and  C_32
                            x       y       z     vdW  Elec       q    Type
                         _______ _______ _______ _____ _____    ______ ____

>  <TORSDO>
F 3

$$$$
=
 OpenBabel11122412293D

 34 40  0  0  1  0  0  0  0  0999 V2000
  188.8340  178.0620  139.6020 C   0  0  1  0  0  3  0  0  0  0  0  0
  188.3260  177.7310  137.1120 C   0  0  0  0  0  2  0  0  0  0  0  0
  186.7760  177.2350  145.8360 C   0  0  1  0  0  3  0  0  0  0  0  0
  189.1070  178.1790  142.0580 C   0  0  2  0  0  3  0  0  0  0  0  0
  187.0850  178.3210  143.5560 C   0  0  0  0  0  0  0  0  0  0  0  0
  184.9600  178.6800  144.9180 C   0  0  0  0  0  1  0  0  0  0  0  0
  186.5900  176.0150  145.1960 F   0  0  0  0  0  0  0  0  0  0  0  0
  189.0420  177.0190  145.5160 C   0  0  0  0  0  2  0  0  0  0  0  0
  186.7090  178.6280  138.5830 N   0  0  2  0  0  0  0  0  0  0  0  0
  183.6060  177.8730  138.1710 C   0  0  0  0  0  2  0  0  0  0  0  0
  186.1660  178.2510  142.3450 C   0  0  0  0  0  2  0  0  0  0  0  0
  189.3430  178.2120  144.6190 C   0  0  0  0  0  2  0  0  0  0  0  0
  185.9380  178.4250  139.8300 C   0  0  1  0  0  3  0  0  0  0  0  0
  187.0530  177.9220  136.3090 C   0  0  0  0  0  2  0  0  0  0  0  0
  188.4360  178.1950  143.4180 C   0  0  0  0  0  0  0  0  0  0  0  0
  188.0430  177.3470  146.4490 O   0  0  0  0  0  0  0  0  0  0  0  0
  184.8400  177.3560  137.4100 C   0  0  1  0  0  3  0  0  0  0  0  0
  188.1270  177.8530  140.9340 C   0  0  1  0  0  3  0  0  0  0  0  0
  186.4630  178.4380  144.9410 C   0  0  1  0  0  3  0  0  0  0  0  0
  186.8510  178.6770  141.0510 C   0  0  2  0  0  3  0  0  0  0  0  0
  190.9100  177.5030  140.8470 C   0  0  0  0  0  2  0  0  0  0  0  0
  183.7680  179.2910  138.7190 C   0  0  0  0  0  2  0  0  0  0  0  0
  190.1630  177.2450  142.0190 O   0  0  0  0  0  0  0  0  0  0  0  0
  184.7230  179.3630  139.9140 C   0  0  0  0  0  2  0  0  0  0  0  0
  186.0000  178.3800  137.3160 C   0  0  1  0  0  3  0  0  0  0  0  0
  190.0860  177.1860  139.5890 C   0  0  0  0  0  2  0  0  0  0  0  0
  187.8220  177.6900  138.5320 C   0  0  2  0  0  3  0  0  0  0  0  0
  185.2680  176.1480  137.9720 O   0  0  0  0  0  0  0  0  0  0  0  0
  184.6660  175.1490  137.2030 C   0  0  0  0  0  2  0  0  0  0  0  0
  187.6810  173.2600  136.3800 C   0  0  0  0  0  2  0  0  0  0  0  0
  185.1010  172.8510  135.7900 S   0  0  0  0  0  0  0  0  0  0  0  0
  185.7090  174.4750  136.3320 C   0  0  2  0  0  3  0  0  0  0  0  0
  186.7280  172.1210  136.1010 C   0  0  0  0  0  2  0  0  0  0  0  0
  186.9470  174.2990  137.0760 N   0  0  0  0  0  2  0  0  0  0  0  0
  1 26  1  1  0  0  0
  1 18  1  0  0  0  0
  2 27  1  0  0  0  0
  3  7  1  6  0  0  0
  3 16  1  0  0  0  0
  4 23  1  1  0  0  0
  4 15  1  0  0  0  0
  5 19  1  0  0  0  0
  6 19  1  0  0  0  0
  8 16  1  0  0  0  0
  9 13  1  0  0  0  0
 10 22  1  0  0  0  0
 11  5  1  0  0  0  0
 12  8  1  0  0  0  0
 13 24  1  0  0  0  0
 13 20  1  0  0  0  0
 14  2  1  0  0  0  0
 14 25  1  0  0  0  0
 15  5  2  0  0  0  0
 15 12  1  0  0  0  0
 17 28  1  0  0  0  0
 17 10  1  0  0  0  0
 18 20  1  0  0  0  0
 18  4  1  0  0  0  0
 19  3  1  0  0  0  0
 20 11  1  0  0  0  0
 21 23  1  0  0  0  0
 22 24  1  0  0  0  0
 25 17  1  0  0  0  0
 25  9  1  0  0  0  0
 26 21  1  0  0  0  0
 27  9  1  0  0  0  0
 27  1  1  0  0  0  0
 29 28  1  0  0  0  0
 30 34  1  0  0  0  0
 31 33  1  0  0  0  0
 31 32  1  0  0  0  0
 32 34  1  0  0  0  0
 32 29  1  0  0  0  0
 33 30  1  0  0  0  0
M  END
>  <MODEL>
4

>  <REMARK>
 VINA RESULT:      -7.5      2.193      4.099
  Name = 
  3 active torsions:
  status: ('A' for Active; 'I' for Inactive)
    1  A    between atoms: C_17  and  O_28
    2  A    between atoms: O_28  and  C_29
    3  A    between atoms: C_29  and  C_32
                            x       y       z     vdW  Elec       q    Type
                         _______ _______ _______ _____ _____    ______ ____

>  <TORSDO>
F 3

$$$$
=
 OpenBabel11122412293D

 34 40  0  0  1  0  0  0  0  0999 V2000
  189.5500  177.7750  140.6530 C   0  0  1  0  0  3  0  0  0  0  0  0
  191.5860  176.7110  139.5160 C   0  0  0  0  0  2  0  0  0  0  0  0
  182.9560  178.2780  140.8730 C   0  0  1  0  0  3  0  0  0  0  0  0
  187.4220  178.5860  141.6200 C   0  0  2  0  0  3  0  0  0  0  0  0
  185.3580  178.7580  140.1840 C   0  0  0  0  0  0  0  0  0  0  0  0
  183.4230  179.0810  138.5570 C   0  0  0  0  0  1  0  0  0  0  0  0
  183.2450  176.9190  140.8210 F   0  0  0  0  0  0  0  0  0  0  0  0
  184.0160  178.3920  142.9100 C   0  0  0  0  0  2  0  0  0  0  0  0
  189.8330  177.6630  138.2490 N   0  0  2  0  0  0  0  0  0  0  0  0
  188.9620  176.2860  135.4710 C   0  0  0  0  0  2  0  0  0  0  0  0
  186.1260  178.2070  138.9910 C   0  0  0  0  0  2  0  0  0  0  0  0
  185.1700  179.3390  142.6060 C   0  0  0  0  0  2  0  0  0  0  0  0
  188.3790  177.6640  137.9730 C   0  0  1  0  0  3  0  0  0  0  0  0
  191.9030  176.4520  138.0550 C   0  0  0  0  0  2  0  0  0  0  0  0
  185.9410  178.8420  141.4140 C   0  0  0  0  0  0  0  0  0  0  0  0
  182.8680  178.7720  142.1930 O   0  0  0  0  0  0  0  0  0  0  0  0
  190.0000  175.8140  136.5050 C   0  0  1  0  0  3  0  0  0  0  0  0
  188.0400  177.8050  140.4640 C   0  0  1  0  0  3  0  0  0  0  0  0
  183.8920  179.1250  140.0040 C   0  0  1  0  0  3  0  0  0  0  0  0
  187.6350  178.3890  139.1170 C   0  0  2  0  0  3  0  0  0  0  0  0
  189.0450  177.9450  143.0800 C   0  0  0  0  0  2  0  0  0  0  0  0
  188.7860  177.8040  135.4220 C   0  0  0  0  0  2  0  0  0  0  0  0
  187.6580  177.8780  142.8180 O   0  0  0  0  0  0  0  0  0  0  0  0
  188.0460  178.3590  136.6420 C   0  0  0  0  0  2  0  0  0  0  0  0
  190.6920  176.9660  137.2770 C   0  0  1  0  0  3  0  0  0  0  0  0
  189.8430  177.1640  142.0230 C   0  0  0  0  0  2  0  0  0  0  0  0
  190.0980  176.9590  139.4960 C   0  0  2  0  0  3  0  0  0  0  0  0
  189.4100  174.8950  137.3800 O   0  0  0  0  0  0  0  0  0  0  0  0
  189.5250  173.6560  136.7450 C   0  0  0  0  0  2  0  0  0  0  0  0
  192.9570  172.6610  135.9890 C   0  0  0  0  0  2  0  0  0  0  0  0
  190.6820  172.4310  134.5940 S   0  0  0  0  0  0  0  0  0  0  0  0
  190.8350  173.5920  135.9830 C   0  0  2  0  0  3  0  0  0  0  0  0
  192.3240  171.7590  134.9550 C   0  0  0  0  0  2  0  0  0  0  0  0
  191.9070  173.1490  136.8620 N   0  0  0  0  0  2  0  0  0  0  0  0
  1 26  1  1  0  0  0
  3  7  1  1  0  0  0
  3 16  1  0  0  0  0
  4 15  1  6  0  0  0
  4 23  1  0  0  0  0
  5 15  2  0  0  0  0
  6 19  1  0  0  0  0
  9 27  1  0  0  0  0
 10 17  1  0  0  0  0
 11 20  1  0  0  0  0
 11  5  1  0  0  0  0
 12  8  1  0  0  0  0
 13  9  1  0  0  0  0
 13 20  1  0  0  0  0
 14  2  1  0  0  0  0
 15 12  1  0  0  0  0
 16  8  1  0  0  0  0
 17 25  1  0  0  0  0
 17 28  1  0  0  0  0
 18  1  1  0  0  0  0
 18  4  1  0  0  0  0
 19  5  1  0  0  0  0
 19  3  1  0  0  0  0
 20 18  1  0  0  0  0
 22 10  1  0  0  0  0
 22 24  1  0  0  0  0
 23 21  1  0  0  0  0
 24 13  1  0  0  0  0
 25 14  1  0  0  0  0
 25  9  1  0  0  0  0
 26 21  1  0  0  0  0
 27  2  1  0  0  0  0
 27  1  1  0  0  0  0
 29 28  1  0  0  0  0
 30 34  1  0  0  0  0
 31 33  1  0  0  0  0
 31 32  1  0  0  0  0
 32 29  1  0  0  0  0
 32 34  1  0  0  0  0
 33 30  1  0  0  0  0
M  END
>  <MODEL>
5

>  <REMARK>
 VINA RESULT:      -7.0      1.739      2.354
  Name = 
  3 active torsions:
  status: ('A' for Active; 'I' for Inactive)
    1  A    between atoms: C_17  and  O_28
    2  A    between atoms: O_28  and  C_29
    3  A    between atoms: C_29  and  C_32
                            x       y       z     vdW  Elec       q    Type
                         _______ _______ _______ _____ _____    ______ ____

>  <TORSDO>
F 3

$$$$
=
 OpenBabel11122412293D

 34 40  0  0  1  0  0  0  0  0999 V2000
  190.1380  177.7010  139.7280 C   0  0  1  0  0  3  0  0  0  0  0  0
  190.2320  177.0830  137.2420 C   0  0  0  0  0  2  0  0  0  0  0  0
  186.7860  177.2910  145.4180 C   0  0  1  0  0  3  0  0  0  0  0  0
  189.8380  178.0820  142.1540 C   0  0  2  0  0  3  0  0  0  0  0  0
  187.5250  178.1750  143.1500 C   0  0  0  0  0  0  0  0  0  0  0  0
  185.1270  178.4600  143.9660 C   0  0  0  0  0  1  0  0  0  0  0  0
  186.8370  176.0030  144.8980 F   0  0  0  0  0  0  0  0  0  0  0  0
  189.0750  177.2630  145.6250 C   0  0  0  0  0  2  0  0  0  0  0  0
  188.2640  177.9600  138.2120 N   0  0  2  0  0  0  0  0  0  0  0  0
  185.3970  176.8760  137.2260 C   0  0  0  0  0  2  0  0  0  0  0  0
  186.9120  177.9010  141.7840 C   0  0  0  0  0  2  0  0  0  0  0  0
  189.4860  178.3870  144.6830 C   0  0  0  0  0  2  0  0  0  0  0  0
  187.2470  177.8070  139.2770 C   0  0  1  0  0  3  0  0  0  0  0  0
  189.1640  177.0730  136.1650 C   0  0  0  0  0  2  0  0  0  0  0  0
  188.8780  178.1660  143.3240 C   0  0  0  0  0  0  0  0  0  0  0  0
  187.8700  177.5830  146.2750 O   0  0  0  0  0  0  0  0  0  0  0  0
  186.8050  176.4080  136.8170 C   0  0  1  0  0  3  0  0  0  0  0  0
  189.1650  177.5570  140.8890 C   0  0  1  0  0  3  0  0  0  0  0  0
  186.5990  178.3670  144.3430 C   0  0  1  0  0  3  0  0  0  0  0  0
  187.8400  178.2620  140.6290 C   0  0  2  0  0  3  0  0  0  0  0  0
  191.9130  177.4670  141.4510 C   0  0  0  0  0  2  0  0  0  0  0  0
  185.3290  178.3490  137.6280 C   0  0  0  0  0  2  0  0  0  0  0  0
  190.9410  177.2540  142.4530 O   0  0  0  0  0  0  0  0  0  0  0  0
  185.9810  178.6280  138.9850 C   0  0  0  0  0  2  0  0  0  0  0  0
  187.8800  177.5240  136.8590 C   0  0  1  0  0  3  0  0  0  0  0  0
  191.4190  176.9520  140.0880 C   0  0  0  0  0  2  0  0  0  0  0  0
  189.4240  177.1330  138.5140 C   0  0  2  0  0  3  0  0  0  0  0  0
  187.1800  175.3070  137.5950 O   0  0  0  0  0  0  0  0  0  0  0  0
  186.3560  174.2600  137.1740 C   0  0  0  0  0  2  0  0  0  0  0  0
  188.6480  172.0850  135.3420 C   0  0  0  0  0  2  0  0  0  0  0  0
  185.9750  172.1280  135.5080 S   0  0  0  0  0  0  0  0  0  0  0  0
  186.9830  173.5640  135.9810 C   0  0  2  0  0  3  0  0  0  0  0  0
  187.4720  171.1400  135.2630 C   0  0  0  0  0  2  0  0  0  0  0  0
  188.3280  173.1180  136.3090 N   0  0  0  0  0  2  0  0  0  0  0  0
  1 26  1  1  0  0  0
  1 18  1  0  0  0  0
  2 27  1  0  0  0  0
  3  7  1  6  0  0  0
  3 16  1  0  0  0  0
  4 23  1  1  0  0  0
  4 15  1  0  0  0  0
  5 15  2  0  0  0  0
  5 19  1  0  0  0  0
  6 19  1  0  0  0  0
  8 16  1  0  0  0  0
  9 27  1  0  0  0  0
  9 13  1  0  0  0  0
 10 22  1  0  0  0  0
 11  5  1  0  0  0  0
 12  8  1  0  0  0  0
 13 20  1  0  0  0  0
 14 25  1  0  0  0  0
 14  2  1  0  0  0  0
 15 12  1  0  0  0  0
 17 25  1  0  0  0  0
 17 10  1  0  0  0  0
 17 28  1  0  0  0  0
 18  4  1  0  0  0  0
 19  3  1  0  0  0  0
 20 18  1  0  0  0  0
 20 11  1  0  0  0  0
 21 23  1  0  0  0  0
 22 24  1  0  0  0  0
 24 13  1  0  0  0  0
 25  9  1  0  0  0  0
 26 21  1  0  0  0  0
 27  1  1  0  0  0  0
 29 28  1  0  0  0  0
 30 34  1  0  0  0  0
 31 32  1  0  0  0  0
 32 34  1  0  0  0  0
 32 29  1  0  0  0  0
 33 30  1  0  0  0  0
 33 31  1  0  0  0  0
M  END
>  <MODEL>
6

>  <REMARK>
 VINA RESULT:      -7.0      2.165      3.484
  Name = 
  3 active torsions:
  status: ('A' for Active; 'I' for Inactive)
    1  A    between atoms: C_17  and  O_28
    2  A    between atoms: O_28  and  C_29
    3  A    between atoms: C_29  and  C_32
                            x       y       z     vdW  Elec       q    Type
                         _______ _______ _______ _____ _____    ______ ____

>  <TORSDO>
F 3

$$$$
=
 OpenBabel11122412293D

 34 40  0  0  1  0  0  0  0  0999 V2000
  189.5830  177.2850  137.2420 C   0  0  1  0  0  3  0  0  0  0  0  0
  188.3090  176.9200  135.0480 C   0  0  0  0  0  2  0  0  0  0  0  0
  189.6310  176.5350  143.8160 C   0  0  1  0  0  3  0  0  0  0  0  0
  190.6250  177.4360  139.4810 C   0  0  2  0  0  3  0  0  0  0  0  0
  189.1870  177.5920  141.5450 C   0  0  0  0  0  0  0  0  0  0  0  0
  187.6070  177.9630  143.5100 C   0  0  0  0  0  1  0  0  0  0  0  0
  189.2580  175.3070  143.2830 F   0  0  0  0  0  0  0  0  0  0  0  0
  191.6770  176.3220  142.7910 C   0  0  0  0  0  2  0  0  0  0  0  0
  187.2400  177.8310  136.9490 N   0  0  2  0  0  0  0  0  0  0  0  0
  184.1730  177.0620  137.5590 C   0  0  0  0  0  2  0  0  0  0  0  0
  187.9300  177.5040  140.6910 C   0  0  0  0  0  2  0  0  0  0  0  0
  191.6670  177.5040  141.8310 C   0  0  0  0  0  2  0  0  0  0  0  0
  186.9090  177.6430  138.3790 C   0  0  1  0  0  3  0  0  0  0  0  0
  186.8440  177.0970  134.6920 C   0  0  0  0  0  2  0  0  0  0  0  0
  190.4240  177.4680  140.9840 C   0  0  0  0  0  0  0  0  0  0  0  0
  191.0260  176.6590  143.9910 O   0  0  0  0  0  0  0  0  0  0  0  0
  185.1030  176.5390  136.4500 C   0  0  1  0  0  3  0  0  0  0  0  0
  189.3410  177.0930  138.7330 C   0  0  1  0  0  3  0  0  0  0  0  0
  189.0400  177.7260  143.0540 C   0  0  1  0  0  3  0  0  0  0  0  0
  188.1630  177.9140  139.2410 C   0  0  2  0  0  3  0  0  0  0  0  0
  191.9520  176.7490  137.7650 C   0  0  0  0  0  2  0  0  0  0  0  0
  184.4920  178.4880  138.0090 C   0  0  0  0  0  2  0  0  0  0  0  0
  191.6210  176.5040  139.1160 O   0  0  0  0  0  0  0  0  0  0  0  0
  185.7780  178.5780  138.8360 C   0  0  0  0  0  2  0  0  0  0  0  0
  186.1650  177.5650  135.9780 C   0  0  1  0  0  3  0  0  0  0  0  0
  190.7710  176.4130  136.8400 C   0  0  0  0  0  2  0  0  0  0  0  0
  188.2850  176.8970  136.5560 C   0  0  2  0  0  3  0  0  0  0  0  0
  185.6980  175.3400  136.8590 O   0  0  0  0  0  0  0  0  0  0  0  0
  184.7030  174.6580  137.5660 C   0  0  0  0  0  2  0  0  0  0  0  0
  183.5610  171.3080  136.6640 C   0  0  0  0  0  2  0  0  0  0  0  0
  182.3130  173.6780  136.6750 S   0  0  0  0  0  0  0  0  0  0  0  0
  184.1260  173.5550  136.6990 C   0  0  2  0  0  3  0  0  0  0  0  0
  182.1740  171.8800  136.8420 C   0  0  0  0  0  2  0  0  0  0  0  0
  184.5110  172.2530  137.2210 N   0  0  0  0  0  2  0  0  0  0  0  0
  1 26  1  6  0  0  0
  1 18  1  0  0  0  0
  2 27  1  0  0  0  0
  3  7  1  6  0  0  0
  3 16  1  0  0  0  0
  4 23  1  1  0  0  0
  4 15  1  0  0  0  0
  5 19  1  0  0  0  0
  8 16  1  0  0  0  0
  9 13  1  0  0  0  0
 10 22  1  0  0  0  0
 11  5  1  0  0  0  0
 12  8  1  0  0  0  0
 13 24  1  0  0  0  0
 13 20  1  0  0  0  0
 14  2  1  0  0  0  0
 14 25  1  0  0  0  0
 15  5  2  0  0  0  0
 15 12  1  0  0  0  0
 17 28  1  0  0  0  0
 17 10  1  0  0  0  0
 18 20  1  0  0  0  0
 18  4  1  0  0  0  0
 19  6  1  0  0  0  0
 19  3  1  0  0  0  0
 20 11  1  0  0  0  0
 21 23  1  0  0  0  0
 22 24  1  0  0  0  0
 25 17  1  0  0  0  0
 25  9  1  0  0  0  0
 26 21  1  0  0  0  0
 27  9  1  0  0  0  0
 27  1  1  0  0  0  0
 28 29  1  0  0  0  0
 30 33  1  0  0  0  0
 30 34  1  0  0  0  0
 31 32  1  0  0  0  0
 31 33  1  0  0  0  0
 32 34  1  0  0  0  0
 32 29  1  0  0  0  0
M  END
>  <MODEL>
7

>  <REMARK>
 VINA RESULT:      -6.8      2.684      4.738
  Name = 
  3 active torsions:
  status: ('A' for Active; 'I' for Inactive)
    1  A    between atoms: C_17  and  O_28
    2  A    between atoms: O_28  and  C_29
    3  A    between atoms: C_29  and  C_32
                            x       y       z     vdW  Elec       q    Type
                         _______ _______ _______ _____ _____    ______ ____

>  <TORSDO>
F 3

$$$$
=
 OpenBabel11122412293D

 34 40  0  0  1  0  0  0  0  0999 V2000
  185.6080  178.2550  138.2610 C   0  0  1  0  0  3  0  0  0  0  0  0
  183.9660  177.6960  136.3730 C   0  0  0  0  0  2  0  0  0  0  0  0
  187.1570  177.5320  144.6530 C   0  0  1  0  0  3  0  0  0  0  0  0
  187.0660  178.5660  140.2350 C   0  0  2  0  0  3  0  0  0  0  0  0
  186.0900  178.5050  142.5580 C   0  0  0  0  0  0  0  0  0  0  0  0
  184.9240  178.6350  144.8210 C   0  0  0  0  0  1  0  0  0  0  0  0
  186.8670  176.2600  144.1730 F   0  0  0  0  0  0  0  0  0  0  0  0
  188.9480  177.6310  143.2160 C   0  0  0  0  0  2  0  0  0  0  0  0
  183.2010  178.4380  138.4820 N   0  0  2  0  0  0  0  0  0  0  0  0
  180.4820  177.2120  139.6970 C   0  0  0  0  0  2  0  0  0  0  0  0
  184.7080  178.2250  141.9850 C   0  0  0  0  0  2  0  0  0  0  0  0
  188.5590  178.7960  142.3160 C   0  0  0  0  0  2  0  0  0  0  0  0
  183.2120  178.2040  139.9430 C   0  0  1  0  0  3  0  0  0  0  0  0
  182.4500  177.6470  136.3370 C   0  0  0  0  0  2  0  0  0  0  0  0
  187.1850  178.5690  141.7470 C   0  0  0  0  0  0  0  0  0  0  0  0
  188.5230  177.8670  144.5360 O   0  0  0  0  0  0  0  0  0  0  0  0
  181.2240  176.8350  138.4020 C   0  0  1  0  0  3  0  0  0  0  0  0
  185.7180  178.0300  139.7630 C   0  0  1  0  0  3  0  0  0  0  0  0
  186.2470  178.6180  144.0680 C   0  0  1  0  0  3  0  0  0  0  0  0
  184.5650  178.6630  140.5310 C   0  0  2  0  0  3  0  0  0  0  0  0
  188.0870  178.0860  138.2600 C   0  0  0  0  0  2  0  0  0  0  0  0
  180.6730  178.6710  140.1140 C   0  0  0  0  0  2  0  0  0  0  0  0
  188.0890  177.7960  139.6420 O   0  0  0  0  0  0  0  0  0  0  0  0
  182.0770  178.9570  140.6550 C   0  0  0  0  0  2  0  0  0  0  0  0
  181.9970  178.0090  137.7500 C   0  0  1  0  0  3  0  0  0  0  0  0
  186.8000  177.5730  137.5920 C   0  0  0  0  0  2  0  0  0  0  0  0
  184.2670  177.6720  137.8500 C   0  0  2  0  0  3  0  0  0  0  0  0
  182.0630  175.7410  138.6420 O   0  0  0  0  0  0  0  0  0  0  0  0
  181.4540  174.6610  137.9970 C   0  0  0  0  0  2  0  0  0  0  0  0
  184.5630  173.0740  136.9210 C   0  0  0  0  0  2  0  0  0  0  0  0
  182.0150  172.2510  136.8370 S   0  0  0  0  0  0  0  0  0  0  0  0
  182.4440  174.0030  137.0550 C   0  0  2  0  0  3  0  0  0  0  0  0
  183.7630  171.7930  136.9570 C   0  0  0  0  0  2  0  0  0  0  0  0
  183.7920  174.1030  137.5930 N   0  0  0  0  0  2  0  0  0  0  0  0
  1 26  1  6  0  0  0
  1 18  1  0  0  0  0
  2 27  1  0  0  0  0
  3  7  1  6  0  0  0
  4 23  1  6  0  0  0
  4 15  1  0  0  0  0
  5 19  1  0  0  0  0
  8 16  1  0  0  0  0
  9 13  1  0  0  0  0
 10 22  1  0  0  0  0
 11  5  1  0  0  0  0
 12  8  1  0  0  0  0
 13 20  1  0  0  0  0
 13 24  1  0  0  0  0
 14  2  1  0  0  0  0
 14 25  1  0  0  0  0
 15 12  1  0  0  0  0
 15  5  2  0  0  0  0
 16  3  1  0  0  0  0
 17 28  1  0  0  0  0
 17 10  1  0  0  0  0
 18  4  1  0  0  0  0
 18 20  1  0  0  0  0
 19  3  1  0  0  0  0
 19  6  1  0  0  0  0
 20 11  1  0  0  0  0
 21 23  1  0  0  0  0
 22 24  1  0  0  0  0
 25 17  1  0  0  0  0
 25  9  1  0  0  0  0
 26 21  1  0  0  0  0
 27  1  1  0  0  0  0
 27  9  1  0  0  0  0
 29 28  1  0  0  0  0
 30 33  1  0  0  0  0
 30 34  1  0  0  0  0
 31 33  1  0  0  0  0
 31 32  1  0  0  0  0
 32 34  1  0  0  0  0
 32 29  1  0  0  0  0
M  END
>  <MODEL>
8

>  <REMARK>
 VINA RESULT:      -6.8      2.844      5.630
  Name = 
  3 active torsions:
  status: ('A' for Active; 'I' for Inactive)
    1  A    between atoms: C_17  and  O_28
    2  A    between atoms: O_28  and  C_29
    3  A    between atoms: C_29  and  C_32
                            x       y       z     vdW  Elec       q    Type
                         _______ _______ _______ _____ _____    ______ ____

>  <TORSDO>
F 3

$$$$
=
 OpenBabel11122412293D

 34 40  0  0  1  0  0  0  0  0999 V2000
  181.1680  178.5560  137.0070 C   0  0  1  0  0  3  0  0  0  0  0  0
  182.5050  176.6610  138.1000 C   0  0  0  0  0  2  0  0  0  0  0  0
  179.6940  185.0070  136.9910 C   0  0  1  0  0  3  0  0  0  0  0  0
  180.0650  180.5730  136.0940 C   0  0  2  0  0  3  0  0  0  0  0  0
  179.5660  182.5370  137.5920 C   0  0  0  0  0  0  0  0  0  0  0  0
  178.9330  184.3450  139.2740 C   0  0  0  0  0  1  0  0  0  0  0  0
  181.0800  184.9200  137.0620 F   0  0  0  0  0  0  0  0  0  0  0  0
  179.7710  184.0140  134.9190 C   0  0  0  0  0  2  0  0  0  0  0  0
  181.2830  178.2080  139.4040 N   0  0  2  0  0  0  0  0  0  0  0  0
  182.4720  179.1760  142.2360 C   0  0  0  0  0  2  0  0  0  0  0  0
  180.2060  181.8180  138.7710 C   0  0  0  0  0  2  0  0  0  0  0  0
  179.0010  182.7230  135.1660 C   0  0  0  0  0  2  0  0  0  0  0  0
  181.0620  179.6350  139.7260 C   0  0  1  0  0  3  0  0  0  0  0  0
  182.7840  176.3350  139.5550 C   0  0  0  0  0  2  0  0  0  0  0  0
  179.5890  181.9920  136.3430 C   0  0  0  0  0  0  0  0  0  0  0  0
  179.2130  185.0670  135.6650 O   0  0  0  0  0  0  0  0  0  0  0  0
  183.1080  178.2560  141.1790 C   0  0  1  0  0  3  0  0  0  0  0  0
  180.9110  180.0370  137.2450 C   0  0  1  0  0  3  0  0  0  0  0  0
  178.9820  183.9260  137.8120 C   0  0  1  0  0  3  0  0  0  0  0  0
  180.2520  180.3040  138.5930 C   0  0  2  0  0  3  0  0  0  0  0  0
  180.9620  179.1160  134.5950 C   0  0  0  0  0  2  0  0  0  0  0  0
  180.9440  179.1230  142.2600 C   0  0  0  0  0  2  0  0  0  0  0  0
  180.8190  180.4870  134.9040 O   0  0  0  0  0  0  0  0  0  0  0  0
  180.3040  179.8150  141.0520 C   0  0  0  0  0  2  0  0  0  0  0  0
  182.0850  177.4280  140.3610 C   0  0  1  0  0  3  0  0  0  0  0  0
  181.8360  178.4050  135.6420 C   0  0  0  0  0  2  0  0  0  0  0  0
  182.0380  178.0940  138.1630 C   0  0  2  0  0  3  0  0  0  0  0  0
  183.9430  179.0060  140.3430 O   0  0  0  0  0  0  0  0  0  0  0  0
  185.1260  179.1830  141.0660 C   0  0  0  0  0  2  0  0  0  0  0  0
  187.7630  178.0230  138.8210 C   0  0  0  0  0  2  0  0  0  0  0  0
  187.7410  178.4950  141.4570 S   0  0  0  0  0  0  0  0  0  0  0  0
  186.2030  178.2670  140.5170 C   0  0  2  0  0  3  0  0  0  0  0  0
  188.7030  178.4500  139.9240 C   0  0  0  0  0  2  0  0  0  0  0  0
  186.4500  178.5660  139.1150 N   0  0  0  0  0  2  0  0  0  0  0  0
  1 26  1  6  0  0  0
  1 18  1  0  0  0  0
  1 27  1  0  0  0  0
  2 27  1  0  0  0  0
  2 14  1  0  0  0  0
  3  7  1  6  0  0  0
  3 19  1  0  0  0  0
  4 23  1  6  0  0  0
  4 15  1  0  0  0  0
  4 18  1  0  0  0  0
  5 19  1  0  0  0  0
  5 11  1  0  0  0  0
  8 12  1  0  0  0  0
  8 16  1  0  0  0  0
  9 13  1  0  0  0  0
  9 25  1  0  0  0  0
 10 22  1  0  0  0  0
 12 15  1  0  0  0  0
 13 24  1  0  0  0  0
 14 25  1  0  0  0  0
 15  5  2  0  0  0  0
 16  3  1  0  0  0  0
 17 10  1  0  0  0  0
 18 20  1  0  0  0  0
 19  6  1  0  0  0  0
 20 11  1  0  0  0  0
 20 13  1  0  0  0  0
 21 23  1  0  0  0  0
 21 26  1  0  0  0  0
 24 22  1  0  0  0  0
 25 17  1  0  0  0  0
 27  9  1  0  0  0  0
 28 29  1  0  0  0  0
 28 17  1  0  0  0  0
 30 34  1  0  0  0  0
 30 33  1  0  0  0  0
 32 29  1  0  0  0  0
 32 31  1  0  0  0  0
 33 31  1  0  0  0  0
 34 32  1  0  0  0  0
M  END
>  <MODEL>
9

>  <REMARK>
 VINA RESULT:      -6.3      4.873      8.614
  Name = 
  3 active torsions:
  status: ('A' for Active; 'I' for Inactive)
    1  A    between atoms: C_17  and  O_28
    2  A    between atoms: O_28  and  C_29
    3  A    between atoms: C_29  and  C_32
                            x       y       z     vdW  Elec       q    Type
                         _______ _______ _______ _____ _____    ______ ____

>  <TORSDO>
F 3

$$$$
