=
 OpenBabel11122410283D

 30 35  0  0  1  0  0  0  0  0999 V2000
  185.5700  178.4810  142.5530 C   0  0  0  0  0  0  0  0  0  0  0  0
  186.4350  178.3370  144.9360 C   0  0  0  0  0  0  0  0  0  0  0  0
  181.6390  178.8480  143.9760 N   0  0  0  0  0  2  0  0  0  0  0  0
  184.4430  178.5940  141.6790 C   0  0  0  0  0  0  0  0  0  0  0  0
  186.8430  178.4060  141.9780 C   0  0  0  0  0  3  0  0  0  0  0  0
  186.1300  178.5440  138.3660 O   0  0  0  0  0  1  0  0  0  0  0  0
  182.4210  177.5740  139.5460 C   0  0  1  0  0  3  0  0  0  0  0  0
  185.9330  178.5260  139.7450 C   0  0  0  0  0  0  0  0  0  0  0  0
  181.5050  177.7750  140.6930 N   0  0  2  0  0  0  0  0  0  0  0  0
  180.8540  178.9960  142.7570 C   0  0  1  0  0  3  0  0  0  0  0  0
  187.0330  178.4280  140.6000 C   0  0  0  0  0  0  0  0  0  0  0  0
  184.6330  178.6010  140.2710 C   0  0  0  0  0  0  0  0  0  0  0  0
  186.1370  178.3340  146.2990 C   0  0  0  0  0  3  0  0  0  0  0  0
  180.2150  178.0360  140.0790 C   0  0  0  0  0  2  0  0  0  0  0  0
  181.6480  177.3500  138.3280 N   0  0  0  0  0  2  0  0  0  0  0  0
  188.1500  178.1840  144.5590 Cl  0  0  0  0  0  0  0  0  0  0  0  0
  182.9920  178.6780  143.6030 C   0  0  0  0  0  0  0  0  0  0  0  0
  184.8210  178.4450  146.7300 C   0  0  0  0  0  3  0  0  0  0  0  0
  185.3830  178.4550  143.9770 C   0  0  0  0  0  0  0  0  0  0  0  0
  183.1660  178.6880  142.2520 C   0  0  0  0  0  0  0  0  0  0  0  0
  180.1770  180.3520  142.7500 C   0  0  0  0  0  1  0  0  0  0  0  0
  181.8480  178.9040  141.5720 C   0  0  1  0  0  3  0  0  0  0  0  0
  180.2540  177.3860  138.7270 C   0  0  0  0  0  2  0  0  0  0  0  0
  182.9490  180.0630  139.0760 C   0  0  0  0  0  1  0  0  0  0  0  0
  183.8200  178.5540  145.8260 N   0  0  0  0  0  0  0  0  0  0  0  0
  184.0570  178.5590  144.4870 C   0  0  0  0  0  0  0  0  0  0  0  0
  183.4880  178.6560  139.2970 C   0  0  2  0  0  3  0  0  0  0  0  0
  188.4240  178.3650  140.0600 C   0  0  0  0  0  2  0  0  0  0  0  0
  190.5780  177.1610  140.2430 C   0  0  0  0  0  1  0  0  0  0  0  0
  189.2990  177.5220  140.9680 C   0  0  0  0  0  2  0  0  0  0  0  0
  1 19  1  0  0  0  0
  2 13  1  0  0  0  0
  4 20  1  0  0  0  0
  4  1  2  0  0  0  0
  5  1  1  0  0  0  0
  6  8  1  0  0  0  0
  7 15  1  6  0  0  0
  7  9  1  0  0  0  0
  8 12  2  0  0  0  0
  8 11  1  0  0  0  0
  9 14  1  6  0  0  0
  9 22  1  0  0  0  0
 10 21  1  1  0  0  0
 10  3  1  0  0  0  0
 11  5  2  0  0  0  0
 12  4  1  0  0  0  0
 13 18  2  0  0  0  0
 15 23  1  0  0  0  0
 16  2  1  0  0  0  0
 17  3  1  0  0  0  0
 17 26  1  0  0  0  0
 19 26  1  0  0  0  0
 19  2  2  0  0  0  0
 20 17  2  0  0  0  0
 22 20  1  1  0  0  0
 22 10  1  0  0  0  0
 23 14  1  0  0  0  0
 25 18  1  0  0  0  0
 26 25  2  0  0  0  0
 27 24  1  1  0  0  0
 27  7  1  0  0  0  0
 27 12  1  0  0  0  0
 28 11  1  0  0  0  0
 28 30  1  0  0  0  0
 29 30  1  0  0  0  0
M  END
>  <MODEL>
1

>  <REMARK>
 VINA RESULT:      -8.9      0.000      0.000
  Name = 
  2 active torsions:
  status: ('A' for Active; 'I' for Inactive)
    1  A    between atoms: C_11  and  C_28
    2  A    between atoms: C_28  and  C_30
                            x       y       z     vdW  Elec       q    Type
                         _______ _______ _______ _____ _____    ______ ____

>  <TORSDO>
F 2

$$$$
=
 OpenBabel11122410283D

 30 35  0  0  1  0  0  0  0  0999 V2000
  186.0600  178.3840  143.0090 C   0  0  0  0  0  0  0  0  0  0  0  0
  185.6840  178.4940  140.5010 C   0  0  0  0  0  0  0  0  0  0  0  0
  190.1890  177.9540  142.3980 N   0  0  0  0  0  2  0  0  0  0  0  0
  186.9850  178.2330  144.0900 C   0  0  0  0  0  0  0  0  0  0  0  0
  184.7080  178.5640  143.3220 C   0  0  0  0  0  3  0  0  0  0  0  0
  184.6870  178.4450  147.0040 O   0  0  0  0  0  1  0  0  0  0  0  0
  188.2850  176.7480  146.4950 C   0  0  1  0  0  3  0  0  0  0  0  0
  185.1520  178.4260  145.6910 C   0  0  0  0  0  0  0  0  0  0  0  0
  189.4360  176.7840  145.5630 N   0  0  2  0  0  0  0  0  0  0  0  0
  190.7240  177.8970  143.7530 C   0  0  1  0  0  3  0  0  0  0  0  0
  184.2500  178.5870  144.6360 C   0  0  0  0  0  0  0  0  0  0  0  0
  186.5190  178.2390  145.4310 C   0  0  0  0  0  0  0  0  0  0  0  0
  186.2460  178.4670  139.2230 C   0  0  0  0  0  3  0  0  0  0  0  0
  190.6000  176.7490  146.4300 C   0  0  0  0  0  2  0  0  0  0  0  0
  188.7340  176.3320  147.8200 N   0  0  0  0  0  2  0  0  0  0  0  0
  183.9340  178.6950  140.5280 Cl  0  0  0  0  0  0  0  0  0  0  0  0
  188.7830  178.0620  142.4910 C   0  0  0  0  0  0  0  0  0  0  0  0
  187.6170  178.3100  139.0620 C   0  0  0  0  0  3  0  0  0  0  0  0
  186.5220  178.3600  141.6500 C   0  0  0  0  0  0  0  0  0  0  0  0
  188.3440  178.0700  143.7810 C   0  0  0  0  0  0  0  0  0  0  0  0
  191.6450  179.0800  143.9850 C   0  0  0  0  0  1  0  0  0  0  0  0
  189.5130  177.9840  144.7150 C   0  0  1  0  0  3  0  0  0  0  0  0
  190.1580  176.0840  147.7010 C   0  0  0  0  0  2  0  0  0  0  0  0
  188.1850  179.2780  147.0280 C   0  0  0  0  0  1  0  0  0  0  0  0
  188.4150  178.1790  140.1480 N   0  0  0  0  0  0  0  0  0  0  0  0
  187.9170  178.1960  141.4130 C   0  0  0  0  0  0  0  0  0  0  0  0
  187.4300  178.0240  146.6090 C   0  0  2  0  0  3  0  0  0  0  0  0
  182.7950  178.8030  144.8920 C   0  0  0  0  0  2  0  0  0  0  0  0
  180.5930  178.6340  143.7770 C   0  0  0  0  0  1  0  0  0  0  0  0
  182.0550  178.9780  143.5800 C   0  0  0  0  0  2  0  0  0  0  0  0
  1  5  2  0  0  0  0
  1  4  1  0  0  0  0
  2 16  1  0  0  0  0
  2 19  1  0  0  0  0
  3 17  1  0  0  0  0
  3 10  1  0  0  0  0
  4 12  2  0  0  0  0
  5 11  1  0  0  0  0
  7 27  1  0  0  0  0
  7 15  1  1  0  0  0
  8  6  1  0  0  0  0
  9 14  1  1  0  0  0
  9  7  1  0  0  0  0
 10 21  1  1  0  0  0
 10 22  1  0  0  0  0
 11 28  1  0  0  0  0
 11  8  2  0  0  0  0
 12  8  1  0  0  0  0
 12 27  1  0  0  0  0
 13  2  2  0  0  0  0
 14 23  1  0  0  0  0
 17 20  2  0  0  0  0
 18 13  1  0  0  0  0
 18 25  2  0  0  0  0
 19  1  1  0  0  0  0
 20  4  1  0  0  0  0
 22 20  1  6  0  0  0
 22  9  1  0  0  0  0
 23 15  1  0  0  0  0
 25 26  1  0  0  0  0
 26 19  2  0  0  0  0
 26 17  1  0  0  0  0
 27 24  1  6  0  0  0
 30 29  1  0  0  0  0
 30 28  1  0  0  0  0
M  END
>  <MODEL>
2

>  <REMARK>
 VINA RESULT:      -8.2      3.704      8.002
  Name = 
  2 active torsions:
  status: ('A' for Active; 'I' for Inactive)
    1  A    between atoms: C_11  and  C_28
    2  A    between atoms: C_28  and  C_30
                            x       y       z     vdW  Elec       q    Type
                         _______ _______ _______ _____ _____    ______ ____

>  <TORSDO>
F 2

$$$$
=
 OpenBabel11122410283D

 30 35  0  0  1  0  0  0  0  0999 V2000
  189.1100  177.3530  143.6770 C   0  0  0  0  0  0  0  0  0  0  0  0
  191.1210  176.3210  144.8350 C   0  0  0  0  0  0  0  0  0  0  0  0
  187.3000  178.0600  147.3970 N   0  0  0  0  0  2  0  0  0  0  0  0
  187.8170  177.9520  143.8010 C   0  0  0  0  0  0  0  0  0  0  0  0
  189.6430  177.1990  142.3930 C   0  0  0  0  0  3  0  0  0  0  0  0
  186.9940  178.5670  140.2290 O   0  0  0  0  0  1  0  0  0  0  0  0
  184.7230  178.0580  143.4960 C   0  0  1  0  0  3  0  0  0  0  0  0
  187.6820  178.1730  141.3730 C   0  0  0  0  0  0  0  0  0  0  0  0
  184.8360  178.0830  144.9730 N   0  0  2  0  0  0  0  0  0  0  0  0
  186.0530  178.7260  147.0410 C   0  0  1  0  0  3  0  0  0  0  0  0
  188.9510  177.5990  141.2540 C   0  0  0  0  0  0  0  0  0  0  0  0
  187.1010  178.3460  142.6400 C   0  0  0  0  0  0  0  0  0  0  0  0
  191.7340  175.9660  146.0370 C   0  0  0  0  0  3  0  0  0  0  0  0
  183.6360  178.7740  145.4120 C   0  0  0  0  0  2  0  0  0  0  0  0
  183.3550  178.3760  143.0980 N   0  0  0  0  0  2  0  0  0  0  0  0
  192.0610  175.9450  143.3930 Cl  0  0  0  0  0  0  0  0  0  0  0  0
  187.9790  177.7410  146.1990 C   0  0  0  0  0  0  0  0  0  0  0  0
  191.0960  176.2050  147.2480 C   0  0  0  0  0  3  0  0  0  0  0  0
  189.8310  176.9350  144.8470 C   0  0  0  0  0  0  0  0  0  0  0  0
  187.2870  178.1240  145.0890 C   0  0  0  0  0  0  0  0  0  0  0  0
  186.0450  180.1290  147.6180 C   0  0  0  0  0  1  0  0  0  0  0  0
  186.0110  178.7980  145.4940 C   0  0  1  0  0  3  0  0  0  0  0  0
  182.6150  178.5710  144.3300 C   0  0  0  0  0  2  0  0  0  0  0  0
  185.6920  180.4120  143.0280 C   0  0  0  0  0  1  0  0  0  0  0  0
  189.8720  176.7840  147.2650 N   0  0  0  0  0  0  0  0  0  0  0  0
  189.2320  177.1460  146.1220 C   0  0  0  0  0  0  0  0  0  0  0  0
  185.7140  178.9250  142.6980 C   0  0  2  0  0  3  0  0  0  0  0  0
  189.5930  177.4220  139.9170 C   0  0  0  0  0  2  0  0  0  0  0  0
  191.6250  176.6280  138.7510 C   0  0  0  0  0  1  0  0  0  0  0  0
  191.0570  177.0620  140.0850 C   0  0  0  0  0  2  0  0  0  0  0  0
  1  4  1  0  0  0  0
  1 19  1  0  0  0  0
  2 19  2  0  0  0  0
  2 13  1  0  0  0  0
  4 20  1  0  0  0  0
  5  1  2  0  0  0  0
  6  8  1  0  0  0  0
  7 15  1  1  0  0  0
  7  9  1  0  0  0  0
  8 12  1  0  0  0  0
  9 14  1  1  0  0  0
  9 22  1  0  0  0  0
 10  3  1  0  0  0  0
 10 21  1  1  0  0  0
 11  8  2  0  0  0  0
 11  5  1  0  0  0  0
 12 27  1  0  0  0  0
 12  4  2  0  0  0  0
 13 18  2  0  0  0  0
 15 23  1  0  0  0  0
 16  2  1  0  0  0  0
 17  3  1  0  0  0  0
 18 25  1  0  0  0  0
 19 26  1  0  0  0  0
 20 17  2  0  0  0  0
 22 20  1  6  0  0  0
 22 10  1  0  0  0  0
 23 14  1  0  0  0  0
 26 17  1  0  0  0  0
 26 25  2  0  0  0  0
 27 24  1  1  0  0  0
 27  7  1  0  0  0  0
 28 30  1  0  0  0  0
 28 11  1  0  0  0  0
 29 30  1  0  0  0  0
M  END
>  <MODEL>
3

>  <REMARK>
 VINA RESULT:      -8.2      2.866      4.959
  Name = 
  2 active torsions:
  status: ('A' for Active; 'I' for Inactive)
    1  A    between atoms: C_11  and  C_28
    2  A    between atoms: C_28  and  C_30
                            x       y       z     vdW  Elec       q    Type
                         _______ _______ _______ _____ _____    ______ ____

>  <TORSDO>
F 2

$$$$
=
 OpenBabel11122410283D

 30 35  0  0  1  0  0  0  0  0999 V2000
  185.2510  178.5870  142.1620 C   0  0  0  0  0  0  0  0  0  0  0  0
  187.3680  178.3760  140.7750 C   0  0  0  0  0  0  0  0  0  0  0  0
  182.9220  178.4410  138.6740 N   0  0  0  0  0  2  0  0  0  0  0  0
  183.8240  178.6820  142.1860 C   0  0  0  0  0  0  0  0  0  0  0  0
  185.9320  178.6040  143.3840 C   0  0  0  0  0  3  0  0  0  0  0  0
  183.2100  178.9450  145.8430 O   0  0  0  0  0  1  0  0  0  0  0  0
  181.1070  180.1280  142.6390 C   0  0  1  0  0  3  0  0  0  0  0  0
  183.8720  178.8250  144.6230 C   0  0  0  0  0  0  0  0  0  0  0  0
  181.0290  179.8870  141.1790 N   0  0  2  0  0  0  0  0  0  0  0  0
  181.5570  178.5090  139.1800 C   0  0  1  0  0  3  0  0  0  0  0  0
  185.2650  178.7190  144.5990 C   0  0  0  0  0  0  0  0  0  0  0  0
  183.1410  178.8170  143.4240 C   0  0  0  0  0  0  0  0  0  0  0  0
  187.9390  178.2530  139.5070 C   0  0  0  0  0  3  0  0  0  0  0  0
  179.6050  179.8220  140.9020 C   0  0  0  0  0  2  0  0  0  0  0  0
  179.8060  180.5610  143.1400 N   0  0  0  0  0  2  0  0  0  0  0  0
  188.5280  178.4050  142.1020 Cl  0  0  0  0  0  0  0  0  0  0  0  0
  183.7990  178.5210  139.7790 C   0  0  0  0  0  0  0  0  0  0  0  0
  187.1330  178.2210  138.3750 C   0  0  0  0  0  3  0  0  0  0  0  0
  185.9500  178.4700  140.9120 C   0  0  0  0  0  0  0  0  0  0  0  0
  183.1360  178.6480  140.9630 C   0  0  0  0  0  0  0  0  0  0  0  0
  180.8190  177.2330  138.8230 C   0  0  0  0  0  1  0  0  0  0  0  0
  181.6580  178.6380  140.7210 C   0  0  1  0  0  3  0  0  0  0  0  0
  178.9310  180.6140  141.9840 C   0  0  0  0  0  2  0  0  0  0  0  0
  180.8860  177.6680  143.4140 C   0  0  0  0  0  1  0  0  0  0  0  0
  185.7880  178.3120  138.4990 N   0  0  0  0  0  0  0  0  0  0  0  0
  185.1840  178.4360  139.7110 C   0  0  0  0  0  0  0  0  0  0  0  0
  181.6490  178.9830  143.5150 C   0  0  2  0  0  3  0  0  0  0  0  0
  186.0580  178.7090  145.8640 C   0  0  0  0  0  2  0  0  0  0  0  0
  188.3870  177.8780  145.9320 C   0  0  0  0  0  1  0  0  0  0  0  0
  186.9290  177.4690  145.9230 C   0  0  0  0  0  2  0  0  0  0  0  0
  1  4  1  0  0  0  0
  1  5  2  0  0  0  0
  2 19  1  0  0  0  0
  2 16  1  0  0  0  0
  3 10  1  0  0  0  0
  3 17  1  0  0  0  0
  4 12  2  0  0  0  0
  5 11  1  0  0  0  0
  7 15  1  1  0  0  0
  7 27  1  0  0  0  0
  8  6  1  0  0  0  0
  9 14  1  1  0  0  0
  9  7  1  0  0  0  0
 10 21  1  1  0  0  0
 10 22  1  0  0  0  0
 11  8  2  0  0  0  0
 11 28  1  0  0  0  0
 12 27  1  0  0  0  0
 12  8  1  0  0  0  0
 13  2  2  0  0  0  0
 14 23  1  0  0  0  0
 17 20  2  0  0  0  0
 18 25  2  0  0  0  0
 18 13  1  0  0  0  0
 19  1  1  0  0  0  0
 20  4  1  0  0  0  0
 22 20  1  6  0  0  0
 22  9  1  0  0  0  0
 23 15  1  0  0  0  0
 25 26  1  0  0  0  0
 26 17  1  0  0  0  0
 26 19  2  0  0  0  0
 27 24  1  6  0  0  0
 28 30  1  0  0  0  0
 30 29  1  0  0  0  0
M  END
>  <MODEL>
4

>  <REMARK>
 VINA RESULT:      -8.0      2.216      4.827
  Name = 
  2 active torsions:
  status: ('A' for Active; 'I' for Inactive)
    1  A    between atoms: C_11  and  C_28
    2  A    between atoms: C_28  and  C_30
                            x       y       z     vdW  Elec       q    Type
                         _______ _______ _______ _____ _____    ______ ____

>  <TORSDO>
F 2

$$$$
=
 OpenBabel11122410283D

 30 35  0  0  1  0  0  0  0  0999 V2000
  184.9310  178.5720  141.7760 C   0  0  0  0  0  0  0  0  0  0  0  0
  187.4400  178.4270  141.4160 C   0  0  0  0  0  0  0  0  0  0  0  0
  184.2950  178.2910  137.6370 N   0  0  0  0  0  2  0  0  0  0  0  0
  183.6240  178.6120  141.1940 C   0  0  0  0  0  0  0  0  0  0  0  0
  185.0320  178.6300  143.1700 C   0  0  0  0  0  3  0  0  0  0  0  0
  181.5180  178.8960  144.2440 O   0  0  0  0  0  1  0  0  0  0  0  0
  180.9270  179.9560  140.4210 C   0  0  1  0  0  3  0  0  0  0  0  0
  182.6350  178.7870  143.4200 C   0  0  0  0  0  0  0  0  0  0  0  0
  181.4800  179.6940  139.0710 N   0  0  2  0  0  0  0  0  0  0  0  0
  182.8420  178.3120  137.5190 C   0  0  1  0  0  3  0  0  0  0  0  0
  183.9110  178.7350  143.9880 C   0  0  0  0  0  0  0  0  0  0  0  0
  182.4790  178.7350  142.0250 C   0  0  0  0  0  0  0  0  0  0  0  0
  188.4950  178.3100  140.5100 C   0  0  0  0  0  3  0  0  0  0  0  0
  180.3080  179.5700  138.2220 C   0  0  0  0  0  2  0  0  0  0  0  0
  179.5240  180.3440  140.3140 N   0  0  0  0  0  2  0  0  0  0  0  0
  187.9300  178.5170  143.1060 Cl  0  0  0  0  0  0  0  0  0  0  0  0
  184.6220  178.4200  139.0060 C   0  0  0  0  0  0  0  0  0  0  0  0
  188.2440  178.2320  139.1460 C   0  0  0  0  0  3  0  0  0  0  0  0
  186.0940  178.4660  140.9400 C   0  0  0  0  0  0  0  0  0  0  0  0
  183.5180  178.5350  139.7970 C   0  0  0  0  0  0  0  0  0  0  0  0
  182.3630  177.0040  136.9200 C   0  0  0  0  0  1  0  0  0  0  0  0
  182.2800  178.4650  138.9550 C   0  0  1  0  0  3  0  0  0  0  0  0
  179.2170  180.3480  138.8970 C   0  0  0  0  0  2  0  0  0  0  0  0
  180.4750  177.4990  141.0980 C   0  0  0  0  0  1  0  0  0  0  0  0
  186.9700  178.2720  138.6890 N   0  0  0  0  0  0  0  0  0  0  0  0
  185.9080  178.3880  139.5300 C   0  0  0  0  0  0  0  0  0  0  0  0
  181.0830  178.8440  141.4740 C   0  0  2  0  0  3  0  0  0  0  0  0
  184.0960  178.7710  145.4690 C   0  0  0  0  0  2  0  0  0  0  0  0
  186.2070  178.0830  146.5600 C   0  0  0  0  0  1  0  0  0  0  0  0
  185.5110  179.1980  145.8070 C   0  0  0  0  0  2  0  0  0  0  0  0
  1  5  2  0  0  0  0
  2 16  1  0  0  0  0
  3 17  1  0  0  0  0
  4  1  1  0  0  0  0
  4 12  2  0  0  0  0
  5 11  1  0  0  0  0
  7 15  1  6  0  0  0
  7 27  1  0  0  0  0
  8 11  2  0  0  0  0
  8  6  1  0  0  0  0
  9 14  1  6  0  0  0
  9  7  1  0  0  0  0
 10 21  1  1  0  0  0
 10  3  1  0  0  0  0
 10 22  1  0  0  0  0
 11 28  1  0  0  0  0
 12  8  1  0  0  0  0
 13  2  2  0  0  0  0
 14 23  1  0  0  0  0
 17 26  1  0  0  0  0
 17 20  2  0  0  0  0
 18 13  1  0  0  0  0
 19  2  1  0  0  0  0
 19  1  1  0  0  0  0
 20  4  1  0  0  0  0
 22  9  1  0  0  0  0
 22 20  1  1  0  0  0
 23 15  1  0  0  0  0
 25 18  2  0  0  0  0
 25 26  1  0  0  0  0
 26 19  2  0  0  0  0
 27 24  1  6  0  0  0
 27 12  1  0  0  0  0
 28 30  1  0  0  0  0
 30 29  1  0  0  0  0
M  END
>  <MODEL>
5

>  <REMARK>
 VINA RESULT:      -8.0      2.437      4.931
  Name = 
  2 active torsions:
  status: ('A' for Active; 'I' for Inactive)
    1  A    between atoms: C_11  and  C_28
    2  A    between atoms: C_28  and  C_30
                            x       y       z     vdW  Elec       q    Type
                         _______ _______ _______ _____ _____    ______ ____

>  <TORSDO>
F 2

$$$$
=
 OpenBabel11122410283D

 30 35  0  0  1  0  0  0  0  0999 V2000
  188.1070  177.7380  142.2770 C   0  0  0  0  0  0  0  0  0  0  0  0
  185.8430  178.4970  143.1390 C   0  0  0  0  0  0  0  0  0  0  0  0
  186.8970  178.5190  138.3360 N   0  0  0  0  0  2  0  0  0  0  0  0
  188.9560  177.4990  141.1500 C   0  0  0  0  0  0  0  0  0  0  0  0
  188.6220  177.4840  143.5530 C   0  0  0  0  0  3  0  0  0  0  0  0
  192.0280  176.2710  142.8460 O   0  0  0  0  0  1  0  0  0  0  0  0
  190.5540  175.7240  139.1560 C   0  0  1  0  0  3  0  0  0  0  0  0
  190.7390  176.7570  142.6450 C   0  0  0  0  0  0  0  0  0  0  0  0
  189.5560  176.3130  138.2330 N   0  0  2  0  0  0  0  0  0  0  0  0
  188.0810  178.1920  137.5500 C   0  0  1  0  0  3  0  0  0  0  0  0
  189.9130  177.0030  143.7460 C   0  0  0  0  0  0  0  0  0  0  0  0
  190.2690  176.9920  141.3430 C   0  0  0  0  0  0  0  0  0  0  0  0
  184.5720  178.9890  142.8380 C   0  0  0  0  0  3  0  0  0  0  0  0
  190.2150  176.3040  136.9390 C   0  0  0  0  0  2  0  0  0  0  0  0
  191.6010  175.0530  138.3910 N   0  0  0  0  0  2  0  0  0  0  0  0
  186.1470  178.2530  144.8570 Cl  0  0  0  0  0  0  0  0  0  0  0  0
  187.1880  178.2530  139.6920 C   0  0  0  0  0  0  0  0  0  0  0  0
  184.2050  179.2230  141.5180 C   0  0  0  0  0  3  0  0  0  0  0  0
  186.7720  178.2330  142.0870 C   0  0  0  0  0  0  0  0  0  0  0  0
  188.4500  177.7690  139.8690 C   0  0  0  0  0  0  0  0  0  0  0  0
  188.5810  179.4370  136.8440 C   0  0  0  0  0  1  0  0  0  0  0  0
  189.1540  177.6930  138.5490 C   0  0  1  0  0  3  0  0  0  0  0  0
  191.2350  175.2040  136.9960 C   0  0  0  0  0  2  0  0  0  0  0  0
  191.9080  177.8780  139.6310 C   0  0  0  0  0  1  0  0  0  0  0  0
  185.0810  178.9710  140.5170 N   0  0  0  0  0  0  0  0  0  0  0  0
  186.3290  178.4890  140.7580 C   0  0  0  0  0  0  0  0  0  0  0  0
  191.1890  176.6620  140.1990 C   0  0  2  0  0  3  0  0  0  0  0  0
  190.4000  176.7760  145.1390 C   0  0  0  0  0  2  0  0  0  0  0  0
  189.2570  176.7530  147.3330 C   0  0  0  0  0  1  0  0  0  0  0  0
  189.5820  177.5960  146.1180 C   0  0  0  0  0  2  0  0  0  0  0  0
  1  5  1  0  0  0  0
  2 16  1  0  0  0  0
  3 17  1  0  0  0  0
  4 12  1  0  0  0  0
  4  1  2  0  0  0  0
  5 11  2  0  0  0  0
  7 15  1  6  0  0  0
  7 27  1  0  0  0  0
  8  6  1  0  0  0  0
  8 11  1  0  0  0  0
  9 14  1  6  0  0  0
  9 22  1  0  0  0  0
  9  7  1  0  0  0  0
 10 21  1  1  0  0  0
 10  3  1  0  0  0  0
 10 22  1  0  0  0  0
 11 28  1  0  0  0  0
 12  8  2  0  0  0  0
 13  2  1  0  0  0  0
 14 23  1  0  0  0  0
 17 20  2  0  0  0  0
 17 26  1  0  0  0  0
 18 13  2  0  0  0  0
 19  1  1  0  0  0  0
 19  2  2  0  0  0  0
 20  4  1  0  0  0  0
 22 20  1  1  0  0  0
 23 15  1  0  0  0  0
 25 26  2  0  0  0  0
 25 18  1  0  0  0  0
 26 19  1  0  0  0  0
 27 24  1  6  0  0  0
 27 12  1  0  0  0  0
 28 30  1  0  0  0  0
 30 29  1  0  0  0  0
M  END
>  <MODEL>
6

>  <REMARK>
 VINA RESULT:      -7.9      3.656      6.873
  Name = 
  2 active torsions:
  status: ('A' for Active; 'I' for Inactive)
    1  A    between atoms: C_11  and  C_28
    2  A    between atoms: C_28  and  C_30
                            x       y       z     vdW  Elec       q    Type
                         _______ _______ _______ _____ _____    ______ ____

>  <TORSDO>
F 2

$$$$
=
 OpenBabel11122410283D

 30 35  0  0  1  0  0  0  0  0999 V2000
  187.7010  177.9510  142.6400 C   0  0  0  0  0  0  0  0  0  0  0  0
  186.5540  178.1240  144.8990 C   0  0  0  0  0  0  0  0  0  0  0  0
  184.0790  178.8160  140.7060 N   0  0  0  0  0  2  0  0  0  0  0  0
  187.5840  178.0050  141.2150 C   0  0  0  0  0  0  0  0  0  0  0  0
  188.9630  177.6970  143.1870 C   0  0  0  0  0  3  0  0  0  0  0  0
  191.0940  177.3140  140.2070 O   0  0  0  0  0  1  0  0  0  0  0  0
  187.5790  176.8070  138.3440 C   0  0  1  0  0  3  0  0  0  0  0  0
  189.9690  177.5280  140.9980 C   0  0  0  0  0  0  0  0  0  0  0  0
  186.1680  177.2510  138.4400 N   0  0  2  0  0  0  0  0  0  0  0  0
  184.4460  178.8250  139.2950 C   0  0  1  0  0  3  0  0  0  0  0  0
  190.0850  177.4890  142.3900 C   0  0  0  0  0  0  0  0  0  0  0  0
  188.7240  177.7760  140.3990 C   0  0  0  0  0  0  0  0  0  0  0  0
  185.3730  178.3580  145.6050 C   0  0  0  0  0  3  0  0  0  0  0  0
  185.7780  177.5020  137.0640 C   0  0  0  0  0  2  0  0  0  0  0  0
  187.8930  176.4490  136.9640 N   0  0  0  0  0  2  0  0  0  0  0  0
  187.9590  177.7930  145.9080 Cl  0  0  0  0  0  0  0  0  0  0  0  0
  185.2340  178.4940  141.4530 C   0  0  0  0  0  0  0  0  0  0  0  0
  184.1910  178.6280  144.9270 C   0  0  0  0  0  3  0  0  0  0  0  0
  186.5490  178.1640  143.4710 C   0  0  0  0  0  0  0  0  0  0  0  0
  186.3230  178.2780  140.6630 C   0  0  0  0  0  0  0  0  0  0  0  0
  184.2140  180.2080  138.7180 C   0  0  0  0  0  1  0  0  0  0  0  0
  185.9540  178.4770  139.2240 C   0  0  1  0  0  3  0  0  0  0  0  0
  186.6690  176.6470  136.2120 C   0  0  0  0  0  2  0  0  0  0  0  0
  188.6800  179.1480  138.2720 C   0  0  0  0  0  1  0  0  0  0  0  0
  184.1800  178.6640  143.5740 N   0  0  0  0  0  0  0  0  0  0  0  0
  185.3020  178.4410  142.8400 C   0  0  0  0  0  0  0  0  0  0  0  0
  188.6560  177.7580  138.8960 C   0  0  2  0  0  3  0  0  0  0  0  0
  191.4030  177.2430  143.0460 C   0  0  0  0  0  2  0  0  0  0  0  0
  191.6800  176.6740  145.4380 C   0  0  0  0  0  1  0  0  0  0  0  0
  191.3930  177.7940  144.4600 C   0  0  0  0  0  2  0  0  0  0  0  0
  1  5  1  0  0  0  0
  1 19  1  0  0  0  0
  2 13  1  0  0  0  0
  2 16  1  0  0  0  0
  3 17  1  0  0  0  0
  4  1  2  0  0  0  0
  6  8  1  0  0  0  0
  7 15  1  6  0  0  0
  7  9  1  0  0  0  0
  7 27  1  0  0  0  0
  8 11  1  0  0  0  0
  9 14  1  6  0  0  0
  9 22  1  0  0  0  0
 10 21  1  1  0  0  0
 10  3  1  0  0  0  0
 11 28  1  0  0  0  0
 11  5  2  0  0  0  0
 12  8  2  0  0  0  0
 12  4  1  0  0  0  0
 17 26  1  0  0  0  0
 18 13  2  0  0  0  0
 19  2  2  0  0  0  0
 20  4  1  0  0  0  0
 20 17  2  0  0  0  0
 22 10  1  0  0  0  0
 22 20  1  1  0  0  0
 23 15  1  0  0  0  0
 23 14  1  0  0  0  0
 25 18  1  0  0  0  0
 26 19  1  0  0  0  0
 26 25  2  0  0  0  0
 27 24  1  1  0  0  0
 27 12  1  0  0  0  0
 28 30  1  0  0  0  0
 30 29  1  0  0  0  0
M  END
>  <MODEL>
7

>  <REMARK>
 VINA RESULT:      -7.8      2.665      4.281
  Name = 
  2 active torsions:
  status: ('A' for Active; 'I' for Inactive)
    1  A    between atoms: C_11  and  C_28
    2  A    between atoms: C_28  and  C_30
                            x       y       z     vdW  Elec       q    Type
                         _______ _______ _______ _____ _____    ______ ____

>  <TORSDO>
F 2

$$$$
=
 OpenBabel11122410283D

 30 35  0  0  1  0  0  0  0  0999 V2000
  185.5190  178.4360  141.9610 C   0  0  0  0  0  0  0  0  0  0  0  0
  188.0440  178.1850  142.0290 C   0  0  0  0  0  0  0  0  0  0  0  0
  185.5750  178.1200  137.7770 N   0  0  0  0  0  2  0  0  0  0  0  0
  184.3310  178.5190  141.1680 C   0  0  0  0  0  0  0  0  0  0  0  0
  185.3870  178.5110  143.3510 C   0  0  0  0  0  3  0  0  0  0  0  0
  181.7570  178.9330  143.8170 O   0  0  0  0  0  1  0  0  0  0  0  0
  181.8600  179.9580  139.9410 C   0  0  1  0  0  3  0  0  0  0  0  0
  182.9910  178.7670  143.1940 C   0  0  0  0  0  0  0  0  0  0  0  0
  182.6200  179.6540  138.7060 N   0  0  2  0  0  0  0  0  0  0  0  0
  184.1650  178.1970  137.4160 C   0  0  1  0  0  3  0  0  0  0  0  0
  184.1500  178.6720  143.9680 C   0  0  0  0  0  0  0  0  0  0  0  0
  183.0690  178.7010  141.7930 C   0  0  0  0  0  0  0  0  0  0  0  0
  189.2310  178.0130  141.3150 C   0  0  0  0  0  3  0  0  0  0  0  0
  181.6040  179.5650  137.6720 C   0  0  0  0  0  2  0  0  0  0  0  0
  180.5130  180.4010  139.5970 N   0  0  0  0  0  2  0  0  0  0  0  0
  188.2480  178.2810  143.7770 Cl  0  0  0  0  0  0  0  0  0  0  0  0
  185.6720  178.2550  139.1800 C   0  0  0  0  0  0  0  0  0  0  0  0
  189.2090  177.9260  139.9280 C   0  0  0  0  0  3  0  0  0  0  0  0
  186.8000  178.2710  141.3330 C   0  0  0  0  0  0  0  0  0  0  0  0
  184.4570  178.4260  139.7730 C   0  0  0  0  0  0  0  0  0  0  0  0
  183.7390  176.9000  136.7550 C   0  0  0  0  0  1  0  0  0  0  0  0
  183.3770  178.3930  138.7350 C   0  0  1  0  0  3  0  0  0  0  0  0
  180.4480  180.3960  138.1480 C   0  0  0  0  0  2  0  0  0  0  0  0
  181.1980  177.5320  140.5520 C   0  0  0  0  0  1  0  0  0  0  0  0
  188.0330  178.0100  139.2640 N   0  0  0  0  0  0  0  0  0  0  0  0
  186.8500  178.1800  139.9130 C   0  0  0  0  0  0  0  0  0  0  0  0
  181.7910  178.8570  141.0150 C   0  0  2  0  0  3  0  0  0  0  0  0
  184.0850  178.7230  145.4590 C   0  0  0  0  0  2  0  0  0  0  0  0
  185.9560  179.1500  147.0210 C   0  0  0  0  0  1  0  0  0  0  0  0
  185.3560  178.1490  146.0560 C   0  0  0  0  0  2  0  0  0  0  0  0
  1  5  2  0  0  0  0
  2 16  1  0  0  0  0
  3 17  1  0  0  0  0
  4 12  2  0  0  0  0
  4  1  1  0  0  0  0
  5 11  1  0  0  0  0
  7 15  1  6  0  0  0
  7 27  1  0  0  0  0
  8  6  1  0  0  0  0
  8 11  2  0  0  0  0
  9 14  1  6  0  0  0
  9 22  1  0  0  0  0
  9  7  1  0  0  0  0
 10 21  1  1  0  0  0
 10  3  1  0  0  0  0
 10 22  1  0  0  0  0
 11 28  1  0  0  0  0
 12  8  1  0  0  0  0
 13  2  2  0  0  0  0
 14 23  1  0  0  0  0
 17 20  2  0  0  0  0
 17 26  1  0  0  0  0
 18 13  1  0  0  0  0
 19  1  1  0  0  0  0
 19  2  1  0  0  0  0
 20  4  1  0  0  0  0
 22 20  1  1  0  0  0
 23 15  1  0  0  0  0
 25 26  1  0  0  0  0
 25 18  2  0  0  0  0
 26 19  2  0  0  0  0
 27 24  1  6  0  0  0
 27 12  1  0  0  0  0
 28 30  1  0  0  0  0
 30 29  1  0  0  0  0
M  END
>  <MODEL>
8

>  <REMARK>
 VINA RESULT:      -7.8      2.411      4.952
  Name = 
  2 active torsions:
  status: ('A' for Active; 'I' for Inactive)
    1  A    between atoms: C_11  and  C_28
    2  A    between atoms: C_28  and  C_30
                            x       y       z     vdW  Elec       q    Type
                         _______ _______ _______ _____ _____    ______ ____

>  <TORSDO>
F 2

$$$$
=
 OpenBabel11122410283D

 30 35  0  0  1  0  0  0  0  0999 V2000
  185.9930  178.2900  142.0310 C   0  0  0  0  0  0  0  0  0  0  0  0
  183.5470  178.8430  142.4310 C   0  0  0  0  0  0  0  0  0  0  0  0
  186.6510  178.0910  146.1710 N   0  0  0  0  0  2  0  0  0  0  0  0
  187.2790  178.0120  142.5930 C   0  0  0  0  0  0  0  0  0  0  0  0
  185.8710  178.2920  140.6380 C   0  0  0  0  0  3  0  0  0  0  0  0
  189.2950  177.5440  139.5050 O   0  0  0  0  0  1  0  0  0  0  0  0
  190.2590  178.6280  143.2450 C   0  0  1  0  0  3  0  0  0  0  0  0
  188.2140  177.7860  140.3480 C   0  0  0  0  0  0  0  0  0  0  0  0
  189.6950  178.6020  144.6150 N   0  0  2  0  0  0  0  0  0  0  0  0
  188.0600  177.7290  146.2690 C   0  0  1  0  0  3  0  0  0  0  0  0
  186.9540  178.0450  139.8010 C   0  0  0  0  0  0  0  0  0  0  0  0
  188.3910  177.7760  141.7410 C   0  0  0  0  0  0  0  0  0  0  0  0
  182.5260  179.0660  143.3560 C   0  0  0  0  0  3  0  0  0  0  0  0
  190.8160  178.2190  145.4560 C   0  0  0  0  0  2  0  0  0  0  0  0
  191.7170  178.6320  143.3080 N   0  0  0  0  0  2  0  0  0  0  0  0
  183.0500  178.9630  140.7450 Cl  0  0  0  0  0  0  0  0  0  0  0  0
  186.3310  178.2220  144.8010 C   0  0  0  0  0  0  0  0  0  0  0  0
  182.7870  179.0040  144.7190 C   0  0  0  0  0  3  0  0  0  0  0  0
  184.8680  178.5480  142.8870 C   0  0  0  0  0  0  0  0  0  0  0  0
  187.4020  177.9920  143.9900 C   0  0  0  0  0  0  0  0  0  0  0  0
  188.1910  176.3780  146.9450 C   0  0  0  0  0  1  0  0  0  0  0  0
  188.6000  177.6410  144.8200 C   0  0  1  0  0  3  0  0  0  0  0  0
  192.0550  178.6360  144.7190 C   0  0  0  0  0  2  0  0  0  0  0  0
  190.0200  176.1050  142.7200 C   0  0  0  0  0  1  0  0  0  0  0  0
  184.0380  178.7280  145.1560 N   0  0  0  0  0  0  0  0  0  0  0  0
  185.0680  178.5050  144.2960 C   0  0  0  0  0  0  0  0  0  0  0  0
  189.7810  177.5390  142.2660 C   0  0  2  0  0  3  0  0  0  0  0  0
  186.7420  178.0430  138.3230 C   0  0  0  0  0  2  0  0  0  0  0  0
  184.7510  177.0380  137.2530 C   0  0  0  0  0  1  0  0  0  0  0  0
  185.2730  178.2440  138.0070 C   0  0  0  0  0  2  0  0  0  0  0  0
  1  4  1  0  0  0  0
  1 19  1  0  0  0  0
  2 19  2  0  0  0  0
  2 13  1  0  0  0  0
  3 10  1  0  0  0  0
  4 20  1  0  0  0  0
  5  1  2  0  0  0  0
  6  8  1  0  0  0  0
  7 15  1  1  0  0  0
  7  9  1  0  0  0  0
  8 12  1  0  0  0  0
  9 22  1  0  0  0  0
  9 14  1  1  0  0  0
 10 21  1  6  0  0  0
 11  8  2  0  0  0  0
 11  5  1  0  0  0  0
 12 27  1  0  0  0  0
 12  4  2  0  0  0  0
 13 18  2  0  0  0  0
 15 23  1  0  0  0  0
 16  2  1  0  0  0  0
 17  3  1  0  0  0  0
 18 25  1  0  0  0  0
 19 26  1  0  0  0  0
 20 17  2  0  0  0  0
 22 20  1  6  0  0  0
 22 10  1  0  0  0  0
 23 14  1  0  0  0  0
 26 17  1  0  0  0  0
 26 25  2  0  0  0  0
 27 24  1  1  0  0  0
 27  7  1  0  0  0  0
 28 11  1  0  0  0  0
 29 30  1  0  0  0  0
 30 28  1  0  0  0  0
M  END
>  <MODEL>
9

>  <REMARK>
 VINA RESULT:      -7.6      2.980      6.410
  Name = 
  2 active torsions:
  status: ('A' for Active; 'I' for Inactive)
    1  A    between atoms: C_11  and  C_28
    2  A    between atoms: C_28  and  C_30
                            x       y       z     vdW  Elec       q    Type
                         _______ _______ _______ _____ _____    ______ ____

>  <TORSDO>
F 2

$$$$
