=
 OpenBabel11122411423D

 37 42  0  0  1  0  0  0  0  0999 V2000
  185.3840  178.8960  141.1140 C   0  0  1  0  0  3  0  0  0  0  0  0
  188.7520  178.9430  140.2030 C   0  0  0  0  0  2  0  0  0  0  0  0
  182.9840  178.4690  140.2880 C   0  0  2  0  0  3  0  0  0  0  0  0
  186.3860  178.0340  140.3650 C   0  0  2  0  0  3  0  0  0  0  0  0
  184.3230  179.1860  140.0460 C   0  0  2  0  0  3  0  0  0  0  0  0
  187.8200  177.9820  140.9370 C   0  0  2  0  0  3  0  0  0  0  0  0
  182.4390  178.8170  141.6770 C   0  0  0  0  0  2  0  0  0  0  0  0
  184.9470  178.7500  138.7290 C   0  0  0  0  0  2  0  0  0  0  0  0
  185.7610  178.2710  143.4690 N   0  0  0  0  0  2  0  0  0  0  0  0
  183.5030  178.8160  142.7850 C   0  0  0  0  0  2  0  0  0  0  0  0
  189.2260  176.9950  138.7870 O   0  0  0  0  0  0  0  0  0  0  0  0
  189.3560  178.3920  138.8970 C   0  0  1  0  0  3  0  0  0  0  0  0
  184.8250  178.1780  142.3570 C   0  0  1  0  0  3  0  0  0  0  0  0
  186.3670  178.5080  138.9840 N   0  0  2  0  0  0  0  0  0  0  0  0
  187.9630  178.1180  142.4620 C   0  0  1  0  0  3  0  0  0  0  0  0
  188.4570  177.7520  137.8750 C   0  0  2  0  0  3  0  0  0  0  0  0
  186.9660  177.4620  138.1410 C   0  0  2  0  0  3  0  0  0  0  0  0
  186.8760  177.3700  143.2220 C   0  0  0  0  0  2  0  0  0  0  0  0
  189.5710  176.3400  142.9350 C   0  0  0  0  0  3  0  0  0  0  0  0
  189.3120  177.6520  142.9170 C   0  0  0  0  0  0  0  0  0  0  0  0
  190.3180  178.6220  143.4010 C   0  0  0  0  0  3  0  0  0  0  0  0
  192.3340  179.0840  144.4640 F   0  0  0  0  0  0  0  0  0  0  0  0
  191.6860  176.7890  144.0990 N   0  0  0  0  0  2  0  0  0  0  0  0
  191.4460  178.1930  143.9650 C   0  0  0  0  0  0  0  0  0  0  0  0
  190.9220  175.8060  143.3280 C   0  0  0  0  0  2  0  0  0  0  0  0
  186.2730  177.3120  136.7670 C   0  0  0  0  0  2  0  0  0  0  0  0
  185.6370  176.0040  136.5540 N   0  0  0  0  0  0  0  0  0  0  0  0
  183.8470  176.9910  135.2300 C   0  0  0  0  0  1  0  0  0  0  0  0
  184.9620  175.9650  135.2620 C   0  0  0  0  0  2  0  0  0  0  0  0
  186.6520  174.9580  136.5730 C   0  0  0  0  0  2  0  0  0  0  0  0
  186.0090  173.6000  136.3470 C   0  0  0  0  0  2  0  0  0  0  0  0
  185.5330  173.0100  137.6610 C   0  0  0  0  0  1  0  0  0  0  0  0
  183.1270  177.0680  140.1780 O   0  0  0  0  0  0  0  0  0  0  0  0
  182.1600  176.5550  139.2810 C   0  0  0  0  0  0  0  0  0  0  0  0
  180.9660  175.9550  140.0170 C   0  0  0  0  0  1  0  0  0  0  0  0
  181.7240  177.5420  138.3910 O   0  0  0  0  0  1  0  0  0  0  0  0
  182.8050  175.4430  138.4820 C   0  0  0  0  0  1  0  0  0  0  0  0
  1 13  1  0  0  0  0
  2  6  1  0  0  0  0
  3  7  1  0  0  0  0
  4  6  1  0  0  0  0
  4  1  1  0  0  0  0
  5  3  1  0  0  0  0
  5  1  1  0  0  0  0
  6 15  1  0  0  0  0
  7 10  1  0  0  0  0
  8 14  1  0  0  0  0
  8  5  1  0  0  0  0
 11 12  1  0  0  0  0
 12  2  1  0  0  0  0
 13 10  1  0  0  0  0
 13  9  1  0  0  0  0
 14  4  1  0  0  0  0
 15 20  1  0  0  0  0
 15 18  1  0  0  0  0
 16 17  1  0  0  0  0
 16 11  1  0  0  0  0
 16 12  1  0  0  0  0
 17 14  1  0  0  0  0
 18  9  1  0  0  0  0
 19 25  1  0  0  0  0
 20 19  2  0  0  0  0
 20 21  1  0  0  0  0
 21 24  2  0  0  0  0
 24 23  1  0  0  0  0
 24 22  1  0  0  0  0
 25 23  1  0  0  0  0
 26 17  1  0  0  0  0
 27 30  1  0  0  0  0
 27 26  1  0  0  0  0
 28 29  1  0  0  0  0
 29 27  1  0  0  0  0
 31 30  1  0  0  0  0
 31 32  1  0  0  0  0
 33  3  1  0  0  0  0
 34 35  1  0  0  0  0
 34 33  1  0  0  0  0
 36 34  1  0  0  0  0
 37 34  1  0  0  0  0
M  END
>  <MODEL>
1

>  <REMARK>
 VINA RESULT:      -7.2      0.000      0.000
  Name = 
  8 active torsions:
  status: ('A' for Active; 'I' for Inactive)
    1  A    between atoms: C_1  and  N_4
    2  A    between atoms: C_1  and  C_27
    3  A    between atoms: C_2  and  O_22
    4  A    between atoms: N_4  and  C_12
    5  A    between atoms: N_4  and  C_37
    6  A    between atoms: C_6  and  O_22
    7  A    between atoms: C_8  and  C_12
    8  A    between atoms: C_23  and  C_30
                            x       y       z     vdW  Elec       q    Type
                         _______ _______ _______ _____ _____    ______ ____

>  <TORSDO>
F 8

$$$$
=
 OpenBabel11122411423D

 37 42  0  0  1  0  0  0  0  0999 V2000
  187.2390  178.2530  137.1990 C   0  0  1  0  0  3  0  0  0  0  0  0
  184.9450  179.3320  139.5970 C   0  0  0  0  0  2  0  0  0  0  0  0
  189.6570  177.4660  136.8000 C   0  0  2  0  0  3  0  0  0  0  0  0
  186.7530  177.8640  138.5850 C   0  0  2  0  0  3  0  0  0  0  0  0
  188.7300  178.5230  137.4260 C   0  0  2  0  0  3  0  0  0  0  0  0
  185.2430  178.0270  138.8620 C   0  0  2  0  0  3  0  0  0  0  0  0
  189.3700  177.3300  135.3010 C   0  0  0  0  0  2  0  0  0  0  0  0
  188.9050  178.5780  138.9370 C   0  0  0  0  0  2  0  0  0  0  0  0
  185.5810  177.1970  135.7110 N   0  0  0  0  0  2  0  0  0  0  0  0
  187.8750  177.3240  134.9480 C   0  0  0  0  0  2  0  0  0  0  0  0
  185.1850  177.9520  141.6130 O   0  0  0  0  0  0  0  0  0  0  0  0
  185.1210  179.2720  141.1270 C   0  0  1  0  0  3  0  0  0  0  0  0
  186.9650  177.1460  136.1630 C   0  0  1  0  0  3  0  0  0  0  0  0
  187.5660  178.6340  139.5230 N   0  0  2  0  0  0  0  0  0  0  0  0
  184.2940  177.8270  137.6690 C   0  0  1  0  0  3  0  0  0  0  0  0
  186.3830  178.6940  141.7060 C   0  0  2  0  0  3  0  0  0  0  0  0
  187.4540  177.9960  140.8440 C   0  0  2  0  0  3  0  0  0  0  0  0
  184.7230  176.6790  136.7650 C   0  0  0  0  0  2  0  0  0  0  0  0
  181.9720  178.5520  137.8920 C   0  0  0  0  0  3  0  0  0  0  0  0
  182.8870  177.6080  138.1340 C   0  0  0  0  0  0  0  0  0  0  0  0
  182.5300  176.3990  138.9080 C   0  0  0  0  0  3  0  0  0  0  0  0
  181.0270  175.2120  140.2280 F   0  0  0  0  0  0  0  0  0  0  0  0
  180.3740  177.3490  139.3160 N   0  0  0  0  0  2  0  0  0  0  0  0
  181.3260  176.2920  139.4670 C   0  0  0  0  0  0  0  0  0  0  0  0
  180.5290  178.3750  138.2830 C   0  0  0  0  0  2  0  0  0  0  0  0
  188.7760  178.0140  141.6460 C   0  0  0  0  0  2  0  0  0  0  0  0
  189.1670  176.7060  142.1910 N   0  0  0  0  0  0  0  0  0  0  0  0
  191.3990  177.6550  141.9810 C   0  0  0  0  0  1  0  0  0  0  0  0
  190.4830  176.7810  142.8140 C   0  0  0  0  0  2  0  0  0  0  0  0
  188.2030  176.2900  143.2020 C   0  0  0  0  0  2  0  0  0  0  0  0
  188.4080  177.0880  144.4790 C   0  0  0  0  0  2  0  0  0  0  0  0
  187.0740  177.4140  145.1230 C   0  0  0  0  0  1  0  0  0  0  0  0
  189.4930  176.2100  137.4250 O   0  0  0  0  0  0  0  0  0  0  0  0
  190.7510  175.7100  137.8370 C   0  0  0  0  0  0  0  0  0  0  0  0
  191.9010  176.5600  137.3050 C   0  0  0  0  0  1  0  0  0  0  0  0
  190.8280  175.6240  139.2300 O   0  0  0  0  0  1  0  0  0  0  0  0
  190.9140  174.3180  137.2640 C   0  0  0  0  0  1  0  0  0  0  0  0
  1  5  1  0  0  0  0
  1  4  1  0  0  0  0
  2 12  1  0  0  0  0
  3 33  1  0  0  0  0
  3  5  1  0  0  0  0
  4  6  1  0  0  0  0
  4 14  1  0  0  0  0
  5  8  1  0  0  0  0
  6  2  1  0  0  0  0
  7  3  1  0  0  0  0
  8 14  1  0  0  0  0
  9 13  1  0  0  0  0
  9 18  1  0  0  0  0
 10  7  1  0  0  0  0
 10 13  1  0  0  0  0
 11 16  1  0  0  0  0
 12 11  1  0  0  0  0
 12 16  1  0  0  0  0
 13  1  1  0  0  0  0
 14 17  1  0  0  0  0
 15 20  1  0  0  0  0
 15  6  1  0  0  0  0
 17 26  1  0  0  0  0
 17 16  1  0  0  0  0
 18 15  1  0  0  0  0
 19 20  2  0  0  0  0
 19 25  1  0  0  0  0
 20 21  1  0  0  0  0
 21 24  2  0  0  0  0
 23 24  1  0  0  0  0
 24 22  1  0  0  0  0
 25 23  1  0  0  0  0
 26 27  1  0  0  0  0
 27 29  1  0  0  0  0
 27 30  1  0  0  0  0
 28 29  1  0  0  0  0
 30 31  1  0  0  0  0
 31 32  1  0  0  0  0
 33 34  1  0  0  0  0
 34 36  1  0  0  0  0
 35 34  1  0  0  0  0
 37 34  1  0  0  0  0
M  END
>  <MODEL>
2

>  <REMARK>
 VINA RESULT:      -6.9      2.972      7.868
  Name = 
  8 active torsions:
  status: ('A' for Active; 'I' for Inactive)
    1  A    between atoms: C_1  and  N_4
    2  A    between atoms: C_1  and  C_27
    3  A    between atoms: C_2  and  O_22
    4  A    between atoms: N_4  and  C_12
    5  A    between atoms: N_4  and  C_37
    6  A    between atoms: C_6  and  O_22
    7  A    between atoms: C_8  and  C_12
    8  A    between atoms: C_23  and  C_30
                            x       y       z     vdW  Elec       q    Type
                         _______ _______ _______ _____ _____    ______ ____

>  <TORSDO>
F 8

$$$$
=
 OpenBabel11122411423D

 37 42  0  0  1  0  0  0  0  0999 V2000
  187.1600  178.2730  137.3020 C   0  0  1  0  0  3  0  0  0  0  0  0
  184.9850  179.3320  139.8170 C   0  0  0  0  0  2  0  0  0  0  0  0
  189.5550  177.4860  136.7810 C   0  0  2  0  0  3  0  0  0  0  0  0
  186.7410  177.8710  138.7060 C   0  0  2  0  0  3  0  0  0  0  0  0
  188.6610  178.5380  137.4600 C   0  0  2  0  0  3  0  0  0  0  0  0
  185.2460  178.0330  139.0560 C   0  0  2  0  0  3  0  0  0  0  0  0
  189.1970  177.3650  135.2960 C   0  0  0  0  0  2  0  0  0  0  0  0
  188.9080  178.5780  138.9610 C   0  0  0  0  0  2  0  0  0  0  0  0
  185.4310  177.2340  135.8840 N   0  0  0  0  0  2  0  0  0  0  0  0
  187.6870  177.3650  135.0140 C   0  0  0  0  0  2  0  0  0  0  0  0
  185.3180  177.9310  141.8050 O   0  0  0  0  0  0  0  0  0  0  0  0
  185.2340  179.2560  141.3360 C   0  0  1  0  0  3  0  0  0  0  0  0
  186.8350  177.1770  136.2690 C   0  0  1  0  0  3  0  0  0  0  0  0
  187.5990  178.6310  139.6110 N   0  0  2  0  0  0  0  0  0  0  0  0
  184.2410  177.8460  137.9070 C   0  0  1  0  0  3  0  0  0  0  0  0
  186.5210  178.6710  141.8490 C   0  0  2  0  0  3  0  0  0  0  0  0
  187.5490  177.9800  140.9290 C   0  0  2  0  0  3  0  0  0  0  0  0
  184.6230  176.7070  136.9730 C   0  0  0  0  0  2  0  0  0  0  0  0
  182.5980  176.5050  139.1210 C   0  0  0  0  0  3  0  0  0  0  0  0
  182.8570  177.6250  138.4370 C   0  0  0  0  0  0  0  0  0  0  0  0
  181.7780  178.5950  138.1520 C   0  0  0  0  0  3  0  0  0  0  0  0
  179.5260  179.1760  138.1530 F   0  0  0  0  0  0  0  0  0  0  0  0
  180.2070  177.0630  139.1010 N   0  0  0  0  0  2  0  0  0  0  0  0
  180.5180  178.3120  138.4740 C   0  0  0  0  0  0  0  0  0  0  0  0
  181.2450  176.2440  139.7280 C   0  0  0  0  0  2  0  0  0  0  0  0
  188.9070  177.9880  141.6670 C   0  0  0  0  0  2  0  0  0  0  0  0
  188.9840  177.0490  142.7960 N   0  0  0  0  0  0  0  0  0  0  0  0
  191.1760  176.2530  143.4980 C   0  0  0  0  0  1  0  0  0  0  0  0
  190.0070  176.0380  142.5560 C   0  0  0  0  0  2  0  0  0  0  0  0
  189.3320  177.7740  144.0120 C   0  0  0  0  0  2  0  0  0  0  0  0
  188.2090  177.6600  145.0290 C   0  0  0  0  0  2  0  0  0  0  0  0
  188.7660  177.3450  146.4040 C   0  0  0  0  0  1  0  0  0  0  0  0
  189.4180  176.2240  137.4000 O   0  0  0  0  0  0  0  0  0  0  0  0
  190.6910  175.7380  137.7850 C   0  0  0  0  0  0  0  0  0  0  0  0
  191.8200  176.5900  137.2150 C   0  0  0  0  0  1  0  0  0  0  0  0
  190.8030  175.6700  139.1780 O   0  0  0  0  0  1  0  0  0  0  0  0
  190.8490  174.3410  137.2250 C   0  0  0  0  0  1  0  0  0  0  0  0
  1  5  1  0  0  0  0
  1  4  1  0  0  0  0
  2 12  1  0  0  0  0
  3 33  1  0  0  0  0
  3  5  1  0  0  0  0
  4  6  1  0  0  0  0
  4 14  1  0  0  0  0
  5  8  1  0  0  0  0
  6  2  1  0  0  0  0
  7  3  1  0  0  0  0
  8 14  1  0  0  0  0
  9 13  1  0  0  0  0
  9 18  1  0  0  0  0
 10  7  1  0  0  0  0
 10 13  1  0  0  0  0
 11 16  1  0  0  0  0
 12 11  1  0  0  0  0
 12 16  1  0  0  0  0
 13  1  1  0  0  0  0
 14 17  1  0  0  0  0
 15 20  1  0  0  0  0
 15  6  1  0  0  0  0
 17 26  1  0  0  0  0
 17 16  1  0  0  0  0
 18 15  1  0  0  0  0
 19 25  1  0  0  0  0
 20 19  2  0  0  0  0
 21 20  1  0  0  0  0
 21 24  2  0  0  0  0
 22 24  1  0  0  0  0
 23 25  1  0  0  0  0
 24 23  1  0  0  0  0
 26 27  1  0  0  0  0
 27 30  1  0  0  0  0
 29 27  1  0  0  0  0
 29 28  1  0  0  0  0
 30 31  1  0  0  0  0
 31 32  1  0  0  0  0
 33 34  1  0  0  0  0
 34 36  1  0  0  0  0
 35 34  1  0  0  0  0
 37 34  1  0  0  0  0
M  END
>  <MODEL>
3

>  <REMARK>
 VINA RESULT:      -6.8      3.167      8.012
  Name = 
  8 active torsions:
  status: ('A' for Active; 'I' for Inactive)
    1  A    between atoms: C_1  and  N_4
    2  A    between atoms: C_1  and  C_27
    3  A    between atoms: C_2  and  O_22
    4  A    between atoms: N_4  and  C_12
    5  A    between atoms: N_4  and  C_37
    6  A    between atoms: C_6  and  O_22
    7  A    between atoms: C_8  and  C_12
    8  A    between atoms: C_23  and  C_30
                            x       y       z     vdW  Elec       q    Type
                         _______ _______ _______ _____ _____    ______ ____

>  <TORSDO>
F 8

$$$$
=
 OpenBabel11122411423D

 37 42  0  0  1  0  0  0  0  0999 V2000
  185.4090  178.8770  141.8250 C   0  0  1  0  0  3  0  0  0  0  0  0
  188.8890  178.8360  141.5800 C   0  0  0  0  0  2  0  0  0  0  0  0
  183.2020  178.5590  140.5370 C   0  0  2  0  0  3  0  0  0  0  0  0
  186.5120  178.0040  141.2510 C   0  0  2  0  0  3  0  0  0  0  0  0
  184.5830  179.2370  140.5850 C   0  0  2  0  0  3  0  0  0  0  0  0
  187.8060  177.8840  142.0850 C   0  0  2  0  0  3  0  0  0  0  0  0
  182.4090  178.8820  141.8080 C   0  0  0  0  0  2  0  0  0  0  0  0
  185.4370  178.8220  139.3960 C   0  0  0  0  0  2  0  0  0  0  0  0
  185.3050  178.1650  144.1830 N   0  0  0  0  0  2  0  0  0  0  0  0
  183.2390  178.8090  143.0990 C   0  0  0  0  0  2  0  0  0  0  0  0
  189.5730  176.9180  140.2100 O   0  0  0  0  0  0  0  0  0  0  0  0
  189.7190  178.3060  140.3950 C   0  0  1  0  0  3  0  0  0  0  0  0
  184.6000  178.1390  142.9090 C   0  0  1  0  0  3  0  0  0  0  0  0
  186.7730  178.5230  139.9100 N   0  0  2  0  0  0  0  0  0  0  0  0
  187.6550  177.9670  143.6130 C   0  0  1  0  0  3  0  0  0  0  0  0
  189.0160  177.7290  139.1960 C   0  0  2  0  0  3  0  0  0  0  0  0
  187.4940  177.4830  139.1590 C   0  0  2  0  0  3  0  0  0  0  0  0
  186.4220  177.2340  144.1210 C   0  0  0  0  0  2  0  0  0  0  0  0
  189.1430  177.8460  145.5480 C   0  0  0  0  0  3  0  0  0  0  0  0
  188.8780  177.4410  144.3010 C   0  0  0  0  0  0  0  0  0  0  0  0
  189.8120  176.5420  143.5910 C   0  0  0  0  0  3  0  0  0  0  0  0
  191.8590  175.4450  143.4590 F   0  0  0  0  0  0  0  0  0  0  0  0
  191.3310  176.7390  145.4260 N   0  0  0  0  0  2  0  0  0  0  0  0
  190.9800  176.2170  144.1410 C   0  0  0  0  0  0  0  0  0  0  0  0
  190.3230  177.3170  146.3170 C   0  0  0  0  0  2  0  0  0  0  0  0
  187.0760  177.4010  137.6730 C   0  0  0  0  0  2  0  0  0  0  0  0
  187.6550  176.2610  136.9480 N   0  0  0  0  0  0  0  0  0  0  0  0
  187.4660  173.8760  136.4920 C   0  0  0  0  0  1  0  0  0  0  0  0
  186.7450  175.1210  136.9700 C   0  0  0  0  0  2  0  0  0  0  0  0
  187.8890  176.6330  135.5580 C   0  0  0  0  0  2  0  0  0  0  0  0
  189.2480  177.2970  135.4160 C   0  0  0  0  0  2  0  0  0  0  0  0
  190.3470  176.3700  135.8990 C   0  0  0  0  0  1  0  0  0  0  0  0
  183.3250  177.1590  140.4040 O   0  0  0  0  0  0  0  0  0  0  0  0
  182.5130  176.7040  139.3370 C   0  0  0  0  0  0  0  0  0  0  0  0
  181.2720  175.9750  139.8400 C   0  0  0  0  0  1  0  0  0  0  0  0
  182.1380  177.7620  138.5030 O   0  0  0  0  0  1  0  0  0  0  0  0
  183.3200  175.7170  138.5220 C   0  0  0  0  0  1  0  0  0  0  0  0
  1 13  1  0  0  0  0
  2  6  1  0  0  0  0
  3  5  1  0  0  0  0
  3  7  1  0  0  0  0
  4  1  1  0  0  0  0
  4  6  1  0  0  0  0
  5  1  1  0  0  0  0
  6 15  1  0  0  0  0
  7 10  1  0  0  0  0
  8 14  1  0  0  0  0
  8  5  1  0  0  0  0
 11 12  1  0  0  0  0
 12  2  1  0  0  0  0
 13 10  1  0  0  0  0
 13  9  1  0  0  0  0
 14  4  1  0  0  0  0
 15 18  1  0  0  0  0
 15 20  1  0  0  0  0
 16 11  1  0  0  0  0
 16 12  1  0  0  0  0
 17 16  1  0  0  0  0
 17 14  1  0  0  0  0
 18  9  1  0  0  0  0
 19 25  1  0  0  0  0
 20 19  2  0  0  0  0
 21 24  2  0  0  0  0
 21 20  1  0  0  0  0
 22 24  1  0  0  0  0
 23 25  1  0  0  0  0
 24 23  1  0  0  0  0
 26 17  1  0  0  0  0
 27 29  1  0  0  0  0
 27 26  1  0  0  0  0
 28 29  1  0  0  0  0
 30 27  1  0  0  0  0
 31 30  1  0  0  0  0
 31 32  1  0  0  0  0
 33  3  1  0  0  0  0
 34 35  1  0  0  0  0
 34 33  1  0  0  0  0
 36 34  1  0  0  0  0
 37 34  1  0  0  0  0
M  END
>  <MODEL>
4

>  <REMARK>
 VINA RESULT:      -6.8      1.442      2.159
  Name = 
  8 active torsions:
  status: ('A' for Active; 'I' for Inactive)
    1  A    between atoms: C_1  and  N_4
    2  A    between atoms: C_1  and  C_27
    3  A    between atoms: C_2  and  O_22
    4  A    between atoms: N_4  and  C_12
    5  A    between atoms: N_4  and  C_37
    6  A    between atoms: C_6  and  O_22
    7  A    between atoms: C_8  and  C_12
    8  A    between atoms: C_23  and  C_30
                            x       y       z     vdW  Elec       q    Type
                         _______ _______ _______ _____ _____    ______ ____

>  <TORSDO>
F 8

$$$$
=
 OpenBabel11122411423D

 37 42  0  0  1  0  0  0  0  0999 V2000
  183.6690  179.3150  140.3800 C   0  0  1  0  0  3  0  0  0  0  0  0
  186.8410  179.5150  141.8220 C   0  0  0  0  0  2  0  0  0  0  0  0
  182.3530  178.6620  138.2670 C   0  0  2  0  0  3  0  0  0  0  0  0
  184.9190  178.4650  140.5360 C   0  0  2  0  0  3  0  0  0  0  0  0
  183.5370  179.4460  138.8590 C   0  0  2  0  0  3  0  0  0  0  0  0
  185.6550  178.5550  141.8910 C   0  0  2  0  0  3  0  0  0  0  0  0
  181.0450  179.0830  138.9450 C   0  0  0  0  0  2  0  0  0  0  0  0
  184.8600  178.9490  138.2950 C   0  0  0  0  0  2  0  0  0  0  0  0
  182.4520  178.9080  142.4860 N   0  0  0  0  0  2  0  0  0  0  0  0
  181.1550  179.2430  140.4690 C   0  0  0  0  0  2  0  0  0  0  0  0
  188.1110  177.4960  141.2460 O   0  0  0  0  0  0  0  0  0  0  0  0
  188.1410  178.9030  141.2660 C   0  0  1  0  0  3  0  0  0  0  0  0
  182.4440  178.6630  141.0500 C   0  0  1  0  0  3  0  0  0  0  0  0
  185.7880  178.8240  139.4190 N   0  0  2  0  0  0  0  0  0  0  0  0
  184.7890  178.8230  143.1330 C   0  0  1  0  0  3  0  0  0  0  0  0
  188.1030  178.1230  139.9800 C   0  0  2  0  0  3  0  0  0  0  0  0
  186.7870  177.7560  139.2650 C   0  0  2  0  0  3  0  0  0  0  0  0
  183.4680  178.0680  143.1010 C   0  0  0  0  0  2  0  0  0  0  0  0
  185.1630  179.0650  145.5350 C   0  0  0  0  0  3  0  0  0  0  0  0
  185.5350  178.4870  144.3880 C   0  0  0  0  0  0  0  0  0  0  0  0
  186.7050  177.5840  144.3490 C   0  0  0  0  0  3  0  0  0  0  0  0
  188.5750  176.6490  145.3680 F   0  0  0  0  0  0  0  0  0  0  0  0
  187.1510  178.1310  146.6330 N   0  0  0  0  0  2  0  0  0  0  0  0
  187.4680  177.4260  145.4290 C   0  0  0  0  0  0  0  0  0  0  0  0
  185.8330  178.7330  146.8420 C   0  0  0  0  0  2  0  0  0  0  0  0
  187.1340  177.4500  137.7900 C   0  0  0  0  0  2  0  0  0  0  0  0
  187.9920  176.2710  137.6060 N   0  0  0  0  0  0  0  0  0  0  0  0
  188.0770  174.2240  136.2880 C   0  0  0  0  0  1  0  0  0  0  0  0
  187.2090  175.1330  137.1380 C   0  0  0  0  0  2  0  0  0  0  0  0
  189.0170  176.5620  136.6110 C   0  0  0  0  0  2  0  0  0  0  0  0
  190.2940  177.0200  137.2940 C   0  0  0  0  0  2  0  0  0  0  0  0
  191.3960  175.9950  137.1050 C   0  0  0  0  0  1  0  0  0  0  0  0
  182.5340  177.2700  138.4210 O   0  0  0  0  0  0  0  0  0  0  0  0
  182.3860  176.6250  137.1700 C   0  0  0  0  0  0  0  0  0  0  0  0
  182.1770  177.6250  136.0370 C   0  0  0  0  0  1  0  0  0  0  0  0
  183.4900  175.8120  136.8880 O   0  0  0  0  0  1  0  0  0  0  0  0
  181.1540  175.7490  137.2360 C   0  0  0  0  0  1  0  0  0  0  0  0
  1  4  1  0  0  0  0
  1 13  1  0  0  0  0
  2  6  1  0  0  0  0
  3 33  1  0  0  0  0
  3  5  1  0  0  0  0
  3  7  1  0  0  0  0
  4  6  1  0  0  0  0
  5  1  1  0  0  0  0
  6 15  1  0  0  0  0
  7 10  1  0  0  0  0
  8  5  1  0  0  0  0
  8 14  1  0  0  0  0
  9 18  1  0  0  0  0
 10 13  1  0  0  0  0
 11 12  1  0  0  0  0
 12  2  1  0  0  0  0
 13  9  1  0  0  0  0
 14  4  1  0  0  0  0
 15 20  1  0  0  0  0
 16 11  1  0  0  0  0
 16 12  1  0  0  0  0
 17 14  1  0  0  0  0
 17 16  1  0  0  0  0
 18 15  1  0  0  0  0
 19 25  1  0  0  0  0
 20 19  2  0  0  0  0
 21 20  1  0  0  0  0
 21 24  2  0  0  0  0
 22 24  1  0  0  0  0
 23 25  1  0  0  0  0
 24 23  1  0  0  0  0
 26 17  1  0  0  0  0
 27 26  1  0  0  0  0
 28 29  1  0  0  0  0
 29 27  1  0  0  0  0
 30 31  1  0  0  0  0
 30 27  1  0  0  0  0
 32 31  1  0  0  0  0
 34 37  1  0  0  0  0
 34 33  1  0  0  0  0
 35 34  1  0  0  0  0
 36 34  1  0  0  0  0
M  END
>  <MODEL>
5

>  <REMARK>
 VINA RESULT:      -6.0      2.350      3.524
  Name = 
  8 active torsions:
  status: ('A' for Active; 'I' for Inactive)
    1  A    between atoms: C_1  and  N_4
    2  A    between atoms: C_1  and  C_27
    3  A    between atoms: C_2  and  O_22
    4  A    between atoms: N_4  and  C_12
    5  A    between atoms: N_4  and  C_37
    6  A    between atoms: C_6  and  O_22
    7  A    between atoms: C_8  and  C_12
    8  A    between atoms: C_23  and  C_30
                            x       y       z     vdW  Elec       q    Type
                         _______ _______ _______ _____ _____    ______ ____

>  <TORSDO>
F 8

$$$$
=
 OpenBabel11122411423D

 37 42  0  0  1  0  0  0  0  0999 V2000
  188.4580  177.7530  138.8090 C   0  0  1  0  0  3  0  0  0  0  0  0
  185.1690  178.6910  138.1230 C   0  0  0  0  0  2  0  0  0  0  0  0
  190.2730  177.6120  140.6300 C   0  0  2  0  0  3  0  0  0  0  0  0
  187.0690  177.5950  139.4030 C   0  0  2  0  0  3  0  0  0  0  0  0
  189.2210  178.4820  139.9210 C   0  0  2  0  0  3  0  0  0  0  0  0
  185.9080  177.3850  138.4060 C   0  0  2  0  0  3  0  0  0  0  0  0
  191.2590  177.0350  139.6080 C   0  0  0  0  0  2  0  0  0  0  0  0
  188.1540  178.9550  140.8980 C   0  0  0  0  0  2  0  0  0  0  0  0
  188.5630  175.9360  137.1450 N   0  0  0  0  0  2  0  0  0  0  0  0
  190.5970  176.5180  138.3220 C   0  0  0  0  0  2  0  0  0  0  0  0
  183.7280  177.9760  139.9770 O   0  0  0  0  0  0  0  0  0  0  0  0
  184.0860  179.0610  139.1550 C   0  0  1  0  0  3  0  0  0  0  0  0
  189.0770  176.3940  138.4290 C   0  0  1  0  0  3  0  0  0  0  0  0
  186.8590  178.7710  140.2440 N   0  0  2  0  0  0  0  0  0  0  0  0
  186.2410  176.6360  137.1040 C   0  0  1  0  0  3  0  0  0  0  0  0
  184.4180  179.0270  140.6220 C   0  0  2  0  0  3  0  0  0  0  0  0
  185.7500  178.4730  141.1640 C   0  0  2  0  0  3  0  0  0  0  0  0
  187.1960  175.4720  137.3250 C   0  0  0  0  0  2  0  0  0  0  0  0
  184.5420  176.7980  135.3560 C   0  0  0  0  0  3  0  0  0  0  0  0
  184.9930  176.1480  136.4340 C   0  0  0  0  0  0  0  0  0  0  0  0
  184.2350  175.0080  136.9930 C   0  0  0  0  0  3  0  0  0  0  0  0
  182.3230  173.6850  137.0570 F   0  0  0  0  0  0  0  0  0  0  0  0
  182.4900  175.4520  135.4210 N   0  0  0  0  0  2  0  0  0  0  0  0
  183.0400  174.6890  136.4990 C   0  0  0  0  0  0  0  0  0  0  0  0
  183.3250  176.3310  134.6020 C   0  0  0  0  0  2  0  0  0  0  0  0
  185.9540  179.0620  142.5780 C   0  0  0  0  0  2  0  0  0  0  0  0
  185.1890  178.3780  143.6310 N   0  0  0  0  0  0  0  0  0  0  0  0
  186.3820  178.2240  145.7490 C   0  0  0  0  0  1  0  0  0  0  0  0
  186.0640  177.5340  144.4360 C   0  0  0  0  0  2  0  0  0  0  0  0
  184.5720  179.3660  144.5070 C   0  0  0  0  0  2  0  0  0  0  0  0
  183.1190  179.0040  144.7630 C   0  0  0  0  0  2  0  0  0  0  0  0
  182.3360  178.9960  143.4640 C   0  0  0  0  0  1  0  0  0  0  0  0
  189.6650  176.5550  141.3430 O   0  0  0  0  0  0  0  0  0  0  0  0
  190.2280  176.4640  142.6380 C   0  0  0  0  0  0  0  0  0  0  0  0
  189.1820  176.6830  143.7270 C   0  0  0  0  0  1  0  0  0  0  0  0
  190.8600  175.2300  142.8280 O   0  0  0  0  0  1  0  0  0  0  0  0
  191.2650  177.5570  142.7780 C   0  0  0  0  0  1  0  0  0  0  0  0
  1  4  1  0  0  0  0
  1  5  1  0  0  0  0
  2  6  1  0  0  0  0
  2 12  1  0  0  0  0
  3 33  1  0  0  0  0
  4 14  1  0  0  0  0
  5  3  1  0  0  0  0
  5  8  1  0  0  0  0
  6  4  1  0  0  0  0
  7  3  1  0  0  0  0
  9 18  1  0  0  0  0
  9 13  1  0  0  0  0
 10 13  1  0  0  0  0
 10  7  1  0  0  0  0
 11 16  1  0  0  0  0
 12 11  1  0  0  0  0
 12 16  1  0  0  0  0
 13  1  1  0  0  0  0
 14  8  1  0  0  0  0
 14 17  1  0  0  0  0
 15 18  1  0  0  0  0
 15  6  1  0  0  0  0
 16 17  1  0  0  0  0
 17 26  1  0  0  0  0
 19 20  2  0  0  0  0
 20 21  1  0  0  0  0
 20 15  1  0  0  0  0
 23 24  1  0  0  0  0
 24 21  2  0  0  0  0
 24 22  1  0  0  0  0
 25 19  1  0  0  0  0
 25 23  1  0  0  0  0
 26 27  1  0  0  0  0
 27 29  1  0  0  0  0
 27 30  1  0  0  0  0
 29 28  1  0  0  0  0
 30 31  1  0  0  0  0
 32 31  1  0  0  0  0
 33 34  1  0  0  0  0
 34 37  1  0  0  0  0
 34 36  1  0  0  0  0
 34 35  1  0  0  0  0
M  END
>  <MODEL>
6

>  <REMARK>
 VINA RESULT:      -5.8      2.985      8.049
  Name = 
  8 active torsions:
  status: ('A' for Active; 'I' for Inactive)
    1  A    between atoms: C_1  and  N_4
    2  A    between atoms: C_1  and  C_27
    3  A    between atoms: C_2  and  O_22
    4  A    between atoms: N_4  and  C_12
    5  A    between atoms: N_4  and  C_37
    6  A    between atoms: C_6  and  O_22
    7  A    between atoms: C_8  and  C_12
    8  A    between atoms: C_23  and  C_30
                            x       y       z     vdW  Elec       q    Type
                         _______ _______ _______ _____ _____    ______ ____

>  <TORSDO>
F 8

$$$$
=
 OpenBabel11122411423D

 37 42  0  0  1  0  0  0  0  0999 V2000
  188.1590  178.0020  138.9180 C   0  0  1  0  0  3  0  0  0  0  0  0
  184.8760  178.9940  138.2760 C   0  0  0  0  0  2  0  0  0  0  0  0
  189.9410  177.6700  140.7460 C   0  0  2  0  0  3  0  0  0  0  0  0
  186.7590  177.7740  139.4640 C   0  0  2  0  0  3  0  0  0  0  0  0
  188.8960  178.6090  140.1170 C   0  0  2  0  0  3  0  0  0  0  0  0
  185.6190  177.6690  138.4280 C   0  0  2  0  0  3  0  0  0  0  0  0
  190.9490  177.2140  139.6860 C   0  0  0  0  0  2  0  0  0  0  0  0
  187.8080  178.9660  141.1200 C   0  0  0  0  0  2  0  0  0  0  0  0
  188.3060  176.3800  137.0670 N   0  0  0  0  0  2  0  0  0  0  0  0
  190.3140  176.8380  138.3380 C   0  0  0  0  0  2  0  0  0  0  0  0
  183.4070  178.0740  140.0140 O   0  0  0  0  0  0  0  0  0  0  0  0
  183.7720  179.2440  139.3220 C   0  0  1  0  0  3  0  0  0  0  0  0
  188.7940  176.6960  138.4030 C   0  0  1  0  0  3  0  0  0  0  0  0
  186.5260  178.8490  140.4250 N   0  0  2  0  0  0  0  0  0  0  0  0
  185.9800  177.0690  137.0590 C   0  0  1  0  0  3  0  0  0  0  0  0
  184.0770  179.0510  140.7830 C   0  0  2  0  0  3  0  0  0  0  0  0
  185.4030  178.4460  141.2860 C   0  0  2  0  0  3  0  0  0  0  0  0
  186.9390  175.8920  137.1690 C   0  0  0  0  0  2  0  0  0  0  0  0
  184.2220  177.4890  135.4150 C   0  0  0  0  0  3  0  0  0  0  0  0
  184.7480  176.6520  136.3160 C   0  0  0  0  0  0  0  0  0  0  0  0
  184.0850  175.3660  136.6200 C   0  0  0  0  0  3  0  0  0  0  0  0
  182.2680  173.9280  136.4180 F   0  0  0  0  0  0  0  0  0  0  0  0
  182.2670  176.0170  135.2110 N   0  0  0  0  0  2  0  0  0  0  0  0
  182.8990  175.0790  136.0860 C   0  0  0  0  0  0  0  0  0  0  0  0
  183.0170  177.1130  134.5940 C   0  0  0  0  0  2  0  0  0  0  0  0
  185.5780  178.8780  142.7600 C   0  0  0  0  0  2  0  0  0  0  0  0
  184.3480  179.3830  143.3880 N   0  0  0  0  0  0  0  0  0  0  0  0
  182.0330  178.8970  143.9690 C   0  0  0  0  0  1  0  0  0  0  0  0
  183.3560  178.3200  143.5030 C   0  0  0  0  0  2  0  0  0  0  0  0
  184.6490  179.8750  144.7260 C   0  0  0  0  0  2  0  0  0  0  0  0
  185.6620  178.9670  145.4030 C   0  0  0  0  0  2  0  0  0  0  0  0
  185.0320  178.2530  146.5840 C   0  0  0  0  0  1  0  0  0  0  0  0
  189.3270  176.5390  141.3260 O   0  0  0  0  0  0  0  0  0  0  0  0
  189.7450  176.4040  142.6720 C   0  0  0  0  0  0  0  0  0  0  0  0
  188.5630  176.4010  143.6360 C   0  0  0  0  0  1  0  0  0  0  0  0
  190.5060  175.2440  142.8500 O   0  0  0  0  0  1  0  0  0  0  0  0
  190.6090  177.5980  143.0170 C   0  0  0  0  0  1  0  0  0  0  0  0
  1  4  1  0  0  0  0
  1  5  1  0  0  0  0
  2  6  1  0  0  0  0
  2 12  1  0  0  0  0
  3 33  1  0  0  0  0
  4 14  1  0  0  0  0
  5  3  1  0  0  0  0
  5  8  1  0  0  0  0
  6  4  1  0  0  0  0
  7  3  1  0  0  0  0
  9 18  1  0  0  0  0
  9 13  1  0  0  0  0
 10 13  1  0  0  0  0
 10  7  1  0  0  0  0
 11 16  1  0  0  0  0
 12 11  1  0  0  0  0
 12 16  1  0  0  0  0
 13  1  1  0  0  0  0
 14  8  1  0  0  0  0
 14 17  1  0  0  0  0
 15 18  1  0  0  0  0
 15  6  1  0  0  0  0
 16 17  1  0  0  0  0
 17 26  1  0  0  0  0
 19 20  2  0  0  0  0
 20 21  1  0  0  0  0
 20 15  1  0  0  0  0
 23 24  1  0  0  0  0
 24 22  1  0  0  0  0
 24 21  2  0  0  0  0
 25 23  1  0  0  0  0
 25 19  1  0  0  0  0
 26 27  1  0  0  0  0
 27 29  1  0  0  0  0
 27 30  1  0  0  0  0
 29 28  1  0  0  0  0
 30 31  1  0  0  0  0
 31 32  1  0  0  0  0
 33 34  1  0  0  0  0
 34 36  1  0  0  0  0
 34 37  1  0  0  0  0
 34 35  1  0  0  0  0
M  END
>  <MODEL>
7

>  <REMARK>
 VINA RESULT:      -5.5      3.057      8.024
  Name = 
  8 active torsions:
  status: ('A' for Active; 'I' for Inactive)
    1  A    between atoms: C_1  and  N_4
    2  A    between atoms: C_1  and  C_27
    3  A    between atoms: C_2  and  O_22
    4  A    between atoms: N_4  and  C_12
    5  A    between atoms: N_4  and  C_37
    6  A    between atoms: C_6  and  O_22
    7  A    between atoms: C_8  and  C_12
    8  A    between atoms: C_23  and  C_30
                            x       y       z     vdW  Elec       q    Type
                         _______ _______ _______ _____ _____    ______ ____

>  <TORSDO>
F 8

$$$$
=
 OpenBabel11122411423D

 37 42  0  0  1  0  0  0  0  0999 V2000
  185.0330  178.9940  140.6990 C   0  0  1  0  0  3  0  0  0  0  0  0
  188.3430  178.9520  141.8040 C   0  0  0  0  0  2  0  0  0  0  0  0
  183.4570  178.4240  138.7450 C   0  0  2  0  0  3  0  0  0  0  0  0
  186.2200  178.0460  140.7440 C   0  0  2  0  0  3  0  0  0  0  0  0
  184.7550  179.1160  139.1960 C   0  0  2  0  0  3  0  0  0  0  0  0
  187.0970  178.0930  142.0140 C   0  0  2  0  0  3  0  0  0  0  0  0
  182.2650  178.9590  139.5450 C   0  0  0  0  0  2  0  0  0  0  0  0
  185.9680  178.5050  138.5100 C   0  0  0  0  0  2  0  0  0  0  0  0
  184.0120  178.7150  142.9260 N   0  0  0  0  0  2  0  0  0  0  0  0
  182.5440  179.1290  141.0460 C   0  0  0  0  0  2  0  0  0  0  0  0
  189.3810  176.8290  141.1440 O   0  0  0  0  0  0  0  0  0  0  0  0
  189.5250  178.2290  141.1320 C   0  0  1  0  0  3  0  0  0  0  0  0
  183.8360  178.4520  141.5040 C   0  0  1  0  0  3  0  0  0  0  0  0
  186.9950  178.3190  139.5360 N   0  0  2  0  0  0  0  0  0  0  0  0
  186.3890  178.4470  143.3320 C   0  0  1  0  0  3  0  0  0  0  0  0
  189.2920  177.4390  139.8730 C   0  0  2  0  0  3  0  0  0  0  0  0
  187.8840  177.1710  139.3040 C   0  0  2  0  0  3  0  0  0  0  0  0
  185.0150  177.8010  143.4510 C   0  0  0  0  0  2  0  0  0  0  0  0
  188.3800  177.4150  144.3020 C   0  0  0  0  0  3  0  0  0  0  0  0
  187.2310  178.0670  144.5110 C   0  0  0  0  0  0  0  0  0  0  0  0
  186.7700  178.3480  145.8880 C   0  0  0  0  0  3  0  0  0  0  0  0
  186.9710  178.0640  148.1870 F   0  0  0  0  0  0  0  0  0  0  0  0
  188.6010  177.0570  146.7210 N   0  0  0  0  0  2  0  0  0  0  0  0
  187.4340  177.8570  146.9320 C   0  0  0  0  0  0  0  0  0  0  0  0
  189.3020  177.0510  145.4350 C   0  0  0  0  0  2  0  0  0  0  0  0
  188.0510  176.8190  137.8080 C   0  0  0  0  0  2  0  0  0  0  0  0
  189.1300  177.5550  137.1330 N   0  0  0  0  0  0  0  0  0  0  0  0
  189.8980  175.2950  136.6540 C   0  0  0  0  0  1  0  0  0  0  0  0
  190.3120  176.7150  136.9860 C   0  0  0  0  0  2  0  0  0  0  0  0
  188.6890  177.9620  135.8050 C   0  0  0  0  0  2  0  0  0  0  0  0
  187.3990  177.2470  135.4400 C   0  0  0  0  0  2  0  0  0  0  0  0
  186.5130  178.1440  134.5980 C   0  0  0  0  0  1  0  0  0  0  0  0
  183.5420  177.0240  138.9090 O   0  0  0  0  0  0  0  0  0  0  0  0
  183.2890  176.3790  137.6740 C   0  0  0  0  0  0  0  0  0  0  0  0
  183.0840  177.3810  136.5430 C   0  0  0  0  0  1  0  0  0  0  0  0
  184.3230  175.4960  137.3460 O   0  0  0  0  0  1  0  0  0  0  0  0
  182.0090  175.5840  137.8140 C   0  0  0  0  0  1  0  0  0  0  0  0
  1  4  1  0  0  0  0
  1 13  1  0  0  0  0
  2  6  1  0  0  0  0
  3 33  1  0  0  0  0
  3  5  1  0  0  0  0
  3  7  1  0  0  0  0
  4  6  1  0  0  0  0
  5  1  1  0  0  0  0
  6 15  1  0  0  0  0
  7 10  1  0  0  0  0
  8  5  1  0  0  0  0
  8 14  1  0  0  0  0
  9 18  1  0  0  0  0
 10 13  1  0  0  0  0
 12 11  1  0  0  0  0
 12  2  1  0  0  0  0
 13  9  1  0  0  0  0
 14  4  1  0  0  0  0
 15 18  1  0  0  0  0
 15 20  1  0  0  0  0
 16 12  1  0  0  0  0
 16 11  1  0  0  0  0
 17 14  1  0  0  0  0
 17 16  1  0  0  0  0
 19 20  2  0  0  0  0
 19 25  1  0  0  0  0
 20 21  1  0  0  0  0
 21 24  2  0  0  0  0
 23 24  1  0  0  0  0
 24 22  1  0  0  0  0
 25 23  1  0  0  0  0
 26 17  1  0  0  0  0
 27 26  1  0  0  0  0
 28 29  1  0  0  0  0
 29 27  1  0  0  0  0
 30 27  1  0  0  0  0
 31 30  1  0  0  0  0
 32 31  1  0  0  0  0
 34 37  1  0  0  0  0
 34 33  1  0  0  0  0
 35 34  1  0  0  0  0
 36 34  1  0  0  0  0
M  END
>  <MODEL>
8

>  <REMARK>
 VINA RESULT:      -5.3      2.326      3.163
  Name = 
  8 active torsions:
  status: ('A' for Active; 'I' for Inactive)
    1  A    between atoms: C_1  and  N_4
    2  A    between atoms: C_1  and  C_27
    3  A    between atoms: C_2  and  O_22
    4  A    between atoms: N_4  and  C_12
    5  A    between atoms: N_4  and  C_37
    6  A    between atoms: C_6  and  O_22
    7  A    between atoms: C_8  and  C_12
    8  A    between atoms: C_23  and  C_30
                            x       y       z     vdW  Elec       q    Type
                         _______ _______ _______ _____ _____    ______ ____

>  <TORSDO>
F 8

$$$$
=
 OpenBabel11122411423D

 37 42  0  0  1  0  0  0  0  0999 V2000
  186.5850  178.2460  137.3560 C   0  0  1  0  0  3  0  0  0  0  0  0
  184.6980  179.3030  140.0930 C   0  0  0  0  0  2  0  0  0  0  0  0
  188.9270  177.5330  136.5600 C   0  0  2  0  0  3  0  0  0  0  0  0
  186.3600  177.8740  138.8110 C   0  0  2  0  0  3  0  0  0  0  0  0
  188.0820  178.5730  137.3170 C   0  0  2  0  0  3  0  0  0  0  0  0
  184.9150  177.9920  139.3420 C   0  0  2  0  0  3  0  0  0  0  0  0
  188.3930  177.3510  135.1360 C   0  0  0  0  0  2  0  0  0  0  0  0
  188.5110  178.6700  138.7740 C   0  0  0  0  0  2  0  0  0  0  0  0
  184.7380  177.0980  136.1950 N   0  0  0  0  0  2  0  0  0  0  0  0
  186.8610  177.2850  135.0450 C   0  0  0  0  0  2  0  0  0  0  0  0
  185.3320  177.9820  142.0620 O   0  0  0  0  0  0  0  0  0  0  0  0
  185.1350  179.2860  141.5710 C   0  0  1  0  0  3  0  0  0  0  0  0
  186.1800  177.1060  136.4030 C   0  0  1  0  0  3  0  0  0  0  0  0
  187.2920  178.6950  139.5810 N   0  0  2  0  0  0  0  0  0  0  0  0
  183.7830  177.7300  138.3340 C   0  0  1  0  0  3  0  0  0  0  0  0
  186.5000  178.7670  141.9340 C   0  0  2  0  0  3  0  0  0  0  0  0
  187.4330  178.0850  140.9130 C   0  0  2  0  0  3  0  0  0  0  0  0
  184.0930  176.5760  137.3900 C   0  0  0  0  0  2  0  0  0  0  0  0
  182.0060  178.4090  139.8660 C   0  0  0  0  0  3  0  0  0  0  0  0
  182.4860  177.4750  139.0390 C   0  0  0  0  0  0  0  0  0  0  0  0
  181.7830  176.1850  138.8750 C   0  0  0  0  0  3  0  0  0  0  0  0
  180.1260  174.6860  139.5250 F   0  0  0  0  0  0  0  0  0  0  0  0
  180.2720  176.8380  140.6090 N   0  0  0  0  0  2  0  0  0  0  0  0
  180.7270  175.8950  139.6340 C   0  0  0  0  0  0  0  0  0  0  0  0
  180.6830  178.2410  140.5650 C   0  0  0  0  0  2  0  0  0  0  0  0
  188.8710  178.1680  141.4740 C   0  0  0  0  0  2  0  0  0  0  0  0
  189.2170  177.0830  142.4030 N   0  0  0  0  0  0  0  0  0  0  0  0
  191.6290  177.0130  142.7290 C   0  0  0  0  0  1  0  0  0  0  0  0
  190.4470  176.4210  141.9860 C   0  0  0  0  0  2  0  0  0  0  0  0
  189.4210  177.6290  143.7390 C   0  0  0  0  0  2  0  0  0  0  0  0
  188.1260  177.5710  144.5320 C   0  0  0  0  0  2  0  0  0  0  0  0
  188.4160  177.4380  146.0150 C   0  0  0  0  0  1  0  0  0  0  0  0
  188.9200  176.2870  137.2260 O   0  0  0  0  0  0  0  0  0  0  0  0
  190.2090  175.7040  137.1660 C   0  0  0  0  0  0  0  0  0  0  0  0
  190.8770  175.6620  138.5360 C   0  0  0  0  0  1  0  0  0  0  0  0
  190.1540  174.4150  136.6240 O   0  0  0  0  0  1  0  0  0  0  0  0
  191.0710  176.5630  136.2670 C   0  0  0  0  0  1  0  0  0  0  0  0
  1  4  1  0  0  0  0
  2 12  1  0  0  0  0
  3 33  1  0  0  0  0
  3  5  1  0  0  0  0
  4  6  1  0  0  0  0
  4 14  1  0  0  0  0
  5  1  1  0  0  0  0
  5  8  1  0  0  0  0
  6  2  1  0  0  0  0
  7  3  1  0  0  0  0
  8 14  1  0  0  0  0
  9 13  1  0  0  0  0
  9 18  1  0  0  0  0
 10  7  1  0  0  0  0
 10 13  1  0  0  0  0
 12 16  1  0  0  0  0
 12 11  1  0  0  0  0
 13  1  1  0  0  0  0
 14 17  1  0  0  0  0
 15 20  1  0  0  0  0
 15  6  1  0  0  0  0
 16 11  1  0  0  0  0
 17 26  1  0  0  0  0
 17 16  1  0  0  0  0
 18 15  1  0  0  0  0
 19 25  1  0  0  0  0
 20 19  2  0  0  0  0
 21 20  1  0  0  0  0
 21 24  2  0  0  0  0
 22 24  1  0  0  0  0
 24 23  1  0  0  0  0
 25 23  1  0  0  0  0
 26 27  1  0  0  0  0
 27 30  1  0  0  0  0
 29 27  1  0  0  0  0
 29 28  1  0  0  0  0
 30 31  1  0  0  0  0
 31 32  1  0  0  0  0
 34 33  1  0  0  0  0
 34 35  1  0  0  0  0
 36 34  1  0  0  0  0
 37 34  1  0  0  0  0
M  END
>  <MODEL>
9

>  <REMARK>
 VINA RESULT:      -5.3      3.088      7.809
  Name = 
  8 active torsions:
  status: ('A' for Active; 'I' for Inactive)
    1  A    between atoms: C_1  and  N_4
    2  A    between atoms: C_1  and  C_27
    3  A    between atoms: C_2  and  O_22
    4  A    between atoms: N_4  and  C_12
    5  A    between atoms: N_4  and  C_37
    6  A    between atoms: C_6  and  O_22
    7  A    between atoms: C_8  and  C_12
    8  A    between atoms: C_23  and  C_30
                            x       y       z     vdW  Elec       q    Type
                         _______ _______ _______ _____ _____    ______ ____

>  <TORSDO>
F 8

$$$$
