=
 OpenBabel11122412013D

 28 32  0  0  1  0  0  0  0  0999 V2000
  180.7430  176.4470  137.2110 C   0  0  0  0  0  0  0  0  0  0  0  0
  184.0020  176.2450  138.1520 O   0  0  0  0  0  1  0  0  0  0  0  0
  180.6350  179.1270  142.7920 O   0  0  0  0  0  0  0  0  0  0  0  0
  180.2290  178.4040  135.2650 C   0  0  0  0  0  3  0  0  0  0  0  0
  182.7550  178.6870  141.8590 N   0  0  0  0  0  0  0  0  0  0  0  0
  180.9590  175.1140  138.3980 S   0  0  0  0  0  0  0  0  0  0  0  0
  184.0140  177.5030  136.1430 C   0  0  0  0  0  1  0  0  0  0  0  0
  184.3100  177.5040  137.6310 C   0  0  1  0  0  0  0  0  0  0  0  0
  186.2390  178.2530  138.8850 C   0  0  0  0  0  0  0  0  0  0  0  0
  183.4840  178.6140  138.3350 C   0  0  2  0  0  3  0  0  0  0  0  0
  179.5570  175.5270  141.6020 O   0  0  0  0  0  0  0  0  0  0  0  0
  181.9370  177.5480  139.9170 C   0  0  1  0  0  3  0  0  0  0  0  0
  185.4050  178.7080  139.9100 O   0  0  0  0  0  0  0  0  0  0  0  0
  185.7390  177.7430  137.8030 N   0  0  0  0  0  0  0  0  0  0  0  0
  179.3450  176.1330  140.5650 C   0  0  0  0  0  0  0  0  0  0  0  0
  181.1900  177.7830  137.4160 C   0  0  0  0  0  0  0  0  0  0  0  0
  181.3450  178.6700  141.8560 C   0  0  0  0  0  0  0  0  0  0  0  0
  187.6480  178.3730  139.0220 N   0  0  0  0  0  1  0  0  0  0  0  0
  179.4350  177.6250  140.5350 C   0  0  0  0  0  2  0  0  0  0  0  0
  180.9110  178.7440  136.4330 C   0  0  0  0  0  3  0  0  0  0  0  0
  180.0780  176.1200  136.0230 C   0  0  0  0  0  3  0  0  0  0  0  0
  179.8200  177.0900  135.0560 C   0  0  0  0  0  3  0  0  0  0  0  0
  178.9330  175.2310  139.0730 S   0  0  0  0  0  0  0  0  0  0  0  0
  183.2190  177.9530  140.6870 C   0  0  1  0  0  3  0  0  0  0  0  0
  180.8180  178.0490  140.7050 N   0  0  0  0  0  0  0  0  0  0  0  0
  183.9950  178.8760  139.7550 C   0  0  2  0  0  3  0  0  0  0  0  0
  183.5820  178.9990  143.0120 C   0  0  0  0  0  1  0  0  0  0  0  0
  182.0140  178.2700  138.5860 C   0  0  2  0  0  3  0  0  0  0  0  0
  1 16  1  0  0  0  0
  1  6  1  0  0  0  0
  4 20  1  0  0  0  0
  5 27  1  0  0  0  0
  6 23  1  0  0  0  0
  8  7  1  6  0  0  0
  8 14  1  0  0  0  0
  8  2  1  0  0  0  0
  8 10  1  0  0  0  0
  9 18  1  0  0  0  0
  9 13  1  0  0  0  0
 10 28  1  0  0  0  0
 10 26  1  0  0  0  0
 12 24  1  0  0  0  0
 12 25  1  0  0  0  0
 14  9  2  0  0  0  0
 15 11  2  0  0  0  0
 16 28  1  0  0  0  0
 17  5  1  0  0  0  0
 17  3  2  0  0  0  0
 19 15  1  0  0  0  0
 19 25  1  0  0  0  0
 20 16  2  0  0  0  0
 21  1  2  0  0  0  0
 22  4  2  0  0  0  0
 22 21  1  0  0  0  0
 23 15  1  0  0  0  0
 24  5  1  0  0  0  0
 25 17  1  0  0  0  0
 26 13  1  0  0  0  0
 26 24  1  0  0  0  0
 28 12  1  0  0  0  0
M  END
>  <MODEL>
1

>  <REMARK>
 VINA RESULT:      -5.5      0.000      0.000
  Name = 
  0 active torsions:
  status: ('A' for Active; 'I' for Inactive)
                            x       y       z     vdW  Elec       q    Type
                         _______ _______ _______ _____ _____    ______ ____

>  <TORSDO>
F 0

$$$$
=
 OpenBabel11122412013D

 28 32  0  0  1  0  0  0  0  0999 V2000
  186.7390  175.2250  135.6980 C   0  0  0  0  0  0  0  0  0  0  0  0
  183.6120  176.0630  134.6660 O   0  0  0  0  0  1  0  0  0  0  0  0
  185.0970  179.4720  139.8950 O   0  0  0  0  0  0  0  0  0  0  0  0
  186.8980  172.7250  136.9660 C   0  0  0  0  0  3  0  0  0  0  0  0
  183.4070  178.6870  138.4510 N   0  0  0  0  0  0  0  0  0  0  0  0
  186.7780  176.8040  134.8380 S   0  0  0  0  0  0  0  0  0  0  0  0
  183.5140  173.7370  135.1120 C   0  0  0  0  0  1  0  0  0  0  0  0
  183.0030  175.1140  135.4900 C   0  0  1  0  0  0  0  0  0  0  0  0
  180.7630  175.9490  135.8660 C   0  0  0  0  0  0  0  0  0  0  0  0
  183.3060  175.4010  136.9860 C   0  0  2  0  0  3  0  0  0  0  0  0
  187.4490  179.6910  136.7380 O   0  0  0  0  0  0  0  0  0  0  0  0
  184.8430  177.3130  137.1150 C   0  0  1  0  0  3  0  0  0  0  0  0
  181.2330  176.7710  136.8940 O   0  0  0  0  0  0  0  0  0  0  0  0
  181.5640  175.1410  135.2460 N   0  0  0  0  0  0  0  0  0  0  0  0
  187.6150  178.5140  137.0090 C   0  0  0  0  0  0  0  0  0  0  0  0
  185.8610  174.9210  136.7760 C   0  0  0  0  0  0  0  0  0  0  0  0
  184.7300  178.7390  138.9380 C   0  0  0  0  0  0  0  0  0  0  0  0
  179.3870  175.9850  135.5130 N   0  0  0  0  0  1  0  0  0  0  0  0
  187.0570  177.9470  138.2740 C   0  0  0  0  0  2  0  0  0  0  0  0
  185.9680  173.6690  137.3990 C   0  0  0  0  0  3  0  0  0  0  0  0
  187.6540  174.2570  135.2640 C   0  0  0  0  0  3  0  0  0  0  0  0
  187.7360  173.0160  135.8920 C   0  0  0  0  0  3  0  0  0  0  0  0
  188.5260  177.4600  135.8810 S   0  0  0  0  0  0  0  0  0  0  0  0
  183.3950  177.8410  137.2630 C   0  0  1  0  0  3  0  0  0  0  0  0
  185.6030  177.9060  138.2080 N   0  0  0  0  0  0  0  0  0  0  0  0
  182.5200  176.6140  137.4930 C   0  0  2  0  0  3  0  0  0  0  0  0
  182.3520  179.6210  138.8050 C   0  0  0  0  0  1  0  0  0  0  0  0
  184.7500  175.8090  137.2890 C   0  0  2  0  0  3  0  0  0  0  0  0
  1 16  1  0  0  0  0
  2  8  1  0  0  0  0
  4 20  1  0  0  0  0
  5 27  1  0  0  0  0
  5 17  1  0  0  0  0
  6  1  1  0  0  0  0
  6 23  1  0  0  0  0
  8  7  1  6  0  0  0
  8 10  1  0  0  0  0
  9 13  1  0  0  0  0
 10 28  1  0  0  0  0
 10 26  1  0  0  0  0
 11 15  2  0  0  0  0
 12 24  1  0  0  0  0
 12 28  1  0  0  0  0
 12 25  1  0  0  0  0
 13 26  1  0  0  0  0
 14  8  1  0  0  0  0
 14  9  2  0  0  0  0
 15 19  1  0  0  0  0
 16 28  1  0  0  0  0
 16 20  2  0  0  0  0
 17  3  2  0  0  0  0
 18  9  1  0  0  0  0
 21  1  2  0  0  0  0
 21 22  1  0  0  0  0
 22  4  2  0  0  0  0
 23 15  1  0  0  0  0
 24 26  1  0  0  0  0
 24  5  1  0  0  0  0
 25 19  1  0  0  0  0
 25 17  1  0  0  0  0
M  END
>  <MODEL>
2

>  <REMARK>
 VINA RESULT:      -5.4      3.792      6.442
  Name = 
  0 active torsions:
  status: ('A' for Active; 'I' for Inactive)
                            x       y       z     vdW  Elec       q    Type
                         _______ _______ _______ _____ _____    ______ ____

>  <TORSDO>
F 0

$$$$
=
 OpenBabel11122412013D

 28 32  0  0  1  0  0  0  0  0999 V2000
  180.8350  179.9240  139.8430 C   0  0  0  0  0  0  0  0  0  0  0  0
  184.1410  180.1530  139.0940 O   0  0  0  0  0  1  0  0  0  0  0  0
  181.2360  176.4450  134.7370 O   0  0  0  0  0  0  0  0  0  0  0  0
  180.2660  178.2520  142.0270 C   0  0  0  0  0  3  0  0  0  0  0  0
  183.2640  177.1280  135.7270 N   0  0  0  0  0  0  0  0  0  0  0  0
  181.0780  181.0760  138.4840 S   0  0  0  0  0  0  0  0  0  0  0  0
  184.0630  179.2100  141.2670 C   0  0  0  0  0  1  0  0  0  0  0  0
  184.4640  179.0030  139.8180 C   0  0  1  0  0  0  0  0  0  0  0  0
  186.5060  178.1780  138.8180 C   0  0  0  0  0  0  0  0  0  0  0  0
  183.7370  177.7590  139.2380 C   0  0  2  0  0  3  0  0  0  0  0  0
  179.9260  180.1210  135.2970 O   0  0  0  0  0  0  0  0  0  0  0  0
  182.2630  178.4970  137.4170 C   0  0  1  0  0  3  0  0  0  0  0  0
  185.7670  177.5330  137.8220 O   0  0  0  0  0  0  0  0  0  0  0  0
  185.9100  178.8160  139.7750 N   0  0  0  0  0  0  0  0  0  0  0  0
  179.6670  179.6640  136.3980 C   0  0  0  0  0  0  0  0  0  0  0  0
  181.3500  178.5980  139.8720 C   0  0  0  0  0  0  0  0  0  0  0  0
  181.8570  177.0720  135.6370 C   0  0  0  0  0  0  0  0  0  0  0  0
  187.9250  178.1120  138.7920 N   0  0  0  0  0  1  0  0  0  0  0  0
  179.8170  178.2000  136.6590 C   0  0  0  0  0  2  0  0  0  0  0  0
  181.0420  177.7800  140.9690 C   0  0  0  0  0  3  0  0  0  0  0  0
  180.0730  180.3880  140.9230 C   0  0  0  0  0  3  0  0  0  0  0  0
  179.7880  179.5600  142.0070 C   0  0  0  0  0  3  0  0  0  0  0  0
  179.1120  180.7550  137.7070 S   0  0  0  0  0  0  0  0  0  0  0  0
  183.6120  178.0510  136.8020 C   0  0  1  0  0  3  0  0  0  0  0  0
  181.2250  177.8280  136.6440 N   0  0  0  0  0  0  0  0  0  0  0  0
  184.3580  177.3170  137.9100 C   0  0  2  0  0  3  0  0  0  0  0  0
  184.1830  176.6910  134.6900 C   0  0  0  0  0  1  0  0  0  0  0  0
  182.2750  177.9860  138.8450 C   0  0  2  0  0  3  0  0  0  0  0  0
  1 16  2  0  0  0  0
  1 21  1  0  0  0  0
  2  8  1  0  0  0  0
  3 17  2  0  0  0  0
  5 24  1  0  0  0  0
  6  1  1  0  0  0  0
  8  7  1  1  0  0  0
  9 14  2  0  0  0  0
 10  8  1  0  0  0  0
 11 15  2  0  0  0  0
 12 28  1  0  0  0  0
 13 26  1  0  0  0  0
 13  9  1  0  0  0  0
 14  8  1  0  0  0  0
 15 19  1  0  0  0  0
 15 23  1  0  0  0  0
 16 20  1  0  0  0  0
 17  5  1  0  0  0  0
 17 25  1  0  0  0  0
 18  9  1  0  0  0  0
 20  4  2  0  0  0  0
 21 22  2  0  0  0  0
 22  4  1  0  0  0  0
 23  6  1  0  0  0  0
 24 12  1  0  0  0  0
 24 26  1  0  0  0  0
 25 19  1  0  0  0  0
 25 12  1  0  0  0  0
 26 10  1  0  0  0  0
 27  5  1  0  0  0  0
 28 10  1  0  0  0  0
 28 16  1  0  0  0  0
M  END
>  <MODEL>
3

>  <REMARK>
 VINA RESULT:      -5.2      2.847      5.014
  Name = 
  0 active torsions:
  status: ('A' for Active; 'I' for Inactive)
                            x       y       z     vdW  Elec       q    Type
                         _______ _______ _______ _____ _____    ______ ____

>  <TORSDO>
F 0

$$$$
=
 OpenBabel11122412013D

 28 32  0  0  1  0  0  0  0  0999 V2000
  189.2070  177.4570  137.4990 C   0  0  0  0  0  0  0  0  0  0  0  0
  191.7400  176.3040  135.5510 O   0  0  0  0  0  1  0  0  0  0  0  0
  187.1580  171.8290  135.9300 O   0  0  0  0  0  0  0  0  0  0  0  0
  189.7860  177.4690  140.2470 C   0  0  0  0  0  3  0  0  0  0  0  0
  189.4010  172.3340  135.4070 N   0  0  0  0  0  0  0  0  0  0  0  0
  188.7480  177.5700  135.7650 S   0  0  0  0  0  0  0  0  0  0  0  0
  192.7330  176.7500  137.6570 C   0  0  0  0  0  1  0  0  0  0  0  0
  192.3900  175.6910  136.6250 C   0  0  1  0  0  0  0  0  0  0  0  0
  193.7130  173.9220  135.6380 C   0  0  0  0  0  0  0  0  0  0  0  0
  191.4940  174.5960  137.2640 C   0  0  2  0  0  3  0  0  0  0  0  0
  186.2200  175.4170  134.5940 O   0  0  0  0  0  0  0  0  0  0  0  0
  189.3150  174.6150  136.1330 C   0  0  1  0  0  3  0  0  0  0  0  0
  192.5960  173.0810  135.6300 O   0  0  0  0  0  0  0  0  0  0  0  0
  193.6400  175.1130  136.1440 N   0  0  0  0  0  0  0  0  0  0  0  0
  186.5300  175.7220  135.7330 C   0  0  0  0  0  0  0  0  0  0  0  0
  189.6940  176.2750  138.1250 C   0  0  0  0  0  0  0  0  0  0  0  0
  188.1250  172.6370  135.9280 C   0  0  0  0  0  0  0  0  0  0  0  0
  194.9450  173.4570  135.1050 N   0  0  0  0  0  1  0  0  0  0  0  0
  186.8100  174.6580  136.7460 C   0  0  0  0  0  2  0  0  0  0  0  0
  189.9650  176.3040  139.5010 C   0  0  0  0  0  3  0  0  0  0  0  0
  189.0510  178.6230  138.2610 C   0  0  0  0  0  3  0  0  0  0  0  0
  189.3360  178.6310  139.6250 C   0  0  0  0  0  3  0  0  0  0  0  0
  186.6560  177.4490  136.1910 S   0  0  0  0  0  0  0  0  0  0  0  0
  190.2080  173.5480  135.4520 C   0  0  1  0  0  3  0  0  0  0  0  0
  188.0440  173.9590  136.4110 N   0  0  0  0  0  0  0  0  0  0  0  0
  191.4070  173.3540  136.3730 C   0  0  2  0  0  3  0  0  0  0  0  0
  189.7140  171.1700  134.5970 C   0  0  0  0  0  1  0  0  0  0  0  0
  190.0200  174.9750  137.4260 C   0  0  2  0  0  3  0  0  0  0  0  0
  1 16  2  0  0  0  0
  1 21  1  0  0  0  0
  2  8  1  0  0  0  0
  5 24  1  0  0  0  0
  5 17  1  0  0  0  0
  6 23  1  0  0  0  0
  6  1  1  0  0  0  0
  8 10  1  0  0  0  0
  8  7  1  1  0  0  0
  9 14  2  0  0  0  0
 10 28  1  0  0  0  0
 11 15  2  0  0  0  0
 12 25  1  0  0  0  0
 12 28  1  0  0  0  0
 13  9  1  0  0  0  0
 13 26  1  0  0  0  0
 14  8  1  0  0  0  0
 15 23  1  0  0  0  0
 15 19  1  0  0  0  0
 16 20  1  0  0  0  0
 17  3  2  0  0  0  0
 17 25  1  0  0  0  0
 18  9  1  0  0  0  0
 20  4  2  0  0  0  0
 21 22  2  0  0  0  0
 22  4  1  0  0  0  0
 24 12  1  0  0  0  0
 24 26  1  0  0  0  0
 25 19  1  0  0  0  0
 26 10  1  0  0  0  0
 27  5  1  0  0  0  0
 28 16  1  0  0  0  0
M  END
>  <MODEL>
4

>  <REMARK>
 VINA RESULT:      -5.1      6.828      9.634
  Name = 
  0 active torsions:
  status: ('A' for Active; 'I' for Inactive)
                            x       y       z     vdW  Elec       q    Type
                         _______ _______ _______ _____ _____    ______ ____

>  <TORSDO>
F 0

$$$$
=
 OpenBabel11122412013D

 28 32  0  0  1  0  0  0  0  0999 V2000
  180.9760  178.0340  138.3920 C   0  0  0  0  0  0  0  0  0  0  0  0
  181.9630  174.8900  137.5640 O   0  0  0  0  0  1  0  0  0  0  0  0
  187.1370  178.6280  138.2180 O   0  0  0  0  0  0  0  0  0  0  0  0
  179.8720  179.4900  136.2590 C   0  0  0  0  0  3  0  0  0  0  0  0
  186.2320  176.6190  137.3770 N   0  0  0  0  0  0  0  0  0  0  0  0
  181.5910  177.1800  139.8490 S   0  0  0  0  0  0  0  0  0  0  0  0
  180.5710  175.5930  135.7780 C   0  0  0  0  0  1  0  0  0  0  0  0
  181.9670  175.1690  136.1950 C   0  0  1  0  0  0  0  0  0  0  0  0
  183.5210  173.5840  135.2320 C   0  0  0  0  0  0  0  0  0  0  0  0
  182.9850  176.2930  135.8610 C   0  0  2  0  0  3  0  0  0  0  0  0
  184.6290  178.2880  141.2410 O   0  0  0  0  0  0  0  0  0  0  0  0
  183.9620  177.1090  137.9620 C   0  0  1  0  0  3  0  0  0  0  0  0
  184.5910  174.4190  135.5650 O   0  0  0  0  0  0  0  0  0  0  0  0
  182.3000  173.9470  135.4720 N   0  0  0  0  0  0  0  0  0  0  0  0
  183.8830  178.8320  140.4440 C   0  0  0  0  0  0  0  0  0  0  0  0
  181.6890  178.1430  137.1650 C   0  0  0  0  0  0  0  0  0  0  0  0
  186.1410  177.8960  137.9700 C   0  0  0  0  0  0  0  0  0  0  0  0
  183.7740  172.3360  134.6020 N   0  0  0  0  0  1  0  0  0  0  0  0
  184.4160  179.3520  139.1480 C   0  0  0  0  0  2  0  0  0  0  0  0
  181.1210  178.8850  136.1190 C   0  0  0  0  0  3  0  0  0  0  0  0
  179.7140  178.6320  138.5080 C   0  0  0  0  0  3  0  0  0  0  0  0
  179.1650  179.3570  137.4520 C   0  0  0  0  0  3  0  0  0  0  0  0
  182.1410  179.0000  140.8270 S   0  0  0  0  0  0  0  0  0  0  0  0
  184.9010  176.0250  137.3760 C   0  0  1  0  0  3  0  0  0  0  0  0
  184.8130  178.2460  138.2880 N   0  0  0  0  0  0  0  0  0  0  0  0
  184.4270  175.7850  135.9470 C   0  0  2  0  0  3  0  0  0  0  0  0
  187.4650  175.8730  137.1940 C   0  0  0  0  0  1  0  0  0  0  0  0
  183.0020  177.4670  136.8430 C   0  0  2  0  0  3  0  0  0  0  0  0
  1 21  1  0  0  0  0
  1  6  1  0  0  0  0
  4 22  1  0  0  0  0
  5 17  1  0  0  0  0
  6 23  1  0  0  0  0
  8  7  1  6  0  0  0
  8  2  1  0  0  0  0
  9 14  2  0  0  0  0
  9 13  1  0  0  0  0
 10 26  1  0  0  0  0
 10  8  1  0  0  0  0
 10 28  1  0  0  0  0
 12 25  1  0  0  0  0
 13 26  1  0  0  0  0
 14  8  1  0  0  0  0
 15 23  1  0  0  0  0
 15 11  2  0  0  0  0
 16  1  2  0  0  0  0
 17  3  2  0  0  0  0
 17 25  1  0  0  0  0
 18  9  1  0  0  0  0
 19 15  1  0  0  0  0
 20  4  2  0  0  0  0
 20 16  1  0  0  0  0
 22 21  2  0  0  0  0
 24  5  1  0  0  0  0
 24 12  1  0  0  0  0
 25 19  1  0  0  0  0
 26 24  1  0  0  0  0
 27  5  1  0  0  0  0
 28 16  1  0  0  0  0
 28 12  1  0  0  0  0
M  END
>  <MODEL>
5

>  <REMARK>
 VINA RESULT:      -4.8      2.591      4.854
  Name = 
  0 active torsions:
  status: ('A' for Active; 'I' for Inactive)
                            x       y       z     vdW  Elec       q    Type
                         _______ _______ _______ _____ _____    ______ ____

>  <TORSDO>
F 0

$$$$
=
 OpenBabel11122412013D

 28 32  0  0  1  0  0  0  0  0999 V2000
  182.7160  177.7800  137.4000 C   0  0  0  0  0  0  0  0  0  0  0  0
  182.8760  174.4480  138.0440 O   0  0  0  0  0  1  0  0  0  0  0  0
  188.7250  176.5870  136.5010 O   0  0  0  0  0  0  0  0  0  0  0  0
  181.5470  178.4160  134.9270 C   0  0  0  0  0  3  0  0  0  0  0  0
  187.2930  174.7310  136.7540 N   0  0  0  0  0  0  0  0  0  0  0  0
  183.4100  177.5030  139.0350 S   0  0  0  0  0  0  0  0  0  0  0  0
  181.3430  174.6580  136.2480 C   0  0  0  0  0  1  0  0  0  0  0  0
  182.6790  174.1010  136.7050 C   0  0  1  0  0  0  0  0  0  0  0  0
  183.6720  171.9080  136.4670 C   0  0  0  0  0  0  0  0  0  0  0  0
  183.8210  174.6600  135.8130 C   0  0  2  0  0  3  0  0  0  0  0  0
  186.8150  178.2530  139.5210 O   0  0  0  0  0  0  0  0  0  0  0  0
  185.3190  176.0060  137.2190 C   0  0  1  0  0  3  0  0  0  0  0  0
  184.9320  172.4890  136.2940 O   0  0  0  0  0  0  0  0  0  0  0  0
  182.6160  172.6470  136.6050 N   0  0  0  0  0  0  0  0  0  0  0  0
  186.0570  178.5790  138.6230 C   0  0  0  0  0  0  0  0  0  0  0  0
  183.1930  177.1600  136.2110 C   0  0  0  0  0  0  0  0  0  0  0  0
  187.5740  176.1130  136.6960 C   0  0  0  0  0  0  0  0  0  0  0  0
  183.5460  170.4930  136.4670 N   0  0  0  0  0  1  0  0  0  0  0  0
  186.4310  178.3320  137.1970 C   0  0  0  0  0  2  0  0  0  0  0  0
  182.5990  177.5030  134.9880 C   0  0  0  0  0  3  0  0  0  0  0  0
  181.6450  178.6800  137.3220 C   0  0  0  0  0  3  0  0  0  0  0  0
  181.0640  178.9990  136.0960 C   0  0  0  0  0  3  0  0  0  0  0  0
  184.4880  179.3490  139.0170 S   0  0  0  0  0  0  0  0  0  0  0  0
  185.8930  174.5700  137.1300 C   0  0  1  0  0  3  0  0  0  0  0  0
  186.4270  176.9030  136.9170 N   0  0  0  0  0  0  0  0  0  0  0  0
  185.1210  173.8760  136.0140 C   0  0  2  0  0  3  0  0  0  0  0  0
  188.2940  173.6820  136.8430 C   0  0  0  0  0  1  0  0  0  0  0  0
  184.2580  176.0900  136.1380 C   0  0  2  0  0  3  0  0  0  0  0  0
  1  6  1  0  0  0  0
  3 17  2  0  0  0  0
  4 20  2  0  0  0  0
  4 22  1  0  0  0  0
  5 27  1  0  0  0  0
  5 24  1  0  0  0  0
  8  7  1  6  0  0  0
  8  2  1  0  0  0  0
  9 18  1  0  0  0  0
  9 14  2  0  0  0  0
 10 26  1  0  0  0  0
 10 28  1  0  0  0  0
 10  8  1  0  0  0  0
 13  9  1  0  0  0  0
 14  8  1  0  0  0  0
 15 23  1  0  0  0  0
 15 11  2  0  0  0  0
 16  1  2  0  0  0  0
 17  5  1  0  0  0  0
 17 25  1  0  0  0  0
 19 15  1  0  0  0  0
 20 16  1  0  0  0  0
 21  1  1  0  0  0  0
 22 21  2  0  0  0  0
 23  6  1  0  0  0  0
 24 12  1  0  0  0  0
 25 19  1  0  0  0  0
 25 12  1  0  0  0  0
 26 13  1  0  0  0  0
 26 24  1  0  0  0  0
 28 16  1  0  0  0  0
 28 12  1  0  0  0  0
M  END
>  <MODEL>
6

>  <REMARK>
 VINA RESULT:      -4.8      3.531      6.126
  Name = 
  0 active torsions:
  status: ('A' for Active; 'I' for Inactive)
                            x       y       z     vdW  Elec       q    Type
                         _______ _______ _______ _____ _____    ______ ____

>  <TORSDO>
F 0

$$$$
=
 OpenBabel11122412013D

 28 32  0  0  1  0  0  0  0  0999 V2000
  181.6580  178.7200  137.5140 C   0  0  0  0  0  0  0  0  0  0  0  0
  180.7030  175.5910  138.4330 O   0  0  0  0  0  1  0  0  0  0  0  0
  186.9670  175.5680  137.0420 O   0  0  0  0  0  0  0  0  0  0  0  0
  180.8240  179.4660  134.9390 C   0  0  0  0  0  3  0  0  0  0  0  0
  185.0010  174.3080  137.3660 N   0  0  0  0  0  0  0  0  0  0  0  0
  182.1820  178.3890  139.2020 S   0  0  0  0  0  0  0  0  0  0  0  0
  179.3690  176.1170  136.5450 C   0  0  0  0  0  1  0  0  0  0  0  0
  180.4370  175.2030  137.1170 C   0  0  1  0  0  0  0  0  0  0  0  0
  180.6640  172.7940  137.1110 C   0  0  0  0  0  0  0  0  0  0  0  0
  181.7200  175.2760  136.2470 C   0  0  2  0  0  3  0  0  0  0  0  0
  185.6320  178.0370  139.8100 O   0  0  0  0  0  0  0  0  0  0  0  0
  183.5410  176.1900  137.6180 C   0  0  1  0  0  3  0  0  0  0  0  0
  182.0470  172.9170  136.9600 O   0  0  0  0  0  0  0  0  0  0  0  0
  179.9050  173.8450  137.1310 N   0  0  0  0  0  0  0  0  0  0  0  0
  185.0450  178.5060  138.8490 C   0  0  0  0  0  0  0  0  0  0  0  0
  181.9350  177.8700  136.4070 C   0  0  0  0  0  0  0  0  0  0  0  0
  185.7190  175.5120  137.2110 C   0  0  0  0  0  0  0  0  0  0  0  0
  180.0810  171.5030  137.2190 N   0  0  0  0  0  1  0  0  0  0  0  0
  185.3530  178.0190  137.4700 C   0  0  0  0  0  2  0  0  0  0  0  0
  181.5170  178.2710  135.1300 C   0  0  0  0  0  3  0  0  0  0  0  0
  180.9440  179.9070  137.3070 C   0  0  0  0  0  3  0  0  0  0  0  0
  180.5300  180.2800  136.0290 C   0  0  0  0  0  3  0  0  0  0  0  0
  183.8060  179.7760  139.0940 S   0  0  0  0  0  0  0  0  0  0  0  0
  183.6160  174.6440  137.6770 C   0  0  1  0  0  3  0  0  0  0  0  0
  184.8890  176.6470  137.3060 N   0  0  0  0  0  0  0  0  0  0  0  0
  182.6880  174.1360  136.5800 C   0  0  2  0  0  3  0  0  0  0  0  0
  185.6000  173.0040  137.5930 C   0  0  0  0  0  1  0  0  0  0  0  0
  182.5940  176.5110  136.4780 C   0  0  2  0  0  3  0  0  0  0  0  0
  1  6  1  0  0  0  0
  3 17  2  0  0  0  0
  4 20  2  0  0  0  0
  4 22  1  0  0  0  0
  5 27  1  0  0  0  0
  5 24  1  0  0  0  0
  8  7  1  6  0  0  0
  8 14  1  0  0  0  0
  8  2  1  0  0  0  0
  9 14  2  0  0  0  0
  9 18  1  0  0  0  0
 10 28  1  0  0  0  0
 10 26  1  0  0  0  0
 10  8  1  0  0  0  0
 12 24  1  0  0  0  0
 13  9  1  0  0  0  0
 15 23  1  0  0  0  0
 15 11  2  0  0  0  0
 16 28  1  0  0  0  0
 16  1  2  0  0  0  0
 17 25  1  0  0  0  0
 17  5  1  0  0  0  0
 19 15  1  0  0  0  0
 20 16  1  0  0  0  0
 21  1  1  0  0  0  0
 22 21  2  0  0  0  0
 23  6  1  0  0  0  0
 25 19  1  0  0  0  0
 25 12  1  0  0  0  0
 26 13  1  0  0  0  0
 26 24  1  0  0  0  0
 28 12  1  0  0  0  0
M  END
>  <MODEL>
7

>  <REMARK>
 VINA RESULT:      -4.7      3.088      5.766
  Name = 
  0 active torsions:
  status: ('A' for Active; 'I' for Inactive)
                            x       y       z     vdW  Elec       q    Type
                         _______ _______ _______ _____ _____    ______ ____

>  <TORSDO>
F 0

$$$$
=
 OpenBabel11122412013D

 28 32  0  0  1  0  0  0  0  0999 V2000
  181.0080  179.2850  140.5010 C   0  0  0  0  0  0  0  0  0  0  0  0
  180.7470  176.5090  138.5590 O   0  0  0  0  0  1  0  0  0  0  0  0
  186.8730  178.4120  138.7160 O   0  0  0  0  0  0  0  0  0  0  0  0
  180.0400  181.6280  139.2910 C   0  0  0  0  0  3  0  0  0  0  0  0
  185.2230  177.1170  137.6380 N   0  0  0  0  0  0  0  0  0  0  0  0
  181.5860  177.8450  141.4080 S   0  0  0  0  0  0  0  0  0  0  0  0
  179.3360  178.1160  137.5350 C   0  0  0  0  0  1  0  0  0  0  0  0
  180.5740  177.2520  137.3870 C   0  0  1  0  0  0  0  0  0  0  0  0
  181.3150  175.7960  135.6020 C   0  0  0  0  0  0  0  0  0  0  0  0
  181.8150  178.1420  137.1070 C   0  0  2  0  0  3  0  0  0  0  0  0
  185.0290  177.6200  142.1090 O   0  0  0  0  0  0  0  0  0  0  0  0
  183.3920  177.8920  138.9730 C   0  0  1  0  0  3  0  0  0  0  0  0
  182.6400  176.1740  135.8330 O   0  0  0  0  0  0  0  0  0  0  0  0
  180.3470  176.3280  136.2810 N   0  0  0  0  0  0  0  0  0  0  0  0
  184.3580  178.5750  141.7550 C   0  0  0  0  0  0  0  0  0  0  0  0
  181.4650  179.6530  139.2040 C   0  0  0  0  0  0  0  0  0  0  0  0
  185.6660  178.0790  138.5700 C   0  0  0  0  0  0  0  0  0  0  0  0
  181.0240  174.8340  134.5970 N   0  0  0  0  0  1  0  0  0  0  0  0
  184.7670  179.3820  140.5650 C   0  0  0  0  0  2  0  0  0  0  0  0
  180.9740  180.8330  138.6270 C   0  0  0  0  0  3  0  0  0  0  0  0
  180.0550  180.0850  141.1450 C   0  0  0  0  0  3  0  0  0  0  0  0
  179.5740  181.2490  140.5480 C   0  0  0  0  0  3  0  0  0  0  0  0
  182.8730  179.0060  142.6600 S   0  0  0  0  0  0  0  0  0  0  0  0
  183.7980  176.8990  137.8550 C   0  0  1  0  0  3  0  0  0  0  0  0
  184.6100  178.5980  139.3470 N   0  0  0  0  0  0  0  0  0  0  0  0
  183.0040  177.3090  136.6200 C   0  0  2  0  0  3  0  0  0  0  0  0
  186.0890  176.2150  136.8980 C   0  0  0  0  0  1  0  0  0  0  0  0
  182.4010  178.8450  138.3340 C   0  0  2  0  0  3  0  0  0  0  0  0
  1 21  1  0  0  0  0
  1  6  1  0  0  0  0
  4 22  1  0  0  0  0
  5 24  1  0  0  0  0
  5 17  1  0  0  0  0
  6 23  1  0  0  0  0
  8  7  1  1  0  0  0
  8  2  1  0  0  0  0
  9 13  1  0  0  0  0
  9 14  2  0  0  0  0
 10  8  1  0  0  0  0
 10 28  1  0  0  0  0
 12 25  1  0  0  0  0
 13 26  1  0  0  0  0
 14  8  1  0  0  0  0
 15 11  2  0  0  0  0
 15 23  1  0  0  0  0
 16  1  2  0  0  0  0
 17  3  2  0  0  0  0
 17 25  1  0  0  0  0
 18  9  1  0  0  0  0
 19 15  1  0  0  0  0
 20 16  1  0  0  0  0
 20  4  2  0  0  0  0
 22 21  2  0  0  0  0
 24 12  1  0  0  0  0
 25 19  1  0  0  0  0
 26 10  1  0  0  0  0
 26 24  1  0  0  0  0
 27  5  1  0  0  0  0
 28 12  1  0  0  0  0
 28 16  1  0  0  0  0
M  END
>  <MODEL>
8

>  <REMARK>
 VINA RESULT:      -4.7      2.766      5.177
  Name = 
  0 active torsions:
  status: ('A' for Active; 'I' for Inactive)
                            x       y       z     vdW  Elec       q    Type
                         _______ _______ _______ _____ _____    ______ ____

>  <TORSDO>
F 0

$$$$
=
 OpenBabel11122412013D

 28 32  0  0  1  0  0  0  0  0999 V2000
  188.2810  176.1270  136.5790 C   0  0  0  0  0  0  0  0  0  0  0  0
  189.2800  175.8410  139.8140 O   0  0  0  0  0  1  0  0  0  0  0  0
  184.1320  179.6580  139.5210 O   0  0  0  0  0  0  0  0  0  0  0  0
  189.9200  177.7840  135.0130 C   0  0  0  0  0  3  0  0  0  0  0  0
  185.9890  178.9230  140.7740 N   0  0  0  0  0  0  0  0  0  0  0  0
  187.2030  174.9870  137.4570 S   0  0  0  0  0  0  0  0  0  0  0  0
  191.1420  176.7600  138.6690 C   0  0  0  0  0  1  0  0  0  0  0  0
  190.0930  176.9760  139.7430 C   0  0  1  0  0  0  0  0  0  0  0  0
  190.2650  177.7720  142.0220 C   0  0  0  0  0  0  0  0  0  0  0  0
  189.2520  178.2400  139.4190 C   0  0  2  0  0  3  0  0  0  0  0  0
  183.8870  176.0030  138.0650 O   0  0  0  0  0  0  0  0  0  0  0  0
  186.9240  177.5540  139.0450 C   0  0  1  0  0  3  0  0  0  0  0  0
  189.0460  178.4430  141.8880 O   0  0  0  0  0  0  0  0  0  0  0  0
  190.7830  177.1340  141.0190 N   0  0  0  0  0  0  0  0  0  0  0  0
  184.7200  176.4510  137.2950 C   0  0  0  0  0  0  0  0  0  0  0  0
  188.5900  177.4420  137.0250 C   0  0  0  0  0  0  0  0  0  0  0  0
  185.2080  179.0080  139.6020 C   0  0  0  0  0  0  0  0  0  0  0  0
  190.9540  177.8090  143.2640 N   0  0  0  0  0  1  0  0  0  0  0  0
  185.0500  177.9090  137.3100 C   0  0  0  0  0  2  0  0  0  0  0  0
  189.4030  178.2530  136.2200 C   0  0  0  0  0  3  0  0  0  0  0  0
  188.8250  175.6650  135.3740 C   0  0  0  0  0  3  0  0  0  0  0  0
  189.6380  176.4860  134.5940 C   0  0  0  0  0  3  0  0  0  0  0  0
  185.5530  175.3570  136.1470 S   0  0  0  0  0  0  0  0  0  0  0  0
  187.0750  177.9810  140.5270 C   0  0  1  0  0  3  0  0  0  0  0  0
  185.7490  178.2530  138.5410 N   0  0  0  0  0  0  0  0  0  0  0  0
  188.4220  178.6850  140.6260 C   0  0  2  0  0  3  0  0  0  0  0  0
  185.5600  179.3530  142.0930 C   0  0  0  0  0  1  0  0  0  0  0  0
  188.1760  178.0480  138.3470 C   0  0  2  0  0  3  0  0  0  0  0  0
  1 16  1  0  0  0  0
  1  6  1  0  0  0  0
  3 17  2  0  0  0  0
  4 20  1  0  0  0  0
  5 27  1  0  0  0  0
  8  7  1  6  0  0  0
  8  2  1  0  0  0  0
  8 14  1  0  0  0  0
  9 18  1  0  0  0  0
 10  8  1  0  0  0  0
 10 26  1  0  0  0  0
 12 24  1  0  0  0  0
 13  9  1  0  0  0  0
 14  9  2  0  0  0  0
 15 19  1  0  0  0  0
 15 11  2  0  0  0  0
 16 28  1  0  0  0  0
 17  5  1  0  0  0  0
 19 25  1  0  0  0  0
 20 16  2  0  0  0  0
 21  1  2  0  0  0  0
 22  4  2  0  0  0  0
 22 21  1  0  0  0  0
 23 15  1  0  0  0  0
 23  6  1  0  0  0  0
 24 26  1  0  0  0  0
 24  5  1  0  0  0  0
 25 12  1  0  0  0  0
 25 17  1  0  0  0  0
 26 13  1  0  0  0  0
 28 12  1  0  0  0  0
 28 10  1  0  0  0  0
M  END
>  <MODEL>
9

>  <REMARK>
 VINA RESULT:      -4.7      4.000      6.316
  Name = 
  0 active torsions:
  status: ('A' for Active; 'I' for Inactive)
                            x       y       z     vdW  Elec       q    Type
                         _______ _______ _______ _____ _____    ______ ____

>  <TORSDO>
F 0

$$$$
