=
 OpenBabel11122410333D

 30 35  0  0  1  0  0  0  0  0999 V2000
  186.5380  178.2410  142.4030 C   0  0  2  0  0  3  0  0  0  0  0  0
  184.6480  179.1040  140.9290 C   0  0  0  0  0  0  0  0  0  0  0  0
  184.7090  179.4560  145.5830 O   0  0  0  0  0  0  0  0  0  0  0  0
  187.1350  178.4090  143.8190 C   0  0  2  0  0  3  0  0  0  0  0  0
  187.4510  178.6790  141.4330 O   0  0  0  0  0  0  0  0  0  0  0  0
  189.9960  179.2320  142.5740 O   0  0  0  0  0  1  0  0  0  0  0  0
  188.9570  177.2410  146.2070 C   0  0  1  0  0  3  0  0  0  0  0  0
  189.3520  177.9980  142.6830 C   0  0  2  0  0  3  0  0  0  0  0  0
  188.0530  178.3770  146.6720 C   0  0  2  0  0  3  0  0  0  0  0  0
  185.7160  179.3770  146.5230 C   0  0  0  0  0  0  0  0  0  0  0  0
  188.4800  177.7350  141.4570 C   0  0  2  0  0  3  0  0  0  0  0  0
  188.5590  177.9750  143.9260 N   0  0  2  0  0  0  0  0  0  0  0  0
  183.2460  178.7340  140.6980 C   0  0  0  0  0  3  0  0  0  0  0  0
  188.2130  178.2740  148.1690 C   0  0  0  0  0  2  0  0  0  0  0  0
  188.8190  176.1550  147.1610 N   0  0  0  0  0  2  0  0  0  0  0  0
  185.3280  179.5380  139.9630 O   0  0  0  0  0  0  0  0  0  0  0  0
  184.7520  178.3030  144.7650 C   0  0  2  0  0  3  0  0  0  0  0  0
  182.4770  178.3340  141.7070 C   0  0  0  0  0  3  0  0  0  0  0  0
  185.2450  179.0590  142.3230 C   0  0  1  0  0  3  0  0  0  0  0  0
  186.1940  177.7690  144.8840 C   0  0  2  0  0  3  0  0  0  0  0  0
  185.8570  180.2180  147.4500 O   0  0  0  0  0  0  0  0  0  0  0  0
  186.5620  178.1690  146.3310 C   0  0  1  0  0  3  0  0  0  0  0  0
  188.5430  176.8120  148.4370 C   0  0  0  0  0  2  0  0  0  0  0  0
  189.8730  176.0330  144.3670 O   0  0  0  0  0  1  0  0  0  0  0  0
  183.0100  178.2300  143.0740 C   0  0  0  0  0  3  0  0  0  0  0  0
  184.2750  178.5470  143.3680 C   0  0  0  0  0  0  0  0  0  0  0  0
  188.7570  176.7810  144.7640 C   0  0  1  0  0  3  0  0  0  0  0  0
  189.2990  177.7950  140.1760 C   0  0  0  0  0  2  0  0  0  0  0  0
  189.1350  178.7090  137.8830 C   0  0  0  0  0  1  0  0  0  0  0  0
  188.3890  177.9750  138.9750 C   0  0  0  0  0  2  0  0  0  0  0  0
  1  5  1  6  0  0  0
  1  4  1  0  0  0  0
  2 19  1  0  0  0  0
  3 10  1  0  0  0  0
  4 12  1  0  0  0  0
  4 20  1  0  0  0  0
  5 11  1  0  0  0  0
  6  8  1  0  0  0  0
  7  9  1  0  0  0  0
  7 15  1  0  0  0  0
  8 12  1  0  0  0  0
  9 14  1  0  0  0  0
 10 21  2  0  0  0  0
 11  8  1  0  0  0  0
 12 27  1  0  0  0  0
 13  2  1  0  0  0  0
 13 18  2  0  0  0  0
 14 23  1  0  0  0  0
 15 23  1  0  0  0  0
 16  2  2  0  0  0  0
 17 20  1  0  0  0  0
 17  3  1  0  0  0  0
 18 25  1  0  0  0  0
 19  1  1  0  0  0  0
 19 26  1  0  0  0  0
 20 22  1  0  0  0  0
 22 10  1  0  0  0  0
 22  9  1  0  0  0  0
 24 27  1  0  0  0  0
 25 26  2  0  0  0  0
 26 17  1  0  0  0  0
 27  7  1  0  0  0  0
 28 11  1  0  0  0  0
 29 30  1  0  0  0  0
 30 28  1  0  0  0  0
M  END
>  <MODEL>
1

>  <REMARK>
 VINA RESULT:      -8.4      0.000      0.000
  Name = 
  2 active torsions:
  status: ('A' for Active; 'I' for Inactive)
    1  A    between atoms: C_11  and  C_28
    2  A    between atoms: C_28  and  C_30
                            x       y       z     vdW  Elec       q    Type
                         _______ _______ _______ _____ _____    ______ ____

>  <TORSDO>
F 2

$$$$
=
 OpenBabel11122410333D

 30 35  0  0  1  0  0  0  0  0999 V2000
  187.4660  177.7810  140.0530 C   0  0  2  0  0  3  0  0  0  0  0  0
  186.5230  178.6460  142.2550 C   0  0  0  0  0  0  0  0  0  0  0  0
  191.0080  177.5400  141.5810 O   0  0  0  0  0  0  0  0  0  0  0  0
  188.8040  177.6200  139.2940 C   0  0  2  0  0  3  0  0  0  0  0  0
  186.6270  178.6770  139.3780 O   0  0  0  0  0  0  0  0  0  0  0  0
  187.6740  179.3650  136.8250 O   0  0  0  0  0  1  0  0  0  0  0  0
  190.5090  176.1730  136.9740 C   0  0  1  0  0  3  0  0  0  0  0  0
  187.4180  178.0520  137.2280 C   0  0  2  0  0  3  0  0  0  0  0  0
  191.3990  176.8960  137.9800 C   0  0  2  0  0  3  0  0  0  0  0  0
  191.7830  177.3840  140.4500 C   0  0  0  0  0  0  0  0  0  0  0  0
  186.2510  178.0070  138.2110 C   0  0  2  0  0  3  0  0  0  0  0  0
  188.6440  177.4800  137.8170 N   0  0  2  0  0  0  0  0  0  0  0  0
  186.2980  178.0830  143.5930 C   0  0  0  0  0  3  0  0  0  0  0  0
  192.7580  176.3680  137.5900 C   0  0  0  0  0  2  0  0  0  0  0  0
  191.0560  174.8420  136.7860 N   0  0  0  0  0  2  0  0  0  0  0  0
  185.7050  179.4890  141.8060 O   0  0  0  0  0  0  0  0  0  0  0  0
  189.8530  176.7340  141.4620 C   0  0  2  0  0  3  0  0  0  0  0  0
  187.1760  177.2390  144.1280 C   0  0  0  0  0  3  0  0  0  0  0  0
  187.7700  178.2950  141.4640 C   0  0  1  0  0  3  0  0  0  0  0  0
  189.6690  176.5000  139.9480 C   0  0  2  0  0  3  0  0  0  0  0  0
  192.9220  177.9060  140.3200 O   0  0  0  0  0  0  0  0  0  0  0  0
  191.1310  176.4990  139.4470 C   0  0  1  0  0  3  0  0  0  0  0  0
  192.4960  174.9970  136.9810 C   0  0  0  0  0  2  0  0  0  0  0  0
  188.3040  175.8150  136.1430 O   0  0  0  0  0  1  0  0  0  0  0  0
  188.3820  176.8290  143.3930 C   0  0  0  0  0  3  0  0  0  0  0  0
  188.6600  177.2950  142.1710 C   0  0  0  0  0  0  0  0  0  0  0  0
  189.0170  176.1530  137.2990 C   0  0  1  0  0  3  0  0  0  0  0  0
  185.0000  178.6310  137.6080 C   0  0  0  0  0  2  0  0  0  0  0  0
  183.3530  179.8350  139.0070 C   0  0  0  0  0  1  0  0  0  0  0  0
  183.8230  178.4710  138.5520 C   0  0  0  0  0  2  0  0  0  0  0  0
  1  5  1  6  0  0  0
  1 19  1  0  0  0  0
  2 13  1  0  0  0  0
  4 20  1  0  0  0  0
  4  1  1  0  0  0  0
  6  8  1  0  0  0  0
  7 27  1  0  0  0  0
  7  9  1  0  0  0  0
  8 12  1  0  0  0  0
  8 11  1  0  0  0  0
  9 22  1  0  0  0  0
 10  3  1  0  0  0  0
 11  5  1  0  0  0  0
 12  4  1  0  0  0  0
 13 18  2  0  0  0  0
 14  9  1  0  0  0  0
 15  7  1  0  0  0  0
 15 23  1  0  0  0  0
 16  2  2  0  0  0  0
 17  3  1  0  0  0  0
 17 26  1  0  0  0  0
 19 26  1  0  0  0  0
 19  2  1  0  0  0  0
 20 17  1  0  0  0  0
 21 10  2  0  0  0  0
 22 20  1  0  0  0  0
 22 10  1  0  0  0  0
 23 14  1  0  0  0  0
 24 27  1  0  0  0  0
 25 18  1  0  0  0  0
 26 25  2  0  0  0  0
 27 12  1  0  0  0  0
 28 11  1  0  0  0  0
 28 30  1  0  0  0  0
 30 29  1  0  0  0  0
M  END
>  <MODEL>
2

>  <REMARK>
 VINA RESULT:      -8.1      3.273      6.969
  Name = 
  2 active torsions:
  status: ('A' for Active; 'I' for Inactive)
    1  A    between atoms: C_11  and  C_28
    2  A    between atoms: C_28  and  C_30
                            x       y       z     vdW  Elec       q    Type
                         _______ _______ _______ _____ _____    ______ ____

>  <TORSDO>
F 2

$$$$
=
 OpenBabel11122410333D

 30 35  0  0  1  0  0  0  0  0999 V2000
  187.9630  177.7870  143.7450 C   0  0  2  0  0  3  0  0  0  0  0  0
  185.6940  178.8980  143.4220 C   0  0  0  0  0  0  0  0  0  0  0  0
  187.8370  178.4710  147.5470 O   0  0  0  0  0  0  0  0  0  0  0  0
  189.1370  177.7130  144.7490 C   0  0  2  0  0  3  0  0  0  0  0  0
  188.3850  178.3730  142.5440 O   0  0  0  0  0  0  0  0  0  0  0  0
  191.2080  178.7080  142.4830 O   0  0  0  0  0  1  0  0  0  0  0  0
  191.7250  176.1490  145.8630 C   0  0  1  0  0  3  0  0  0  0  0  0
  190.5790  177.4790  142.6900 C   0  0  2  0  0  3  0  0  0  0  0  0
  191.2180  177.1990  146.8450 C   0  0  2  0  0  3  0  0  0  0  0  0
  189.1460  178.2290  147.9110 C   0  0  0  0  0  0  0  0  0  0  0  0
  189.2370  177.4300  141.9650 C   0  0  2  0  0  3  0  0  0  0  0  0
  190.4200  177.2560  144.1390 N   0  0  2  0  0  0  0  0  0  0  0  0
  184.3090  178.5820  143.7970 C   0  0  0  0  0  3  0  0  0  0  0  0
  192.0140  176.8470  148.0770 C   0  0  0  0  0  2  0  0  0  0  0  0
  191.9360  174.9210  146.6080 N   0  0  0  0  0  2  0  0  0  0  0  0
  185.9090  179.4810  142.3280 O   0  0  0  0  0  0  0  0  0  0  0  0
  187.4190  177.4700  146.6400 C   0  0  2  0  0  3  0  0  0  0  0  0
  184.0370  178.0260  144.9740 C   0  0  0  0  0  3  0  0  0  0  0  0
  186.8400  178.6170  144.3760 C   0  0  1  0  0  3  0  0  0  0  0  0
  188.7160  176.9110  146.0180 C   0  0  2  0  0  3  0  0  0  0  0  0
  189.7510  178.9030  148.7860 O   0  0  0  0  0  0  0  0  0  0  0  0
  189.7180  177.0620  147.1850 C   0  0  1  0  0  3  0  0  0  0  0  0
  192.3080  175.3580  147.9520 C   0  0  0  0  0  2  0  0  0  0  0  0
  191.6300  175.2570  143.6540 O   0  0  0  0  0  1  0  0  0  0  0  0
  185.1090  177.6920  145.9230 C   0  0  0  0  0  3  0  0  0  0  0  0
  186.3940  177.9460  145.6590 C   0  0  0  0  0  0  0  0  0  0  0  0
  190.8710  175.9370  144.6150 C   0  0  1  0  0  3  0  0  0  0  0  0
  189.4060  177.6950  140.4760 C   0  0  0  0  0  2  0  0  0  0  0  0
  188.0340  177.8860  138.4260 C   0  0  0  0  0  1  0  0  0  0  0  0
  188.1230  178.2560  139.8900 C   0  0  0  0  0  2  0  0  0  0  0  0
  1  5  1  6  0  0  0
  1 19  1  0  0  0  0
  1  4  1  0  0  0  0
  2 13  1  0  0  0  0
  2 19  1  0  0  0  0
  3 10  1  0  0  0  0
  4 20  1  0  0  0  0
  6  8  1  0  0  0  0
  7 15  1  0  0  0  0
  7  9  1  0  0  0  0
  8 12  1  0  0  0  0
  9 22  1  0  0  0  0
  9 14  1  0  0  0  0
 10 21  2  0  0  0  0
 11  5  1  0  0  0  0
 11  8  1  0  0  0  0
 12 27  1  0  0  0  0
 12  4  1  0  0  0  0
 13 18  2  0  0  0  0
 15 23  1  0  0  0  0
 16  2  2  0  0  0  0
 17  3  1  0  0  0  0
 18 25  1  0  0  0  0
 19 26  1  0  0  0  0
 20 17  1  0  0  0  0
 20 22  1  0  0  0  0
 22 10  1  0  0  0  0
 23 14  1  0  0  0  0
 24 27  1  0  0  0  0
 26 25  2  0  0  0  0
 26 17  1  0  0  0  0
 27  7  1  0  0  0  0
 28 11  1  0  0  0  0
 29 30  1  0  0  0  0
 30 28  1  0  0  0  0
M  END
>  <MODEL>
3

>  <REMARK>
 VINA RESULT:      -7.6      1.974      2.856
  Name = 
  2 active torsions:
  status: ('A' for Active; 'I' for Inactive)
    1  A    between atoms: C_11  and  C_28
    2  A    between atoms: C_28  and  C_30
                            x       y       z     vdW  Elec       q    Type
                         _______ _______ _______ _____ _____    ______ ____

>  <TORSDO>
F 2

$$$$
=
 OpenBabel11122410333D

 30 35  0  0  1  0  0  0  0  0999 V2000
  185.6770  178.6370  139.7280 C   0  0  2  0  0  3  0  0  0  0  0  0
  186.7500  178.2870  137.4450 C   0  0  0  0  0  0  0  0  0  0  0  0
  188.6950  176.9760  141.4820 O   0  0  0  0  0  0  0  0  0  0  0  0
  185.7470  178.1220  141.1850 C   0  0  2  0  0  3  0  0  0  0  0  0
  184.4360  178.3210  139.1580 O   0  0  0  0  0  0  0  0  0  0  0  0
  182.6270  177.2980  141.0990 O   0  0  0  0  0  1  0  0  0  0  0  0
  185.1270  178.5880  144.3130 C   0  0  1  0  0  3  0  0  0  0  0  0
  183.2570  178.5400  141.2070 C   0  0  2  0  0  3  0  0  0  0  0  0
  186.1430  177.4740  144.0850 C   0  0  2  0  0  3  0  0  0  0  0  0
  188.1890  176.7600  142.7470 C   0  0  0  0  0  0  0  0  0  0  0  0
  183.5170  179.1350  139.8260 C   0  0  2  0  0  3  0  0  0  0  0  0
  184.5070  178.3830  141.9730 N   0  0  2  0  0  0  0  0  0  0  0  0
  187.9180  178.8320  136.7400 C   0  0  0  0  0  3  0  0  0  0  0  0
  186.6420  177.2500  145.4910 C   0  0  0  0  0  2  0  0  0  0  0  0
  185.6620  179.4610  145.3420 N   0  0  0  0  0  2  0  0  0  0  0  0
  185.7210  177.9970  136.7820 O   0  0  0  0  0  0  0  0  0  0  0  0
  188.3050  178.2630  141.0440 C   0  0  2  0  0  3  0  0  0  0  0  0
  189.0460  179.0880  137.3980 C   0  0  0  0  0  3  0  0  0  0  0  0
  186.8110  177.9840  138.9310 C   0  0  1  0  0  3  0  0  0  0  0  0
  187.0540  178.6180  141.8750 C   0  0  2  0  0  3  0  0  0  0  0  0
  188.4600  175.7360  143.4290 O   0  0  0  0  0  0  0  0  0  0  0  0
  187.3420  177.8930  143.2080 C   0  0  1  0  0  3  0  0  0  0  0  0
  186.4590  178.5860  146.1990 C   0  0  0  0  0  2  0  0  0  0  0  0
  183.5100  180.0540  143.3550 O   0  0  0  0  0  1  0  0  0  0  0  0
  189.1520  178.8550  138.8450 C   0  0  0  0  0  3  0  0  0  0  0  0
  188.1360  178.3610  139.5600 C   0  0  0  0  0  0  0  0  0  0  0  0
  184.6870  179.3530  143.0660 C   0  0  1  0  0  3  0  0  0  0  0  0
  182.2270  179.2610  139.0280 C   0  0  0  0  0  2  0  0  0  0  0  0
  181.2960  177.3580  137.7500 C   0  0  0  0  0  1  0  0  0  0  0  0
  182.3240  178.4680  137.7380 C   0  0  0  0  0  2  0  0  0  0  0  0
  1  5  1  6  0  0  0
  1  4  1  0  0  0  0
  2 19  1  0  0  0  0
  3 10  1  0  0  0  0
  4 20  1  0  0  0  0
  4 12  1  0  0  0  0
  5 11  1  0  0  0  0
  6  8  1  0  0  0  0
  7 15  1  0  0  0  0
  8 12  1  0  0  0  0
  9  7  1  0  0  0  0
  9 14  1  0  0  0  0
 10 22  1  0  0  0  0
 10 21  2  0  0  0  0
 11  8  1  0  0  0  0
 12 27  1  0  0  0  0
 13 18  2  0  0  0  0
 13  2  1  0  0  0  0
 14 23  1  0  0  0  0
 15 23  1  0  0  0  0
 16  2  2  0  0  0  0
 17  3  1  0  0  0  0
 17 20  1  0  0  0  0
 18 25  1  0  0  0  0
 19 26  1  0  0  0  0
 19  1  1  0  0  0  0
 20 22  1  0  0  0  0
 22  9  1  0  0  0  0
 25 26  2  0  0  0  0
 26 17  1  0  0  0  0
 27 24  1  0  0  0  0
 27  7  1  0  0  0  0
 28 11  1  0  0  0  0
 30 29  1  0  0  0  0
 30 28  1  0  0  0  0
M  END
>  <MODEL>
4

>  <REMARK>
 VINA RESULT:      -7.4      2.129      5.432
  Name = 
  2 active torsions:
  status: ('A' for Active; 'I' for Inactive)
    1  A    between atoms: C_11  and  C_28
    2  A    between atoms: C_28  and  C_30
                            x       y       z     vdW  Elec       q    Type
                         _______ _______ _______ _____ _____    ______ ____

>  <TORSDO>
F 2

$$$$
=
 OpenBabel11122410333D

 30 35  0  0  1  0  0  0  0  0999 V2000
  188.3010  177.8740  144.1760 C   0  0  2  0  0  3  0  0  0  0  0  0
  187.5910  177.9460  141.7310 C   0  0  0  0  0  0  0  0  0  0  0  0
  191.3740  175.7020  143.2950 O   0  0  0  0  0  0  0  0  0  0  0  0
  189.1840  177.0620  145.1520 C   0  0  2  0  0  3  0  0  0  0  0  0
  186.9500  177.7610  144.5320 O   0  0  0  0  0  0  0  0  0  0  0  0
  186.6380  176.4650  147.0440 O   0  0  0  0  0  1  0  0  0  0  0  0
  190.7920  176.8980  147.9400 C   0  0  1  0  0  3  0  0  0  0  0  0
  187.4070  177.6160  146.8570 C   0  0  2  0  0  3  0  0  0  0  0  0
  191.2040  175.7960  146.9690 C   0  0  2  0  0  3  0  0  0  0  0  0
  191.7590  175.2560  144.5430 C   0  0  0  0  0  0  0  0  0  0  0  0
  186.8330  178.4710  145.7300 C   0  0  2  0  0  3  0  0  0  0  0  0
  188.8020  177.2260  146.5850 N   0  0  2  0  0  0  0  0  0  0  0  0
  188.1190  178.5550  140.5040 C   0  0  0  0  0  3  0  0  0  0  0  0
  192.4310  175.2530  147.6590 C   0  0  0  0  0  2  0  0  0  0  0  0
  192.0070  177.5010  148.4560 N   0  0  0  0  0  2  0  0  0  0  0  0
  186.3440  177.8660  141.8810 O   0  0  0  0  0  0  0  0  0  0  0  0
  191.0390  177.0730  143.3790 C   0  0  2  0  0  3  0  0  0  0  0  0
  189.4290  178.5990  140.2790 C   0  0  0  0  0  3  0  0  0  0  0  0
  188.5240  177.3350  142.7590 C   0  0  1  0  0  3  0  0  0  0  0  0
  190.6930  177.3210  144.8620 C   0  0  2  0  0  3  0  0  0  0  0  0
  192.2070  174.0980  144.7490 O   0  0  0  0  0  0  0  0  0  0  0  0
  191.6240  176.3170  145.5780 C   0  0  1  0  0  3  0  0  0  0  0  0
  192.9880  176.4190  148.4640 C   0  0  0  0  0  2  0  0  0  0  0  0
  189.2390  178.6280  148.4660 O   0  0  0  0  0  1  0  0  0  0  0  0
  190.3860  178.0610  141.2580 C   0  0  0  0  0  3  0  0  0  0  0  0
  189.9870  177.4910  142.4000 C   0  0  0  0  0  0  0  0  0  0  0  0
  189.8100  177.9330  147.3940 C   0  0  1  0  0  3  0  0  0  0  0  0
  185.3820  178.8400  146.0020 C   0  0  0  0  0  2  0  0  0  0  0  0
  183.2700  178.9700  144.7190 C   0  0  0  0  0  1  0  0  0  0  0  0
  184.7280  179.3750  144.7410 C   0  0  0  0  0  2  0  0  0  0  0  0
  1  5  1  1  0  0  0
  1  4  1  0  0  0  0
  2 16  2  0  0  0  0
  2 19  1  0  0  0  0
  3 17  1  0  0  0  0
  3 10  1  0  0  0  0
  4 12  1  0  0  0  0
  5 11  1  0  0  0  0
  7 15  1  0  0  0  0
  8  6  1  0  0  0  0
  9 14  1  0  0  0  0
  9  7  1  0  0  0  0
 10 21  2  0  0  0  0
 10 22  1  0  0  0  0
 11 28  1  0  0  0  0
 11  8  1  0  0  0  0
 12  8  1  0  0  0  0
 12 27  1  0  0  0  0
 13  2  1  0  0  0  0
 14 23  1  0  0  0  0
 15 23  1  0  0  0  0
 17 20  1  0  0  0  0
 18 13  2  0  0  0  0
 18 25  1  0  0  0  0
 19  1  1  0  0  0  0
 20  4  1  0  0  0  0
 20 22  1  0  0  0  0
 22  9  1  0  0  0  0
 25 26  2  0  0  0  0
 26 19  1  0  0  0  0
 26 17  1  0  0  0  0
 27  7  1  0  0  0  0
 27 24  1  0  0  0  0
 29 30  1  0  0  0  0
 30 28  1  0  0  0  0
M  END
>  <MODEL>
5

>  <REMARK>
 VINA RESULT:      -7.3      2.354      5.507
  Name = 
  2 active torsions:
  status: ('A' for Active; 'I' for Inactive)
    1  A    between atoms: C_11  and  C_28
    2  A    between atoms: C_28  and  C_30
                            x       y       z     vdW  Elec       q    Type
                         _______ _______ _______ _____ _____    ______ ____

>  <TORSDO>
F 2

$$$$
=
 OpenBabel11122410333D

 30 35  0  0  1  0  0  0  0  0999 V2000
  188.3820  177.3110  139.2060 C   0  0  2  0  0  3  0  0  0  0  0  0
  188.3550  178.2700  141.5660 C   0  0  0  0  0  0  0  0  0  0  0  0
  192.2180  176.8590  139.3560 O   0  0  0  0  0  0  0  0  0  0  0  0
  189.3410  177.0510  138.0210 C   0  0  2  0  0  3  0  0  0  0  0  0
  187.4070  178.2510  138.8470 O   0  0  0  0  0  0  0  0  0  0  0  0
  187.4910  178.8300  136.0640 O   0  0  0  0  0  1  0  0  0  0  0  0
  190.0010  175.4600  135.2970 C   0  0  1  0  0  3  0  0  0  0  0  0
  187.3260  177.5430  136.5820 C   0  0  2  0  0  3  0  0  0  0  0  0
  191.2350  176.1370  135.8850 C   0  0  2  0  0  3  0  0  0  0  0  0
  192.5180  176.6350  138.0280 C   0  0  0  0  0  0  0  0  0  0  0  0
  186.5950  177.5910  137.9220 C   0  0  2  0  0  3  0  0  0  0  0  0
  188.6470  176.9000  136.7090 N   0  0  2  0  0  0  0  0  0  0  0  0
  188.6010  177.7430  142.9140 C   0  0  0  0  0  3  0  0  0  0  0  0
  192.3260  175.5140  135.0500 C   0  0  0  0  0  2  0  0  0  0  0  0
  190.3650  174.0930  134.9750 N   0  0  0  0  0  2  0  0  0  0  0  0
  187.4780  179.1590  141.4110 O   0  0  0  0  0  0  0  0  0  0  0  0
  191.0550  176.1290  139.6940 C   0  0  2  0  0  3  0  0  0  0  0  0
  189.5640  176.8510  143.1270 C   0  0  0  0  0  3  0  0  0  0  0  0
  189.2070  177.8260  140.3910 C   0  0  1  0  0  3  0  0  0  0  0  0
  190.3200  175.8860  138.3590 C   0  0  2  0  0  3  0  0  0  0  0  0
  193.5590  177.0780  137.4750 O   0  0  0  0  0  0  0  0  0  0  0  0
  191.4970  175.7800  137.3640 C   0  0  1  0  0  3  0  0  0  0  0  0
  191.7840  174.1550  134.6290 C   0  0  0  0  0  2  0  0  0  0  0  0
  187.6280  175.2360  135.3360 O   0  0  0  0  0  1  0  0  0  0  0  0
  190.3950  176.3510  142.0220 C   0  0  0  0  0  3  0  0  0  0  0  0
  190.2350  176.7790  140.7650 C   0  0  0  0  0  0  0  0  0  0  0  0
  188.7300  175.5440  136.1420 C   0  0  1  0  0  3  0  0  0  0  0  0
  185.2480  178.2870  137.7900 C   0  0  0  0  0  2  0  0  0  0  0  0
  183.6940  179.7390  139.0540 C   0  0  0  0  0  1  0  0  0  0  0  0
  184.6740  178.5910  139.1610 C   0  0  0  0  0  2  0  0  0  0  0  0
  1  5  1  6  0  0  0
  1 19  1  0  0  0  0
  2 13  1  0  0  0  0
  3 17  1  0  0  0  0
  4 20  1  0  0  0  0
  4  1  1  0  0  0  0
  6  8  1  0  0  0  0
  7  9  1  0  0  0  0
  7 27  1  0  0  0  0
  8 12  1  0  0  0  0
  8 11  1  0  0  0  0
  9 22  1  0  0  0  0
 10  3  1  0  0  0  0
 11  5  1  0  0  0  0
 12  4  1  0  0  0  0
 13 18  2  0  0  0  0
 14  9  1  0  0  0  0
 15  7  1  0  0  0  0
 16  2  2  0  0  0  0
 17 26  1  0  0  0  0
 19 26  1  0  0  0  0
 19  2  1  0  0  0  0
 20 17  1  0  0  0  0
 21 10  2  0  0  0  0
 22 10  1  0  0  0  0
 22 20  1  0  0  0  0
 23 15  1  0  0  0  0
 23 14  1  0  0  0  0
 24 27  1  0  0  0  0
 25 18  1  0  0  0  0
 26 25  2  0  0  0  0
 27 12  1  0  0  0  0
 28 11  1  0  0  0  0
 28 30  1  0  0  0  0
 29 30  1  0  0  0  0
M  END
>  <MODEL>
6

>  <REMARK>
 VINA RESULT:      -7.0      4.072      8.455
  Name = 
  2 active torsions:
  status: ('A' for Active; 'I' for Inactive)
    1  A    between atoms: C_11  and  C_28
    2  A    between atoms: C_28  and  C_30
                            x       y       z     vdW  Elec       q    Type
                         _______ _______ _______ _____ _____    ______ ____

>  <TORSDO>
F 2

$$$$
=
 OpenBabel11122410333D

 30 35  0  0  1  0  0  0  0  0999 V2000
  187.6250  177.8320  143.4120 C   0  0  2  0  0  3  0  0  0  0  0  0
  186.1360  177.8720  145.4770 C   0  0  0  0  0  0  0  0  0  0  0  0
  184.5510  178.1980  141.0990 O   0  0  0  0  0  0  0  0  0  0  0  0
  187.5660  177.5820  141.8870 C   0  0  2  0  0  3  0  0  0  0  0  0
  188.4120  176.8550  144.0360 O   0  0  0  0  0  0  0  0  0  0  0  0
  189.7670  175.2340  142.1320 O   0  0  0  0  0  1  0  0  0  0  0  0
  188.8820  177.9650  138.9700 C   0  0  1  0  0  3  0  0  0  0  0  0
  189.8830  176.6250  142.1870 C   0  0  2  0  0  3  0  0  0  0  0  0
  187.4200  177.5370  138.8930 C   0  0  2  0  0  3  0  0  0  0  0  0
  185.0940  177.8780  139.8710 C   0  0  0  0  0  0  0  0  0  0  0  0
  189.7180  177.1240  143.6200 C   0  0  2  0  0  3  0  0  0  0  0  0
  188.8850  177.2280  141.2850 N   0  0  2  0  0  0  0  0  0  0  0  0
  185.3010  178.8760  146.1490 C   0  0  0  0  0  3  0  0  0  0  0  0
  187.1360  177.7530  137.4270 C   0  0  0  0  0  2  0  0  0  0  0  0
  189.0550  179.0870  138.0660 N   0  0  0  0  0  2  0  0  0  0  0  0
  186.7400  177.0180  146.1770 O   0  0  0  0  0  0  0  0  0  0  0  0
  185.4530  179.0350  141.7960 C   0  0  2  0  0  3  0  0  0  0  0  0
  184.5950  179.7530  145.4400 C   0  0  0  0  0  3  0  0  0  0  0  0
  186.1960  177.7980  143.9630 C   0  0  1  0  0  3  0  0  0  0  0  0
  186.8360  178.7590  141.1710 C   0  0  2  0  0  3  0  0  0  0  0  0
  184.4690  177.2250  138.9940 O   0  0  0  0  0  0  0  0  0  0  0  0
  186.4640  178.4340  139.7070 C   0  0  1  0  0  3  0  0  0  0  0  0
  188.0930  178.8550  136.9920 C   0  0  0  0  0  2  0  0  0  0  0  0
  190.8180  178.2530  140.3310 O   0  0  0  0  0  1  0  0  0  0  0  0
  184.6460  179.7580  143.9700 C   0  0  0  0  0  3  0  0  0  0  0  0
  185.3810  178.8780  143.2830 C   0  0  0  0  0  0  0  0  0  0  0  0
  189.4180  178.2530  140.3710 C   0  0  1  0  0  3  0  0  0  0  0  0
  190.7280  176.4700  144.5510 C   0  0  0  0  0  2  0  0  0  0  0  0
  191.6280  176.3920  146.8540 C   0  0  0  0  0  1  0  0  0  0  0  0
  190.6490  177.0890  145.9350 C   0  0  0  0  0  2  0  0  0  0  0  0
  1 19  1  0  0  0  0
  1  5  1  1  0  0  0
  2 13  1  0  0  0  0
  2 16  2  0  0  0  0
  3 17  1  0  0  0  0
  4  1  1  0  0  0  0
  6  8  1  0  0  0  0
  7 27  1  0  0  0  0
  8 11  1  0  0  0  0
  9  7  1  0  0  0  0
  9 22  1  0  0  0  0
 10  3  1  0  0  0  0
 11  5  1  0  0  0  0
 11 28  1  0  0  0  0
 12  4  1  0  0  0  0
 12  8  1  0  0  0  0
 14  9  1  0  0  0  0
 15  7  1  0  0  0  0
 17 26  1  0  0  0  0
 18 13  2  0  0  0  0
 19  2  1  0  0  0  0
 20 17  1  0  0  0  0
 20  4  1  0  0  0  0
 21 10  2  0  0  0  0
 22 10  1  0  0  0  0
 22 20  1  0  0  0  0
 23 14  1  0  0  0  0
 23 15  1  0  0  0  0
 24 27  1  0  0  0  0
 25 18  1  0  0  0  0
 26 19  1  0  0  0  0
 26 25  2  0  0  0  0
 27 12  1  0  0  0  0
 28 30  1  0  0  0  0
 30 29  1  0  0  0  0
M  END
>  <MODEL>
7

>  <REMARK>
 VINA RESULT:      -6.8      2.286      6.001
  Name = 
  2 active torsions:
  status: ('A' for Active; 'I' for Inactive)
    1  A    between atoms: C_11  and  C_28
    2  A    between atoms: C_28  and  C_30
                            x       y       z     vdW  Elec       q    Type
                         _______ _______ _______ _____ _____    ______ ____

>  <TORSDO>
F 2

$$$$
=
 OpenBabel11122410333D

 30 35  0  0  1  0  0  0  0  0999 V2000
  187.0280  178.1820  142.3840 C   0  0  2  0  0  3  0  0  0  0  0  0
  185.7210  178.0910  144.5680 C   0  0  0  0  0  0  0  0  0  0  0  0
  183.8000  177.5930  140.3430 O   0  0  0  0  0  0  0  0  0  0  0  0
  186.9230  177.7680  140.8970 C   0  0  2  0  0  3  0  0  0  0  0  0
  188.0660  177.4800  143.0130 O   0  0  0  0  0  0  0  0  0  0  0  0
  189.6290  176.0260  141.1350 O   0  0  0  0  0  1  0  0  0  0  0  0
  187.9020  178.1400  137.8500 C   0  0  1  0  0  3  0  0  0  0  0  0
  189.4160  177.4040  141.0610 C   0  0  2  0  0  3  0  0  0  0  0  0
  186.5820  177.3820  137.9440 C   0  0  2  0  0  3  0  0  0  0  0  0
  184.3160  177.2800  139.1010 C   0  0  0  0  0  0  0  0  0  0  0  0
  189.2390  177.9980  142.4560 C   0  0  2  0  0  3  0  0  0  0  0  0
  188.2430  177.6670  140.2080 N   0  0  2  0  0  0  0  0  0  0  0  0
  184.7210  178.9410  145.2270 C   0  0  0  0  0  3  0  0  0  0  0  0
  186.1530  177.3750  136.4980 C   0  0  0  0  0  2  0  0  0  0  0  0
  187.7410  179.1730  136.8430 N   0  0  0  0  0  2  0  0  0  0  0  0
  186.5580  177.4760  145.2780 O   0  0  0  0  0  0  0  0  0  0  0  0
  184.5250  178.6810  140.8810 C   0  0  2  0  0  3  0  0  0  0  0  0
  183.7800  179.5550  144.5150 C   0  0  0  0  0  3  0  0  0  0  0  0
  185.6910  177.8780  143.0660 C   0  0  1  0  0  3  0  0  0  0  0  0
  185.8870  178.6660  140.1560 C   0  0  2  0  0  3  0  0  0  0  0  0
  183.8030  176.4150  138.3440 O   0  0  0  0  0  0  0  0  0  0  0  0
  185.5000  178.1160  138.7650 C   0  0  1  0  0  3  0  0  0  0  0  0
  186.7880  178.6160  135.8850 C   0  0  0  0  0  2  0  0  0  0  0  0
  189.8060  179.0030  138.9970 O   0  0  0  0  0  1  0  0  0  0  0  0
  183.7240  179.4200  143.0520 C   0  0  0  0  0  3  0  0  0  0  0  0
  184.5970  178.6660  142.3760 C   0  0  0  0  0  0  0  0  0  0  0  0
  188.4520  178.6860  139.1660 C   0  0  1  0  0  3  0  0  0  0  0  0
  190.4380  177.6920  143.3410 C   0  0  0  0  0  2  0  0  0  0  0  0
  190.2810  177.1280  145.7460 C   0  0  0  0  0  1  0  0  0  0  0  0
  190.2220  178.2530  144.7350 C   0  0  0  0  0  2  0  0  0  0  0  0
  1  5  1  1  0  0  0
  1 19  1  0  0  0  0
  2 13  1  0  0  0  0
  2 16  2  0  0  0  0
  3 17  1  0  0  0  0
  4  1  1  0  0  0  0
  7  9  1  0  0  0  0
  7 27  1  0  0  0  0
  8  6  1  0  0  0  0
  8 11  1  0  0  0  0
  9 22  1  0  0  0  0
 10  3  1  0  0  0  0
 11  5  1  0  0  0  0
 11 28  1  0  0  0  0
 12  4  1  0  0  0  0
 12  8  1  0  0  0  0
 14  9  1  0  0  0  0
 15  7  1  0  0  0  0
 17 26  1  0  0  0  0
 18 13  2  0  0  0  0
 19  2  1  0  0  0  0
 20 17  1  0  0  0  0
 20  4  1  0  0  0  0
 21 10  2  0  0  0  0
 22 10  1  0  0  0  0
 22 20  1  0  0  0  0
 23 14  1  0  0  0  0
 23 15  1  0  0  0  0
 24 27  1  0  0  0  0
 25 18  1  0  0  0  0
 26 25  2  0  0  0  0
 26 19  1  0  0  0  0
 27 12  1  0  0  0  0
 28 30  1  0  0  0  0
 30 29  1  0  0  0  0
M  END
>  <MODEL>
8

>  <REMARK>
 VINA RESULT:      -6.8      2.464      6.282
  Name = 
  2 active torsions:
  status: ('A' for Active; 'I' for Inactive)
    1  A    between atoms: C_11  and  C_28
    2  A    between atoms: C_28  and  C_30
                            x       y       z     vdW  Elec       q    Type
                         _______ _______ _______ _____ _____    ______ ____

>  <TORSDO>
F 2

$$$$
=
 OpenBabel11122410333D

 30 35  0  0  1  0  0  0  0  0999 V2000
  188.2970  177.9000  140.7750 C   0  0  2  0  0  3  0  0  0  0  0  0
  185.8500  178.4690  141.1980 C   0  0  0  0  0  0  0  0  0  0  0  0
  187.3810  176.0830  137.4890 O   0  0  0  0  0  0  0  0  0  0  0  0
  189.1860  176.9300  139.9620 C   0  0  2  0  0  3  0  0  0  0  0  0
  188.4460  177.6630  142.1490 O   0  0  0  0  0  0  0  0  0  0  0  0
  190.5710  175.8470  142.6690 O   0  0  0  0  0  1  0  0  0  0  0  0
  192.0600  176.2300  138.6840 C   0  0  1  0  0  3  0  0  0  0  0  0
  190.7290  177.0390  141.9580 C   0  0  2  0  0  3  0  0  0  0  0  0
  190.9410  175.3790  138.0920 C   0  0  2  0  0  3  0  0  0  0  0  0
  188.5470  175.3940  137.2250 C   0  0  0  0  0  0  0  0  0  0  0  0
  189.7410  178.0940  142.4490 C   0  0  2  0  0  3  0  0  0  0  0  0
  190.5610  176.7680  140.5180 N   0  0  2  0  0  0  0  0  0  0  0  0
  184.8550  179.3470  140.5700 C   0  0  0  0  0  3  0  0  0  0  0  0
  191.6530  174.7460  136.9220 C   0  0  0  0  0  2  0  0  0  0  0  0
  192.8420  176.7530  137.5780 N   0  0  0  0  0  2  0  0  0  0  0  0
  185.8200  178.3120  142.4460 O   0  0  0  0  0  0  0  0  0  0  0  0
  187.7060  177.3910  137.9170 C   0  0  2  0  0  3  0  0  0  0  0  0
  184.8130  179.4860  139.2480 C   0  0  0  0  0  3  0  0  0  0  0  0
  186.8390  177.6860  140.3540 C   0  0  1  0  0  3  0  0  0  0  0  0
  189.1520  177.3010  138.4490 C   0  0  2  0  0  3  0  0  0  0  0  0
  188.5620  174.2360  136.7310 O   0  0  0  0  0  0  0  0  0  0  0  0
  189.7540  176.2020  137.5460 C   0  0  1  0  0  3  0  0  0  0  0  0
  192.7480  175.7310  136.5370 C   0  0  0  0  0  2  0  0  0  0  0  0
  192.7340  177.7480  140.3940 O   0  0  0  0  0  1  0  0  0  0  0  0
  185.7720  178.7860  138.3800 C   0  0  0  0  0  3  0  0  0  0  0  0
  186.7090  177.9700  138.8720 C   0  0  0  0  0  0  0  0  0  0  0  0
  191.6210  177.3220  139.6580 C   0  0  1  0  0  3  0  0  0  0  0  0
  189.8960  178.3420  143.9420 C   0  0  0  0  0  2  0  0  0  0  0  0
  189.1090  177.2720  146.0300 C   0  0  0  0  0  1  0  0  0  0  0  0
  188.6790  177.8320  144.6920 C   0  0  0  0  0  2  0  0  0  0  0  0
  1  5  1  1  0  0  0
  2 16  2  0  0  0  0
  3 17  1  0  0  0  0
  4 12  1  0  0  0  0
  4  1  1  0  0  0  0
  5 11  1  0  0  0  0
  7 27  1  0  0  0  0
  8 11  1  0  0  0  0
  8  6  1  0  0  0  0
  9  7  1  0  0  0  0
 10  3  1  0  0  0  0
 10 22  1  0  0  0  0
 11 28  1  0  0  0  0
 12  8  1  0  0  0  0
 13  2  1  0  0  0  0
 14  9  1  0  0  0  0
 15  7  1  0  0  0  0
 17 20  1  0  0  0  0
 17 26  1  0  0  0  0
 18 13  2  0  0  0  0
 19  1  1  0  0  0  0
 19  2  1  0  0  0  0
 20  4  1  0  0  0  0
 21 10  2  0  0  0  0
 22  9  1  0  0  0  0
 22 20  1  0  0  0  0
 23 14  1  0  0  0  0
 23 15  1  0  0  0  0
 25 26  2  0  0  0  0
 25 18  1  0  0  0  0
 26 19  1  0  0  0  0
 27 24  1  0  0  0  0
 27 12  1  0  0  0  0
 28 30  1  0  0  0  0
 30 29  1  0  0  0  0
M  END
>  <MODEL>
9

>  <REMARK>
 VINA RESULT:      -6.6      3.120      6.978
  Name = 
  2 active torsions:
  status: ('A' for Active; 'I' for Inactive)
    1  A    between atoms: C_11  and  C_28
    2  A    between atoms: C_28  and  C_30
                            x       y       z     vdW  Elec       q    Type
                         _______ _______ _______ _____ _____    ______ ____

>  <TORSDO>
F 2

$$$$
