=
 OpenBabel11122411063D

 31 35  0  0  1  0  0  0  0  0999 V2000
  190.1300  175.9960  142.8330 C   0  0  0  0  0  0  0  0  0  0  0  0
  186.5500  177.1650  143.3840 C   0  0  2  0  0  3  0  0  0  0  0  0
  186.5440  177.9220  144.7080 C   0  0  0  0  0  0  0  0  0  0  0  0
  187.5430  178.3310  146.8920 C   0  0  0  0  0  0  0  0  0  0  0  0
  187.9290  177.0260  142.7770 C   0  0  0  0  0  0  0  0  0  0  0  0
  190.5290  176.7780  141.7490 C   0  0  0  0  0  3  0  0  0  0  0  0
  187.5720  177.7100  145.6410 C   0  0  0  0  0  3  0  0  0  0  0  0
  186.1050  179.0050  141.7120 C   0  0  2  0  0  3  0  0  0  0  0  0
  190.9990  175.1210  143.3940 F   0  0  0  0  0  0  0  0  0  0  0  0
  184.3120  179.0190  144.1410 C   0  0  0  0  0  2  0  0  0  0  0  0
  188.5510  178.1250  147.7720 F   0  0  0  0  0  0  0  0  0  0  0  0
  187.3680  178.6780  140.9190 C   0  0  0  0  0  2  0  0  0  0  0  0
  185.5460  177.7320  142.3650 C   0  0  2  0  0  3  0  0  0  0  0  0
  188.8350  176.1170  143.3420 C   0  0  0  0  0  3  0  0  0  0  0  0
  186.4730  179.1550  147.2360 C   0  0  0  0  0  3  0  0  0  0  0  0
  188.3350  177.8100  141.6730 C   0  0  0  0  0  0  0  0  0  0  0  0
  189.6310  177.6730  141.1640 C   0  0  0  0  0  3  0  0  0  0  0  0
  184.1940  177.9670  143.0410 C   0  0  0  0  0  2  0  0  0  0  0  0
  185.4430  178.7310  145.0820 C   0  0  0  0  0  0  0  0  0  0  0  0
  185.4280  179.3550  146.3330 C   0  0  0  0  0  3  0  0  0  0  0  0
  184.7000  177.6200  139.6430 O   0  0  0  0  0  0  0  0  0  0  0  0
  184.4470  178.8430  139.8010 C   0  0  0  0  0  0  0  0  0  0  0  0
  185.1150  179.5930  140.8220 N   0  0  0  0  0  2  0  0  0  0  0  0
  181.0650  178.0800  139.4950 C   0  0  0  0  0  0  0  0  0  0  0  0
  182.3610  180.2290  139.6490 C   0  0  0  0  0  2  0  0  0  0  0  0
  183.8620  177.8070  137.0340 C   0  0  0  0  0  1  0  0  0  0  0  0
  180.0660  177.3770  139.7970 O   0  0  0  0  0  0  0  0  0  0  0  0
  181.4300  179.2480  140.3640 C   0  0  0  0  0  2  0  0  0  0  0  0
  182.8330  178.5810  137.8390 C   0  0  2  0  0  3  0  0  0  0  0  0
  183.4700  179.5160  138.8770 C   0  0  2  0  0  3  0  0  0  0  0  0
  181.8810  177.6950  138.4260 O   0  0  0  0  0  0  0  0  0  0  0  0
  1 14  1  0  0  0  0
  1  9  1  0  0  0  0
  2  5  1  6  0  0  0
  2  3  1  0  0  0  0
  3 19  2  0  0  0  0
  3  7  1  0  0  0  0
  4 15  1  0  0  0  0
  4 11  1  0  0  0  0
  5 14  2  0  0  0  0
  6  1  2  0  0  0  0
  7  4  2  0  0  0  0
  8 23  1  6  0  0  0
  8 13  1  0  0  0  0
 10 19  1  0  0  0  0
 12 16  1  0  0  0  0
 12  8  1  0  0  0  0
 13 18  1  1  0  0  0
 13  2  1  0  0  0  0
 16  5  1  0  0  0  0
 17 16  2  0  0  0  0
 17  6  1  0  0  0  0
 18 10  1  0  0  0  0
 19 20  1  0  0  0  0
 20 15  2  0  0  0  0
 21 22  2  0  0  0  0
 22 23  1  0  0  0  0
 24 27  2  0  0  0  0
 24 28  1  0  0  0  0
 25 28  1  0  0  0  0
 29 26  1  1  0  0  0
 29 31  1  0  0  0  0
 29 30  1  0  0  0  0
 30 25  1  0  0  0  0
 30 22  1  1  0  0  0
 31 24  1  0  0  0  0
M  END
>  <MODEL>
1

>  <REMARK>
 VINA RESULT:      -9.3      0.000      0.000
  Name = 
  2 active torsions:
  status: ('A' for Active; 'I' for Inactive)
    1  A    between atoms: C_5  and  C_30
    2  A    between atoms: C_10  and  N_16
                            x       y       z     vdW  Elec       q    Type
                         _______ _______ _______ _____ _____    ______ ____

>  <TORSDO>
F 2

$$$$
=
 OpenBabel11122411063D

 31 35  0  0  1  0  0  0  0  0999 V2000
  191.2820  176.7140  145.0160 C   0  0  0  0  0  0  0  0  0  0  0  0
  187.6580  177.0790  143.9100 C   0  0  2  0  0  3  0  0  0  0  0  0
  186.9530  177.8740  145.0030 C   0  0  0  0  0  0  0  0  0  0  0  0
  186.8390  178.5930  147.3280 C   0  0  0  0  0  0  0  0  0  0  0  0
  189.1640  177.2240  143.9370 C   0  0  0  0  0  0  0  0  0  0  0  0
  191.9520  177.5170  144.0910 C   0  0  0  0  0  3  0  0  0  0  0  0
  187.5080  177.9390  146.2920 C   0  0  0  0  0  3  0  0  0  0  0  0
  187.6340  178.6960  141.9700 C   0  0  2  0  0  3  0  0  0  0  0  0
  191.9750  176.0820  145.9920 F   0  0  0  0  0  0  0  0  0  0  0  0
  185.0120  178.4190  143.4400 C   0  0  0  0  0  2  0  0  0  0  0  0
  187.3980  178.6570  148.5600 F   0  0  0  0  0  0  0  0  0  0  0  0
  189.1500  178.6240  141.8070 C   0  0  0  0  0  2  0  0  0  0  0  0
  187.0950  177.3620  142.5050 C   0  0  2  0  0  3  0  0  0  0  0  0
  189.8950  176.5670  144.9370 C   0  0  0  0  0  3  0  0  0  0  0  0
  185.5920  179.1730  147.0970 C   0  0  0  0  0  3  0  0  0  0  0  0
  189.8480  178.0280  142.9960 C   0  0  0  0  0  0  0  0  0  0  0  0
  191.2380  178.1610  143.0790 C   0  0  0  0  0  3  0  0  0  0  0  0
  185.5660  177.3200  142.5390 C   0  0  0  0  0  2  0  0  0  0  0  0
  185.6690  178.4330  144.7880 C   0  0  0  0  0  0  0  0  0  0  0  0
  185.0120  179.0930  145.8300 C   0  0  0  0  0  3  0  0  0  0  0  0
  188.1520  177.3340  139.5110 O   0  0  0  0  0  0  0  0  0  0  0  0
  187.3300  178.2880  139.4870 C   0  0  0  0  0  0  0  0  0  0  0  0
  187.0250  179.0080  140.6850 N   0  0  0  0  0  2  0  0  0  0  0  0
  186.6840  176.1700  136.8020 C   0  0  0  0  0  0  0  0  0  0  0  0
  185.3720  177.9820  137.9490 C   0  0  0  0  0  2  0  0  0  0  0  0
  188.9720  179.1070  137.0990 C   0  0  0  0  0  1  0  0  0  0  0  0
  186.7450  175.0380  136.2550 O   0  0  0  0  0  0  0  0  0  0  0  0
  185.5400  176.4780  137.7240 C   0  0  0  0  0  2  0  0  0  0  0  0
  187.6060  178.4600  136.9540 C   0  0  2  0  0  3  0  0  0  0  0  0
  186.7080  178.6870  138.1770 C   0  0  2  0  0  3  0  0  0  0  0  0
  187.7350  177.0760  136.6300 O   0  0  0  0  0  0  0  0  0  0  0  0
  1  9  1  0  0  0  0
  2  5  1  6  0  0  0
  2  3  1  0  0  0  0
  3  7  1  0  0  0  0
  4 11  1  0  0  0  0
  5 14  2  0  0  0  0
  6  1  2  0  0  0  0
  7  4  2  0  0  0  0
  8 23  1  6  0  0  0
  8 13  1  0  0  0  0
 10 19  1  0  0  0  0
 12  8  1  0  0  0  0
 12 16  1  0  0  0  0
 13 18  1  1  0  0  0
 13  2  1  0  0  0  0
 14  1  1  0  0  0  0
 15  4  1  0  0  0  0
 16 17  2  0  0  0  0
 16  5  1  0  0  0  0
 17  6  1  0  0  0  0
 18 10  1  0  0  0  0
 19  3  2  0  0  0  0
 19 20  1  0  0  0  0
 20 15  2  0  0  0  0
 22 21  2  0  0  0  0
 22 23  1  0  0  0  0
 24 28  1  0  0  0  0
 25 30  1  0  0  0  0
 27 24  2  0  0  0  0
 28 25  1  0  0  0  0
 29 26  1  1  0  0  0
 29 30  1  0  0  0  0
 30 22  1  1  0  0  0
 31 24  1  0  0  0  0
 31 29  1  0  0  0  0
M  END
>  <MODEL>
2

>  <REMARK>
 VINA RESULT:      -9.0      2.725      3.310
  Name = 
  2 active torsions:
  status: ('A' for Active; 'I' for Inactive)
    1  A    between atoms: C_5  and  C_30
    2  A    between atoms: C_10  and  N_16
                            x       y       z     vdW  Elec       q    Type
                         _______ _______ _______ _____ _____    ______ ____

>  <TORSDO>
F 2

$$$$
=
 OpenBabel11122411063D

 31 35  0  0  1  0  0  0  0  0999 V2000
  189.5190  176.4600  142.1790 C   0  0  0  0  0  0  0  0  0  0  0  0
  186.5310  177.1310  144.4400 C   0  0  2  0  0  3  0  0  0  0  0  0
  187.0920  177.7140  145.7320 C   0  0  0  0  0  0  0  0  0  0  0  0
  188.9550  177.9670  147.2810 C   0  0  0  0  0  0  0  0  0  0  0  0
  187.4870  177.2270  143.2710 C   0  0  0  0  0  0  0  0  0  0  0  0
  189.3420  177.4100  141.1720 C   0  0  0  0  0  3  0  0  0  0  0  0
  188.4410  177.5110  146.0660 C   0  0  0  0  0  3  0  0  0  0  0  0
  185.2850  179.0970  143.4590 C   0  0  2  0  0  3  0  0  0  0  0  0
  190.5890  175.6310  142.1480 F   0  0  0  0  0  0  0  0  0  0  0  0
  184.7960  178.6060  146.3980 C   0  0  0  0  0  2  0  0  0  0  0  0
  190.2620  177.7740  147.5780 F   0  0  0  0  0  0  0  0  0  0  0  0
  186.0630  179.0170  142.1470 C   0  0  0  0  0  2  0  0  0  0  0  0
  185.1460  177.6980  144.0780 C   0  0  2  0  0  3  0  0  0  0  0  0
  188.5940  176.3680  143.2220 C   0  0  0  0  0  3  0  0  0  0  0  0
  188.1210  178.6140  148.1920 C   0  0  0  0  0  3  0  0  0  0  0  0
  187.3070  178.1820  142.2440 C   0  0  0  0  0  0  0  0  0  0  0  0
  188.2340  178.2600  141.1990 C   0  0  0  0  0  3  0  0  0  0  0  0
  184.2410  177.6910  145.3110 C   0  0  0  0  0  2  0  0  0  0  0  0
  186.2450  178.3390  146.6810 C   0  0  0  0  0  0  0  0  0  0  0  0
  186.7710  178.8000  147.8910 C   0  0  0  0  0  3  0  0  0  0  0  0
  183.2810  177.9760  141.7570 O   0  0  0  0  0  0  0  0  0  0  0  0
  183.0110  179.0590  142.3400 C   0  0  0  0  0  0  0  0  0  0  0  0
  183.9710  179.6700  143.2080 N   0  0  0  0  0  2  0  0  0  0  0  0
  179.9750  177.4360  141.8300 C   0  0  0  0  0  0  0  0  0  0  0  0
  180.6800  179.4310  143.1870 C   0  0  0  0  0  2  0  0  0  0  0  0
  181.9970  179.6020  139.5560 C   0  0  0  0  0  1  0  0  0  0  0  0
  179.3010  176.3810  141.6970 O   0  0  0  0  0  0  0  0  0  0  0  0
  180.2500  177.9630  143.2080 C   0  0  0  0  0  2  0  0  0  0  0  0
  181.0560  179.3660  140.7250 C   0  0  2  0  0  3  0  0  0  0  0  0
  181.6880  179.7230  142.0770 C   0  0  2  0  0  3  0  0  0  0  0  0
  180.5490  178.0330  140.7030 O   0  0  0  0  0  0  0  0  0  0  0  0
  1 14  1  0  0  0  0
  2  5  1  6  0  0  0
  2  3  1  0  0  0  0
  3  7  2  0  0  0  0
  3 19  1  0  0  0  0
  4 11  1  0  0  0  0
  4 15  2  0  0  0  0
  6 17  1  0  0  0  0
  6  1  2  0  0  0  0
  7  4  1  0  0  0  0
  8 23  1  6  0  0  0
  8 13  1  0  0  0  0
  9  1  1  0  0  0  0
 10 19  1  0  0  0  0
 12 16  1  0  0  0  0
 12  8  1  0  0  0  0
 13  2  1  0  0  0  0
 13 18  1  1  0  0  0
 14  5  2  0  0  0  0
 16  5  1  0  0  0  0
 17 16  2  0  0  0  0
 18 10  1  0  0  0  0
 19 20  2  0  0  0  0
 20 15  1  0  0  0  0
 21 22  2  0  0  0  0
 22 23  1  0  0  0  0
 24 28  1  0  0  0  0
 25 28  1  0  0  0  0
 27 24  2  0  0  0  0
 29 26  1  6  0  0  0
 29 30  1  0  0  0  0
 30 22  1  1  0  0  0
 30 25  1  0  0  0  0
 31 29  1  0  0  0  0
 31 24  1  0  0  0  0
M  END
>  <MODEL>
3

>  <REMARK>
 VINA RESULT:      -8.7      1.588      2.260
  Name = 
  2 active torsions:
  status: ('A' for Active; 'I' for Inactive)
    1  A    between atoms: C_5  and  C_30
    2  A    between atoms: C_10  and  N_16
                            x       y       z     vdW  Elec       q    Type
                         _______ _______ _______ _____ _____    ______ ____

>  <TORSDO>
F 2

$$$$
=
 OpenBabel11122411063D

 31 35  0  0  1  0  0  0  0  0999 V2000
  193.5380  175.2850  135.7590 C   0  0  0  0  0  0  0  0  0  0  0  0
  190.2850  176.8660  136.9430 C   0  0  2  0  0  3  0  0  0  0  0  0
  189.2010  175.8110  136.7560 C   0  0  0  0  0  0  0  0  0  0  0  0
  188.3980  173.8100  135.6200 C   0  0  0  0  0  0  0  0  0  0  0  0
  191.6850  176.2930  136.9660 C   0  0  0  0  0  0  0  0  0  0  0  0
  194.2470  175.1460  136.9520 C   0  0  0  0  0  3  0  0  0  0  0  0
  189.4070  174.7430  135.8670 C   0  0  0  0  0  3  0  0  0  0  0  0
  190.4230  177.0540  139.4570 C   0  0  2  0  0  3  0  0  0  0  0  0
  194.0830  174.8590  134.5940 F   0  0  0  0  0  0  0  0  0  0  0  0
  187.6250  177.0620  138.3240 C   0  0  0  0  0  2  0  0  0  0  0  0
  188.6220  172.7800  134.7700 F   0  0  0  0  0  0  0  0  0  0  0  0
  191.9200  176.7520  139.4620 C   0  0  0  0  0  2  0  0  0  0  0  0
  190.0330  177.7750  138.1600 C   0  0  2  0  0  3  0  0  0  0  0  0
  192.2640  175.8580  135.7650 C   0  0  0  0  0  3  0  0  0  0  0  0
  187.1570  173.9450  136.2420 C   0  0  0  0  0  3  0  0  0  0  0  0
  192.4110  176.1590  138.1720 C   0  0  0  0  0  0  0  0  0  0  0  0
  193.6900  175.5930  138.1520 C   0  0  0  0  0  3  0  0  0  0  0  0
  188.5770  178.2440  138.1660 C   0  0  0  0  0  2  0  0  0  0  0  0
  187.9250  175.9590  137.3530 C   0  0  0  0  0  0  0  0  0  0  0  0
  186.9240  175.0150  137.1060 C   0  0  0  0  0  3  0  0  0  0  0  0
  190.0790  176.1060  142.1320 O   0  0  0  0  0  0  0  0  0  0  0  0
  189.9320  177.3390  141.9270 C   0  0  0  0  0  0  0  0  0  0  0  0
  190.0940  177.8780  140.6120 N   0  0  0  0  0  2  0  0  0  0  0  0
  191.0910  177.0890  145.2000 C   0  0  0  0  0  0  0  0  0  0  0  0
  190.7380  179.0100  143.6170 C   0  0  0  0  0  2  0  0  0  0  0  0
  187.6580  176.6790  143.7890 C   0  0  0  0  0  1  0  0  0  0  0  0
  191.7730  176.5060  146.0830 O   0  0  0  0  0  0  0  0  0  0  0  0
  191.7540  178.1010  144.3110 C   0  0  0  0  0  2  0  0  0  0  0  0
  188.8520  177.5040  144.2360 C   0  0  2  0  0  3  0  0  0  0  0  0
  189.5410  178.2310  143.0740 C   0  0  2  0  0  3  0  0  0  0  0  0
  189.7640  176.7040  144.9870 O   0  0  0  0  0  0  0  0  0  0  0  0
  1 14  2  0  0  0  0
  1  6  1  0  0  0  0
  2  3  1  1  0  0  0
  2  5  1  0  0  0  0
  2 13  1  0  0  0  0
  3 19  1  0  0  0  0
  4  7  1  0  0  0  0
  4 15  2  0  0  0  0
  5 16  2  0  0  0  0
  6 17  2  0  0  0  0
  7  3  2  0  0  0  0
  8 12  1  0  0  0  0
  8 23  1  1  0  0  0
  9  1  1  0  0  0  0
 11  4  1  0  0  0  0
 13 18  1  1  0  0  0
 13  8  1  0  0  0  0
 14  5  1  0  0  0  0
 15 20  1  0  0  0  0
 16 12  1  0  0  0  0
 17 16  1  0  0  0  0
 18 10  1  0  0  0  0
 19 10  1  0  0  0  0
 20 19  2  0  0  0  0
 22 21  2  0  0  0  0
 23 22  1  0  0  0  0
 24 27  2  0  0  0  0
 25 28  1  0  0  0  0
 28 24  1  0  0  0  0
 29 26  1  6  0  0  0
 29 31  1  0  0  0  0
 30 22  1  6  0  0  0
 30 25  1  0  0  0  0
 30 29  1  0  0  0  0
 31 24  1  0  0  0  0
M  END
>  <MODEL>
4

>  <REMARK>
 VINA RESULT:      -8.6      5.351      8.780
  Name = 
  2 active torsions:
  status: ('A' for Active; 'I' for Inactive)
    1  A    between atoms: C_5  and  C_30
    2  A    between atoms: C_10  and  N_16
                            x       y       z     vdW  Elec       q    Type
                         _______ _______ _______ _____ _____    ______ ____

>  <TORSDO>
F 2

$$$$
=
 OpenBabel11122411063D

 31 35  0  0  1  0  0  0  0  0999 V2000
  185.2510  178.8370  144.8750 C   0  0  0  0  0  0  0  0  0  0  0  0
  188.9850  178.6290  144.1650 C   0  0  2  0  0  3  0  0  0  0  0  0
  189.5610  177.6490  145.1810 C   0  0  0  0  0  0  0  0  0  0  0  0
  189.4020  176.5370  147.3440 C   0  0  0  0  0  0  0  0  0  0  0  0
  187.4880  178.4980  143.9860 C   0  0  0  0  0  0  0  0  0  0  0  0
  184.7050  178.2150  143.7520 C   0  0  0  0  0  3  0  0  0  0  0  0
  188.8560  177.3680  146.3630 C   0  0  0  0  0  3  0  0  0  0  0  0
  189.2580  177.3710  141.9920 C   0  0  2  0  0  3  0  0  0  0  0  0
  184.4390  179.3000  145.8560 F   0  0  0  0  0  0  0  0  0  0  0  0
  191.6810  177.3600  143.7920 C   0  0  0  0  0  2  0  0  0  0  0  0
  188.7000  176.2680  148.4700 F   0  0  0  0  0  0  0  0  0  0  0  0
  187.7710  177.4870  141.6640 C   0  0  0  0  0  2  0  0  0  0  0  0
  189.7150  178.5860  142.8110 C   0  0  2  0  0  3  0  0  0  0  0  0
  186.6360  178.9810  144.9900 C   0  0  0  0  0  3  0  0  0  0  0  0
  190.6730  175.9920  147.1670 C   0  0  0  0  0  3  0  0  0  0  0  0
  186.9300  177.8760  142.8450 C   0  0  0  0  0  0  0  0  0  0  0  0
  185.5420  177.7460  142.7360 C   0  0  0  0  0  3  0  0  0  0  0  0
  191.2290  178.6050  143.0350 C   0  0  0  0  0  2  0  0  0  0  0  0
  190.8670  177.1200  145.0290 C   0  0  0  0  0  0  0  0  0  0  0  0
  191.4010  176.2830  146.0120 C   0  0  0  0  0  3  0  0  0  0  0  0
  188.5720  178.6310  139.5200 O   0  0  0  0  0  0  0  0  0  0  0  0
  189.6200  177.9330  139.5480 C   0  0  0  0  0  0  0  0  0  0  0  0
  190.0200  177.2790  140.7560 N   0  0  0  0  0  2  0  0  0  0  0  0
  189.9760  174.9810  137.7390 C   0  0  0  0  0  0  0  0  0  0  0  0
  189.5320  177.3720  137.1040 C   0  0  0  0  0  2  0  0  0  0  0  0
  192.4980  177.0460  139.5630 C   0  0  0  0  0  1  0  0  0  0  0  0
  189.7640  173.7490  137.5930 O   0  0  0  0  0  0  0  0  0  0  0  0
  188.9520  175.9650  137.2540 C   0  0  0  0  0  2  0  0  0  0  0  0
  191.5710  176.7530  138.3960 C   0  0  2  0  0  3  0  0  0  0  0  0
  190.4190  177.7620  138.2860 C   0  0  2  0  0  3  0  0  0  0  0  0
  191.1040  175.4060  138.4490 O   0  0  0  0  0  0  0  0  0  0  0  0
  1 14  1  0  0  0  0
  1  9  1  0  0  0  0
  2  5  1  6  0  0  0
  2  3  1  0  0  0  0
  3  7  1  0  0  0  0
  4 11  1  0  0  0  0
  5 14  2  0  0  0  0
  6  1  2  0  0  0  0
  7  4  2  0  0  0  0
  8 23  1  6  0  0  0
  8 13  1  0  0  0  0
 10 19  1  0  0  0  0
 12  8  1  0  0  0  0
 12 16  1  0  0  0  0
 13 18  1  1  0  0  0
 13  2  1  0  0  0  0
 15  4  1  0  0  0  0
 16  5  1  0  0  0  0
 17 16  2  0  0  0  0
 17  6  1  0  0  0  0
 18 10  1  0  0  0  0
 19  3  2  0  0  0  0
 19 20  1  0  0  0  0
 20 15  2  0  0  0  0
 21 22  2  0  0  0  0
 22 23  1  0  0  0  0
 24 31  1  0  0  0  0
 25 28  1  0  0  0  0
 25 30  1  0  0  0  0
 27 24  2  0  0  0  0
 28 24  1  0  0  0  0
 29 31  1  0  0  0  0
 29 26  1  1  0  0  0
 30 29  1  0  0  0  0
 30 22  1  1  0  0  0
M  END
>  <MODEL>
5

>  <REMARK>
 VINA RESULT:      -8.1      3.640      6.183
  Name = 
  2 active torsions:
  status: ('A' for Active; 'I' for Inactive)
    1  A    between atoms: C_5  and  C_30
    2  A    between atoms: C_10  and  N_16
                            x       y       z     vdW  Elec       q    Type
                         _______ _______ _______ _____ _____    ______ ____

>  <TORSDO>
F 2

$$$$
=
 OpenBabel11122411063D

 31 35  0  0  1  0  0  0  0  0999 V2000
  186.6370  178.1330  147.1510 C   0  0  0  0  0  0  0  0  0  0  0  0
  189.7270  178.2530  144.9340 C   0  0  2  0  0  3  0  0  0  0  0  0
  190.5610  177.0270  145.2920 C   0  0  0  0  0  0  0  0  0  0  0  0
  191.1730  175.3080  146.9070 C   0  0  0  0  0  0  0  0  0  0  0  0
  188.2800  178.1410  145.3610 C   0  0  0  0  0  0  0  0  0  0  0  0
  185.6250  177.8660  146.2290 C   0  0  0  0  0  3  0  0  0  0  0  0
  190.3660  176.3820  146.5240 C   0  0  0  0  0  3  0  0  0  0  0  0
  188.9750  177.7210  142.5820 C   0  0  2  0  0  3  0  0  0  0  0  0
  186.3390  178.2530  148.4670 F   0  0  0  0  0  0  0  0  0  0  0  0
  191.9020  177.2320  143.1320 C   0  0  0  0  0  2  0  0  0  0  0  0
  190.9590  174.6900  148.0930 F   0  0  0  0  0  0  0  0  0  0  0  0
  187.5010  177.8900  142.9470 C   0  0  0  0  0  2  0  0  0  0  0  0
  189.8440  178.6430  143.4490 C   0  0  2  0  0  3  0  0  0  0  0  0
  187.9570  178.2730  146.7190 C   0  0  0  0  0  3  0  0  0  0  0  0
  192.2020  174.8780  146.0710 C   0  0  0  0  0  3  0  0  0  0  0  0
  187.2510  177.8790  144.4280 C   0  0  0  0  0  0  0  0  0  0  0  0
  185.9300  177.7510  144.8700 C   0  0  0  0  0  3  0  0  0  0  0  0
  191.3130  178.6350  143.0220 C   0  0  0  0  0  2  0  0  0  0  0  0
  191.6340  176.6060  144.4680 C   0  0  0  0  0  0  0  0  0  0  0  0
  192.4300  175.5250  144.8560 C   0  0  0  0  0  3  0  0  0  0  0  0
  190.1990  176.0030  140.6530 O   0  0  0  0  0  0  0  0  0  0  0  0
  189.7860  177.1250  140.2560 C   0  0  0  0  0  0  0  0  0  0  0  0
  189.1610  178.0290  141.1720 N   0  0  0  0  0  2  0  0  0  0  0  0
  187.5920  176.5140  137.6240 C   0  0  0  0  0  0  0  0  0  0  0  0
  188.9390  178.5110  138.3450 C   0  0  0  0  0  2  0  0  0  0  0  0
  191.0620  175.2810  138.2450 C   0  0  0  0  0  1  0  0  0  0  0  0
  186.5300  176.0120  137.1730 O   0  0  0  0  0  0  0  0  0  0  0  0
  187.5500  177.8770  138.2520 C   0  0  0  0  0  2  0  0  0  0  0  0
  190.0490  176.3380  137.8410 C   0  0  2  0  0  3  0  0  0  0  0  0
  189.9980  177.5180  138.8200 C   0  0  2  0  0  3  0  0  0  0  0  0
  188.7650  175.7520  137.6360 O   0  0  0  0  0  0  0  0  0  0  0  0
  1  9  1  0  0  0  0
  2  3  1  6  0  0  0
  2  5  1  0  0  0  0
  3  7  1  0  0  0  0
  4 11  1  0  0  0  0
  5 14  2  0  0  0  0
  6  1  2  0  0  0  0
  7  4  2  0  0  0  0
  8 23  1  6  0  0  0
  8 12  1  0  0  0  0
  8 13  1  0  0  0  0
 10 19  1  0  0  0  0
 12 16  1  0  0  0  0
 13 18  1  6  0  0  0
 13  2  1  0  0  0  0
 14  1  1  0  0  0  0
 15  4  1  0  0  0  0
 16 17  2  0  0  0  0
 16  5  1  0  0  0  0
 17  6  1  0  0  0  0
 18 10  1  0  0  0  0
 19 20  1  0  0  0  0
 19  3  2  0  0  0  0
 20 15  2  0  0  0  0
 22 21  2  0  0  0  0
 22 23  1  0  0  0  0
 24 31  1  0  0  0  0
 24 28  1  0  0  0  0
 25 30  1  0  0  0  0
 27 24  2  0  0  0  0
 28 25  1  0  0  0  0
 29 26  1  1  0  0  0
 29 30  1  0  0  0  0
 30 22  1  1  0  0  0
 31 29  1  0  0  0  0
M  END
>  <MODEL>
6

>  <REMARK>
 VINA RESULT:      -8.1      3.469      5.906
  Name = 
  2 active torsions:
  status: ('A' for Active; 'I' for Inactive)
    1  A    between atoms: C_5  and  C_30
    2  A    between atoms: C_10  and  N_16
                            x       y       z     vdW  Elec       q    Type
                         _______ _______ _______ _____ _____    ______ ____

>  <TORSDO>
F 2

$$$$
=
 OpenBabel11122411063D

 31 35  0  0  1  0  0  0  0  0999 V2000
  188.8510  178.1670  142.4690 C   0  0  0  0  0  0  0  0  0  0  0  0
  186.0170  179.0110  140.0720 C   0  0  2  0  0  3  0  0  0  0  0  0
  186.1480  178.0500  138.8960 C   0  0  0  0  0  0  0  0  0  0  0  0
  187.5380  176.5890  137.5290 C   0  0  0  0  0  0  0  0  0  0  0  0
  186.7460  178.5460  141.3140 C   0  0  0  0  0  0  0  0  0  0  0  0
  188.1630  177.6240  143.5550 C   0  0  0  0  0  3  0  0  0  0  0  0
  187.3730  177.4100  138.6460 C   0  0  0  0  0  3  0  0  0  0  0  0
  183.8720  178.2410  141.1590 C   0  0  2  0  0  3  0  0  0  0  0  0
  190.2030  178.2430  142.4920 F   0  0  0  0  0  0  0  0  0  0  0  0
  183.7550  178.5310  138.1560 C   0  0  0  0  0  2  0  0  0  0  0  0
  188.7240  175.9690  137.3130 F   0  0  0  0  0  0  0  0  0  0  0  0
  184.5530  178.0380  142.5100 C   0  0  0  0  0  2  0  0  0  0  0  0
  184.5550  179.3780  140.3860 C   0  0  2  0  0  3  0  0  0  0  0  0
  188.1450  178.6280  141.3550 C   0  0  0  0  0  3  0  0  0  0  0  0
  186.4860  176.4130  136.6310 C   0  0  0  0  0  3  0  0  0  0  0  0
  186.0520  178.0040  142.4200 C   0  0  0  0  0  0  0  0  0  0  0  0
  186.7680  177.5540  143.5350 C   0  0  0  0  0  3  0  0  0  0  0  0
  183.8180  179.7330  139.0930 C   0  0  0  0  0  2  0  0  0  0  0  0
  185.0980  177.8950  137.9580 C   0  0  0  0  0  0  0  0  0  0  0  0
  185.2700  177.0630  136.8470 C   0  0  0  0  0  3  0  0  0  0  0  0
  181.6700  176.6790  140.2180 O   0  0  0  0  0  0  0  0  0  0  0  0
  181.4070  177.7250  140.8690 C   0  0  0  0  0  0  0  0  0  0  0  0
  182.4640  178.5480  141.3690 N   0  0  0  0  0  2  0  0  0  0  0  0
  179.9680  180.7560  139.9460 C   0  0  0  0  0  0  0  0  0  0  0  0
  179.2550  178.3540  139.7430 C   0  0  0  0  0  2  0  0  0  0  0  0
  180.4700  179.2170  143.3110 C   0  0  0  0  0  1  0  0  0  0  0  0
  180.0610  181.9170  139.4680 O   0  0  0  0  0  0  0  0  0  0  0  0
  179.7770  179.5930  139.0150 C   0  0  0  0  0  2  0  0  0  0  0  0
  179.7710  179.3480  141.9700 C   0  0  2  0  0  3  0  0  0  0  0  0
  179.9700  178.1190  141.0730 C   0  0  2  0  0  3  0  0  0  0  0  0
  180.1550  180.5580  141.3170 O   0  0  0  0  0  0  0  0  0  0  0  0
  1  9  1  0  0  0  0
  1  6  1  0  0  0  0
  2  3  1  6  0  0  0
  2 13  1  0  0  0  0
  2  5  1  0  0  0  0
  4  7  2  0  0  0  0
  5 14  1  0  0  0  0
  5 16  2  0  0  0  0
  7  3  1  0  0  0  0
  8 23  1  1  0  0  0
  8 12  1  0  0  0  0
 10 18  1  0  0  0  0
 11  4  1  0  0  0  0
 13 18  1  6  0  0  0
 13  8  1  0  0  0  0
 14  1  2  0  0  0  0
 15 20  2  0  0  0  0
 15  4  1  0  0  0  0
 16 12  1  0  0  0  0
 16 17  1  0  0  0  0
 17  6  2  0  0  0  0
 19 10  1  0  0  0  0
 19  3  2  0  0  0  0
 20 19  1  0  0  0  0
 21 22  2  0  0  0  0
 22 23  1  0  0  0  0
 24 31  1  0  0  0  0
 25 30  1  0  0  0  0
 27 24  2  0  0  0  0
 28 25  1  0  0  0  0
 28 24  1  0  0  0  0
 29 26  1  1  0  0  0
 30 22  1  6  0  0  0
 30 29  1  0  0  0  0
 31 29  1  0  0  0  0
M  END
>  <MODEL>
7

>  <REMARK>
 VINA RESULT:      -8.1      2.432      5.413
  Name = 
  2 active torsions:
  status: ('A' for Active; 'I' for Inactive)
    1  A    between atoms: C_5  and  C_30
    2  A    between atoms: C_10  and  N_16
                            x       y       z     vdW  Elec       q    Type
                         _______ _______ _______ _____ _____    ______ ____

>  <TORSDO>
F 2

$$$$
=
 OpenBabel11122411063D

 31 35  0  0  1  0  0  0  0  0999 V2000
  188.8610  178.0800  143.4480 C   0  0  0  0  0  0  0  0  0  0  0  0
  186.5290  179.0030  140.5850 C   0  0  2  0  0  3  0  0  0  0  0  0
  186.9120  178.1060  139.4130 C   0  0  0  0  0  0  0  0  0  0  0  0
  188.5790  176.7400  138.2770 C   0  0  0  0  0  0  0  0  0  0  0  0
  187.0130  178.4850  141.9220 C   0  0  0  0  0  0  0  0  0  0  0  0
  187.9890  177.4710  144.3510 C   0  0  0  0  0  3  0  0  0  0  0  0
  188.1780  177.4990  139.3780 C   0  0  0  0  0  3  0  0  0  0  0  0
  184.2330  178.1420  141.1920 C   0  0  2  0  0  3  0  0  0  0  0  0
  190.1810  178.1760  143.7400 F   0  0  0  0  0  0  0  0  0  0  0  0
  184.6970  178.5870  138.2420 C   0  0  0  0  0  2  0  0  0  0  0  0
  189.7990  176.1520  138.2690 F   0  0  0  0  0  0  0  0  0  0  0  0
  184.6440  177.8810  142.6400 C   0  0  0  0  0  2  0  0  0  0  0  0
  185.0250  179.3290  140.6240 C   0  0  2  0  0  3  0  0  0  0  0  0
  188.3750  178.5870  142.2410 C   0  0  0  0  0  3  0  0  0  0  0  0
  187.7270  176.5950  137.1830 C   0  0  0  0  0  3  0  0  0  0  0  0
  186.1310  177.8750  142.8440 C   0  0  0  0  0  0  0  0  0  0  0  0
  186.6270  177.3800  144.0540 C   0  0  0  0  0  3  0  0  0  0  0  0
  184.5450  179.7390  139.2300 C   0  0  0  0  0  2  0  0  0  0  0  0
  186.0690  177.9830  138.2810 C   0  0  0  0  0  0  0  0  0  0  0  0
  186.4760  177.2140  137.1870 C   0  0  0  0  0  3  0  0  0  0  0  0
  182.3070  176.6310  139.7160 O   0  0  0  0  0  0  0  0  0  0  0  0
  181.8910  177.6210  140.3750 C   0  0  0  0  0  0  0  0  0  0  0  0
  182.8050  178.4160  141.1370 N   0  0  0  0  0  2  0  0  0  0  0  0
  179.8460  178.3300  143.1000 C   0  0  0  0  0  0  0  0  0  0  0  0
  180.1770  179.3910  140.8450 C   0  0  0  0  0  2  0  0  0  0  0  0
  179.7050  175.5610  140.5980 C   0  0  0  0  0  1  0  0  0  0  0  0
  179.6630  178.4260  144.3420 O   0  0  0  0  0  0  0  0  0  0  0  0
  180.4220  179.4960  142.3510 C   0  0  0  0  0  2  0  0  0  0  0  0
  179.5060  176.9990  141.0440 C   0  0  2  0  0  3  0  0  0  0  0  0
  180.4330  177.9810  140.3140 C   0  0  2  0  0  3  0  0  0  0  0  0
  179.6170  177.1070  142.4620 O   0  0  0  0  0  0  0  0  0  0  0  0
  1  9  1  0  0  0  0
  1  6  1  0  0  0  0
  2  3  1  6  0  0  0
  2 13  1  0  0  0  0
  2  5  1  0  0  0  0
  4  7  2  0  0  0  0
  5 14  1  0  0  0  0
  5 16  2  0  0  0  0
  7  3  1  0  0  0  0
  8 23  1  1  0  0  0
  8 12  1  0  0  0  0
 10 19  1  0  0  0  0
 10 18  1  0  0  0  0
 11  4  1  0  0  0  0
 12 16  1  0  0  0  0
 13 18  1  6  0  0  0
 13  8  1  0  0  0  0
 14  1  2  0  0  0  0
 15 20  2  0  0  0  0
 15  4  1  0  0  0  0
 16 17  1  0  0  0  0
 17  6  2  0  0  0  0
 19  3  2  0  0  0  0
 20 19  1  0  0  0  0
 21 22  2  0  0  0  0
 22 23  1  0  0  0  0
 24 27  2  0  0  0  0
 25 28  1  0  0  0  0
 28 24  1  0  0  0  0
 29 26  1  6  0  0  0
 29 31  1  0  0  0  0
 30 22  1  1  0  0  0
 30 25  1  0  0  0  0
 30 29  1  0  0  0  0
 31 24  1  0  0  0  0
M  END
>  <MODEL>
8

>  <REMARK>
 VINA RESULT:      -8.0      2.389      5.087
  Name = 
  2 active torsions:
  status: ('A' for Active; 'I' for Inactive)
    1  A    between atoms: C_5  and  C_30
    2  A    between atoms: C_10  and  N_16
                            x       y       z     vdW  Elec       q    Type
                         _______ _______ _______ _____ _____    ______ ____

>  <TORSDO>
F 2

$$$$
=
 OpenBabel11122411063D

 31 35  0  0  1  0  0  0  0  0999 V2000
  191.4990  177.3730  141.0890 C   0  0  0  0  0  0  0  0  0  0  0  0
  189.2520  177.8240  138.0500 C   0  0  2  0  0  3  0  0  0  0  0  0
  189.1910  176.4680  137.3550 C   0  0  0  0  0  0  0  0  0  0  0  0
  190.1980  174.2940  136.9120 C   0  0  0  0  0  0  0  0  0  0  0  0
  189.7040  177.7410  139.4920 C   0  0  0  0  0  0  0  0  0  0  0  0
  190.5930  177.4970  142.1430 C   0  0  0  0  0  3  0  0  0  0  0  0
  190.1900  175.5100  137.5980 C   0  0  0  0  0  3  0  0  0  0  0  0
  186.8910  178.0940  138.9060 C   0  0  2  0  0  3  0  0  0  0  0  0
  192.8060  177.1280  141.3440 F   0  0  0  0  0  0  0  0  0  0  0  0
  187.1170  177.1630  136.0430 C   0  0  0  0  0  2  0  0  0  0  0  0
  191.1620  173.3780  137.1710 F   0  0  0  0  0  0  0  0  0  0  0  0
  187.3670  178.2990  140.3420 C   0  0  0  0  0  2  0  0  0  0  0  0
  187.9420  178.6220  137.9200 C   0  0  2  0  0  3  0  0  0  0  0  0
  191.0560  177.4980  139.7700 C   0  0  0  0  0  3  0  0  0  0  0  0
  189.2200  174.0260  135.9550 C   0  0  0  0  0  3  0  0  0  0  0  0
  188.7910  177.8760  140.5630 C   0  0  0  0  0  0  0  0  0  0  0  0
  189.2460  177.7590  141.8800 C   0  0  0  0  0  3  0  0  0  0  0  0
  187.4540  178.5890  136.4700 C   0  0  0  0  0  2  0  0  0  0  0  0
  188.2250  176.2010  136.3540 C   0  0  0  0  0  0  0  0  0  0  0  0
  188.2370  174.9770  135.6800 C   0  0  0  0  0  3  0  0  0  0  0  0
  184.3840  176.8440  138.3340 O   0  0  0  0  0  0  0  0  0  0  0  0
  184.4020  178.0990  138.4260 C   0  0  0  0  0  0  0  0  0  0  0  0
  185.6250  178.7850  138.7130 N   0  0  0  0  0  2  0  0  0  0  0  0
  181.2410  177.2480  139.6070 C   0  0  0  0  0  0  0  0  0  0  0  0
  182.5390  179.3980  139.4910 C   0  0  0  0  0  2  0  0  0  0  0  0
  182.5580  177.5030  136.1210 C   0  0  0  0  0  1  0  0  0  0  0  0
  180.4700  176.4630  140.2180 O   0  0  0  0  0  0  0  0  0  0  0  0
  182.0120  178.2750  140.3850 C   0  0  0  0  0  2  0  0  0  0  0  0
  182.0520  178.0900  137.4270 C   0  0  2  0  0  3  0  0  0  0  0  0
  183.1330  178.8700  138.1860 C   0  0  2  0  0  3  0  0  0  0  0  0
  181.4500  177.0790  138.2340 O   0  0  0  0  0  0  0  0  0  0  0  0
  1  9  1  0  0  0  0
  1  6  1  0  0  0  0
  2  3  1  1  0  0  0
  2  5  1  0  0  0  0
  3  7  1  0  0  0  0
  4 11  1  0  0  0  0
  4  7  2  0  0  0  0
  5 14  1  0  0  0  0
  5 16  2  0  0  0  0
  8 23  1  1  0  0  0
  8 12  1  0  0  0  0
 10 19  1  0  0  0  0
 10 18  1  0  0  0  0
 12 16  1  0  0  0  0
 13 18  1  6  0  0  0
 13  2  1  0  0  0  0
 13  8  1  0  0  0  0
 14  1  2  0  0  0  0
 15  4  1  0  0  0  0
 16 17  1  0  0  0  0
 17  6  2  0  0  0  0
 19  3  2  0  0  0  0
 20 15  2  0  0  0  0
 20 19  1  0  0  0  0
 21 22  2  0  0  0  0
 22 23  1  0  0  0  0
 24 27  2  0  0  0  0
 24 28  1  0  0  0  0
 25 28  1  0  0  0  0
 29 26  1  6  0  0  0
 29 30  1  0  0  0  0
 29 31  1  0  0  0  0
 30 22  1  1  0  0  0
 30 25  1  0  0  0  0
 31 24  1  0  0  0  0
M  END
>  <MODEL>
9

>  <REMARK>
 VINA RESULT:      -7.7      3.208      5.886
  Name = 
  2 active torsions:
  status: ('A' for Active; 'I' for Inactive)
    1  A    between atoms: C_5  and  C_30
    2  A    between atoms: C_10  and  N_16
                            x       y       z     vdW  Elec       q    Type
                         _______ _______ _______ _____ _____    ______ ____

>  <TORSDO>
F 2

$$$$
