=
 OpenBabel11122410293D

 30 35  0  0  1  0  0  0  0  0999 V2000
  186.7730  178.0530  144.8770 C   0  0  0  0  0  0  0  0  0  0  0  0
  184.3170  178.6860  145.2640 C   0  0  0  0  0  0  0  0  0  0  0  0
  186.3700  178.4150  140.8020 N   0  0  0  0  0  2  0  0  0  0  0  0
  187.8600  177.8270  143.9870 C   0  0  0  0  0  0  0  0  0  0  0  0
  187.0350  177.9610  146.3570 C   0  0  0  0  0  2  0  0  0  0  0  0
  190.3500  176.5040  146.2820 O   0  0  0  0  0  0  0  0  0  0  0  0
  190.5310  176.7830  142.6440 C   0  0  1  0  0  3  0  0  0  0  0  0
  189.2490  176.9480  145.8540 C   0  0  0  0  0  0  0  0  0  0  0  0
  189.7540  177.1300  141.3840 C   0  0  2  0  0  3  0  0  0  0  0  0
  187.6230  178.0360  140.4720 C   0  0  0  0  0  0  0  0  0  0  0  0
  188.0060  176.8330  146.6940 C   0  0  1  0  0  3  0  0  0  0  0  0
  189.1550  177.4990  144.5290 N   0  0  0  0  0  0  0  0  0  0  0  0
  182.9970  178.9120  144.6690 C   0  0  0  0  0  3  0  0  0  0  0  0
  190.6960  177.9570  140.5360 C   0  0  0  0  0  2  0  0  0  0  0  0
  191.9870  176.7320  142.2070 C   0  0  0  0  0  2  0  0  0  0  0  0
  184.4130  178.6680  146.5190 O   0  0  0  0  0  0  0  0  0  0  0  0
  186.3850  178.3540  142.1440 C   0  0  0  0  0  0  0  0  0  0  0  0
  182.8460  179.0650  143.3550 C   0  0  0  0  0  3  0  0  0  0  0  0
  185.4940  178.4510  144.3810 C   0  0  0  0  0  0  0  0  0  0  0  0
  187.6170  177.9610  142.6040 C   0  0  0  0  0  0  0  0  0  0  0  0
  187.9940  177.9220  139.2740 O   0  0  0  0  0  0  0  0  0  0  0  0
  188.4270  177.7570  141.5320 N   0  0  0  0  0  0  0  0  0  0  0  0
  192.0780  177.4230  140.8530 C   0  0  0  0  0  2  0  0  0  0  0  0
  190.5340  179.2380  143.4430 C   0  0  0  0  0  1  0  0  0  0  0  0
  184.0050  179.0890  142.3980 C   0  0  0  0  0  2  0  0  0  0  0  0
  185.3070  178.6030  142.9870 C   0  0  0  0  0  0  0  0  0  0  0  0
  190.3840  177.7610  143.8000 C   0  0  2  0  0  3  0  0  0  0  0  0
  188.2930  176.7920  148.1980 C   0  0  0  0  0  2  0  0  0  0  0  0
  189.7490  178.6910  148.8450 C   0  0  0  0  0  1  0  0  0  0  0  0
  188.3240  178.1790  148.8240 C   0  0  0  0  0  2  0  0  0  0  0  0
  1  5  1  0  0  0  0
  2 16  2  0  0  0  0
  3 17  1  0  0  0  0
  4 12  1  0  0  0  0
  4  1  2  0  0  0  0
  5 11  1  0  0  0  0
  7 15  1  6  0  0  0
  7 27  1  0  0  0  0
  8  6  2  0  0  0  0
  8 11  1  0  0  0  0
  9 14  1  6  0  0  0
  9 22  1  0  0  0  0
  9  7  1  0  0  0  0
 10  3  1  0  0  0  0
 10 22  1  0  0  0  0
 11 28  1  1  0  0  0
 12  8  1  0  0  0  0
 13  2  1  0  0  0  0
 14 23  1  0  0  0  0
 17 20  2  0  0  0  0
 17 26  1  0  0  0  0
 18 13  2  0  0  0  0
 19  1  1  0  0  0  0
 19  2  1  0  0  0  0
 20  4  1  0  0  0  0
 21 10  2  0  0  0  0
 22 20  1  0  0  0  0
 23 15  1  0  0  0  0
 25 26  1  0  0  0  0
 25 18  1  0  0  0  0
 26 19  2  0  0  0  0
 27 24  1  6  0  0  0
 27 12  1  0  0  0  0
 28 30  1  0  0  0  0
 30 29  1  0  0  0  0
M  END
>  <MODEL>
1

>  <REMARK>
 VINA RESULT:     -10.0      0.000      0.000
  Name = 
  2 active torsions:
  status: ('A' for Active; 'I' for Inactive)
    1  A    between atoms: C_11  and  C_28
    2  A    between atoms: C_28  and  C_30
                            x       y       z     vdW  Elec       q    Type
                         _______ _______ _______ _____ _____    ______ ____

>  <TORSDO>
F 2

$$$$
=
 OpenBabel11122410293D

 30 35  0  0  1  0  0  0  0  0999 V2000
  186.3710  178.1500  142.0620 C   0  0  0  0  0  0  0  0  0  0  0  0
  183.8770  178.6160  141.6830 C   0  0  0  0  0  0  0  0  0  0  0  0
  185.9030  178.2040  146.1460 N   0  0  0  0  0  2  0  0  0  0  0  0
  187.4610  177.9310  142.9510 C   0  0  0  0  0  0  0  0  0  0  0  0
  186.6290  178.0450  140.5820 C   0  0  0  0  0  2  0  0  0  0  0  0
  190.2480  177.9380  140.6160 O   0  0  0  0  0  0  0  0  0  0  0  0
  190.3390  177.7930  144.2660 C   0  0  1  0  0  3  0  0  0  0  0  0
  189.0690  178.0320  141.0550 C   0  0  0  0  0  0  0  0  0  0  0  0
  189.5040  177.8780  145.5330 C   0  0  2  0  0  3  0  0  0  0  0  0
  187.2020  178.0240  146.4690 C   0  0  0  0  0  0  0  0  0  0  0  0
  187.9860  178.6280  140.1970 C   0  0  1  0  0  3  0  0  0  0  0  0
  188.7640  177.6430  142.4060 N   0  0  0  0  0  0  0  0  0  0  0  0
  182.5960  179.0100  142.2750 C   0  0  0  0  0  3  0  0  0  0  0  0
  190.0090  176.7710  146.4330 C   0  0  0  0  0  2  0  0  0  0  0  0
  191.6800  177.2350  144.7150 C   0  0  0  0  0  2  0  0  0  0  0  0
  183.9560  178.5270  140.4300 O   0  0  0  0  0  0  0  0  0  0  0  0
  185.9270  178.1840  144.8030 C   0  0  0  0  0  0  0  0  0  0  0  0
  182.4100  179.0030  143.5930 C   0  0  0  0  0  3  0  0  0  0  0  0
  185.0520  178.3660  142.5650 C   0  0  0  0  0  0  0  0  0  0  0  0
  187.2020  177.9860  144.3360 C   0  0  0  0  0  0  0  0  0  0  0  0
  187.6010  178.0280  147.6630 O   0  0  0  0  0  0  0  0  0  0  0  0
  188.0350  177.8760  145.4040 N   0  0  0  0  0  0  0  0  0  0  0  0
  191.4830  176.6420  146.1030 C   0  0  0  0  0  2  0  0  0  0  0  0
  189.2760  175.5380  143.5940 C   0  0  0  0  0  1  0  0  0  0  0  0
  183.4580  178.5310  144.5620 C   0  0  0  0  0  2  0  0  0  0  0  0
  184.8350  178.3800  143.9630 C   0  0  0  0  0  0  0  0  0  0  0  0
  189.7710  176.9150  143.1600 C   0  0  2  0  0  3  0  0  0  0  0  0
  188.2440  178.4650  138.6970 C   0  0  0  0  0  2  0  0  0  0  0  0
  187.1040  178.2860  136.5030 C   0  0  0  0  0  1  0  0  0  0  0  0
  187.0480  177.8780  137.9600 C   0  0  0  0  0  2  0  0  0  0  0  0
  1 19  2  0  0  0  0
  1  4  1  0  0  0  0
  2 13  1  0  0  0  0
  2 19  1  0  0  0  0
  3 10  1  0  0  0  0
  4 20  2  0  0  0  0
  5  1  1  0  0  0  0
  6  8  2  0  0  0  0
  7 15  1  1  0  0  0
  7  9  1  0  0  0  0
  8 12  1  0  0  0  0
  9 14  1  1  0  0  0
 10 21  2  0  0  0  0
 11 28  1  6  0  0  0
 11  5  1  0  0  0  0
 11  8  1  0  0  0  0
 12  4  1  0  0  0  0
 12 27  1  0  0  0  0
 13 18  2  0  0  0  0
 15 23  1  0  0  0  0
 16  2  2  0  0  0  0
 17  3  1  0  0  0  0
 18 25  1  0  0  0  0
 19 26  1  0  0  0  0
 20 17  1  0  0  0  0
 20 22  1  0  0  0  0
 22  9  1  0  0  0  0
 22 10  1  0  0  0  0
 23 14  1  0  0  0  0
 26 25  1  0  0  0  0
 26 17  2  0  0  0  0
 27 24  1  1  0  0  0
 27  7  1  0  0  0  0
 29 30  1  0  0  0  0
 30 28  1  0  0  0  0
M  END
>  <MODEL>
2

>  <REMARK>
 VINA RESULT:      -9.4      1.849      5.359
  Name = 
  2 active torsions:
  status: ('A' for Active; 'I' for Inactive)
    1  A    between atoms: C_11  and  C_28
    2  A    between atoms: C_28  and  C_30
                            x       y       z     vdW  Elec       q    Type
                         _______ _______ _______ _____ _____    ______ ____

>  <TORSDO>
F 2

$$$$
=
 OpenBabel11122410293D

 30 35  0  0  1  0  0  0  0  0999 V2000
  189.0360  177.7100  143.5050 C   0  0  0  0  0  0  0  0  0  0  0  0
  191.1900  177.1630  144.7860 C   0  0  0  0  0  0  0  0  0  0  0  0
  186.8050  177.6580  146.9580 N   0  0  0  0  0  2  0  0  0  0  0  0
  187.6360  177.9670  143.5040 C   0  0  0  0  0  0  0  0  0  0  0  0
  189.7790  177.8160  142.2000 C   0  0  0  0  0  2  0  0  0  0  0  0
  186.9640  178.0400  139.9320 O   0  0  0  0  0  0  0  0  0  0  0  0
  184.5830  178.2030  142.6980 C   0  0  1  0  0  3  0  0  0  0  0  0
  187.5940  177.9100  141.0180 C   0  0  0  0  0  0  0  0  0  0  0  0
  184.4210  178.0960  144.2060 C   0  0  2  0  0  3  0  0  0  0  0  0
  185.6020  177.8800  146.3860 C   0  0  0  0  0  0  0  0  0  0  0  0
  188.9580  177.2760  141.0320 C   0  0  1  0  0  3  0  0  0  0  0  0
  186.9830  178.2940  142.2620 N   0  0  0  0  0  0  0  0  0  0  0  0
  191.7940  176.7300  146.0490 C   0  0  0  0  0  3  0  0  0  0  0  0
  183.4900  179.2230  144.6000 C   0  0  0  0  0  2  0  0  0  0  0  0
  183.2760  178.8050  142.2040 C   0  0  0  0  0  2  0  0  0  0  0  0
  191.9270  177.2490  143.7690 O   0  0  0  0  0  0  0  0  0  0  0  0
  187.6390  177.6730  145.9050 C   0  0  0  0  0  0  0  0  0  0  0  0
  191.1010  176.7370  147.1860 C   0  0  0  0  0  3  0  0  0  0  0  0
  189.7300  177.4540  144.7260 C   0  0  0  0  0  0  0  0  0  0  0  0
  186.9560  177.9100  144.7390 C   0  0  0  0  0  0  0  0  0  0  0  0
  184.5350  177.8940  147.0570 O   0  0  0  0  0  0  0  0  0  0  0  0
  185.6380  178.0500  145.0380 N   0  0  0  0  0  0  0  0  0  0  0  0
  182.5640  179.3970  143.4130 C   0  0  0  0  0  2  0  0  0  0  0  0
  185.8920  180.4200  142.8910 C   0  0  0  0  0  1  0  0  0  0  0  0
  189.6890  177.2460  147.2780 C   0  0  0  0  0  2  0  0  0  0  0  0
  189.0100  177.4380  145.9440 C   0  0  0  0  0  0  0  0  0  0  0  0
  185.7470  179.0570  142.2190 C   0  0  2  0  0  3  0  0  0  0  0  0
  189.7160  177.4410  139.7110 C   0  0  0  0  0  2  0  0  0  0  0  0
  191.7030  176.4700  138.5930 C   0  0  0  0  0  1  0  0  0  0  0  0
  191.2030  177.1480  139.8500 C   0  0  0  0  0  2  0  0  0  0  0  0
  1 19  1  0  0  0  0
  2 13  1  0  0  0  0
  4  1  2  0  0  0  0
  4 20  1  0  0  0  0
  5  1  1  0  0  0  0
  6  8  2  0  0  0  0
  7 15  1  6  0  0  0
  7  9  1  0  0  0  0
  8 11  1  0  0  0  0
  8 12  1  0  0  0  0
  9 14  1  1  0  0  0
  9 22  1  0  0  0  0
 10  3  1  0  0  0  0
 10 21  2  0  0  0  0
 11 28  1  6  0  0  0
 11  5  1  0  0  0  0
 12  4  1  0  0  0  0
 13 18  2  0  0  0  0
 15 23  1  0  0  0  0
 16  2  2  0  0  0  0
 17 26  1  0  0  0  0
 17  3  1  0  0  0  0
 18 25  1  0  0  0  0
 19  2  1  0  0  0  0
 19 26  2  0  0  0  0
 20 22  1  0  0  0  0
 20 17  2  0  0  0  0
 22 10  1  0  0  0  0
 23 14  1  0  0  0  0
 26 25  1  0  0  0  0
 27 12  1  0  0  0  0
 27  7  1  0  0  0  0
 27 24  1  1  0  0  0
 28 30  1  0  0  0  0
 29 30  1  0  0  0  0
M  END
>  <MODEL>
3

>  <REMARK>
 VINA RESULT:      -8.9      1.640      6.813
  Name = 
  2 active torsions:
  status: ('A' for Active; 'I' for Inactive)
    1  A    between atoms: C_11  and  C_28
    2  A    between atoms: C_28  and  C_30
                            x       y       z     vdW  Elec       q    Type
                         _______ _______ _______ _____ _____    ______ ____

>  <TORSDO>
F 2

$$$$
=
 OpenBabel11122410293D

 30 35  0  0  1  0  0  0  0  0999 V2000
  184.9640  178.3560  141.6790 C   0  0  0  0  0  0  0  0  0  0  0  0
  182.5670  178.7720  140.8650 C   0  0  0  0  0  0  0  0  0  0  0  0
  183.8670  178.8580  145.6080 N   0  0  0  0  0  2  0  0  0  0  0  0
  185.8990  178.2390  142.7450 C   0  0  0  0  0  0  0  0  0  0  0  0
  185.4470  178.0900  140.2770 C   0  0  0  0  0  2  0  0  0  0  0  0
  189.0150  177.9940  140.8880 O   0  0  0  0  0  0  0  0  0  0  0  0
  188.5340  178.2530  144.5010 C   0  0  1  0  0  3  0  0  0  0  0  0
  187.7840  178.1340  141.1250 C   0  0  0  0  0  0  0  0  0  0  0  0
  187.5130  178.4750  145.6050 C   0  0  2  0  0  3  0  0  0  0  0  0
  185.0970  178.7180  146.1470 C   0  0  0  0  0  0  0  0  0  0  0  0
  186.8560  178.6290  140.0480 C   0  0  1  0  0  3  0  0  0  0  0  0
  187.2670  177.8950  142.4450 N   0  0  0  0  0  0  0  0  0  0  0  0
  181.2150  179.2260  141.2030 C   0  0  0  0  0  3  0  0  0  0  0  0
  187.8560  177.4750  146.6890 C   0  0  0  0  0  2  0  0  0  0  0  0
  189.7810  177.7510  145.2130 C   0  0  0  0  0  2  0  0  0  0  0  0
  182.8380  178.5460  139.6570 O   0  0  0  0  0  0  0  0  0  0  0  0
  184.0990  178.6910  144.2960 C   0  0  0  0  0  0  0  0  0  0  0  0
  180.8260  179.3640  142.4690 C   0  0  0  0  0  3  0  0  0  0  0  0
  183.5860  178.6230  141.9420 C   0  0  0  0  0  0  0  0  0  0  0  0
  185.4280  178.4450  144.0580 C   0  0  0  0  0  0  0  0  0  0  0  0
  185.3050  178.8540  147.3830 O   0  0  0  0  0  0  0  0  0  0  0  0
  186.0830  178.4560  145.2490 N   0  0  0  0  0  0  0  0  0  0  0  0
  189.3610  177.3140  146.6090 C   0  0  0  0  0  2  0  0  0  0  0  0
  187.5550  175.9350  143.9210 C   0  0  0  0  0  1  0  0  0  0  0  0
  181.7040  179.0040  143.6350 C   0  0  0  0  0  2  0  0  0  0  0  0
  183.1550  178.7910  143.2790 C   0  0  0  0  0  0  0  0  0  0  0  0
  188.1320  177.2580  143.4220 C   0  0  2  0  0  3  0  0  0  0  0  0
  187.3420  178.3030  138.6330 C   0  0  0  0  0  2  0  0  0  0  0  0
  186.3550  176.8700  136.8670 C   0  0  0  0  0  1  0  0  0  0  0  0
  186.1970  178.1620  137.6410 C   0  0  0  0  0  2  0  0  0  0  0  0
  1 19  2  0  0  0  0
  1  4  1  0  0  0  0
  2 13  1  0  0  0  0
  2 19  1  0  0  0  0
  3 10  1  0  0  0  0
  4 20  2  0  0  0  0
  5  1  1  0  0  0  0
  6  8  2  0  0  0  0
  7 15  1  1  0  0  0
  7  9  1  0  0  0  0
  8 12  1  0  0  0  0
  9 14  1  1  0  0  0
 10 21  2  0  0  0  0
 11 28  1  6  0  0  0
 11  5  1  0  0  0  0
 11  8  1  0  0  0  0
 12  4  1  0  0  0  0
 12 27  1  0  0  0  0
 13 18  2  0  0  0  0
 15 23  1  0  0  0  0
 16  2  2  0  0  0  0
 17  3  1  0  0  0  0
 18 25  1  0  0  0  0
 19 26  1  0  0  0  0
 20 17  1  0  0  0  0
 20 22  1  0  0  0  0
 22  9  1  0  0  0  0
 22 10  1  0  0  0  0
 23 14  1  0  0  0  0
 26 25  1  0  0  0  0
 26 17  2  0  0  0  0
 27 24  1  1  0  0  0
 27  7  1  0  0  0  0
 29 30  1  0  0  0  0
 30 28  1  0  0  0  0
M  END
>  <MODEL>
4

>  <REMARK>
 VINA RESULT:      -8.8      2.185      5.806
  Name = 
  2 active torsions:
  status: ('A' for Active; 'I' for Inactive)
    1  A    between atoms: C_11  and  C_28
    2  A    between atoms: C_28  and  C_30
                            x       y       z     vdW  Elec       q    Type
                         _______ _______ _______ _____ _____    ______ ____

>  <TORSDO>
F 2

$$$$
=
 OpenBabel11122410293D

 30 35  0  0  1  0  0  0  0  0999 V2000
  188.1040  177.6560  142.0840 C   0  0  0  0  0  0  0  0  0  0  0  0
  188.9220  177.1790  144.4680 C   0  0  0  0  0  0  0  0  0  0  0  0
  191.8130  176.8550  140.5010 N   0  0  0  0  0  2  0  0  0  0  0  0
  188.3620  177.7320  140.6860 C   0  0  0  0  0  0  0  0  0  0  0  0
  186.6970  177.9030  142.5620 C   0  0  0  0  0  2  0  0  0  0  0  0
  185.2510  179.1960  139.5040 O   0  0  0  0  0  0  0  0  0  0  0  0
  188.3000  178.5010  137.6150 C   0  0  1  0  0  3  0  0  0  0  0  0
  186.1280  178.7550  140.2970 C   0  0  0  0  0  0  0  0  0  0  0  0
  189.7490  178.0490  137.7160 C   0  0  2  0  0  3  0  0  0  0  0  0
  191.5140  177.1400  139.2160 C   0  0  0  0  0  0  0  0  0  0  0  0
  186.0160  179.0180  141.7740 C   0  0  1  0  0  3  0  0  0  0  0  0
  187.2820  178.0630  139.7900 N   0  0  0  0  0  0  0  0  0  0  0  0
  190.0680  176.9450  145.3520 C   0  0  0  0  0  3  0  0  0  0  0  0
  189.9600  177.0910  136.5630 C   0  0  0  0  0  2  0  0  0  0  0  0
  187.9710  178.4390  136.1310 C   0  0  0  0  0  2  0  0  0  0  0  0
  187.7860  177.3340  144.9880 O   0  0  0  0  0  0  0  0  0  0  0  0
  190.6440  177.0660  141.1300 C   0  0  0  0  0  0  0  0  0  0  0  0
  191.2710  176.6510  144.8630 C   0  0  0  0  0  3  0  0  0  0  0  0
  189.1300  177.2610  142.9950 C   0  0  0  0  0  0  0  0  0  0  0  0
  189.6720  177.4540  140.2430 C   0  0  0  0  0  0  0  0  0  0  0  0
  192.3820  177.1010  138.3030 O   0  0  0  0  0  0  0  0  0  0  0  0
  190.2220  177.5010  139.0010 N   0  0  0  0  0  0  0  0  0  0  0  0
  189.0490  177.5970  135.4630 C   0  0  0  0  0  2  0  0  0  0  0  0
  187.4150  176.1540  138.2270 C   0  0  0  0  0  1  0  0  0  0  0  0
  191.5320  176.4690  143.3940 C   0  0  0  0  0  2  0  0  0  0  0  0
  190.4210  176.9610  142.4990 C   0  0  0  0  0  0  0  0  0  0  0  0
  187.2930  177.6670  138.3920 C   0  0  2  0  0  3  0  0  0  0  0  0
  184.5720  179.2160  142.2460 C   0  0  0  0  0  2  0  0  0  0  0  0
  182.9190  178.9580  144.0740 C   0  0  0  0  0  1  0  0  0  0  0  0
  184.3170  178.6020  143.6140 C   0  0  0  0  0  2  0  0  0  0  0  0
  1  5  1  0  0  0  0
  1 19  1  0  0  0  0
  2 16  2  0  0  0  0
  2 13  1  0  0  0  0
  3 17  1  0  0  0  0
  4  1  2  0  0  0  0
  6  8  2  0  0  0  0
  7 15  1  6  0  0  0
  7  9  1  0  0  0  0
  7 27  1  0  0  0  0
  8 11  1  0  0  0  0
  9 14  1  6  0  0  0
  9 22  1  0  0  0  0
 10  3  1  0  0  0  0
 11 28  1  1  0  0  0
 11  5  1  0  0  0  0
 12  8  1  0  0  0  0
 12  4  1  0  0  0  0
 17 26  1  0  0  0  0
 18 13  2  0  0  0  0
 19  2  1  0  0  0  0
 20  4  1  0  0  0  0
 20 17  2  0  0  0  0
 21 10  2  0  0  0  0
 22 10  1  0  0  0  0
 22 20  1  0  0  0  0
 23 15  1  0  0  0  0
 23 14  1  0  0  0  0
 25 18  1  0  0  0  0
 26 19  2  0  0  0  0
 26 25  1  0  0  0  0
 27 24  1  1  0  0  0
 27 12  1  0  0  0  0
 28 30  1  0  0  0  0
 30 29  1  0  0  0  0
M  END
>  <MODEL>
5

>  <REMARK>
 VINA RESULT:      -8.8      2.456      5.843
  Name = 
  2 active torsions:
  status: ('A' for Active; 'I' for Inactive)
    1  A    between atoms: C_11  and  C_28
    2  A    between atoms: C_28  and  C_30
                            x       y       z     vdW  Elec       q    Type
                         _______ _______ _______ _____ _____    ______ ____

>  <TORSDO>
F 2

$$$$
=
 OpenBabel11122410293D

 30 35  0  0  1  0  0  0  0  0999 V2000
  189.5390  177.5850  142.4450 C   0  0  0  0  0  0  0  0  0  0  0  0
  191.0490  177.1590  140.4150 C   0  0  0  0  0  0  0  0  0  0  0  0
  186.3690  178.6270  140.0440 N   0  0  0  0  0  2  0  0  0  0  0  0
  188.2750  177.9590  142.9820 C   0  0  0  0  0  0  0  0  0  0  0  0
  190.6200  177.1560  143.4020 C   0  0  0  0  0  2  0  0  0  0  0  0
  189.0750  178.1510  146.5230 O   0  0  0  0  0  0  0  0  0  0  0  0
  185.9610  179.0580  144.8430 C   0  0  1  0  0  3  0  0  0  0  0  0
  189.2290  178.0060  145.2790 C   0  0  0  0  0  0  0  0  0  0  0  0
  185.2840  179.2380  143.4930 C   0  0  2  0  0  3  0  0  0  0  0  0
  185.5040  178.9410  141.0320 C   0  0  0  0  0  0  0  0  0  0  0  0
  190.6100  177.9870  144.6820 C   0  0  1  0  0  3  0  0  0  0  0  0
  188.0840  177.9340  144.4110 N   0  0  0  0  0  0  0  0  0  0  0  0
  191.2320  177.3000  138.9680 C   0  0  0  0  0  3  0  0  0  0  0  0
  183.9070  178.6270  143.6410 C   0  0  0  0  0  2  0  0  0  0  0  0
  184.8270  179.0750  145.8570 C   0  0  0  0  0  2  0  0  0  0  0  0
  192.0200  176.7540  141.1060 O   0  0  0  0  0  0  0  0  0  0  0  0
  187.4640  178.2440  140.7220 C   0  0  0  0  0  0  0  0  0  0  0  0
  190.2140  177.6030  138.1660 C   0  0  0  0  0  3  0  0  0  0  0  0
  189.7440  177.5270  141.0330 C   0  0  0  0  0  0  0  0  0  0  0  0
  187.2550  178.3150  142.0760 C   0  0  0  0  0  0  0  0  0  0  0  0
  184.3530  179.3960  140.7940 O   0  0  0  0  0  0  0  0  0  0  0  0
  185.9890  178.7600  142.2890 N   0  0  0  0  0  0  0  0  0  0  0  0
  183.5300  178.8600  145.0900 C   0  0  0  0  0  2  0  0  0  0  0  0
  186.0820  176.4940  144.5580 C   0  0  0  0  0  1  0  0  0  0  0  0
  188.8030  177.7550  138.6620 C   0  0  0  0  0  2  0  0  0  0  0  0
  188.6800  177.8630  140.1630 C   0  0  0  0  0  0  0  0  0  0  0  0
  186.7700  177.7800  145.0100 C   0  0  2  0  0  3  0  0  0  0  0  0
  191.6850  177.5000  145.6580 C   0  0  0  0  0  2  0  0  0  0  0  0
  192.0630  175.6330  147.2430 C   0  0  0  0  0  1  0  0  0  0  0  0
  191.6800  175.9870  145.8220 C   0  0  0  0  0  2  0  0  0  0  0  0
  1  4  1  0  0  0  0
  1  5  1  0  0  0  0
  2 19  1  0  0  0  0
  2 16  2  0  0  0  0
  3 17  1  0  0  0  0
  3 10  1  0  0  0  0
  4 12  1  0  0  0  0
  5 11  1  0  0  0  0
  7 27  1  0  0  0  0
  7 15  1  1  0  0  0
  8  6  2  0  0  0  0
  9 14  1  1  0  0  0
  9  7  1  0  0  0  0
 10 22  1  0  0  0  0
 11  8  1  0  0  0  0
 11 28  1  1  0  0  0
 12 27  1  0  0  0  0
 12  8  1  0  0  0  0
 13  2  1  0  0  0  0
 14 23  1  0  0  0  0
 17 20  1  0  0  0  0
 18 25  1  0  0  0  0
 18 13  2  0  0  0  0
 19  1  2  0  0  0  0
 20 22  1  0  0  0  0
 20  4  2  0  0  0  0
 21 10  2  0  0  0  0
 22  9  1  0  0  0  0
 23 15  1  0  0  0  0
 25 26  1  0  0  0  0
 26 17  2  0  0  0  0
 26 19  1  0  0  0  0
 27 24  1  6  0  0  0
 28 30  1  0  0  0  0
 30 29  1  0  0  0  0
M  END
>  <MODEL>
6

>  <REMARK>
 VINA RESULT:      -8.7      1.984      5.513
  Name = 
  2 active torsions:
  status: ('A' for Active; 'I' for Inactive)
    1  A    between atoms: C_11  and  C_28
    2  A    between atoms: C_28  and  C_30
                            x       y       z     vdW  Elec       q    Type
                         _______ _______ _______ _____ _____    ______ ____

>  <TORSDO>
F 2

$$$$
=
 OpenBabel11122410293D

 30 35  0  0  1  0  0  0  0  0999 V2000
  186.4160  178.0970  142.8050 C   0  0  0  0  0  0  0  0  0  0  0  0
  188.7690  177.5700  143.6810 C   0  0  0  0  0  0  0  0  0  0  0  0
  187.7460  178.2430  138.9170 N   0  0  0  0  0  2  0  0  0  0  0  0
  185.5390  178.3620  141.7160 C   0  0  0  0  0  0  0  0  0  0  0  0
  185.8250  177.9980  144.1860 C   0  0  0  0  0  2  0  0  0  0  0  0
  182.4990  179.2540  143.4970 O   0  0  0  0  0  0  0  0  0  0  0  0
  183.1560  179.3970  139.9060 C   0  0  1  0  0  3  0  0  0  0  0  0
  183.7010  178.9300  143.2920 C   0  0  0  0  0  0  0  0  0  0  0  0
  184.2210  179.2480  138.8310 C   0  0  2  0  0  3  0  0  0  0  0  0
  186.5700  178.5840  138.3480 C   0  0  0  0  0  0  0  0  0  0  0  0
  184.7110  179.0190  144.4030 C   0  0  1  0  0  3  0  0  0  0  0  0
  184.1330  178.5460  141.9750 N   0  0  0  0  0  0  0  0  0  0  0  0
  190.2030  177.4950  143.3870 C   0  0  0  0  0  3  0  0  0  0  0  0
  183.5640  178.4720  137.7090 C   0  0  0  0  0  2  0  0  0  0  0  0
  181.8350  179.4120  139.1520 C   0  0  0  0  0  2  0  0  0  0  0  0
  188.3950  177.4340  144.8760 O   0  0  0  0  0  0  0  0  0  0  0  0
  187.4270  178.1440  140.2190 C   0  0  0  0  0  0  0  0  0  0  0  0
  190.6550  177.5060  142.1350 C   0  0  0  0  0  3  0  0  0  0  0  0
  187.8020  177.8370  142.5790 C   0  0  0  0  0  0  0  0  0  0  0  0
  186.0950  178.4070  140.4200 C   0  0  0  0  0  0  0  0  0  0  0  0
  186.4660  178.8160  137.1140 O   0  0  0  0  0  0  0  0  0  0  0  0
  185.5290  178.6880  139.2160 N   0  0  0  0  0  0  0  0  0  0  0  0
  182.1060  178.8830  137.7510 C   0  0  0  0  0  2  0  0  0  0  0  0
  183.1830  176.8690  140.4300 C   0  0  0  0  0  1  0  0  0  0  0  0
  189.7440  177.5270  140.9390 C   0  0  0  0  0  2  0  0  0  0  0  0
  188.3080  177.8620  141.2580 C   0  0  0  0  0  0  0  0  0  0  0  0
  183.1240  178.2990  140.9600 C   0  0  2  0  0  3  0  0  0  0  0  0
  184.0940  178.8650  145.7960 C   0  0  0  0  0  2  0  0  0  0  0  0
  186.0200  179.3090  147.2920 C   0  0  0  0  0  1  0  0  0  0  0  0
  185.0600  178.2480  146.7970 C   0  0  0  0  0  2  0  0  0  0  0  0
  1  5  1  0  0  0  0
  2 16  2  0  0  0  0
  3 17  1  0  0  0  0
  4 12  1  0  0  0  0
  4  1  2  0  0  0  0
  5 11  1  0  0  0  0
  7 15  1  6  0  0  0
  7 27  1  0  0  0  0
  8  6  2  0  0  0  0
  8 11  1  0  0  0  0
  9 14  1  6  0  0  0
  9 22  1  0  0  0  0
  9  7  1  0  0  0  0
 10  3  1  0  0  0  0
 10 22  1  0  0  0  0
 11 28  1  1  0  0  0
 12  8  1  0  0  0  0
 13  2  1  0  0  0  0
 14 23  1  0  0  0  0
 17 20  2  0  0  0  0
 17 26  1  0  0  0  0
 18 13  2  0  0  0  0
 19  1  1  0  0  0  0
 19  2  1  0  0  0  0
 20  4  1  0  0  0  0
 21 10  2  0  0  0  0
 22 20  1  0  0  0  0
 23 15  1  0  0  0  0
 25 26  1  0  0  0  0
 25 18  1  0  0  0  0
 26 19  2  0  0  0  0
 27 24  1  6  0  0  0
 27 12  1  0  0  0  0
 28 30  1  0  0  0  0
 30 29  1  0  0  0  0
M  END
>  <MODEL>
7

>  <REMARK>
 VINA RESULT:      -8.7      2.320      5.921
  Name = 
  2 active torsions:
  status: ('A' for Active; 'I' for Inactive)
    1  A    between atoms: C_11  and  C_28
    2  A    between atoms: C_28  and  C_30
                            x       y       z     vdW  Elec       q    Type
                         _______ _______ _______ _____ _____    ______ ____

>  <TORSDO>
F 2

$$$$
=
 OpenBabel11122410293D

 30 35  0  0  1  0  0  0  0  0999 V2000
  187.5810  177.8360  142.8750 C   0  0  0  0  0  0  0  0  0  0  0  0
  186.3840  178.3060  145.0950 C   0  0  0  0  0  0  0  0  0  0  0  0
  184.2830  178.9670  140.6970 N   0  0  0  0  0  2  0  0  0  0  0  0
  187.5730  177.8200  141.4520 C   0  0  0  0  0  0  0  0  0  0  0  0
  188.8580  177.4670  143.5840 C   0  0  0  0  0  2  0  0  0  0  0  0
  190.7340  176.1540  140.7780 O   0  0  0  0  0  0  0  0  0  0  0  0
  188.1300  177.1370  138.4110 C   0  0  1  0  0  3  0  0  0  0  0  0
  189.7620  176.6390  141.4220 C   0  0  0  0  0  0  0  0  0  0  0  0
  186.7230  177.6970  138.2730 C   0  0  2  0  0  3  0  0  0  0  0  0
  184.7860  178.6970  139.4740 C   0  0  0  0  0  0  0  0  0  0  0  0
  189.5890  176.3250  142.8830 C   0  0  1  0  0  3  0  0  0  0  0  0
  188.7700  177.4330  140.7480 N   0  0  0  0  0  0  0  0  0  0  0  0
  185.1180  178.6020  145.7710 C   0  0  0  0  0  3  0  0  0  0  0  0
  186.7910  178.7010  137.1420 C   0  0  0  0  0  2  0  0  0  0  0  0
  188.7240  177.2160  137.0130 C   0  0  0  0  0  2  0  0  0  0  0  0
  187.3940  178.0480  145.8010 O   0  0  0  0  0  0  0  0  0  0  0  0
  185.3020  178.6480  141.5130 C   0  0  0  0  0  0  0  0  0  0  0  0
  184.0460  179.0030  145.0900 C   0  0  0  0  0  3  0  0  0  0  0  0
  186.4390  178.2830  143.6060 C   0  0  0  0  0  0  0  0  0  0  0  0
  186.3870  178.2110  140.7970 C   0  0  0  0  0  0  0  0  0  0  0  0
  184.1010  178.8280  138.4250 O   0  0  0  0  0  0  0  0  0  0  0  0
  186.0680  178.2430  139.4760 N   0  0  0  0  0  0  0  0  0  0  0  0
  187.8460  178.1580  136.2000 C   0  0  0  0  0  2  0  0  0  0  0  0
  189.0560  179.3900  139.2670 C   0  0  0  0  0  1  0  0  0  0  0  0
  184.0660  179.2470  143.6070 C   0  0  0  0  0  2  0  0  0  0  0  0
  185.2820  178.6960  142.9030 C   0  0  0  0  0  0  0  0  0  0  0  0
  189.0380  177.8680  139.3880 C   0  0  2  0  0  3  0  0  0  0  0  0
  190.9060  176.0030  143.5940 C   0  0  0  0  0  2  0  0  0  0  0  0
  191.6800  176.3790  145.9180 C   0  0  0  0  0  1  0  0  0  0  0  0
  191.2870  177.0570  144.6230 C   0  0  0  0  0  2  0  0  0  0  0  0
  1  5  1  0  0  0  0
  1 19  1  0  0  0  0
  2 13  1  0  0  0  0
  2 16  2  0  0  0  0
  3 17  1  0  0  0  0
  4  1  2  0  0  0  0
  6  8  2  0  0  0  0
  7 15  1  6  0  0  0
  7 27  1  0  0  0  0
  8 11  1  0  0  0  0
  9 14  1  6  0  0  0
  9  7  1  0  0  0  0
  9 22  1  0  0  0  0
 10 22  1  0  0  0  0
 10  3  1  0  0  0  0
 11  5  1  0  0  0  0
 11 28  1  1  0  0  0
 12  8  1  0  0  0  0
 12  4  1  0  0  0  0
 17 26  1  0  0  0  0
 18 13  2  0  0  0  0
 19  2  1  0  0  0  0
 20  4  1  0  0  0  0
 20 17  2  0  0  0  0
 21 10  2  0  0  0  0
 22 20  1  0  0  0  0
 23 15  1  0  0  0  0
 23 14  1  0  0  0  0
 25 18  1  0  0  0  0
 26 19  2  0  0  0  0
 26 25  1  0  0  0  0
 27 24  1  1  0  0  0
 27 12  1  0  0  0  0
 28 30  1  0  0  0  0
 30 29  1  0  0  0  0
M  END
>  <MODEL>
8

>  <REMARK>
 VINA RESULT:      -8.6      2.236      3.842
  Name = 
  2 active torsions:
  status: ('A' for Active; 'I' for Inactive)
    1  A    between atoms: C_11  and  C_28
    2  A    between atoms: C_28  and  C_30
                            x       y       z     vdW  Elec       q    Type
                         _______ _______ _______ _____ _____    ______ ____

>  <TORSDO>
F 2

$$$$
=
 OpenBabel11122410293D

 30 35  0  0  1  0  0  0  0  0999 V2000
  186.1620  178.4570  140.3390 C   0  0  0  0  0  0  0  0  0  0  0  0
  187.6760  178.2630  138.2770 C   0  0  0  0  0  0  0  0  0  0  0  0
  189.2500  177.4820  142.8720 N   0  0  0  0  0  2  0  0  0  0  0  0
  185.9890  178.3880  141.7500 C   0  0  0  0  0  0  0  0  0  0  0  0
  184.9880  178.8870  139.4990 C   0  0  0  0  0  2  0  0  0  0  0  0
  182.3790  178.7380  142.0070 O   0  0  0  0  0  0  0  0  0  0  0  0
  184.7890  178.0200  144.6580 C   0  0  1  0  0  3  0  0  0  0  0  0
  183.5260  178.6240  141.4920 C   0  0  0  0  0  0  0  0  0  0  0  0
  186.2440  177.6970  144.9600 C   0  0  2  0  0  3  0  0  0  0  0  0
  188.5390  177.4930  144.0190 C   0  0  0  0  0  0  0  0  0  0  0  0
  183.6730  178.3200  140.0260 C   0  0  1  0  0  3  0  0  0  0  0  0
  184.7020  178.7060  142.3160 N   0  0  0  0  0  0  0  0  0  0  0  0
  188.9670  177.8290  137.7360 C   0  0  0  0  0  3  0  0  0  0  0  0
  186.6040  178.5270  146.1740 C   0  0  0  0  0  2  0  0  0  0  0  0
  184.1740  178.3650  146.0050 C   0  0  0  0  0  2  0  0  0  0  0  0
  186.7840  178.6360  137.4720 O   0  0  0  0  0  0  0  0  0  0  0  0
  188.3300  177.8140  141.9510 C   0  0  0  0  0  0  0  0  0  0  0  0
  189.9920  177.5400  138.5360 C   0  0  0  0  0  3  0  0  0  0  0  0
  187.4400  178.2200  139.7480 C   0  0  0  0  0  0  0  0  0  0  0  0
  187.1060  178.0290  142.5330 C   0  0  0  0  0  0  0  0  0  0  0  0
  189.0520  177.1840  145.1280 O   0  0  0  0  0  0  0  0  0  0  0  0
  187.2300  177.8290  143.8720 N   0  0  0  0  0  0  0  0  0  0  0  0
  185.3190  178.6290  146.9720 C   0  0  0  0  0  2  0  0  0  0  0  0
  185.3630  180.4360  143.9520 C   0  0  0  0  0  1  0  0  0  0  0  0
  189.9320  177.7000  140.0290 C   0  0  0  0  0  2  0  0  0  0  0  0
  188.5390  177.8940  140.5770 C   0  0  0  0  0  0  0  0  0  0  0  0
  184.5560  179.1680  143.6860 C   0  0  2  0  0  3  0  0  0  0  0  0
  182.4910  178.8110  139.1850 C   0  0  0  0  0  2  0  0  0  0  0  0
  181.3210  180.9450  138.7170 C   0  0  0  0  0  1  0  0  0  0  0  0
  182.6650  180.2490  138.7180 C   0  0  0  0  0  2  0  0  0  0  0  0
  1  4  1  0  0  0  0
  2 19  1  0  0  0  0
  3 10  1  0  0  0  0
  4 12  1  0  0  0  0
  4 20  2  0  0  0  0
  5 11  1  0  0  0  0
  5  1  1  0  0  0  0
  7  9  1  0  0  0  0
  7 15  1  1  0  0  0
  8  6  2  0  0  0  0
  8 12  1  0  0  0  0
  9 14  1  1  0  0  0
 10 21  2  0  0  0  0
 11 28  1  6  0  0  0
 11  8  1  0  0  0  0
 12 27  1  0  0  0  0
 13  2  1  0  0  0  0
 13 18  2  0  0  0  0
 14 23  1  0  0  0  0
 15 23  1  0  0  0  0
 16  2  2  0  0  0  0
 17 20  1  0  0  0  0
 17  3  1  0  0  0  0
 18 25  1  0  0  0  0
 19  1  2  0  0  0  0
 19 26  1  0  0  0  0
 20 22  1  0  0  0  0
 22 10  1  0  0  0  0
 22  9  1  0  0  0  0
 25 26  1  0  0  0  0
 26 17  2  0  0  0  0
 27 24  1  1  0  0  0
 27  7  1  0  0  0  0
 29 30  1  0  0  0  0
 30 28  1  0  0  0  0
M  END
>  <MODEL>
9

>  <REMARK>
 VINA RESULT:      -8.3      2.253      7.210
  Name = 
  2 active torsions:
  status: ('A' for Active; 'I' for Inactive)
    1  A    between atoms: C_11  and  C_28
    2  A    between atoms: C_28  and  C_30
                            x       y       z     vdW  Elec       q    Type
                         _______ _______ _______ _____ _____    ______ ____

>  <TORSDO>
F 2

$$$$
