=
 OpenBabel11122410483D

 32 37  0  0  1  0  0  0  0  0999 V2000
  184.8420  178.6560  140.6670 C   0  0  0  0  0  0  0  0  0  0  0  0
  183.8650  178.9110  145.4260 C   0  0  0  0  0  3  0  0  0  0  0  0
  185.2230  178.4300  145.7450 C   0  0  0  0  0  3  0  0  0  0  0  0
  187.1700  178.2620  139.8890 C   0  0  0  0  0  0  0  0  0  0  0  0
  188.5920  178.5620  140.2750 C   0  0  2  0  0  3  0  0  0  0  0  0
  183.0850  179.1840  138.9880 C   0  0  2  0  0  3  0  0  0  0  0  0
  182.5310  179.2540  141.4300 C   0  0  0  0  0  2  0  0  0  0  0  0
  190.2050  177.5730  141.6670 N   0  0  0  0  0  0  0  0  0  0  0  0
  183.3950  178.8690  144.1740 C   0  0  0  0  0  3  0  0  0  0  0  0
  183.8890  178.8020  141.7400 N   0  0  0  0  0  0  0  0  0  0  0  0
  184.1870  178.2270  143.0590 C   0  0  1  0  0  3  0  0  0  0  0  0
  186.5710  178.2140  142.3590 C   0  0  0  0  0  0  0  0  0  0  0  0
  190.7530  177.4470  140.3810 N   0  0  0  0  0  2  0  0  0  0  0  0
  182.0730  178.7610  140.0580 C   0  0  2  0  0  3  0  0  0  0  0  0
  189.6610  177.8230  139.4640 C   0  0  0  0  0  2  0  0  0  0  0  0
  186.0850  178.1160  144.7760 C   0  0  0  0  0  3  0  0  0  0  0  0
  185.6730  178.2190  143.3590 C   0  0  0  0  0  0  0  0  0  0  0  0
  188.0070  177.9650  142.6210 C   0  0  0  0  0  3  0  0  0  0  0  0
  184.4150  178.7970  139.3400 O   0  0  0  0  0  0  0  0  0  0  0  0
  186.8750  178.0200  138.6880 O   0  0  0  0  0  0  0  0  0  0  0  0
  190.8770  177.0640  142.8500 C   0  0  0  0  0  1  0  0  0  0  0  0
  186.1280  178.3650  140.9430 C   0  0  0  0  0  0  0  0  0  0  0  0
  188.9030  178.1060  141.6400 C   0  0  0  0  0  0  0  0  0  0  0  0
  180.5060  176.8960  140.5660 C   0  0  0  0  0  2  0  0  0  0  0  0
  181.8910  177.2490  140.0610 C   0  0  1  0  0  3  0  0  0  0  0  0
  180.7970  176.8730  139.0800 C   0  0  1  0  0  3  0  0  0  0  0  0
  181.0150  175.4430  138.6280 C   0  0  0  0  0  2  0  0  0  0  0  0
  179.7030  174.7610  138.4510 C   0  0  0  0  0  0  0  0  0  0  0  0
  179.3150  173.7630  139.3340 O   0  0  0  0  0  1  0  0  0  0  0  0
  178.9310  175.1150  137.5230 O   0  0  0  0  0  0  0  0  0  0  0  0
  181.6010  181.0890  138.3750 C   0  0  0  0  0  1  0  0  0  0  0  0
  183.0140  180.6850  138.7510 C   0  0  0  0  0  2  0  0  0  0  0  0
  1 22  2  0  0  0  0
  1 10  1  0  0  0  0
  2  3  1  0  0  0  0
  4  5  1  0  0  0  0
  4 22  1  0  0  0  0
  5 15  1  6  0  0  0
  5 23  1  0  0  0  0
  6 32  1  1  0  0  0
  6 19  1  0  0  0  0
  6 14  1  0  0  0  0
  7 10  1  0  0  0  0
  8 21  1  0  0  0  0
  9  2  2  0  0  0  0
 10 11  1  0  0  0  0
 11 17  1  0  0  0  0
 11  9  1  1  0  0  0
 12 18  1  0  0  0  0
 12 17  2  0  0  0  0
 13  8  1  0  0  0  0
 14 25  1  0  0  0  0
 14  7  1  1  0  0  0
 15 13  1  0  0  0  0
 16  3  2  0  0  0  0
 17 16  1  0  0  0  0
 19  1  1  0  0  0  0
 20  4  2  0  0  0  0
 22 12  1  0  0  0  0
 23  8  1  0  0  0  0
 23 18  2  0  0  0  0
 25 24  1  1  0  0  0
 26 27  1  1  0  0  0
 26 25  1  0  0  0  0
 26 24  1  0  0  0  0
 28 27  1  0  0  0  0
 28 29  1  0  0  0  0
 30 28  2  0  0  0  0
 31 32  1  0  0  0  0
M  END
>  <MODEL>
1

>  <REMARK>
 VINA RESULT:      -8.0      0.000      0.000
  Name = 
  4 active torsions:
  status: ('A' for Active; 'I' for Inactive)
    1  A    between atoms: C_7  and  C_19
    2  A    between atoms: C_10  and  C_17
    3  A    between atoms: C_20  and  C_29
    4  A    between atoms: C_29  and  C_30
                            x       y       z     vdW  Elec       q    Type
                         _______ _______ _______ _____ _____    ______ ____

>  <TORSDO>
F 4

$$$$
=
 OpenBabel11122410483D

 32 37  0  0  1  0  0  0  0  0999 V2000
  182.8580  177.0280  139.1520 C   0  0  0  0  0  0  0  0  0  0  0  0
  186.7560  177.8510  136.3610 C   0  0  0  0  0  3  0  0  0  0  0  0
  186.6210  176.5140  135.7510 C   0  0  0  0  0  3  0  0  0  0  0  0
  181.4200  175.0430  138.7360 C   0  0  0  0  0  0  0  0  0  0  0  0
  180.9300  174.1780  137.6080 C   0  0  2  0  0  3  0  0  0  0  0  0
  182.1260  178.7150  140.8250 C   0  0  2  0  0  3  0  0  0  0  0  0
  184.1790  179.1370  139.4540 C   0  0  0  0  0  2  0  0  0  0  0  0
  181.7330  172.2950  136.4570 N   0  0  0  0  0  0  0  0  0  0  0  0
  186.0440  178.1930  137.4400 C   0  0  0  0  0  3  0  0  0  0  0  0
  184.0220  177.8180  138.8340 N   0  0  0  0  0  0  0  0  0  0  0  0
  185.1600  177.1920  138.1470 C   0  0  1  0  0  3  0  0  0  0  0  0
  183.5710  175.4190  137.4350 C   0  0  0  0  0  0  0  0  0  0  0  0
  180.5810  171.8230  137.1020 N   0  0  0  0  0  2  0  0  0  0  0  0
  183.5880  179.1710  140.8630 C   0  0  2  0  0  3  0  0  0  0  0  0
  180.1970  172.9020  138.0320 C   0  0  0  0  0  2  0  0  0  0  0  0
  185.6570  175.6780  136.1410 C   0  0  0  0  0  3  0  0  0  0  0  0
  184.7240  176.0750  137.2190 C   0  0  0  0  0  0  0  0  0  0  0  0
  183.2470  174.1790  136.6930 C   0  0  0  0  0  3  0  0  0  0  0  0
  181.9820  177.4610  140.1560 O   0  0  0  0  0  0  0  0  0  0  0  0
  180.7640  175.1210  139.8090 O   0  0  0  0  0  0  0  0  0  0  0  0
  182.5690  171.4360  135.6350 C   0  0  0  0  0  1  0  0  0  0  0  0
  182.6310  175.8720  138.5000 C   0  0  0  0  0  0  0  0  0  0  0  0
  182.0390  173.6210  136.8160 C   0  0  0  0  0  0  0  0  0  0  0  0
  185.8560  178.7200  141.7800 C   0  0  0  0  0  2  0  0  0  0  0  0
  184.4000  178.2980  141.8100 C   0  0  1  0  0  3  0  0  0  0  0  0
  184.9660  179.1560  142.9240 C   0  0  1  0  0  3  0  0  0  0  0  0
  185.2270  178.2810  144.1330 C   0  0  0  0  0  2  0  0  0  0  0  0
  184.6930  178.9370  145.3590 C   0  0  0  0  0  0  0  0  0  0  0  0
  185.5670  179.4140  146.3270 O   0  0  0  0  0  1  0  0  0  0  0  0
  183.4520  179.0920  145.5000 O   0  0  0  0  0  0  0  0  0  0  0  0
  180.0490  180.0760  141.0330 C   0  0  0  0  0  1  0  0  0  0  0  0
  181.2540  179.7730  140.1640 C   0  0  0  0  0  2  0  0  0  0  0  0
  1 19  1  0  0  0  0
  2  9  2  0  0  0  0
  3 16  2  0  0  0  0
  3  2  1  0  0  0  0
  4 20  2  0  0  0  0
  5 15  1  1  0  0  0
  5  4  1  0  0  0  0
  6 32  1  6  0  0  0
  6 14  1  0  0  0  0
  8 23  1  0  0  0  0
  8 13  1  0  0  0  0
 10  1  1  0  0  0  0
 10  7  1  0  0  0  0
 11  9  1  6  0  0  0
 11 10  1  0  0  0  0
 12 22  1  0  0  0  0
 13 15  1  0  0  0  0
 14  7  1  6  0  0  0
 14 25  1  0  0  0  0
 16 17  1  0  0  0  0
 17 12  2  0  0  0  0
 17 11  1  0  0  0  0
 18 23  2  0  0  0  0
 18 12  1  0  0  0  0
 19  6  1  0  0  0  0
 21  8  1  0  0  0  0
 22  4  1  0  0  0  0
 22  1  2  0  0  0  0
 23  5  1  0  0  0  0
 24 26  1  0  0  0  0
 25 24  1  6  0  0  0
 25 26  1  0  0  0  0
 26 27  1  1  0  0  0
 27 28  1  0  0  0  0
 28 30  2  0  0  0  0
 28 29  1  0  0  0  0
 32 31  1  0  0  0  0
M  END
>  <MODEL>
2

>  <REMARK>
 VINA RESULT:      -6.8      3.694      7.605
  Name = 
  4 active torsions:
  status: ('A' for Active; 'I' for Inactive)
    1  A    between atoms: C_7  and  C_19
    2  A    between atoms: C_10  and  C_17
    3  A    between atoms: C_20  and  C_29
    4  A    between atoms: C_29  and  C_30
                            x       y       z     vdW  Elec       q    Type
                         _______ _______ _______ _____ _____    ______ ____

>  <TORSDO>
F 4

$$$$
=
 OpenBabel11122410483D

 32 37  0  0  1  0  0  0  0  0999 V2000
  183.1810  178.5760  141.4570 C   0  0  0  0  0  0  0  0  0  0  0  0
  186.5640  177.9270  138.0220 C   0  0  0  0  0  3  0  0  0  0  0  0
  187.6340  178.0370  139.0340 C   0  0  0  0  0  3  0  0  0  0  0  0
  183.8150  178.5250  143.8610 C   0  0  0  0  0  0  0  0  0  0  0  0
  184.7880  177.8580  144.7930 C   0  0  2  0  0  3  0  0  0  0  0  0
  180.7730  178.6910  140.8500 C   0  0  2  0  0  3  0  0  0  0  0  0
  182.4960  178.4290  139.0500 C   0  0  0  0  0  2  0  0  0  0  0  0
  186.9940  178.2590  145.4940 N   0  0  0  0  0  0  0  0  0  0  0  0
  185.2990  178.2400  138.3200 C   0  0  0  0  0  3  0  0  0  0  0  0
  183.5500  178.5120  140.0650 N   0  0  0  0  0  0  0  0  0  0  0  0
  184.9290  178.8250  139.6630 C   0  0  1  0  0  3  0  0  0  0  0  0
  185.5660  178.3820  142.0240 C   0  0  0  0  0  0  0  0  0  0  0  0
  186.2390  178.4230  146.6640 N   0  0  0  0  0  2  0  0  0  0  0  0
  181.2420  179.1900  139.4790 C   0  0  2  0  0  3  0  0  0  0  0  0
  184.8350  178.4320  146.2120 C   0  0  0  0  0  2  0  0  0  0  0  0
  187.3440  178.2700  140.3150 C   0  0  0  0  0  3  0  0  0  0  0  0
  185.9360  178.4520  140.7330 C   0  0  0  0  0  0  0  0  0  0  0  0
  186.5730  178.2580  143.1020 C   0  0  0  0  0  3  0  0  0  0  0  0
  181.8320  178.7130  141.8080 O   0  0  0  0  0  0  0  0  0  0  0  0
  182.7270  178.9840  144.3000 O   0  0  0  0  0  0  0  0  0  0  0  0
  188.4360  178.4390  145.4690 C   0  0  0  0  0  1  0  0  0  0  0  0
  184.1330  178.5250  142.4090 C   0  0  0  0  0  0  0  0  0  0  0  0
  186.1840  178.0470  144.3630 C   0  0  0  0  0  0  0  0  0  0  0  0
  182.5280  181.0580  138.4550 C   0  0  0  0  0  2  0  0  0  0  0  0
  181.5060  180.6890  139.5130 C   0  0  1  0  0  3  0  0  0  0  0  0
  181.0560  181.3080  138.2040 C   0  0  1  0  0  3  0  0  0  0  0  0
  180.7440  182.7730  138.4360 C   0  0  0  0  0  2  0  0  0  0  0  0
  181.1350  183.5710  137.2410 C   0  0  0  0  0  0  0  0  0  0  0  0
  182.1100  184.5530  137.3510 O   0  0  0  0  0  1  0  0  0  0  0  0
  180.6080  183.3300  136.1240 O   0  0  0  0  0  0  0  0  0  0  0  0
  179.0940  177.2650  139.6860 C   0  0  0  0  0  1  0  0  0  0  0  0
  180.1880  177.2910  140.7360 C   0  0  0  0  0  2  0  0  0  0  0  0
  1 19  1  0  0  0  0
  1 22  2  0  0  0  0
  2  9  2  0  0  0  0
  2  3  1  0  0  0  0
  3 16  2  0  0  0  0
  4 20  2  0  0  0  0
  4  5  1  0  0  0  0
  5 15  1  1  0  0  0
  6 32  1  6  0  0  0
  6 19  1  0  0  0  0
  7 10  1  0  0  0  0
  8 13  1  0  0  0  0
 10  1  1  0  0  0  0
 11  9  1  6  0  0  0
 11 10  1  0  0  0  0
 11 17  1  0  0  0  0
 12 22  1  0  0  0  0
 12 18  1  0  0  0  0
 14  7  1  1  0  0  0
 14 25  1  0  0  0  0
 14  6  1  0  0  0  0
 15 13  1  0  0  0  0
 16 17  1  0  0  0  0
 17 12  2  0  0  0  0
 18 23  2  0  0  0  0
 21  8  1  0  0  0  0
 22  4  1  0  0  0  0
 23  5  1  0  0  0  0
 23  8  1  0  0  0  0
 25 24  1  6  0  0  0
 26 27  1  1  0  0  0
 26 24  1  0  0  0  0
 26 25  1  0  0  0  0
 28 29  1  0  0  0  0
 28 27  1  0  0  0  0
 30 28  2  0  0  0  0
 31 32  1  0  0  0  0
M  END
>  <MODEL>
3

>  <REMARK>
 VINA RESULT:      -6.8      2.819      5.523
  Name = 
  4 active torsions:
  status: ('A' for Active; 'I' for Inactive)
    1  A    between atoms: C_7  and  C_19
    2  A    between atoms: C_10  and  C_17
    3  A    between atoms: C_20  and  C_29
    4  A    between atoms: C_29  and  C_30
                            x       y       z     vdW  Elec       q    Type
                         _______ _______ _______ _____ _____    ______ ____

>  <TORSDO>
F 4

$$$$
=
 OpenBabel11122410483D

 32 37  0  0  1  0  0  0  0  0999 V2000
  188.2590  177.8090  141.0030 C   0  0  0  0  0  0  0  0  0  0  0  0
  183.7400  179.1040  142.2560 C   0  0  0  0  0  3  0  0  0  0  0  0
  184.0130  178.7510  143.6630 C   0  0  0  0  0  3  0  0  0  0  0  0
  189.9520  177.3220  142.7580 C   0  0  0  0  0  0  0  0  0  0  0  0
  190.3420  177.7460  144.1470 C   0  0  2  0  0  3  0  0  0  0  0  0
  188.9800  177.8880  138.6250 C   0  0  2  0  0  3  0  0  0  0  0  0
  186.6250  178.4920  139.2290 C   0  0  0  0  0  2  0  0  0  0  0  0
  189.7150  177.1480  146.3300 N   0  0  0  0  0  0  0  0  0  0  0  0
  184.5920  178.7650  141.2830 C   0  0  0  0  0  3  0  0  0  0  0  0
  186.9130  178.1640  140.6280 N   0  0  0  0  0  0  0  0  0  0  0  0
  185.8070  177.9120  141.5630 C   0  0  1  0  0  3  0  0  0  0  0  0
  187.5290  177.8160  143.3510 C   0  0  0  0  0  0  0  0  0  0  0  0
  191.0580  176.7520  146.2500 N   0  0  0  0  0  2  0  0  0  0  0  0
  187.5030  177.6870  138.2710 C   0  0  2  0  0  3  0  0  0  0  0  0
  191.4070  176.8770  144.8230 C   0  0  0  0  0  2  0  0  0  0  0  0
  185.1970  178.2530  144.0280 C   0  0  0  0  0  3  0  0  0  0  0  0
  186.2450  178.0190  143.0100 C   0  0  0  0  0  0  0  0  0  0  0  0
  187.9310  177.6780  144.7700 C   0  0  0  0  0  3  0  0  0  0  0  0
  189.2290  177.6320  140.0080 O   0  0  0  0  0  0  0  0  0  0  0  0
  190.8040  176.8050  141.9870 O   0  0  0  0  0  0  0  0  0  0  0  0
  188.9150  176.9420  147.5250 C   0  0  0  0  0  1  0  0  0  0  0  0
  188.5710  177.6290  142.3010 C   0  0  0  0  0  0  0  0  0  0  0  0
  189.2250  177.6210  145.0980 C   0  0  0  0  0  0  0  0  0  0  0  0
  186.0600  175.9160  137.2850 C   0  0  0  0  0  2  0  0  0  0  0  0
  187.1350  176.2100  138.3140 C   0  0  1  0  0  3  0  0  0  0  0  0
  187.5030  175.5620  136.9930 C   0  0  1  0  0  3  0  0  0  0  0  0
  187.7180  174.0790  137.2190 C   0  0  0  0  0  2  0  0  0  0  0  0
  189.0930  173.6950  136.7930 C   0  0  0  0  0  0  0  0  0  0  0  0
  190.1810  174.0130  137.5930 O   0  0  0  0  0  1  0  0  0  0  0  0
  189.2630  173.0480  135.7270 O   0  0  0  0  0  0  0  0  0  0  0  0
  189.0540  179.6020  136.8180 C   0  0  0  0  0  1  0  0  0  0  0  0
  189.4300  179.2940  138.2550 C   0  0  0  0  0  2  0  0  0  0  0  0
  1 22  2  0  0  0  0
  2  3  1  0  0  0  0
  3 16  2  0  0  0  0
  4  5  1  0  0  0  0
  5 15  1  1  0  0  0
  5 23  1  0  0  0  0
  6 32  1  1  0  0  0
  6 19  1  0  0  0  0
  7 10  1  0  0  0  0
  8 21  1  0  0  0  0
  9  2  2  0  0  0  0
 10  1  1  0  0  0  0
 10 11  1  0  0  0  0
 11  9  1  6  0  0  0
 11 17  1  0  0  0  0
 12 18  1  0  0  0  0
 13  8  1  0  0  0  0
 14 25  1  0  0  0  0
 14  6  1  0  0  0  0
 14  7  1  1  0  0  0
 15 13  1  0  0  0  0
 17 12  2  0  0  0  0
 17 16  1  0  0  0  0
 18 23  2  0  0  0  0
 19  1  1  0  0  0  0
 20  4  2  0  0  0  0
 22  4  1  0  0  0  0
 22 12  1  0  0  0  0
 23  8  1  0  0  0  0
 25 24  1  6  0  0  0
 26 27  1  1  0  0  0
 26 24  1  0  0  0  0
 26 25  1  0  0  0  0
 28 27  1  0  0  0  0
 28 29  1  0  0  0  0
 30 28  2  0  0  0  0
 31 32  1  0  0  0  0
M  END
>  <MODEL>
4

>  <REMARK>
 VINA RESULT:      -6.5      3.912      5.548
  Name = 
  4 active torsions:
  status: ('A' for Active; 'I' for Inactive)
    1  A    between atoms: C_7  and  C_19
    2  A    between atoms: C_10  and  C_17
    3  A    between atoms: C_20  and  C_29
    4  A    between atoms: C_29  and  C_30
                            x       y       z     vdW  Elec       q    Type
                         _______ _______ _______ _____ _____    ______ ____

>  <TORSDO>
F 4

$$$$
=
 OpenBabel11122410483D

 32 37  0  0  1  0  0  0  0  0999 V2000
  187.2640  177.9210  140.1390 C   0  0  0  0  0  0  0  0  0  0  0  0
  183.3950  179.3780  142.7030 C   0  0  0  0  0  3  0  0  0  0  0  0
  184.0820  179.0340  143.9630 C   0  0  0  0  0  3  0  0  0  0  0  0
  189.4040  177.4020  141.2920 C   0  0  0  0  0  0  0  0  0  0  0  0
  190.2180  177.8320  142.4800 C   0  0  2  0  0  3  0  0  0  0  0  0
  187.2110  177.9460  137.6530 C   0  0  2  0  0  3  0  0  0  0  0  0
  185.1780  178.6330  138.9450 C   0  0  0  0  0  2  0  0  0  0  0  0
  190.2860  177.2820  144.7640 N   0  0  0  0  0  0  0  0  0  0  0  0
  183.8920  178.9990  141.5210 C   0  0  0  0  0  3  0  0  0  0  0  0
  185.8770  178.3150  140.1920 N   0  0  0  0  0  0  0  0  0  0  0  0
  185.1110  178.1110  141.4290 C   0  0  1  0  0  3  0  0  0  0  0  0
  187.3010  177.9820  142.5960 C   0  0  0  0  0  0  0  0  0  0  0  0
  191.5260  176.8420  144.2790 N   0  0  0  0  0  2  0  0  0  0  0  0
  185.6920  177.7880  137.7790 C   0  0  2  0  0  3  0  0  0  0  0  0
  191.4170  176.9370  142.8120 C   0  0  0  0  0  2  0  0  0  0  0  0
  185.3070  178.5030  143.9530 C   0  0  0  0  0  3  0  0  0  0  0  0
  185.9800  178.2220  142.6660 C   0  0  0  0  0  0  0  0  0  0  0  0
  188.1200  177.8490  143.8230 C   0  0  0  0  0  3  0  0  0  0  0  0
  187.8710  177.7000  138.8950 O   0  0  0  0  0  0  0  0  0  0  0  0
  189.9610  176.8480  140.3060 O   0  0  0  0  0  0  0  0  0  0  0  0
  189.8920  177.1170  146.1520 C   0  0  0  0  0  1  0  0  0  0  0  0
  187.9590  177.7480  141.2790 C   0  0  0  0  0  0  0  0  0  0  0  0
  189.4500  177.7540  143.7340 C   0  0  0  0  0  0  0  0  0  0  0  0
  183.8080  176.1720  137.9470 C   0  0  0  0  0  2  0  0  0  0  0  0
  185.3160  176.3250  137.9670 C   0  0  1  0  0  3  0  0  0  0  0  0
  184.6200  175.8200  136.7180 C   0  0  1  0  0  3  0  0  0  0  0  0
  184.7900  174.3170  136.6350 C   0  0  0  0  0  2  0  0  0  0  0  0
  183.5570  173.6970  136.0740 C   0  0  0  0  0  0  0  0  0  0  0  0
  182.8070  172.8210  136.8480 O   0  0  0  0  0  1  0  0  0  0  0  0
  183.1760  173.9960  134.9130 O   0  0  0  0  0  0  0  0  0  0  0  0
  189.0580  179.5610  137.2200 C   0  0  0  0  0  1  0  0  0  0  0  0
  187.5610  179.3310  137.1300 C   0  0  0  0  0  2  0  0  0  0  0  0
  1 10  1  0  0  0  0
  1 22  2  0  0  0  0
  2  3  1  0  0  0  0
  4  5  1  0  0  0  0
  5 15  1  1  0  0  0
  5 23  1  0  0  0  0
  6 32  1  1  0  0  0
  6 14  1  0  0  0  0
  6 19  1  0  0  0  0
  7 10  1  0  0  0  0
  8 21  1  0  0  0  0
  9  2  2  0  0  0  0
 10 11  1  0  0  0  0
 11  9  1  1  0  0  0
 11 17  1  0  0  0  0
 12 17  2  0  0  0  0
 12 18  1  0  0  0  0
 13  8  1  0  0  0  0
 14 25  1  0  0  0  0
 14  7  1  1  0  0  0
 15 13  1  0  0  0  0
 16  3  2  0  0  0  0
 17 16  1  0  0  0  0
 19  1  1  0  0  0  0
 20  4  2  0  0  0  0
 22  4  1  0  0  0  0
 22 12  1  0  0  0  0
 23 18  2  0  0  0  0
 23  8  1  0  0  0  0
 25 24  1  1  0  0  0
 26 27  1  1  0  0  0
 26 24  1  0  0  0  0
 26 25  1  0  0  0  0
 28 27  1  0  0  0  0
 28 29  1  0  0  0  0
 30 28  2  0  0  0  0
 32 31  1  0  0  0  0
M  END
>  <MODEL>
5

>  <REMARK>
 VINA RESULT:      -6.3      2.603      3.647
  Name = 
  4 active torsions:
  status: ('A' for Active; 'I' for Inactive)
    1  A    between atoms: C_7  and  C_19
    2  A    between atoms: C_10  and  C_17
    3  A    between atoms: C_20  and  C_29
    4  A    between atoms: C_29  and  C_30
                            x       y       z     vdW  Elec       q    Type
                         _______ _______ _______ _____ _____    ______ ____

>  <TORSDO>
F 4

$$$$
=
 OpenBabel11122410483D

 32 37  0  0  1  0  0  0  0  0999 V2000
  189.0470  175.6990  137.5630 C   0  0  0  0  0  0  0  0  0  0  0  0
  193.8930  175.3590  137.2940 C   0  0  0  0  0  3  0  0  0  0  0  0
  193.7810  173.9930  136.7470 C   0  0  0  0  0  3  0  0  0  0  0  0
  187.6120  173.9730  136.4930 C   0  0  0  0  0  0  0  0  0  0  0  0
  187.5900  173.0530  135.3050 C   0  0  2  0  0  3  0  0  0  0  0  0
  187.9770  177.7260  138.5270 C   0  0  2  0  0  3  0  0  0  0  0  0
  190.4750  177.5490  138.4690 C   0  0  0  0  0  2  0  0  0  0  0  0
  188.4020  170.9020  134.8240 N   0  0  0  0  0  0  0  0  0  0  0  0
  192.8280  175.9850  137.8080 C   0  0  0  0  0  3  0  0  0  0  0  0
  190.3550  176.2040  137.9010 N   0  0  0  0  0  0  0  0  0  0  0  0
  191.4980  175.2830  137.9540 C   0  0  1  0  0  3  0  0  0  0  0  0
  190.1440  173.7460  136.5490 C   0  0  0  0  0  0  0  0  0  0  0  0
  187.0090  170.7540  134.7580 N   0  0  0  0  0  2  0  0  0  0  0  0
  189.2660  177.9040  139.3350 C   0  0  2  0  0  3  0  0  0  0  0  0
  186.4670  172.0120  135.3020 C   0  0  0  0  0  2  0  0  0  0  0  0
  192.5890  173.4170  136.5780 C   0  0  0  0  0  3  0  0  0  0  0  0
  191.3580  174.1380  136.9700 C   0  0  0  0  0  0  0  0  0  0  0  0
  189.9680  172.4890  135.7850 C   0  0  0  0  0  3  0  0  0  0  0  0
  187.9090  176.4330  137.9230 O   0  0  0  0  0  0  0  0  0  0  0  0
  186.5350  174.3310  137.0410 O   0  0  0  0  0  0  0  0  0  0  0  0
  189.3120  169.7900  134.6080 C   0  0  0  0  0  1  0  0  0  0  0  0
  188.9250  174.5200  136.9240 C   0  0  0  0  0  0  0  0  0  0  0  0
  188.7810  172.1880  135.2530 C   0  0  0  0  0  0  0  0  0  0  0  0
  190.5640  177.1510  141.3190 C   0  0  0  0  0  2  0  0  0  0  0  0
  189.2360  177.0500  140.5950 C   0  0  1  0  0  3  0  0  0  0  0  0
  189.3730  177.9440  141.8120 C   0  0  1  0  0  3  0  0  0  0  0  0
  188.7550  177.2450  143.0060 C   0  0  0  0  0  2  0  0  0  0  0  0
  189.2010  177.9020  144.2660 C   0  0  0  0  0  0  0  0  0  0  0  0
  190.2920  178.7590  144.2530 O   0  0  0  0  0  0  0  0  0  0  0  0
  188.5640  177.7100  145.3340 O   0  0  0  0  0  1  0  0  0  0  0  0
  187.1290  178.2780  136.2500 C   0  0  0  0  0  1  0  0  0  0  0  0
  187.8540  178.8130  137.4700 C   0  0  0  0  0  2  0  0  0  0  0  0
  1 10  1  0  0  0  0
  1 19  1  0  0  0  0
  2  9  2  0  0  0  0
  3  2  1  0  0  0  0
  4 22  1  0  0  0  0
  4 20  2  0  0  0  0
  5 15  1  1  0  0  0
  5  4  1  0  0  0  0
  6 32  1  6  0  0  0
  6 14  1  0  0  0  0
  8 23  1  0  0  0  0
 10 11  1  0  0  0  0
 10  7  1  0  0  0  0
 11  9  1  6  0  0  0
 12 22  1  0  0  0  0
 12 17  2  0  0  0  0
 13  8  1  0  0  0  0
 13 15  1  0  0  0  0
 14  7  1  6  0  0  0
 14 25  1  0  0  0  0
 16  3  2  0  0  0  0
 16 17  1  0  0  0  0
 17 11  1  0  0  0  0
 18 12  1  0  0  0  0
 19  6  1  0  0  0  0
 21  8  1  0  0  0  0
 22  1  2  0  0  0  0
 23  5  1  0  0  0  0
 23 18  2  0  0  0  0
 24 26  1  0  0  0  0
 25 24  1  6  0  0  0
 25 26  1  0  0  0  0
 26 27  1  1  0  0  0
 27 28  1  0  0  0  0
 28 30  1  0  0  0  0
 29 28  2  0  0  0  0
 31 32  1  0  0  0  0
M  END
>  <MODEL>
6

>  <REMARK>
 VINA RESULT:      -6.3      5.109      9.124
  Name = 
  4 active torsions:
  status: ('A' for Active; 'I' for Inactive)
    1  A    between atoms: C_7  and  C_19
    2  A    between atoms: C_10  and  C_17
    3  A    between atoms: C_20  and  C_29
    4  A    between atoms: C_29  and  C_30
                            x       y       z     vdW  Elec       q    Type
                         _______ _______ _______ _____ _____    ______ ____

>  <TORSDO>
F 4

$$$$
=
 OpenBabel11122410483D

 32 37  0  0  1  0  0  0  0  0999 V2000
  184.5270  176.7960  137.8520 C   0  0  0  0  0  0  0  0  0  0  0  0
  188.9940  178.4290  136.8280 C   0  0  0  0  0  3  0  0  0  0  0  0
  189.3680  177.1090  136.2830 C   0  0  0  0  0  3  0  0  0  0  0  0
  183.7770  174.5870  136.9910 C   0  0  0  0  0  0  0  0  0  0  0  0
  183.9550  173.6800  135.8060 C   0  0  2  0  0  3  0  0  0  0  0  0
  182.8810  178.2620  139.0020 C   0  0  2  0  0  3  0  0  0  0  0  0
  185.1970  179.1070  138.5540 C   0  0  0  0  0  2  0  0  0  0  0  0
  185.4900  172.0190  135.1710 N   0  0  0  0  0  0  0  0  0  0  0  0
  187.8570  178.5960  137.5110 C   0  0  0  0  0  3  0  0  0  0  0  0
  185.5510  177.8020  137.9910 N   0  0  0  0  0  0  0  0  0  0  0  0
  186.9640  177.4250  137.8510 C   0  0  1  0  0  3  0  0  0  0  0  0
  186.1600  175.4040  136.6490 C   0  0  0  0  0  0  0  0  0  0  0  0
  184.2840  171.3170  135.3200 N   0  0  0  0  0  2  0  0  0  0  0  0
  184.0910  178.9860  139.6030 C   0  0  2  0  0  3  0  0  0  0  0  0
  183.3640  172.2750  135.9620 C   0  0  0  0  0  2  0  0  0  0  0  0
  188.5020  176.0940  136.2930 C   0  0  0  0  0  3  0  0  0  0  0  0
  187.1570  176.2740  136.8830 C   0  0  0  0  0  0  0  0  0  0  0  0
  186.3990  174.1490  135.9020 C   0  0  0  0  0  3  0  0  0  0  0  0
  183.2570  177.0240  138.3960 O   0  0  0  0  0  0  0  0  0  0  0  0
  182.7410  174.5070  137.7050 O   0  0  0  0  0  0  0  0  0  0  0  0
  186.7300  171.3600  134.7990 C   0  0  0  0  0  1  0  0  0  0  0  0
  184.8020  175.6380  137.2210 C   0  0  0  0  0  0  0  0  0  0  0  0
  185.3720  173.3670  135.5560 C   0  0  0  0  0  0  0  0  0  0  0  0
  185.7750  179.0020  141.4350 C   0  0  0  0  0  2  0  0  0  0  0  0
  184.5980  178.2550  140.8390 C   0  0  1  0  0  3  0  0  0  0  0  0
  184.4010  179.1340  142.0580 C   0  0  1  0  0  3  0  0  0  0  0  0
  184.3160  178.2530  143.2890 C   0  0  0  0  0  2  0  0  0  0  0  0
  183.3800  178.8540  144.2790 C   0  0  0  0  0  0  0  0  0  0  0  0
  182.0330  178.9860  143.9710 O   0  0  0  0  0  0  0  0  0  0  0  0
  183.8050  179.2090  145.4100 O   0  0  0  0  0  1  0  0  0  0  0  0
  181.7960  180.4750  138.6390 C   0  0  0  0  0  1  0  0  0  0  0  0
  182.1720  179.1550  137.9950 C   0  0  0  0  0  2  0  0  0  0  0  0
  1 10  1  0  0  0  0
  1 19  1  0  0  0  0
  2  9  2  0  0  0  0
  3 16  2  0  0  0  0
  3  2  1  0  0  0  0
  4 22  1  0  0  0  0
  4 20  2  0  0  0  0
  5 15  1  1  0  0  0
  5  4  1  0  0  0  0
  6 32  1  6  0  0  0
  6 14  1  0  0  0  0
  8 13  1  0  0  0  0
  8 23  1  0  0  0  0
 10  7  1  0  0  0  0
 11  9  1  6  0  0  0
 11 10  1  0  0  0  0
 12 17  2  0  0  0  0
 12 22  1  0  0  0  0
 13 15  1  0  0  0  0
 14  7  1  6  0  0  0
 14 25  1  0  0  0  0
 16 17  1  0  0  0  0
 17 11  1  0  0  0  0
 18 12  1  0  0  0  0
 19  6  1  0  0  0  0
 21  8  1  0  0  0  0
 22  1  2  0  0  0  0
 23  5  1  0  0  0  0
 23 18  2  0  0  0  0
 24 26  1  0  0  0  0
 25 24  1  6  0  0  0
 25 26  1  0  0  0  0
 26 27  1  1  0  0  0
 27 28  1  0  0  0  0
 28 30  1  0  0  0  0
 29 28  2  0  0  0  0
 32 31  1  0  0  0  0
M  END
>  <MODEL>
7

>  <REMARK>
 VINA RESULT:      -6.2      4.266      6.971
  Name = 
  4 active torsions:
  status: ('A' for Active; 'I' for Inactive)
    1  A    between atoms: C_7  and  C_19
    2  A    between atoms: C_10  and  C_17
    3  A    between atoms: C_20  and  C_29
    4  A    between atoms: C_29  and  C_30
                            x       y       z     vdW  Elec       q    Type
                         _______ _______ _______ _____ _____    ______ ____

>  <TORSDO>
F 4

$$$$
=
 OpenBabel11122410483D

 32 37  0  0  1  0  0  0  0  0999 V2000
  187.3280  177.8780  140.0650 C   0  0  0  0  0  0  0  0  0  0  0  0
  183.5080  179.3800  142.6760 C   0  0  0  0  0  3  0  0  0  0  0  0
  184.2150  179.0480  143.9290 C   0  0  0  0  0  3  0  0  0  0  0  0
  189.4860  177.3650  141.1890 C   0  0  0  0  0  0  0  0  0  0  0  0
  190.3210  177.8060  142.3590 C   0  0  2  0  0  3  0  0  0  0  0  0
  187.2350  177.8750  137.5810 C   0  0  2  0  0  3  0  0  0  0  0  0
  185.2260  178.5850  138.8980 C   0  0  0  0  0  2  0  0  0  0  0  0
  190.4240  177.2830  144.6470 N   0  0  0  0  0  0  0  0  0  0  0  0
  183.9840  178.9850  141.4910 C   0  0  0  0  0  3  0  0  0  0  0  0
  185.9450  178.2780  140.1370 N   0  0  0  0  0  0  0  0  0  0  0  0
  185.1980  178.0920  141.3890 C   0  0  1  0  0  3  0  0  0  0  0  0
  187.4060  177.9680  142.5210 C   0  0  0  0  0  0  0  0  0  0  0  0
  191.6550  176.8330  144.1470 N   0  0  0  0  0  2  0  0  0  0  0  0
  185.7180  177.7240  137.7340 C   0  0  2  0  0  3  0  0  0  0  0  0
  191.5220  176.9110  142.6810 C   0  0  0  0  0  2  0  0  0  0  0  0
  185.4370  178.5120  143.9050 C   0  0  0  0  0  3  0  0  0  0  0  0
  186.0880  178.2140  142.6100 C   0  0  0  0  0  0  0  0  0  0  0  0
  188.2450  177.8470  143.7350 C   0  0  0  0  0  3  0  0  0  0  0  0
  187.9150  177.6410  138.8150 O   0  0  0  0  0  0  0  0  0  0  0  0
  190.0240  176.7980  140.2010 O   0  0  0  0  0  0  0  0  0  0  0  0
  190.0530  177.1360  146.0440 C   0  0  0  0  0  1  0  0  0  0  0  0
  188.0420  177.7160  141.1960 C   0  0  0  0  0  0  0  0  0  0  0  0
  189.5730  177.7460  143.6260 C   0  0  0  0  0  0  0  0  0  0  0  0
  183.8930  176.0430  137.5510 C   0  0  0  0  0  2  0  0  0  0  0  0
  185.3400  176.2640  137.9450 C   0  0  1  0  0  3  0  0  0  0  0  0
  185.0040  175.6340  136.6080 C   0  0  1  0  0  3  0  0  0  0  0  0
  185.2240  174.1370  136.7020 C   0  0  0  0  0  2  0  0  0  0  0  0
  186.2230  173.7060  135.6850 C   0  0  0  0  0  0  0  0  0  0  0  0
  187.1150  174.6280  135.1540 O   0  0  0  0  0  0  0  0  0  0  0  0
  186.2820  172.4990  135.3340 O   0  0  0  0  0  1  0  0  0  0  0  0
  189.0620  179.5300  137.2170 C   0  0  0  0  0  1  0  0  0  0  0  0
  187.5820  179.2530  137.0360 C   0  0  0  0  0  2  0  0  0  0  0  0
  1 10  1  0  0  0  0
  1 22  2  0  0  0  0
  2  3  1  0  0  0  0
  4 22  1  0  0  0  0
  4  5  1  0  0  0  0
  5 15  1  1  0  0  0
  5 23  1  0  0  0  0
  6 32  1  1  0  0  0
  6 14  1  0  0  0  0
  6 19  1  0  0  0  0
  7 10  1  0  0  0  0
  8 21  1  0  0  0  0
  9  2  2  0  0  0  0
 10 11  1  0  0  0  0
 11  9  1  1  0  0  0
 11 17  1  0  0  0  0
 12 17  2  0  0  0  0
 12 18  1  0  0  0  0
 13  8  1  0  0  0  0
 14 25  1  0  0  0  0
 14  7  1  1  0  0  0
 15 13  1  0  0  0  0
 16  3  2  0  0  0  0
 17 16  1  0  0  0  0
 19  1  1  0  0  0  0
 20  4  2  0  0  0  0
 22 12  1  0  0  0  0
 23 18  2  0  0  0  0
 23  8  1  0  0  0  0
 25 24  1  1  0  0  0
 26 27  1  1  0  0  0
 26 24  1  0  0  0  0
 26 25  1  0  0  0  0
 28 27  1  0  0  0  0
 29 28  2  0  0  0  0
 30 28  1  0  0  0  0
 32 31  1  0  0  0  0
M  END
>  <MODEL>
8

>  <REMARK>
 VINA RESULT:      -6.2      3.106      4.211
  Name = 
  4 active torsions:
  status: ('A' for Active; 'I' for Inactive)
    1  A    between atoms: C_7  and  C_19
    2  A    between atoms: C_10  and  C_17
    3  A    between atoms: C_20  and  C_29
    4  A    between atoms: C_29  and  C_30
                            x       y       z     vdW  Elec       q    Type
                         _______ _______ _______ _____ _____    ______ ____

>  <TORSDO>
F 4

$$$$
=
 OpenBabel11122410483D

 32 37  0  0  1  0  0  0  0  0999 V2000
  184.7660  177.8370  138.4180 C   0  0  0  0  0  0  0  0  0  0  0  0
  181.9700  174.9520  135.6750 C   0  0  0  0  0  3  0  0  0  0  0  0
  183.1350  174.5880  134.8450 C   0  0  0  0  0  3  0  0  0  0  0  0
  187.2400  177.7740  138.1800 C   0  0  0  0  0  0  0  0  0  0  0  0
  188.3530  176.8150  137.8630 C   0  0  2  0  0  3  0  0  0  0  0  0
  183.7680  179.1850  140.2540 C   0  0  2  0  0  3  0  0  0  0  0  0
  182.2910  177.7660  138.8120 C   0  0  0  0  0  2  0  0  0  0  0  0
  189.3820  176.0150  135.9080 N   0  0  0  0  0  0  0  0  0  0  0  0
  182.0400  175.9530  136.5590 C   0  0  0  0  0  3  0  0  0  0  0  0
  183.4580  177.3880  138.0100 N   0  0  0  0  0  0  0  0  0  0  0  0
  183.2700  176.8230  136.6660 C   0  0  1  0  0  3  0  0  0  0  0  0
  185.7240  176.4310  136.6430 C   0  0  0  0  0  0  0  0  0  0  0  0
  190.4020  176.7310  136.5520 N   0  0  0  0  0  2  0  0  0  0  0  0
  182.4670  179.1460  139.4450 C   0  0  2  0  0  3  0  0  0  0  0  0
  189.7270  177.4550  137.6440 C   0  0  0  0  0  2  0  0  0  0  0  0
  184.3380  175.1170  135.0810 C   0  0  0  0  0  3  0  0  0  0  0  0
  184.5090  176.1060  136.1680 C   0  0  0  0  0  0  0  0  0  0  0  0
  186.9570  175.9190  136.0040 C   0  0  0  0  0  3  0  0  0  0  0  0
  184.8840  178.7480  139.4770 O   0  0  0  0  0  0  0  0  0  0  0  0
  187.4690  178.8160  138.8510 O   0  0  0  0  0  0  0  0  0  0  0  0
  189.5830  175.3590  134.6270 C   0  0  0  0  0  1  0  0  0  0  0  0
  185.8610  177.3980  137.7710 C   0  0  0  0  0  0  0  0  0  0  0  0
  188.1470  176.1360  136.5720 C   0  0  0  0  0  0  0  0  0  0  0  0
  181.2310  180.0910  137.5040 C   0  0  0  0  0  2  0  0  0  0  0  0
  182.4610  180.2330  138.3800 C   0  0  1  0  0  3  0  0  0  0  0  0
  181.2660  181.1410  138.5950 C   0  0  1  0  0  3  0  0  0  0  0  0
  181.5640  182.4960  137.9860 C   0  0  0  0  0  2  0  0  0  0  0  0
  180.2960  183.1520  137.5610 C   0  0  0  0  0  0  0  0  0  0  0  0
  180.0940  183.4730  136.2260 O   0  0  0  0  0  0  0  0  0  0  0  0
  179.3920  183.3800  138.4070 O   0  0  0  0  0  1  0  0  0  0  0  0
  184.9810  178.2330  142.2110 C   0  0  0  0  0  1  0  0  0  0  0  0
  183.6370  178.3460  141.5170 C   0  0  0  0  0  2  0  0  0  0  0  0
  1 19  1  0  0  0  0
  2  9  2  0  0  0  0
  3 16  2  0  0  0  0
  3  2  1  0  0  0  0
  4 20  2  0  0  0  0
  5 15  1  6  0  0  0
  5  4  1  0  0  0  0
  6 32  1  1  0  0  0
  8 13  1  0  0  0  0
  8 23  1  0  0  0  0
 10  1  1  0  0  0  0
 10  7  1  0  0  0  0
 11  9  1  1  0  0  0
 11 10  1  0  0  0  0
 12 22  1  0  0  0  0
 13 15  1  0  0  0  0
 14  7  1  6  0  0  0
 14  6  1  0  0  0  0
 16 17  1  0  0  0  0
 17 12  2  0  0  0  0
 17 11  1  0  0  0  0
 18 23  2  0  0  0  0
 18 12  1  0  0  0  0
 19  6  1  0  0  0  0
 21  8  1  0  0  0  0
 22  4  1  0  0  0  0
 22  1  2  0  0  0  0
 23  5  1  0  0  0  0
 24 26  1  0  0  0  0
 25 24  1  6  0  0  0
 25 26  1  0  0  0  0
 25 14  1  0  0  0  0
 26 27  1  6  0  0  0
 28 27  1  0  0  0  0
 28 30  1  0  0  0  0
 29 28  2  0  0  0  0
 32 31  1  0  0  0  0
M  END
>  <MODEL>
9

>  <REMARK>
 VINA RESULT:      -5.9      3.376      6.183
  Name = 
  4 active torsions:
  status: ('A' for Active; 'I' for Inactive)
    1  A    between atoms: C_7  and  C_19
    2  A    between atoms: C_10  and  C_17
    3  A    between atoms: C_20  and  C_29
    4  A    between atoms: C_29  and  C_30
                            x       y       z     vdW  Elec       q    Type
                         _______ _______ _______ _____ _____    ______ ____

>  <TORSDO>
F 4

$$$$
