=
 OpenBabel11122410493D

 32 37  0  0  1  0  0  0  0  0999 V2000
  191.8090  177.3610  142.2030 C   0  0  0  0  0  2  0  0  0  0  0  0
  186.5670  178.0480  141.3120 C   0  0  2  0  0  3  0  0  0  0  0  0
  184.6910  178.3280  145.8790 C   0  0  0  0  0  2  0  0  0  0  0  0
  183.4480  179.0270  145.3370 C   0  0  0  0  0  2  0  0  0  0  0  0
  185.0840  178.5690  139.2770 C   0  0  0  0  0  0  0  0  0  0  0  0
  183.6870  178.2440  138.8060 C   0  0  1  0  0  3  0  0  0  0  0  0
  189.0060  177.3970  140.9840 C   0  0  2  0  0  3  0  0  0  0  0  0
  187.9810  177.7150  143.3050 C   0  0  0  0  0  2  0  0  0  0  0  0
  181.9100  177.2230  140.0970 C   0  0  2  0  0  3  0  0  0  0  0  0
  189.8410  176.0740  142.9560 N   0  0  0  0  0  2  0  0  0  0  0  0
  185.8980  178.6580  145.0070 C   0  0  0  0  0  2  0  0  0  0  0  0
  186.8370  178.4530  142.7140 N   0  0  2  0  0  0  0  0  0  0  0  0
  185.6510  178.2020  143.5590 C   0  0  2  0  0  3  0  0  0  0  0  0
  184.1580  178.5380  141.5820 C   0  0  1  0  0  3  0  0  0  0  0  0
  182.3130  176.3560  138.9280 C   0  0  0  0  0  2  0  0  0  0  0  0
  191.1650  177.3630  140.9530 O   0  0  0  0  0  0  0  0  0  0  0  0
  188.6860  176.7450  142.3440 C   0  0  2  0  0  3  0  0  0  0  0  0
  183.6020  176.8320  138.4430 N   0  0  0  0  0  2  0  0  0  0  0  0
  190.1510  178.2040  141.0580 O   0  0  0  0  0  0  0  0  0  0  0  0
  190.8500  177.0530  143.3590 C   0  0  1  0  0  3  0  0  0  0  0  0
  183.1980  178.6050  143.8930 C   0  0  0  0  0  2  0  0  0  0  0  0
  184.4110  178.9450  143.0250 C   0  0  1  0  0  3  0  0  0  0  0  0
  182.9980  179.2300  141.0300 N   0  0  0  0  0  2  0  0  0  0  0  0
  187.8380  178.2430  140.4740 C   0  0  0  0  0  2  0  0  0  0  0  0
  185.9510  178.8830  138.3860 N   0  0  0  0  0  2  0  0  0  0  0  0
  180.4040  177.3770  140.1360 C   0  0  0  0  0  1  0  0  0  0  0  0
  185.3840  178.8500  140.7370 C   0  0  1  0  0  3  0  0  0  0  0  0
  182.5620  178.5500  139.8050 C   0  0  1  0  0  3  0  0  0  0  0  0
  191.6090  176.5510  144.4970 N   0  0  0  0  0  2  0  0  0  0  0  0
  191.2290  176.7810  145.8560 C   0  0  0  0  0  0  0  0  0  0  0  0
  191.9990  176.3720  146.8100 N   0  0  0  0  0  2  0  0  0  0  0  0
  189.9990  177.5520  146.1970 C   0  0  0  0  0  1  0  0  0  0  0  0
  1 20  1  0  0  0  0
  2 24  1  6  0  0  0
  2 12  1  0  0  0  0
  4  3  1  0  0  0  0
  6 18  1  1  0  0  0
  6  5  1  0  0  0  0
  6 28  1  0  0  0  0
  7 24  1  1  0  0  0
  7 19  1  0  0  0  0
  7 17  1  0  0  0  0
  9 26  1  6  0  0  0
 10 20  1  0  0  0  0
 11  3  1  0  0  0  0
 12  8  1  1  0  0  0
 12 13  1  0  0  0  0
 13 11  1  1  0  0  0
 14 23  1  6  0  0  0
 14 22  1  0  0  0  0
 15  9  1  0  0  0  0
 16 19  1  0  0  0  0
 16  1  1  0  0  0  0
 17 10  1  0  0  0  0
 17  8  1  1  0  0  0
 18 15  1  0  0  0  0
 20 29  1  1  0  0  0
 21  4  1  0  0  0  0
 22 13  1  0  0  0  0
 22 21  1  1  0  0  0
 25  5  2  0  0  0  0
 27  5  1  6  0  0  0
 27  2  1  0  0  0  0
 27 14  1  0  0  0  0
 28  9  1  0  0  0  0
 28 23  1  1  0  0  0
 29 30  1  0  0  0  0
 30 32  1  0  0  0  0
 30 31  2  0  0  0  0
M  END
>  <MODEL>
1

>  <REMARK>
 VINA RESULT:     -10.4      0.000      0.000
  Name = 
  1 active torsions:
  status: ('A' for Active; 'I' for Inactive)
    1  A    between atoms: C_20  and  N_29
                            x       y       z     vdW  Elec       q    Type
                         _______ _______ _______ _____ _____    ______ ____

>  <TORSDO>
F 1

$$$$
=
 OpenBabel11122410493D

 32 37  0  0  1  0  0  0  0  0999 V2000
  190.1890  178.1400  144.5410 C   0  0  0  0  0  2  0  0  0  0  0  0
  186.0410  178.1540  141.1440 C   0  0  2  0  0  3  0  0  0  0  0  0
  182.1500  178.7110  144.1460 C   0  0  0  0  0  2  0  0  0  0  0  0
  181.3050  179.2100  142.9770 C   0  0  0  0  0  2  0  0  0  0  0  0
  185.7310  178.2930  138.5950 C   0  0  0  0  0  0  0  0  0  0  0  0
  184.7620  177.7690  137.5620 C   0  0  1  0  0  3  0  0  0  0  0  0
  188.3510  177.7420  142.1310 C   0  0  2  0  0  3  0  0  0  0  0  0
  186.3040  178.1910  143.5960 C   0  0  0  0  0  2  0  0  0  0  0  0
  182.6240  176.7040  137.9710 C   0  0  2  0  0  3  0  0  0  0  0  0
  188.1620  176.7340  144.4300 N   0  0  0  0  0  2  0  0  0  0  0  0
  183.6140  179.0760  143.9260 C   0  0  0  0  0  2  0  0  0  0  0  0
  185.5680  178.7330  142.4270 N   0  0  2  0  0  0  0  0  0  0  0  0
  184.1320  178.4450  142.6230 C   0  0  2  0  0  3  0  0  0  0  0  0
  183.7920  178.4060  140.1460 C   0  0  1  0  0  3  0  0  0  0  0  0
  183.5880  175.7670  137.2810 C   0  0  0  0  0  2  0  0  0  0  0  0
  190.2440  177.9400  143.1490 O   0  0  0  0  0  0  0  0  0  0  0  0
  187.4310  177.2070  143.2470 C   0  0  2  0  0  3  0  0  0  0  0  0
  184.9270  176.3260  137.4140 N   0  0  0  0  0  2  0  0  0  0  0  0
  189.2750  178.6710  142.6290 O   0  0  0  0  0  0  0  0  0  0  0  0
  188.8000  177.8540  145.1220 C   0  0  1  0  0  3  0  0  0  0  0  0
  181.8180  178.6120  141.6700 C   0  0  0  0  0  2  0  0  0  0  0  0
  183.2850  178.9880  141.4550 C   0  0  1  0  0  3  0  0  0  0  0  0
  183.0260  178.9050  139.0090 N   0  0  0  0  0  2  0  0  0  0  0  0
  187.5500  178.3960  141.0050 C   0  0  0  0  0  2  0  0  0  0  0  0
  186.9090  178.6030  138.1980 N   0  0  0  0  0  2  0  0  0  0  0  0
  181.2900  176.6960  137.2560 C   0  0  0  0  0  1  0  0  0  0  0  0
  185.2610  178.7570  139.9610 C   0  0  1  0  0  3  0  0  0  0  0  0
  183.2790  178.0560  137.8390 C   0  0  1  0  0  3  0  0  0  0  0  0
  188.9210  177.5610  146.5440 N   0  0  0  0  0  2  0  0  0  0  0  0
  187.8800  177.8200  147.4900 C   0  0  0  0  0  0  0  0  0  0  0  0
  188.0960  177.6080  148.7470 N   0  0  0  0  0  2  0  0  0  0  0  0
  186.5760  178.4050  147.0670 C   0  0  0  0  0  1  0  0  0  0  0  0
  1 20  1  0  0  0  0
  2 24  1  6  0  0  0
  2 12  1  0  0  0  0
  4  3  1  0  0  0  0
  6 18  1  1  0  0  0
  6 28  1  0  0  0  0
  6  5  1  0  0  0  0
  7 24  1  6  0  0  0
  7 19  1  0  0  0  0
  7 17  1  0  0  0  0
  9 26  1  6  0  0  0
 10 20  1  0  0  0  0
 11  3  1  0  0  0  0
 12 13  1  0  0  0  0
 12  8  1  1  0  0  0
 13 11  1  1  0  0  0
 14 23  1  6  0  0  0
 14 22  1  0  0  0  0
 15 18  1  0  0  0  0
 15  9  1  0  0  0  0
 16  1  1  0  0  0  0
 17  8  1  1  0  0  0
 17 10  1  0  0  0  0
 19 16  1  0  0  0  0
 20 29  1  1  0  0  0
 21  4  1  0  0  0  0
 22 21  1  1  0  0  0
 22 13  1  0  0  0  0
 25  5  2  0  0  0  0
 27  5  1  6  0  0  0
 27 14  1  0  0  0  0
 27  2  1  0  0  0  0
 28  9  1  0  0  0  0
 28 23  1  1  0  0  0
 29 30  1  0  0  0  0
 30 31  2  0  0  0  0
 32 30  1  0  0  0  0
M  END
>  <MODEL>
2

>  <REMARK>
 VINA RESULT:      -9.8      1.796      2.385
  Name = 
  1 active torsions:
  status: ('A' for Active; 'I' for Inactive)
    1  A    between atoms: C_20  and  N_29
                            x       y       z     vdW  Elec       q    Type
                         _______ _______ _______ _____ _____    ______ ____

>  <TORSDO>
F 1

$$$$
=
 OpenBabel11122410493D

 32 37  0  0  1  0  0  0  0  0999 V2000
  189.1690  178.0300  146.1090 C   0  0  0  0  0  2  0  0  0  0  0  0
  189.3710  177.3180  140.8000 C   0  0  2  0  0  3  0  0  0  0  0  0
  184.7940  178.5030  139.3460 C   0  0  0  0  0  2  0  0  0  0  0  0
  185.2950  178.7400  137.9240 C   0  0  0  0  0  2  0  0  0  0  0  0
  191.2110  176.9090  139.0510 C   0  0  0  0  0  0  0  0  0  0  0  0
  191.3560  176.1770  137.7380 C   0  0  1  0  0  3  0  0  0  0  0  0
  189.8990  177.1270  143.2820 C   0  0  2  0  0  3  0  0  0  0  0  0
  187.6080  177.8770  142.4310 C   0  0  0  0  0  2  0  0  0  0  0  0
  189.5810  175.2230  136.3940 C   0  0  2  0  0  3  0  0  0  0  0  0
  187.8090  176.6320  144.5950 N   0  0  0  0  0  2  0  0  0  0  0  0
  185.9010  178.8130  140.3480 C   0  0  0  0  0  2  0  0  0  0  0  0
  188.1810  178.1570  141.0910 N   0  0  2  0  0  0  0  0  0  0  0  0
  187.1240  177.9180  140.0870 C   0  0  2  0  0  3  0  0  0  0  0  0
  188.8600  177.3510  138.3790 C   0  0  1  0  0  3  0  0  0  0  0  0
  190.5350  174.1610  136.8860 C   0  0  0  0  0  2  0  0  0  0  0  0
  190.2600  177.5370  145.3710 O   0  0  0  0  0  0  0  0  0  0  0  0
  188.3840  176.8420  143.2590 C   0  0  2  0  0  3  0  0  0  0  0  0
  191.3240  174.7360  137.9690 N   0  0  0  0  0  2  0  0  0  0  0  0
  190.2180  178.1410  144.1970 O   0  0  0  0  0  0  0  0  0  0  0  0
  187.8370  177.8750  145.3670 C   0  0  1  0  0  3  0  0  0  0  0  0
  186.5230  177.8770  137.6530 C   0  0  0  0  0  2  0  0  0  0  0  0
  187.6300  178.1990  138.6590 C   0  0  1  0  0  3  0  0  0  0  0  0
  189.3820  177.5950  137.0400 N   0  0  0  0  0  2  0  0  0  0  0  0
  190.4200  177.5250  141.9010 C   0  0  0  0  0  2  0  0  0  0  0  0
  192.2780  177.1280  139.7280 N   0  0  0  0  0  2  0  0  0  0  0  0
  189.3470  175.0630  134.9060 C   0  0  0  0  0  1  0  0  0  0  0  0
  189.9390  177.6550  139.4080 C   0  0  1  0  0  3  0  0  0  0  0  0
  190.3060  176.5160  136.6710 C   0  0  1  0  0  3  0  0  0  0  0  0
  186.7420  177.8920  146.3290 N   0  0  0  0  0  2  0  0  0  0  0  0
  185.4490  178.4290  146.0360 C   0  0  0  0  0  0  0  0  0  0  0  0
  184.5570  178.4810  146.9680 N   0  0  0  0  0  2  0  0  0  0  0  0
  185.1330  179.0020  144.6960 C   0  0  0  0  0  1  0  0  0  0  0  0
  2 12  1  0  0  0  0
  2 24  1  1  0  0  0
  3 11  1  0  0  0  0
  4  3  1  0  0  0  0
  5 25  2  0  0  0  0
  6 18  1  1  0  0  0
  6  5  1  0  0  0  0
  7 24  1  6  0  0  0
  7 19  1  0  0  0  0
  9 26  1  6  0  0  0
  9 28  1  0  0  0  0
  9 15  1  0  0  0  0
 10 20  1  0  0  0  0
 12  8  1  1  0  0  0
 13 11  1  1  0  0  0
 13 12  1  0  0  0  0
 14 23  1  6  0  0  0
 14 22  1  0  0  0  0
 14 27  1  0  0  0  0
 15 18  1  0  0  0  0
 16  1  1  0  0  0  0
 17  8  1  1  0  0  0
 17  7  1  0  0  0  0
 17 10  1  0  0  0  0
 19 16  1  0  0  0  0
 20  1  1  0  0  0  0
 20 29  1  1  0  0  0
 21  4  1  0  0  0  0
 22 21  1  6  0  0  0
 22 13  1  0  0  0  0
 27  5  1  6  0  0  0
 27  2  1  0  0  0  0
 28 23  1  1  0  0  0
 28  6  1  0  0  0  0
 30 29  1  0  0  0  0
 30 31  2  0  0  0  0
 32 30  1  0  0  0  0
M  END
>  <MODEL>
3

>  <REMARK>
 VINA RESULT:      -9.6      3.150      5.983
  Name = 
  1 active torsions:
  status: ('A' for Active; 'I' for Inactive)
    1  A    between atoms: C_20  and  N_29
                            x       y       z     vdW  Elec       q    Type
                         _______ _______ _______ _____ _____    ______ ____

>  <TORSDO>
F 1

$$$$
=
 OpenBabel11122410493D

 32 37  0  0  1  0  0  0  0  0999 V2000
  191.1820  177.5100  144.8030 C   0  0  0  0  0  2  0  0  0  0  0  0
  188.8270  177.3870  139.9880 C   0  0  2  0  0  3  0  0  0  0  0  0
  184.2540  179.0070  140.9460 C   0  0  0  0  0  2  0  0  0  0  0  0
  184.0630  179.3700  139.4770 C   0  0  0  0  0  2  0  0  0  0  0  0
  189.5950  177.0630  137.5550 C   0  0  0  0  0  0  0  0  0  0  0  0
  189.0370  176.4750  136.2820 C   0  0  1  0  0  3  0  0  0  0  0  0
  190.4200  176.8860  141.9090 C   0  0  2  0  0  3  0  0  0  0  0  0
  188.0900  177.8670  142.2920 C   0  0  0  0  0  2  0  0  0  0  0  0
  186.7510  175.7890  135.8670 C   0  0  2  0  0  3  0  0  0  0  0  0
  189.1340  176.3780  144.0140 N   0  0  0  0  0  2  0  0  0  0  0  0
  185.7250  179.1340  141.3290 C   0  0  0  0  0  2  0  0  0  0  0  0
  188.0050  178.2590  140.8630 N   0  0  2  0  0  0  0  0  0  0  0  0
  186.5850  178.2000  140.4610 C   0  0  2  0  0  3  0  0  0  0  0  0
  187.2620  177.7210  138.1020 C   0  0  1  0  0  3  0  0  0  0  0  0
  187.7050  174.6210  135.7770 C   0  0  0  0  0  2  0  0  0  0  0  0
  191.7480  177.0370  143.6060 O   0  0  0  0  0  0  0  0  0  0  0  0
  189.0450  176.6990  142.5830 C   0  0  2  0  0  3  0  0  0  0  0  0
  188.9610  175.0210  136.3990 N   0  0  0  0  0  2  0  0  0  0  0  0
  191.2320  177.7700  142.6350 O   0  0  0  0  0  0  0  0  0  0  0  0
  189.6490  177.5220  144.7660 C   0  0  1  0  0  3  0  0  0  0  0  0
  184.9260  178.4700  138.5990 C   0  0  0  0  0  2  0  0  0  0  0  0
  186.4000  178.6070  138.9860 C   0  0  1  0  0  3  0  0  0  0  0  0
  187.1280  178.0820  136.6950 N   0  0  0  0  0  2  0  0  0  0  0  0
  190.2820  177.4030  140.4770 C   0  0  0  0  0  2  0  0  0  0  0  0
  190.8700  177.1380  137.6640 N   0  0  0  0  0  2  0  0  0  0  0  0
  185.8390  175.8110  134.6580 C   0  0  0  0  0  1  0  0  0  0  0  0
  188.7200  177.8410  138.5200 C   0  0  1  0  0  3  0  0  0  0  0  0
  187.6550  176.9950  135.8610 C   0  0  1  0  0  3  0  0  0  0  0  0
  189.1320  177.4990  146.1280 N   0  0  0  0  0  2  0  0  0  0  0  0
  187.7860  177.8460  146.4620 C   0  0  0  0  0  0  0  0  0  0  0  0
  187.4260  177.8800  147.7030 N   0  0  0  0  0  2  0  0  0  0  0  0
  186.8050  178.2470  145.4120 C   0  0  0  0  0  1  0  0  0  0  0  0
  2 24  1  1  0  0  0
  2 12  1  0  0  0  0
  3 11  1  0  0  0  0
  4  3  1  0  0  0  0
  5 25  2  0  0  0  0
  6 18  1  1  0  0  0
  6  5  1  0  0  0  0
  7 24  1  6  0  0  0
  7 17  1  0  0  0  0
  7 19  1  0  0  0  0
  9 26  1  6  0  0  0
 10 20  1  0  0  0  0
 12  8  1  1  0  0  0
 13 12  1  0  0  0  0
 13 11  1  1  0  0  0
 14 23  1  6  0  0  0
 14 27  1  0  0  0  0
 14 22  1  0  0  0  0
 15  9  1  0  0  0  0
 15 18  1  0  0  0  0
 16  1  1  0  0  0  0
 17  8  1  1  0  0  0
 17 10  1  0  0  0  0
 19 16  1  0  0  0  0
 20  1  1  0  0  0  0
 20 29  1  1  0  0  0
 21  4  1  0  0  0  0
 22 21  1  6  0  0  0
 22 13  1  0  0  0  0
 27  5  1  6  0  0  0
 27  2  1  0  0  0  0
 28  9  1  0  0  0  0
 28  6  1  0  0  0  0
 28 23  1  1  0  0  0
 29 30  1  0  0  0  0
 30 31  2  0  0  0  0
 32 30  1  0  0  0  0
M  END
>  <MODEL>
4

>  <REMARK>
 VINA RESULT:      -9.1      2.981      4.460
  Name = 
  1 active torsions:
  status: ('A' for Active; 'I' for Inactive)
    1  A    between atoms: C_20  and  N_29
                            x       y       z     vdW  Elec       q    Type
                         _______ _______ _______ _____ _____    ______ ____

>  <TORSDO>
F 1

$$$$
=
 OpenBabel11122410493D

 32 37  0  0  1  0  0  0  0  0999 V2000
  191.6270  175.0060  135.2320 C   0  0  0  0  0  2  0  0  0  0  0  0
  188.2880  177.2670  138.7650 C   0  0  2  0  0  3  0  0  0  0  0  0
  190.7070  176.7730  143.0510 C   0  0  0  0  0  2  0  0  0  0  0  0
  189.8740  177.8950  143.6630 C   0  0  0  0  0  2  0  0  0  0  0  0
  186.1540  178.6960  138.6490 C   0  0  0  0  0  0  0  0  0  0  0  0
  184.9000  178.8910  139.4680 C   0  0  1  0  0  3  0  0  0  0  0  0
  189.1700  176.1120  136.6750 C   0  0  2  0  0  3  0  0  0  0  0  0
  190.4250  176.0420  138.9020 C   0  0  0  0  0  2  0  0  0  0  0  0
  184.4690  178.0620  141.7030 C   0  0  2  0  0  3  0  0  0  0  0  0
  190.5920  174.1290  137.2950 N   0  0  0  0  0  2  0  0  0  0  0  0
  190.8660  176.9980  141.5510 C   0  0  0  0  0  2  0  0  0  0  0  0
  189.6260  177.1870  139.4050 N   0  0  2  0  0  0  0  0  0  0  0  0
  189.4890  177.0360  140.8680 C   0  0  2  0  0  3  0  0  0  0  0  0
  187.3210  178.2820  140.8040 C   0  0  1  0  0  3  0  0  0  0  0  0
  183.5070  177.4730  140.6980 C   0  0  0  0  0  2  0  0  0  0  0  0
  190.3450  175.5200  134.9630 O   0  0  0  0  0  0  0  0  0  0  0  0
  189.7460  175.2210  137.7950 C   0  0  2  0  0  3  0  0  0  0  0  0
  184.0530  177.7070  139.3670 N   0  0  0  0  0  2  0  0  0  0  0  0
  190.1710  176.5360  135.7900 O   0  0  0  0  0  0  0  0  0  0  0  0
  191.8250  174.6590  136.7120 C   0  0  1  0  0  3  0  0  0  0  0  0
  188.5110  177.9650  142.9830 C   0  0  0  0  0  2  0  0  0  0  0  0
  188.6800  178.1970  141.4800 C   0  0  1  0  0  3  0  0  0  0  0  0
  186.5250  179.3780  141.3430 N   0  0  0  0  0  2  0  0  0  0  0  0
  188.4580  177.3410  137.2420 C   0  0  0  0  0  2  0  0  0  0  0  0
  186.1020  179.0010  137.4060 N   0  0  0  0  0  2  0  0  0  0  0  0
  183.7110  178.5910  142.9020 C   0  0  0  0  0  1  0  0  0  0  0  0
  187.5040  178.4770  139.3050 C   0  0  1  0  0  3  0  0  0  0  0  0
  185.1210  179.1980  140.9550 C   0  0  1  0  0  3  0  0  0  0  0  0
  192.8990  173.6830  136.8400 N   0  0  0  0  0  2  0  0  0  0  0  0
  194.0920  173.9250  137.5910 C   0  0  0  0  0  0  0  0  0  0  0  0
  195.0350  173.0410  137.5900 N   0  0  0  0  0  2  0  0  0  0  0  0
  194.3050  175.2120  138.3150 C   0  0  0  0  0  1  0  0  0  0  0  0
  1 20  1  0  0  0  0
  2 24  1  6  0  0  0
  2 27  1  0  0  0  0
  2 12  1  0  0  0  0
  3  4  1  0  0  0  0
  6  5  1  6  0  0  0
  6 28  1  0  0  0  0
  7 24  1  1  0  0  0
  7 17  1  0  0  0  0
  9 26  1  1  0  0  0
 10 17  1  0  0  0  0
 11  3  1  0  0  0  0
 12  8  1  6  0  0  0
 12 13  1  0  0  0  0
 13 22  1  0  0  0  0
 13 11  1  1  0  0  0
 14 23  1  1  0  0  0
 14 22  1  0  0  0  0
 15  9  1  0  0  0  0
 16  1  1  0  0  0  0
 16 19  1  0  0  0  0
 17  8  1  1  0  0  0
 18  6  1  0  0  0  0
 18 15  1  0  0  0  0
 19  7  1  0  0  0  0
 20 29  1  6  0  0  0
 20 10  1  0  0  0  0
 21  4  1  0  0  0  0
 22 21  1  1  0  0  0
 25  5  2  0  0  0  0
 27  5  1  6  0  0  0
 27 14  1  0  0  0  0
 28 23  1  6  0  0  0
 28  9  1  0  0  0  0
 29 30  1  0  0  0  0
 30 32  1  0  0  0  0
 31 30  2  0  0  0  0
M  END
>  <MODEL>
5

>  <REMARK>
 VINA RESULT:      -7.5      3.780      5.469
  Name = 
  1 active torsions:
  status: ('A' for Active; 'I' for Inactive)
    1  A    between atoms: C_20  and  N_29
                            x       y       z     vdW  Elec       q    Type
                         _______ _______ _______ _____ _____    ______ ____

>  <TORSDO>
F 1

$$$$
