=
 OpenBabel11122410353D

 32 37  0  0  1  0  0  0  0  0999 V2000
  181.8100  178.1450  139.3850 C   0  0  0  0  0  2  0  0  0  0  0  0
  186.2950  178.4850  142.6980 C   0  0  1  0  0  3  0  0  0  0  0  0
  189.9090  177.1510  139.5450 C   0  0  0  0  0  3  0  0  0  0  0  0
  190.7350  176.8640  140.6310 C   0  0  0  0  0  3  0  0  0  0  0  0
  186.6490  177.9360  145.1610 C   0  0  0  0  0  0  0  0  0  0  0  0
  187.6210  177.6870  146.2250 C   0  0  0  0  0  0  0  0  0  0  0  0
  184.0430  178.8070  141.6200 C   0  0  1  0  0  3  0  0  0  0  0  0
  186.1610  179.1080  140.2750 C   0  0  0  0  0  2  0  0  0  0  0  0
  189.5320  177.1300  147.1400 N   0  0  0  0  0  0  0  0  0  0  0  0
  184.0020  179.4640  139.1040 C   0  0  0  0  0  2  0  0  0  0  0  0
  188.6320  177.6590  139.7790 C   0  0  0  0  0  3  0  0  0  0  0  0
  186.8670  178.4030  141.3440 N   0  0  0  0  0  0  0  0  0  0  0  0
  188.1840  177.8730  141.0910 C   0  0  0  0  0  0  0  0  0  0  0  0
  188.6080  177.8420  143.5640 C   0  0  2  0  0  3  0  0  0  0  0  0
  188.6980  177.4130  148.1320 N   0  0  0  0  0  0  0  0  0  0  0  0
  182.3060  177.4030  140.5510 N   0  0  0  0  0  2  0  0  0  0  0  0
  184.7000  178.6770  140.2240 C   0  0  2  0  0  3  0  0  0  0  0  0
  187.5000  177.7650  147.6010 C   0  0  0  0  0  3  0  0  0  0  0  0
  182.5890  178.3120  141.6620 C   0  0  0  0  0  2  0  0  0  0  0  0
  182.4760  179.5200  139.1860 C   0  0  1  0  0  3  0  0  0  0  0  0
  190.2920  177.0750  141.8980 N   0  0  0  0  0  0  0  0  0  0  0  0
  189.0380  177.5490  142.1560 C   0  0  0  0  0  0  0  0  0  0  0  0
  189.4240  177.0310  144.5960 C   0  0  0  0  0  2  0  0  0  0  0  0
  184.8420  178.0100  142.6450 C   0  0  0  0  0  2  0  0  0  0  0  0
  185.4780  178.3060  145.4460 O   0  0  0  0  0  0  0  0  0  0  0  0
  190.9050  176.6960  147.3310 C   0  0  0  0  0  1  0  0  0  0  0  0
  187.0770  177.6470  143.7290 C   0  0  2  0  0  3  0  0  0  0  0  0
  188.9020  177.3030  145.9700 C   0  0  0  0  0  0  0  0  0  0  0  0
  181.9500  180.1630  137.9920 N   0  0  0  0  0  2  0  0  0  0  0  0
  180.9730  181.2030  138.0540 C   0  0  0  0  0  0  0  0  0  0  0  0
  180.5000  181.6580  139.2790 O   0  0  0  0  0  1  0  0  0  0  0  0
  180.5390  181.7140  136.9900 O   0  0  0  0  0  0  0  0  0  0  0  0
  1 16  1  0  0  0  0
  2 24  1  6  0  0  0
  2 27  1  0  0  0  0
  3 11  2  0  0  0  0
  3  4  1  0  0  0  0
  4 21  2  0  0  0  0
  5 25  2  0  0  0  0
  5  6  1  0  0  0  0
  6 18  1  0  0  0  0
  7 19  1  6  0  0  0
  7 24  1  0  0  0  0
  8 12  1  0  0  0  0
  9 26  1  0  0  0  0
  9 15  1  0  0  0  0
 10 20  1  0  0  0  0
 11 13  1  0  0  0  0
 12  2  1  0  0  0  0
 13 12  1  0  0  0  0
 13 22  2  0  0  0  0
 14 27  1  0  0  0  0
 14 23  1  1  0  0  0
 16 19  1  0  0  0  0
 17 10  1  6  0  0  0
 17  8  1  0  0  0  0
 17  7  1  0  0  0  0
 18 15  2  0  0  0  0
 20 29  1  6  0  0  0
 20  1  1  0  0  0  0
 21 22  1  0  0  0  0
 22 14  1  0  0  0  0
 23 28  1  0  0  0  0
 27  5  1  1  0  0  0
 28  6  2  0  0  0  0
 28  9  1  0  0  0  0
 29 30  1  0  0  0  0
 30 31  1  0  0  0  0
 32 30  2  0  0  0  0
M  END
>  <MODEL>
1

>  <REMARK>
 VINA RESULT:     -10.4      0.000      0.000
  Name = 
  1 active torsions:
  status: ('A' for Active; 'I' for Inactive)
    1  A    between atoms: C_20  and  N_29
                            x       y       z     vdW  Elec       q    Type
                         _______ _______ _______ _____ _____    ______ ____

>  <TORSDO>
F 1

$$$$
=
 OpenBabel11122410353D

 32 37  0  0  1  0  0  0  0  0999 V2000
  191.9790  175.3560  137.7250 C   0  0  0  0  0  2  0  0  0  0  0  0
  189.1500  177.7460  141.9070 C   0  0  1  0  0  3  0  0  0  0  0  0
  191.8240  176.2620  145.8350 C   0  0  0  0  0  3  0  0  0  0  0  0
  190.7390  176.5400  146.6640 C   0  0  0  0  0  3  0  0  0  0  0  0
  186.6600  178.1390  142.2850 C   0  0  0  0  0  0  0  0  0  0  0  0
  185.6140  178.4760  143.2500 C   0  0  0  0  0  0  0  0  0  0  0  0
  190.1820  177.1930  139.6780 C   0  0  1  0  0  3  0  0  0  0  0  0
  191.6340  177.4830  141.7250 C   0  0  0  0  0  2  0  0  0  0  0  0
  184.6440  178.6850  145.2030 N   0  0  0  0  0  0  0  0  0  0  0  0
  192.7690  176.9500  139.5840 C   0  0  0  0  0  2  0  0  0  0  0  0
  191.7210  176.5280  144.4690 C   0  0  0  0  0  3  0  0  0  0  0  0
  190.4220  177.3460  142.5310 N   0  0  0  0  0  0  0  0  0  0  0  0
  190.5370  177.0620  143.9390 C   0  0  0  0  0  0  0  0  0  0  0  0
  188.2130  177.9480  144.2720 C   0  0  2  0  0  3  0  0  0  0  0  0
  183.7690  179.0930  144.2920 N   0  0  0  0  0  0  0  0  0  0  0  0
  190.6530  175.1700  138.3300 N   0  0  0  0  0  2  0  0  0  0  0  0
  191.4810  176.7530  140.3960 C   0  0  2  0  0  3  0  0  0  0  0  0
  184.3380  178.9780  143.0660 C   0  0  0  0  0  3  0  0  0  0  0  0
  189.9190  176.4360  138.3680 C   0  0  0  0  0  2  0  0  0  0  0  0
  192.6490  176.6960  138.0800 C   0  0  1  0  0  3  0  0  0  0  0  0
  189.5970  177.0580  146.1410 N   0  0  0  0  0  0  0  0  0  0  0  0
  189.4600  177.3060  144.8060 C   0  0  0  0  0  0  0  0  0  0  0  0
  187.0050  177.7250  145.2090 C   0  0  0  0  0  2  0  0  0  0  0  0
  188.9830  176.9760  140.5960 C   0  0  0  0  0  2  0  0  0  0  0  0
  186.4680  178.3180  141.0530 O   0  0  0  0  0  0  0  0  0  0  0  0
  184.3750  178.6500  146.6300 C   0  0  0  0  0  1  0  0  0  0  0  0
  187.9310  177.4910  142.8160 C   0  0  2  0  0  3  0  0  0  0  0  0
  185.7780  178.3180  144.5920 C   0  0  0  0  0  0  0  0  0  0  0  0
  193.9670  176.7750  137.4690 N   0  0  0  0  0  2  0  0  0  0  0  0
  194.1750  176.5460  136.0750 C   0  0  0  0  0  0  0  0  0  0  0  0
  193.1050  176.2560  135.2370 O   0  0  0  0  0  0  0  0  0  0  0  0
  195.3390  176.6090  135.6000 O   0  0  0  0  0  1  0  0  0  0  0  0
  1 20  1  0  0  0  0
  1 16  1  0  0  0  0
  2 24  1  6  0  0  0
  2 12  1  0  0  0  0
  2 27  1  0  0  0  0
  3  4  1  0  0  0  0
  5  6  1  0  0  0  0
  6 28  2  0  0  0  0
  7 19  1  6  0  0  0
  7 17  1  0  0  0  0
  7 24  1  0  0  0  0
  8 12  1  0  0  0  0
  9 26  1  0  0  0  0
 11  3  2  0  0  0  0
 12 13  1  0  0  0  0
 13 11  1  0  0  0  0
 13 22  2  0  0  0  0
 14 22  1  0  0  0  0
 14 23  1  1  0  0  0
 15  9  1  0  0  0  0
 16 19  1  0  0  0  0
 17 10  1  6  0  0  0
 17  8  1  0  0  0  0
 18  6  1  0  0  0  0
 18 15  2  0  0  0  0
 20 29  1  1  0  0  0
 20 10  1  0  0  0  0
 21  4  2  0  0  0  0
 22 21  1  0  0  0  0
 25  5  2  0  0  0  0
 27  5  1  6  0  0  0
 27 14  1  0  0  0  0
 28  9  1  0  0  0  0
 28 23  1  0  0  0  0
 30 29  1  0  0  0  0
 31 30  2  0  0  0  0
 32 30  1  0  0  0  0
M  END
>  <MODEL>
2

>  <REMARK>
 VINA RESULT:     -10.1      4.189      7.518
  Name = 
  1 active torsions:
  status: ('A' for Active; 'I' for Inactive)
    1  A    between atoms: C_20  and  N_29
                            x       y       z     vdW  Elec       q    Type
                         _______ _______ _______ _____ _____    ______ ____

>  <TORSDO>
F 1

$$$$
=
 OpenBabel11122410353D

 32 37  0  0  1  0  0  0  0  0999 V2000
  192.5330  174.9930  137.0490 C   0  0  0  0  0  2  0  0  0  0  0  0
  189.3390  177.7140  140.7370 C   0  0  1  0  0  3  0  0  0  0  0  0
  191.6510  176.5990  145.0030 C   0  0  0  0  0  3  0  0  0  0  0  0
  190.4960  176.9380  145.7040 C   0  0  0  0  0  3  0  0  0  0  0  0
  186.8260  178.1170  140.8560 C   0  0  0  0  0  0  0  0  0  0  0  0
  185.6970  178.5290  141.6910 C   0  0  0  0  0  0  0  0  0  0  0  0
  190.5670  176.9780  138.6670 C   0  0  1  0  0  3  0  0  0  0  0  0
  191.8300  177.4570  140.8020 C   0  0  0  0  0  2  0  0  0  0  0  0
  184.5550  178.8990  143.5240 N   0  0  0  0  0  0  0  0  0  0  0  0
  193.1530  176.7490  138.8250 C   0  0  0  0  0  2  0  0  0  0  0  0
  191.6710  176.7440  143.6160 C   0  0  0  0  0  3  0  0  0  0  0  0
  190.5510  177.3800  141.5050 N   0  0  0  0  0  0  0  0  0  0  0  0
  190.5390  177.2210  142.9380 C   0  0  0  0  0  0  0  0  0  0  0  0
  188.1950  178.1130  142.9830 C   0  0  2  0  0  3  0  0  0  0  0  0
  183.7660  179.2180  142.5070 N   0  0  0  0  0  0  0  0  0  0  0  0
  191.1590  174.8500  137.5480 N   0  0  0  0  0  2  0  0  0  0  0  0
  191.7970  176.6130  139.5340 C   0  0  2  0  0  3  0  0  0  0  0  0
  184.4420  179.0030  141.3510 C   0  0  0  0  0  3  0  0  0  0  0  0
  190.4230  176.1070  137.4090 C   0  0  0  0  0  2  0  0  0  0  0  0
  193.1670  176.3650  137.3450 C   0  0  1  0  0  3  0  0  0  0  0  0
  189.4050  177.3990  145.0380 N   0  0  0  0  0  0  0  0  0  0  0  0
  189.3890  177.5290  143.6800 C   0  0  0  0  0  0  0  0  0  0  0  0
  186.9070  177.9620  143.8240 C   0  0  0  0  0  2  0  0  0  0  0  0
  189.2910  176.8320  139.4890 C   0  0  0  0  0  2  0  0  0  0  0  0
  186.7440  178.1880  139.6010 O   0  0  0  0  0  0  0  0  0  0  0  0
  184.1600  178.9850  144.9190 C   0  0  0  0  0  1  0  0  0  0  0  0
  188.0440  177.5280  141.5530 C   0  0  2  0  0  3  0  0  0  0  0  0
  185.7410  178.4890  143.0510 C   0  0  0  0  0  0  0  0  0  0  0  0
  194.5350  176.4010  136.8490 N   0  0  0  0  0  2  0  0  0  0  0  0
  194.8460  176.7280  135.4940 C   0  0  0  0  0  0  0  0  0  0  0  0
  193.8370  177.0500  134.5940 O   0  0  0  0  0  0  0  0  0  0  0  0
  196.0450  176.7280  135.1130 O   0  0  0  0  0  1  0  0  0  0  0  0
  1 20  1  0  0  0  0
  1 16  1  0  0  0  0
  2 24  1  6  0  0  0
  2 12  1  0  0  0  0
  2 27  1  0  0  0  0
  3  4  1  0  0  0  0
  5  6  1  0  0  0  0
  6 28  2  0  0  0  0
  7 19  1  6  0  0  0
  7 24  1  0  0  0  0
  7 17  1  0  0  0  0
  8 12  1  0  0  0  0
  9 26  1  0  0  0  0
 11  3  2  0  0  0  0
 12 13  1  0  0  0  0
 13 11  1  0  0  0  0
 13 22  2  0  0  0  0
 14 22  1  0  0  0  0
 14 23  1  1  0  0  0
 15  9  1  0  0  0  0
 17 10  1  6  0  0  0
 17  8  1  0  0  0  0
 18  6  1  0  0  0  0
 18 15  2  0  0  0  0
 19 16  1  0  0  0  0
 20 29  1  1  0  0  0
 20 10  1  0  0  0  0
 21  4  2  0  0  0  0
 22 21  1  0  0  0  0
 25  5  2  0  0  0  0
 27  5  1  6  0  0  0
 27 14  1  0  0  0  0
 28  9  1  0  0  0  0
 28 23  1  0  0  0  0
 30 29  1  0  0  0  0
 31 30  2  0  0  0  0
 32 30  1  0  0  0  0
M  END
>  <MODEL>
3

>  <REMARK>
 VINA RESULT:      -8.9      4.558      7.986
  Name = 
  1 active torsions:
  status: ('A' for Active; 'I' for Inactive)
    1  A    between atoms: C_20  and  N_29
                            x       y       z     vdW  Elec       q    Type
                         _______ _______ _______ _____ _____    ______ ____

>  <TORSDO>
F 1

$$$$
=
 OpenBabel11122410353D

 32 37  0  0  1  0  0  0  0  0999 V2000
  189.4170  178.2530  147.8410 C   0  0  0  0  0  2  0  0  0  0  0  0
  185.6410  177.8150  143.7480 C   0  0  1  0  0  3  0  0  0  0  0  0
  188.5360  178.3040  139.7270 C   0  0  0  0  0  3  0  0  0  0  0  0
  187.4120  178.6280  138.9710 C   0  0  0  0  0  3  0  0  0  0  0  0
  183.2340  178.6280  143.5450 C   0  0  0  0  0  0  0  0  0  0  0  0
  182.1110  178.8940  142.6460 C   0  0  0  0  0  0  0  0  0  0  0  0
  186.9010  177.6250  145.9180 C   0  0  1  0  0  3  0  0  0  0  0  0
  187.9760  176.9090  143.7460 C   0  0  0  0  0  2  0  0  0  0  0  0
  181.0740  179.3360  140.7680 N   0  0  0  0  0  0  0  0  0  0  0  0
  189.3160  176.6620  145.8210 C   0  0  0  0  0  2  0  0  0  0  0  0
  188.3780  177.9830  141.0750 C   0  0  0  0  0  3  0  0  0  0  0  0
  186.9290  177.6560  143.0520 N   0  0  0  0  0  0  0  0  0  0  0  0
  187.1040  177.9920  141.6610 C   0  0  0  0  0  0  0  0  0  0  0  0
  184.6210  178.2880  141.4570 C   0  0  2  0  0  3  0  0  0  0  0  0
  180.1480  179.2810  141.7160 N   0  0  0  0  0  0  0  0  0  0  0  0
  188.2990  179.0750  147.3580 N   0  0  0  0  0  2  0  0  0  0  0  0
  188.2280  177.4970  145.1300 C   0  0  2  0  0  3  0  0  0  0  0  0
  180.7550  179.0080  142.8970 C   0  0  0  0  0  3  0  0  0  0  0  0
  187.0670  178.2880  147.2940 C   0  0  0  0  0  2  0  0  0  0  0  0
  189.3850  176.7960  147.3430 C   0  0  1  0  0  3  0  0  0  0  0  0
  186.1810  178.6340  139.5480 N   0  0  0  0  0  0  0  0  0  0  0  0
  186.0010  178.3460  140.8690 C   0  0  0  0  0  0  0  0  0  0  0  0
  183.6100  179.1220  140.6370 C   0  0  0  0  0  2  0  0  0  0  0  0
  185.8980  178.4460  145.1160 C   0  0  0  0  0  2  0  0  0  0  0  0
  183.0310  178.4360  144.7740 O   0  0  0  0  0  0  0  0  0  0  0  0
  180.7940  179.6260  139.3730 C   0  0  0  0  0  1  0  0  0  0  0  0
  184.6380  178.6800  142.9580 C   0  0  2  0  0  3  0  0  0  0  0  0
  182.2750  179.0900  141.3090 C   0  0  0  0  0  0  0  0  0  0  0  0
  190.5450  176.0710  147.8400 N   0  0  0  0  0  2  0  0  0  0  0  0
  191.8460  176.2370  147.2750 C   0  0  0  0  0  0  0  0  0  0  0  0
  192.0550  177.1270  146.2290 O   0  0  0  0  0  0  0  0  0  0  0  0
  192.8120  175.5720  147.7310 O   0  0  0  0  0  1  0  0  0  0  0  0
  2 24  1  1  0  0  0
  3 11  1  0  0  0  0
  4 21  1  0  0  0  0
  4  3  2  0  0  0  0
  5 25  2  0  0  0  0
  6 18  1  0  0  0  0
  6  5  1  0  0  0  0
  7 24  1  6  0  0  0
  7 19  1  0  0  0  0
  9 28  1  0  0  0  0
  9 15  1  0  0  0  0
 10 20  1  0  0  0  0
 11 13  2  0  0  0  0
 12  8  1  0  0  0  0
 12  2  1  0  0  0  0
 13 12  1  0  0  0  0
 14 23  1  6  0  0  0
 14 27  1  0  0  0  0
 15 18  2  0  0  0  0
 16  1  1  0  0  0  0
 17  8  1  6  0  0  0
 17 10  1  0  0  0  0
 17  7  1  0  0  0  0
 19 16  1  0  0  0  0
 20 29  1  6  0  0  0
 20  1  1  0  0  0  0
 21 22  2  0  0  0  0
 22 14  1  0  0  0  0
 22 13  1  0  0  0  0
 23 28  1  0  0  0  0
 26  9  1  0  0  0  0
 27  5  1  1  0  0  0
 27  2  1  0  0  0  0
 28  6  2  0  0  0  0
 30 32  1  0  0  0  0
 30 29  1  0  0  0  0
 31 30  2  0  0  0  0
M  END
>  <MODEL>
4

>  <REMARK>
 VINA RESULT:      -8.7      2.550      8.375
  Name = 
  1 active torsions:
  status: ('A' for Active; 'I' for Inactive)
    1  A    between atoms: C_20  and  N_29
                            x       y       z     vdW  Elec       q    Type
                         _______ _______ _______ _____ _____    ______ ____

>  <TORSDO>
F 1

$$$$
