=
 OpenBabel11122411063D

 31 35  0  0  0  0  0  0  0  0999 V2000
  185.4830  178.5150  143.8570 C   0  0  0  0  0  0  0  0  0  0  0  0
  189.0730  177.3890  143.7190 C   0  0  0  0  0  0  0  0  0  0  0  0
  189.5290  177.2620  145.0630 C   0  0  0  0  0  0  0  0  0  0  0  0
  189.2110  177.2860  138.4570 O   0  0  0  0  0  0  0  0  0  0  0  0
  190.3400  176.9370  138.8980 C   0  0  0  0  0  0  0  0  0  0  0  0
  189.2060  177.3920  147.4810 C   0  0  0  0  0  0  0  0  0  0  0  0
  187.7590  177.7970  143.3390 C   0  0  0  0  0  0  0  0  0  0  0  0
  185.1830  178.5930  142.4970 C   0  0  0  0  0  3  0  0  0  0  0  0
  188.7170  177.5300  146.1800 C   0  0  0  0  0  3  0  0  0  0  0  0
  189.6230  177.1900  141.3410 C   0  0  0  0  0  0  0  0  0  0  0  0
  184.5360  178.8220  144.7770 F   0  0  0  0  0  0  0  0  0  0  0  0
  191.6800  176.5790  144.2540 N   0  0  0  0  0  0  0  0  0  0  0  0
  188.1650  177.7340  148.8450 Cl  0  0  0  0  0  0  0  0  0  0  0  0
  188.3640  177.5800  141.0200 N   0  0  0  0  0  0  0  0  0  0  0  0
  189.9990  177.0880  142.6860 C   0  0  0  0  0  0  0  0  0  0  0  0
  190.5750  176.8810  140.3120 N   0  0  0  0  0  2  0  0  0  0  0  0
  186.7560  178.1220  144.2710 C   0  0  0  0  0  3  0  0  0  0  0  0
  190.5220  176.9820  147.6920 C   0  0  0  0  0  3  0  0  0  0  0  0
  187.4370  177.8820  141.9610 C   0  0  0  0  0  0  0  0  0  0  0  0
  186.1590  178.2770  141.5530 C   0  0  0  0  0  3  0  0  0  0  0  0
  191.2630  176.6960  142.9960 N   0  0  0  0  0  0  0  0  0  0  0  0
  190.8620  176.8480  145.2970 C   0  0  0  0  0  0  0  0  0  0  0  0
  191.3480  176.7110  146.6010 C   0  0  0  0  0  3  0  0  0  0  0  0
  193.5280  175.9610  136.2350 C   0  0  0  0  0  0  0  0  0  0  0  0
  192.7560  176.7080  138.3500 C   0  0  0  0  0  3  0  0  0  0  0  0
  189.8910  175.9990  136.1700 F   0  0  0  0  0  0  0  0  0  0  0  0
  194.6630  175.6300  135.3340 C   0  0  0  0  0  1  0  0  0  0  0  0
  193.7700  176.3960  137.4990 N   0  0  0  0  0  0  0  0  0  0  0  0
  191.1570  176.1390  136.6350 C   0  0  0  0  0  0  0  0  0  0  0  0
  191.4180  176.5890  137.9450 C   0  0  0  0  0  0  0  0  0  0  0  0
  192.2170  175.8250  135.7810 C   0  0  0  0  0  3  0  0  0  0  0  0
  1 17  1  0  0  0  0
  1 11  1  0  0  0  0
  2  3  1  0  0  0  0
  3 22  2  0  0  0  0
  3  9  1  0  0  0  0
  4  5  2  0  0  0  0
  5 16  1  0  0  0  0
  6 18  1  0  0  0  0
  6 13  1  0  0  0  0
  7  2  1  0  0  0  0
  7 17  2  0  0  0  0
  8  1  2  0  0  0  0
  9  6  2  0  0  0  0
 10 15  1  0  0  0  0
 12 22  1  0  0  0  0
 14 10  2  0  0  0  0
 14 19  1  0  0  0  0
 15 21  1  0  0  0  0
 15  2  2  0  0  0  0
 16 10  1  0  0  0  0
 19  7  1  0  0  0  0
 20 19  2  0  0  0  0
 20  8  1  0  0  0  0
 21 12  2  0  0  0  0
 22 23  1  0  0  0  0
 23 18  2  0  0  0  0
 24 28  1  0  0  0  0
 26 29  1  0  0  0  0
 27 24  1  0  0  0  0
 28 25  2  0  0  0  0
 29 30  2  0  0  0  0
 30 25  1  0  0  0  0
 30  5  1  0  0  0  0
 31 24  2  0  0  0  0
 31 29  1  0  0  0  0
M  END
>  <MODEL>
1

>  <REMARK>
 VINA RESULT:     -11.3      0.000      0.000
  Name = 
  1 active torsions:
  status: ('A' for Active; 'I' for Inactive)
    1  A    between atoms: C_5  and  C_30
                            x       y       z     vdW  Elec       q    Type
                         _______ _______ _______ _____ _____    ______ ____

>  <TORSDO>
F 1

$$$$
=
 OpenBabel11122411063D

 31 35  0  0  0  0  0  0  0  0999 V2000
  185.2940  178.6250  144.1540 C   0  0  0  0  0  0  0  0  0  0  0  0
  188.8580  177.4530  143.8360 C   0  0  0  0  0  0  0  0  0  0  0  0
  189.3820  177.3290  145.1550 C   0  0  0  0  0  0  0  0  0  0  0  0
  188.7180  177.3170  138.5750 O   0  0  0  0  0  0  0  0  0  0  0  0
  189.8650  176.9560  138.9580 C   0  0  0  0  0  0  0  0  0  0  0  0
  189.1880  177.4770  147.5850 C   0  0  0  0  0  0  0  0  0  0  0  0
  187.5310  177.8750  143.5230 C   0  0  0  0  0  0  0  0  0  0  0  0
  184.9250  178.6990  142.8120 C   0  0  0  0  0  3  0  0  0  0  0  0
  188.6330  177.6130  146.3110 C   0  0  0  0  0  3  0  0  0  0  0  0
  189.2800  177.2330  141.4330 C   0  0  0  0  0  0  0  0  0  0  0  0
  184.4010  178.9500  145.1210 F   0  0  0  0  0  0  0  0  0  0  0  0
  191.4800  176.6140  144.2390 N   0  0  0  0  0  0  0  0  0  0  0  0
  188.2240  177.8400  149.0000 Cl  0  0  0  0  0  0  0  0  0  0  0  0
  188.0100  177.6370  141.1770 N   0  0  0  0  0  0  0  0  0  0  0  0
  189.7250  177.1350  142.7580 C   0  0  0  0  0  0  0  0  0  0  0  0
  190.1720  176.9050  140.3590 N   0  0  0  0  0  2  0  0  0  0  0  0
  186.5820  178.2180  144.5040 C   0  0  0  0  0  3  0  0  0  0  0  0
  190.5090  177.0520  147.7300 C   0  0  0  0  0  3  0  0  0  0  0  0
  187.1380  177.9560  142.1630 C   0  0  0  0  0  0  0  0  0  0  0  0
  185.8450  178.3650  141.8200 C   0  0  0  0  0  3  0  0  0  0  0  0
  190.9990  176.7280  143.0030 N   0  0  0  0  0  0  0  0  0  0  0  0
  190.7200  176.8990  145.3220 C   0  0  0  0  0  0  0  0  0  0  0  0
  191.2730  176.7640  146.5990 C   0  0  0  0  0  3  0  0  0  0  0  0
  192.7230  175.8730  135.9800 C   0  0  0  0  0  0  0  0  0  0  0  0
  190.4750  176.1780  136.6760 C   0  0  0  0  0  3  0  0  0  0  0  0
  192.7450  177.0180  139.4330 F   0  0  0  0  0  0  0  0  0  0  0  0
  193.6900  175.4900  134.9190 C   0  0  0  0  0  1  0  0  0  0  0  0
  191.3880  175.8340  135.7290 N   0  0  0  0  0  0  0  0  0  0  0  0
  192.2690  176.6330  138.2240 C   0  0  0  0  0  0  0  0  0  0  0  0
  190.8870  176.5890  137.9520 C   0  0  0  0  0  0  0  0  0  0  0  0
  193.1860  176.2740  137.2330 C   0  0  0  0  0  3  0  0  0  0  0  0
  1 17  1  0  0  0  0
  1 11  1  0  0  0  0
  2  3  1  0  0  0  0
  3 22  2  0  0  0  0
  3  9  1  0  0  0  0
  4  5  2  0  0  0  0
  5 16  1  0  0  0  0
  6 18  1  0  0  0  0
  6 13  1  0  0  0  0
  7  2  1  0  0  0  0
  7 17  2  0  0  0  0
  8  1  2  0  0  0  0
  9  6  2  0  0  0  0
 10 15  1  0  0  0  0
 12 22  1  0  0  0  0
 14 10  2  0  0  0  0
 14 19  1  0  0  0  0
 15 21  1  0  0  0  0
 15  2  2  0  0  0  0
 16 10  1  0  0  0  0
 19  7  1  0  0  0  0
 20 19  2  0  0  0  0
 20  8  1  0  0  0  0
 21 12  2  0  0  0  0
 22 23  1  0  0  0  0
 23 18  2  0  0  0  0
 24 31  1  0  0  0  0
 25 30  2  0  0  0  0
 27 24  1  0  0  0  0
 28 24  2  0  0  0  0
 28 25  1  0  0  0  0
 29 26  1  0  0  0  0
 30 29  1  0  0  0  0
 30  5  1  0  0  0  0
 31 29  2  0  0  0  0
M  END
>  <MODEL>
2

>  <REMARK>
 VINA RESULT:     -11.3      1.061      1.257
  Name = 
  1 active torsions:
  status: ('A' for Active; 'I' for Inactive)
    1  A    between atoms: C_5  and  C_30
                            x       y       z     vdW  Elec       q    Type
                         _______ _______ _______ _____ _____    ______ ____

>  <TORSDO>
F 1

$$$$
=
 OpenBabel11122411063D

 31 35  0  0  0  0  0  0  0  0999 V2000
  191.1590  177.2850  141.6550 C   0  0  0  0  0  0  0  0  0  0  0  0
  187.8410  177.8980  143.3270 C   0  0  0  0  0  0  0  0  0  0  0  0
  188.0310  177.7080  144.7260 C   0  0  0  0  0  0  0  0  0  0  0  0
  185.3560  178.9510  138.8070 O   0  0  0  0  0  0  0  0  0  0  0  0
  184.5290  179.0490  139.7550 C   0  0  0  0  0  0  0  0  0  0  0  0
  189.4080  177.1810  146.6730 C   0  0  0  0  0  0  0  0  0  0  0  0
  188.8630  177.7580  142.3390 C   0  0  0  0  0  0  0  0  0  0  0  0
  190.8210  177.5030  140.3200 C   0  0  0  0  0  3  0  0  0  0  0  0
  189.2680  177.3560  145.2940 C   0  0  0  0  0  3  0  0  0  0  0  0
  186.2760  178.4530  141.5270 C   0  0  0  0  0  0  0  0  0  0  0  0
  192.4300  176.9500  141.9850 F   0  0  0  0  0  0  0  0  0  0  0  0
  185.7170  178.2180  145.0940 N   0  0  0  0  0  0  0  0  0  0  0  0
  190.9650  176.7440  147.3430 Cl  0  0  0  0  0  0  0  0  0  0  0  0
  187.2740  178.3110  140.6190 N   0  0  0  0  0  0  0  0  0  0  0  0
  186.5380  178.2500  142.8880 C   0  0  0  0  0  0  0  0  0  0  0  0
  184.9510  178.8090  141.1050 N   0  0  0  0  0  2  0  0  0  0  0  0
  190.1900  177.4110  142.6520 C   0  0  0  0  0  3  0  0  0  0  0  0
  188.3090  177.3540  147.5140 C   0  0  0  0  0  3  0  0  0  0  0  0
  188.5370  177.9750  140.9770 C   0  0  0  0  0  0  0  0  0  0  0  0
  189.5120  177.8470  139.9830 C   0  0  0  0  0  3  0  0  0  0  0  0
  185.5310  178.3960  143.7890 N   0  0  0  0  0  0  0  0  0  0  0  0
  186.9270  177.8790  145.5950 C   0  0  0  0  0  0  0  0  0  0  0  0
  187.0710  177.7030  146.9750 C   0  0  0  0  0  3  0  0  0  0  0  0
  180.5180  180.1910  138.8500 C   0  0  0  0  0  0  0  0  0  0  0  0
  182.8560  180.5700  138.7190 C   0  0  0  0  0  3  0  0  0  0  0  0
  182.2100  177.5030  140.6250 F   0  0  0  0  0  0  0  0  0  0  0  0
  179.1350  180.6180  138.5170 C   0  0  0  0  0  1  0  0  0  0  0  0
  181.5770  180.9310  138.4320 N   0  0  0  0  0  0  0  0  0  0  0  0
  182.0330  178.6360  139.9020 C   0  0  0  0  0  0  0  0  0  0  0  0
  183.1240  179.4110  139.4620 C   0  0  0  0  0  0  0  0  0  0  0  0
  180.7280  179.0300  139.5930 C   0  0  0  0  0  3  0  0  0  0  0  0
  1 11  1  0  0  0  0
  1 17  1  0  0  0  0
  2  3  1  0  0  0  0
  3  9  2  0  0  0  0
  3 22  1  0  0  0  0
  4  5  2  0  0  0  0
  5 16  1  0  0  0  0
  6 13  1  0  0  0  0
  6 18  2  0  0  0  0
  7 17  2  0  0  0  0
  7  2  1  0  0  0  0
  8  1  2  0  0  0  0
  9  6  1  0  0  0  0
 10 15  1  0  0  0  0
 12 22  1  0  0  0  0
 14 19  1  0  0  0  0
 14 10  2  0  0  0  0
 15  2  2  0  0  0  0
 15 21  1  0  0  0  0
 16 10  1  0  0  0  0
 19  7  1  0  0  0  0
 20  8  1  0  0  0  0
 20 19  2  0  0  0  0
 21 12  2  0  0  0  0
 22 23  2  0  0  0  0
 23 18  1  0  0  0  0
 24 31  1  0  0  0  0
 25 30  2  0  0  0  0
 27 24  1  0  0  0  0
 28 25  1  0  0  0  0
 28 24  2  0  0  0  0
 29 26  1  0  0  0  0
 30  5  1  0  0  0  0
 30 29  1  0  0  0  0
 31 29  2  0  0  0  0
M  END
>  <MODEL>
3

>  <REMARK>
 VINA RESULT:     -11.0      3.678      7.202
  Name = 
  1 active torsions:
  status: ('A' for Active; 'I' for Inactive)
    1  A    between atoms: C_5  and  C_30
                            x       y       z     vdW  Elec       q    Type
                         _______ _______ _______ _____ _____    ______ ____

>  <TORSDO>
F 1

$$$$
=
 OpenBabel11122411063D

 31 35  0  0  0  0  0  0  0  0999 V2000
  186.7110  178.1570  147.4100 C   0  0  0  0  0  0  0  0  0  0  0  0
  187.5510  177.6920  143.7700 C   0  0  0  0  0  0  0  0  0  0  0  0
  188.9210  177.3050  143.6970 C   0  0  0  0  0  0  0  0  0  0  0  0
  182.7090  178.9420  142.1250 O   0  0  0  0  0  0  0  0  0  0  0  0
  183.4230  178.6790  141.1180 C   0  0  0  0  0  0  0  0  0  0  0  0
  191.0760  176.7670  144.7140 C   0  0  0  0  0  0  0  0  0  0  0  0
  186.8450  177.9660  144.9790 C   0  0  0  0  0  0  0  0  0  0  0  0
  185.3690  178.5260  147.3210 C   0  0  0  0  0  3  0  0  0  0  0  0
  189.7370  177.1490  144.8320 C   0  0  0  0  0  3  0  0  0  0  0  0
  185.4940  178.1900  142.5370 C   0  0  0  0  0  0  0  0  0  0  0  0
  187.3090  178.0660  148.6230 F   0  0  0  0  0  0  0  0  0  0  0  0
  188.7510  177.2020  141.3080 N   0  0  0  0  0  0  0  0  0  0  0  0
  192.0600  176.5830  146.1490 Cl  0  0  0  0  0  0  0  0  0  0  0  0
  184.8570  178.4410  143.7080 N   0  0  0  0  0  0  0  0  0  0  0  0
  186.8440  177.8140  142.5450 C   0  0  0  0  0  0  0  0  0  0  0  0
  184.7970  178.3060  141.2880 N   0  0  0  0  0  2  0  0  0  0  0  0
  187.4390  177.8810  146.2520 C   0  0  0  0  0  3  0  0  0  0  0  0
  191.6270  176.5340  143.4540 C   0  0  0  0  0  3  0  0  0  0  0  0
  185.4800  178.3430  144.9070 C   0  0  0  0  0  0  0  0  0  0  0  0
  184.7560  178.6180  146.0720 C   0  0  0  0  0  3  0  0  0  0  0  0
  187.4710  177.5630  141.3660 N   0  0  0  0  0  0  0  0  0  0  0  0
  189.4980  177.0640  142.4280 C   0  0  0  0  0  0  0  0  0  0  0  0
  190.8380  176.6820  142.3130 C   0  0  0  0  0  3  0  0  0  0  0  0
  181.7000  179.0300  137.2300 C   0  0  0  0  0  0  0  0  0  0  0  0
  182.4170  180.0060  139.2700 C   0  0  0  0  0  3  0  0  0  0  0  0
  183.0310  176.3890  139.3490 F   0  0  0  0  0  0  0  0  0  0  0  0
  181.0970  179.1890  135.8810 C   0  0  0  0  0  1  0  0  0  0  0  0
  181.8690  180.1140  138.0300 N   0  0  0  0  0  0  0  0  0  0  0  0
  182.6580  177.6280  138.9420 C   0  0  0  0  0  0  0  0  0  0  0  0
  182.8300  178.7600  139.7640 C   0  0  0  0  0  0  0  0  0  0  0  0
  182.0920  177.7670  137.6730 C   0  0  0  0  0  3  0  0  0  0  0  0
  1 11  1  0  0  0  0
  2  7  1  0  0  0  0
  3  2  1  0  0  0  0
  3  9  1  0  0  0  0
  5 16  1  0  0  0  0
  5  4  2  0  0  0  0
  6  9  2  0  0  0  0
  6 13  1  0  0  0  0
  7 17  1  0  0  0  0
  8  1  1  0  0  0  0
 10 15  1  0  0  0  0
 10 14  2  0  0  0  0
 12 21  2  0  0  0  0
 12 22  1  0  0  0  0
 14 19  1  0  0  0  0
 15  2  2  0  0  0  0
 16 10  1  0  0  0  0
 17  1  2  0  0  0  0
 18  6  1  0  0  0  0
 19  7  2  0  0  0  0
 19 20  1  0  0  0  0
 20  8  2  0  0  0  0
 21 15  1  0  0  0  0
 22  3  2  0  0  0  0
 23 22  1  0  0  0  0
 23 18  2  0  0  0  0
 24 31  2  0  0  0  0
 24 28  1  0  0  0  0
 25 30  1  0  0  0  0
 27 24  1  0  0  0  0
 28 25  2  0  0  0  0
 29 26  1  0  0  0  0
 29 30  2  0  0  0  0
 30  5  1  0  0  0  0
 31 29  1  0  0  0  0
M  END
>  <MODEL>
4

>  <REMARK>
 VINA RESULT:     -10.5      4.009      6.676
  Name = 
  1 active torsions:
  status: ('A' for Active; 'I' for Inactive)
    1  A    between atoms: C_5  and  C_30
                            x       y       z     vdW  Elec       q    Type
                         _______ _______ _______ _____ _____    ______ ____

>  <TORSDO>
F 1

$$$$
=
 OpenBabel11122411063D

 31 35  0  0  0  0  0  0  0  0999 V2000
  185.7600  178.2260  146.5510 C   0  0  0  0  0  0  0  0  0  0  0  0
  185.7190  178.2440  142.7860 C   0  0  0  0  0  0  0  0  0  0  0  0
  184.3870  178.5450  142.3790 C   0  0  0  0  0  0  0  0  0  0  0  0
  190.8390  177.0900  142.3690 O   0  0  0  0  0  0  0  0  0  0  0  0
  190.3540  177.2030  141.2100 C   0  0  0  0  0  0  0  0  0  0  0  0
  182.0470  179.0710  142.8420 C   0  0  0  0  0  0  0  0  0  0  0  0
  186.1530  178.1430  144.1420 C   0  0  0  0  0  0  0  0  0  0  0  0
  187.1000  177.9240  146.7940 C   0  0  0  0  0  3  0  0  0  0  0  0
  183.3390  178.7790  143.2870 C   0  0  0  0  0  3  0  0  0  0  0  0
  188.0090  177.7290  142.0880 C   0  0  0  0  0  0  0  0  0  0  0  0
  184.9100  178.4150  147.5890 F   0  0  0  0  0  0  0  0  0  0  0  0
  185.0700  178.3960  140.0850 N   0  0  0  0  0  0  0  0  0  0  0  0
  180.7690  179.3560  144.0030 Cl  0  0  0  0  0  0  0  0  0  0  0  0
  188.3830  177.6420  143.3890 N   0  0  0  0  0  0  0  0  0  0  0  0
  186.6800  178.0290  141.7630 C   0  0  0  0  0  0  0  0  0  0  0  0
  188.9650  177.5160  141.0380 N   0  0  0  0  0  2  0  0  0  0  0  0
  185.2940  178.3340  145.2400 C   0  0  0  0  0  3  0  0  0  0  0  0
  181.7770  179.1340  141.4760 C   0  0  0  0  0  3  0  0  0  0  0  0
  187.5120  177.8360  144.4080 C   0  0  0  0  0  0  0  0  0  0  0  0
  187.9720  177.7300  145.7240 C   0  0  0  0  0  3  0  0  0  0  0  0
  186.3170  178.1140  140.4560 N   0  0  0  0  0  0  0  0  0  0  0  0
  184.0940  178.6140  140.9960 C   0  0  0  0  0  0  0  0  0  0  0  0
  182.7990  178.9060  140.5540 C   0  0  0  0  0  3  0  0  0  0  0  0
  192.9720  176.6780  137.8810 C   0  0  0  0  0  0  0  0  0  0  0  0
  192.5980  177.2970  140.1410 C   0  0  0  0  0  3  0  0  0  0  0  0
  189.4350  176.2400  138.6110 F   0  0  0  0  0  0  0  0  0  0  0  0
  193.9120  176.5070  136.7440 C   0  0  0  0  0  1  0  0  0  0  0  0
  193.4300  177.1290  139.0780 N   0  0  0  0  0  0  0  0  0  0  0  0
  190.7440  176.5400  138.7950 C   0  0  0  0  0  0  0  0  0  0  0  0
  191.2300  177.0080  140.0330 C   0  0  0  0  0  0  0  0  0  0  0  0
  191.6210  176.3760  137.7190 C   0  0  0  0  0  3  0  0  0  0  0  0
  1  8  1  0  0  0  0
  1 11  1  0  0  0  0
  2  7  1  0  0  0  0
  3  2  1  0  0  0  0
  3  9  1  0  0  0  0
  5  4  2  0  0  0  0
  6  9  2  0  0  0  0
  6 13  1  0  0  0  0
  7 19  2  0  0  0  0
  7 17  1  0  0  0  0
 10 14  2  0  0  0  0
 12 21  2  0  0  0  0
 12 22  1  0  0  0  0
 14 19  1  0  0  0  0
 15 10  1  0  0  0  0
 15  2  2  0  0  0  0
 16  5  1  0  0  0  0
 16 10  1  0  0  0  0
 17  1  2  0  0  0  0
 18  6  1  0  0  0  0
 19 20  1  0  0  0  0
 20  8  2  0  0  0  0
 21 15  1  0  0  0  0
 22  3  2  0  0  0  0
 23 22  1  0  0  0  0
 23 18  2  0  0  0  0
 24 28  1  0  0  0  0
 26 29  1  0  0  0  0
 27 24  1  0  0  0  0
 28 25  2  0  0  0  0
 29 30  2  0  0  0  0
 30 25  1  0  0  0  0
 30  5  1  0  0  0  0
 31 24  2  0  0  0  0
 31 29  1  0  0  0  0
M  END
>  <MODEL>
5

>  <REMARK>
 VINA RESULT:     -10.2      2.567      5.069
  Name = 
  1 active torsions:
  status: ('A' for Active; 'I' for Inactive)
    1  A    between atoms: C_5  and  C_30
                            x       y       z     vdW  Elec       q    Type
                         _______ _______ _______ _____ _____    ______ ____

>  <TORSDO>
F 1

$$$$
=
 OpenBabel11122411063D

 31 35  0  0  0  0  0  0  0  0999 V2000
  186.3720  178.0040  145.4830 C   0  0  0  0  0  0  0  0  0  0  0  0
  186.8660  178.3000  141.7620 C   0  0  0  0  0  0  0  0  0  0  0  0
  188.2380  178.0260  141.4940 C   0  0  0  0  0  0  0  0  0  0  0  0
  181.8290  179.5150  140.8310 O   0  0  0  0  0  0  0  0  0  0  0  0
  182.4500  179.4970  139.7330 C   0  0  0  0  0  0  0  0  0  0  0  0
  190.5080  177.4490  142.1890 C   0  0  0  0  0  0  0  0  0  0  0  0
  186.2710  178.2900  143.0600 C   0  0  0  0  0  0  0  0  0  0  0  0
  185.0120  178.2930  145.5880 C   0  0  0  0  0  3  0  0  0  0  0  0
  189.1710  177.7110  142.4980 C   0  0  0  0  0  3  0  0  0  0  0  0
  184.6740  178.8850  140.8390 C   0  0  0  0  0  0  0  0  0  0  0  0
  187.0930  177.7240  146.5960 F   0  0  0  0  0  0  0  0  0  0  0  0
  187.8350  178.3700  139.1550 N   0  0  0  0  0  0  0  0  0  0  0  0
  191.6380  177.0600  143.4670 Cl  0  0  0  0  0  0  0  0  0  0  0  0
  184.1460  178.8650  142.0890 N   0  0  0  0  0  0  0  0  0  0  0  0
  186.0340  178.6050  140.6530 C   0  0  0  0  0  0  0  0  0  0  0  0
  183.8510  179.1910  139.7040 N   0  0  0  0  0  2  0  0  0  0  0  0
  186.9930  178.0030  144.2330 C   0  0  0  0  0  3  0  0  0  0  0  0
  190.9400  177.4980  140.8640 C   0  0  0  0  0  3  0  0  0  0  0  0
  184.8900  178.5820  143.1850 C   0  0  0  0  0  0  0  0  0  0  0  0
  184.2740  178.5810  144.4410 C   0  0  0  0  0  3  0  0  0  0  0  0
  186.5520  178.6270  139.3960 N   0  0  0  0  0  0  0  0  0  0  0  0
  188.6960  178.0710  140.1550 C   0  0  0  0  0  0  0  0  0  0  0  0
  190.0350  177.8080  139.8490 C   0  0  0  0  0  3  0  0  0  0  0  0
  180.3350  180.2370  136.1020 C   0  0  0  0  0  0  0  0  0  0  0  0
  181.2300  178.7350  137.7040 C   0  0  0  0  0  3  0  0  0  0  0  0
  181.9430  182.1880  138.7190 F   0  0  0  0  0  0  0  0  0  0  0  0
  179.5940  180.4580  134.8330 C   0  0  0  0  0  1  0  0  0  0  0  0
  180.5560  178.9740  136.5470 N   0  0  0  0  0  0  0  0  0  0  0  0
  181.4980  181.1100  138.0250 C   0  0  0  0  0  0  0  0  0  0  0  0
  181.7210  179.7950  138.4800 C   0  0  0  0  0  0  0  0  0  0  0  0
  180.8020  181.3280  136.8340 C   0  0  0  0  0  3  0  0  0  0  0  0
  1  8  1  0  0  0  0
  1 11  1  0  0  0  0
  2  7  1  0  0  0  0
  3  2  1  0  0  0  0
  3  9  1  0  0  0  0
  5  4  2  0  0  0  0
  6  9  2  0  0  0  0
  6 13  1  0  0  0  0
  7 19  2  0  0  0  0
  7 17  1  0  0  0  0
 10 14  2  0  0  0  0
 12 21  2  0  0  0  0
 12 22  1  0  0  0  0
 14 19  1  0  0  0  0
 15 10  1  0  0  0  0
 15  2  2  0  0  0  0
 16  5  1  0  0  0  0
 16 10  1  0  0  0  0
 17  1  2  0  0  0  0
 18  6  1  0  0  0  0
 19 20  1  0  0  0  0
 20  8  2  0  0  0  0
 21 15  1  0  0  0  0
 22  3  2  0  0  0  0
 23 22  1  0  0  0  0
 23 18  2  0  0  0  0
 24 28  2  0  0  0  0
 24 31  1  0  0  0  0
 25 30  2  0  0  0  0
 27 24  1  0  0  0  0
 28 25  1  0  0  0  0
 29 30  1  0  0  0  0
 29 26  1  0  0  0  0
 30  5  1  0  0  0  0
 31 29  2  0  0  0  0
M  END
>  <MODEL>
6

>  <REMARK>
 VINA RESULT:     -10.2      4.675      7.789
  Name = 
  1 active torsions:
  status: ('A' for Active; 'I' for Inactive)
    1  A    between atoms: C_5  and  C_30
                            x       y       z     vdW  Elec       q    Type
                         _______ _______ _______ _____ _____    ______ ____

>  <TORSDO>
F 1

$$$$
=
 OpenBabel11122411063D

 31 35  0  0  0  0  0  0  0  0999 V2000
  183.8750  179.2940  139.5290 C   0  0  0  0  0  0  0  0  0  0  0  0
  187.4500  178.1300  139.7310 C   0  0  0  0  0  0  0  0  0  0  0  0
  187.9400  178.0360  138.3960 C   0  0  0  0  0  0  0  0  0  0  0  0
  187.4440  177.8770  144.9900 O   0  0  0  0  0  0  0  0  0  0  0  0
  188.5810  177.5300  144.5690 C   0  0  0  0  0  0  0  0  0  0  0  0
  187.6840  178.2340  135.9760 C   0  0  0  0  0  0  0  0  0  0  0  0
  186.1290  178.5390  140.0870 C   0  0  0  0  0  0  0  0  0  0  0  0
  183.5390  179.3370  140.8810 C   0  0  0  0  0  3  0  0  0  0  0  0
  187.1610  178.3410  137.2670 C   0  0  0  0  0  3  0  0  0  0  0  0
  187.9330  177.8580  142.1170 C   0  0  0  0  0  0  0  0  0  0  0  0
  182.9560  179.6360  138.5920 F   0  0  0  0  0  0  0  0  0  0  0  0
  190.0630  177.3090  139.2440 N   0  0  0  0  0  0  0  0  0  0  0  0
  186.6830  178.6250  134.5940 Cl  0  0  0  0  0  0  0  0  0  0  0  0
  186.6690  178.2520  142.4140 N   0  0  0  0  0  0  0  0  0  0  0  0
  188.3440  177.7890  140.7790 C   0  0  0  0  0  0  0  0  0  0  0  0
  188.8530  177.5100  143.1610 N   0  0  0  0  0  2  0  0  0  0  0  0
  185.1550  178.8990  139.1380 C   0  0  0  0  0  3  0  0  0  0  0  0
  189.0020  177.8180  135.7890 C   0  0  0  0  0  3  0  0  0  0  0  0
  185.7710  178.5880  141.4570 C   0  0  0  0  0  0  0  0  0  0  0  0
  184.4860  178.9850  141.8420 C   0  0  0  0  0  3  0  0  0  0  0  0
  189.6130  177.3940  140.4930 N   0  0  0  0  0  0  0  0  0  0  0  0
  189.2750  177.6140  138.1870 C   0  0  0  0  0  0  0  0  0  0  0  0
  189.7950  177.5080  136.8930 C   0  0  0  0  0  3  0  0  0  0  0  0
  191.6780  176.3980  147.2780 C   0  0  0  0  0  0  0  0  0  0  0  0
  190.8920  176.7570  145.0690 C   0  0  0  0  0  3  0  0  0  0  0  0
  188.2190  177.5090  147.4660 F   0  0  0  0  0  0  0  0  0  0  0  0
  192.7790  175.9980  148.1930 C   0  0  0  0  0  1  0  0  0  0  0  0
  191.8770  176.3960  145.9350 N   0  0  0  0  0  0  0  0  0  0  0  0
  189.4120  177.1480  146.9340 C   0  0  0  0  0  0  0  0  0  0  0  0
  189.6300  177.1440  145.5410 C   0  0  0  0  0  0  0  0  0  0  0  0
  190.4410  176.7740  147.8010 C   0  0  0  0  0  3  0  0  0  0  0  0
  1  8  1  0  0  0  0
  2  7  1  0  0  0  0
  2 15  1  0  0  0  0
  3  2  2  0  0  0  0
  5  4  2  0  0  0  0
  5 30  1  0  0  0  0
  6  9  2  0  0  0  0
  7 19  2  0  0  0  0
  8 20  2  0  0  0  0
  9  3  1  0  0  0  0
 10 14  2  0  0  0  0
 10 16  1  0  0  0  0
 11  1  1  0  0  0  0
 12 21  1  0  0  0  0
 13  6  1  0  0  0  0
 15 10  1  0  0  0  0
 16  5  1  0  0  0  0
 17  1  2  0  0  0  0
 17  7  1  0  0  0  0
 18  6  1  0  0  0  0
 18 23  2  0  0  0  0
 19 20  1  0  0  0  0
 19 14  1  0  0  0  0
 21 15  2  0  0  0  0
 22  3  1  0  0  0  0
 22 12  2  0  0  0  0
 23 22  1  0  0  0  0
 24 31  1  0  0  0  0
 24 27  1  0  0  0  0
 25 30  2  0  0  0  0
 25 28  1  0  0  0  0
 28 24  2  0  0  0  0
 29 26  1  0  0  0  0
 29 31  2  0  0  0  0
 30 29  1  0  0  0  0
M  END
>  <MODEL>
7

>  <REMARK>
 VINA RESULT:      -9.6      3.909      7.876
  Name = 
  1 active torsions:
  status: ('A' for Active; 'I' for Inactive)
    1  A    between atoms: C_5  and  C_30
                            x       y       z     vdW  Elec       q    Type
                         _______ _______ _______ _____ _____    ______ ____

>  <TORSDO>
F 1

$$$$
=
 OpenBabel11122411063D

 31 35  0  0  0  0  0  0  0  0999 V2000
  190.7620  177.1530  145.1970 C   0  0  0  0  0  0  0  0  0  0  0  0
  188.9080  177.6740  141.9610 C   0  0  0  0  0  0  0  0  0  0  0  0
  189.8580  177.5550  140.9060 C   0  0  0  0  0  0  0  0  0  0  0  0
  184.2630  178.4100  144.3270 O   0  0  0  0  0  0  0  0  0  0  0  0
  184.1020  178.5080  143.0800 C   0  0  0  0  0  0  0  0  0  0  0  0
  192.1180  177.1820  140.0570 C   0  0  0  0  0  0  0  0  0  0  0  0
  189.2120  177.5420  143.3500 C   0  0  0  0  0  0  0  0  0  0  0  0
  189.7230  177.2960  146.1160 C   0  0  0  0  0  3  0  0  0  0  0  0
  191.2220  177.2900  141.1240 C   0  0  0  0  0  3  0  0  0  0  0  0
  186.5730  178.0750  142.5820 C   0  0  0  0  0  0  0  0  0  0  0  0
  192.0190  176.8960  145.6310 F   0  0  0  0  0  0  0  0  0  0  0  0
  188.1150  177.9670  139.3110 N   0  0  0  0  0  0  0  0  0  0  0  0
  193.8080  176.8500  140.3690 Cl  0  0  0  0  0  0  0  0  0  0  0  0
  186.9020  177.9420  143.8920 N   0  0  0  0  0  0  0  0  0  0  0  0
  187.5630  177.9460  141.5990 C   0  0  0  0  0  0  0  0  0  0  0  0
  185.2190  178.3490  142.1950 N   0  0  0  0  0  2  0  0  0  0  0  0
  190.5080  177.2760  143.8300 C   0  0  0  0  0  3  0  0  0  0  0  0
  191.6660  177.3380  138.7470 C   0  0  0  0  0  3  0  0  0  0  0  0
  188.1690  177.6850  144.2980 C   0  0  0  0  0  0  0  0  0  0  0  0
  188.4300  177.5610  145.6670 C   0  0  0  0  0  3  0  0  0  0  0  0
  187.2220  178.0800  140.2900 N   0  0  0  0  0  0  0  0  0  0  0  0
  189.4180  177.7110  139.5690 C   0  0  0  0  0  0  0  0  0  0  0  0
  190.3180  177.6020  138.5040 C   0  0  0  0  0  3  0  0  0  0  0  0
  180.2560  179.3110  141.4140 C   0  0  0  0  0  0  0  0  0  0  0  0
  182.5690  178.8570  141.1510 C   0  0  0  0  0  3  0  0  0  0  0  0
  181.7270  178.9450  144.7210 F   0  0  0  0  0  0  0  0  0  0  0  0
  178.9320  179.5880  140.7990 C   0  0  0  0  0  1  0  0  0  0  0  0
  181.3430  179.1130  140.6230 N   0  0  0  0  0  0  0  0  0  0  0  0
  181.6310  178.9940  143.3690 C   0  0  0  0  0  0  0  0  0  0  0  0
  182.7520  178.7890  142.5400 C   0  0  0  0  0  0  0  0  0  0  0  0
  180.3820  179.2550  142.8010 C   0  0  0  0  0  3  0  0  0  0  0  0
  1 11  1  0  0  0  0
  1  8  1  0  0  0  0
  2  7  1  0  0  0  0
  3  9  1  0  0  0  0
  3  2  2  0  0  0  0
  5  4  2  0  0  0  0
  6 13  1  0  0  0  0
  6  9  2  0  0  0  0
  7 17  1  0  0  0  0
  7 19  2  0  0  0  0
 10 14  2  0  0  0  0
 12 22  2  0  0  0  0
 12 21  1  0  0  0  0
 14 19  1  0  0  0  0
 15  2  1  0  0  0  0
 15 10  1  0  0  0  0
 16 10  1  0  0  0  0
 16  5  1  0  0  0  0
 17  1  2  0  0  0  0
 18  6  1  0  0  0  0
 19 20  1  0  0  0  0
 20  8  2  0  0  0  0
 21 15  2  0  0  0  0
 22  3  1  0  0  0  0
 23 18  2  0  0  0  0
 23 22  1  0  0  0  0
 24 31  1  0  0  0  0
 25 30  2  0  0  0  0
 27 24  1  0  0  0  0
 28 25  1  0  0  0  0
 28 24  2  0  0  0  0
 29 26  1  0  0  0  0
 30  5  1  0  0  0  0
 30 29  1  0  0  0  0
 31 29  2  0  0  0  0
M  END
>  <MODEL>
8

>  <REMARK>
 VINA RESULT:      -9.5      3.818      8.455
  Name = 
  1 active torsions:
  status: ('A' for Active; 'I' for Inactive)
    1  A    between atoms: C_5  and  C_30
                            x       y       z     vdW  Elec       q    Type
                         _______ _______ _______ _____ _____    ______ ____

>  <TORSDO>
F 1

$$$$
=
 OpenBabel11122411063D

 31 35  0  0  0  0  0  0  0  0999 V2000
  191.6710  176.0730  146.3130 C   0  0  0  0  0  0  0  0  0  0  0  0
  188.5700  177.4170  144.6530 C   0  0  0  0  0  0  0  0  0  0  0  0
  187.7010  177.8750  145.6860 C   0  0  0  0  0  0  0  0  0  0  0  0
  190.2840  176.3580  139.7890 O   0  0  0  0  0  0  0  0  0  0  0  0
  189.1390  176.8830  139.7090 C   0  0  0  0  0  0  0  0  0  0  0  0
  187.1410  178.2610  148.0320 C   0  0  0  0  0  0  0  0  0  0  0  0
  189.8550  176.8340  144.8680 C   0  0  0  0  0  0  0  0  0  0  0  0
  192.4080  175.6720  145.1990 C   0  0  0  0  0  3  0  0  0  0  0  0
  188.0240  177.7990  147.0530 C   0  0  0  0  0  3  0  0  0  0  0  0
  188.9170  177.1240  142.2460 C   0  0  0  0  0  0  0  0  0  0  0  0
  192.1800  175.9050  147.5580 F   0  0  0  0  0  0  0  0  0  0  0  0
  186.0970  178.5260  144.0270 N   0  0  0  0  0  0  0  0  0  0  0  0
  187.5790  178.1510  149.7230 Cl  0  0  0  0  0  0  0  0  0  0  0  0
  190.1330  176.5760  142.4920 N   0  0  0  0  0  0  0  0  0  0  0  0
  188.1170  177.5520  143.3140 C   0  0  0  0  0  0  0  0  0  0  0  0
  188.4400  177.2710  140.9010 N   0  0  0  0  0  2  0  0  0  0  0  0
  190.4090  176.6470  146.1470 C   0  0  0  0  0  3  0  0  0  0  0  0
  185.9130  178.8080  147.6620 C   0  0  0  0  0  3  0  0  0  0  0  0
  190.6180  176.4190  143.7470 C   0  0  0  0  0  0  0  0  0  0  0  0
  191.8810  175.8450  143.9200 C   0  0  0  0  0  3  0  0  0  0  0  0
  186.9010  178.1010  143.0570 N   0  0  0  0  0  0  0  0  0  0  0  0
  186.4500  178.4330  145.3300 C   0  0  0  0  0  0  0  0  0  0  0  0
  185.5690  178.8940  146.3130 C   0  0  0  0  0  3  0  0  0  0  0  0
  187.3310  177.5960  135.9100 C   0  0  0  0  0  0  0  0  0  0  0  0
  187.8160  178.2770  138.1300 C   0  0  0  0  0  3  0  0  0  0  0  0
  189.2940  174.9780  137.5010 F   0  0  0  0  0  0  0  0  0  0  0  0
  186.6890  177.8780  134.6000 C   0  0  0  0  0  1  0  0  0  0  0  0
  187.2410  178.5020  136.9190 N   0  0  0  0  0  0  0  0  0  0  0  0
  188.6250  176.1470  137.3390 C   0  0  0  0  0  0  0  0  0  0  0  0
  188.5260  177.0930  138.3780 C   0  0  0  0  0  0  0  0  0  0  0  0
  188.0250  176.4030  136.1040 C   0  0  0  0  0  3  0  0  0  0  0  0
  1 11  1  0  0  0  0
  2  7  1  0  0  0  0
  2  3  1  0  0  0  0
  3  9  1  0  0  0  0
  5  4  2  0  0  0  0
  5 16  1  0  0  0  0
  6 13  1  0  0  0  0
  7 17  2  0  0  0  0
  8  1  2  0  0  0  0
  9  6  2  0  0  0  0
 10 14  2  0  0  0  0
 10 15  1  0  0  0  0
 12 22  1  0  0  0  0
 14 19  1  0  0  0  0
 15  2  2  0  0  0  0
 16 10  1  0  0  0  0
 17  1  1  0  0  0  0
 18  6  1  0  0  0  0
 19 20  2  0  0  0  0
 19  7  1  0  0  0  0
 20  8  1  0  0  0  0
 21 15  1  0  0  0  0
 21 12  2  0  0  0  0
 22  3  2  0  0  0  0
 22 23  1  0  0  0  0
 23 18  2  0  0  0  0
 24 31  2  0  0  0  0
 24 28  1  0  0  0  0
 25 30  1  0  0  0  0
 27 24  1  0  0  0  0
 28 25  2  0  0  0  0
 29 26  1  0  0  0  0
 29 30  2  0  0  0  0
 30  5  1  0  0  0  0
 31 29  1  0  0  0  0
M  END
>  <MODEL>
9

>  <REMARK>
 VINA RESULT:      -9.3      3.019      4.675
  Name = 
  1 active torsions:
  status: ('A' for Active; 'I' for Inactive)
    1  A    between atoms: C_5  and  C_30
                            x       y       z     vdW  Elec       q    Type
                         _______ _______ _______ _____ _____    ______ ____

>  <TORSDO>
F 1

$$$$
