=
 OpenBabel11122410343D

 30 35  0  0  1  0  0  0  0  0999 V2000
  184.9760  178.1900  139.7640 C   0  0  1  0  0  3  0  0  0  0  0  0
  186.0970  178.2420  137.4350 C   0  0  0  0  0  0  0  0  0  0  0  0
  188.4130  177.5730  141.6590 N   0  0  0  0  0  2  0  0  0  0  0  0
  185.0650  178.8990  141.1300 C   0  0  1  0  0  3  0  0  0  0  0  0
  183.7420  178.5140  139.1610 O   0  0  0  0  0  0  0  0  0  0  0  0
  181.5930  178.1110  141.9600 O   0  0  0  0  0  0  0  0  0  0  0  0
  184.5530  178.4110  144.3850 C   0  0  1  0  0  3  0  0  0  0  0  0
  182.6690  178.2210  141.3130 C   0  0  0  0  0  0  0  0  0  0  0  0
  186.0420  178.5940  144.2780 C   0  0  1  0  0  3  0  0  0  0  0  0
  188.0240  177.4900  143.0570 C   0  0  2  0  0  3  0  0  0  0  0  0
  182.6980  177.8530  139.8550 C   0  0  2  0  0  3  0  0  0  0  0  0
  183.8770  178.6530  141.9640 N   0  0  0  0  0  0  0  0  0  0  0  0
  187.3480  178.3700  136.6320 C   0  0  0  0  0  2  0  0  0  0  0  0
  186.5470  178.0770  145.6090 C   0  0  0  0  0  2  0  0  0  0  0  0
  184.2160  178.8040  145.8050 C   0  0  0  0  0  2  0  0  0  0  0  0
  185.0630  177.8700  136.9040 O   0  0  0  0  0  0  0  0  0  0  0  0
  187.5480  178.2640  140.9960 C   0  0  2  0  0  3  0  0  0  0  0  0
  188.4630  177.5830  137.3150 C   0  0  0  0  0  2  0  0  0  0  0  0
  186.1560  178.6550  138.8870 C   0  0  2  0  0  3  0  0  0  0  0  0
  186.4320  178.7550  141.8460 C   0  0  2  0  0  3  0  0  0  0  0  0
  188.2340  176.0750  143.5600 C   0  0  0  0  0  1  0  0  0  0  0  0
  186.5330  177.8340  143.0520 C   0  0  2  0  0  3  0  0  0  0  0  0
  185.4540  178.4300  146.6120 C   0  0  0  0  0  2  0  0  0  0  0  0
  183.1420  180.1810  143.5740 O   0  0  0  0  0  0  0  0  0  0  0  0
  188.5190  177.8160  138.8030 C   0  0  0  0  0  3  0  0  0  0  0  0
  187.4720  178.2450  139.5270 C   0  0  0  0  0  0  0  0  0  0  0  0
  183.8150  179.1490  143.3100 C   0  0  0  0  0  0  0  0  0  0  0  0
  182.7300  176.3360  139.6590 C   0  0  0  0  0  2  0  0  0  0  0  0
  180.4450  175.3650  139.8810 C   0  0  0  0  0  1  0  0  0  0  0  0
  181.5010  175.8540  138.9080 C   0  0  0  0  0  2  0  0  0  0  0  0
  1  5  1  6  0  0  0
  1  4  1  0  0  0  0
  3 10  1  0  0  0  0
  4 20  1  0  0  0  0
  4 12  1  1  0  0  0
  5 11  1  0  0  0  0
  7 15  1  1  0  0  0
  8  6  2  0  0  0  0
  8 12  1  0  0  0  0
  9  7  1  0  0  0  0
  9 14  1  1  0  0  0
 10 21  1  6  0  0  0
 11 28  1  1  0  0  0
 11  8  1  0  0  0  0
 12 27  1  0  0  0  0
 13 18  1  0  0  0  0
 13  2  1  0  0  0  0
 14 23  1  0  0  0  0
 15 23  1  0  0  0  0
 16  2  2  0  0  0  0
 17 26  1  6  0  0  0
 17  3  1  0  0  0  0
 17 20  1  0  0  0  0
 18 25  1  0  0  0  0
 19  2  1  6  0  0  0
 19 26  1  0  0  0  0
 19  1  1  0  0  0  0
 20 22  1  0  0  0  0
 22 10  1  0  0  0  0
 22  9  1  0  0  0  0
 25 26  2  0  0  0  0
 27 24  2  0  0  0  0
 27  7  1  0  0  0  0
 30 28  1  0  0  0  0
 30 29  1  0  0  0  0
M  END
>  <MODEL>
1

>  <REMARK>
 VINA RESULT:      -8.5      0.000      0.000
  Name = 
  2 active torsions:
  status: ('A' for Active; 'I' for Inactive)
    1  A    between atoms: C_11  and  C_28
    2  A    between atoms: C_28  and  C_30
                            x       y       z     vdW  Elec       q    Type
                         _______ _______ _______ _____ _____    ______ ____

>  <TORSDO>
F 2

$$$$
=
 OpenBabel11122410343D

 30 35  0  0  1  0  0  0  0  0999 V2000
  185.4860  178.2620  139.8730 C   0  0  1  0  0  3  0  0  0  0  0  0
  186.4010  178.2960  137.4560 C   0  0  0  0  0  0  0  0  0  0  0  0
  188.9790  177.1810  141.4260 N   0  0  0  0  0  2  0  0  0  0  0  0
  185.7720  178.8930  141.2500 C   0  0  1  0  0  3  0  0  0  0  0  0
  184.2500  178.7490  139.3960 O   0  0  0  0  0  0  0  0  0  0  0  0
  182.3170  178.4580  142.3610 O   0  0  0  0  0  0  0  0  0  0  0  0
  185.4890  178.3160  144.5180 C   0  0  1  0  0  3  0  0  0  0  0  0
  183.3390  178.4770  141.6240 C   0  0  0  0  0  0  0  0  0  0  0  0
  186.9740  178.3370  144.2840 C   0  0  1  0  0  3  0  0  0  0  0  0
  188.7040  177.0770  142.8500 C   0  0  2  0  0  3  0  0  0  0  0  0
  183.2000  178.1760  140.1580 C   0  0  2  0  0  3  0  0  0  0  0  0
  184.6400  178.7420  142.1790 N   0  0  0  0  0  0  0  0  0  0  0  0
  187.5850  178.3210  136.5480 C   0  0  0  0  0  2  0  0  0  0  0  0
  187.5290  177.7060  145.5440 C   0  0  0  0  0  2  0  0  0  0  0  0
  185.3220  178.6780  145.9760 C   0  0  0  0  0  2  0  0  0  0  0  0
  185.2890  178.0670  137.0070 O   0  0  0  0  0  0  0  0  0  0  0  0
  188.1450  177.9930  140.8690 C   0  0  2  0  0  3  0  0  0  0  0  0
  188.6570  177.3850  137.0990 C   0  0  0  0  0  2  0  0  0  0  0  0
  186.6320  178.6320  138.9100 C   0  0  2  0  0  3  0  0  0  0  0  0
  187.1700  178.5650  141.8340 C   0  0  2  0  0  3  0  0  0  0  0  0
  188.7930  175.6260  143.2800 C   0  0  0  0  0  1  0  0  0  0  0  0
  187.2680  177.5840  142.9920 C   0  0  2  0  0  3  0  0  0  0  0  0
  186.5730  178.1320  146.6540 C   0  0  0  0  0  2  0  0  0  0  0  0
  184.2260  180.2670  143.9030 O   0  0  0  0  0  0  0  0  0  0  0  0
  188.8670  177.5420  138.5820 C   0  0  0  0  0  3  0  0  0  0  0  0
  187.9420  178.0510  139.4130 C   0  0  0  0  0  0  0  0  0  0  0  0
  184.7510  179.1790  143.5420 C   0  0  0  0  0  0  0  0  0  0  0  0
  183.0420  176.6760  139.9040 C   0  0  0  0  0  2  0  0  0  0  0  0
  183.3530  175.2450  137.8860 C   0  0  0  0  0  1  0  0  0  0  0  0
  182.5790  176.4060  138.4830 C   0  0  0  0  0  2  0  0  0  0  0  0
  1  5  1  6  0  0  0
  1  4  1  0  0  0  0
  3 10  1  0  0  0  0
  4 20  1  0  0  0  0
  4 12  1  1  0  0  0
  5 11  1  0  0  0  0
  7 15  1  1  0  0  0
  8 12  1  0  0  0  0
  8  6  2  0  0  0  0
  9  7  1  0  0  0  0
  9 14  1  1  0  0  0
 10 22  1  0  0  0  0
 10 21  1  6  0  0  0
 11 28  1  1  0  0  0
 11  8  1  0  0  0  0
 12 27  1  0  0  0  0
 13 18  1  0  0  0  0
 13  2  1  0  0  0  0
 14 23  1  0  0  0  0
 15 23  1  0  0  0  0
 16  2  2  0  0  0  0
 17 26  1  6  0  0  0
 17  3  1  0  0  0  0
 17 20  1  0  0  0  0
 18 25  1  0  0  0  0
 19  2  1  6  0  0  0
 19 26  1  0  0  0  0
 19  1  1  0  0  0  0
 20 22  1  0  0  0  0
 22  9  1  0  0  0  0
 25 26  2  0  0  0  0
 27 24  2  0  0  0  0
 27  7  1  0  0  0  0
 29 30  1  0  0  0  0
 30 28  1  0  0  0  0
M  END
>  <MODEL>
2

>  <REMARK>
 VINA RESULT:      -8.4      0.895      1.006
  Name = 
  2 active torsions:
  status: ('A' for Active; 'I' for Inactive)
    1  A    between atoms: C_11  and  C_28
    2  A    between atoms: C_28  and  C_30
                            x       y       z     vdW  Elec       q    Type
                         _______ _______ _______ _____ _____    ______ ____

>  <TORSDO>
F 2

$$$$
=
 OpenBabel11122410343D

 30 35  0  0  1  0  0  0  0  0999 V2000
  186.4970  178.3540  142.0520 C   0  0  1  0  0  3  0  0  0  0  0  0
  185.1170  178.9840  144.1450 C   0  0  0  0  0  0  0  0  0  0  0  0
  183.2660  177.7630  139.8170 N   0  0  0  0  0  2  0  0  0  0  0  0
  186.6740  178.7870  140.5840 C   0  0  1  0  0  3  0  0  0  0  0  0
  187.6810  178.6510  142.7620 O   0  0  0  0  0  0  0  0  0  0  0  0
  190.0810  177.4730  140.4240 O   0  0  0  0  0  0  0  0  0  0  0  0
  187.5090  177.6190  137.5790 C   0  0  1  0  0  3  0  0  0  0  0  0
  188.9590  177.8250  140.8770 C   0  0  0  0  0  0  0  0  0  0  0  0
  186.0570  177.9820  137.4330 C   0  0  1  0  0  3  0  0  0  0  0  0
  183.8090  177.3650  138.5280 C   0  0  2  0  0  3  0  0  0  0  0  0
  188.7020  177.7550  142.3570 C   0  0  2  0  0  3  0  0  0  0  0  0
  187.9100  178.2530  139.9900 N   0  0  0  0  0  0  0  0  0  0  0  0
  183.8070  179.4050  144.7220 C   0  0  0  0  0  2  0  0  0  0  0  0
  185.6530  177.2750  136.1570 C   0  0  0  0  0  2  0  0  0  0  0  0
  188.0680  177.6860  136.1760 C   0  0  0  0  0  2  0  0  0  0  0  0
  186.0180  178.6120  144.8800 O   0  0  0  0  0  0  0  0  0  0  0  0
  184.1300  178.4700  140.4650 C   0  0  2  0  0  3  0  0  0  0  0  0
  182.6870  178.6280  144.0350 C   0  0  0  0  0  2  0  0  0  0  0  0
  185.2930  179.1090  142.6510 C   0  0  2  0  0  3  0  0  0  0  0  0
  185.3980  178.6580  139.7130 C   0  0  2  0  0  3  0  0  0  0  0  0
  183.4700  175.9110  138.2620 C   0  0  0  0  0  1  0  0  0  0  0  0
  185.3210  177.5360  138.6890 C   0  0  2  0  0  3  0  0  0  0  0  0
  186.8990  177.3010  135.2770 C   0  0  0  0  0  2  0  0  0  0  0  0
  189.0380  179.3450  138.2570 O   0  0  0  0  0  0  0  0  0  0  0  0
  182.8460  178.5710  142.5380 C   0  0  0  0  0  3  0  0  0  0  0  0
  184.0220  178.7310  141.9090 C   0  0  0  0  0  0  0  0  0  0  0  0
  188.2030  178.4660  138.6000 C   0  0  0  0  0  0  0  0  0  0  0  0
  188.4390  176.3200  142.8140 C   0  0  0  0  0  2  0  0  0  0  0  0
  190.6340  176.5900  143.9650 C   0  0  0  0  0  1  0  0  0  0  0  0
  189.7300  175.6280  143.2190 C   0  0  0  0  0  2  0  0  0  0  0  0
  1 19  1  0  0  0  0
  1  5  1  1  0  0  0
  2 13  1  0  0  0  0
  2 16  2  0  0  0  0
  4 12  1  6  0  0  0
  4  1  1  0  0  0  0
  6  8  2  0  0  0  0
  7 15  1  6  0  0  0
  7 27  1  0  0  0  0
  8 11  1  0  0  0  0
  9 14  1  6  0  0  0
  9  7  1  0  0  0  0
  9 22  1  0  0  0  0
 10 21  1  1  0  0  0
 10 22  1  0  0  0  0
 10  3  1  0  0  0  0
 11  5  1  0  0  0  0
 11 28  1  6  0  0  0
 12  8  1  0  0  0  0
 17  3  1  1  0  0  0
 17 26  1  0  0  0  0
 18 13  1  0  0  0  0
 19 26  1  6  0  0  0
 19  2  1  0  0  0  0
 20 17  1  0  0  0  0
 20  4  1  0  0  0  0
 22 20  1  0  0  0  0
 23 14  1  0  0  0  0
 23 15  1  0  0  0  0
 24 27  2  0  0  0  0
 25 18  1  0  0  0  0
 26 25  2  0  0  0  0
 27 12  1  0  0  0  0
 28 30  1  0  0  0  0
 30 29  1  0  0  0  0
M  END
>  <MODEL>
3

>  <REMARK>
 VINA RESULT:      -8.2      2.240      7.105
  Name = 
  2 active torsions:
  status: ('A' for Active; 'I' for Inactive)
    1  A    between atoms: C_11  and  C_28
    2  A    between atoms: C_28  and  C_30
                            x       y       z     vdW  Elec       q    Type
                         _______ _______ _______ _____ _____    ______ ____

>  <TORSDO>
F 2

$$$$
=
 OpenBabel11122410343D

 30 35  0  0  1  0  0  0  0  0999 V2000
  187.9430  177.2360  138.2000 C   0  0  1  0  0  3  0  0  0  0  0  0
  190.2410  176.7570  137.1190 C   0  0  0  0  0  0  0  0  0  0  0  0
  189.4380  177.3380  141.8790 N   0  0  0  0  0  2  0  0  0  0  0  0
  187.2650  178.2750  139.1140 C   0  0  1  0  0  3  0  0  0  0  0  0
  187.3700  177.3180  136.9120 O   0  0  0  0  0  0  0  0  0  0  0  0
  183.9380  177.5150  137.8030 O   0  0  0  0  0  0  0  0  0  0  0  0
  184.8380  178.6080  141.3710 C   0  0  1  0  0  3  0  0  0  0  0  0
  185.1900  177.5210  137.9480 C   0  0  0  0  0  0  0  0  0  0  0  0
  186.0960  178.8480  142.1580 C   0  0  1  0  0  3  0  0  0  0  0  0
  188.2760  177.5920  142.7150 C   0  0  2  0  0  3  0  0  0  0  0  0
  186.0540  176.7940  136.9550 C   0  0  2  0  0  3  0  0  0  0  0  0
  185.7960  178.1790  139.0750 N   0  0  0  0  0  0  0  0  0  0  0  0
  191.7280  176.7510  137.2480 C   0  0  0  0  0  2  0  0  0  0  0  0
  185.6330  178.7220  143.5940 C   0  0  0  0  0  2  0  0  0  0  0  0
  183.7560  179.3310  142.1410 C   0  0  0  0  0  2  0  0  0  0  0  0
  189.7060  176.1990  136.1740 O   0  0  0  0  0  0  0  0  0  0  0  0
  189.2330  177.7810  140.6850 C   0  0  2  0  0  3  0  0  0  0  0  0
  192.1060  176.2350  138.6330 C   0  0  0  0  0  2  0  0  0  0  0  0
  189.4550  177.5310  138.1500 C   0  0  2  0  0  3  0  0  0  0  0  0
  187.8930  178.4040  140.5260 C   0  0  2  0  0  3  0  0  0  0  0  0
  187.9810  176.3690  143.5610 C   0  0  0  0  0  1  0  0  0  0  0  0
  187.1410  177.8310  141.7170 C   0  0  2  0  0  3  0  0  0  0  0  0
  184.2030  179.2530  143.5960 C   0  0  0  0  0  2  0  0  0  0  0  0
  184.4120  180.0200  139.4730 O   0  0  0  0  0  0  0  0  0  0  0  0
  191.2760  176.8460  139.7330 C   0  0  0  0  0  3  0  0  0  0  0  0
  190.0600  177.3810  139.5350 C   0  0  0  0  0  0  0  0  0  0  0  0
  184.9880  178.9980  139.9330 C   0  0  0  0  0  0  0  0  0  0  0  0
  186.0310  175.2820  137.1900 C   0  0  0  0  0  2  0  0  0  0  0  0
  187.5220  173.4620  136.3650 C   0  0  0  0  0  1  0  0  0  0  0  0
  186.5210  174.5290  135.9650 C   0  0  0  0  0  2  0  0  0  0  0  0
  1  5  1  6  0  0  0
  1  4  1  0  0  0  0
  2 13  1  0  0  0  0
  3 10  1  0  0  0  0
  4 12  1  1  0  0  0
  4 20  1  0  0  0  0
  5 11  1  0  0  0  0
  6  8  2  0  0  0  0
  7 15  1  1  0  0  0
  7  9  1  0  0  0  0
  8 12  1  0  0  0  0
  9 14  1  1  0  0  0
 10 21  1  1  0  0  0
 11 28  1  1  0  0  0
 11  8  1  0  0  0  0
 12 27  1  0  0  0  0
 13 18  1  0  0  0  0
 14 23  1  0  0  0  0
 15 23  1  0  0  0  0
 16  2  2  0  0  0  0
 17 26  1  6  0  0  0
 17  3  1  0  0  0  0
 18 25  1  0  0  0  0
 19  2  1  6  0  0  0
 19  1  1  0  0  0  0
 19 26  1  0  0  0  0
 20 17  1  0  0  0  0
 20 22  1  0  0  0  0
 22  9  1  0  0  0  0
 22 10  1  0  0  0  0
 24 27  2  0  0  0  0
 26 25  2  0  0  0  0
 27  7  1  0  0  0  0
 30 29  1  0  0  0  0
 30 28  1  0  0  0  0
M  END
>  <MODEL>
4

>  <REMARK>
 VINA RESULT:      -7.8      2.296      3.806
  Name = 
  2 active torsions:
  status: ('A' for Active; 'I' for Inactive)
    1  A    between atoms: C_11  and  C_28
    2  A    between atoms: C_28  and  C_30
                            x       y       z     vdW  Elec       q    Type
                         _______ _______ _______ _____ _____    ______ ____

>  <TORSDO>
F 2

$$$$
=
 OpenBabel11122410343D

 30 35  0  0  1  0  0  0  0  0999 V2000
  184.8840  177.6150  138.5210 C   0  0  1  0  0  3  0  0  0  0  0  0
  186.4950  177.6370  136.5000 C   0  0  0  0  0  0  0  0  0  0  0  0
  187.8040  178.2050  141.1490 N   0  0  0  0  0  2  0  0  0  0  0  0
  184.4740  178.5050  139.7110 C   0  0  1  0  0  3  0  0  0  0  0  0
  183.7930  177.5120  137.6310 O   0  0  0  0  0  0  0  0  0  0  0  0
  181.1770  176.9450  139.9670 O   0  0  0  0  0  0  0  0  0  0  0  0
  183.3110  178.3560  142.8280 C   0  0  1  0  0  3  0  0  0  0  0  0
  182.3250  177.2460  139.5400 C   0  0  0  0  0  0  0  0  0  0  0  0
  184.6990  178.9120  142.9880 C   0  0  1  0  0  3  0  0  0  0  0  0
  187.1160  178.2160  142.4300 C   0  0  2  0  0  3  0  0  0  0  0  0
  182.7900  176.7000  138.2180 C   0  0  2  0  0  3  0  0  0  0  0  0
  183.2070  178.0700  140.3220 N   0  0  0  0  0  0  0  0  0  0  0  0
  187.8410  177.9800  135.9540 C   0  0  0  0  0  2  0  0  0  0  0  0
  184.9690  178.7390  144.4680 C   0  0  0  0  0  2  0  0  0  0  0  0
  182.5580  178.8400  144.0470 C   0  0  0  0  0  2  0  0  0  0  0  0
  185.7330  176.9340  135.8560 O   0  0  0  0  0  0  0  0  0  0  0  0
  186.9920  178.5410  140.2040 C   0  0  2  0  0  3  0  0  0  0  0  0
  188.9050  177.6220  136.9880 C   0  0  0  0  0  2  0  0  0  0  0  0
  186.1040  178.2490  137.8240 C   0  0  2  0  0  3  0  0  0  0  0  0
  185.6220  178.8310  140.7010 C   0  0  2  0  0  3  0  0  0  0  0  0
  187.5140  176.9920  143.2320 C   0  0  0  0  0  1  0  0  0  0  0  0
  185.6330  178.1470  142.0590 C   0  0  2  0  0  3  0  0  0  0  0  0
  183.6140  178.9250  145.1430 C   0  0  0  0  0  2  0  0  0  0  0  0
  181.7750  179.5560  141.4210 O   0  0  0  0  0  0  0  0  0  0  0  0
  188.5430  178.0670  138.3810 C   0  0  0  0  0  3  0  0  0  0  0  0
  187.2820  178.2980  138.7820 C   0  0  0  0  0  0  0  0  0  0  0  0
  182.7090  178.7140  141.5050 C   0  0  0  0  0  0  0  0  0  0  0  0
  183.2130  175.2340  138.3340 C   0  0  0  0  0  2  0  0  0  0  0  0
  183.3550  174.2920  136.0290 C   0  0  0  0  0  1  0  0  0  0  0  0
  182.5160  174.3780  137.2900 C   0  0  0  0  0  2  0  0  0  0  0  0
  1  5  1  6  0  0  0
  1  4  1  0  0  0  0
  3 10  1  0  0  0  0
  4 12  1  1  0  0  0
  4 20  1  0  0  0  0
  5 11  1  0  0  0  0
  7  9  1  0  0  0  0
  7 15  1  1  0  0  0
  8  6  2  0  0  0  0
  8 12  1  0  0  0  0
  9 14  1  1  0  0  0
 10 21  1  1  0  0  0
 11 28  1  1  0  0  0
 11  8  1  0  0  0  0
 12 27  1  0  0  0  0
 13  2  1  0  0  0  0
 13 18  1  0  0  0  0
 14 23  1  0  0  0  0
 15 23  1  0  0  0  0
 16  2  2  0  0  0  0
 17 26  1  6  0  0  0
 17 20  1  0  0  0  0
 17  3  1  0  0  0  0
 18 25  1  0  0  0  0
 19  2  1  6  0  0  0
 19  1  1  0  0  0  0
 19 26  1  0  0  0  0
 20 22  1  0  0  0  0
 22 10  1  0  0  0  0
 22  9  1  0  0  0  0
 24 27  2  0  0  0  0
 25 26  2  0  0  0  0
 27  7  1  0  0  0  0
 29 30  1  0  0  0  0
 30 28  1  0  0  0  0
M  END
>  <MODEL>
5

>  <REMARK>
 VINA RESULT:      -7.7      1.393      1.912
  Name = 
  2 active torsions:
  status: ('A' for Active; 'I' for Inactive)
    1  A    between atoms: C_11  and  C_28
    2  A    between atoms: C_28  and  C_30
                            x       y       z     vdW  Elec       q    Type
                         _______ _______ _______ _____ _____    ______ ____

>  <TORSDO>
F 2

$$$$
=
 OpenBabel11122410343D

 30 35  0  0  1  0  0  0  0  0999 V2000
  188.1320  177.8670  140.4620 C   0  0  1  0  0  3  0  0  0  0  0  0
  185.7790  178.9380  140.5210 C   0  0  0  0  0  0  0  0  0  0  0  0
  187.5690  176.2780  136.8650 N   0  0  0  0  0  2  0  0  0  0  0  0
  189.3990  177.8570  139.5860 C   0  0  1  0  0  3  0  0  0  0  0  0
  188.4310  178.4930  141.6920 O   0  0  0  0  0  0  0  0  0  0  0  0
  191.5470  176.9420  142.3990 O   0  0  0  0  0  0  0  0  0  0  0  0
  191.9830  175.9420  138.7190 C   0  0  1  0  0  3  0  0  0  0  0  0
  190.5320  177.2870  141.7370 C   0  0  0  0  0  0  0  0  0  0  0  0
  191.1950  176.0810  137.4460 C   0  0  1  0  0  3  0  0  0  0  0  0
  188.8150  175.5750  136.6020 C   0  0  2  0  0  3  0  0  0  0  0  0
  189.2600  177.6360  142.4590 C   0  0  2  0  0  3  0  0  0  0  0  0
  190.5660  177.3100  140.2990 N   0  0  0  0  0  0  0  0  0  0  0  0
  184.5600  179.3630  139.7740 C   0  0  0  0  0  2  0  0  0  0  0  0
  191.7610  174.9830  136.5710 C   0  0  0  0  0  2  0  0  0  0  0  0
  193.3960  175.6480  138.2700 C   0  0  0  0  0  2  0  0  0  0  0  0
  185.7700  178.9050  141.7420 O   0  0  0  0  0  0  0  0  0  0  0  0
  187.7680  177.2380  137.7040 C   0  0  2  0  0  3  0  0  0  0  0  0
  184.2110  178.2970  138.7400 C   0  0  0  0  0  2  0  0  0  0  0  0
  187.0180  178.6280  139.7150 C   0  0  2  0  0  3  0  0  0  0  0  0
  189.1850  177.3320  138.1430 C   0  0  2  0  0  3  0  0  0  0  0  0
  188.5620  174.0800  136.5940 C   0  0  0  0  0  1  0  0  0  0  0  0
  189.7150  175.9530  137.7800 C   0  0  2  0  0  3  0  0  0  0  0  0
  193.2320  174.8830  136.9610 C   0  0  0  0  0  2  0  0  0  0  0  0
  192.7560  177.9510  139.7890 O   0  0  0  0  0  0  0  0  0  0  0  0
  185.4120  177.8120  137.9700 C   0  0  0  0  0  3  0  0  0  0  0  0
  186.6720  177.9060  138.4230 C   0  0  0  0  0  0  0  0  0  0  0  0
  191.8170  177.1280  139.6190 C   0  0  0  0  0  0  0  0  0  0  0  0
  188.5250  176.3840  142.9390 C   0  0  0  0  0  2  0  0  0  0  0  0
  188.1290  177.5030  145.1320 C   0  0  0  0  0  1  0  0  0  0  0  0
  187.4890  176.7270  143.9970 C   0  0  0  0  0  2  0  0  0  0  0  0
  1  5  1  1  0  0  0
  2 16  2  0  0  0  0
  4 12  1  1  0  0  0
  4  1  1  0  0  0  0
  5 11  1  0  0  0  0
  7 15  1  6  0  0  0
  7 27  1  0  0  0  0
  8  6  2  0  0  0  0
  8 11  1  0  0  0  0
  9 14  1  6  0  0  0
  9 22  1  0  0  0  0
  9  7  1  0  0  0  0
 10 21  1  1  0  0  0
 10  3  1  0  0  0  0
 10 22  1  0  0  0  0
 11 28  1  6  0  0  0
 12  8  1  0  0  0  0
 13  2  1  0  0  0  0
 14 23  1  0  0  0  0
 17  3  1  1  0  0  0
 17 20  1  0  0  0  0
 17 26  1  0  0  0  0
 18 13  1  0  0  0  0
 19 26  1  6  0  0  0
 19  1  1  0  0  0  0
 19  2  1  0  0  0  0
 20  4  1  0  0  0  0
 22 20  1  0  0  0  0
 23 15  1  0  0  0  0
 25 26  2  0  0  0  0
 25 18  1  0  0  0  0
 27 24  2  0  0  0  0
 27 12  1  0  0  0  0
 28 30  1  0  0  0  0
 30 29  1  0  0  0  0
M  END
>  <MODEL>
6

>  <REMARK>
 VINA RESULT:      -7.6      3.528      7.332
  Name = 
  2 active torsions:
  status: ('A' for Active; 'I' for Inactive)
    1  A    between atoms: C_11  and  C_28
    2  A    between atoms: C_28  and  C_30
                            x       y       z     vdW  Elec       q    Type
                         _______ _______ _______ _____ _____    ______ ____

>  <TORSDO>
F 2

$$$$
=
 OpenBabel11122410343D

 30 35  0  0  1  0  0  0  0  0999 V2000
  188.3020  177.4740  139.3460 C   0  0  1  0  0  3  0  0  0  0  0  0
  185.9900  178.6280  139.2710 C   0  0  0  0  0  0  0  0  0  0  0  0
  187.3810  174.9250  136.4410 N   0  0  0  0  0  2  0  0  0  0  0  0
  189.4850  177.1440  138.4150 C   0  0  1  0  0  3  0  0  0  0  0  0
  188.7260  178.4180  140.3060 O   0  0  0  0  0  0  0  0  0  0  0  0
  191.8570  176.9950  141.1930 O   0  0  0  0  0  0  0  0  0  0  0  0
  191.9350  174.9350  137.9550 C   0  0  1  0  0  3  0  0  0  0  0  0
  190.7940  177.1780  140.5400 C   0  0  0  0  0  0  0  0  0  0  0  0
  191.0390  174.7320  136.7650 C   0  0  1  0  0  3  0  0  0  0  0  0
  188.5810  174.1160  136.3010 C   0  0  2  0  0  3  0  0  0  0  0  0
  189.6010  177.7860  141.2240 C   0  0  2  0  0  3  0  0  0  0  0  0
  190.6980  176.7750  139.1630 N   0  0  0  0  0  0  0  0  0  0  0  0
  184.7190  178.8740  138.5300 C   0  0  0  0  0  2  0  0  0  0  0  0
  191.4980  173.3980  136.2130 C   0  0  0  0  0  2  0  0  0  0  0  0
  193.2940  174.4530  137.5020 C   0  0  0  0  0  2  0  0  0  0  0  0
  186.0910  178.9560  140.4420 O   0  0  0  0  0  0  0  0  0  0  0  0
  187.6770  176.0790  136.9380 C   0  0  2  0  0  3  0  0  0  0  0  0
  184.2530  177.5680  137.8910 C   0  0  0  0  0  2  0  0  0  0  0  0
  187.1440  178.0340  138.4970 C   0  0  2  0  0  3  0  0  0  0  0  0
  189.1290  176.2290  137.2150 C   0  0  2  0  0  3  0  0  0  0  0  0
  188.2940  172.6990  136.7580 C   0  0  0  0  0  1  0  0  0  0  0  0
  189.5920  174.7800  137.2380 C   0  0  2  0  0  3  0  0  0  0  0  0
  192.9960  173.3460  136.4980 C   0  0  0  0  0  2  0  0  0  0  0  0
  192.8470  177.1300  138.3130 O   0  0  0  0  0  0  0  0  0  0  0  0
  185.3680  176.8200  137.2070 C   0  0  0  0  0  3  0  0  0  0  0  0
  186.6660  176.9820  137.5110 C   0  0  0  0  0  0  0  0  0  0  0  0
  191.8780  176.3400  138.4700 C   0  0  0  0  0  0  0  0  0  0  0  0
  188.8830  176.7680  142.1130 C   0  0  0  0  0  2  0  0  0  0  0  0
  188.3920  177.1400  144.5290 C   0  0  0  0  0  1  0  0  0  0  0  0
  187.9660  177.4580  143.1080 C   0  0  0  0  0  2  0  0  0  0  0  0
  1  5  1  1  0  0  0
  2 16  2  0  0  0  0
  4 12  1  1  0  0  0
  4  1  1  0  0  0  0
  5 11  1  0  0  0  0
  7 15  1  6  0  0  0
  7 27  1  0  0  0  0
  8  6  2  0  0  0  0
  8 11  1  0  0  0  0
  9 14  1  1  0  0  0
  9 22  1  0  0  0  0
  9  7  1  0  0  0  0
 10  3  1  0  0  0  0
 10 21  1  1  0  0  0
 10 22  1  0  0  0  0
 11 28  1  6  0  0  0
 12  8  1  0  0  0  0
 13  2  1  0  0  0  0
 14 23  1  0  0  0  0
 17  3  1  1  0  0  0
 17 20  1  0  0  0  0
 17 26  1  0  0  0  0
 18 13  1  0  0  0  0
 19 26  1  1  0  0  0
 19  2  1  0  0  0  0
 19  1  1  0  0  0  0
 20 22  1  0  0  0  0
 20  4  1  0  0  0  0
 23 15  1  0  0  0  0
 24 27  2  0  0  0  0
 25 26  2  0  0  0  0
 25 18  1  0  0  0  0
 27 12  1  0  0  0  0
 28 30  1  0  0  0  0
 30 29  1  0  0  0  0
M  END
>  <MODEL>
7

>  <REMARK>
 VINA RESULT:      -7.4      3.830      7.732
  Name = 
  2 active torsions:
  status: ('A' for Active; 'I' for Inactive)
    1  A    between atoms: C_11  and  C_28
    2  A    between atoms: C_28  and  C_30
                            x       y       z     vdW  Elec       q    Type
                         _______ _______ _______ _____ _____    ______ ____

>  <TORSDO>
F 2

$$$$
=
 OpenBabel11122410343D

 30 35  0  0  1  0  0  0  0  0999 V2000
  185.8700  178.3760  141.4160 C   0  0  1  0  0  3  0  0  0  0  0  0
  184.0010  179.0240  143.0810 C   0  0  0  0  0  0  0  0  0  0  0  0
  183.2990  177.0990  138.6710 N   0  0  0  0  0  2  0  0  0  0  0  0
  186.3130  178.6710  139.9700 C   0  0  1  0  0  3  0  0  0  0  0  0
  186.8270  178.9110  142.3050 O   0  0  0  0  0  0  0  0  0  0  0  0
  189.8020  177.8420  140.6850 O   0  0  0  0  0  0  0  0  0  0  0  0
  187.9170  177.3180  137.3830 C   0  0  1  0  0  3  0  0  0  0  0  0
  188.5740  178.0780  140.8480 C   0  0  0  0  0  0  0  0  0  0  0  0
  186.5010  177.4550  136.8970 C   0  0  1  0  0  3  0  0  0  0  0  0
  184.1530  176.6460  137.5850 C   0  0  2  0  0  3  0  0  0  0  0  0
  188.0080  178.1310  142.2410 C   0  0  2  0  0  3  0  0  0  0  0  0
  187.7040  178.2560  139.7170 N   0  0  0  0  0  0  0  0  0  0  0  0
  182.5570  179.3140  143.3160 C   0  0  0  0  0  2  0  0  0  0  0  0
  186.4710  176.5650  135.6720 C   0  0  0  0  0  2  0  0  0  0  0  0
  188.7580  177.3140  136.1270 C   0  0  0  0  0  2  0  0  0  0  0  0
  184.7560  178.8630  144.0260 O   0  0  0  0  0  0  0  0  0  0  0  0
  183.9120  177.9850  139.3790 C   0  0  2  0  0  3  0  0  0  0  0  0
  181.7120  178.3170  142.5270 C   0  0  0  0  0  2  0  0  0  0  0  0
  184.4850  179.0120  141.6500 C   0  0  2  0  0  3  0  0  0  0  0  0
  185.2830  178.2700  138.8830 C   0  0  2  0  0  3  0  0  0  0  0  0
  184.0520  175.1390  137.4520 C   0  0  0  0  0  1  0  0  0  0  0  0
  185.5630  177.0460  138.0250 C   0  0  2  0  0  3  0  0  0  0  0  0
  187.8670  176.6740  135.0690 C   0  0  0  0  0  2  0  0  0  0  0  0
  189.0500  179.3060  138.1200 O   0  0  0  0  0  0  0  0  0  0  0  0
  182.2010  178.1240  141.1140 C   0  0  0  0  0  3  0  0  0  0  0  0
  183.4600  178.3810  140.7230 C   0  0  0  0  0  0  0  0  0  0  0  0
  188.2670  178.3590  138.4010 C   0  0  0  0  0  0  0  0  0  0  0  0
  187.8190  176.7300  142.8240 C   0  0  0  0  0  2  0  0  0  0  0  0
  189.0460  177.6180  144.8050 C   0  0  0  0  0  1  0  0  0  0  0  0
  187.8880  176.7530  144.3420 C   0  0  0  0  0  2  0  0  0  0  0  0
  1 19  1  0  0  0  0
  1  5  1  1  0  0  0
  2 13  1  0  0  0  0
  2 16  2  0  0  0  0
  4 12  1  6  0  0  0
  4  1  1  0  0  0  0
  6  8  2  0  0  0  0
  7 15  1  6  0  0  0
  7 27  1  0  0  0  0
  8 11  1  0  0  0  0
  9 14  1  6  0  0  0
  9  7  1  0  0  0  0
  9 22  1  0  0  0  0
 10 21  1  1  0  0  0
 10 22  1  0  0  0  0
 10  3  1  0  0  0  0
 11  5  1  0  0  0  0
 11 28  1  6  0  0  0
 12  8  1  0  0  0  0
 17  3  1  1  0  0  0
 17 26  1  0  0  0  0
 18 13  1  0  0  0  0
 19 26  1  6  0  0  0
 19  2  1  0  0  0  0
 20 17  1  0  0  0  0
 20  4  1  0  0  0  0
 22 20  1  0  0  0  0
 23 14  1  0  0  0  0
 23 15  1  0  0  0  0
 24 27  2  0  0  0  0
 25 18  1  0  0  0  0
 26 25  2  0  0  0  0
 27 12  1  0  0  0  0
 28 30  1  0  0  0  0
 30 29  1  0  0  0  0
M  END
>  <MODEL>
8

>  <REMARK>
 VINA RESULT:      -7.3      2.260      7.013
  Name = 
  2 active torsions:
  status: ('A' for Active; 'I' for Inactive)
    1  A    between atoms: C_11  and  C_28
    2  A    between atoms: C_28  and  C_30
                            x       y       z     vdW  Elec       q    Type
                         _______ _______ _______ _____ _____    ______ ____

>  <TORSDO>
F 2

$$$$
=
 OpenBabel11122410343D

 30 35  0  0  1  0  0  0  0  0999 V2000
  184.8130  178.3740  139.3640 C   0  0  1  0  0  3  0  0  0  0  0  0
  182.3460  179.0060  138.9220 C   0  0  0  0  0  0  0  0  0  0  0  0
  184.8580  175.6160  136.5050 N   0  0  0  0  0  2  0  0  0  0  0  0
  186.1570  178.2810  138.6160 C   0  0  1  0  0  3  0  0  0  0  0  0
  184.8920  179.4110  140.3190 O   0  0  0  0  0  0  0  0  0  0  0  0
  188.0940  178.7110  141.6870 O   0  0  0  0  0  0  0  0  0  0  0  0
  189.0520  176.6350  138.6030 C   0  0  1  0  0  3  0  0  0  0  0  0
  187.1190  178.6470  140.8910 C   0  0  0  0  0  0  0  0  0  0  0  0
  188.3940  176.2150  137.3180 C   0  0  1  0  0  3  0  0  0  0  0  0
  186.2080  175.0780  136.5690 C   0  0  2  0  0  3  0  0  0  0  0  0
  185.7410  179.0030  141.3780 C   0  0  2  0  0  3  0  0  0  0  0  0
  187.3030  178.1980  139.5370 N   0  0  0  0  0  0  0  0  0  0  0  0
  181.1670  178.9560  138.0080 C   0  0  0  0  0  2  0  0  0  0  0  0
  189.1930  174.9970  136.9050 C   0  0  0  0  0  2  0  0  0  0  0  0
  190.5320  176.4430  138.3610 C   0  0  0  0  0  2  0  0  0  0  0  0
  182.2100  179.3780  140.0770 O   0  0  0  0  0  0  0  0  0  0  0  0
  184.8350  176.8180  136.9740 C   0  0  2  0  0  3  0  0  0  0  0  0
  181.0770  177.5660  137.3850 C   0  0  0  0  0  2  0  0  0  0  0  0
  183.6940  178.6530  138.3410 C   0  0  2  0  0  3  0  0  0  0  0  0
  186.1710  177.2810  137.4320 C   0  0  2  0  0  3  0  0  0  0  0  0
  186.1600  173.6440  137.0600 C   0  0  0  0  0  1  0  0  0  0  0  0
  186.9170  175.9660  137.5930 C   0  0  2  0  0  3  0  0  0  0  0  0
  190.6140  175.2730  137.3870 C   0  0  0  0  0  2  0  0  0  0  0  0
  189.4290  178.9820  138.9600 O   0  0  0  0  0  0  0  0  0  0  0  0
  182.4080  177.0550  136.8960 C   0  0  0  0  0  3  0  0  0  0  0  0
  183.5890  177.4980  137.3590 C   0  0  0  0  0  0  0  0  0  0  0  0
  188.6330  178.0070  139.0300 C   0  0  0  0  0  0  0  0  0  0  0  0
  185.1340  177.8780  142.2180 C   0  0  0  0  0  2  0  0  0  0  0  0
  186.0610  177.8780  144.5330 C   0  0  0  0  0  1  0  0  0  0  0  0
  184.9090  178.3250  143.6520 C   0  0  0  0  0  2  0  0  0  0  0  0
  1  5  1  1  0  0  0
  2 16  2  0  0  0  0
  3 10  1  0  0  0  0
  4  1  1  0  0  0  0
  4 12  1  1  0  0  0
  5 11  1  0  0  0  0
  7 15  1  6  0  0  0
  7 27  1  0  0  0  0
  8 11  1  0  0  0  0
  8  6  2  0  0  0  0
  9 14  1  1  0  0  0
  9 22  1  0  0  0  0
  9  7  1  0  0  0  0
 10 21  1  1  0  0  0
 10 22  1  0  0  0  0
 11 28  1  6  0  0  0
 12  8  1  0  0  0  0
 13  2  1  0  0  0  0
 14 23  1  0  0  0  0
 17  3  1  1  0  0  0
 17 26  1  0  0  0  0
 17 20  1  0  0  0  0
 18 13  1  0  0  0  0
 19 26  1  1  0  0  0
 19  2  1  0  0  0  0
 19  1  1  0  0  0  0
 20 22  1  0  0  0  0
 20  4  1  0  0  0  0
 23 15  1  0  0  0  0
 24 27  2  0  0  0  0
 25 26  2  0  0  0  0
 25 18  1  0  0  0  0
 27 12  1  0  0  0  0
 28 30  1  0  0  0  0
 30 29  1  0  0  0  0
M  END
>  <MODEL>
9

>  <REMARK>
 VINA RESULT:      -7.2      2.637      6.282
  Name = 
  2 active torsions:
  status: ('A' for Active; 'I' for Inactive)
    1  A    between atoms: C_11  and  C_28
    2  A    between atoms: C_28  and  C_30
                            x       y       z     vdW  Elec       q    Type
                         _______ _______ _______ _____ _____    ______ ____

>  <TORSDO>
F 2

$$$$
