=
 OpenBabel11122411553D

 28 32  0  0  1  0  0  0  0  0999 V2000
  180.0960  178.0190  141.9010 C   0  0  0  0  0  0  0  0  0  0  0  0
  180.3770  180.6540  139.3590 O   0  0  0  0  0  0  0  0  0  0  0  0
  181.7190  174.1630  137.1490 O   0  0  0  0  0  0  0  0  0  0  0  0
  182.2410  178.9970  143.4180 C   0  0  0  0  0  3  0  0  0  0  0  0
  183.3810  175.7250  137.7340 N   0  0  0  0  0  0  0  0  0  0  0  0
  178.9450  177.4230  141.1580 C   0  0  0  0  0  2  0  0  0  0  0  0
  182.5460  181.5740  138.6510 O   0  0  0  0  0  0  0  0  0  0  0  0
  181.6210  180.3940  138.5570 S   0  0  0  0  0  0  0  0  0  0  0  0
  181.5380  178.8760  136.2810 C   0  0  0  0  0  0  0  0  0  0  0  0
  182.4570  178.9430  139.1470 C   0  0  2  0  0  3  0  0  0  0  0  0
  179.6230  173.8500  140.7510 O   0  0  0  0  0  0  0  0  0  0  0  0
  182.2630  176.5860  139.6620 C   0  0  2  0  0  3  0  0  0  0  0  0
  182.3570  178.0220  136.8230 N   0  0  0  0  0  0  0  0  0  0  0  0
  181.2100  180.1120  136.9110 N   0  0  0  0  0  2  0  0  0  0  0  0
  179.5120  175.0630  140.4350 C   0  0  0  0  0  0  0  0  0  0  0  0
  181.3440  178.2390  141.2840 C   0  0  0  0  0  0  0  0  0  0  0  0
  182.1470  175.0670  137.9160 C   0  0  0  0  0  0  0  0  0  0  0  0
  180.9090  178.5440  135.0500 N   0  0  0  0  0  1  0  0  0  0  0  0
  179.9640  175.5120  139.0840 C   0  0  0  0  0  2  0  0  0  0  0  0
  182.4150  178.7170  142.0610 C   0  0  0  0  0  3  0  0  0  0  0  0
  179.9320  178.2990  143.2630 C   0  0  0  0  0  3  0  0  0  0  0  0
  180.9980  178.7910  144.0170 C   0  0  0  0  0  3  0  0  0  0  0  0
  178.9310  175.9820  141.3610 N   0  0  0  0  0  2  0  0  0  0  0  0
  183.4470  176.8250  138.6910 C   0  0  2  0  0  3  0  0  0  0  0  0
  181.4200  175.5710  139.0180 N   0  0  0  0  0  0  0  0  0  0  0  0
  183.1750  178.1900  138.0380 C   0  0  2  0  0  3  0  0  0  0  0  0
  184.3140  175.4960  136.6430 C   0  0  0  0  0  1  0  0  0  0  0  0
  181.5490  177.9270  139.8230 C   0  0  1  0  0  3  0  0  0  0  0  0
  1 21  1  0  0  0  0
  3 17  2  0  0  0  0
  4 22  1  0  0  0  0
  5 17  1  0  0  0  0
  6 23  1  0  0  0  0
  6  1  1  0  0  0  0
  8  7  2  0  0  0  0
  8  2  2  0  0  0  0
  9 13  2  0  0  0  0
  9 14  1  0  0  0  0
 10  8  1  6  0  0  0
 10 28  1  0  0  0  0
 12 25  1  6  0  0  0
 12 28  1  0  0  0  0
 14  8  1  0  0  0  0
 15 11  2  0  0  0  0
 15 23  1  0  0  0  0
 16  1  2  0  0  0  0
 16 20  1  0  0  0  0
 17 25  1  0  0  0  0
 18  9  1  0  0  0  0
 19 15  1  0  0  0  0
 20  4  2  0  0  0  0
 21 22  2  0  0  0  0
 24  5  1  6  0  0  0
 24 12  1  0  0  0  0
 25 19  1  0  0  0  0
 26 13  1  6  0  0  0
 26 24  1  0  0  0  0
 26 10  1  0  0  0  0
 27  5  1  0  0  0  0
 28 16  1  1  0  0  0
M  END
>  <MODEL>
1

>  <REMARK>
 VINA RESULT:      -6.2      0.000      0.000
  Name = 
  0 active torsions:
  status: ('A' for Active; 'I' for Inactive)
                            x       y       z     vdW  Elec       q    Type
                         _______ _______ _______ _____ _____    ______ ____

>  <TORSDO>
F 0

$$$$
=
 OpenBabel11122411553D

 28 32  0  0  1  0  0  0  0  0999 V2000
  180.6000  180.6780  138.3550 C   0  0  0  0  0  0  0  0  0  0  0  0
  184.1980  180.5390  139.0720 O   0  0  0  0  0  0  0  0  0  0  0  0
  181.7650  175.5530  134.8250 O   0  0  0  0  0  0  0  0  0  0  0  0
  179.8620  180.1460  141.0070 C   0  0  0  0  0  3  0  0  0  0  0  0
  182.1540  175.2470  137.1270 N   0  0  0  0  0  0  0  0  0  0  0  0
  180.8950  180.9620  136.9180 C   0  0  0  0  0  2  0  0  0  0  0  0
  185.1530  178.9740  140.7130 O   0  0  0  0  0  0  0  0  0  0  0  0
  184.5630  179.1050  139.3380 S   0  0  0  0  0  0  0  0  0  0  0  0
  185.3930  177.4640  137.3110 C   0  0  0  0  0  0  0  0  0  0  0  0
  183.1340  178.0590  139.2090 C   0  0  2  0  0  3  0  0  0  0  0  0
  178.9310  178.6240  134.9020 O   0  0  0  0  0  0  0  0  0  0  0  0
  181.2790  177.3590  137.8220 C   0  0  2  0  0  3  0  0  0  0  0  0
  184.3750  176.6830  137.5290 N   0  0  0  0  0  0  0  0  0  0  0  0
  185.6990  178.5620  138.1670 N   0  0  0  0  0  2  0  0  0  0  0  0
  179.9420  179.1240  135.4600 C   0  0  0  0  0  0  0  0  0  0  0  0
  181.1200  179.5430  139.0100 C   0  0  0  0  0  0  0  0  0  0  0  0
  181.6990  175.9780  136.0090 C   0  0  0  0  0  0  0  0  0  0  0  0
  186.1930  177.2500  136.1550 N   0  0  0  0  0  1  0  0  0  0  0  0
  181.2370  178.3810  135.4300 C   0  0  0  0  0  2  0  0  0  0  0  0
  180.7300  179.2820  140.3360 C   0  0  0  0  0  3  0  0  0  0  0  0
  179.7270  181.5370  139.0340 C   0  0  0  0  0  3  0  0  0  0  0  0
  179.3640  181.2760  140.3570 C   0  0  0  0  0  3  0  0  0  0  0  0
  179.8400  180.4030  136.0860 N   0  0  0  0  0  2  0  0  0  0  0  0
  182.0910  176.1250  138.2910 C   0  0  2  0  0  3  0  0  0  0  0  0
  181.2130  177.2580  136.3590 N   0  0  0  0  0  0  0  0  0  0  0  0
  183.4710  176.6690  138.6940 C   0  0  2  0  0  3  0  0  0  0  0  0
  182.7870  173.9400  137.0870 C   0  0  0  0  0  1  0  0  0  0  0  0
  182.0450  178.5940  138.2920 C   0  0  1  0  0  3  0  0  0  0  0  0
  1 16  2  0  0  0  0
  1 21  1  0  0  0  0
  2  8  2  0  0  0  0
  3 17  2  0  0  0  0
  6  1  1  0  0  0  0
  8  7  2  0  0  0  0
  9 13  2  0  0  0  0
  9 14  1  0  0  0  0
 10  8  1  6  0  0  0
 11 15  2  0  0  0  0
 12 25  1  6  0  0  0
 12 24  1  0  0  0  0
 12 28  1  0  0  0  0
 14  8  1  0  0  0  0
 15 23  1  0  0  0  0
 16 20  1  0  0  0  0
 17 25  1  0  0  0  0
 17  5  1  0  0  0  0
 18  9  1  0  0  0  0
 19 15  1  0  0  0  0
 19 25  1  0  0  0  0
 20  4  2  0  0  0  0
 21 22  2  0  0  0  0
 22  4  1  0  0  0  0
 23  6  1  0  0  0  0
 24  5  1  6  0  0  0
 24 26  1  0  0  0  0
 26 13  1  6  0  0  0
 26 10  1  0  0  0  0
 27  5  1  0  0  0  0
 28 16  1  1  0  0  0
 28 10  1  0  0  0  0
M  END
>  <MODEL>
2

>  <REMARK>
 VINA RESULT:      -5.5      2.726      4.085
  Name = 
  0 active torsions:
  status: ('A' for Active; 'I' for Inactive)
                            x       y       z     vdW  Elec       q    Type
                         _______ _______ _______ _____ _____    ______ ____

>  <TORSDO>
F 0

$$$$
=
 OpenBabel11122411553D

 28 32  0  0  1  0  0  0  0  0999 V2000
  185.5720  175.7270  136.8440 C   0  0  0  0  0  0  0  0  0  0  0  0
  182.6620  175.2640  134.6530 O   0  0  0  0  0  0  0  0  0  0  0  0
  181.5360  179.0400  140.4230 O   0  0  0  0  0  0  0  0  0  0  0  0
  185.7580  173.0030  137.4810 C   0  0  0  0  0  3  0  0  0  0  0  0
  180.9910  176.7590  140.2150 N   0  0  0  0  0  0  0  0  0  0  0  0
  185.5500  177.1950  136.5660 C   0  0  0  0  0  2  0  0  0  0  0  0
  180.9030  173.6120  135.1320 O   0  0  0  0  0  0  0  0  0  0  0  0
  181.4750  174.9460  135.5190 S   0  0  0  0  0  0  0  0  0  0  0  0
  179.8450  176.9320  136.4610 C   0  0  0  0  0  0  0  0  0  0  0  0
  181.9390  174.9120  137.2330 C   0  0  2  0  0  3  0  0  0  0  0  0
  185.6650  178.9300  139.7860 O   0  0  0  0  0  0  0  0  0  0  0  0
  182.9790  176.1210  139.0530 C   0  0  2  0  0  3  0  0  0  0  0  0
  180.1460  176.5980  137.6820 N   0  0  0  0  0  0  0  0  0  0  0  0
  180.2740  176.1630  135.3400 N   0  0  0  0  0  2  0  0  0  0  0  0
  185.1760  178.4760  138.7180 C   0  0  0  0  0  0  0  0  0  0  0  0
  184.4430  175.0480  137.3460 C   0  0  0  0  0  0  0  0  0  0  0  0
  181.8270  177.8790  140.0280 C   0  0  0  0  0  0  0  0  0  0  0  0
  179.1120  178.1300  136.2330 N   0  0  0  0  0  1  0  0  0  0  0  0
  183.7020  178.5570  138.4950 C   0  0  0  0  0  2  0  0  0  0  0  0
  184.5560  173.6850  137.6740 C   0  0  0  0  0  3  0  0  0  0  0  0
  186.7750  175.0350  136.6570 C   0  0  0  0  0  3  0  0  0  0  0  0
  186.8670  173.6780  136.9680 C   0  0  0  0  0  3  0  0  0  0  0  0
  186.0420  177.9150  137.7310 N   0  0  0  0  0  2  0  0  0  0  0  0
  181.5640  175.6440  139.4680 C   0  0  2  0  0  3  0  0  0  0  0  0
  182.9990  177.5680  139.3030 N   0  0  0  0  0  0  0  0  0  0  0  0
  180.8180  175.3720  138.1520 C   0  0  2  0  0  3  0  0  0  0  0  0
  179.6800  176.7710  140.8440 C   0  0  0  0  0  1  0  0  0  0  0  0
  183.1430  175.7770  137.5740 C   0  0  1  0  0  3  0  0  0  0  0  0
  1 16  1  0  0  0  0
  2  8  2  0  0  0  0
  4 20  1  0  0  0  0
  5 27  1  0  0  0  0
  6  1  1  0  0  0  0
  6 23  1  0  0  0  0
  7  8  2  0  0  0  0
  9 13  2  0  0  0  0
 10  8  1  6  0  0  0
 10 28  1  0  0  0  0
 10 26  1  0  0  0  0
 12 25  1  6  0  0  0
 12 24  1  0  0  0  0
 14  8  1  0  0  0  0
 14  9  1  0  0  0  0
 15 11  2  0  0  0  0
 16 20  2  0  0  0  0
 17  5  1  0  0  0  0
 17  3  2  0  0  0  0
 18  9  1  0  0  0  0
 19 15  1  0  0  0  0
 19 25  1  0  0  0  0
 21  1  2  0  0  0  0
 21 22  1  0  0  0  0
 22  4  2  0  0  0  0
 23 15  1  0  0  0  0
 24  5  1  6  0  0  0
 25 17  1  0  0  0  0
 26 13  1  6  0  0  0
 26 24  1  0  0  0  0
 28 16  1  1  0  0  0
 28 12  1  0  0  0  0
M  END
>  <MODEL>
3

>  <REMARK>
 VINA RESULT:      -5.4      2.615      6.204
  Name = 
  0 active torsions:
  status: ('A' for Active; 'I' for Inactive)
                            x       y       z     vdW  Elec       q    Type
                         _______ _______ _______ _____ _____    ______ ____

>  <TORSDO>
F 0

$$$$
=
 OpenBabel11122411553D

 28 32  0  0  1  0  0  0  0  0999 V2000
  185.6540  176.8830  137.4340 C   0  0  0  0  0  0  0  0  0  0  0  0
  183.0370  177.5240  134.9410 O   0  0  0  0  0  0  0  0  0  0  0  0
  181.4080  179.1770  141.5310 O   0  0  0  0  0  0  0  0  0  0  0  0
  185.5730  174.1030  137.0770 C   0  0  0  0  0  3  0  0  0  0  0  0
  180.7450  177.1820  140.4720 N   0  0  0  0  0  0  0  0  0  0  0  0
  185.7670  178.3500  137.6970 C   0  0  0  0  0  2  0  0  0  0  0  0
  181.1240  176.0100  134.6220 O   0  0  0  0  0  0  0  0  0  0  0  0
  181.7270  177.0580  135.5130 S   0  0  0  0  0  0  0  0  0  0  0  0
  180.1220  178.7630  136.9300 C   0  0  0  0  0  0  0  0  0  0  0  0
  181.9560  176.3850  137.1400 C   0  0  2  0  0  3  0  0  0  0  0  0
  185.5690  178.8450  141.3170 O   0  0  0  0  0  0  0  0  0  0  0  0
  182.8230  176.7710  139.3660 C   0  0  2  0  0  3  0  0  0  0  0  0
  180.2360  177.9970  137.9760 N   0  0  0  0  0  0  0  0  0  0  0  0
  180.6440  178.3860  135.6580 N   0  0  0  0  0  2  0  0  0  0  0  0
  185.1970  178.8420  140.1140 C   0  0  0  0  0  0  0  0  0  0  0  0
  184.4260  176.2000  137.5470 C   0  0  0  0  0  0  0  0  0  0  0  0
  181.6710  178.2000  140.7820 C   0  0  0  0  0  0  0  0  0  0  0  0
  179.5070  180.0380  137.0700 N   0  0  0  0  0  1  0  0  0  0  0  0
  183.7740  179.1560  139.7870 C   0  0  0  0  0  2  0  0  0  0  0  0
  184.4030  174.8040  137.3780 C   0  0  0  0  0  3  0  0  0  0  0  0
  186.8230  176.1720  137.1360 C   0  0  0  0  0  3  0  0  0  0  0  0
  186.7820  174.7880  136.9520 C   0  0  0  0  0  3  0  0  0  0  0  0
  186.1470  178.5660  139.0840 N   0  0  0  0  0  2  0  0  0  0  0  0
  181.3370  176.3380  139.4400 C   0  0  2  0  0  3  0  0  0  0  0  0
  182.9060  178.0320  140.1150 N   0  0  0  0  0  0  0  0  0  0  0  0
  180.7560  176.6190  138.0440 C   0  0  2  0  0  3  0  0  0  0  0  0
  179.3670  177.1200  140.9290 C   0  0  0  0  0  1  0  0  0  0  0  0
  183.1590  176.9430  137.8860 C   0  0  1  0  0  3  0  0  0  0  0  0
  1 16  1  0  0  0  0
  1  6  1  0  0  0  0
  2  8  2  0  0  0  0
  4 20  1  0  0  0  0
  5 17  1  0  0  0  0
  5 27  1  0  0  0  0
  6 23  1  0  0  0  0
  7  8  2  0  0  0  0
  8 14  1  0  0  0  0
  9 18  1  0  0  0  0
  9 13  2  0  0  0  0
 10  8  1  6  0  0  0
 10 28  1  0  0  0  0
 10 26  1  0  0  0  0
 12 24  1  0  0  0  0
 12 25  1  1  0  0  0
 14  9  1  0  0  0  0
 15 11  2  0  0  0  0
 17  3  2  0  0  0  0
 19 15  1  0  0  0  0
 19 25  1  0  0  0  0
 20 16  2  0  0  0  0
 21  1  2  0  0  0  0
 22  4  2  0  0  0  0
 22 21  1  0  0  0  0
 23 15  1  0  0  0  0
 24  5  1  1  0  0  0
 25 17  1  0  0  0  0
 26 13  1  1  0  0  0
 26 24  1  0  0  0  0
 28 16  1  6  0  0  0
 28 12  1  0  0  0  0
M  END
>  <MODEL>
4

>  <REMARK>
 VINA RESULT:      -5.3      2.491      5.787
  Name = 
  0 active torsions:
  status: ('A' for Active; 'I' for Inactive)
                            x       y       z     vdW  Elec       q    Type
                         _______ _______ _______ _____ _____    ______ ____

>  <TORSDO>
F 0

$$$$
=
 OpenBabel11122411553D

 28 32  0  0  1  0  0  0  0  0999 V2000
  180.5380  179.3940  141.9400 C   0  0  0  0  0  0  0  0  0  0  0  0
  179.7070  176.6860  139.6050 O   0  0  0  0  0  0  0  0  0  0  0  0
  186.5170  178.0640  140.3390 O   0  0  0  0  0  0  0  0  0  0  0  0
  179.3050  181.3700  140.3780 C   0  0  0  0  0  3  0  0  0  0  0  0
  185.1960  178.8610  138.5590 N   0  0  0  0  0  0  0  0  0  0  0  0
  181.2230  178.4140  142.8370 C   0  0  0  0  0  2  0  0  0  0  0  0
  179.6840  177.0110  137.1670 O   0  0  0  0  0  0  0  0  0  0  0  0
  180.5580  176.8530  138.3780 S   0  0  0  0  0  0  0  0  0  0  0  0
  182.9960  175.6270  138.1780 C   0  0  0  0  0  0  0  0  0  0  0  0
  181.6100  178.2750  138.5330 C   0  0  2  0  0  3  0  0  0  0  0  0
  184.5390  179.7530  143.6100 O   0  0  0  0  0  0  0  0  0  0  0  0
  183.2780  179.3990  139.8790 C   0  0  2  0  0  3  0  0  0  0  0  0
  183.5720  176.7910  138.0780 N   0  0  0  0  0  0  0  0  0  0  0  0
  181.5790  175.4840  138.1800 N   0  0  0  0  0  2  0  0  0  0  0  0
  183.6700  179.0190  143.0700 C   0  0  0  0  0  0  0  0  0  0  0  0
  180.8920  179.5340  140.5830 C   0  0  0  0  0  0  0  0  0  0  0  0
  185.4370  178.5560  139.9150 C   0  0  0  0  0  0  0  0  0  0  0  0
  183.8060  174.4690  138.3430 N   0  0  0  0  0  1  0  0  0  0  0  0
  184.0770  178.0860  141.9780 C   0  0  0  0  0  2  0  0  0  0  0  0
  180.2750  180.5380  139.8160 C   0  0  0  0  0  3  0  0  0  0  0  0
  179.5670  180.2360  142.4970 C   0  0  0  0  0  3  0  0  0  0  0  0
  178.9480  181.2150  141.7190 C   0  0  0  0  0  3  0  0  0  0  0  0
  182.3190  179.0750  143.5290 N   0  0  0  0  0  2  0  0  0  0  0  0
  183.7910  179.2280  138.4260 C   0  0  2  0  0  3  0  0  0  0  0  0
  184.3150  178.8120  140.7360 N   0  0  0  0  0  0  0  0  0  0  0  0
  182.9410  178.0990  137.8200 C   0  0  2  0  0  3  0  0  0  0  0  0
  186.1180  178.6280  137.4600 C   0  0  0  0  0  1  0  0  0  0  0  0
  181.9490  178.6510  139.9670 C   0  0  1  0  0  3  0  0  0  0  0  0
  1 21  1  0  0  0  0
  1  6  1  0  0  0  0
  4 22  1  0  0  0  0
  5 17  1  0  0  0  0
  6 23  1  0  0  0  0
  7  8  2  0  0  0  0
  8  2  2  0  0  0  0
  9 14  1  0  0  0  0
  9 18  1  0  0  0  0
 10  8  1  1  0  0  0
 10 28  1  0  0  0  0
 12 28  1  0  0  0  0
 12 25  1  1  0  0  0
 13  9  2  0  0  0  0
 14  8  1  0  0  0  0
 15 23  1  0  0  0  0
 15 11  2  0  0  0  0
 16  1  2  0  0  0  0
 17  3  2  0  0  0  0
 17 25  1  0  0  0  0
 19 15  1  0  0  0  0
 20  4  2  0  0  0  0
 20 16  1  0  0  0  0
 22 21  2  0  0  0  0
 24  5  1  1  0  0  0
 24 12  1  0  0  0  0
 25 19  1  0  0  0  0
 26 13  1  1  0  0  0
 26 24  1  0  0  0  0
 26 10  1  0  0  0  0
 27  5  1  0  0  0  0
 28 16  1  6  0  0  0
M  END
>  <MODEL>
5

>  <REMARK>
 VINA RESULT:      -5.0      2.883      4.299
  Name = 
  0 active torsions:
  status: ('A' for Active; 'I' for Inactive)
                            x       y       z     vdW  Elec       q    Type
                         _______ _______ _______ _____ _____    ______ ____

>  <TORSDO>
F 0

$$$$
=
 OpenBabel11122411553D

 28 32  0  0  1  0  0  0  0  0999 V2000
  182.0440  176.1750  136.8550 C   0  0  0  0  0  0  0  0  0  0  0  0
  184.6820  178.1000  138.5330 O   0  0  0  0  0  0  0  0  0  0  0  0
  179.1670  176.4390  142.4880 O   0  0  0  0  0  0  0  0  0  0  0  0
  181.3900  178.2550  135.0930 C   0  0  0  0  0  3  0  0  0  0  0  0
  179.4650  178.5350  141.4590 N   0  0  0  0  0  0  0  0  0  0  0  0
  182.3180  175.0120  137.7530 C   0  0  0  0  0  2  0  0  0  0  0  0
  184.5000  180.5230  138.9190 O   0  0  0  0  0  0  0  0  0  0  0  0
  184.0230  179.1680  139.3590 S   0  0  0  0  0  0  0  0  0  0  0  0
  183.3570  178.7160  141.9750 C   0  0  0  0  0  0  0  0  0  0  0  0
  182.2560  179.0870  139.1980 C   0  0  2  0  0  3  0  0  0  0  0  0
  179.1200  173.9190  139.1540 O   0  0  0  0  0  0  0  0  0  0  0  0
  180.2880  177.6910  139.3810 C   0  0  2  0  0  3  0  0  0  0  0  0
  182.1030  178.9180  141.6890 N   0  0  0  0  0  0  0  0  0  0  0  0
  184.3930  178.9370  141.0220 N   0  0  0  0  0  2  0  0  0  0  0  0
  180.2540  174.4640  139.1130 C   0  0  0  0  0  0  0  0  0  0  0  0
  181.7340  177.4520  137.3660 C   0  0  0  0  0  0  0  0  0  0  0  0
  179.5110  177.1260  141.4900 C   0  0  0  0  0  0  0  0  0  0  0  0
  183.6980  178.2070  143.2580 N   0  0  0  0  0  1  0  0  0  0  0  0
  180.7160  175.2840  140.2720 C   0  0  0  0  0  2  0  0  0  0  0  0
  181.3950  178.4820  136.4710 C   0  0  0  0  0  3  0  0  0  0  0  0
  182.0330  175.9560  135.4720 C   0  0  0  0  0  3  0  0  0  0  0  0
  181.7130  176.9930  134.5940 C   0  0  0  0  0  3  0  0  0  0  0  0
  181.0880  174.2670  137.9700 N   0  0  0  0  0  2  0  0  0  0  0  0
  180.1100  178.9770  140.2270 C   0  0  2  0  0  3  0  0  0  0  0  0
  180.0360  176.5730  140.2990 N   0  0  0  0  0  0  0  0  0  0  0  0
  181.5320  179.5120  140.4650 C   0  0  2  0  0  3  0  0  0  0  0  0
  179.0600  179.3970  142.5570 C   0  0  0  0  0  1  0  0  0  0  0  0
  181.7210  177.7050  138.8520 C   0  0  1  0  0  3  0  0  0  0  0  0
  1 16  1  0  0  0  0
  1  6  1  0  0  0  0
  2  8  2  0  0  0  0
  4 20  1  0  0  0  0
  5 17  1  0  0  0  0
  5 27  1  0  0  0  0
  6 23  1  0  0  0  0
  7  8  2  0  0  0  0
  8 14  1  0  0  0  0
  9 18  1  0  0  0  0
 10  8  1  1  0  0  0
 10 26  1  0  0  0  0
 12 24  1  0  0  0  0
 12 25  1  1  0  0  0
 13  9  2  0  0  0  0
 14  9  1  0  0  0  0
 15 11  2  0  0  0  0
 15 19  1  0  0  0  0
 17  3  2  0  0  0  0
 19 25  1  0  0  0  0
 20 16  2  0  0  0  0
 21  1  2  0  0  0  0
 22  4  2  0  0  0  0
 22 21  1  0  0  0  0
 23 15  1  0  0  0  0
 24 26  1  0  0  0  0
 24  5  1  1  0  0  0
 25 17  1  0  0  0  0
 26 13  1  1  0  0  0
 28 16  1  6  0  0  0
 28 10  1  0  0  0  0
 28 12  1  0  0  0  0
M  END
>  <MODEL>
6

>  <REMARK>
 VINA RESULT:      -4.9      2.402      5.316
  Name = 
  0 active torsions:
  status: ('A' for Active; 'I' for Inactive)
                            x       y       z     vdW  Elec       q    Type
                         _______ _______ _______ _____ _____    ______ ____

>  <TORSDO>
F 0

$$$$
=
 OpenBabel11122411553D

 28 32  0  0  1  0  0  0  0  0999 V2000
  184.0080  176.0330  135.4910 C   0  0  0  0  0  0  0  0  0  0  0  0
  181.2600  178.4400  135.1350 O   0  0  0  0  0  0  0  0  0  0  0  0
  185.4230  179.4000  140.6620 O   0  0  0  0  0  0  0  0  0  0  0  0
  182.2940  173.8580  135.9280 C   0  0  0  0  0  3  0  0  0  0  0  0
  183.3350  178.3160  140.7590 N   0  0  0  0  0  0  0  0  0  0  0  0
  185.0000  177.1290  135.2720 C   0  0  0  0  0  2  0  0  0  0  0  0
  179.1880  178.2780  136.4520 O   0  0  0  0  0  0  0  0  0  0  0  0
  180.6440  178.6460  136.4900 S   0  0  0  0  0  0  0  0  0  0  0  0
  181.5280  180.6340  138.1510 C   0  0  0  0  0  0  0  0  0  0  0  0
  181.4690  177.6560  137.7110 C   0  0  2  0  0  3  0  0  0  0  0  0
  187.4670  176.9440  137.9680 O   0  0  0  0  0  0  0  0  0  0  0  0
  183.5880  177.0810  138.7290 C   0  0  2  0  0  3  0  0  0  0  0  0
  181.8670  179.7410  139.0360 N   0  0  0  0  0  0  0  0  0  0  0  0
  180.8120  180.2890  136.9680 N   0  0  0  0  0  2  0  0  0  0  0  0
  186.4830  177.3730  137.3100 C   0  0  0  0  0  0  0  0  0  0  0  0
  183.0320  176.1060  136.5060 C   0  0  0  0  0  0  0  0  0  0  0  0
  184.5840  178.6000  140.1690 C   0  0  0  0  0  0  0  0  0  0  0  0
  181.9300  181.9840  138.3430 N   0  0  0  0  0  1  0  0  0  0  0  0
  185.6310  178.4550  137.8870 C   0  0  0  0  0  2  0  0  0  0  0  0
  182.1880  175.0010  136.7210 C   0  0  0  0  0  3  0  0  0  0  0  0
  184.1100  174.8800  134.7030 C   0  0  0  0  0  3  0  0  0  0  0  0
  183.2520  173.7990  134.9150 C   0  0  0  0  0  3  0  0  0  0  0  0
  186.2170  176.8360  136.0130 N   0  0  0  0  0  2  0  0  0  0  0  0
  182.5700  177.5050  139.8190 C   0  0  2  0  0  3  0  0  0  0  0  0
  184.7680  177.9300  138.9380 N   0  0  0  0  0  0  0  0  0  0  0  0
  181.4920  178.3160  139.0810 C   0  0  2  0  0  3  0  0  0  0  0  0
  182.8160  178.9140  141.9780 C   0  0  0  0  0  1  0  0  0  0  0  0
  182.9170  177.3290  137.3800 C   0  0  1  0  0  3  0  0  0  0  0  0
  1 16  1  0  0  0  0
  2  8  2  0  0  0  0
  4 20  1  0  0  0  0
  5 27  1  0  0  0  0
  6  1  1  0  0  0  0
  6 23  1  0  0  0  0
  7  8  2  0  0  0  0
  8 14  1  0  0  0  0
  9 18  1  0  0  0  0
  9 13  2  0  0  0  0
 10  8  1  6  0  0  0
 10 26  1  0  0  0  0
 12 25  1  6  0  0  0
 12 24  1  0  0  0  0
 14  9  1  0  0  0  0
 15 19  1  0  0  0  0
 15 11  2  0  0  0  0
 16 20  2  0  0  0  0
 17  3  2  0  0  0  0
 17  5  1  0  0  0  0
 19 25  1  0  0  0  0
 21 22  1  0  0  0  0
 21  1  2  0  0  0  0
 22  4  2  0  0  0  0
 23 15  1  0  0  0  0
 24  5  1  1  0  0  0
 25 17  1  0  0  0  0
 26 13  1  6  0  0  0
 26 24  1  0  0  0  0
 28 16  1  6  0  0  0
 28 10  1  0  0  0  0
 28 12  1  0  0  0  0
M  END
>  <MODEL>
7

>  <REMARK>
 VINA RESULT:      -4.9      2.944      6.097
  Name = 
  0 active torsions:
  status: ('A' for Active; 'I' for Inactive)
                            x       y       z     vdW  Elec       q    Type
                         _______ _______ _______ _____ _____    ______ ____

>  <TORSDO>
F 0

$$$$
=
 OpenBabel11122411553D

 28 32  0  0  1  0  0  0  0  0999 V2000
  181.2970  178.1640  137.2610 C   0  0  0  0  0  0  0  0  0  0  0  0
  181.3250  174.5340  136.7130 O   0  0  0  0  0  0  0  0  0  0  0  0
  187.5090  177.4140  138.2230 O   0  0  0  0  0  0  0  0  0  0  0  0
  180.5710  178.7440  134.6150 C   0  0  0  0  0  3  0  0  0  0  0  0
  186.8010  176.8850  136.0410 N   0  0  0  0  0  0  0  0  0  0  0  0
  181.6890  177.9550  138.6870 C   0  0  0  0  0  2  0  0  0  0  0  0
  182.0690  173.5280  134.5950 O   0  0  0  0  0  0  0  0  0  0  0  0
  182.5170  174.2030  135.8600 S   0  0  0  0  0  0  0  0  0  0  0  0
  184.9260  173.5650  136.9920 C   0  0  0  0  0  0  0  0  0  0  0  0
  183.4260  175.6720  135.4530 C   0  0  2  0  0  3  0  0  0  0  0  0
  184.5500  180.1280  139.3810 O   0  0  0  0  0  0  0  0  0  0  0  0
  184.5490  177.6380  136.3080 C   0  0  2  0  0  3  0  0  0  0  0  0
  185.4710  174.5930  136.4080 N   0  0  0  0  0  0  0  0  0  0  0  0
  183.5850  173.1660  136.7210 N   0  0  0  0  0  2  0  0  0  0  0  0
  183.9180  179.0650  139.1450 C   0  0  0  0  0  0  0  0  0  0  0  0
  182.0610  177.6430  136.1960 C   0  0  0  0  0  0  0  0  0  0  0  0
  186.6070  177.3870  137.3440 C   0  0  0  0  0  0  0  0  0  0  0  0
  185.6720  172.8510  137.9700 N   0  0  0  0  0  1  0  0  0  0  0  0
  184.6750  177.8010  138.9020 C   0  0  0  0  0  2  0  0  0  0  0  0
  181.6910  177.9540  134.8750 C   0  0  0  0  0  3  0  0  0  0  0  0
  180.1770  178.9600  136.9910 C   0  0  0  0  0  3  0  0  0  0  0  0
  179.8110  179.2440  135.6740 C   0  0  0  0  0  3  0  0  0  0  0  0
  182.4900  179.0810  139.1410 N   0  0  0  0  0  2  0  0  0  0  0  0
  185.5010  176.8410  135.3800 C   0  0  2  0  0  3  0  0  0  0  0  0
  185.2760  177.8040  137.5730 N   0  0  0  0  0  0  0  0  0  0  0  0
  184.9190  175.4190  135.3180 C   0  0  2  0  0  3  0  0  0  0  0  0
  188.0300  176.3020  135.5290 C   0  0  0  0  0  1  0  0  0  0  0  0
  183.2820  176.8000  136.4630 C   0  0  1  0  0  3  0  0  0  0  0  0
  1  6  1  0  0  0  0
  4 20  2  0  0  0  0
  4 22  1  0  0  0  0
  5 17  1  0  0  0  0
  6 23  1  0  0  0  0
  7  8  2  0  0  0  0
  8  2  2  0  0  0  0
  8 14  1  0  0  0  0
  9 18  1  0  0  0  0
 10  8  1  1  0  0  0
 10 28  1  0  0  0  0
 12 28  1  0  0  0  0
 12 25  1  1  0  0  0
 13  9  2  0  0  0  0
 14  9  1  0  0  0  0
 15 11  2  0  0  0  0
 16  1  2  0  0  0  0
 17 25  1  0  0  0  0
 17  3  2  0  0  0  0
 19 15  1  0  0  0  0
 20 16  1  0  0  0  0
 21  1  1  0  0  0  0
 22 21  2  0  0  0  0
 23 15  1  0  0  0  0
 24  5  1  1  0  0  0
 24 12  1  0  0  0  0
 25 19  1  0  0  0  0
 26 24  1  0  0  0  0
 26 10  1  0  0  0  0
 26 13  1  1  0  0  0
 27  5  1  0  0  0  0
 28 16  1  6  0  0  0
M  END
>  <MODEL>
8

>  <REMARK>
 VINA RESULT:      -4.8      3.478      6.076
  Name = 
  0 active torsions:
  status: ('A' for Active; 'I' for Inactive)
                            x       y       z     vdW  Elec       q    Type
                         _______ _______ _______ _____ _____    ______ ____

>  <TORSDO>
F 0

$$$$
=
 OpenBabel11122411553D

 28 32  0  0  1  0  0  0  0  0999 V2000
  182.6270  176.1790  137.8760 C   0  0  0  0  0  0  0  0  0  0  0  0
  184.5530  173.0870  137.4170 O   0  0  0  0  0  0  0  0  0  0  0  0
  188.2630  179.0060  137.3080 O   0  0  0  0  0  0  0  0  0  0  0  0
  181.2100  175.8720  135.4760 C   0  0  0  0  0  3  0  0  0  0  0  0
  187.5630  177.8550  135.3770 N   0  0  0  0  0  0  0  0  0  0  0  0
  183.3340  176.4300  139.1680 C   0  0  0  0  0  2  0  0  0  0  0  0
  185.3060  172.3210  135.2040 O   0  0  0  0  0  0  0  0  0  0  0  0
  185.5390  173.3150  136.3070 S   0  0  0  0  0  0  0  0  0  0  0  0
  188.0610  174.2390  136.8300 C   0  0  0  0  0  0  0  0  0  0  0  0
  185.3850  174.9600  135.6570 C   0  0  2  0  0  3  0  0  0  0  0  0
  184.5840  179.8680  139.0950 O   0  0  0  0  0  0  0  0  0  0  0  0
  185.3720  177.3250  136.1700 C   0  0  2  0  0  3  0  0  0  0  0  0
  187.8220  175.2950  136.1080 N   0  0  0  0  0  0  0  0  0  0  0  0
  187.1430  173.1510  136.9020 N   0  0  0  0  0  2  0  0  0  0  0  0
  184.6150  178.6110  139.0430 C   0  0  0  0  0  0  0  0  0  0  0  0
  183.3300  175.9880  136.6690 C   0  0  0  0  0  0  0  0  0  0  0  0
  187.3780  178.3690  136.6780 C   0  0  0  0  0  0  0  0  0  0  0  0
  189.2490  174.1900  137.6110 N   0  0  0  0  0  1  0  0  0  0  0  0
  185.8810  177.9250  138.6500 C   0  0  0  0  0  2  0  0  0  0  0  0
  182.6060  175.8490  135.4720 C   0  0  0  0  0  3  0  0  0  0  0  0
  181.2270  176.2040  137.8710 C   0  0  0  0  0  3  0  0  0  0  0  0
  180.5210  176.0450  136.6770 C   0  0  0  0  0  3  0  0  0  0  0  0
  183.4470  177.8640  139.3880 N   0  0  0  0  0  2  0  0  0  0  0  0
  186.4070  177.0260  135.0550 C   0  0  2  0  0  3  0  0  0  0  0  0
  186.1120  178.0430  137.2150 N   0  0  0  0  0  0  0  0  0  0  0  0
  186.7090  175.5230  135.1680 C   0  0  2  0  0  3  0  0  0  0  0  0
  188.7840  177.9460  134.5940 C   0  0  0  0  0  1  0  0  0  0  0  0
  184.8380  175.9770  136.6480 C   0  0  1  0  0  3  0  0  0  0  0  0
  1  6  1  0  0  0  0
  4 22  1  0  0  0  0
  5 17  1  0  0  0  0
  6 23  1  0  0  0  0
  7  8  2  0  0  0  0
  8 14  1  0  0  0  0
  8  2  2  0  0  0  0
  9 14  1  0  0  0  0
  9 18  1  0  0  0  0
 10  8  1  1  0  0  0
 10 28  1  0  0  0  0
 12 28  1  0  0  0  0
 12 25  1  1  0  0  0
 13  9  2  0  0  0  0
 15 11  2  0  0  0  0
 15 23  1  0  0  0  0
 16  1  2  0  0  0  0
 17 25  1  0  0  0  0
 17  3  2  0  0  0  0
 19 15  1  0  0  0  0
 20  4  2  0  0  0  0
 20 16  1  0  0  0  0
 21  1  1  0  0  0  0
 22 21  2  0  0  0  0
 24 26  1  0  0  0  0
 24  5  1  1  0  0  0
 24 12  1  0  0  0  0
 25 19  1  0  0  0  0
 26 10  1  0  0  0  0
 26 13  1  1  0  0  0
 27  5  1  0  0  0  0
 28 16  1  6  0  0  0
M  END
>  <MODEL>
9

>  <REMARK>
 VINA RESULT:      -4.7      3.928      6.917
  Name = 
  0 active torsions:
  status: ('A' for Active; 'I' for Inactive)
                            x       y       z     vdW  Elec       q    Type
                         _______ _______ _______ _____ _____    ______ ____

>  <TORSDO>
F 0

$$$$
