=
 OpenBabel11122412183D

 34 40  0  0  1  0  0  0  0  0999 V2000
  183.7740  178.6910  143.8410 C   0  0  0  0  0  0  0  0  0  0  0  0
  181.4040  179.1280  142.7720 C   0  0  0  0  0  2  0  0  0  0  0  0
  190.3290  178.0850  143.5170 C   0  0  2  0  0  3  0  0  0  0  0  0
  186.0410  178.2610  144.6580 C   0  0  0  0  0  0  0  0  0  0  0  0
  187.8240  177.8690  143.0350 C   0  0  0  0  0  0  0  0  0  0  0  0
  189.4430  177.8450  141.2750 O   0  0  0  0  0  1  0  0  0  0  0  0
  191.6480  178.2870  142.7880 C   0  0  0  0  0  1  0  0  0  0  0  0
  189.3200  176.7230  145.4230 C   0  0  0  0  0  2  0  0  0  0  0  0
  183.2770  178.6740  141.4610 C   0  0  0  0  0  0  0  0  0  0  0  0
  183.1990  178.8210  138.2940 C   0  0  0  0  0  2  0  0  0  0  0  0
  186.9010  178.0030  142.0400 N   0  0  0  0  0  0  0  0  0  0  0  0
  188.3470  177.8780  145.5640 C   0  0  0  0  0  2  0  0  0  0  0  0
  184.6680  178.4190  141.1660 N   0  0  0  0  0  0  0  0  0  0  0  0
  181.0130  179.3360  141.3100 C   0  0  0  0  0  2  0  0  0  0  0  0
  187.3980  177.9740  144.3940 C   0  0  0  0  0  0  0  0  0  0  0  0
  190.5930  177.1820  144.7210 C   0  0  0  0  0  2  0  0  0  0  0  0
  182.5840  179.6430  139.3440 N   0  0  0  0  0  0  0  0  0  0  0  0
  185.1330  178.4050  143.5900 C   0  0  0  0  0  0  0  0  0  0  0  0
  189.2350  177.4900  142.6140 C   0  0  1  0  0  3  0  0  0  0  0  0
  185.5890  178.2700  142.2700 C   0  0  0  0  0  0  0  0  0  0  0  0
  184.2200  178.6900  146.2210 C   0  0  0  0  0  3  0  0  0  0  0  0
  184.3020  177.8800  138.7910 C   0  0  0  0  0  2  0  0  0  0  0  0
  185.5660  178.4070  145.9730 C   0  0  0  0  0  3  0  0  0  0  0  0
  185.2030  178.5580  139.8100 C   0  0  0  0  0  2  0  0  0  0  0  0
  182.1730  178.7760  140.4630 C   0  0  1  0  0  3  0  0  0  0  0  0
  183.3250  178.8320  145.1570 C   0  0  0  0  0  3  0  0  0  0  0  0
  182.8520  178.8240  142.6990 C   0  0  0  0  0  0  0  0  0  0  0  0
  181.4240  180.2530  138.7030 C   0  0  0  0  0  2  0  0  0  0  0  0
  181.7340  181.7000  138.3620 C   0  0  0  0  0  2  0  0  0  0  0  0
  181.2720  184.0460  136.3040 O   0  0  0  0  0  0  0  0  0  0  0  0
  180.5120  181.8400  136.2120 C   0  0  0  0  0  2  0  0  0  0  0  0
  180.5640  182.3300  137.6250 C   0  0  2  0  0  3  0  0  0  0  0  0
  180.6900  183.1120  135.4370 C   0  0  0  0  0  2  0  0  0  0  0  0
  180.7620  183.7700  137.5390 N   0  0  0  0  0  2  0  0  0  0  0  0
  1 26  1  0  0  0  0
  3  7  1  6  0  0  0
  3 16  1  0  0  0  0
  4 23  2  0  0  0  0
  5 15  2  0  0  0  0
  8 12  1  0  0  0  0
  9 27  2  0  0  0  0
 10 22  1  0  0  0  0
 10 17  1  0  0  0  0
 11 20  2  0  0  0  0
 11  5  1  0  0  0  0
 13  9  1  0  0  0  0
 13 20  1  0  0  0  0
 14  2  1  0  0  0  0
 15  4  1  0  0  0  0
 15 12  1  0  0  0  0
 16  8  1  0  0  0  0
 17 25  1  0  0  0  0
 18  1  2  0  0  0  0
 18  4  1  0  0  0  0
 19  6  1  6  0  0  0
 19  5  1  0  0  0  0
 19  3  1  0  0  0  0
 20 18  1  0  0  0  0
 22 24  1  0  0  0  0
 23 21  1  0  0  0  0
 24 13  1  0  0  0  0
 25 14  1  1  0  0  0
 25  9  1  0  0  0  0
 26 21  2  0  0  0  0
 27  2  1  0  0  0  0
 27  1  1  0  0  0  0
 28 17  1  0  0  0  0
 29 28  1  0  0  0  0
 30 34  1  0  0  0  0
 31 32  1  0  0  0  0
 32 29  1  1  0  0  0
 33 31  1  0  0  0  0
 33 30  1  0  0  0  0
 34 32  1  0  0  0  0
M  END
>  <MODEL>
1

>  <REMARK>
 VINA RESULT:     -10.7      0.000      0.000
  Name = 
  3 active torsions:
  status: ('A' for Active; 'I' for Inactive)
    1  A    between atoms: N_17  and  C_28
    2  A    between atoms: C_28  and  C_29
    3  A    between atoms: C_29  and  C_32
                            x       y       z     vdW  Elec       q    Type
                         _______ _______ _______ _____ _____    ______ ____

>  <TORSDO>
F 3

$$$$
=
 OpenBabel11122412183D

 34 40  0  0  1  0  0  0  0  0999 V2000
  188.7670  177.5430  143.5200 C   0  0  0  0  0  0  0  0  0  0  0  0
  191.2720  177.0820  142.8380 C   0  0  0  0  0  2  0  0  0  0  0  0
  182.3770  178.3850  142.1420 C   0  0  2  0  0  3  0  0  0  0  0  0
  186.4060  178.0070  143.9700 C   0  0  0  0  0  0  0  0  0  0  0  0
  184.9320  178.5410  142.0980 C   0  0  0  0  0  0  0  0  0  0  0  0
  183.6330  178.7090  140.0960 O   0  0  0  0  0  1  0  0  0  0  0  0
  181.1950  178.2640  141.1930 C   0  0  0  0  0  1  0  0  0  0  0  0
  183.0850  179.6140  144.2630 C   0  0  0  0  0  2  0  0  0  0  0  0
  189.6580  177.6640  141.2610 C   0  0  0  0  0  0  0  0  0  0  0  0
  190.2650  177.6770  138.1480 C   0  0  0  0  0  2  0  0  0  0  0  0
  186.0060  178.4260  141.2640 N   0  0  0  0  0  0  0  0  0  0  0  0
  183.9910  178.4210  144.4990 C   0  0  0  0  0  2  0  0  0  0  0  0
  188.3430  177.9810  140.7530 N   0  0  0  0  0  0  0  0  0  0  0  0
  191.8980  176.9350  141.4530 C   0  0  0  0  0  2  0  0  0  0  0  0
  185.1210  178.3520  143.5000 C   0  0  0  0  0  0  0  0  0  0  0  0
  181.9360  179.2340  143.3340 C   0  0  0  0  0  2  0  0  0  0  0  0
  190.6740  176.7820  139.2390 N   0  0  0  0  0  0  0  0  0  0  0  0
  187.4780  177.8870  143.0620 C   0  0  0  0  0  0  0  0  0  0  0  0
  183.6220  178.9880  141.4680 C   0  0  1  0  0  3  0  0  0  0  0  0
  187.2540  178.1040  141.6940 C   0  0  0  0  0  0  0  0  0  0  0  0
  187.9280  177.4370  145.7880 C   0  0  0  0  0  3  0  0  0  0  0  0
  189.1170  178.6270  138.5060 C   0  0  0  0  0  2  0  0  0  0  0  0
  186.6500  177.7790  145.3360 C   0  0  0  0  0  3  0  0  0  0  0  0
  188.0410  177.9290  139.3200 C   0  0  0  0  0  2  0  0  0  0  0  0
  190.9110  177.5770  140.4570 C   0  0  1  0  0  3  0  0  0  0  0  0
  188.9840  177.3200  144.8830 C   0  0  0  0  0  3  0  0  0  0  0  0
  189.8650  177.4370  142.5430 C   0  0  0  0  0  0  0  0  0  0  0  0
  191.9100  176.1670  138.7670 C   0  0  0  0  0  2  0  0  0  0  0  0
  192.1200  176.5080  137.3020 C   0  0  0  0  0  2  0  0  0  0  0  0
  195.0800  175.4750  137.6440 O   0  0  0  0  0  0  0  0  0  0  0  0
  193.1040  174.2420  137.4780 C   0  0  0  0  0  2  0  0  0  0  0  0
  193.0320  175.4850  136.6470 C   0  0  2  0  0  3  0  0  0  0  0  0
  194.5630  174.1850  137.8230 C   0  0  0  0  0  2  0  0  0  0  0  0
  194.3900  176.0070  136.5950 N   0  0  0  0  0  2  0  0  0  0  0  0
  1 26  1  0  0  0  0
  3  7  1  6  0  0  0
  3 16  1  0  0  0  0
  4 23  2  0  0  0  0
  5 15  2  0  0  0  0
  8 12  1  0  0  0  0
  9 27  2  0  0  0  0
 10 22  1  0  0  0  0
 10 17  1  0  0  0  0
 11 20  2  0  0  0  0
 11  5  1  0  0  0  0
 13  9  1  0  0  0  0
 13 20  1  0  0  0  0
 14  2  1  0  0  0  0
 15  4  1  0  0  0  0
 15 12  1  0  0  0  0
 16  8  1  0  0  0  0
 17 25  1  0  0  0  0
 18  1  2  0  0  0  0
 18  4  1  0  0  0  0
 19  6  1  6  0  0  0
 19  5  1  0  0  0  0
 19  3  1  0  0  0  0
 20 18  1  0  0  0  0
 22 24  1  0  0  0  0
 23 21  1  0  0  0  0
 24 13  1  0  0  0  0
 25  9  1  0  0  0  0
 25 14  1  1  0  0  0
 26 21  2  0  0  0  0
 27  2  1  0  0  0  0
 27  1  1  0  0  0  0
 28 17  1  0  0  0  0
 29 28  1  0  0  0  0
 30 33  1  0  0  0  0
 31 33  1  0  0  0  0
 32 29  1  1  0  0  0
 32 31  1  0  0  0  0
 34 32  1  0  0  0  0
 34 30  1  0  0  0  0
M  END
>  <MODEL>
2

>  <REMARK>
 VINA RESULT:     -10.3      3.741      8.653
  Name = 
  3 active torsions:
  status: ('A' for Active; 'I' for Inactive)
    1  A    between atoms: N_17  and  C_28
    2  A    between atoms: C_28  and  C_29
    3  A    between atoms: C_29  and  C_32
                            x       y       z     vdW  Elec       q    Type
                         _______ _______ _______ _____ _____    ______ ____

>  <TORSDO>
F 3

$$$$
=
 OpenBabel11122412183D

 34 40  0  0  1  0  0  0  0  0999 V2000
  184.1050  178.5960  144.1760 C   0  0  0  0  0  0  0  0  0  0  0  0
  181.7250  179.0340  143.1270 C   0  0  0  0  0  2  0  0  0  0  0  0
  190.6600  178.0300  143.8030 C   0  0  2  0  0  3  0  0  0  0  0  0
  186.3790  178.1660  144.9730 C   0  0  0  0  0  0  0  0  0  0  0  0
  188.1530  177.8070  143.3340 C   0  0  0  0  0  0  0  0  0  0  0  0
  189.7620  177.8180  141.5630 O   0  0  0  0  0  1  0  0  0  0  0  0
  191.9740  178.2510  143.0690 C   0  0  0  0  0  1  0  0  0  0  0  0
  189.6700  176.6360  145.6960 C   0  0  0  0  0  2  0  0  0  0  0  0
  183.5920  178.6100  141.7990 C   0  0  0  0  0  0  0  0  0  0  0  0
  183.4930  178.8010  138.6350 C   0  0  0  0  0  2  0  0  0  0  0  0
  187.2240  177.9510  142.3460 N   0  0  0  0  0  0  0  0  0  0  0  0
  188.6930  177.7840  145.8590 C   0  0  0  0  0  2  0  0  0  0  0  0
  184.9830  178.3660  141.4920 N   0  0  0  0  0  0  0  0  0  0  0  0
  181.3240  179.2610  141.6720 C   0  0  0  0  0  2  0  0  0  0  0  0
  187.7360  177.8910  144.6960 C   0  0  0  0  0  0  0  0  0  0  0  0
  190.9370  177.1120  144.9930 C   0  0  0  0  0  2  0  0  0  0  0  0
  182.8800  179.6050  139.7010 N   0  0  0  0  0  0  0  0  0  0  0  0
  185.4630  178.3210  143.9120 C   0  0  0  0  0  0  0  0  0  0  0  0
  189.5640  177.4430  142.8980 C   0  0  1  0  0  3  0  0  0  0  0  0
  185.9120  178.2070  142.5870 C   0  0  0  0  0  0  0  0  0  0  0  0
  184.5650  178.5640  146.5520 C   0  0  0  0  0  3  0  0  0  0  0  0
  184.6050  177.8590  139.1120 C   0  0  0  0  0  2  0  0  0  0  0  0
  185.9110  178.2910  146.2930 C   0  0  0  0  0  3  0  0  0  0  0  0
  185.5090  178.5270  140.1340 C   0  0  0  0  0  2  0  0  0  0  0  0
  182.4820  178.7190  140.8090 C   0  0  1  0  0  3  0  0  0  0  0  0
  183.6630  178.7160  145.4970 C   0  0  0  0  0  3  0  0  0  0  0  0
  183.1740  178.7400  143.0420 C   0  0  0  0  0  0  0  0  0  0  0  0
  181.7130  180.2170  139.0750 C   0  0  0  0  0  2  0  0  0  0  0  0
  181.5510  179.6770  137.6650 C   0  0  0  0  0  2  0  0  0  0  0  0
  179.8770  177.1850  138.6310 O   0  0  0  0  0  0  0  0  0  0  0  0
  179.2920  179.4450  138.6550 C   0  0  0  0  0  2  0  0  0  0  0  0
  180.1490  179.1250  137.4700 C   0  0  2  0  0  3  0  0  0  0  0  0
  178.9310  178.0770  139.1530 C   0  0  0  0  0  2  0  0  0  0  0  0
  180.2030  177.6720  137.4000 N   0  0  0  0  0  2  0  0  0  0  0  0
  1 26  1  0  0  0  0
  3  7  1  6  0  0  0
  3 16  1  0  0  0  0
  4 23  2  0  0  0  0
  5 15  2  0  0  0  0
  8 12  1  0  0  0  0
  9 27  2  0  0  0  0
 10 22  1  0  0  0  0
 10 17  1  0  0  0  0
 11 20  2  0  0  0  0
 11  5  1  0  0  0  0
 13  9  1  0  0  0  0
 13 20  1  0  0  0  0
 14  2  1  0  0  0  0
 15  4  1  0  0  0  0
 15 12  1  0  0  0  0
 16  8  1  0  0  0  0
 17 25  1  0  0  0  0
 18  1  2  0  0  0  0
 18  4  1  0  0  0  0
 19  6  1  6  0  0  0
 19  5  1  0  0  0  0
 19  3  1  0  0  0  0
 20 18  1  0  0  0  0
 22 24  1  0  0  0  0
 23 21  1  0  0  0  0
 24 13  1  0  0  0  0
 25 14  1  1  0  0  0
 25  9  1  0  0  0  0
 26 21  2  0  0  0  0
 27  2  1  0  0  0  0
 27  1  1  0  0  0  0
 28 17  1  0  0  0  0
 29 28  1  0  0  0  0
 30 33  1  0  0  0  0
 31 33  1  0  0  0  0
 32 29  1  1  0  0  0
 32 31  1  0  0  0  0
 34 32  1  0  0  0  0
 34 30  1  0  0  0  0
M  END
>  <MODEL>
3

>  <REMARK>
 VINA RESULT:     -10.0      1.901      2.226
  Name = 
  3 active torsions:
  status: ('A' for Active; 'I' for Inactive)
    1  A    between atoms: N_17  and  C_28
    2  A    between atoms: C_28  and  C_29
    3  A    between atoms: C_29  and  C_32
                            x       y       z     vdW  Elec       q    Type
                         _______ _______ _______ _____ _____    ______ ____

>  <TORSDO>
F 3

$$$$
=
 OpenBabel11122412183D

 34 40  0  0  1  0  0  0  0  0999 V2000
  189.8450  176.9160  141.5450 C   0  0  0  0  0  0  0  0  0  0  0  0
  191.5740  176.4480  139.6110 C   0  0  0  0  0  2  0  0  0  0  0  0
  183.8470  178.4630  143.7980 C   0  0  2  0  0  3  0  0  0  0  0  0
  188.1260  177.4280  143.2100 C   0  0  0  0  0  0  0  0  0  0  0  0
  186.0360  178.4530  142.4700 C   0  0  0  0  0  0  0  0  0  0  0  0
  183.9720  179.1380  141.4750 O   0  0  0  0  0  1  0  0  0  0  0  0
  182.3510  178.6300  143.5870 C   0  0  0  0  0  1  0  0  0  0  0  0
  185.7000  179.1510  145.4120 C   0  0  0  0  0  2  0  0  0  0  0  0
  189.5190  177.4650  139.1990 C   0  0  0  0  0  0  0  0  0  0  0  0
  188.5120  178.1130  136.2620 C   0  0  0  0  0  2  0  0  0  0  0  0
  186.5260  178.4510  141.1970 N   0  0  0  0  0  0  0  0  0  0  0  0
  186.3900  177.8770  144.9630 C   0  0  0  0  0  2  0  0  0  0  0  0
  188.1980  177.9720  139.4950 N   0  0  0  0  0  0  0  0  0  0  0  0
  191.4060  176.5640  138.0970 C   0  0  0  0  0  2  0  0  0  0  0  0
  186.8540  177.9520  143.5280 C   0  0  0  0  0  0  0  0  0  0  0  0
  184.1980  179.0600  145.1610 C   0  0  0  0  0  2  0  0  0  0  0  0
  189.2460  176.9770  136.8350 N   0  0  0  0  0  0  0  0  0  0  0  0
  188.5760  177.4370  141.8740 C   0  0  0  0  0  0  0  0  0  0  0  0
  184.6820  179.1130  142.6820 C   0  0  1  0  0  3  0  0  0  0  0  0
  187.7490  177.9600  140.8690 C   0  0  0  0  0  0  0  0  0  0  0  0
  190.2230  176.3760  143.8750 C   0  0  0  0  0  3  0  0  0  0  0  0
  187.8650  179.0380  137.3000 C   0  0  0  0  0  2  0  0  0  0  0  0
  188.9660  176.8920  144.2020 C   0  0  0  0  0  3  0  0  0  0  0  0
  187.2280  178.2530  138.4340 C   0  0  0  0  0  2  0  0  0  0  0  0
  190.1810  177.4710  137.8630 C   0  0  1  0  0  3  0  0  0  0  0  0
  190.6620  176.3880  142.5490 C   0  0  0  0  0  3  0  0  0  0  0  0
  190.2860  176.9520  140.1390 C   0  0  0  0  0  0  0  0  0  0  0  0
  189.9680  176.3980  135.7070 C   0  0  0  0  0  2  0  0  0  0  0  0
  189.2980  175.1020  135.2860 C   0  0  0  0  0  2  0  0  0  0  0  0
  187.0530  172.9270  135.7060 O   0  0  0  0  0  0  0  0  0  0  0  0
  189.0730  173.1920  136.8460 C   0  0  0  0  0  2  0  0  0  0  0  0
  188.5060  174.5170  136.4440 C   0  0  2  0  0  3  0  0  0  0  0  0
  187.9150  172.2720  136.5950 C   0  0  0  0  0  2  0  0  0  0  0  0
  187.1410  174.2520  136.0150 N   0  0  0  0  0  2  0  0  0  0  0  0
  1 18  2  0  0  0  0
  1 26  1  0  0  0  0
  2 27  1  0  0  0  0
  3  7  1  6  0  0  0
  3 16  1  0  0  0  0
  4 15  1  0  0  0  0
  4 23  2  0  0  0  0
  5 19  1  0  0  0  0
  5 15  2  0  0  0  0
  9 13  1  0  0  0  0
  9 27  2  0  0  0  0
 10 17  1  0  0  0  0
 10 22  1  0  0  0  0
 11  5  1  0  0  0  0
 12  8  1  0  0  0  0
 13 20  1  0  0  0  0
 14  2  1  0  0  0  0
 15 12  1  0  0  0  0
 16  8  1  0  0  0  0
 17 25  1  0  0  0  0
 18  4  1  0  0  0  0
 19  6  1  6  0  0  0
 19  3  1  0  0  0  0
 20 11  2  0  0  0  0
 20 18  1  0  0  0  0
 21 23  1  0  0  0  0
 22 24  1  0  0  0  0
 24 13  1  0  0  0  0
 25 14  1  1  0  0  0
 25  9  1  0  0  0  0
 26 21  2  0  0  0  0
 27  1  1  0  0  0  0
 28 17  1  0  0  0  0
 29 28  1  0  0  0  0
 30 34  1  0  0  0  0
 30 33  1  0  0  0  0
 32 29  1  6  0  0  0
 32 31  1  0  0  0  0
 33 31  1  0  0  0  0
 34 32  1  0  0  0  0
M  END
>  <MODEL>
4

>  <REMARK>
 VINA RESULT:      -9.7      4.027      7.603
  Name = 
  3 active torsions:
  status: ('A' for Active; 'I' for Inactive)
    1  A    between atoms: N_17  and  C_28
    2  A    between atoms: C_28  and  C_29
    3  A    between atoms: C_29  and  C_32
                            x       y       z     vdW  Elec       q    Type
                         _______ _______ _______ _____ _____    ______ ____

>  <TORSDO>
F 3

$$$$
=
 OpenBabel11122412183D

 34 40  0  0  1  0  0  0  0  0999 V2000
  185.2940  178.6040  142.1250 C   0  0  0  0  0  0  0  0  0  0  0  0
  184.9580  178.7430  139.5130 C   0  0  0  0  0  2  0  0  0  0  0  0
  189.0250  178.1540  147.5390 C   0  0  2  0  0  3  0  0  0  0  0  0
  185.7830  178.4160  144.5160 C   0  0  0  0  0  0  0  0  0  0  0  0
  188.0320  177.7670  145.2110 C   0  0  0  0  0  0  0  0  0  0  0  0
  190.3620  177.4460  145.6480 O   0  0  0  0  0  1  0  0  0  0  0  0
  190.3730  178.2500  148.2360 C   0  0  0  0  0  1  0  0  0  0  0  0
  186.6970  177.1670  147.8780 C   0  0  0  0  0  2  0  0  0  0  0  0
  186.9890  178.0980  140.4570 C   0  0  0  0  0  0  0  0  0  0  0  0
  189.5870  177.6100  138.7040 C   0  0  0  0  0  2  0  0  0  0  0  0
  188.3750  177.6720  143.8950 N   0  0  0  0  0  0  0  0  0  0  0  0
  186.2260  178.2950  146.9810 C   0  0  0  0  0  2  0  0  0  0  0  0
  187.9490  177.8340  141.5040 N   0  0  0  0  0  0  0  0  0  0  0  0
  185.9850  178.6440  138.3880 C   0  0  0  0  0  2  0  0  0  0  0  0
  186.6940  178.1270  145.5550 C   0  0  0  0  0  0  0  0  0  0  0  0
  188.0370  177.5180  148.5160 C   0  0  0  0  0  2  0  0  0  0  0  0
  188.5080  178.6050  138.6310 N   0  0  0  0  0  0  0  0  0  0  0  0
  186.1950  178.3170  143.1710 C   0  0  0  0  0  0  0  0  0  0  0  0
  189.0890  177.3580  146.2250 C   0  0  1  0  0  3  0  0  0  0  0  0
  187.5140  177.9370  142.8780 C   0  0  0  0  0  0  0  0  0  0  0  0
  183.5680  179.0900  143.7510 C   0  0  0  0  0  3  0  0  0  0  0  0
  189.6340  176.8230  140.0190 C   0  0  0  0  0  2  0  0  0  0  0  0
  184.4600  178.8060  144.7890 C   0  0  0  0  0  3  0  0  0  0  0  0
  189.3820  177.7180  141.2210 C   0  0  0  0  0  2  0  0  0  0  0  0
  187.2310  177.9640  138.9910 C   0  0  1  0  0  3  0  0  0  0  0  0
  183.9830  178.9890  142.4220 C   0  0  0  0  0  3  0  0  0  0  0  0
  185.7570  178.4770  140.7320 C   0  0  0  0  0  0  0  0  0  0  0  0
  188.5020  179.0370  137.2370 C   0  0  0  0  0  2  0  0  0  0  0  0
  189.4660  178.1820  136.4350 C   0  0  0  0  0  2  0  0  0  0  0  0
  187.5240  175.7570  135.8950 O   0  0  0  0  0  0  0  0  0  0  0  0
  187.3190  177.9810  135.2160 C   0  0  0  0  0  2  0  0  0  0  0  0
  188.7550  177.5590  135.2450 C   0  0  2  0  0  3  0  0  0  0  0  0
  186.6090  176.6670  135.3510 C   0  0  0  0  0  2  0  0  0  0  0  0
  188.7410  176.1120  135.3910 N   0  0  0  0  0  2  0  0  0  0  0  0
  1 26  2  0  0  0  0
  1 18  1  0  0  0  0
  2 27  1  0  0  0  0
  3  7  1  1  0  0  0
  3 16  1  0  0  0  0
  4 23  1  0  0  0  0
  4 15  1  0  0  0  0
  5 15  2  0  0  0  0
  5 19  1  0  0  0  0
  8 16  1  0  0  0  0
  9 27  2  0  0  0  0
  9 13  1  0  0  0  0
 10 22  1  0  0  0  0
 11  5  1  0  0  0  0
 12  8  1  0  0  0  0
 13 20  1  0  0  0  0
 14  2  1  0  0  0  0
 15 12  1  0  0  0  0
 17 10  1  0  0  0  0
 17 25  1  0  0  0  0
 18  4  2  0  0  0  0
 19  6  1  6  0  0  0
 19  3  1  0  0  0  0
 20 18  1  0  0  0  0
 20 11  2  0  0  0  0
 21 23  2  0  0  0  0
 22 24  1  0  0  0  0
 24 13  1  0  0  0  0
 25 14  1  6  0  0  0
 25  9  1  0  0  0  0
 26 21  1  0  0  0  0
 27  1  1  0  0  0  0
 28 17  1  0  0  0  0
 29 28  1  0  0  0  0
 31 32  1  0  0  0  0
 31 33  1  0  0  0  0
 32 34  1  0  0  0  0
 32 29  1  1  0  0  0
 33 30  1  0  0  0  0
 34 30  1  0  0  0  0
M  END
>  <MODEL>
5

>  <REMARK>
 VINA RESULT:      -9.5      3.810      5.470
  Name = 
  3 active torsions:
  status: ('A' for Active; 'I' for Inactive)
    1  A    between atoms: N_17  and  C_28
    2  A    between atoms: C_28  and  C_29
    3  A    between atoms: C_29  and  C_32
                            x       y       z     vdW  Elec       q    Type
                         _______ _______ _______ _____ _____    ______ ____

>  <TORSDO>
F 3

$$$$
=
 OpenBabel11122412183D

 34 40  0  0  1  0  0  0  0  0999 V2000
  187.0160  178.3130  140.1940 C   0  0  0  0  0  0  0  0  0  0  0  0
  184.7940  178.7380  138.8390 C   0  0  0  0  0  2  0  0  0  0  0  0
  190.3350  176.8360  145.6930 C   0  0  2  0  0  3  0  0  0  0  0  0
  188.9760  177.9360  141.6110 C   0  0  0  0  0  0  0  0  0  0  0  0
  188.6830  177.8730  144.0350 C   0  0  0  0  0  0  0  0  0  0  0  0
  188.1020  177.5240  146.3290 O   0  0  0  0  0  1  0  0  0  0  0  0
  190.3820  176.2850  147.1090 C   0  0  0  0  0  1  0  0  0  0  0  0
  191.6950  178.2890  144.0970 C   0  0  0  0  0  2  0  0  0  0  0  0
  184.8180  178.6790  141.1680 C   0  0  0  0  0  0  0  0  0  0  0  0
  182.1580  178.8210  142.8890 C   0  0  0  0  0  2  0  0  0  0  0  0
  187.3540  178.1180  143.8460 N   0  0  0  0  0  0  0  0  0  0  0  0
  191.0170  177.4940  142.9970 C   0  0  0  0  0  2  0  0  0  0  0  0
  185.3690  178.5030  142.4920 N   0  0  0  0  0  0  0  0  0  0  0  0
  183.3460  178.7830  139.3210 C   0  0  0  0  0  2  0  0  0  0  0  0
  189.5420  177.7980  142.8970 C   0  0  0  0  0  0  0  0  0  0  0  0
  191.6780  177.5080  145.4060 C   0  0  0  0  0  2  0  0  0  0  0  0
  182.4910  178.1540  141.6230 N   0  0  0  0  0  0  0  0  0  0  0  0
  187.5930  178.1730  141.4740 C   0  0  0  0  0  0  0  0  0  0  0  0
  189.1720  177.8170  145.4740 C   0  0  1  0  0  3  0  0  0  0  0  0
  186.7880  178.2630  142.6200 C   0  0  0  0  0  0  0  0  0  0  0  0
  189.1900  177.9800  139.1830 C   0  0  0  0  0  3  0  0  0  0  0  0
  183.3730  179.3200  143.6800 C   0  0  0  0  0  2  0  0  0  0  0  0
  189.7630  177.8420  140.4500 C   0  0  0  0  0  3  0  0  0  0  0  0
  184.5090  178.3120  143.6620 C   0  0  0  0  0  2  0  0  0  0  0  0
  183.4010  179.0130  140.8450 C   0  0  1  0  0  3  0  0  0  0  0  0
  187.8190  178.2160  139.0540 C   0  0  0  0  0  3  0  0  0  0  0  0
  185.5690  178.5720  140.0900 C   0  0  0  0  0  0  0  0  0  0  0  0
  181.2100  177.9970  140.9420 C   0  0  0  0  0  2  0  0  0  0  0  0
  180.0790  178.1680  141.9410 C   0  0  0  0  0  2  0  0  0  0  0  0
  179.6740  181.2890  141.7300 O   0  0  0  0  0  0  0  0  0  0  0  0
  179.4630  179.6640  140.0660 C   0  0  0  0  0  2  0  0  0  0  0  0
  179.0350  179.1280  141.3970 C   0  0  2  0  0  3  0  0  0  0  0  0
  179.5570  181.1350  140.3420 C   0  0  0  0  0  2  0  0  0  0  0  0
  178.9310  180.2830  142.2760 N   0  0  0  0  0  2  0  0  0  0  0  0
  1 18  1  0  0  0  0
  2 14  1  0  0  0  0
  2 27  1  0  0  0  0
  3  7  1  1  0  0  0
  4 15  1  0  0  0  0
  5 19  1  0  0  0  0
  8 16  1  0  0  0  0
  9 13  1  0  0  0  0
 10 22  1  0  0  0  0
 11  5  1  0  0  0  0
 12  8  1  0  0  0  0
 13 20  1  0  0  0  0
 13 24  1  0  0  0  0
 15 12  1  0  0  0  0
 15  5  2  0  0  0  0
 16  3  1  0  0  0  0
 17 10  1  0  0  0  0
 18  4  2  0  0  0  0
 18 20  1  0  0  0  0
 19  3  1  0  0  0  0
 19  6  1  1  0  0  0
 20 11  2  0  0  0  0
 21 23  2  0  0  0  0
 23  4  1  0  0  0  0
 24 22  1  0  0  0  0
 25 14  1  6  0  0  0
 25  9  1  0  0  0  0
 25 17  1  0  0  0  0
 26 21  1  0  0  0  0
 26  1  2  0  0  0  0
 27  1  1  0  0  0  0
 27  9  2  0  0  0  0
 28 17  1  0  0  0  0
 28 29  1  0  0  0  0
 30 34  1  0  0  0  0
 31 33  1  0  0  0  0
 31 32  1  0  0  0  0
 32 29  1  1  0  0  0
 32 34  1  0  0  0  0
 33 30  1  0  0  0  0
M  END
>  <MODEL>
6

>  <REMARK>
 VINA RESULT:      -9.4      2.588      4.409
  Name = 
  3 active torsions:
  status: ('A' for Active; 'I' for Inactive)
    1  A    between atoms: N_17  and  C_28
    2  A    between atoms: C_28  and  C_29
    3  A    between atoms: C_29  and  C_32
                            x       y       z     vdW  Elec       q    Type
                         _______ _______ _______ _____ _____    ______ ____

>  <TORSDO>
F 3

$$$$
=
 OpenBabel11122412183D

 34 40  0  0  1  0  0  0  0  0999 V2000
  183.8340  178.6280  143.8120 C   0  0  0  0  0  0  0  0  0  0  0  0
  185.4390  178.4700  145.8980 C   0  0  0  0  0  2  0  0  0  0  0  0
  182.4850  177.9840  137.3930 C   0  0  2  0  0  3  0  0  0  0  0  0
  182.4980  178.7610  141.7660 C   0  0  0  0  0  0  0  0  0  0  0  0
  183.6270  178.5740  139.6080 C   0  0  0  0  0  0  0  0  0  0  0  0
  184.8930  178.0380  137.6510 O   0  0  0  0  0  1  0  0  0  0  0  0
  182.8170  177.4390  136.0130 C   0  0  0  0  0  1  0  0  0  0  0  0
  181.0580  179.7790  138.5120 C   0  0  0  0  0  2  0  0  0  0  0  0
  186.2500  178.3740  143.7160 C   0  0  0  0  0  0  0  0  0  0  0  0
  189.2950  177.7660  143.0710 C   0  0  0  0  0  2  0  0  0  0  0  0
  184.8100  178.4590  140.2750 N   0  0  0  0  0  0  0  0  0  0  0  0
  181.0610  178.8530  139.7130 C   0  0  0  0  0  2  0  0  0  0  0  0
  186.1940  178.3270  142.2730 N   0  0  0  0  0  0  0  0  0  0  0  0
  186.9230  178.1170  145.9680 C   0  0  0  0  0  2  0  0  0  0  0  0
  182.4240  178.7540  140.3560 C   0  0  0  0  0  0  0  0  0  0  0  0
  181.3500  178.9960  137.2360 C   0  0  0  0  0  2  0  0  0  0  0  0
  188.3660  177.2370  144.0780 N   0  0  0  0  0  0  0  0  0  0  0  0
  183.7470  178.6230  142.4040 C   0  0  0  0  0  0  0  0  0  0  0  0
  183.6980  178.6230  138.0890 C   0  0  1  0  0  3  0  0  0  0  0  0
  184.9080  178.4720  141.6300 C   0  0  0  0  0  0  0  0  0  0  0  0
  181.4340  178.9090  143.9540 C   0  0  0  0  0  3  0  0  0  0  0  0
  188.6230  178.5560  141.9420 C   0  0  0  0  0  2  0  0  0  0  0  0
  181.3460  178.9040  142.5590 C   0  0  0  0  0  3  0  0  0  0  0  0
  187.3410  177.8890  141.4740 C   0  0  0  0  0  2  0  0  0  0  0  0
  187.4880  178.3240  144.5470 C   0  0  1  0  0  3  0  0  0  0  0  0
  182.6750  178.7720  144.5800 C   0  0  0  0  0  3  0  0  0  0  0  0
  185.1580  178.4930  144.4440 C   0  0  0  0  0  0  0  0  0  0  0  0
  189.2250  176.7570  145.1550 C   0  0  0  0  0  2  0  0  0  0  0  0
  190.5820  176.3770  144.5910 C   0  0  0  0  0  2  0  0  0  0  0  0
  190.9020  176.6160  147.7200 O   0  0  0  0  0  0  0  0  0  0  0  0
  192.2470  175.4760  146.1890 C   0  0  0  0  0  2  0  0  0  0  0  0
  191.6810  176.7220  145.5830 C   0  0  2  0  0  3  0  0  0  0  0  0
  191.9330  175.6710  147.6430 C   0  0  0  0  0  2  0  0  0  0  0  0
  191.1180  177.4820  146.6890 N   0  0  0  0  0  2  0  0  0  0  0  0
  1 27  1  0  0  0  0
  1 26  1  0  0  0  0
  2 14  1  0  0  0  0
  3  7  1  6  0  0  0
  3 19  1  0  0  0  0
  4 18  1  0  0  0  0
  4 23  2  0  0  0  0
  5 11  1  0  0  0  0
  5 15  2  0  0  0  0
  8 12  1  0  0  0  0
  9 27  2  0  0  0  0
  9 25  1  0  0  0  0
 10 17  1  0  0  0  0
 11 20  2  0  0  0  0
 12 15  1  0  0  0  0
 13  9  1  0  0  0  0
 15  4  1  0  0  0  0
 16  3  1  0  0  0  0
 16  8  1  0  0  0  0
 17 25  1  0  0  0  0
 17 28  1  0  0  0  0
 18  1  2  0  0  0  0
 19  6  1  6  0  0  0
 19  5  1  0  0  0  0
 20 13  1  0  0  0  0
 20 18  1  0  0  0  0
 21 26  2  0  0  0  0
 22 10  1  0  0  0  0
 23 21  1  0  0  0  0
 24 22  1  0  0  0  0
 24 13  1  0  0  0  0
 25 14  1  1  0  0  0
 27  2  1  0  0  0  0
 29 28  1  0  0  0  0
 31 33  1  0  0  0  0
 32 29  1  6  0  0  0
 32 31  1  0  0  0  0
 32 34  1  0  0  0  0
 33 30  1  0  0  0  0
 34 30  1  0  0  0  0
M  END
>  <MODEL>
7

>  <REMARK>
 VINA RESULT:      -9.4      2.507      8.957
  Name = 
  3 active torsions:
  status: ('A' for Active; 'I' for Inactive)
    1  A    between atoms: N_17  and  C_28
    2  A    between atoms: C_28  and  C_29
    3  A    between atoms: C_29  and  C_32
                            x       y       z     vdW  Elec       q    Type
                         _______ _______ _______ _____ _____    ______ ____

>  <TORSDO>
F 3

$$$$
=
 OpenBabel11122412183D

 34 40  0  0  1  0  0  0  0  0999 V2000
  184.3840  178.4570  143.5530 C   0  0  0  0  0  0  0  0  0  0  0  0
  186.6540  177.9780  144.8050 C   0  0  0  0  0  2  0  0  0  0  0  0
  180.6180  178.7550  138.1530 C   0  0  2  0  0  3  0  0  0  0  0  0
  182.3740  178.9020  142.2290 C   0  0  0  0  0  0  0  0  0  0  0  0
  182.5650  179.0040  139.7960 C   0  0  0  0  0  0  0  0  0  0  0  0
  182.9350  178.7300  137.4490 O   0  0  0  0  0  1  0  0  0  0  0  0
  180.3520  178.4050  136.6970 C   0  0  0  0  0  1  0  0  0  0  0  0
  179.8650  180.3960  139.9550 C   0  0  0  0  0  2  0  0  0  0  0  0
  186.5510  178.1780  142.4860 C   0  0  0  0  0  0  0  0  0  0  0  0
  189.0590  177.6170  140.6280 C   0  0  0  0  0  2  0  0  0  0  0  0
  183.9030  178.7760  139.9260 N   0  0  0  0  0  0  0  0  0  0  0  0
  180.2670  179.3100  140.9340 C   0  0  0  0  0  2  0  0  0  0  0  0
  185.9380  178.3370  141.1870 N   0  0  0  0  0  0  0  0  0  0  0  0
  188.0210  177.5930  144.2420 C   0  0  0  0  0  2  0  0  0  0  0  0
  181.7610  179.0970  140.9720 C   0  0  0  0  0  0  0  0  0  0  0  0
  179.5860  179.7980  138.5800 C   0  0  0  0  0  2  0  0  0  0  0  0
  188.5550  176.9660  141.8450 N   0  0  0  0  0  0  0  0  0  0  0  0
  183.7600  178.6540  142.3040 C   0  0  0  0  0  0  0  0  0  0  0  0
  182.0480  179.2670  138.3900 C   0  0  1  0  0  3  0  0  0  0  0  0
  184.5170  178.5940  141.1240 C   0  0  0  0  0  0  0  0  0  0  0  0
  182.2520  178.7560  144.6600 C   0  0  0  0  0  3  0  0  0  0  0  0
  188.0610  178.5710  139.9600 C   0  0  0  0  0  2  0  0  0  0  0  0
  181.6320  178.9510  143.4220 C   0  0  0  0  0  3  0  0  0  0  0  0
  186.6530  177.9990  139.9540 C   0  0  0  0  0  2  0  0  0  0  0  0
  188.0060  177.9900  142.7520 C   0  0  1  0  0  3  0  0  0  0  0  0
  183.6250  178.5100  144.7260 C   0  0  0  0  0  3  0  0  0  0  0  0
  185.8370  178.2110  143.5930 C   0  0  0  0  0  0  0  0  0  0  0  0
  189.7270  176.3230  142.4300 C   0  0  0  0  0  2  0  0  0  0  0  0
  190.9750  177.1020  142.0540 C   0  0  0  0  0  2  0  0  0  0  0  0
  191.1270  178.0650  145.0530 O   0  0  0  0  0  0  0  0  0  0  0  0
  191.6440  175.9730  144.1540 C   0  0  0  0  0  2  0  0  0  0  0  0
  191.9810  177.0690  143.1920 C   0  0  2  0  0  3  0  0  0  0  0  0
  191.3950  176.7400  145.4190 C   0  0  0  0  0  2  0  0  0  0  0  0
  191.8960  178.3060  143.9530 N   0  0  0  0  0  2  0  0  0  0  0  0
  1 27  1  0  0  0  0
  1 26  1  0  0  0  0
  3  7  1  6  0  0  0
  3 19  1  0  0  0  0
  3 16  1  0  0  0  0
  4 18  1  0  0  0  0
  4 23  2  0  0  0  0
  5 11  1  0  0  0  0
  5 15  2  0  0  0  0
  8 12  1  0  0  0  0
  9 25  1  0  0  0  0
  9 27  2  0  0  0  0
 10 17  1  0  0  0  0
 11 20  2  0  0  0  0
 12 15  1  0  0  0  0
 13  9  1  0  0  0  0
 14  2  1  0  0  0  0
 15  4  1  0  0  0  0
 16  8  1  0  0  0  0
 17 28  1  0  0  0  0
 17 25  1  0  0  0  0
 18  1  2  0  0  0  0
 19  6  1  6  0  0  0
 19  5  1  0  0  0  0
 20 13  1  0  0  0  0
 20 18  1  0  0  0  0
 21 26  2  0  0  0  0
 22 10  1  0  0  0  0
 23 21  1  0  0  0  0
 24 22  1  0  0  0  0
 24 13  1  0  0  0  0
 25 14  1  1  0  0  0
 27  2  1  0  0  0  0
 29 28  1  0  0  0  0
 30 33  1  0  0  0  0
 31 33  1  0  0  0  0
 32 29  1  6  0  0  0
 32 34  1  0  0  0  0
 32 31  1  0  0  0  0
 34 30  1  0  0  0  0
M  END
>  <MODEL>
8

>  <REMARK>
 VINA RESULT:      -9.1      2.300      8.599
  Name = 
  3 active torsions:
  status: ('A' for Active; 'I' for Inactive)
    1  A    between atoms: N_17  and  C_28
    2  A    between atoms: C_28  and  C_29
    3  A    between atoms: C_29  and  C_32
                            x       y       z     vdW  Elec       q    Type
                         _______ _______ _______ _____ _____    ______ ____

>  <TORSDO>
F 3

$$$$
=
 OpenBabel11122412183D

 34 40  0  0  1  0  0  0  0  0999 V2000
  188.8570  177.3480  138.3640 C   0  0  0  0  0  0  0  0  0  0  0  0
  187.2130  178.2480  140.2180 C   0  0  0  0  0  2  0  0  0  0  0  0
  194.4500  174.4780  136.3820 C   0  0  2  0  0  3  0  0  0  0  0  0
  190.5190  176.5070  136.7760 C   0  0  0  0  0  0  0  0  0  0  0  0
  192.7630  175.9810  137.5850 C   0  0  0  0  0  0  0  0  0  0  0  0
  194.7620  175.2320  138.6630 O   0  0  0  0  0  1  0  0  0  0  0  0
  195.6920  173.6490  136.6680 C   0  0  0  0  0  1  0  0  0  0  0  0
  193.5130  176.0890  134.6400 C   0  0  0  0  0  2  0  0  0  0  0  0
  189.4300  177.7150  140.6980 C   0  0  0  0  0  0  0  0  0  0  0  0
  190.5750  177.7570  143.6550 C   0  0  0  0  0  2  0  0  0  0  0  0
  192.3710  176.3850  138.8280 N   0  0  0  0  0  0  0  0  0  0  0  0
  192.1540  175.6010  135.1040 C   0  0  0  0  0  2  0  0  0  0  0  0
  190.7660  177.2240  140.4540 N   0  0  0  0  0  0  0  0  0  0  0  0
  187.3950  178.3310  141.7320 C   0  0  0  0  0  2  0  0  0  0  0  0
  191.8300  176.0580  136.5070 C   0  0  0  0  0  0  0  0  0  0  0  0
  194.5900  175.0640  134.9780 C   0  0  0  0  0  2  0  0  0  0  0  0
  189.2870  177.3320  143.0920 N   0  0  0  0  0  0  0  0  0  0  0  0
  190.1640  176.8980  138.0830 C   0  0  0  0  0  0  0  0  0  0  0  0
  194.2230  175.5890  137.4210 C   0  0  1  0  0  3  0  0  0  0  0  0
  191.1190  176.8290  139.1090 C   0  0  0  0  0  0  0  0  0  0  0  0
  188.2520  177.0230  136.0430 C   0  0  0  0  0  3  0  0  0  0  0  0
  191.6820  177.9680  142.6160 C   0  0  0  0  0  2  0  0  0  0  0  0
  189.5470  176.5770  135.7630 C   0  0  0  0  0  3  0  0  0  0  0  0
  191.6710  176.8810  141.5540 C   0  0  0  0  0  2  0  0  0  0  0  0
  188.9120  178.2420  141.9940 C   0  0  1  0  0  3  0  0  0  0  0  0
  187.9070  177.4080  137.3400 C   0  0  0  0  0  3  0  0  0  0  0  0
  188.5260  177.7590  139.7400 C   0  0  0  0  0  0  0  0  0  0  0  0
  188.3470  177.4390  144.2030 C   0  0  0  0  0  2  0  0  0  0  0  0
  189.0760  177.9290  145.4410 C   0  0  0  0  0  2  0  0  0  0  0  0
  189.3640  178.1560  148.5740 O   0  0  0  0  0  0  0  0  0  0  0  0
  187.4340  177.8610  147.2930 C   0  0  0  0  0  2  0  0  0  0  0  0
  188.6030  177.1680  146.6680 C   0  0  2  0  0  3  0  0  0  0  0  0
  187.9660  178.1960  148.6550 C   0  0  0  0  0  2  0  0  0  0  0  0
  189.6520  177.1700  147.6770 N   0  0  0  0  0  2  0  0  0  0  0  0
  1 27  1  0  0  0  0
  2 14  1  0  0  0  0
  3  7  1  1  0  0  0
  3 19  1  0  0  0  0
  4 18  1  0  0  0  0
  5 11  2  0  0  0  0
  8 16  1  0  0  0  0
  8 12  1  0  0  0  0
  9 25  1  0  0  0  0
 11 20  1  0  0  0  0
 12 15  1  0  0  0  0
 13  9  1  0  0  0  0
 13 24  1  0  0  0  0
 15  4  2  0  0  0  0
 15  5  1  0  0  0  0
 16  3  1  0  0  0  0
 17 10  1  0  0  0  0
 17 28  1  0  0  0  0
 18  1  1  0  0  0  0
 18 20  2  0  0  0  0
 19  5  1  0  0  0  0
 19  6  1  1  0  0  0
 20 13  1  0  0  0  0
 21 26  1  0  0  0  0
 22 10  1  0  0  0  0
 23 21  2  0  0  0  0
 23  4  1  0  0  0  0
 24 22  1  0  0  0  0
 25 14  1  6  0  0  0
 25 17  1  0  0  0  0
 26  1  2  0  0  0  0
 27  2  1  0  0  0  0
 27  9  2  0  0  0  0
 28 29  1  0  0  0  0
 30 33  1  0  0  0  0
 31 33  1  0  0  0  0
 32 29  1  6  0  0  0
 32 31  1  0  0  0  0
 32 34  1  0  0  0  0
 34 30  1  0  0  0  0
M  END
>  <MODEL>
9

>  <REMARK>
 VINA RESULT:      -9.0      5.720      9.703
  Name = 
  3 active torsions:
  status: ('A' for Active; 'I' for Inactive)
    1  A    between atoms: N_17  and  C_28
    2  A    between atoms: C_28  and  C_29
    3  A    between atoms: C_29  and  C_32
                            x       y       z     vdW  Elec       q    Type
                         _______ _______ _______ _____ _____    ______ ____

>  <TORSDO>
F 3

$$$$
