=
 OpenBabel11122411123D

 31 35  0  0  1  0  0  0  0  0999 V2000
  181.6780  178.6860  143.5680 C   0  0  0  0  0  0  0  0  0  0  0  0
  181.8960  177.9930  139.8370 C   0  0  2  0  0  3  0  0  0  0  0  0
  181.4370  179.1530  138.9760 C   0  0  0  0  0  0  0  0  0  0  0  0
  180.2340  181.2490  138.7100 C   0  0  0  0  0  0  0  0  0  0  0  0
  182.2590  178.4050  141.2350 C   0  0  0  0  0  0  0  0  0  0  0  0
  182.9540  179.1980  143.8250 C   0  0  0  0  0  3  0  0  0  0  0  0
  180.6790  180.2020  139.5210 C   0  0  0  0  0  3  0  0  0  0  0  0
  184.4840  177.8660  139.4110 C   0  0  1  0  0  3  0  0  0  0  0  0
  180.7770  178.5760  144.5750 F   0  0  0  0  0  0  0  0  0  0  0  0
  182.4240  178.0960  137.0110 O   0  0  0  0  0  0  0  0  0  0  0  0
  179.4450  182.3610  139.3010 C   0  0  0  0  0  1  0  0  0  0  0  0
  184.5090  179.0690  140.3690 C   0  0  0  0  0  2  0  0  0  0  0  0
  183.0730  177.2320  139.1880 C   0  0  2  0  0  3  0  0  0  0  0  0
  181.3290  178.2920  142.2730 C   0  0  0  0  0  3  0  0  0  0  0  0
  180.5300  181.2510  137.3460 C   0  0  0  0  0  3  0  0  0  0  0  0
  183.5420  178.9080  141.4960 C   0  0  0  0  0  0  0  0  0  0  0  0
  183.8850  179.3140  142.7890 C   0  0  0  0  0  3  0  0  0  0  0  0
  182.7370  176.9030  137.7310 C   0  0  0  0  0  2  0  0  0  0  0  0
  181.7020  179.1440  137.5910 C   0  0  0  0  0  0  0  0  0  0  0  0
  181.2620  180.2000  136.7860 C   0  0  0  0  0  3  0  0  0  0  0  0
  187.2670  177.5430  138.7970 O   0  0  0  0  0  0  0  0  0  0  0  0
  186.5310  178.0700  137.9200 C   0  0  0  0  0  0  0  0  0  0  0  0
  185.1300  178.2310  138.1560 N   0  0  0  0  0  2  0  0  0  0  0  0
  189.1960  176.6750  135.6090 C   0  0  1  0  0  3  0  0  0  0  0  0
  186.8530  177.5600  135.4820 C   0  0  0  0  0  2  0  0  0  0  0  0
  188.9150  179.6650  137.8260 O   0  0  0  0  0  1  0  0  0  0  0  0
  190.0340  175.4180  135.7000 C   0  0  0  0  0  1  0  0  0  0  0  0
  187.7170  176.3020  135.5770 C   0  0  0  0  0  2  0  0  0  0  0  0
  188.6470  178.8410  136.7310 C   0  0  2  0  0  3  0  0  0  0  0  0
  187.1430  178.5330  136.6300 C   0  0  2  0  0  3  0  0  0  0  0  0
  189.4870  177.5680  136.8100 C   0  0  0  0  0  2  0  0  0  0  0  0
  1  6  1  0  0  0  0
  1  9  1  0  0  0  0
  2  3  1  6  0  0  0
  2  5  1  0  0  0  0
  3  7  1  0  0  0  0
  4 11  1  0  0  0  0
  4  7  2  0  0  0  0
  5 16  2  0  0  0  0
  5 14  1  0  0  0  0
  8 23  1  6  0  0  0
  8 12  1  0  0  0  0
 10 19  1  0  0  0  0
 10 18  1  0  0  0  0
 12 16  1  0  0  0  0
 13 18  1  6  0  0  0
 13  8  1  0  0  0  0
 13  2  1  0  0  0  0
 14  1  2  0  0  0  0
 15  4  1  0  0  0  0
 16 17  1  0  0  0  0
 17  6  2  0  0  0  0
 19  3  2  0  0  0  0
 20 15  2  0  0  0  0
 20 19  1  0  0  0  0
 22 23  1  0  0  0  0
 22 21  2  0  0  0  0
 24 27  1  1  0  0  0
 24 31  1  0  0  0  0
 25 28  1  0  0  0  0
 25 30  1  0  0  0  0
 28 24  1  0  0  0  0
 29 31  1  0  0  0  0
 29 26  1  1  0  0  0
 30 29  1  0  0  0  0
 30 22  1  1  0  0  0
M  END
>  <MODEL>
1

>  <REMARK>
 VINA RESULT:      -6.8      0.000      0.000
  Name = 
  2 active torsions:
  status: ('A' for Active; 'I' for Inactive)
    1  A    between atoms: C_5  and  C_30
    2  A    between atoms: C_10  and  N_16
                            x       y       z     vdW  Elec       q    Type
                         _______ _______ _______ _____ _____    ______ ____

>  <TORSDO>
F 2

$$$$
=
 OpenBabel11122411123D

 31 35  0  0  1  0  0  0  0  0999 V2000
  191.6980  176.5850  138.1350 C   0  0  0  0  0  0  0  0  0  0  0  0
  188.2100  176.9470  136.6660 C   0  0  2  0  0  3  0  0  0  0  0  0
  187.4100  175.6600  136.6780 C   0  0  0  0  0  0  0  0  0  0  0  0
  187.2950  173.2380  136.8470 C   0  0  0  0  0  0  0  0  0  0  0  0
  189.3540  176.9380  137.6390 C   0  0  0  0  0  0  0  0  0  0  0  0
  191.4640  176.9090  139.4760 C   0  0  0  0  0  3  0  0  0  0  0  0
  188.0390  174.4200  136.8710 C   0  0  0  0  0  3  0  0  0  0  0  0
  186.9890  178.4760  138.4160 C   0  0  1  0  0  3  0  0  0  0  0  0
  192.9470  176.2560  137.7270 F   0  0  0  0  0  0  0  0  0  0  0  0
  185.3760  176.9120  136.1790 O   0  0  0  0  0  0  0  0  0  0  0  0
  187.9690  171.9320  137.0680 C   0  0  0  0  0  1  0  0  0  0  0  0
  187.7330  177.5880  139.4280 C   0  0  0  0  0  2  0  0  0  0  0  0
  187.3140  178.1800  136.9170 C   0  0  2  0  0  3  0  0  0  0  0  0
  190.6440  176.5960  137.2170 C   0  0  0  0  0  3  0  0  0  0  0  0
  185.9180  173.2830  136.6170 C   0  0  0  0  0  3  0  0  0  0  0  0
  189.1230  177.2730  138.9810 C   0  0  0  0  0  0  0  0  0  0  0  0
  190.1750  177.2490  139.9010 C   0  0  0  0  0  3  0  0  0  0  0  0
  186.0960  178.1300  135.9910 C   0  0  0  0  0  2  0  0  0  0  0  0
  186.0250  175.6950  136.4110 C   0  0  0  0  0  0  0  0  0  0  0  0
  185.2840  174.5090  136.3980 C   0  0  0  0  0  3  0  0  0  0  0  0
  185.6890  179.5360  140.7440 O   0  0  0  0  0  0  0  0  0  0  0  0
  184.9730  178.9540  139.8860 C   0  0  0  0  0  0  0  0  0  0  0  0
  185.5570  178.4310  138.6910 N   0  0  0  0  0  2  0  0  0  0  0  0
  182.1230  177.2900  138.0140 C   0  0  1  0  0  3  0  0  0  0  0  0
  183.0960  177.3440  140.3250 C   0  0  0  0  0  2  0  0  0  0  0  0
  183.0400  180.8100  138.8550 O   0  0  0  0  0  1  0  0  0  0  0  0
  182.1010  176.5320  136.7050 C   0  0  0  0  0  1  0  0  0  0  0  0
  183.0630  176.5930  138.9930 C   0  0  0  0  0  2  0  0  0  0  0  0
  182.6190  179.4980  139.0800 C   0  0  2  0  0  3  0  0  0  0  0  0
  183.5000  178.8100  140.1370 C   0  0  2  0  0  3  0  0  0  0  0  0
  182.5910  178.7200  137.7650 C   0  0  0  0  0  2  0  0  0  0  0  0
  1  6  1  0  0  0  0
  2  3  1  1  0  0  0
  2 13  1  0  0  0  0
  2  5  1  0  0  0  0
  3  7  1  0  0  0  0
  4  7  2  0  0  0  0
  4 11  1  0  0  0  0
  5 16  2  0  0  0  0
  6 17  2  0  0  0  0
  8 23  1  6  0  0  0
  8 12  1  0  0  0  0
  9  1  1  0  0  0  0
 10 19  1  0  0  0  0
 13 18  1  6  0  0  0
 13  8  1  0  0  0  0
 14  5  1  0  0  0  0
 14  1  2  0  0  0  0
 15  4  1  0  0  0  0
 16 12  1  0  0  0  0
 16 17  1  0  0  0  0
 18 10  1  0  0  0  0
 19  3  2  0  0  0  0
 20 19  1  0  0  0  0
 20 15  2  0  0  0  0
 22 21  2  0  0  0  0
 23 22  1  0  0  0  0
 24 27  1  6  0  0  0
 24 28  1  0  0  0  0
 28 25  1  0  0  0  0
 29 26  1  6  0  0  0
 29 30  1  0  0  0  0
 30 22  1  6  0  0  0
 30 25  1  0  0  0  0
 31 24  1  0  0  0  0
 31 29  1  0  0  0  0
M  END
>  <MODEL>
2

>  <REMARK>
 VINA RESULT:      -6.8      3.394      7.657
  Name = 
  2 active torsions:
  status: ('A' for Active; 'I' for Inactive)
    1  A    between atoms: C_5  and  C_30
    2  A    between atoms: C_10  and  N_16
                            x       y       z     vdW  Elec       q    Type
                         _______ _______ _______ _____ _____    ______ ____

>  <TORSDO>
F 2

$$$$
=
 OpenBabel11122411123D

 31 35  0  0  1  0  0  0  0  0999 V2000
  179.6930  178.5420  142.6420 C   0  0  0  0  0  0  0  0  0  0  0  0
  182.7920  179.4150  140.6200 C   0  0  2  0  0  3  0  0  0  0  0  0
  184.0870  178.9800  141.2760 C   0  0  0  0  0  0  0  0  0  0  0  0
  185.3350  178.2670  143.2370 C   0  0  0  0  0  0  0  0  0  0  0  0
  181.5910  178.6810  141.1450 C   0  0  0  0  0  0  0  0  0  0  0  0
  179.3720  177.2850  142.1190 C   0  0  0  0  0  3  0  0  0  0  0  0
  184.1290  178.6350  142.6360 C   0  0  0  0  0  3  0  0  0  0  0  0
  182.5840  177.8540  138.5190 C   0  0  1  0  0  3  0  0  0  0  0  0
  178.9310  179.0820  143.6230 F   0  0  0  0  0  0  0  0  0  0  0  0
  185.2860  179.3740  139.1870 O   0  0  0  0  0  0  0  0  0  0  0  0
  185.3640  177.8880  144.6730 C   0  0  0  0  0  1  0  0  0  0  0  0
  182.1380  176.8210  139.5670 C   0  0  0  0  0  2  0  0  0  0  0  0
  182.8590  179.2850  139.0820 C   0  0  2  0  0  3  0  0  0  0  0  0
  180.8040  179.2390  142.1580 C   0  0  0  0  0  3  0  0  0  0  0  0
  186.5140  178.2540  142.4870 C   0  0  0  0  0  3  0  0  0  0  0  0
  181.2620  177.4260  140.6140 C   0  0  0  0  0  0  0  0  0  0  0  0
  180.1580  176.7240  141.1080 C   0  0  0  0  0  3  0  0  0  0  0  0
  184.1370  179.9480  138.5620 C   0  0  0  0  0  2  0  0  0  0  0  0
  185.2880  178.9990  140.5350 C   0  0  0  0  0  0  0  0  0  0  0  0
  186.4900  178.6210  141.1390 C   0  0  0  0  0  3  0  0  0  0  0  0
  182.6960  177.4860  135.6760 O   0  0  0  0  0  0  0  0  0  0  0  0
  183.7030  177.1420  136.3520 C   0  0  0  0  0  0  0  0  0  0  0  0
  183.7190  177.3280  137.7690 N   0  0  0  0  0  2  0  0  0  0  0  0
  185.0930  173.6210  136.1130 C   0  0  1  0  0  3  0  0  0  0  0  0
  184.4460  175.5080  134.5950 C   0  0  0  0  0  2  0  0  0  0  0  0
  186.2610  176.8320  137.6160 O   0  0  0  0  0  1  0  0  0  0  0  0
  184.6240  172.3210  136.7320 C   0  0  0  0  0  1  0  0  0  0  0  0
  183.9880  174.1950  135.2320 C   0  0  0  0  0  2  0  0  0  0  0  0
  185.9260  175.9260  136.6080 C   0  0  2  0  0  3  0  0  0  0  0  0
  184.8810  176.5280  135.6530 C   0  0  2  0  0  3  0  0  0  0  0  0
  185.4510  174.6090  137.2180 C   0  0  0  0  0  2  0  0  0  0  0  0
  1  9  1  0  0  0  0
  2  5  1  1  0  0  0
  2  3  1  0  0  0  0
  3  7  1  0  0  0  0
  4 11  1  0  0  0  0
  5 14  2  0  0  0  0
  6  1  2  0  0  0  0
  7  4  2  0  0  0  0
  8 23  1  1  0  0  0
  8 13  1  0  0  0  0
  8 12  1  0  0  0  0
 10 19  1  0  0  0  0
 12 16  1  0  0  0  0
 13 18  1  1  0  0  0
 13  2  1  0  0  0  0
 14  1  1  0  0  0  0
 15  4  1  0  0  0  0
 16 17  2  0  0  0  0
 16  5  1  0  0  0  0
 17  6  1  0  0  0  0
 18 10  1  0  0  0  0
 19 20  1  0  0  0  0
 19  3  2  0  0  0  0
 20 15  2  0  0  0  0
 21 22  2  0  0  0  0
 22 23  1  0  0  0  0
 24 27  1  1  0  0  0
 24 31  1  0  0  0  0
 25 28  1  0  0  0  0
 25 30  1  0  0  0  0
 28 24  1  0  0  0  0
 29 31  1  0  0  0  0
 29 26  1  1  0  0  0
 30 22  1  1  0  0  0
 30 29  1  0  0  0  0
M  END
>  <MODEL>
3

>  <REMARK>
 VINA RESULT:      -6.0      2.494      4.530
  Name = 
  2 active torsions:
  status: ('A' for Active; 'I' for Inactive)
    1  A    between atoms: C_5  and  C_30
    2  A    between atoms: C_10  and  N_16
                            x       y       z     vdW  Elec       q    Type
                         _______ _______ _______ _____ _____    ______ ____

>  <TORSDO>
F 2

$$$$
=
 OpenBabel11122411123D

 31 35  0  0  1  0  0  0  0  0999 V2000
  191.6940  176.7500  138.5880 C   0  0  0  0  0  0  0  0  0  0  0  0
  188.7990  177.1190  136.1530 C   0  0  2  0  0  3  0  0  0  0  0  0
  188.1950  175.7980  135.7230 C   0  0  0  0  0  0  0  0  0  0  0  0
  188.3270  173.3810  135.4940 C   0  0  0  0  0  0  0  0  0  0  0  0
  189.5870  177.0190  137.4280 C   0  0  0  0  0  0  0  0  0  0  0  0
  191.0270  176.8170  139.8160 C   0  0  0  0  0  3  0  0  0  0  0  0
  188.8810  174.5900  135.9240 C   0  0  0  0  0  3  0  0  0  0  0  0
  186.9290  178.2300  137.6240 C   0  0  1  0  0  3  0  0  0  0  0  0
  193.0390  176.5850  138.5560 F   0  0  0  0  0  0  0  0  0  0  0  0
  186.2710  176.9730  134.7880 O   0  0  0  0  0  0  0  0  0  0  0  0
  189.0560  172.1070  135.7270 C   0  0  0  0  0  1  0  0  0  0  0  0
  187.4330  177.2320  138.6800 C   0  0  0  0  0  2  0  0  0  0  0  0
  187.7260  178.2240  136.2800 C   0  0  2  0  0  3  0  0  0  0  0  0
  190.9750  176.8480  137.3940 C   0  0  0  0  0  3  0  0  0  0  0  0
  187.0900  173.3700  134.8470 C   0  0  0  0  0  3  0  0  0  0  0  0
  188.9200  177.0970  138.6590 C   0  0  0  0  0  0  0  0  0  0  0  0
  189.6400  176.9860  139.8530 C   0  0  0  0  0  3  0  0  0  0  0  0
  186.8610  178.2530  135.0180 C   0  0  0  0  0  2  0  0  0  0  0  0
  186.9620  175.7820  135.0370 C   0  0  0  0  0  0  0  0  0  0  0  0
  186.4090  174.5690  134.6170 C   0  0  0  0  0  3  0  0  0  0  0  0
  184.8340  179.3480  139.2340 O   0  0  0  0  0  0  0  0  0  0  0  0
  184.5010  178.6010  138.2750 C   0  0  0  0  0  0  0  0  0  0  0  0
  185.4980  178.0370  137.4190 N   0  0  0  0  0  2  0  0  0  0  0  0
  181.4410  178.5050  140.5150 C   0  0  1  0  0  3  0  0  0  0  0  0
  182.1660  179.5220  138.3410 C   0  0  0  0  0  2  0  0  0  0  0  0
  183.3930  175.9720  138.5900 O   0  0  0  0  0  1  0  0  0  0  0  0
  181.2870  178.7530  142.0000 C   0  0  0  0  0  1  0  0  0  0  0  0
  182.0050  179.7530  139.8440 C   0  0  0  0  0  2  0  0  0  0  0  0
  182.5430  177.0580  138.7970 C   0  0  2  0  0  3  0  0  0  0  0  0
  183.0470  178.3040  138.0470 C   0  0  2  0  0  3  0  0  0  0  0  0
  182.3770  177.3210  140.2930 C   0  0  0  0  0  2  0  0  0  0  0  0
  1  6  1  0  0  0  0
  2  3  1  1  0  0  0
  2 13  1  0  0  0  0
  2  5  1  0  0  0  0
  3  7  1  0  0  0  0
  4 11  1  0  0  0  0
  4  7  2  0  0  0  0
  5 16  2  0  0  0  0
  6 17  2  0  0  0  0
  8 23  1  6  0  0  0
  8 12  1  0  0  0  0
  9  1  1  0  0  0  0
 10 18  1  0  0  0  0
 10 19  1  0  0  0  0
 13 18  1  6  0  0  0
 13  8  1  0  0  0  0
 14  5  1  0  0  0  0
 14  1  2  0  0  0  0
 15  4  1  0  0  0  0
 16 12  1  0  0  0  0
 16 17  1  0  0  0  0
 19  3  2  0  0  0  0
 20 15  2  0  0  0  0
 20 19  1  0  0  0  0
 22 21  2  0  0  0  0
 23 22  1  0  0  0  0
 24 27  1  1  0  0  0
 25 28  1  0  0  0  0
 28 24  1  0  0  0  0
 29 26  1  1  0  0  0
 29 31  1  0  0  0  0
 30 22  1  1  0  0  0
 30 25  1  0  0  0  0
 30 29  1  0  0  0  0
 31 24  1  0  0  0  0
M  END
>  <MODEL>
4

>  <REMARK>
 VINA RESULT:      -5.9      3.188      8.214
  Name = 
  2 active torsions:
  status: ('A' for Active; 'I' for Inactive)
    1  A    between atoms: C_5  and  C_30
    2  A    between atoms: C_10  and  N_16
                            x       y       z     vdW  Elec       q    Type
                         _______ _______ _______ _____ _____    ______ ____

>  <TORSDO>
F 2

$$$$
=
 OpenBabel11122411123D

 31 35  0  0  1  0  0  0  0  0999 V2000
  188.1780  177.4820  148.4430 C   0  0  0  0  0  0  0  0  0  0  0  0
  188.0220  176.6560  144.7350 C   0  0  2  0  0  3  0  0  0  0  0  0
  187.0390  177.5130  143.9630 C   0  0  0  0  0  0  0  0  0  0  0  0
  185.1310  179.0170  143.9020 C   0  0  0  0  0  0  0  0  0  0  0  0
  188.4330  177.2660  146.0440 C   0  0  0  0  0  0  0  0  0  0  0  0
  189.2040  178.4320  148.4670 C   0  0  0  0  0  3  0  0  0  0  0  0
  186.0510  178.2570  144.6270 C   0  0  0  0  0  3  0  0  0  0  0  0
  190.3730  177.4310  143.8590 C   0  0  1  0  0  3  0  0  0  0  0  0
  187.5560  177.1280  149.5930 F   0  0  0  0  0  0  0  0  0  0  0  0
  188.0090  176.7440  141.8600 O   0  0  0  0  0  0  0  0  0  0  0  0
  184.0990  179.8130  144.6170 C   0  0  0  0  0  1  0  0  0  0  0  0
  190.1140  178.6270  144.7910 C   0  0  0  0  0  2  0  0  0  0  0  0
  189.2730  176.3220  143.8930 C   0  0  2  0  0  3  0  0  0  0  0  0
  187.7900  176.9010  147.2320 C   0  0  0  0  0  3  0  0  0  0  0  0
  185.1800  179.0300  142.5060 C   0  0  0  0  0  3  0  0  0  0  0  0
  189.4690  178.2110  146.0710 C   0  0  0  0  0  0  0  0  0  0  0  0
  189.8470  178.8010  147.2810 C   0  0  0  0  0  3  0  0  0  0  0  0
  188.8470  175.7940  142.5200 C   0  0  0  0  0  2  0  0  0  0  0  0
  187.0600  177.5030  142.5520 C   0  0  0  0  0  0  0  0  0  0  0  0
  186.1420  178.2740  141.8320 C   0  0  0  0  0  3  0  0  0  0  0  0
  192.1440  176.2290  141.9490 O   0  0  0  0  0  0  0  0  0  0  0  0
  191.5460  177.2850  141.6100 C   0  0  0  0  0  0  0  0  0  0  0  0
  190.6280  177.9150  142.5070 N   0  0  0  0  0  2  0  0  0  0  0  0
  191.4160  175.9420  138.0650 C   0  0  1  0  0  3  0  0  0  0  0  0
  190.5560  177.8940  139.3840 C   0  0  0  0  0  2  0  0  0  0  0  0
  194.1180  177.1430  140.3430 O   0  0  0  0  0  1  0  0  0  0  0  0
  191.0720  174.5680  137.5330 C   0  0  0  0  0  1  0  0  0  0  0  0
  190.2280  176.5020  138.8410 C   0  0  0  0  0  2  0  0  0  0  0  0
  192.9960  177.2270  139.5170 C   0  0  2  0  0  3  0  0  0  0  0  0
  191.8150  177.8780  140.2570 C   0  0  2  0  0  3  0  0  0  0  0  0
  192.6380  175.8450  138.9720 C   0  0  0  0  0  2  0  0  0  0  0  0
  1  6  1  0  0  0  0
  1  9  1  0  0  0  0
  2  3  1  6  0  0  0
  2  5  1  0  0  0  0
  3  7  1  0  0  0  0
  4 11  1  0  0  0  0
  4  7  2  0  0  0  0
  5 16  2  0  0  0  0
  5 14  1  0  0  0  0
  8 23  1  6  0  0  0
  8 13  1  0  0  0  0
  8 12  1  0  0  0  0
 10 18  1  0  0  0  0
 10 19  1  0  0  0  0
 12 16  1  0  0  0  0
 13 18  1  6  0  0  0
 13  2  1  0  0  0  0
 14  1  2  0  0  0  0
 15  4  1  0  0  0  0
 16 17  1  0  0  0  0
 17  6  2  0  0  0  0
 19  3  2  0  0  0  0
 20 15  2  0  0  0  0
 20 19  1  0  0  0  0
 22 21  2  0  0  0  0
 22 23  1  0  0  0  0
 24 27  1  1  0  0  0
 24 28  1  0  0  0  0
 24 31  1  0  0  0  0
 25 30  1  0  0  0  0
 28 25  1  0  0  0  0
 29 30  1  0  0  0  0
 29 26  1  1  0  0  0
 30 22  1  1  0  0  0
 31 29  1  0  0  0  0
M  END
>  <MODEL>
5

>  <REMARK>
 VINA RESULT:      -5.9      5.215      6.944
  Name = 
  2 active torsions:
  status: ('A' for Active; 'I' for Inactive)
    1  A    between atoms: C_5  and  C_30
    2  A    between atoms: C_10  and  N_16
                            x       y       z     vdW  Elec       q    Type
                         _______ _______ _______ _____ _____    ______ ____

>  <TORSDO>
F 2

$$$$
=
 OpenBabel11122411123D

 31 35  0  0  1  0  0  0  0  0999 V2000
  180.8710  178.9810  143.1410 C   0  0  0  0  0  0  0  0  0  0  0  0
  180.6900  177.8200  139.5250 C   0  0  2  0  0  3  0  0  0  0  0  0
  180.6710  178.9560  138.5230 C   0  0  0  0  0  0  0  0  0  0  0  0
  180.3320  181.3020  137.9850 C   0  0  0  0  0  0  0  0  0  0  0  0
  181.2270  178.2280  140.8670 C   0  0  0  0  0  0  0  0  0  0  0  0
  182.2540  179.0030  143.3510 C   0  0  0  0  0  3  0  0  0  0  0  0
  180.3790  180.2690  138.9240 C   0  0  0  0  0  3  0  0  0  0  0  0
  183.0260  176.6790  139.1550 C   0  0  1  0  0  3  0  0  0  0  0  0
  180.0290  179.3380  144.1400 F   0  0  0  0  0  0  0  0  0  0  0  0
  181.1240  177.3790  136.7160 O   0  0  0  0  0  0  0  0  0  0  0  0
  180.0370  182.6910  138.4240 C   0  0  0  0  0  1  0  0  0  0  0  0
  183.5320  177.8900  139.9580 C   0  0  0  0  0  2  0  0  0  0  0  0
  181.4750  176.6000  138.9910 C   0  0  2  0  0  3  0  0  0  0  0  0
  180.3570  178.5970  141.8990 C   0  0  0  0  0  3  0  0  0  0  0  0
  180.5620  181.0310  136.6350 C   0  0  0  0  0  3  0  0  0  0  0  0
  182.6130  178.2390  141.0820 C   0  0  0  0  0  0  0  0  0  0  0  0
  183.1260  178.6370  142.3210 C   0  0  0  0  0  3  0  0  0  0  0  0
  180.9920  176.2510  137.5810 C   0  0  0  0  0  2  0  0  0  0  0  0
  180.8670  178.6830  137.1530 C   0  0  0  0  0  0  0  0  0  0  0  0
  180.8280  179.7230  136.2190 C   0  0  0  0  0  3  0  0  0  0  0  0
  184.1810  174.3360  137.9680 O   0  0  0  0  0  0  0  0  0  0  0  0
  184.2990  175.4260  137.3480 C   0  0  0  0  0  0  0  0  0  0  0  0
  183.7200  176.6240  137.8730 N   0  0  0  0  0  2  0  0  0  0  0  0
  187.3880  173.6390  136.0620 C   0  0  1  0  0  3  0  0  0  0  0  0
  185.0290  174.0970  135.3460 C   0  0  0  0  0  2  0  0  0  0  0  0
  186.5350  177.1730  136.9100 O   0  0  0  0  0  1  0  0  0  0  0  0
  188.3010  172.6280  136.7230 C   0  0  0  0  0  1  0  0  0  0  0  0
  185.9670  173.0890  136.0140 C   0  0  0  0  0  2  0  0  0  0  0  0
  186.5030  175.9750  136.1950 C   0  0  2  0  0  3  0  0  0  0  0  0
  185.0620  175.4550  136.0550 C   0  0  2  0  0  3  0  0  0  0  0  0
  187.4210  174.9440  136.8510 C   0  0  0  0  0  2  0  0  0  0  0  0
  1  6  1  0  0  0  0
  1  9  1  0  0  0  0
  2  3  1  6  0  0  0
  2  5  1  0  0  0  0
  3  7  1  0  0  0  0
  4 11  1  0  0  0  0
  4  7  2  0  0  0  0
  5 16  2  0  0  0  0
  5 14  1  0  0  0  0
  8 23  1  6  0  0  0
  8 12  1  0  0  0  0
 10 19  1  0  0  0  0
 10 18  1  0  0  0  0
 12 16  1  0  0  0  0
 13 18  1  6  0  0  0
 13  8  1  0  0  0  0
 13  2  1  0  0  0  0
 14  1  2  0  0  0  0
 15  4  1  0  0  0  0
 16 17  1  0  0  0  0
 17  6  2  0  0  0  0
 19  3  2  0  0  0  0
 20 15  2  0  0  0  0
 20 19  1  0  0  0  0
 22 23  1  0  0  0  0
 22 21  2  0  0  0  0
 24 27  1  1  0  0  0
 24 31  1  0  0  0  0
 25 28  1  0  0  0  0
 25 30  1  0  0  0  0
 28 24  1  0  0  0  0
 29 31  1  0  0  0  0
 29 26  1  1  0  0  0
 30 29  1  0  0  0  0
 30 22  1  1  0  0  0
M  END
>  <MODEL>
6

>  <REMARK>
 VINA RESULT:      -5.8      1.914      2.356
  Name = 
  2 active torsions:
  status: ('A' for Active; 'I' for Inactive)
    1  A    between atoms: C_5  and  C_30
    2  A    between atoms: C_10  and  N_16
                            x       y       z     vdW  Elec       q    Type
                         _______ _______ _______ _____ _____    ______ ____

>  <TORSDO>
F 2

$$$$
=
 OpenBabel11122411123D

 31 35  0  0  1  0  0  0  0  0999 V2000
  180.8850  178.9840  143.0980 C   0  0  0  0  0  0  0  0  0  0  0  0
  180.7180  177.7890  139.4930 C   0  0  2  0  0  3  0  0  0  0  0  0
  180.7050  178.9160  138.4800 C   0  0  0  0  0  0  0  0  0  0  0  0
  180.3720  181.2580  137.9190 C   0  0  0  0  0  0  0  0  0  0  0  0
  181.2500  178.2090  140.8330 C   0  0  0  0  0  0  0  0  0  0  0  0
  182.2670  179.0050  143.3140 C   0  0  0  0  0  3  0  0  0  0  0  0
  180.4130  180.2330  138.8670 C   0  0  0  0  0  3  0  0  0  0  0  0
  183.0540  176.6420  139.1430 C   0  0  1  0  0  3  0  0  0  0  0  0
  180.0390  179.3510  144.0900 F   0  0  0  0  0  0  0  0  0  0  0  0
  181.1630  177.3220  136.6890 O   0  0  0  0  0  0  0  0  0  0  0  0
  180.0780  182.6510  138.3440 C   0  0  0  0  0  1  0  0  0  0  0  0
  183.5580  177.8580  139.9370 C   0  0  0  0  0  2  0  0  0  0  0  0
  181.5020  176.5640  138.9740 C   0  0  2  0  0  3  0  0  0  0  0  0
  180.3760  178.5890  141.8570 C   0  0  0  0  0  3  0  0  0  0  0  0
  180.6080  180.9740  136.5720 C   0  0  0  0  0  3  0  0  0  0  0  0
  182.6350  178.2200  141.0540 C   0  0  0  0  0  0  0  0  0  0  0  0
  183.1430  178.6280  142.2910 C   0  0  0  0  0  3  0  0  0  0  0  0
  181.0250  176.2020  137.5650 C   0  0  0  0  0  2  0  0  0  0  0  0
  180.9070  178.6310  137.1130 C   0  0  0  0  0  0  0  0  0  0  0  0
  180.8740  179.6620  136.1690 C   0  0  0  0  0  3  0  0  0  0  0  0
  184.1810  174.2790  137.9680 O   0  0  0  0  0  0  0  0  0  0  0  0
  184.3170  175.3660  137.3460 C   0  0  0  0  0  0  0  0  0  0  0  0
  183.7530  176.5730  137.8650 N   0  0  0  0  0  2  0  0  0  0  0  0
  187.6680  176.7930  136.2840 C   0  0  1  0  0  3  0  0  0  0  0  0
  186.4140  174.6250  136.1780 C   0  0  0  0  0  2  0  0  0  0  0  0
  184.1020  177.5030  135.4410 O   0  0  0  0  0  1  0  0  0  0  0  0
  188.7050  177.5800  137.0570 C   0  0  0  0  0  1  0  0  0  0  0  0
  187.4580  175.4360  136.9480 C   0  0  0  0  0  2  0  0  0  0  0  0
  185.3010  176.7900  135.4770 C   0  0  2  0  0  3  0  0  0  0  0  0
  185.0870  175.3810  136.0570 C   0  0  2  0  0  3  0  0  0  0  0  0
  186.3580  177.5730  136.2540 C   0  0  0  0  0  2  0  0  0  0  0  0
  1  6  1  0  0  0  0
  1  9  1  0  0  0  0
  2  3  1  6  0  0  0
  2  5  1  0  0  0  0
  3  7  1  0  0  0  0
  4 11  1  0  0  0  0
  4  7  2  0  0  0  0
  5 16  2  0  0  0  0
  5 14  1  0  0  0  0
  8 23  1  6  0  0  0
  8 12  1  0  0  0  0
 10 19  1  0  0  0  0
 10 18  1  0  0  0  0
 12 16  1  0  0  0  0
 13 18  1  6  0  0  0
 13  8  1  0  0  0  0
 13  2  1  0  0  0  0
 14  1  2  0  0  0  0
 15  4  1  0  0  0  0
 16 17  1  0  0  0  0
 17  6  2  0  0  0  0
 19  3  2  0  0  0  0
 20 15  2  0  0  0  0
 20 19  1  0  0  0  0
 22 23  1  0  0  0  0
 22 21  2  0  0  0  0
 24 28  1  0  0  0  0
 24 27  1  1  0  0  0
 25 28  1  0  0  0  0
 29 26  1  1  0  0  0
 29 30  1  0  0  0  0
 29 31  1  0  0  0  0
 30 25  1  0  0  0  0
 30 22  1  1  0  0  0
 31 24  1  0  0  0  0
M  END
>  <MODEL>
7

>  <REMARK>
 VINA RESULT:      -5.7      1.798      2.321
  Name = 
  2 active torsions:
  status: ('A' for Active; 'I' for Inactive)
    1  A    between atoms: C_5  and  C_30
    2  A    between atoms: C_10  and  N_16
                            x       y       z     vdW  Elec       q    Type
                         _______ _______ _______ _____ _____    ______ ____

>  <TORSDO>
F 2

$$$$
=
 OpenBabel11122411123D

 31 35  0  0  1  0  0  0  0  0999 V2000
  182.4650  179.0300  142.8500 C   0  0  0  0  0  0  0  0  0  0  0  0
  180.7650  177.6710  139.7330 C   0  0  2  0  0  3  0  0  0  0  0  0
  180.7280  178.6570  138.5830 C   0  0  0  0  0  0  0  0  0  0  0  0
  180.8970  180.9280  137.7320 C   0  0  0  0  0  0  0  0  0  0  0  0
  181.8120  178.0010  140.7580 C   0  0  0  0  0  0  0  0  0  0  0  0
  183.7860  178.6200  142.6410 C   0  0  0  0  0  3  0  0  0  0  0  0
  180.9660  180.0240  138.7950 C   0  0  0  0  0  3  0  0  0  0  0  0
  182.4250  175.8050  138.9220 C   0  0  1  0  0  3  0  0  0  0  0  0
  182.1420  179.7290  143.9650 F   0  0  0  0  0  0  0  0  0  0  0  0
  180.0900  176.8640  137.0560 O   0  0  0  0  0  0  0  0  0  0  0  0
  181.1650  182.3710  137.9660 C   0  0  0  0  0  1  0  0  0  0  0  0
  183.4870  176.8520  139.2990 C   0  0  0  0  0  2  0  0  0  0  0  0
  180.9520  176.2200  139.2360 C   0  0  2  0  0  3  0  0  0  0  0  0
  181.4780  178.7240  141.9080 C   0  0  0  0  0  3  0  0  0  0  0  0
  180.5750  180.4760  136.4500 C   0  0  0  0  0  3  0  0  0  0  0  0
  183.1350  177.5810  140.5540 C   0  0  0  0  0  0  0  0  0  0  0  0
  184.1220  177.8990  141.4910 C   0  0  0  0  0  3  0  0  0  0  0  0
  179.9470  175.9220  138.1200 C   0  0  0  0  0  2  0  0  0  0  0  0
  180.3690  178.2140  137.2930 C   0  0  0  0  0  0  0  0  0  0  0  0
  180.3100  179.1220  136.2310 C   0  0  0  0  0  3  0  0  0  0  0  0
  184.1900  173.7540  137.9680 O   0  0  0  0  0  0  0  0  0  0  0  0
  183.5220  174.3980  137.1140 C   0  0  0  0  0  0  0  0  0  0  0  0
  182.6040  175.4120  137.5290 N   0  0  0  0  0  2  0  0  0  0  0  0
  184.0460  171.2080  135.1290 C   0  0  1  0  0  3  0  0  0  0  0  0
  182.5660  173.2310  135.1060 C   0  0  0  0  0  2  0  0  0  0  0  0
  186.1120  174.2230  135.8890 O   0  0  0  0  0  1  0  0  0  0  0  0
  184.1530  169.7650  135.5730 C   0  0  0  0  0  1  0  0  0  0  0  0
  182.6930  171.7730  135.5490 C   0  0  0  0  0  2  0  0  0  0  0  0
  185.0780  173.4780  135.3190 C   0  0  2  0  0  3  0  0  0  0  0  0
  183.7080  174.0920  135.6560 C   0  0  2  0  0  3  0  0  0  0  0  0
  185.1740  172.0180  135.7590 C   0  0  0  0  0  2  0  0  0  0  0  0
  1  9  1  0  0  0  0
  2  3  1  6  0  0  0
  2  5  1  0  0  0  0
  3  7  1  0  0  0  0
  4 11  1  0  0  0  0
  4  7  2  0  0  0  0
  5 14  1  0  0  0  0
  6  1  1  0  0  0  0
  8 23  1  6  0  0  0
  8 13  1  0  0  0  0
  8 12  1  0  0  0  0
 10 19  1  0  0  0  0
 10 18  1  0  0  0  0
 12 16  1  0  0  0  0
 13 18  1  6  0  0  0
 13  2  1  0  0  0  0
 14  1  2  0  0  0  0
 15  4  1  0  0  0  0
 16  5  2  0  0  0  0
 16 17  1  0  0  0  0
 17  6  2  0  0  0  0
 19  3  2  0  0  0  0
 20 15  2  0  0  0  0
 20 19  1  0  0  0  0
 22 23  1  0  0  0  0
 22 21  2  0  0  0  0
 24 28  1  0  0  0  0
 24 27  1  1  0  0  0
 24 31  1  0  0  0  0
 25 28  1  0  0  0  0
 25 30  1  0  0  0  0
 29 30  1  0  0  0  0
 29 31  1  0  0  0  0
 29 26  1  1  0  0  0
 30 22  1  1  0  0  0
M  END
>  <MODEL>
8

>  <REMARK>
 VINA RESULT:      -5.6      3.185      4.032
  Name = 
  2 active torsions:
  status: ('A' for Active; 'I' for Inactive)
    1  A    between atoms: C_5  and  C_30
    2  A    between atoms: C_10  and  N_16
                            x       y       z     vdW  Elec       q    Type
                         _______ _______ _______ _____ _____    ______ ____

>  <TORSDO>
F 2

$$$$
=
 OpenBabel11122411123D

 31 35  0  0  1  0  0  0  0  0999 V2000
  191.5850  177.0520  142.1600 C   0  0  0  0  0  0  0  0  0  0  0  0
  190.1820  178.0620  138.7750 C   0  0  2  0  0  3  0  0  0  0  0  0
  190.2120  176.9480  137.7480 C   0  0  0  0  0  0  0  0  0  0  0  0
  191.0550  174.8040  136.9720 C   0  0  0  0  0  0  0  0  0  0  0  0
  190.2770  177.5620  140.1880 C   0  0  0  0  0  0  0  0  0  0  0  0
  190.4300  176.6090  142.8130 C   0  0  0  0  0  3  0  0  0  0  0  0
  191.0100  175.8090  137.9410 C   0  0  0  0  0  3  0  0  0  0  0  0
  187.6260  178.4010  139.2740 C   0  0  1  0  0  3  0  0  0  0  0  0
  192.7790  177.0160  142.7990 F   0  0  0  0  0  0  0  0  0  0  0  0
  188.7200  178.2290  136.3020 O   0  0  0  0  0  0  0  0  0  0  0  0
  191.8910  173.5950  137.1940 C   0  0  0  0  0  1  0  0  0  0  0  0
  187.8160  177.1280  140.1150 C   0  0  0  0  0  2  0  0  0  0  0  0
  188.9300  178.9530  138.6130 C   0  0  2  0  0  3  0  0  0  0  0  0
  191.5100  177.5250  140.8470 C   0  0  0  0  0  3  0  0  0  0  0  0
  190.3150  174.9340  135.7940 C   0  0  0  0  0  3  0  0  0  0  0  0
  189.1170  177.1280  140.8470 C   0  0  0  0  0  0  0  0  0  0  0  0
  189.1960  176.6430  142.1560 C   0  0  0  0  0  3  0  0  0  0  0  0
  188.7820  179.3770  137.1500 C   0  0  0  0  0  2  0  0  0  0  0  0
  189.4950  177.0890  136.5410 C   0  0  0  0  0  0  0  0  0  0  0  0
  189.5370  176.0750  135.5780 C   0  0  0  0  0  3  0  0  0  0  0  0
  184.8100  178.5620  139.7970 O   0  0  0  0  0  0  0  0  0  0  0  0
  185.1730  178.2530  138.6300 C   0  0  0  0  0  0  0  0  0  0  0  0
  186.5620  178.1850  138.3000 N   0  0  0  0  0  2  0  0  0  0  0  0
  181.7970  176.5230  138.7070 C   0  0  1  0  0  3  0  0  0  0  0  0
  182.8090  178.6680  137.8900 C   0  0  0  0  0  2  0  0  0  0  0  0
  185.1170  175.7830  137.1700 O   0  0  0  0  0  1  0  0  0  0  0  0
  181.0360  175.8750  139.8430 C   0  0  0  0  0  1  0  0  0  0  0  0
  182.0430  177.9940  139.0300 C   0  0  0  0  0  2  0  0  0  0  0  0
  183.9040  176.4450  137.3610 C   0  0  2  0  0  3  0  0  0  0  0  0
  184.1290  177.9500  137.5940 C   0  0  2  0  0  3  0  0  0  0  0  0
  183.1240  175.8000  138.5060 C   0  0  0  0  0  2  0  0  0  0  0  0
  1  9  1  0  0  0  0
  1  6  1  0  0  0  0
  2  3  1  6  0  0  0
  2  5  1  0  0  0  0
  3  7  1  0  0  0  0
  4 11  1  0  0  0  0
  4  7  2  0  0  0  0
  5 16  2  0  0  0  0
  5 14  1  0  0  0  0
  8 23  1  6  0  0  0
  8 12  1  0  0  0  0
 10 19  1  0  0  0  0
 10 18  1  0  0  0  0
 12 16  1  0  0  0  0
 13 18  1  6  0  0  0
 13  2  1  0  0  0  0
 13  8  1  0  0  0  0
 14  1  2  0  0  0  0
 15  4  1  0  0  0  0
 16 17  1  0  0  0  0
 17  6  2  0  0  0  0
 19  3  2  0  0  0  0
 20 15  2  0  0  0  0
 20 19  1  0  0  0  0
 22 21  2  0  0  0  0
 23 22  1  0  0  0  0
 24 28  1  0  0  0  0
 24 27  1  1  0  0  0
 25 28  1  0  0  0  0
 29 26  1  1  0  0  0
 29 30  1  0  0  0  0
 29 31  1  0  0  0  0
 30 25  1  0  0  0  0
 30 22  1  1  0  0  0
 31 24  1  0  0  0  0
M  END
>  <MODEL>
9

>  <REMARK>
 VINA RESULT:      -5.5      3.497      8.104
  Name = 
  2 active torsions:
  status: ('A' for Active; 'I' for Inactive)
    1  A    between atoms: C_5  and  C_30
    2  A    between atoms: C_10  and  N_16
                            x       y       z     vdW  Elec       q    Type
                         _______ _______ _______ _____ _____    ______ ____

>  <TORSDO>
F 2

$$$$
