=
 OpenBabel11122412043D

 34 41  0  0  1  0  0  0  0  0999 V2000
  186.4740  178.6060  140.9520 C   0  0  0  0  0  0  0  0  0  0  0  0
  185.0760  178.8350  138.8490 C   0  0  0  0  0  2  0  0  0  0  0  0
  186.9190  177.8340  147.6230 C   0  0  2  0  0  3  0  0  0  0  0  0
  187.6530  178.0470  142.9740 C   0  0  0  0  0  0  0  0  0  0  0  0
  186.3720  177.4310  145.1130 C   0  0  1  0  0  3  0  0  0  0  0  0
  186.4000  179.4970  146.4200 O   0  0  0  0  0  0  0  0  0  0  0  0
  187.2370  179.3060  147.5360 C   0  0  0  0  0  2  0  0  0  0  0  0
  189.1950  177.4480  146.4130 C   0  0  0  0  0  2  0  0  0  0  0  0
  184.0530  179.3130  140.9960 C   0  0  2  0  0  3  0  0  0  0  0  0
  181.1290  177.8880  141.3500 C   0  0  0  0  0  2  0  0  0  0  0  0
  185.1490  177.4140  144.1850 C   0  0  0  0  0  2  0  0  0  0  0  0
  188.8540  177.0940  144.9740 C   0  0  0  0  0  2  0  0  0  0  0  0
  183.9130  178.4630  142.2760 C   0  0  1  0  0  3  0  0  0  0  0  0
  183.6080  179.1450  138.5980 C   0  0  0  0  0  2  0  0  0  0  0  0
  187.6890  177.9370  144.4800 C   0  0  1  0  0  3  0  0  0  0  0  0
  188.1400  176.9180  147.3850 C   0  0  0  0  0  2  0  0  0  0  0  0
  182.0730  177.8600  140.1340 C   0  0  1  0  0  3  0  0  0  0  0  0
  186.4530  178.3840  142.3330 C   0  0  0  0  0  0  0  0  0  0  0  0
  186.0290  178.1410  146.4330 C   0  0  2  0  0  3  0  0  0  0  0  0
  185.1840  178.5290  143.1410 C   0  0  2  0  0  3  0  0  0  0  0  0
  188.7890  178.1310  140.8960 C   0  0  0  0  0  3  0  0  0  0  0  0
  181.3940  179.0320  142.3300 C   0  0  0  0  0  2  0  0  0  0  0  0
  188.7960  177.9430  142.2420 N   0  0  0  0  0  0  0  0  0  0  0  0
  182.6940  178.8630  143.1210 C   0  0  0  0  0  2  0  0  0  0  0  0
  182.9240  179.1390  139.9630 C   0  0  1  0  0  3  0  0  0  0  0  0
  187.6340  178.4580  140.2590 N   0  0  0  0  0  0  0  0  0  0  0  0
  185.2660  178.9700  140.2790 N   0  0  0  0  0  0  0  0  0  0  0  0
  182.8740  176.7130  140.1790 O   0  0  0  0  0  0  0  0  0  0  0  0
  182.0880  175.6960  139.6330 C   0  0  0  0  0  2  0  0  0  0  0  0
  183.8210  174.0670  137.1000 C   0  0  0  0  0  2  0  0  0  0  0  0
  181.5820  174.4280  137.5500 C   0  0  0  0  0  2  0  0  0  0  0  0
  182.3080  175.6230  138.1330 C   0  0  2  0  0  3  0  0  0  0  0  0
  182.4810  173.7810  136.6100 N   0  0  0  0  0  2  0  0  0  0  0  0
  183.7680  175.3850  137.8410 C   0  0  0  0  0  2  0  0  0  0  0  0
  1 18  1  0  0  0  0
  2 27  1  0  0  0  0
  3 16  1  6  0  0  0
  4 15  1  0  0  0  0
  5 11  1  6  0  0  0
  5 19  1  0  0  0  0
  6  7  1  0  0  0  0
  7  3  1  0  0  0  0
  8 16  1  0  0  0  0
  9 27  1  6  0  0  0
  9 13  1  0  0  0  0
 10 22  1  0  0  0  0
 12  8  1  0  0  0  0
 13 24  1  1  0  0  0
 13 20  1  0  0  0  0
 14  2  1  0  0  0  0
 15 12  1  6  0  0  0
 15  5  1  0  0  0  0
 17 28  1  1  0  0  0
 17 10  1  0  0  0  0
 18  4  2  0  0  0  0
 18 20  1  0  0  0  0
 19  6  1  6  0  0  0
 19  3  1  0  0  0  0
 20 11  1  1  0  0  0
 21 23  2  0  0  0  0
 22 24  1  0  0  0  0
 23  4  1  0  0  0  0
 25 14  1  6  0  0  0
 25 17  1  0  0  0  0
 25  9  1  0  0  0  0
 26 21  1  0  0  0  0
 26  1  2  0  0  0  0
 27  1  1  0  0  0  0
 29 28  1  0  0  0  0
 30 34  1  0  0  0  0
 31 32  1  0  0  0  0
 32 29  1  1  0  0  0
 33 30  1  0  0  0  0
 33 31  1  0  0  0  0
 34 32  1  0  0  0  0
M  END
>  <MODEL>
1

>  <REMARK>
 VINA RESULT:      -7.8      0.000      0.000
  Name = 
  3 active torsions:
  status: ('A' for Active; 'I' for Inactive)
    1  A    between atoms: C_17  and  O_28
    2  A    between atoms: O_28  and  C_29
    3  A    between atoms: C_29  and  C_32
                            x       y       z     vdW  Elec       q    Type
                         _______ _______ _______ _____ _____    ______ ____

>  <TORSDO>
F 3

$$$$
=
 OpenBabel11122412043D

 34 41  0  0  1  0  0  0  0  0999 V2000
  187.0000  178.4110  139.7850 C   0  0  0  0  0  0  0  0  0  0  0  0
  184.8820  178.9780  138.5130 C   0  0  0  0  0  2  0  0  0  0  0  0
  190.1360  176.9030  145.5460 C   0  0  2  0  0  3  0  0  0  0  0  0
  188.8480  177.5440  141.0600 C   0  0  0  0  0  0  0  0  0  0  0  0
  188.5320  176.8140  143.5020 C   0  0  1  0  0  3  0  0  0  0  0  0
  189.3620  178.7220  144.7880 O   0  0  0  0  0  0  0  0  0  0  0  0
  190.5640  178.3440  145.4180 C   0  0  0  0  0  2  0  0  0  0  0  0
  191.6180  176.4570  143.4490 C   0  0  0  0  0  2  0  0  0  0  0  0
  184.9320  179.3100  140.9150 C   0  0  2  0  0  3  0  0  0  0  0  0
  182.2860  178.1060  142.4160 C   0  0  0  0  0  2  0  0  0  0  0  0
  187.0390  176.9990  143.1960 C   0  0  0  0  0  2  0  0  0  0  0  0
  190.6590  176.2880  142.2820 C   0  0  0  0  0  2  0  0  0  0  0  0
  185.2470  178.3440  142.0770 C   0  0  1  0  0  3  0  0  0  0  0  0
  183.4960  179.4340  138.9420 C   0  0  0  0  0  2  0  0  0  0  0  0
  189.5060  177.2720  142.3920 C   0  0  1  0  0  3  0  0  0  0  0  0
  191.0200  175.9180  144.7490 C   0  0  0  0  0  2  0  0  0  0  0  0
  182.6140  178.1280  140.9120 C   0  0  1  0  0  3  0  0  0  0  0  0
  187.5410  178.0470  141.0240 C   0  0  0  0  0  0  0  0  0  0  0  0
  188.8700  177.4070  144.8800 C   0  0  2  0  0  3  0  0  0  0  0  0
  186.7630  178.2110  142.3080 C   0  0  2  0  0  3  0  0  0  0  0  0
  188.9970  177.7510  138.7040 C   0  0  0  0  0  3  0  0  0  0  0  0
  183.0780  179.1140  143.2510 C   0  0  0  0  0  2  0  0  0  0  0  0
  189.5510  177.4220  139.9000 N   0  0  0  0  0  0  0  0  0  0  0  0
  184.5600  178.7540  143.3890 C   0  0  0  0  0  2  0  0  0  0  0  0
  183.4600  179.3420  140.4650 C   0  0  1  0  0  3  0  0  0  0  0  0
  187.7300  178.2400  138.6510 N   0  0  0  0  0  0  0  0  0  0  0  0
  185.6750  178.9440  139.7240 N   0  0  0  0  0  0  0  0  0  0  0  0
  183.2120  176.9190  140.5370 O   0  0  0  0  0  0  0  0  0  0  0  0
  182.1640  176.1180  140.0830 C   0  0  0  0  0  2  0  0  0  0  0  0
  183.3860  174.2380  137.4270 C   0  0  0  0  0  2  0  0  0  0  0  0
  181.2780  174.9210  138.0850 C   0  0  0  0  0  2  0  0  0  0  0  0
  182.2210  176.0020  138.5700 C   0  0  2  0  0  3  0  0  0  0  0  0
  181.9780  174.1440  137.0760 N   0  0  0  0  0  2  0  0  0  0  0  0
  183.5960  175.5550  138.1420 C   0  0  0  0  0  2  0  0  0  0  0  0
  1 18  1  0  0  0  0
  2 14  1  0  0  0  0
  2 27  1  0  0  0  0
  3 16  1  6  0  0  0
  4 15  1  0  0  0  0
  5 11  1  6  0  0  0
  5 19  1  0  0  0  0
  6  7  1  0  0  0  0
  7  3  1  0  0  0  0
  8 16  1  0  0  0  0
  9 27  1  6  0  0  0
  9 13  1  0  0  0  0
 10 22  1  0  0  0  0
 12  8  1  0  0  0  0
 13 20  1  0  0  0  0
 13 24  1  1  0  0  0
 15 12  1  6  0  0  0
 15  5  1  0  0  0  0
 17 28  1  1  0  0  0
 17 10  1  0  0  0  0
 18  4  2  0  0  0  0
 18 20  1  0  0  0  0
 19  6  1  6  0  0  0
 19  3  1  0  0  0  0
 20 11  1  1  0  0  0
 21 23  2  0  0  0  0
 22 24  1  0  0  0  0
 23  4  1  0  0  0  0
 25 14  1  6  0  0  0
 25 17  1  0  0  0  0
 25  9  1  0  0  0  0
 26 21  1  0  0  0  0
 26  1  2  0  0  0  0
 27  1  1  0  0  0  0
 29 28  1  0  0  0  0
 30 34  1  0  0  0  0
 31 32  1  0  0  0  0
 32 29  1  1  0  0  0
 33 30  1  0  0  0  0
 33 31  1  0  0  0  0
 34 32  1  0  0  0  0
M  END
>  <MODEL>
2

>  <REMARK>
 VINA RESULT:      -7.4      1.631      2.192
  Name = 
  3 active torsions:
  status: ('A' for Active; 'I' for Inactive)
    1  A    between atoms: C_17  and  O_28
    2  A    between atoms: O_28  and  C_29
    3  A    between atoms: C_29  and  C_32
                            x       y       z     vdW  Elec       q    Type
                         _______ _______ _______ _____ _____    ______ ____

>  <TORSDO>
F 3

$$$$
=
 OpenBabel11122412043D

 34 41  0  0  1  0  0  0  0  0999 V2000
  184.8780  178.9550  140.5560 C   0  0  0  0  0  0  0  0  0  0  0  0
  183.2500  179.1800  138.6260 C   0  0  0  0  0  2  0  0  0  0  0  0
  186.0820  178.3210  147.1470 C   0  0  2  0  0  3  0  0  0  0  0  0
  186.2700  178.4050  142.4410 C   0  0  0  0  0  0  0  0  0  0  0  0
  185.2330  177.8780  144.7310 C   0  0  1  0  0  3  0  0  0  0  0  0
  185.4730  179.9720  145.9710 O   0  0  0  0  0  0  0  0  0  0  0  0
  186.4300  179.7800  146.9860 C   0  0  0  0  0  2  0  0  0  0  0  0
  188.1880  177.8360  145.6910 C   0  0  0  0  0  2  0  0  0  0  0  0
  182.5000  179.7380  140.8640 C   0  0  2  0  0  3  0  0  0  0  0  0
  179.6000  178.4140  141.5950 C   0  0  0  0  0  2  0  0  0  0  0  0
  183.9100  177.8790  143.9520 C   0  0  0  0  0  2  0  0  0  0  0  0
  187.6700  177.4610  144.3120 C   0  0  0  0  0  2  0  0  0  0  0  0
  182.4880  178.9230  142.1740 C   0  0  1  0  0  3  0  0  0  0  0  0
  181.7730  179.5290  138.5410 C   0  0  0  0  0  2  0  0  0  0  0  0
  186.4800  178.3280  143.9350 C   0  0  1  0  0  3  0  0  0  0  0  0
  187.2410  177.3620  146.7930 C   0  0  0  0  0  2  0  0  0  0  0  0
  180.3930  178.3290  140.2780 C   0  0  1  0  0  3  0  0  0  0  0  0
  185.0140  178.7650  141.9360 C   0  0  0  0  0  0  0  0  0  0  0  0
  185.0680  178.6280  146.0630 C   0  0  2  0  0  3  0  0  0  0  0  0
  183.8530  178.9680  142.8830 C   0  0  2  0  0  3  0  0  0  0  0  0
  187.1560  178.4060  140.2430 C   0  0  0  0  0  3  0  0  0  0  0  0
  180.0100  179.5710  142.5070 C   0  0  0  0  0  2  0  0  0  0  0  0
  187.3160  178.2480  141.5830 N   0  0  0  0  0  0  0  0  0  0  0  0
  181.3890  179.3800  143.1450 C   0  0  0  0  0  2  0  0  0  0  0  0
  181.2530  179.5770  139.9750 C   0  0  1  0  0  3  0  0  0  0  0  0
  185.9450  178.7540  139.7370 N   0  0  0  0  0  0  0  0  0  0  0  0
  183.6110  179.3410  140.0200 N   0  0  0  0  0  0  0  0  0  0  0  0
  181.1600  177.1590  140.2590 O   0  0  0  0  0  0  0  0  0  0  0  0
  180.3950  176.2310  139.5500 C   0  0  0  0  0  2  0  0  0  0  0  0
  182.4870  175.9610  136.7880 C   0  0  0  0  0  2  0  0  0  0  0  0
  182.7580  175.6160  139.0580 C   0  0  0  0  0  2  0  0  0  0  0  0
  181.3050  175.2970  138.7730 C   0  0  2  0  0  3  0  0  0  0  0  0
  183.4720  175.5910  137.7930 N   0  0  0  0  0  2  0  0  0  0  0  0
  181.1290  175.5250  137.2930 C   0  0  0  0  0  2  0  0  0  0  0  0
  1 18  1  0  0  0  0
  2 27  1  0  0  0  0
  3 16  1  6  0  0  0
  4 15  1  0  0  0  0
  5 11  1  6  0  0  0
  5 19  1  0  0  0  0
  6  7  1  0  0  0  0
  7  3  1  0  0  0  0
  8 16  1  0  0  0  0
  9 27  1  6  0  0  0
  9 13  1  0  0  0  0
 10 22  1  0  0  0  0
 12  8  1  0  0  0  0
 13 20  1  0  0  0  0
 13 24  1  1  0  0  0
 14  2  1  0  0  0  0
 15 12  1  6  0  0  0
 15  5  1  0  0  0  0
 17 28  1  1  0  0  0
 17 10  1  0  0  0  0
 18  4  2  0  0  0  0
 18 20  1  0  0  0  0
 19  6  1  6  0  0  0
 19  3  1  0  0  0  0
 20 11  1  1  0  0  0
 21 23  2  0  0  0  0
 22 24  1  0  0  0  0
 23  4  1  0  0  0  0
 25 14  1  6  0  0  0
 25 17  1  0  0  0  0
 25  9  1  0  0  0  0
 26 21  1  0  0  0  0
 26  1  2  0  0  0  0
 27  1  1  0  0  0  0
 29 28  1  0  0  0  0
 30 34  1  0  0  0  0
 30 33  1  0  0  0  0
 32 31  1  0  0  0  0
 32 29  1  1  0  0  0
 33 31  1  0  0  0  0
 34 32  1  0  0  0  0
M  END
>  <MODEL>
3

>  <REMARK>
 VINA RESULT:      -7.1      1.297      1.654
  Name = 
  3 active torsions:
  status: ('A' for Active; 'I' for Inactive)
    1  A    between atoms: C_17  and  O_28
    2  A    between atoms: O_28  and  C_29
    3  A    between atoms: C_29  and  C_32
                            x       y       z     vdW  Elec       q    Type
                         _______ _______ _______ _____ _____    ______ ____

>  <TORSDO>
F 3

$$$$
=
 OpenBabel11122412043D

 34 41  0  0  1  0  0  0  0  0999 V2000
  186.3060  178.3840  139.4520 C   0  0  0  0  0  0  0  0  0  0  0  0
  188.1030  177.7120  137.7940 C   0  0  0  0  0  2  0  0  0  0  0  0
  179.8210  178.7800  141.2070 C   0  0  2  0  0  3  0  0  0  0  0  0
  184.5280  178.6570  141.0500 C   0  0  0  0  0  0  0  0  0  0  0  0
  182.1490  177.8490  140.5180 C   0  0  1  0  0  3  0  0  0  0  0  0
  180.9860  179.8870  139.8280 O   0  0  0  0  0  0  0  0  0  0  0  0
  180.0480  180.2220  140.8230 C   0  0  0  0  0  2  0  0  0  0  0  0
  181.4320  179.2390  143.2030 C   0  0  0  0  0  2  0  0  0  0  0  0
  185.8260  177.9940  137.0060 C   0  0  2  0  0  3  0  0  0  0  0  0
  184.8280  175.5240  135.1080 C   0  0  0  0  0  2  0  0  0  0  0  0
  182.8170  177.1900  139.3030 C   0  0  0  0  0  2  0  0  0  0  0  0
  182.7540  178.5830  142.8390 C   0  0  0  0  0  2  0  0  0  0  0  0
  184.4990  177.3470  137.4550 C   0  0  1  0  0  3  0  0  0  0  0  0
  188.0770  177.3320  136.3220 C   0  0  0  0  0  2  0  0  0  0  0  0
  183.0550  178.7760  141.3610 C   0  0  1  0  0  3  0  0  0  0  0  0
  180.2440  178.4470  142.6550 C   0  0  0  0  0  2  0  0  0  0  0  0
  186.2020  175.7360  135.7680 C   0  0  1  0  0  3  0  0  0  0  0  0
  184.9380  178.3620  139.7430 C   0  0  0  0  0  0  0  0  0  0  0  0
  180.8270  178.5170  140.1030 C   0  0  2  0  0  3  0  0  0  0  0  0
  183.9050  178.0620  138.6810 C   0  0  2  0  0  3  0  0  0  0  0  0
  186.7900  178.9340  141.7000 C   0  0  0  0  0  3  0  0  0  0  0  0
  183.9820  176.7930  134.9850 C   0  0  0  0  0  2  0  0  0  0  0  0
  185.4640  178.9500  141.9950 N   0  0  0  0  0  0  0  0  0  0  0  0
  183.4540  177.3000  136.3300 C   0  0  0  0  0  2  0  0  0  0  0  0
  186.6060  177.2200  135.9280 C   0  0  1  0  0  3  0  0  0  0  0  0
  187.2040  178.6510  140.4370 N   0  0  0  0  0  0  0  0  0  0  0  0
  186.7480  178.1060  138.1210 N   0  0  0  0  0  0  0  0  0  0  0  0
  186.2540  175.0560  136.9900 O   0  0  0  0  0  0  0  0  0  0  0  0
  187.0820  173.9550  136.7620 C   0  0  0  0  0  2  0  0  0  0  0  0
  183.9670  172.4370  137.0220 C   0  0  0  0  0  2  0  0  0  0  0  0
  185.9190  171.9320  135.8910 C   0  0  0  0  0  2  0  0  0  0  0  0
  186.3560  172.6760  137.1360 C   0  0  2  0  0  3  0  0  0  0  0  0
  184.5570  171.4730  136.1060 N   0  0  0  0  0  2  0  0  0  0  0  0
  185.0820  173.0070  137.8720 C   0  0  0  0  0  2  0  0  0  0  0  0
  1 18  2  0  0  0  0
  1 26  1  0  0  0  0
  2 27  1  0  0  0  0
  3  7  1  1  0  0  0
  3 16  1  0  0  0  0
  4 15  1  0  0  0  0
  4 23  2  0  0  0  0
  5 11  1  6  0  0  0
  5 15  1  0  0  0  0
  6  7  1  0  0  0  0
  9 13  1  0  0  0  0
  9 27  1  1  0  0  0
 10 17  1  0  0  0  0
 12  8  1  0  0  0  0
 13 24  1  6  0  0  0
 13 20  1  0  0  0  0
 14  2  1  0  0  0  0
 15 12  1  1  0  0  0
 16  8  1  0  0  0  0
 17 25  1  0  0  0  0
 17 28  1  1  0  0  0
 18  4  1  0  0  0  0
 19  6  1  1  0  0  0
 19  5  1  0  0  0  0
 19  3  1  0  0  0  0
 20 11  1  1  0  0  0
 20 18  1  0  0  0  0
 21 23  1  0  0  0  0
 22 10  1  0  0  0  0
 22 24  1  0  0  0  0
 25 14  1  1  0  0  0
 25  9  1  0  0  0  0
 26 21  2  0  0  0  0
 27  1  1  0  0  0  0
 29 28  1  0  0  0  0
 30 34  1  0  0  0  0
 31 33  1  0  0  0  0
 31 32  1  0  0  0  0
 32 29  1  6  0  0  0
 32 34  1  0  0  0  0
 33 30  1  0  0  0  0
M  END
>  <MODEL>
4

>  <REMARK>
 VINA RESULT:      -7.0      3.291      5.878
  Name = 
  3 active torsions:
  status: ('A' for Active; 'I' for Inactive)
    1  A    between atoms: C_17  and  O_28
    2  A    between atoms: O_28  and  C_29
    3  A    between atoms: C_29  and  C_32
                            x       y       z     vdW  Elec       q    Type
                         _______ _______ _______ _____ _____    ______ ____

>  <TORSDO>
F 3

$$$$
=
 OpenBabel11122412043D

 34 41  0  0  1  0  0  0  0  0999 V2000
  187.1710  178.2820  140.2100 C   0  0  0  0  0  0  0  0  0  0  0  0
  189.4990  177.5740  139.4980 C   0  0  0  0  0  2  0  0  0  0  0  0
  180.7250  179.5200  138.7230 C   0  0  2  0  0  3  0  0  0  0  0  0
  184.8590  178.6080  140.7910 C   0  0  0  0  0  0  0  0  0  0  0  0
  183.0090  178.3170  139.0330 C   0  0  1  0  0  3  0  0  0  0  0  0
  182.5020  180.6080  138.3430 O   0  0  0  0  0  0  0  0  0  0  0  0
  181.2200  180.9430  138.8210 C   0  0  0  0  0  2  0  0  0  0  0  0
  181.1550  179.3780  141.2900 C   0  0  0  0  0  2  0  0  0  0  0  0
  187.9470  178.3650  137.8110 C   0  0  2  0  0  3  0  0  0  0  0  0
  187.8480  176.4300  135.1750 C   0  0  0  0  0  2  0  0  0  0  0  0
  184.1430  177.7490  138.1680 C   0  0  0  0  0  2  0  0  0  0  0  0
  182.4300  178.5670  141.4600 C   0  0  0  0  0  2  0  0  0  0  0  0
  186.5290  177.8960  137.4230 C   0  0  1  0  0  3  0  0  0  0  0  0
  190.1830  177.4370  138.1470 C   0  0  0  0  0  2  0  0  0  0  0  0
  183.4410  178.9310  140.3850 C   0  0  1  0  0  3  0  0  0  0  0  0
  180.3430  178.8990  140.0850 C   0  0  0  0  0  2  0  0  0  0  0  0
  188.7210  176.2960  136.4360 C   0  0  1  0  0  3  0  0  0  0  0  0
  185.8430  178.4530  139.8050 C   0  0  0  0  0  0  0  0  0  0  0  0
  182.1250  179.2610  138.2000 C   0  0  2  0  0  3  0  0  0  0  0  0
  185.4580  178.5050  138.3450 C   0  0  2  0  0  3  0  0  0  0  0  0
  186.5090  178.3850  142.4770 C   0  0  0  0  0  3  0  0  0  0  0  0
  187.2730  177.8300  134.9490 C   0  0  0  0  0  2  0  0  0  0  0  0
  185.2180  178.5850  142.1040 N   0  0  0  0  0  0  0  0  0  0  0  0
  186.1850  178.2070  135.9580 C   0  0  0  0  0  2  0  0  0  0  0  0
  189.1010  177.6440  137.0900 C   0  0  1  0  0  3  0  0  0  0  0  0
  187.4750  178.2330  141.5340 N   0  0  0  0  0  0  0  0  0  0  0  0
  188.1960  178.1410  139.2230 N   0  0  0  0  0  0  0  0  0  0  0  0
  188.1050  175.4360  137.3520 O   0  0  0  0  0  0  0  0  0  0  0  0
  187.3700  174.5390  136.5750 C   0  0  0  0  0  2  0  0  0  0  0  0
  184.1880  173.2350  136.0680 C   0  0  0  0  0  2  0  0  0  0  0  0
  185.8770  172.8250  137.5940 C   0  0  0  0  0  2  0  0  0  0  0  0
  186.0180  174.2850  137.2190 C   0  0  2  0  0  3  0  0  0  0  0  0
  184.5450  172.3950  137.2020 N   0  0  0  0  0  2  0  0  0  0  0  0
  184.9180  174.5510  136.2220 C   0  0  0  0  0  2  0  0  0  0  0  0
  1 26  1  0  0  0  0
  3  7  1  1  0  0  0
  3 16  1  0  0  0  0
  4 23  2  0  0  0  0
  5 11  1  6  0  0  0
  5 15  1  0  0  0  0
  6  7  1  0  0  0  0
  8 12  1  0  0  0  0
  9 27  1  1  0  0  0
 10 17  1  0  0  0  0
 13 24  1  6  0  0  0
 13  9  1  0  0  0  0
 13 20  1  0  0  0  0
 14  2  1  0  0  0  0
 15  4  1  0  0  0  0
 15 12  1  1  0  0  0
 16  8  1  0  0  0  0
 17 25  1  0  0  0  0
 17 28  1  1  0  0  0
 18  1  2  0  0  0  0
 18  4  1  0  0  0  0
 19  6  1  1  0  0  0
 19  3  1  0  0  0  0
 19  5  1  0  0  0  0
 20 11  1  1  0  0  0
 20 18  1  0  0  0  0
 22 10  1  0  0  0  0
 22 24  1  0  0  0  0
 23 21  1  0  0  0  0
 25  9  1  0  0  0  0
 25 14  1  1  0  0  0
 26 21  2  0  0  0  0
 27  2  1  0  0  0  0
 27  1  1  0  0  0  0
 29 28  1  0  0  0  0
 30 34  1  0  0  0  0
 30 33  1  0  0  0  0
 32 29  1  6  0  0  0
 32 31  1  0  0  0  0
 33 31  1  0  0  0  0
 34 32  1  0  0  0  0
M  END
>  <MODEL>
5

>  <REMARK>
 VINA RESULT:      -6.9      3.089      6.572
  Name = 
  3 active torsions:
  status: ('A' for Active; 'I' for Inactive)
    1  A    between atoms: C_17  and  O_28
    2  A    between atoms: O_28  and  C_29
    3  A    between atoms: C_29  and  C_32
                            x       y       z     vdW  Elec       q    Type
                         _______ _______ _______ _____ _____    ______ ____

>  <TORSDO>
F 3

$$$$
=
 OpenBabel11122412043D

 34 41  0  0  1  0  0  0  0  0999 V2000
  185.8040  177.1880  136.9290 C   0  0  0  0  0  0  0  0  0  0  0  0
  187.5640  178.9680  137.3350 C   0  0  0  0  0  2  0  0  0  0  0  0
  184.1110  170.7380  136.0230 C   0  0  2  0  0  3  0  0  0  0  0  0
  184.2300  175.3690  136.8800 C   0  0  0  0  0  0  0  0  0  0  0  0
  185.0290  172.9350  137.0670 C   0  0  1  0  0  3  0  0  0  0  0  0
  185.0410  172.1510  134.7500 O   0  0  0  0  0  0  0  0  0  0  0  0
  184.0050  171.2100  134.5940 C   0  0  0  0  0  2  0  0  0  0  0  0
  182.0490  172.2610  136.4960 C   0  0  0  0  0  2  0  0  0  0  0  0
  188.2520  176.8210  136.4400 C   0  0  2  0  0  3  0  0  0  0  0  0
  190.8600  175.5840  137.9790 C   0  0  0  0  0  2  0  0  0  0  0  0
  186.3820  173.5740  137.4110 C   0  0  0  0  0  2  0  0  0  0  0  0
  182.5870  173.4880  137.2150 C   0  0  0  0  0  2  0  0  0  0  0  0
  188.0550  175.3820  136.9630 C   0  0  1  0  0  3  0  0  0  0  0  0
  189.0800  178.9830  137.2210 C   0  0  0  0  0  2  0  0  0  0  0  0
  183.9180  173.9140  136.6190 C   0  0  1  0  0  3  0  0  0  0  0  0
  182.8410  171.0050  136.8620 C   0  0  0  0  0  2  0  0  0  0  0  0
  190.1470  176.9270  138.2210 C   0  0  1  0  0  3  0  0  0  0  0  0
  185.5560  175.8160  136.8110 C   0  0  0  0  0  0  0  0  0  0  0  0
  185.2260  171.7640  136.0890 C   0  0  2  0  0  3  0  0  0  0  0  0
  186.6730  174.8250  136.5830 C   0  0  2  0  0  3  0  0  0  0  0  0
  183.4920  177.5970  137.2060 C   0  0  0  0  0  3  0  0  0  0  0  0
  190.5790  174.9550  136.6140 C   0  0  0  0  0  2  0  0  0  0  0  0
  183.2280  176.2730  137.0610 N   0  0  0  0  0  0  0  0  0  0  0  0
  189.1510  174.4220  136.4750 C   0  0  0  0  0  2  0  0  0  0  0  0
  189.5110  177.5430  136.9530 C   0  0  1  0  0  3  0  0  0  0  0  0
  184.7720  178.0480  137.1420 N   0  0  0  0  0  0  0  0  0  0  0  0
  187.1470  177.6710  136.8430 N   0  0  0  0  0  0  0  0  0  0  0  0
  189.2090  176.7890  139.2510 O   0  0  0  0  0  0  0  0  0  0  0  0
  189.9640  176.6830  140.4200 C   0  0  0  0  0  2  0  0  0  0  0  0
  187.1010  178.2200  141.6540 C   0  0  0  0  0  2  0  0  0  0  0  0
  188.7360  176.8740  142.5800 C   0  0  0  0  0  2  0  0  0  0  0  0
  189.4260  177.6390  141.4700 C   0  0  2  0  0  3  0  0  0  0  0  0
  187.4980  177.5670  142.8910 N   0  0  0  0  0  2  0  0  0  0  0  0
  188.3580  178.5150  140.8650 C   0  0  0  0  0  2  0  0  0  0  0  0
  1 26  1  0  0  0  0
  3  7  1  6  0  0  0
  3 19  1  0  0  0  0
  3 16  1  0  0  0  0
  4 23  2  0  0  0  0
  5 11  1  6  0  0  0
  7  6  1  0  0  0  0
  8 16  1  0  0  0  0
  8 12  1  0  0  0  0
  9 27  1  1  0  0  0
  9 25  1  0  0  0  0
  9 13  1  0  0  0  0
 10 17  1  0  0  0  0
 13 24  1  6  0  0  0
 14  2  1  0  0  0  0
 15  4  1  0  0  0  0
 15  5  1  0  0  0  0
 15 12  1  1  0  0  0
 17 28  1  1  0  0  0
 18  4  1  0  0  0  0
 18  1  2  0  0  0  0
 19  6  1  6  0  0  0
 19  5  1  0  0  0  0
 20 18  1  0  0  0  0
 20 13  1  0  0  0  0
 20 11  1  1  0  0  0
 22 10  1  0  0  0  0
 23 21  1  0  0  0  0
 24 22  1  0  0  0  0
 25 14  1  1  0  0  0
 25 17  1  0  0  0  0
 26 21  2  0  0  0  0
 27  1  1  0  0  0  0
 27  2  1  0  0  0  0
 28 29  1  0  0  0  0
 30 33  1  0  0  0  0
 31 33  1  0  0  0  0
 32 29  1  6  0  0  0
 32 31  1  0  0  0  0
 34 32  1  0  0  0  0
 34 30  1  0  0  0  0
M  END
>  <MODEL>
6

>  <REMARK>
 VINA RESULT:      -6.5      3.664      9.116
  Name = 
  3 active torsions:
  status: ('A' for Active; 'I' for Inactive)
    1  A    between atoms: C_17  and  O_28
    2  A    between atoms: O_28  and  C_29
    3  A    between atoms: C_29  and  C_32
                            x       y       z     vdW  Elec       q    Type
                         _______ _______ _______ _____ _____    ______ ____

>  <TORSDO>
F 3

$$$$
=
 OpenBabel11122412043D

 34 41  0  0  1  0  0  0  0  0999 V2000
  188.2300  178.0020  140.2900 C   0  0  0  0  0  0  0  0  0  0  0  0
  188.1480  177.9240  137.7580 C   0  0  0  0  0  2  0  0  0  0  0  0
  185.1070  178.5450  146.2270 C   0  0  2  0  0  3  0  0  0  0  0  0
  188.1080  177.7600  142.6820 C   0  0  0  0  0  0  0  0  0  0  0  0
  185.8380  177.6960  143.8820 C   0  0  1  0  0  3  0  0  0  0  0  0
  185.5690  179.9720  144.7330 O   0  0  0  0  0  0  0  0  0  0  0  0
  185.6810  179.9380  146.1370 C   0  0  0  0  0  2  0  0  0  0  0  0
  187.5730  177.7330  146.4600 C   0  0  0  0  0  2  0  0  0  0  0  0
  186.2860  178.9070  138.9610 C   0  0  2  0  0  3  0  0  0  0  0  0
  183.3840  177.8350  137.8970 C   0  0  0  0  0  2  0  0  0  0  0  0
  185.2700  177.5980  142.4590 C   0  0  0  0  0  2  0  0  0  0  0  0
  187.9470  177.1290  145.1160 C   0  0  0  0  0  2  0  0  0  0  0  0
  185.3730  178.3460  140.0710 C   0  0  1  0  0  3  0  0  0  0  0  0
  187.0890  178.3010  136.7340 C   0  0  0  0  0  2  0  0  0  0  0  0
  187.3610  177.9510  143.9800 C   0  0  1  0  0  3  0  0  0  0  0  0
  186.0970  177.5000  146.7880 C   0  0  0  0  0  2  0  0  0  0  0  0
  184.7900  177.4840  137.3770 C   0  0  1  0  0  3  0  0  0  0  0  0
  187.4760  178.0640  141.4680 C   0  0  0  0  0  0  0  0  0  0  0  0
  185.0090  178.6820  144.7200 C   0  0  2  0  0  3  0  0  0  0  0  0
  186.0230  178.4750  141.4600 C   0  0  2  0  0  3  0  0  0  0  0  0
  190.1310  177.3300  141.5250 C   0  0  0  0  0  3  0  0  0  0  0  0
  183.3160  179.1260  138.7160 C   0  0  0  0  0  2  0  0  0  0  0  0
  189.4250  177.4150  142.6820 N   0  0  0  0  0  0  0  0  0  0  0  0
  183.9870  179.0090  140.0870 C   0  0  0  0  0  2  0  0  0  0  0  0
  185.8220  178.6270  137.5200 C   0  0  1  0  0  3  0  0  0  0  0  0
  189.5340  177.6200  140.3400 N   0  0  0  0  0  0  0  0  0  0  0  0
  187.6130  178.3250  139.0420 N   0  0  0  0  0  0  0  0  0  0  0  0
  185.2410  176.3060  137.9820 O   0  0  0  0  0  0  0  0  0  0  0  0
  184.9930  175.2980  137.0480 C   0  0  0  0  0  2  0  0  0  0  0  0
  182.8870  172.6100  136.3990 C   0  0  0  0  0  2  0  0  0  0  0  0
  184.8530  172.8700  137.5880 C   0  0  0  0  0  2  0  0  0  0  0  0
  184.1470  174.2060  137.6800 C   0  0  2  0  0  3  0  0  0  0  0  0
  183.8710  171.8780  137.1820 N   0  0  0  0  0  2  0  0  0  0  0  0
  182.8660  174.0360  136.9030 C   0  0  0  0  0  2  0  0  0  0  0  0
  1 26  2  0  0  0  0
  1 18  1  0  0  0  0
  2 27  1  0  0  0  0
  3  7  1  1  0  0  0
  3 16  1  0  0  0  0
  4 15  1  0  0  0  0
  5 11  1  6  0  0  0
  5 15  1  0  0  0  0
  5 19  1  0  0  0  0
  6  7  1  0  0  0  0
  8 16  1  0  0  0  0
  9 27  1  6  0  0  0
  9 13  1  0  0  0  0
 10 22  1  0  0  0  0
 12  8  1  0  0  0  0
 13 24  1  1  0  0  0
 13 20  1  0  0  0  0
 14  2  1  0  0  0  0
 15 12  1  1  0  0  0
 17 25  1  0  0  0  0
 17 10  1  0  0  0  0
 17 28  1  1  0  0  0
 18  4  2  0  0  0  0
 19  6  1  1  0  0  0
 19  3  1  0  0  0  0
 20 18  1  0  0  0  0
 20 11  1  1  0  0  0
 21 23  2  0  0  0  0
 22 24  1  0  0  0  0
 23  4  1  0  0  0  0
 25 14  1  6  0  0  0
 25  9  1  0  0  0  0
 26 21  1  0  0  0  0
 27  1  1  0  0  0  0
 29 28  1  0  0  0  0
 30 34  1  0  0  0  0
 30 33  1  0  0  0  0
 31 32  1  0  0  0  0
 32 29  1  6  0  0  0
 33 31  1  0  0  0  0
 34 32  1  0  0  0  0
M  END
>  <MODEL>
7

>  <REMARK>
 VINA RESULT:      -6.4      1.781      2.620
  Name = 
  3 active torsions:
  status: ('A' for Active; 'I' for Inactive)
    1  A    between atoms: C_17  and  O_28
    2  A    between atoms: O_28  and  C_29
    3  A    between atoms: C_29  and  C_32
                            x       y       z     vdW  Elec       q    Type
                         _______ _______ _______ _____ _____    ______ ____

>  <TORSDO>
F 3

$$$$
=
 OpenBabel11122412043D

 34 41  0  0  1  0  0  0  0  0999 V2000
  189.6260  177.1250  141.0910 C   0  0  0  0  0  0  0  0  0  0  0  0
  190.8890  176.5740  138.9630 C   0  0  0  0  0  2  0  0  0  0  0  0
  184.0730  179.3210  144.1940 C   0  0  2  0  0  3  0  0  0  0  0  0
  188.1960  177.3740  143.0110 C   0  0  0  0  0  0  0  0  0  0  0  0
  185.7030  177.9240  142.7280 C   0  0  1  0  0  3  0  0  0  0  0  0
  185.5940  180.3340  143.1260 O   0  0  0  0  0  0  0  0  0  0  0  0
  184.9290  180.5540  144.3480 C   0  0  0  0  0  2  0  0  0  0  0  0
  185.7450  178.1670  145.8260 C   0  0  0  0  0  2  0  0  0  0  0  0
  188.9830  178.0690  138.8420 C   0  0  2  0  0  3  0  0  0  0  0  0
  186.9340  177.3140  136.4060 C   0  0  0  0  0  2  0  0  0  0  0  0
  185.9760  177.6500  141.2420 C   0  0  0  0  0  2  0  0  0  0  0  0
  186.6140  177.2610  144.9690 C   0  0  0  0  0  2  0  0  0  0  0  0
  187.5140  177.8940  139.2810 C   0  0  1  0  0  3  0  0  0  0  0  0
  190.6680  176.9180  137.4980 C   0  0  0  0  0  2  0  0  0  0  0  0
  186.9470  177.9340  143.6480 C   0  0  1  0  0  3  0  0  0  0  0  0
  184.3180  178.2530  145.2830 C   0  0  0  0  0  2  0  0  0  0  0  0
  188.2620  176.6380  136.7910 C   0  0  1  0  0  3  0  0  0  0  0  0
  188.4050  177.5380  141.6350 C   0  0  0  0  0  0  0  0  0  0  0  0
  184.8290  179.1790  142.8870 C   0  0  2  0  0  3  0  0  0  0  0  0
  187.3330  178.1780  140.7830 C   0  0  2  0  0  3  0  0  0  0  0  0
  190.3430  176.3950  143.2220 C   0  0  0  0  0  3  0  0  0  0  0  0
  186.7620  178.7310  136.9560 C   0  0  0  0  0  2  0  0  0  0  0  0
  189.1770  176.8190  143.7750 N   0  0  0  0  0  0  0  0  0  0  0  0
  186.5470  178.7700  138.4710 C   0  0  0  0  0  2  0  0  0  0  0  0
  189.3040  177.5970  137.4120 C   0  0  1  0  0  3  0  0  0  0  0  0
  190.5620  176.5460  141.8900 N   0  0  0  0  0  0  0  0  0  0  0  0
  189.8700  177.2990  139.6940 N   0  0  0  0  0  0  0  0  0  0  0  0
  188.0150  175.5400  137.6220 O   0  0  0  0  0  0  0  0  0  0  0  0
  186.7720  175.0490  137.2190 C   0  0  0  0  0  2  0  0  0  0  0  0
  184.9580  172.1910  136.4340 C   0  0  0  0  0  2  0  0  0  0  0  0
  187.0310  173.0070  135.8170 C   0  0  0  0  0  2  0  0  0  0  0  0
  186.7930  173.5310  137.2180 C   0  0  2  0  0  3  0  0  0  0  0  0
  186.1110  171.9040  135.5960 N   0  0  0  0  0  2  0  0  0  0  0  0
  185.4390  173.0000  137.6180 C   0  0  0  0  0  2  0  0  0  0  0  0
  1 18  2  0  0  0  0
  1 26  1  0  0  0  0
  2 27  1  0  0  0  0
  3  7  1  1  0  0  0
  3 16  1  0  0  0  0
  4 15  1  0  0  0  0
  4 23  2  0  0  0  0
  5 11  1  6  0  0  0
  5 19  1  0  0  0  0
  5 15  1  0  0  0  0
  6  7  1  0  0  0  0
  9 13  1  0  0  0  0
  9 27  1  1  0  0  0
 10 17  1  0  0  0  0
 10 22  1  0  0  0  0
 12  8  1  0  0  0  0
 13 24  1  6  0  0  0
 13 20  1  0  0  0  0
 14  2  1  0  0  0  0
 15 12  1  1  0  0  0
 16  8  1  0  0  0  0
 17 25  1  0  0  0  0
 17 28  1  1  0  0  0
 18  4  1  0  0  0  0
 19  6  1  1  0  0  0
 19  3  1  0  0  0  0
 20 11  1  1  0  0  0
 20 18  1  0  0  0  0
 21 23  1  0  0  0  0
 22 24  1  0  0  0  0
 25 14  1  1  0  0  0
 25  9  1  0  0  0  0
 26 21  2  0  0  0  0
 27  1  1  0  0  0  0
 29 28  1  0  0  0  0
 30 34  1  0  0  0  0
 31 32  1  0  0  0  0
 32 29  1  6  0  0  0
 32 34  1  0  0  0  0
 33 31  1  0  0  0  0
 33 30  1  0  0  0  0
M  END
>  <MODEL>
8

>  <REMARK>
 VINA RESULT:      -6.4      2.872      4.725
  Name = 
  3 active torsions:
  status: ('A' for Active; 'I' for Inactive)
    1  A    between atoms: C_17  and  O_28
    2  A    between atoms: O_28  and  C_29
    3  A    between atoms: C_29  and  C_32
                            x       y       z     vdW  Elec       q    Type
                         _______ _______ _______ _____ _____    ______ ____

>  <TORSDO>
F 3

$$$$
=
 OpenBabel11122412043D

 34 41  0  0  1  0  0  0  0  0999 V2000
  183.9390  178.5880  140.9580 C   0  0  0  0  0  0  0  0  0  0  0  0
  181.5060  179.1390  141.4150 C   0  0  0  0  0  2  0  0  0  0  0  0
  188.8610  176.9700  136.6630 C   0  0  2  0  0  3  0  0  0  0  0  0
  186.2510  178.3800  140.3220 C   0  0  0  0  0  0  0  0  0  0  0  0
  186.9250  178.2370  137.8480 C   0  0  1  0  0  3  0  0  0  0  0  0
  187.2650  175.8440  137.4780 O   0  0  0  0  0  0  0  0  0  0  0  0
  188.6410  175.6140  137.2870 C   0  0  0  0  0  2  0  0  0  0  0  0
  189.7640  177.7050  138.9940 C   0  0  0  0  0  2  0  0  0  0  0  0
  182.0790  177.9630  139.3720 C   0  0  2  0  0  3  0  0  0  0  0  0
  180.6320  179.2380  136.7300 C   0  0  0  0  0  2  0  0  0  0  0  0
  185.4560  178.6030  137.5930 C   0  0  0  0  0  2  0  0  0  0  0  0
  188.6670  178.5470  139.6260 C   0  0  0  0  0  2  0  0  0  0  0  0
  183.0500  178.3150  138.2250 C   0  0  1  0  0  3  0  0  0  0  0  0
  180.2270  178.9690  140.6100 C   0  0  0  0  0  2  0  0  0  0  0  0
  187.3000  177.9560  139.3220 C   0  0  1  0  0  3  0  0  0  0  0  0
  189.8040  177.8840  137.4760 C   0  0  0  0  0  2  0  0  0  0  0  0
  180.5000  179.6690  138.2010 C   0  0  1  0  0  3  0  0  0  0  0  0
  184.8950  178.3140  139.9730 C   0  0  0  0  0  0  0  0  0  0  0  0
  187.3690  177.1170  136.8920 C   0  0  2  0  0  3  0  0  0  0  0  0
  184.4980  177.9230  138.5690 C   0  0  2  0  0  3  0  0  0  0  0  0
  185.6550  179.0030  142.5300 C   0  0  0  0  0  3  0  0  0  0  0  0
  181.1640  177.8170  136.5310 C   0  0  0  0  0  2  0  0  0  0  0  0
  186.5980  178.7090  141.5970 N   0  0  0  0  0  0  0  0  0  0  0  0
  182.6460  177.6710  136.8910 C   0  0  0  0  0  2  0  0  0  0  0  0
  180.6480  178.5110  139.2160 C   0  0  1  0  0  3  0  0  0  0  0  0
  184.3370  178.9440  142.2080 N   0  0  0  0  0  0  0  0  0  0  0  0
  182.5490  178.5090  140.6310 N   0  0  0  0  0  0  0  0  0  0  0  0
  181.3940  180.7100  138.4750 O   0  0  0  0  0  0  0  0  0  0  0  0
  180.6000  181.8530  138.5880 C   0  0  0  0  0  2  0  0  0  0  0  0
  180.1070  185.0410  137.2950 C   0  0  0  0  0  2  0  0  0  0  0  0
  181.9590  183.6890  137.5930 C   0  0  0  0  0  2  0  0  0  0  0  0
  180.7990  182.7400  137.3720 C   0  0  2  0  0  3  0  0  0  0  0  0
  181.5510  185.0020  137.1230 N   0  0  0  0  0  2  0  0  0  0  0  0
  179.5910  183.6230  137.1800 C   0  0  0  0  0  2  0  0  0  0  0  0
  1 26  1  0  0  0  0
  3 19  1  0  0  0  0
  3  7  1  1  0  0  0
  3 16  1  0  0  0  0
  4 23  2  0  0  0  0
  5 11  1  1  0  0  0
  5 15  1  0  0  0  0
  7  6  1  0  0  0  0
  8 12  1  0  0  0  0
  9 27  1  1  0  0  0
 10 17  1  0  0  0  0
 13 24  1  6  0  0  0
 13 20  1  0  0  0  0
 13  9  1  0  0  0  0
 14  2  1  0  0  0  0
 15 12  1  1  0  0  0
 15  4  1  0  0  0  0
 16  8  1  0  0  0  0
 17 28  1  1  0  0  0
 17 25  1  0  0  0  0
 18  4  1  0  0  0  0
 18  1  2  0  0  0  0
 19  6  1  1  0  0  0
 19  5  1  0  0  0  0
 20 11  1  6  0  0  0
 20 18  1  0  0  0  0
 22 10  1  0  0  0  0
 22 24  1  0  0  0  0
 23 21  1  0  0  0  0
 25  9  1  0  0  0  0
 25 14  1  1  0  0  0
 26 21  2  0  0  0  0
 27  1  1  0  0  0  0
 27  2  1  0  0  0  0
 28 29  1  0  0  0  0
 32 31  1  0  0  0  0
 32 29  1  1  0  0  0
 33 30  1  0  0  0  0
 33 31  1  0  0  0  0
 34 30  1  0  0  0  0
 34 32  1  0  0  0  0
M  END
>  <MODEL>
9

>  <REMARK>
 VINA RESULT:      -6.2      3.478      6.768
  Name = 
  3 active torsions:
  status: ('A' for Active; 'I' for Inactive)
    1  A    between atoms: C_17  and  O_28
    2  A    between atoms: O_28  and  C_29
    3  A    between atoms: C_29  and  C_32
                            x       y       z     vdW  Elec       q    Type
                         _______ _______ _______ _____ _____    ______ ____

>  <TORSDO>
F 3

$$$$
