=
 OpenBabel11122411323D

 37 43  0  0  1  0  0  0  0  0999 V2000
  190.0200  177.2360  142.9340 C   0  0  0  0  0  0  0  0  0  0  0  0
  186.1170  178.1350  144.0310 C   0  0  0  0  0  0  0  0  0  0  0  0
  183.4700  178.0350  141.3000 O   0  0  0  0  0  0  0  0  0  0  0  0
  188.3610  177.7660  144.7980 C   0  0  0  0  0  0  0  0  0  0  0  0
  185.5180  178.3150  142.7790 C   0  0  0  0  0  0  0  0  0  0  0  0
  187.4430  178.0040  143.8040 C   0  0  0  0  0  0  0  0  0  0  0  0
  184.0190  178.4340  142.5350 C   0  0  0  0  0  0  0  0  0  0  0  0
  187.9070  177.7000  146.0840 N   0  0  0  0  0  0  0  0  0  0  0  0
  187.6850  178.0790  142.4820 C   0  0  0  0  0  0  0  0  0  0  0  0
  189.8070  175.7360  142.8150 C   0  0  0  0  0  1  0  0  0  0  0  0
  184.1860  178.2400  145.6510 C   0  0  0  0  0  2  0  0  0  0  0  0
  186.5700  177.8410  146.3720 C   0  0  0  0  0  3  0  0  0  0  0  0
  189.0790  177.9670  141.9320 C   0  0  0  0  0  2  0  0  0  0  0  0
  184.1260  178.1960  138.9030 C   0  0  1  0  0  3  0  0  0  0  0  0
  184.3070  177.5840  140.2620 C   0  0  1  0  0  3  0  0  0  0  0  0
  185.6290  178.0650  145.3390 C   0  0  0  0  0  0  0  0  0  0  0  0
  186.5230  178.2830  141.8200 N   0  0  0  0  0  0  0  0  0  0  0  0
  189.8170  177.6660  144.4180 C   0  0  0  0  0  2  0  0  0  0  0  0
  183.1600  178.9000  143.4800 C   0  0  0  0  0  0  0  0  0  0  0  0
  191.4510  177.5380  142.5450 C   0  0  0  0  0  1  0  0  0  0  0  0
  185.1020  178.8280  139.9000 C   0  0  1  0  0  3  0  0  0  0  0  0
  186.4570  178.3470  140.3470 C   0  0  0  0  0  2  0  0  0  0  0  0
  183.6270  179.3850  144.8240 C   0  0  0  0  0  2  0  0  0  0  0  0
  180.7910  178.6100  144.2240 C   0  0  0  0  0  3  0  0  0  0  0  0
  181.7010  178.9970  143.2260 C   0  0  0  0  0  0  0  0  0  0  0  0
  181.2040  179.5200  142.0210 C   0  0  0  0  0  3  0  0  0  0  0  0
  179.2270  180.2770  140.2980 Cl  0  0  0  0  0  0  0  0  0  0  0  0
  178.9320  179.2330  142.8050 C   0  0  0  0  0  3  0  0  0  0  0  0
  179.8270  179.6320  141.8090 C   0  0  0  0  0  0  0  0  0  0  0  0
  179.4130  178.7230  144.0130 C   0  0  0  0  0  3  0  0  0  0  0  0
  184.7590  177.3560  137.7760 C   0  0  2  0  0  3  0  0  0  0  0  0
  184.6110  177.8880  136.4920 O   0  0  0  0  0  1  0  0  0  0  0  0
  186.1420  174.9970  136.7890 O   0  0  0  0  0  0  0  0  0  0  0  0
  184.9970  174.8550  137.2950 C   0  0  0  0  0  0  0  0  0  0  0  0
  184.2820  175.9770  137.8220 N   0  0  0  0  0  2  0  0  0  0  0  0
  185.0020  172.7280  138.2850 F   0  0  0  0  0  0  0  0  0  0  0  0
  184.3700  173.5080  137.3320 C   0  0  0  0  0  2  0  0  0  0  0  0
  1 18  1  0  0  0  0
  2 16  1  0  0  0  0
  3  7  1  0  0  0  0
  4  8  2  0  0  0  0
  5  2  2  0  0  0  0
  6  2  1  0  0  0  0
  6  4  1  0  0  0  0
  7  5  1  0  0  0  0
  7 19  2  0  0  0  0
  8 12  1  0  0  0  0
  9  6  2  0  0  0  0
 10  1  1  0  0  0  0
 13  9  1  0  0  0  0
 13  1  1  0  0  0  0
 14 31  1  6  0  0  0
 14 21  1  0  0  0  0
 14 15  1  0  0  0  0
 15  3  1  1  0  0  0
 16 11  1  0  0  0  0
 16 12  2  0  0  0  0
 17  9  1  0  0  0  0
 17  5  1  0  0  0  0
 18  4  1  0  0  0  0
 19 23  1  0  0  0  0
 20  1  1  0  0  0  0
 21 15  1  0  0  0  0
 21 22  1  6  0  0  0
 22 17  1  0  0  0  0
 23 11  1  0  0  0  0
 25 19  1  0  0  0  0
 25 24  2  0  0  0  0
 26 25  1  0  0  0  0
 27 29  1  0  0  0  0
 28 30  2  0  0  0  0
 29 26  2  0  0  0  0
 29 28  1  0  0  0  0
 30 24  1  0  0  0  0
 31 32  1  6  0  0  0
 31 35  1  0  0  0  0
 33 34  2  0  0  0  0
 34 37  1  0  0  0  0
 34 35  1  0  0  0  0
 37 36  1  0  0  0  0
M  END
>  <MODEL>
1

>  <REMARK>
 VINA RESULT:      -9.6      0.000      0.000
  Name = 
  4 active torsions:
  status: ('A' for Active; 'I' for Inactive)
    1  A    between atoms: C_4  and  C_37
    2  A    between atoms: C_8  and  N_12
    3  A    between atoms: C_8  and  C_18
    4  A    between atoms: C_23  and  C_30
                            x       y       z     vdW  Elec       q    Type
                         _______ _______ _______ _____ _____    ______ ____

>  <TORSDO>
F 4

$$$$
=
 OpenBabel11122411323D

 37 43  0  0  1  0  0  0  0  0999 V2000
  188.3600  177.6090  147.7120 C   0  0  0  0  0  0  0  0  0  0  0  0
  189.2510  177.6180  143.6570 C   0  0  0  0  0  0  0  0  0  0  0  0
  186.5320  178.8070  141.2760 O   0  0  0  0  0  0  0  0  0  0  0  0
  190.0960  177.2680  145.8750 C   0  0  0  0  0  0  0  0  0  0  0  0
  187.9780  177.7860  143.1000 C   0  0  0  0  0  0  0  0  0  0  0  0
  189.0660  177.4270  144.9820 C   0  0  0  0  0  0  0  0  0  0  0  0
  187.6980  178.1020  141.6360 C   0  0  0  0  0  0  0  0  0  0  0  0
  191.3710  177.2620  145.3850 N   0  0  0  0  0  0  0  0  0  0  0  0
  187.7510  177.4850  145.2670 C   0  0  0  0  0  0  0  0  0  0  0  0
  188.4720  179.1130  147.9000 C   0  0  0  0  0  1  0  0  0  0  0  0
  190.8080  177.7890  141.6790 C   0  0  0  0  0  2  0  0  0  0  0  0
  191.6160  177.4380  144.0430 C   0  0  0  0  0  3  0  0  0  0  0  0
  187.2450  177.3060  146.6700 C   0  0  0  0  0  2  0  0  0  0  0  0
  184.1480  178.8310  141.9960 C   0  0  1  0  0  3  0  0  0  0  0  0
  185.5880  179.1690  142.2550 C   0  0  1  0  0  3  0  0  0  0  0  0
  190.5480  177.6220  143.1330 C   0  0  0  0  0  0  0  0  0  0  0  0
  187.0490  177.6920  144.1290 N   0  0  0  0  0  0  0  0  0  0  0  0
  189.7570  177.0360  147.3260 C   0  0  0  0  0  2  0  0  0  0  0  0
  188.5480  177.7450  140.6370 C   0  0  0  0  0  0  0  0  0  0  0  0
  187.9490  177.0020  149.0360 C   0  0  0  0  0  1  0  0  0  0  0  0
  185.0490  177.8260  142.7210 C   0  0  1  0  0  3  0  0  0  0  0  0
  185.5840  177.8630  144.1290 C   0  0  0  0  0  2  0  0  0  0  0  0
  189.8070  176.9640  140.8900 C   0  0  0  0  0  2  0  0  0  0  0  0
  189.2120  178.7760  138.4580 C   0  0  0  0  0  3  0  0  0  0  0  0
  188.2620  178.0740  139.2180 C   0  0  0  0  0  0  0  0  0  0  0  0
  187.0760  177.6490  138.5960 C   0  0  0  0  0  3  0  0  0  0  0  0
  185.3480  177.4120  136.4960 Cl  0  0  0  0  0  0  0  0  0  0  0  0
  187.7830  178.6500  136.5090 C   0  0  0  0  0  3  0  0  0  0  0  0
  186.8350  177.9410  137.2510 C   0  0  0  0  0  0  0  0  0  0  0  0
  188.9720  179.0670  137.1110 C   0  0  0  0  0  3  0  0  0  0  0  0
  183.1740  179.6300  142.8840 C   0  0  2  0  0  3  0  0  0  0  0  0
  183.7340  180.1380  144.0600 O   0  0  0  0  0  1  0  0  0  0  0  0
  180.4200  180.5500  142.7690 O   0  0  0  0  0  0  0  0  0  0  0  0
  180.6420  179.3640  143.1300 C   0  0  0  0  0  0  0  0  0  0  0  0
  181.9760  178.8490  143.1780 N   0  0  0  0  0  2  0  0  0  0  0  0
  179.9800  177.4310  144.2820 F   0  0  0  0  0  0  0  0  0  0  0  0
  179.5070  178.4900  143.5270 C   0  0  0  0  0  2  0  0  0  0  0  0
  1 10  1  0  0  0  0
  1 20  1  0  0  0  0
  2  6  1  0  0  0  0
  3  7  1  0  0  0  0
  4 18  1  0  0  0  0
  5  2  2  0  0  0  0
  5 17  1  0  0  0  0
  6  9  2  0  0  0  0
  6  4  1  0  0  0  0
  7  5  1  0  0  0  0
  8  4  2  0  0  0  0
  9 13  1  0  0  0  0
 11 16  1  0  0  0  0
 12  8  1  0  0  0  0
 13  1  1  0  0  0  0
 14 15  1  0  0  0  0
 14 21  1  0  0  0  0
 14 31  1  1  0  0  0
 15  3  1  6  0  0  0
 15 21  1  0  0  0  0
 16  2  1  0  0  0  0
 16 12  2  0  0  0  0
 17  9  1  0  0  0  0
 18  1  1  0  0  0  0
 19 23  1  0  0  0  0
 19  7  2  0  0  0  0
 21 22  1  1  0  0  0
 22 17  1  0  0  0  0
 23 11  1  0  0  0  0
 24 25  1  0  0  0  0
 25 19  1  0  0  0  0
 26 25  2  0  0  0  0
 27 29  1  0  0  0  0
 28 30  1  0  0  0  0
 28 29  2  0  0  0  0
 29 26  1  0  0  0  0
 30 24  2  0  0  0  0
 31 35  1  0  0  0  0
 31 32  1  1  0  0  0
 33 34  2  0  0  0  0
 34 35  1  0  0  0  0
 34 37  1  0  0  0  0
 37 36  1  0  0  0  0
M  END
>  <MODEL>
2

>  <REMARK>
 VINA RESULT:      -9.6      3.148      6.530
  Name = 
  4 active torsions:
  status: ('A' for Active; 'I' for Inactive)
    1  A    between atoms: C_4  and  C_37
    2  A    between atoms: C_8  and  N_12
    3  A    between atoms: C_8  and  C_18
    4  A    between atoms: C_23  and  C_30
                            x       y       z     vdW  Elec       q    Type
                         _______ _______ _______ _____ _____    ______ ____

>  <TORSDO>
F 4

$$$$
=
 OpenBabel11122411323D

 37 43  0  0  1  0  0  0  0  0999 V2000
  187.3870  177.7160  136.3760 C   0  0  0  0  0  0  0  0  0  0  0  0
  189.0810  177.3940  140.1540 C   0  0  0  0  0  0  0  0  0  0  0  0
  186.7660  177.8020  143.1450 O   0  0  0  0  0  0  0  0  0  0  0  0
  189.4470  177.2020  137.7900 C   0  0  0  0  0  0  0  0  0  0  0  0
  188.0540  177.9030  140.9560 C   0  0  0  0  0  0  0  0  0  0  0  0
  188.7070  177.6090  138.8730 C   0  0  0  0  0  0  0  0  0  0  0  0
  188.0060  177.8170  142.4760 C   0  0  0  0  0  0  0  0  0  0  0  0
  190.6420  176.5850  138.0280 N   0  0  0  0  0  0  0  0  0  0  0  0
  187.5010  178.2060  138.8490 C   0  0  0  0  0  0  0  0  0  0  0  0
  186.7150  176.3530  136.3900 C   0  0  0  0  0  1  0  0  0  0  0  0
  190.7780  176.5310  141.8100 C   0  0  0  0  0  2  0  0  0  0  0  0
  191.0780  176.3540  139.3120 C   0  0  0  0  0  3  0  0  0  0  0  0
  186.8320  178.5700  137.5540 C   0  0  0  0  0  2  0  0  0  0  0  0
  184.5710  178.9500  142.8920 C   0  0  1  0  0  3  0  0  0  0  0  0
  185.5660  177.9290  142.4210 C   0  0  1  0  0  3  0  0  0  0  0  0
  190.2980  176.7590  140.4220 C   0  0  0  0  0  0  0  0  0  0  0  0
  187.0730  178.4160  140.1150 N   0  0  0  0  0  0  0  0  0  0  0  0
  188.9330  177.5250  136.4100 C   0  0  0  0  0  2  0  0  0  0  0  0
  189.1290  177.7330  143.2380 C   0  0  0  0  0  0  0  0  0  0  0  0
  187.0220  178.4040  135.0790 C   0  0  0  0  0  1  0  0  0  0  0  0
  185.6460  179.3450  141.8750 C   0  0  1  0  0  3  0  0  0  0  0  0
  185.7520  179.0010  140.4130 C   0  0  0  0  0  2  0  0  0  0  0  0
  190.5100  177.7710  142.6450 C   0  0  0  0  0  2  0  0  0  0  0  0
  187.8470  177.8880  145.3790 C   0  0  0  0  0  3  0  0  0  0  0  0
  189.0610  177.6370  144.7180 C   0  0  0  0  0  0  0  0  0  0  0  0
  190.1780  177.2460  145.4750 C   0  0  0  0  0  3  0  0  0  0  0  0
  191.4930  176.6530  147.7930 Cl  0  0  0  0  0  0  0  0  0  0  0  0
  188.8790  177.3960  147.5120 C   0  0  0  0  0  3  0  0  0  0  0  0
  190.0890  177.1320  146.8650 C   0  0  0  0  0  0  0  0  0  0  0  0
  187.7580  177.7730  146.7700 C   0  0  0  0  0  3  0  0  0  0  0  0
  183.1570  178.7170  142.3260 C   0  0  2  0  0  3  0  0  0  0  0  0
  182.1330  178.7230  143.2780 O   0  0  0  0  0  1  0  0  0  0  0  0
  182.0780  178.4310  139.6420 O   0  0  0  0  0  0  0  0  0  0  0  0
  182.5400  177.4100  140.2150 C   0  0  0  0  0  0  0  0  0  0  0  0
  183.1090  177.4970  141.5250 N   0  0  0  0  0  2  0  0  0  0  0  0
  183.5000  176.0050  138.6000 F   0  0  0  0  0  0  0  0  0  0  0  0
  182.4810  176.0910  139.5320 C   0  0  0  0  0  2  0  0  0  0  0  0
  1 10  1  0  0  0  0
  1 18  1  0  0  0  0
  1 13  1  0  0  0  0
  2 16  1  0  0  0  0
  2  5  2  0  0  0  0
  4  8  2  0  0  0  0
  4  6  1  0  0  0  0
  5  7  1  0  0  0  0
  6  2  1  0  0  0  0
  7  3  1  0  0  0  0
  7 19  2  0  0  0  0
  8 12  1  0  0  0  0
  9  6  2  0  0  0  0
  9 17  1  0  0  0  0
 11 23  1  0  0  0  0
 12 16  2  0  0  0  0
 13  9  1  0  0  0  0
 14 31  1  6  0  0  0
 15 14  1  0  0  0  0
 15  3  1  1  0  0  0
 16 11  1  0  0  0  0
 17 22  1  0  0  0  0
 17  5  1  0  0  0  0
 18  4  1  0  0  0  0
 19 25  1  0  0  0  0
 20  1  1  0  0  0  0
 21 22  1  6  0  0  0
 21 15  1  0  0  0  0
 21 14  1  0  0  0  0
 23 19  1  0  0  0  0
 24 30  1  0  0  0  0
 25 24  2  0  0  0  0
 25 26  1  0  0  0  0
 26 29  2  0  0  0  0
 29 28  1  0  0  0  0
 29 27  1  0  0  0  0
 30 28  2  0  0  0  0
 31 32  1  1  0  0  0
 33 34  2  0  0  0  0
 34 35  1  0  0  0  0
 35 31  1  0  0  0  0
 36 37  1  0  0  0  0
 37 34  1  0  0  0  0
M  END
>  <MODEL>
3

>  <REMARK>
 VINA RESULT:      -9.5      3.610      6.874
  Name = 
  4 active torsions:
  status: ('A' for Active; 'I' for Inactive)
    1  A    between atoms: C_4  and  C_37
    2  A    between atoms: C_8  and  N_12
    3  A    between atoms: C_8  and  C_18
    4  A    between atoms: C_23  and  C_30
                            x       y       z     vdW  Elec       q    Type
                         _______ _______ _______ _____ _____    ______ ____

>  <TORSDO>
F 4

$$$$
=
 OpenBabel11122411323D

 37 43  0  0  1  0  0  0  0  0999 V2000
  187.3810  177.6920  136.5950 C   0  0  0  0  0  0  0  0  0  0  0  0
  189.0280  177.4460  140.3990 C   0  0  0  0  0  0  0  0  0  0  0  0
  186.6600  177.8120  143.3530 O   0  0  0  0  0  0  0  0  0  0  0  0
  189.4340  177.2470  138.0420 C   0  0  0  0  0  0  0  0  0  0  0  0
  187.9760  177.9320  141.1830 C   0  0  0  0  0  0  0  0  0  0  0  0
  188.6670  177.6410  139.1110 C   0  0  0  0  0  0  0  0  0  0  0  0
  187.9080  177.8560  142.7020 C   0  0  0  0  0  0  0  0  0  0  0  0
  190.6410  176.6650  138.3020 N   0  0  0  0  0  0  0  0  0  0  0  0
  187.4460  178.2050  139.0650 C   0  0  0  0  0  0  0  0  0  0  0  0
  186.7470  176.3110  136.6100 C   0  0  0  0  0  1  0  0  0  0  0  0
  190.7230  176.6430  142.0870 C   0  0  0  0  0  2  0  0  0  0  0  0
  191.0650  176.4560  139.5940 C   0  0  0  0  0  3  0  0  0  0  0  0
  186.7860  178.5390  137.7580 C   0  0  0  0  0  2  0  0  0  0  0  0
  184.4370  178.8970  143.0600 C   0  0  1  0  0  3  0  0  0  0  0  0
  185.4670  177.9010  142.6120 C   0  0  1  0  0  3  0  0  0  0  0  0
  190.2580  176.8470  140.6900 C   0  0  0  0  0  0  0  0  0  0  0  0
  186.9940  178.4110  140.3230 N   0  0  0  0  0  0  0  0  0  0  0  0
  188.9310  177.5450  136.6520 C   0  0  0  0  0  2  0  0  0  0  0  0
  189.0220  177.8090  143.4810 C   0  0  0  0  0  0  0  0  0  0  0  0
  187.0160  178.3600  135.2870 C   0  0  0  0  0  1  0  0  0  0  0  0
  185.5160  179.3150  142.0560 C   0  0  1  0  0  3  0  0  0  0  0  0
  185.6530  178.9620  140.5980 C   0  0  0  0  0  2  0  0  0  0  0  0
  190.4100  177.8810  142.9080 C   0  0  0  0  0  2  0  0  0  0  0  0
  187.6910  177.8710  145.5970 C   0  0  0  0  0  3  0  0  0  0  0  0
  188.9350  177.7230  144.9600 C   0  0  0  0  0  0  0  0  0  0  0  0
  190.0680  177.4420  145.7420 C   0  0  0  0  0  3  0  0  0  0  0  0
  191.3870  176.9930  148.0890 Cl  0  0  0  0  0  0  0  0  0  0  0  0
  188.7230  177.4950  147.7540 C   0  0  0  0  0  3  0  0  0  0  0  0
  189.9640  177.3340  147.1310 C   0  0  0  0  0  0  0  0  0  0  0  0
  187.5860  177.7620  146.9870 C   0  0  0  0  0  3  0  0  0  0  0  0
  183.0380  178.6210  142.4750 C   0  0  2  0  0  3  0  0  0  0  0  0
  182.7400  179.3270  141.3060 O   0  0  0  0  0  1  0  0  0  0  0  0
  180.1860  178.1590  142.1630 O   0  0  0  0  0  0  0  0  0  0  0  0
  180.6040  178.6080  143.2620 C   0  0  0  0  0  0  0  0  0  0  0  0
  182.0020  178.8270  143.4820 N   0  0  0  0  0  2  0  0  0  0  0  0
  179.0370  180.1490  144.0820 F   0  0  0  0  0  0  0  0  0  0  0  0
  179.6370  178.9300  144.3440 C   0  0  0  0  0  2  0  0  0  0  0  0
  1 10  1  0  0  0  0
  1 18  1  0  0  0  0
  1 13  1  0  0  0  0
  2 16  1  0  0  0  0
  2  5  2  0  0  0  0
  4  8  2  0  0  0  0
  4  6  1  0  0  0  0
  5  7  1  0  0  0  0
  6  2  1  0  0  0  0
  7  3  1  0  0  0  0
  7 19  2  0  0  0  0
  8 12  1  0  0  0  0
  9  6  2  0  0  0  0
  9 17  1  0  0  0  0
 11 23  1  0  0  0  0
 12 16  2  0  0  0  0
 13  9  1  0  0  0  0
 14 31  1  6  0  0  0
 15 14  1  0  0  0  0
 15  3  1  1  0  0  0
 16 11  1  0  0  0  0
 17 22  1  0  0  0  0
 17  5  1  0  0  0  0
 18  4  1  0  0  0  0
 19 25  1  0  0  0  0
 20  1  1  0  0  0  0
 21 22  1  6  0  0  0
 21 15  1  0  0  0  0
 21 14  1  0  0  0  0
 23 19  1  0  0  0  0
 24 30  1  0  0  0  0
 25 24  2  0  0  0  0
 25 26  1  0  0  0  0
 26 29  2  0  0  0  0
 29 28  1  0  0  0  0
 29 27  1  0  0  0  0
 30 28  2  0  0  0  0
 31 32  1  6  0  0  0
 31 35  1  0  0  0  0
 33 34  2  0  0  0  0
 34 35  1  0  0  0  0
 34 37  1  0  0  0  0
 36 37  1  0  0  0  0
M  END
>  <MODEL>
4

>  <REMARK>
 VINA RESULT:      -9.2      3.893      7.325
  Name = 
  4 active torsions:
  status: ('A' for Active; 'I' for Inactive)
    1  A    between atoms: C_4  and  C_37
    2  A    between atoms: C_8  and  N_12
    3  A    between atoms: C_8  and  C_18
    4  A    between atoms: C_23  and  C_30
                            x       y       z     vdW  Elec       q    Type
                         _______ _______ _______ _____ _____    ______ ____

>  <TORSDO>
F 4

$$$$
=
 OpenBabel11122411323D

 37 43  0  0  1  0  0  0  0  0999 V2000
  188.2570  177.3370  136.3510 C   0  0  0  0  0  0  0  0  0  0  0  0
  188.6290  177.5510  140.4810 C   0  0  0  0  0  0  0  0  0  0  0  0
  185.4310  177.9460  142.5030 O   0  0  0  0  0  0  0  0  0  0  0  0
  189.7700  177.1960  138.4000 C   0  0  0  0  0  0  0  0  0  0  0  0
  187.3560  178.0040  140.8450 C   0  0  0  0  0  0  0  0  0  0  0  0
  188.6830  177.6070  139.1310 C   0  0  0  0  0  0  0  0  0  0  0  0
  186.8160  178.0480  142.2690 C   0  0  0  0  0  0  0  0  0  0  0  0
  190.8650  176.7470  139.0800 N   0  0  0  0  0  0  0  0  0  0  0  0
  187.5080  178.0540  138.6510 C   0  0  0  0  0  0  0  0  0  0  0  0
  187.7330  175.9110  136.3150 C   0  0  0  0  0  1  0  0  0  0  0  0
  189.7480  177.0430  142.6850 C   0  0  0  0  0  2  0  0  0  0  0  0
  190.8700  176.6840  140.4540 C   0  0  0  0  0  3  0  0  0  0  0  0
  187.2760  178.2200  137.1760 C   0  0  0  0  0  2  0  0  0  0  0  0
  183.3550  178.8010  141.4240 C   0  0  1  0  0  3  0  0  0  0  0  0
  184.5310  177.8670  141.4240 C   0  0  1  0  0  3  0  0  0  0  0  0
  189.7370  177.0900  141.1990 C   0  0  0  0  0  0  0  0  0  0  0  0
  186.6700  178.3220  139.6790 N   0  0  0  0  0  0  0  0  0  0  0  0
  189.7160  177.3330  136.8990 C   0  0  0  0  0  2  0  0  0  0  0  0
  187.6280  178.1640  143.3540 C   0  0  0  0  0  0  0  0  0  0  0  0
  188.2850  177.8600  134.9310 C   0  0  0  0  0  1  0  0  0  0  0  0
  184.6690  179.2290  140.7640 C   0  0  1  0  0  3  0  0  0  0  0  0
  185.2810  178.7720  139.4660 C   0  0  0  0  0  2  0  0  0  0  0  0
  189.1190  178.3120  143.2330 C   0  0  0  0  0  2  0  0  0  0  0  0
  185.7340  178.5240  144.9460 C   0  0  0  0  0  3  0  0  0  0  0  0
  187.0830  178.1920  144.7340 C   0  0  0  0  0  0  0  0  0  0  0  0
  187.8770  177.8400  145.8380 C   0  0  0  0  0  3  0  0  0  0  0  0
  188.3470  177.4110  148.4930 Cl  0  0  0  0  0  0  0  0  0  0  0  0
  186.0000  178.1860  147.3280 C   0  0  0  0  0  3  0  0  0  0  0  0
  187.3400  177.8430  147.1290 C   0  0  0  0  0  0  0  0  0  0  0  0
  185.1970  178.5260  146.2370 C   0  0  0  0  0  3  0  0  0  0  0  0
  182.2320  178.3550  140.4680 C   0  0  2  0  0  3  0  0  0  0  0  0
  180.9360  178.5130  140.9700 O   0  0  0  0  0  1  0  0  0  0  0  0
  182.1780  177.3940  137.7260 O   0  0  0  0  0  0  0  0  0  0  0  0
  182.3810  176.5620  138.6490 C   0  0  0  0  0  0  0  0  0  0  0  0
  182.4460  176.9840  140.0160 N   0  0  0  0  0  2  0  0  0  0  0  0
  183.8740  174.8460  138.0740 F   0  0  0  0  0  0  0  0  0  0  0  0
  182.5410  175.1210  138.3220 C   0  0  0  0  0  2  0  0  0  0  0  0
  1 18  1  0  0  0  0
  1 13  1  0  0  0  0
  2  5  2  0  0  0  0
  2 16  1  0  0  0  0
  4  8  2  0  0  0  0
  4  6  1  0  0  0  0
  5  7  1  0  0  0  0
  6  2  1  0  0  0  0
  7  3  1  0  0  0  0
  7 19  2  0  0  0  0
  8 12  1  0  0  0  0
  9  6  2  0  0  0  0
  9 17  1  0  0  0  0
 10  1  1  0  0  0  0
 11 23  1  0  0  0  0
 12 16  2  0  0  0  0
 13  9  1  0  0  0  0
 14 31  1  6  0  0  0
 14 15  1  0  0  0  0
 15  3  1  1  0  0  0
 16 11  1  0  0  0  0
 17  5  1  0  0  0  0
 18  4  1  0  0  0  0
 19 25  1  0  0  0  0
 20  1  1  0  0  0  0
 21 22  1  6  0  0  0
 21 14  1  0  0  0  0
 21 15  1  0  0  0  0
 22 17  1  0  0  0  0
 23 19  1  0  0  0  0
 24 30  1  0  0  0  0
 25 24  2  0  0  0  0
 25 26  1  0  0  0  0
 26 29  2  0  0  0  0
 29 28  1  0  0  0  0
 29 27  1  0  0  0  0
 30 28  2  0  0  0  0
 31 32  1  1  0  0  0
 33 34  2  0  0  0  0
 34 35  1  0  0  0  0
 35 31  1  0  0  0  0
 36 37  1  0  0  0  0
 37 34  1  0  0  0  0
M  END
>  <MODEL>
5

>  <REMARK>
 VINA RESULT:      -8.7      3.212      5.708
  Name = 
  4 active torsions:
  status: ('A' for Active; 'I' for Inactive)
    1  A    between atoms: C_4  and  C_37
    2  A    between atoms: C_8  and  N_12
    3  A    between atoms: C_8  and  C_18
    4  A    between atoms: C_23  and  C_30
                            x       y       z     vdW  Elec       q    Type
                         _______ _______ _______ _____ _____    ______ ____

>  <TORSDO>
F 4

$$$$
=
 OpenBabel11122411323D

 37 43  0  0  1  0  0  0  0  0999 V2000
  182.2120  179.1800  138.9370 C   0  0  0  0  0  0  0  0  0  0  0  0
  184.8370  178.5540  142.0930 C   0  0  0  0  0  0  0  0  0  0  0  0
  188.5490  178.4130  141.2740 O   0  0  0  0  0  0  0  0  0  0  0  0
  182.5560  178.9360  141.4530 C   0  0  0  0  0  0  0  0  0  0  0  0
  186.0170  178.2440  141.4080 C   0  0  0  0  0  0  0  0  0  0  0  0
  183.8580  178.6110  141.1630 C   0  0  0  0  0  0  0  0  0  0  0  0
  187.3980  178.1480  142.0420 C   0  0  0  0  0  0  0  0  0  0  0  0
  182.2320  179.1720  142.7580 N   0  0  0  0  0  0  0  0  0  0  0  0
  184.3780  178.3690  139.9450 C   0  0  0  0  0  0  0  0  0  0  0  0
  182.5130  180.6610  138.7760 C   0  0  0  0  0  1  0  0  0  0  0  0
  185.5580  178.7100  144.5060 C   0  0  0  0  0  2  0  0  0  0  0  0
  183.1860  179.1120  143.7470 C   0  0  0  0  0  3  0  0  0  0  0  0
  183.5200  178.3670  138.7120 C   0  0  0  0  0  2  0  0  0  0  0  0
  189.3100  177.9420  138.9500 C   0  0  1  0  0  3  0  0  0  0  0  0
  188.4370  178.7070  139.9020 C   0  0  1  0  0  3  0  0  0  0  0  0
  184.5300  178.7970  143.4360 C   0  0  0  0  0  0  0  0  0  0  0  0
  185.7040  178.1260  140.0580 N   0  0  0  0  0  0  0  0  0  0  0  0
  181.5520  178.9400  140.3280 C   0  0  0  0  0  2  0  0  0  0  0  0
  187.5800  177.8280  143.3510 C   0  0  0  0  0  0  0  0  0  0  0  0
  181.2180  178.7860  137.8660 C   0  0  0  0  0  1  0  0  0  0  0  0
  187.9240  177.4020  139.3150 C   0  0  1  0  0  3  0  0  0  0  0  0
  186.5640  177.8870  138.8840 C   0  0  0  0  0  2  0  0  0  0  0  0
  186.4340  177.4940  144.2650 C   0  0  0  0  0  2  0  0  0  0  0  0
  190.0290  178.3230  143.2850 C   0  0  0  0  0  3  0  0  0  0  0  0
  188.9340  177.7520  143.9530 C   0  0  0  0  0  0  0  0  0  0  0  0
  189.1390  177.1620  145.2120 C   0  0  0  0  0  3  0  0  0  0  0  0
  190.6540  176.3780  147.3430 Cl  0  0  0  0  0  0  0  0  0  0  0  0
  191.5000  177.6860  145.0990 C   0  0  0  0  0  3  0  0  0  0  0  0
  190.4160  177.1240  145.7790 C   0  0  0  0  0  0  0  0  0  0  0  0
  191.3070  178.2860  143.8520 C   0  0  0  0  0  3  0  0  0  0  0  0
  189.4300  178.6180  137.5700 C   0  0  2  0  0  3  0  0  0  0  0  0
  188.7760  179.8480  137.4590 O   0  0  0  0  0  1  0  0  0  0  0  0
  190.9360  176.3810  136.4850 O   0  0  0  0  0  0  0  0  0  0  0  0
  189.8060  176.6390  135.9920 C   0  0  0  0  0  0  0  0  0  0  0  0
  189.0090  177.7110  136.5060 N   0  0  0  0  0  2  0  0  0  0  0  0
  187.9130  175.8260  134.8700 F   0  0  0  0  0  0  0  0  0  0  0  0
  189.2970  175.8330  134.8520 C   0  0  0  0  0  2  0  0  0  0  0  0
  1 18  1  0  0  0  0
  2 16  1  0  0  0  0
  3  7  1  0  0  0  0
  4  8  2  0  0  0  0
  5  7  1  0  0  0  0
  5  2  2  0  0  0  0
  6  4  1  0  0  0  0
  6  2  1  0  0  0  0
  7 19  2  0  0  0  0
  8 12  1  0  0  0  0
  9 17  1  0  0  0  0
  9  6  2  0  0  0  0
 10  1  1  0  0  0  0
 13  1  1  0  0  0  0
 13  9  1  0  0  0  0
 14 31  1  6  0  0  0
 14 21  1  0  0  0  0
 14 15  1  0  0  0  0
 15  3  1  1  0  0  0
 16 12  2  0  0  0  0
 16 11  1  0  0  0  0
 17  5  1  0  0  0  0
 18  4  1  0  0  0  0
 19 25  1  0  0  0  0
 19 23  1  0  0  0  0
 20  1  1  0  0  0  0
 21 22  1  6  0  0  0
 21 15  1  0  0  0  0
 22 17  1  0  0  0  0
 23 11  1  0  0  0  0
 24 30  2  0  0  0  0
 24 25  1  0  0  0  0
 25 26  2  0  0  0  0
 26 29  1  0  0  0  0
 28 29  2  0  0  0  0
 29 27  1  0  0  0  0
 30 28  1  0  0  0  0
 31 32  1  1  0  0  0
 34 33  2  0  0  0  0
 34 35  1  0  0  0  0
 35 31  1  0  0  0  0
 37 36  1  0  0  0  0
 37 34  1  0  0  0  0
M  END
>  <MODEL>
6

>  <REMARK>
 VINA RESULT:      -8.5      3.632      6.928
  Name = 
  4 active torsions:
  status: ('A' for Active; 'I' for Inactive)
    1  A    between atoms: C_4  and  C_37
    2  A    between atoms: C_8  and  N_12
    3  A    between atoms: C_8  and  C_18
    4  A    between atoms: C_23  and  C_30
                            x       y       z     vdW  Elec       q    Type
                         _______ _______ _______ _____ _____    ______ ____

>  <TORSDO>
F 4

$$$$
=
 OpenBabel11122411323D

 37 43  0  0  1  0  0  0  0  0999 V2000
  190.3370  177.2250  143.4890 C   0  0  0  0  0  0  0  0  0  0  0  0
  186.5290  178.1510  142.1170 C   0  0  0  0  0  0  0  0  0  0  0  0
  185.9340  177.9720  138.3640 O   0  0  0  0  0  0  0  0  0  0  0  0
  187.9170  177.8070  144.0450 C   0  0  0  0  0  0  0  0  0  0  0  0
  186.7620  178.2950  140.7450 C   0  0  0  0  0  0  0  0  0  0  0  0
  187.7420  178.0160  142.6990 C   0  0  0  0  0  0  0  0  0  0  0  0
  185.6790  178.4060  139.6800 C   0  0  0  0  0  0  0  0  0  0  0  0
  186.8050  177.7770  144.8360 N   0  0  0  0  0  0  0  0  0  0  0  0
  188.7010  178.0520  141.7550 C   0  0  0  0  0  0  0  0  0  0  0  0
  190.2080  175.7220  143.3040 C   0  0  0  0  0  1  0  0  0  0  0  0
  184.0190  178.3020  142.3280 C   0  0  0  0  0  2  0  0  0  0  0  0
  185.5470  177.9260  144.2990 C   0  0  0  0  0  3  0  0  0  0  0  0
  190.1550  177.9250  142.1110 C   0  0  0  0  0  2  0  0  0  0  0  0
  187.8520  178.0640  136.7780 C   0  0  1  0  0  3  0  0  0  0  0  0
  187.2080  177.4920  138.0080 C   0  0  1  0  0  3  0  0  0  0  0  0
  185.3760  178.1200  142.9080 C   0  0  0  0  0  0  0  0  0  0  0  0
  188.1360  178.2370  140.5400 N   0  0  0  0  0  0  0  0  0  0  0  0
  189.3240  177.6960  144.5750 C   0  0  0  0  0  2  0  0  0  0  0  0
  184.4400  178.8990  139.9470 C   0  0  0  0  0  0  0  0  0  0  0  0
  191.7360  177.5160  143.9870 C   0  0  0  0  0  1  0  0  0  0  0  0
  188.0870  178.7250  138.1400 C   0  0  1  0  0  3  0  0  0  0  0  0
  188.9300  178.2590  139.2970 C   0  0  0  0  0  2  0  0  0  0  0  0
  184.0560  179.4230  141.3030 C   0  0  0  0  0  2  0  0  0  0  0  0
  183.0630  177.8490  138.1440 C   0  0  0  0  0  3  0  0  0  0  0  0
  183.3940  178.9870  138.8980 C   0  0  0  0  0  0  0  0  0  0  0  0
  182.6840  180.1790  138.6750 C   0  0  0  0  0  3  0  0  0  0  0  0
  180.8150  181.7330  137.4330 Cl  0  0  0  0  0  0  0  0  0  0  0  0
  181.3700  179.1020  136.9520 C   0  0  0  0  0  3  0  0  0  0  0  0
  181.6820  180.2380  137.7030 C   0  0  0  0  0  0  0  0  0  0  0  0
  182.0590  177.9070  137.1720 C   0  0  0  0  0  3  0  0  0  0  0  0
  189.0040  177.1920  136.2420 C   0  0  2  0  0  3  0  0  0  0  0  0
  189.4930  177.5710  134.9880 O   0  0  0  0  0  1  0  0  0  0  0  0
  190.2480  175.0720  137.7920 O   0  0  0  0  0  0  0  0  0  0  0  0
  189.3050  174.7720  137.0140 C   0  0  0  0  0  0  0  0  0  0  0  0
  188.6370  175.7800  136.2480 N   0  0  0  0  0  2  0  0  0  0  0  0
  187.5760  173.2960  136.4350 F   0  0  0  0  0  0  0  0  0  0  0  0
  188.8860  173.3530  136.8750 C   0  0  0  0  0  2  0  0  0  0  0  0
  1 20  1  0  0  0  0
  1 18  1  0  0  0  0
  2  6  1  0  0  0  0
  2 16  1  0  0  0  0
  3  7  1  0  0  0  0
  4 18  1  0  0  0  0
  4  8  2  0  0  0  0
  5  2  2  0  0  0  0
  6  4  1  0  0  0  0
  7 19  2  0  0  0  0
  7  5  1  0  0  0  0
  9 13  1  0  0  0  0
  9  6  2  0  0  0  0
 10  1  1  0  0  0  0
 11 16  1  0  0  0  0
 12  8  1  0  0  0  0
 13  1  1  0  0  0  0
 14 31  1  1  0  0  0
 14 15  1  0  0  0  0
 14 21  1  0  0  0  0
 15 21  1  0  0  0  0
 15  3  1  6  0  0  0
 16 12  2  0  0  0  0
 17  5  1  0  0  0  0
 17  9  1  0  0  0  0
 19 23  1  0  0  0  0
 21 22  1  1  0  0  0
 22 17  1  0  0  0  0
 23 11  1  0  0  0  0
 24 25  1  0  0  0  0
 25 19  1  0  0  0  0
 26 25  2  0  0  0  0
 27 29  1  0  0  0  0
 28 30  1  0  0  0  0
 28 29  2  0  0  0  0
 29 26  1  0  0  0  0
 30 24  2  0  0  0  0
 31 32  1  6  0  0  0
 31 35  1  0  0  0  0
 34 33  2  0  0  0  0
 35 34  1  0  0  0  0
 36 37  1  0  0  0  0
 37 34  1  0  0  0  0
M  END
>  <MODEL>
7

>  <REMARK>
 VINA RESULT:      -8.5      2.576      3.648
  Name = 
  4 active torsions:
  status: ('A' for Active; 'I' for Inactive)
    1  A    between atoms: C_4  and  C_37
    2  A    between atoms: C_8  and  N_12
    3  A    between atoms: C_8  and  C_18
    4  A    between atoms: C_23  and  C_30
                            x       y       z     vdW  Elec       q    Type
                         _______ _______ _______ _____ _____    ______ ____

>  <TORSDO>
F 4

$$$$
=
 OpenBabel11122411323D

 37 43  0  0  1  0  0  0  0  0999 V2000
  190.7700  176.9120  147.2580 C   0  0  0  0  0  0  0  0  0  0  0  0
  187.3240  177.9270  145.1770 C   0  0  0  0  0  0  0  0  0  0  0  0
  187.3950  177.5480  141.3920 O   0  0  0  0  0  0  0  0  0  0  0  0
  188.3260  177.6370  147.3380 C   0  0  0  0  0  0  0  0  0  0  0  0
  187.8040  177.9770  143.8630 C   0  0  0  0  0  0  0  0  0  0  0  0
  188.4040  177.7720  145.9730 C   0  0  0  0  0  0  0  0  0  0  0  0
  186.9350  178.0730  142.6160 C   0  0  0  0  0  0  0  0  0  0  0  0
  187.0910  177.7070  147.9160 N   0  0  0  0  0  0  0  0  0  0  0  0
  189.5160  177.7070  145.2180 C   0  0  0  0  0  0  0  0  0  0  0  0
  190.5910  175.4080  147.1310 C   0  0  0  0  0  1  0  0  0  0  0  0
  184.8290  178.2060  144.9230 C   0  0  0  0  0  2  0  0  0  0  0  0
  185.9590  177.8800  147.1540 C   0  0  0  0  0  3  0  0  0  0  0  0
  190.8750  177.5350  145.8360 C   0  0  0  0  0  2  0  0  0  0  0  0
  189.5660  177.4550  140.1760 C   0  0  1  0  0  3  0  0  0  0  0  0
  188.6840  176.9890  141.2960 C   0  0  1  0  0  3  0  0  0  0  0  0
  186.0480  177.9970  145.7460 C   0  0  0  0  0  0  0  0  0  0  0  0
  189.1870  177.8430  143.9130 N   0  0  0  0  0  0  0  0  0  0  0  0
  189.6080  177.4940  148.1180 C   0  0  0  0  0  2  0  0  0  0  0  0
  185.6980  178.6370  142.6300 C   0  0  0  0  0  0  0  0  0  0  0  0
  192.0720  177.1680  147.9850 C   0  0  0  0  0  1  0  0  0  0  0  0
  189.5920  178.1870  141.5210 C   0  0  1  0  0  3  0  0  0  0  0  0
  190.1890  177.7530  142.8340 C   0  0  0  0  0  2  0  0  0  0  0  0
  185.1100  179.2590  143.8650 C   0  0  0  0  0  2  0  0  0  0  0  0
  185.4590  179.0000  140.1680 C   0  0  0  0  0  3  0  0  0  0  0  0
  184.8620  178.7090  141.4050 C   0  0  0  0  0  0  0  0  0  0  0  0
  183.4840  178.4390  141.4470 C   0  0  0  0  0  3  0  0  0  0  0  0
  180.9990  178.1510  140.3540 Cl  0  0  0  0  0  0  0  0  0  0  0  0
  183.3190  178.7840  139.0580 C   0  0  0  0  0  3  0  0  0  0  0  0
  182.7150  178.4820  140.2810 C   0  0  0  0  0  0  0  0  0  0  0  0
  184.6910  179.0430  139.0000 C   0  0  0  0  0  3  0  0  0  0  0  0
  190.7450  176.5010  139.9020 C   0  0  2  0  0  3  0  0  0  0  0  0
  191.9790  177.1310  139.7090 O   0  0  0  0  0  1  0  0  0  0  0  0
  190.1960  177.2600  137.1500 O   0  0  0  0  0  0  0  0  0  0  0  0
  190.1540  176.0400  137.4560 C   0  0  0  0  0  0  0  0  0  0  0  0
  190.4440  175.6060  138.7890 N   0  0  0  0  0  2  0  0  0  0  0  0
  188.7480  174.2480  136.8950 F   0  0  0  0  0  0  0  0  0  0  0  0
  189.7850  175.0340  136.4250 C   0  0  0  0  0  2  0  0  0  0  0  0
  1 20  1  0  0  0  0
  1 18  1  0  0  0  0
  2 16  1  0  0  0  0
  2  6  1  0  0  0  0
  3  7  1  0  0  0  0
  4  8  2  0  0  0  0
  4 18  1  0  0  0  0
  5 17  1  0  0  0  0
  5  2  2  0  0  0  0
  6  4  1  0  0  0  0
  7 19  2  0  0  0  0
  7  5  1  0  0  0  0
  9 13  1  0  0  0  0
  9  6  2  0  0  0  0
 10  1  1  0  0  0  0
 11 16  1  0  0  0  0
 12  8  1  0  0  0  0
 13  1  1  0  0  0  0
 14 31  1  1  0  0  0
 14 15  1  0  0  0  0
 14 21  1  0  0  0  0
 15  3  1  6  0  0  0
 15 21  1  0  0  0  0
 16 12  2  0  0  0  0
 17  9  1  0  0  0  0
 19 23  1  0  0  0  0
 21 22  1  1  0  0  0
 22 17  1  0  0  0  0
 23 11  1  0  0  0  0
 24 25  1  0  0  0  0
 25 26  2  0  0  0  0
 25 19  1  0  0  0  0
 28 29  2  0  0  0  0
 29 27  1  0  0  0  0
 29 26  1  0  0  0  0
 30 28  1  0  0  0  0
 30 24  2  0  0  0  0
 31 32  1  6  0  0  0
 33 34  2  0  0  0  0
 34 35  1  0  0  0  0
 35 31  1  0  0  0  0
 37 36  1  0  0  0  0
 37 34  1  0  0  0  0
M  END
>  <MODEL>
8

>  <REMARK>
 VINA RESULT:      -8.4      2.936      4.327
  Name = 
  4 active torsions:
  status: ('A' for Active; 'I' for Inactive)
    1  A    between atoms: C_4  and  C_37
    2  A    between atoms: C_8  and  N_12
    3  A    between atoms: C_8  and  C_18
    4  A    between atoms: C_23  and  C_30
                            x       y       z     vdW  Elec       q    Type
                         _______ _______ _______ _____ _____    ______ ____

>  <TORSDO>
F 4

$$$$
=
 OpenBabel11122411323D

 37 43  0  0  1  0  0  0  0  0999 V2000
  182.3510  179.3750  138.7800 C   0  0  0  0  0  0  0  0  0  0  0  0
  184.6130  178.5090  142.1520 C   0  0  0  0  0  0  0  0  0  0  0  0
  188.3840  178.2680  141.7100 O   0  0  0  0  0  0  0  0  0  0  0  0
  182.4240  179.0030  141.3020 C   0  0  0  0  0  0  0  0  0  0  0  0
  185.8470  178.1870  141.5760 C   0  0  0  0  0  0  0  0  0  0  0  0
  183.7380  178.6440  141.1310 C   0  0  0  0  0  0  0  0  0  0  0  0
  187.1510  178.0110  142.3430 C   0  0  0  0  0  0  0  0  0  0  0  0
  181.9740  179.1920  142.5780 N   0  0  0  0  0  0  0  0  0  0  0  0
  184.3740  178.4390  139.9620 C   0  0  0  0  0  0  0  0  0  0  0  0
  182.7140  180.8490  138.7230 C   0  0  0  0  0  1  0  0  0  0  0  0
  185.0840  178.5280  144.6310 C   0  0  0  0  0  2  0  0  0  0  0  0
  182.8180  179.0520  143.6550 C   0  0  0  0  0  3  0  0  0  0  0  0
  183.6480  178.5240  138.6490 C   0  0  0  0  0  2  0  0  0  0  0  0
  189.3650  177.8750  139.4550 C   0  0  1  0  0  3  0  0  0  0  0  0
  188.4240  178.6280  140.3500 C   0  0  1  0  0  3  0  0  0  0  0  0
  184.1760  178.7020  143.4670 C   0  0  0  0  0  0  0  0  0  0  0  0
  185.6720  178.1420  140.1980 N   0  0  0  0  0  0  0  0  0  0  0  0
  181.5420  179.0960  140.0820 C   0  0  0  0  0  2  0  0  0  0  0  0
  187.1860  177.6260  143.6470 C   0  0  0  0  0  0  0  0  0  0  0  0
  181.4610  179.0660  137.5950 C   0  0  0  0  0  1  0  0  0  0  0  0
  187.9320  177.3710  139.6500 C   0  0  1  0  0  3  0  0  0  0  0  0
  186.6410  177.9250  139.1070 C   0  0  0  0  0  2  0  0  0  0  0  0
  185.9410  177.2920  144.4210 C   0  0  0  0  0  2  0  0  0  0  0  0
  188.6150  178.0390  145.6560 C   0  0  0  0  0  3  0  0  0  0  0  0
  188.4670  177.4720  144.3790 C   0  0  0  0  0  0  0  0  0  0  0  0
  189.5270  176.7200  143.8440 C   0  0  0  0  0  3  0  0  0  0  0  0
  192.0280  175.6270  143.8730 Cl  0  0  0  0  0  0  0  0  0  0  0  0
  190.8550  177.1380  145.8230 C   0  0  0  0  0  3  0  0  0  0  0  0
  190.7160  176.5590  144.5590 C   0  0  0  0  0  0  0  0  0  0  0  0
  189.8050  177.8780  146.3730 C   0  0  0  0  0  3  0  0  0  0  0  0
  189.6500  178.6080  138.1300 C   0  0  2  0  0  3  0  0  0  0  0  0
  188.9670  179.8180  137.9680 O   0  0  0  0  0  1  0  0  0  0  0  0
  191.4080  176.5050  137.1640 O   0  0  0  0  0  0  0  0  0  0  0  0
  190.3370  176.7250  136.5400 C   0  0  0  0  0  0  0  0  0  0  0  0
  189.4200  177.7290  136.9880 N   0  0  0  0  0  2  0  0  0  0  0  0
  188.6510  175.8330  135.1740 F   0  0  0  0  0  0  0  0  0  0  0  0
  190.0230  175.9450  135.3150 C   0  0  0  0  0  2  0  0  0  0  0  0
  1 18  1  0  0  0  0
  2 16  1  0  0  0  0
  3  7  1  0  0  0  0
  4  8  2  0  0  0  0
  5  2  2  0  0  0  0
  5  7  1  0  0  0  0
  6  4  1  0  0  0  0
  6  2  1  0  0  0  0
  7 19  2  0  0  0  0
  8 12  1  0  0  0  0
  9 17  1  0  0  0  0
  9  6  2  0  0  0  0
 10  1  1  0  0  0  0
 13  1  1  0  0  0  0
 13  9  1  0  0  0  0
 14 31  1  6  0  0  0
 14 21  1  0  0  0  0
 14 15  1  0  0  0  0
 15  3  1  1  0  0  0
 16 12  2  0  0  0  0
 16 11  1  0  0  0  0
 17  5  1  0  0  0  0
 18  4  1  0  0  0  0
 19 25  1  0  0  0  0
 19 23  1  0  0  0  0
 20  1  1  0  0  0  0
 21 22  1  6  0  0  0
 21 15  1  0  0  0  0
 22 17  1  0  0  0  0
 23 11  1  0  0  0  0
 24 30  1  0  0  0  0
 25 24  2  0  0  0  0
 26 25  1  0  0  0  0
 26 29  2  0  0  0  0
 27 29  1  0  0  0  0
 28 30  2  0  0  0  0
 29 28  1  0  0  0  0
 31 32  1  6  0  0  0
 34 35  1  0  0  0  0
 34 33  2  0  0  0  0
 35 31  1  0  0  0  0
 36 37  1  0  0  0  0
 37 34  1  0  0  0  0
M  END
>  <MODEL>
9

>  <REMARK>
 VINA RESULT:      -8.3      3.708      6.867
  Name = 
  4 active torsions:
  status: ('A' for Active; 'I' for Inactive)
    1  A    between atoms: C_4  and  C_37
    2  A    between atoms: C_8  and  N_12
    3  A    between atoms: C_8  and  C_18
    4  A    between atoms: C_23  and  C_30
                            x       y       z     vdW  Elec       q    Type
                         _______ _______ _______ _____ _____    ______ ____

>  <TORSDO>
F 4

$$$$
