=
 OpenBabel11122410413D

 32 38  0  0  1  0  0  0  0  0999 V2000
  189.4660  177.7980  147.9690 C   0  0  1  0  0  3  0  0  0  0  0  0
  186.1070  178.3640  143.9320 C   0  0  0  0  0  0  0  0  0  0  0  0
  189.1730  178.1010  140.0480 C   0  0  0  0  0  3  0  0  0  0  0  0
  188.0930  178.2360  139.1750 C   0  0  0  0  0  3  0  0  0  0  0  0
  183.6140  178.7770  143.6220 C   0  0  0  0  0  0  0  0  0  0  0  0
  182.6230  178.7620  142.7270 C   0  0  0  0  0  0  0  0  0  0  0  0
  187.0310  177.7720  146.1910 C   0  0  1  0  0  3  0  0  0  0  0  0
  188.5030  177.5720  144.2160 C   0  0  0  0  0  2  0  0  0  0  0  0
  181.5770  178.7580  140.6910 C   0  0  2  0  0  3  0  0  0  0  0  0
  189.6040  177.5500  146.4670 C   0  0  2  0  0  3  0  0  0  0  0  0
  188.9550  178.0630  141.4260 C   0  0  0  0  0  3  0  0  0  0  0  0
  187.4240  178.1060  143.3710 N   0  0  0  0  0  0  0  0  0  0  0  0
  187.6530  178.1600  141.9500 C   0  0  0  0  0  0  0  0  0  0  0  0
  185.2110  178.4010  141.6330 C   0  0  0  0  0  0  0  0  0  0  0  0
  180.5670  179.0540  141.7370 N   0  0  0  0  0  0  0  0  0  0  0  0
  188.1700  178.5390  148.3620 C   0  0  0  0  0  2  0  0  0  0  0  0
  188.4210  178.0940  145.6400 C   0  0  2  0  0  3  0  0  0  0  0  0
  181.2720  179.0720  142.9590 N   0  0  0  0  0  0  0  0  0  0  0  0
  186.8850  178.0360  147.6930 C   0  0  0  0  0  2  0  0  0  0  0  0
  189.2390  176.4020  147.4020 C   0  0  1  0  0  3  0  0  0  0  0  0
  186.7970  178.3330  139.6840 C   0  0  0  0  0  3  0  0  0  0  0  0
  186.5690  178.2980  141.0710 C   0  0  0  0  0  0  0  0  0  0  0  0
  184.1480  178.4240  140.8140 C   0  0  0  0  0  3  0  0  0  0  0  0
  185.9980  178.5720  145.4220 C   0  0  0  0  0  2  0  0  0  0  0  0
  183.2710  179.0970  145.0430 C   0  0  0  0  0  1  0  0  0  0  0  0
  181.1670  177.5140  139.9260 C   0  0  0  0  0  1  0  0  0  0  0  0
  185.0200  178.5100  143.1220 C   0  0  0  0  0  0  0  0  0  0  0  0
  182.8420  178.5290  141.3720 N   0  0  0  0  0  0  0  0  0  0  0  0
  190.3910  175.6050  147.6380 O   0  0  0  0  0  0  0  0  0  0  0  0
  191.6540  175.9590  147.1570 C   0  0  0  0  0  0  0  0  0  0  0  0
  191.9920  175.8680  145.7060 C   0  0  0  0  0  1  0  0  0  0  0  0
  192.5290  176.3640  147.9640 O   0  0  0  0  0  0  0  0  0  0  0  0
  1 16  1  6  0  0  0
  2 24  1  0  0  0  0
  3 11  1  0  0  0  0
  4 21  1  0  0  0  0
  4  3  2  0  0  0  0
  5 25  1  0  0  0  0
  6 18  1  0  0  0  0
  6  5  2  0  0  0  0
  7 24  1  6  0  0  0
  7 19  1  0  0  0  0
  8 17  1  0  0  0  0
  9 26  1  1  0  0  0
  9 28  1  0  0  0  0
  9 15  1  0  0  0  0
 10 20  1  0  0  0  0
 10  1  1  0  0  0  0
 11 13  2  0  0  0  0
 12  2  1  0  0  0  0
 12  8  1  0  0  0  0
 13 12  1  0  0  0  0
 14 27  1  0  0  0  0
 15 18  2  0  0  0  0
 17  7  1  0  0  0  0
 17 10  1  0  0  0  0
 19 16  1  0  0  0  0
 20 29  1  0  0  0  0
 20  1  1  0  0  0  0
 21 22  2  0  0  0  0
 22 14  1  0  0  0  0
 22 13  1  0  0  0  0
 23 28  1  0  0  0  0
 23 14  2  0  0  0  0
 27  5  1  0  0  0  0
 27  2  2  0  0  0  0
 28  6  1  0  0  0  0
 30 29  1  0  0  0  0
 30 32  2  0  0  0  0
 31 30  1  0  0  0  0
M  END
>  <MODEL>
1

>  <REMARK>
 VINA RESULT:     -11.0      0.000      0.000
  Name = 
  2 active torsions:
  status: ('A' for Active; 'I' for Inactive)
    1  A    between atoms: C_20  and  O_29
    2  A    between atoms: O_29  and  C_30
                            x       y       z     vdW  Elec       q    Type
                         _______ _______ _______ _____ _____    ______ ____

>  <TORSDO>
F 2

$$$$
=
 OpenBabel11122410413D

 32 38  0  0  1  0  0  0  0  0999 V2000
  187.1900  178.4480  136.7020 C   0  0  1  0  0  3  0  0  0  0  0  0
  188.0600  178.0700  141.8980 C   0  0  0  0  0  0  0  0  0  0  0  0
  183.5590  179.0470  143.7290 C   0  0  0  0  0  3  0  0  0  0  0  0
  184.0370  178.8580  145.0260 C   0  0  0  0  0  3  0  0  0  0  0  0
  190.0460  177.6430  143.4320 C   0  0  0  0  0  0  0  0  0  0  0  0
  190.3930  177.3440  144.6870 C   0  0  0  0  0  0  0  0  0  0  0  0
  188.2580  177.7040  139.4220 C   0  0  1  0  0  3  0  0  0  0  0  0
  186.0190  178.1090  140.3870 C   0  0  0  0  0  2  0  0  0  0  0  0
  190.2180  177.0980  146.9550 C   0  0  2  0  0  3  0  0  0  0  0  0
  186.2490  178.3390  137.9020 C   0  0  2  0  0  3  0  0  0  0  0  0
  184.4130  178.8670  142.6400 C   0  0  0  0  0  3  0  0  0  0  0  0
  186.6350  178.2950  141.7090 N   0  0  0  0  0  0  0  0  0  0  0  0
  185.7560  178.4960  142.8330 C   0  0  0  0  0  0  0  0  0  0  0  0
  187.6440  177.9250  144.3260 C   0  0  0  0  0  0  0  0  0  0  0  0
  191.6480  176.9850  146.5800 N   0  0  0  0  0  0  0  0  0  0  0  0
  188.6650  178.6930  137.0860 C   0  0  0  0  0  2  0  0  0  0  0  0
  186.9610  178.5000  139.2610 C   0  0  2  0  0  3  0  0  0  0  0  0
  191.6970  177.1740  145.1830 N   0  0  0  0  0  0  0  0  0  0  0  0
  189.2100  177.8260  138.2280 C   0  0  0  0  0  2  0  0  0  0  0  0
  186.6510  177.0880  137.1280 C   0  0  1  0  0  3  0  0  0  0  0  0
  185.3680  178.4910  145.2300 C   0  0  0  0  0  3  0  0  0  0  0  0
  186.2340  178.3110  144.1380 C   0  0  0  0  0  0  0  0  0  0  0  0
  188.0990  177.6340  145.5550 C   0  0  0  0  0  3  0  0  0  0  0  0
  188.9580  178.1520  140.6890 C   0  0  0  0  0  2  0  0  0  0  0  0
  191.1330  177.7570  142.4110 C   0  0  0  0  0  1  0  0  0  0  0  0
  189.7760  175.8290  147.6610 C   0  0  0  0  0  1  0  0  0  0  0  0
  188.5770  177.8870  143.1460 C   0  0  0  0  0  0  0  0  0  0  0  0
  189.4660  177.2690  145.7220 N   0  0  0  0  0  0  0  0  0  0  0  0
  185.5900  176.7100  136.2630 O   0  0  0  0  0  0  0  0  0  0  0  0
  184.3020  176.4470  136.7350 C   0  0  0  0  0  0  0  0  0  0  0  0
  183.1210  177.2270  136.2590 C   0  0  0  0  0  1  0  0  0  0  0  0
  184.1300  175.5320  137.5800 O   0  0  0  0  0  0  0  0  0  0  0  0
  1 16  1  1  0  0  0
  1 20  1  0  0  0  0
  1 10  1  0  0  0  0
  2 27  2  0  0  0  0
  3  4  1  0  0  0  0
  4 21  2  0  0  0  0
  5  6  2  0  0  0  0
  6 18  1  0  0  0  0
  6 28  1  0  0  0  0
  7 19  1  6  0  0  0
  7 24  1  0  0  0  0
  8 12  1  0  0  0  0
  9 26  1  6  0  0  0
 10 17  1  0  0  0  0
 11 13  1  0  0  0  0
 11  3  2  0  0  0  0
 12  2  1  0  0  0  0
 12 13  1  0  0  0  0
 13 22  2  0  0  0  0
 14 23  2  0  0  0  0
 15  9  1  0  0  0  0
 16 19  1  0  0  0  0
 17  7  1  0  0  0  0
 17  8  1  0  0  0  0
 18 15  2  0  0  0  0
 20 10  1  0  0  0  0
 22 14  1  0  0  0  0
 22 21  1  0  0  0  0
 23 28  1  0  0  0  0
 24  2  1  0  0  0  0
 25  5  1  0  0  0  0
 27  5  1  0  0  0  0
 27 14  1  0  0  0  0
 28  9  1  0  0  0  0
 29 30  1  0  0  0  0
 29 20  1  0  0  0  0
 30 32  2  0  0  0  0
 31 30  1  0  0  0  0
M  END
>  <MODEL>
2

>  <REMARK>
 VINA RESULT:     -10.0      3.859      8.605
  Name = 
  2 active torsions:
  status: ('A' for Active; 'I' for Inactive)
    1  A    between atoms: C_20  and  O_29
    2  A    between atoms: O_29  and  C_30
                            x       y       z     vdW  Elec       q    Type
                         _______ _______ _______ _____ _____    ______ ____

>  <TORSDO>
F 2

$$$$
=
 OpenBabel11122410413D

 32 38  0  0  1  0  0  0  0  0999 V2000
  179.8310  178.9280  141.9010 C   0  0  1  0  0  3  0  0  0  0  0  0
  185.0620  178.3200  142.3230 C   0  0  0  0  0  0  0  0  0  0  0  0
  186.4380  178.2460  137.5620 C   0  0  0  0  0  3  0  0  0  0  0  0
  187.7740  178.1190  137.9420 C   0  0  0  0  0  3  0  0  0  0  0  0
  186.7590  178.0100  144.1940 C   0  0  0  0  0  0  0  0  0  0  0  0
  188.0650  178.0270  144.4780 C   0  0  0  0  0  0  0  0  0  0  0  0
  182.6950  178.9790  142.8440 C   0  0  1  0  0  3  0  0  0  0  0  0
  183.4460  179.0120  140.4900 C   0  0  0  0  0  2  0  0  0  0  0  0
  190.3280  177.9780  144.1450 C   0  0  2  0  0  3  0  0  0  0  0  0
  180.9760  179.0950  140.9000 C   0  0  2  0  0  3  0  0  0  0  0  0
  185.4450  178.3630  138.5360 C   0  0  0  0  0  3  0  0  0  0  0  0
  184.7540  178.4890  140.9110 N   0  0  0  0  0  0  0  0  0  0  0  0
  185.7760  178.3530  139.9040 C   0  0  0  0  0  0  0  0  0  0  0  0
  187.4520  178.2110  141.7180 C   0  0  0  0  0  0  0  0  0  0  0  0
  190.0620  177.7830  145.5920 N   0  0  0  0  0  0  0  0  0  0  0  0
  180.2570  178.2680  143.2300 C   0  0  0  0  0  2  0  0  0  0  0  0
  182.3300  178.5650  141.4170 C   0  0  2  0  0  3  0  0  0  0  0  0
  188.6590  177.7920  145.7300 N   0  0  0  0  0  0  0  0  0  0  0  0
  181.5560  178.7970  143.8510 C   0  0  0  0  0  2  0  0  0  0  0  0
  180.4420  180.3030  141.6620 C   0  0  1  0  0  3  0  0  0  0  0  0
  188.1140  178.1090  139.2960 C   0  0  0  0  0  3  0  0  0  0  0  0
  187.1190  178.2230  140.2830 C   0  0  0  0  0  0  0  0  0  0  0  0
  188.7360  178.1980  142.1070 C   0  0  0  0  0  3  0  0  0  0  0  0
  183.9110  178.1910  143.2900 C   0  0  0  0  0  2  0  0  0  0  0  0
  185.8000  177.7760  145.3180 C   0  0  0  0  0  1  0  0  0  0  0  0
  191.2050  179.2010  143.9510 C   0  0  0  0  0  1  0  0  0  0  0  0
  186.3510  178.1850  142.7450 C   0  0  0  0  0  0  0  0  0  0  0  0
  189.0410  178.1810  143.4990 N   0  0  0  0  0  0  0  0  0  0  0  0
  179.5910  181.0560  140.8100 O   0  0  0  0  0  0  0  0  0  0  0  0
  179.8520  181.2180  139.4480 C   0  0  0  0  0  0  0  0  0  0  0  0
  178.9310  180.6770  138.4050 C   0  0  0  0  0  1  0  0  0  0  0  0
  180.8880  181.8340  139.0890 O   0  0  0  0  0  0  0  0  0  0  0  0
  1 16  1  1  0  0  0
  2 27  2  0  0  0  0
  2 24  1  0  0  0  0
  3  4  2  0  0  0  0
  3 11  1  0  0  0  0
  4 21  1  0  0  0  0
  5  6  2  0  0  0  0
  5 25  1  0  0  0  0
  6 18  1  0  0  0  0
  7 24  1  1  0  0  0
  7 19  1  0  0  0  0
  8 12  1  0  0  0  0
  8 17  1  0  0  0  0
  9 26  1  1  0  0  0
  9 15  1  0  0  0  0
 10 17  1  0  0  0  0
 10 20  1  0  0  0  0
 10  1  1  0  0  0  0
 11 13  2  0  0  0  0
 12  2  1  0  0  0  0
 13 22  1  0  0  0  0
 13 12  1  0  0  0  0
 14 23  2  0  0  0  0
 14 27  1  0  0  0  0
 15 18  2  0  0  0  0
 16 19  1  0  0  0  0
 17  7  1  0  0  0  0
 20  1  1  0  0  0  0
 21 22  2  0  0  0  0
 22 14  1  0  0  0  0
 23 28  1  0  0  0  0
 27  5  1  0  0  0  0
 28  9  1  0  0  0  0
 28  6  1  0  0  0  0
 29 20  1  0  0  0  0
 30 29  1  0  0  0  0
 31 30  1  0  0  0  0
 32 30  2  0  0  0  0
M  END
>  <MODEL>
3

>  <REMARK>
 VINA RESULT:      -9.4      4.240      8.126
  Name = 
  2 active torsions:
  status: ('A' for Active; 'I' for Inactive)
    1  A    between atoms: C_20  and  O_29
    2  A    between atoms: O_29  and  C_30
                            x       y       z     vdW  Elec       q    Type
                         _______ _______ _______ _____ _____    ______ ____

>  <TORSDO>
F 2

$$$$
=
 OpenBabel11122410413D

 32 38  0  0  1  0  0  0  0  0999 V2000
  190.9880  177.6270  144.8220 C   0  0  1  0  0  3  0  0  0  0  0  0
  186.8200  178.2180  141.6310 C   0  0  0  0  0  0  0  0  0  0  0  0
  188.9980  178.4250  137.1840 C   0  0  0  0  0  3  0  0  0  0  0  0
  187.7510  178.5400  136.5700 C   0  0  0  0  0  3  0  0  0  0  0  0
  184.3000  178.4750  141.8810 C   0  0  0  0  0  0  0  0  0  0  0  0
  183.1430  178.4480  141.2130 C   0  0  0  0  0  0  0  0  0  0  0  0
  188.2350  177.5470  143.5940 C   0  0  1  0  0  3  0  0  0  0  0  0
  189.2610  177.5800  141.3460 C   0  0  0  0  0  2  0  0  0  0  0  0
  181.6890  178.5040  139.4470 C   0  0  2  0  0  3  0  0  0  0  0  0
  190.8160  177.4880  143.3090 C   0  0  2  0  0  3  0  0  0  0  0  0
  189.0810  178.2820  138.5700 C   0  0  0  0  0  3  0  0  0  0  0  0
  188.0000  178.0900  140.7890 N   0  0  0  0  0  0  0  0  0  0  0  0
  187.9170  178.2530  139.3600 C   0  0  0  0  0  0  0  0  0  0  0  0
  185.4540  178.3420  139.5790 C   0  0  0  0  0  0  0  0  0  0  0  0
  180.9110  178.6590  140.7000 N   0  0  0  0  0  0  0  0  0  0  0  0
  189.7670  178.2490  145.5330 C   0  0  0  0  0  2  0  0  0  0  0  0
  189.4560  178.0010  142.7920 C   0  0  2  0  0  3  0  0  0  0  0  0
  181.8570  178.6480  141.7450 N   0  0  0  0  0  0  0  0  0  0  0  0
  188.3980  177.7020  145.1090 C   0  0  0  0  0  2  0  0  0  0  0  0
  190.7230  176.2590  144.2070 C   0  0  1  0  0  3  0  0  0  0  0  0
  186.5890  178.5120  137.3430 C   0  0  0  0  0  3  0  0  0  0  0  0
  186.6650  178.3720  138.7400 C   0  0  0  0  0  0  0  0  0  0  0  0
  184.2420  178.3430  139.0040 C   0  0  0  0  0  3  0  0  0  0  0  0
  187.0200  178.3210  143.1230 C   0  0  0  0  0  2  0  0  0  0  0  0
  184.2500  178.6770  143.3620 C   0  0  0  0  0  1  0  0  0  0  0  0
  181.1940  177.2870  138.6890 C   0  0  0  0  0  1  0  0  0  0  0  0
  185.5790  178.3400  141.0790 C   0  0  0  0  0  0  0  0  0  0  0  0
  183.0800  178.3200  139.8290 N   0  0  0  0  0  0  0  0  0  0  0  0
  191.9400  175.5320  144.1340 O   0  0  0  0  0  0  0  0  0  0  0  0
  192.4030  174.7430  145.1900 C   0  0  0  0  0  0  0  0  0  0  0  0
  192.4310  175.2530  146.5920 C   0  0  0  0  0  1  0  0  0  0  0  0
  192.8050  173.5750  144.9550 O   0  0  0  0  0  0  0  0  0  0  0  0
  1 16  1  1  0  0  0
  2 24  1  0  0  0  0
  3 11  1  0  0  0  0
  4  3  2  0  0  0  0
  4 21  1  0  0  0  0
  5 25  1  0  0  0  0
  6 18  1  0  0  0  0
  6  5  2  0  0  0  0
  7 24  1  6  0  0  0
  7 19  1  0  0  0  0
  8 17  1  0  0  0  0
  9 26  1  1  0  0  0
  9 28  1  0  0  0  0
  9 15  1  0  0  0  0
 10 20  1  0  0  0  0
 10  1  1  0  0  0  0
 11 13  2  0  0  0  0
 12  8  1  0  0  0  0
 12  2  1  0  0  0  0
 13 12  1  0  0  0  0
 14 27  1  0  0  0  0
 15 18  2  0  0  0  0
 17 10  1  0  0  0  0
 17  7  1  0  0  0  0
 19 16  1  0  0  0  0
 20  1  1  0  0  0  0
 21 22  2  0  0  0  0
 22 13  1  0  0  0  0
 22 14  1  0  0  0  0
 23 14  2  0  0  0  0
 23 28  1  0  0  0  0
 27  2  2  0  0  0  0
 27  5  1  0  0  0  0
 28  6  1  0  0  0  0
 29 20  1  0  0  0  0
 29 30  1  0  0  0  0
 30 31  1  0  0  0  0
 32 30  2  0  0  0  0
M  END
>  <MODEL>
4

>  <REMARK>
 VINA RESULT:      -9.1      1.837      2.579
  Name = 
  2 active torsions:
  status: ('A' for Active; 'I' for Inactive)
    1  A    between atoms: C_20  and  O_29
    2  A    between atoms: O_29  and  C_30
                            x       y       z     vdW  Elec       q    Type
                         _______ _______ _______ _____ _____    ______ ____

>  <TORSDO>
F 2

$$$$
=
 OpenBabel11122410413D

 32 38  0  0  1  0  0  0  0  0999 V2000
  190.3290  176.6990  136.7140 C   0  0  1  0  0  3  0  0  0  0  0  0
  189.2170  177.4270  141.8260 C   0  0  0  0  0  0  0  0  0  0  0  0
  184.5930  179.1950  141.5920 C   0  0  0  0  0  3  0  0  0  0  0  0
  184.5390  179.2620  142.9840 C   0  0  0  0  0  3  0  0  0  0  0  0
  190.4250  177.1790  144.0530 C   0  0  0  0  0  0  0  0  0  0  0  0
  190.2480  177.1420  145.3760 C   0  0  0  0  0  0  0  0  0  0  0  0
  190.2180  176.4950  139.7210 C   0  0  1  0  0  3  0  0  0  0  0  0
  187.8850  177.3080  139.6670 C   0  0  0  0  0  2  0  0  0  0  0  0
  189.2390  177.4310  147.4100 C   0  0  2  0  0  3  0  0  0  0  0  0
  189.0190  176.9490  137.4620 C   0  0  2  0  0  3  0  0  0  0  0  0
  185.7350  178.6970  140.9620 C   0  0  0  0  0  3  0  0  0  0  0  0
  188.0120  177.7320  141.0690 N   0  0  0  0  0  0  0  0  0  0  0  0
  186.8380  178.2600  141.7170 C   0  0  0  0  0  0  0  0  0  0  0  0
  187.9460  177.8730  143.8950 C   0  0  0  0  0  0  0  0  0  0  0  0
  190.6680  177.1070  147.6380 N   0  0  0  0  0  0  0  0  0  0  0  0
  191.5900  176.8900  137.5850 C   0  0  0  0  0  2  0  0  0  0  0  0
  189.2170  177.3480  138.9390 C   0  0  2  0  0  3  0  0  0  0  0  0
  191.2410  176.9710  146.3560 N   0  0  0  0  0  0  0  0  0  0  0  0
  191.5390  176.2570  138.9810 C   0  0  0  0  0  2  0  0  0  0  0  0
  189.4530  175.5240  137.1330 C   0  0  1  0  0  3  0  0  0  0  0  0
  185.6280  178.8310  143.7430 C   0  0  0  0  0  3  0  0  0  0  0  0
  186.7830  178.3310  143.1160 C   0  0  0  0  0  0  0  0  0  0  0  0
  187.8790  177.8270  145.2340 C   0  0  0  0  0  3  0  0  0  0  0  0
  190.4870  177.1530  141.0590 C   0  0  0  0  0  2  0  0  0  0  0  0
  191.8070  176.9610  143.5240 C   0  0  0  0  0  1  0  0  0  0  0  0
  188.3670  176.4000  148.1030 C   0  0  0  0  0  1  0  0  0  0  0  0
  189.2180  177.4840  143.1880 C   0  0  0  0  0  0  0  0  0  0  0  0
  189.0150  177.3860  145.9730 N   0  0  0  0  0  0  0  0  0  0  0  0
  188.7210  175.0590  136.0080 O   0  0  0  0  0  0  0  0  0  0  0  0
  187.3250  175.0140  135.9940 C   0  0  0  0  0  0  0  0  0  0  0  0
  186.5550  174.2890  137.0470 C   0  0  0  0  0  1  0  0  0  0  0  0
  186.7000  175.5980  135.0720 O   0  0  0  0  0  0  0  0  0  0  0  0
  1 20  1  0  0  0  0
  1 10  1  0  0  0  0
  1 16  1  1  0  0  0
  2 27  2  0  0  0  0
  3  4  1  0  0  0  0
  4 21  2  0  0  0  0
  5  6  2  0  0  0  0
  6 28  1  0  0  0  0
  6 18  1  0  0  0  0
  7 19  1  6  0  0  0
  7 24  1  0  0  0  0
  8 12  1  0  0  0  0
  9 15  1  0  0  0  0
  9 26  1  1  0  0  0
 10 17  1  0  0  0  0
 11  3  2  0  0  0  0
 11 13  1  0  0  0  0
 12 13  1  0  0  0  0
 12  2  1  0  0  0  0
 13 22  2  0  0  0  0
 14 23  2  0  0  0  0
 16 19  1  0  0  0  0
 17  8  1  0  0  0  0
 17  7  1  0  0  0  0
 18 15  2  0  0  0  0
 20 10  1  0  0  0  0
 22 21  1  0  0  0  0
 22 14  1  0  0  0  0
 23 28  1  0  0  0  0
 24  2  1  0  0  0  0
 25  5  1  0  0  0  0
 27 14  1  0  0  0  0
 27  5  1  0  0  0  0
 28  9  1  0  0  0  0
 29 20  1  0  0  0  0
 30 29  1  0  0  0  0
 30 31  1  0  0  0  0
 32 30  2  0  0  0  0
M  END
>  <MODEL>
5

>  <REMARK>
 VINA RESULT:      -9.1      4.017      8.314
  Name = 
  2 active torsions:
  status: ('A' for Active; 'I' for Inactive)
    1  A    between atoms: C_20  and  O_29
    2  A    between atoms: O_29  and  C_30
                            x       y       z     vdW  Elec       q    Type
                         _______ _______ _______ _____ _____    ______ ____

>  <TORSDO>
F 2

$$$$
=
 OpenBabel11122410413D

 32 38  0  0  1  0  0  0  0  0999 V2000
  189.7570  177.4560  148.0680 C   0  0  1  0  0  3  0  0  0  0  0  0
  187.2200  178.1230  143.4840 C   0  0  0  0  0  0  0  0  0  0  0  0
  190.9020  177.5390  140.2190 C   0  0  0  0  0  3  0  0  0  0  0  0
  190.0060  177.7190  139.1650 C   0  0  0  0  0  3  0  0  0  0  0  0
  184.8580  178.6920  142.7240 C   0  0  0  0  0  0  0  0  0  0  0  0
  184.0440  178.7160  141.6650 C   0  0  0  0  0  0  0  0  0  0  0  0
  187.6820  177.5400  145.8820 C   0  0  1  0  0  3  0  0  0  0  0  0
  189.4640  177.1820  144.2080 C   0  0  0  0  0  2  0  0  0  0  0  0
  183.3790  178.7210  139.4750 C   0  0  2  0  0  3  0  0  0  0  0  0
  190.1430  177.1540  146.6200 C   0  0  2  0  0  3  0  0  0  0  0  0
  190.4400  177.5570  141.5360 C   0  0  0  0  0  3  0  0  0  0  0  0
  188.5940  177.7610  143.1740 N   0  0  0  0  0  0  0  0  0  0  0  0
  189.0760  177.7570  141.8160 C   0  0  0  0  0  0  0  0  0  0  0  0
  186.7530  178.1510  141.0610 C   0  0  0  0  0  0  0  0  0  0  0  0
  182.2230  179.1140  140.3170 N   0  0  0  0  0  0  0  0  0  0  0  0
  188.4680  178.2940  148.2090 C   0  0  0  0  0  2  0  0  0  0  0  0
  189.1680  177.7520  145.5840 C   0  0  2  0  0  3  0  0  0  0  0  0
  182.6980  179.1230  141.6450 N   0  0  0  0  0  0  0  0  0  0  0  0
  187.2900  177.8580  147.3280 C   0  0  0  0  0  2  0  0  0  0  0  0
  189.5370  176.0620  147.4950 C   0  0  1  0  0  3  0  0  0  0  0  0
  188.6510  177.9180  139.4300 C   0  0  0  0  0  3  0  0  0  0  0  0
  188.1790  177.9400  140.7540 C   0  0  0  0  0  0  0  0  0  0  0  0
  185.8570  178.2190  140.0640 C   0  0  0  0  0  3  0  0  0  0  0  0
  186.8620  178.3840  144.9260 C   0  0  0  0  0  2  0  0  0  0  0  0
  184.2910  179.0780  144.0540 C   0  0  0  0  0  1  0  0  0  0  0  0
  183.0250  177.4840  138.6710 C   0  0  0  0  0  1  0  0  0  0  0  0
  186.3080  178.3170  142.4890 C   0  0  0  0  0  0  0  0  0  0  0  0
  184.4830  178.4290  140.3770 N   0  0  0  0  0  0  0  0  0  0  0  0
  190.5690  175.1980  147.9480 O   0  0  0  0  0  0  0  0  0  0  0  0
  191.9170  175.4390  147.6750 C   0  0  0  0  0  0  0  0  0  0  0  0
  192.7750  176.2260  148.6090 C   0  0  0  0  0  1  0  0  0  0  0  0
  192.4230  174.9830  146.6180 O   0  0  0  0  0  0  0  0  0  0  0  0
  1 16  1  6  0  0  0
  2 24  1  0  0  0  0
  3 11  1  0  0  0  0
  4 21  1  0  0  0  0
  4  3  2  0  0  0  0
  5 25  1  0  0  0  0
  6  5  2  0  0  0  0
  7 24  1  6  0  0  0
  7 19  1  0  0  0  0
  8 17  1  0  0  0  0
  9 26  1  1  0  0  0
  9 15  1  0  0  0  0
  9 28  1  0  0  0  0
 10 20  1  0  0  0  0
 10  1  1  0  0  0  0
 11 13  2  0  0  0  0
 12  2  1  0  0  0  0
 12  8  1  0  0  0  0
 13 12  1  0  0  0  0
 14 27  1  0  0  0  0
 15 18  2  0  0  0  0
 17  7  1  0  0  0  0
 17 10  1  0  0  0  0
 18  6  1  0  0  0  0
 19 16  1  0  0  0  0
 20 29  1  0  0  0  0
 20  1  1  0  0  0  0
 21 22  2  0  0  0  0
 22 14  1  0  0  0  0
 22 13  1  0  0  0  0
 23 28  1  0  0  0  0
 23 14  2  0  0  0  0
 27  5  1  0  0  0  0
 27  2  2  0  0  0  0
 28  6  1  0  0  0  0
 30 29  1  0  0  0  0
 30 31  1  0  0  0  0
 32 30  2  0  0  0  0
M  END
>  <MODEL>
6

>  <REMARK>
 VINA RESULT:      -8.8      1.218      1.560
  Name = 
  2 active torsions:
  status: ('A' for Active; 'I' for Inactive)
    1  A    between atoms: C_20  and  O_29
    2  A    between atoms: O_29  and  C_30
                            x       y       z     vdW  Elec       q    Type
                         _______ _______ _______ _____ _____    ______ ____

>  <TORSDO>
F 2

$$$$
=
 OpenBabel11122410413D

 32 38  0  0  1  0  0  0  0  0999 V2000
  181.3250  179.0090  139.2040 C   0  0  1  0  0  3  0  0  0  0  0  0
  186.1800  178.1930  141.1200 C   0  0  0  0  0  0  0  0  0  0  0  0
  188.8090  177.6410  136.9560 C   0  0  0  0  0  3  0  0  0  0  0  0
  189.9760  177.4840  137.7040 C   0  0  0  0  0  3  0  0  0  0  0  0
  187.2680  177.9650  143.4100 C   0  0  0  0  0  0  0  0  0  0  0  0
  188.4420  177.9450  144.0470 C   0  0  0  0  0  0  0  0  0  0  0  0
  183.8130  179.0060  140.9080 C   0  0  1  0  0  3  0  0  0  0  0  0
  185.1860  178.7990  138.8630 C   0  0  0  0  0  2  0  0  0  0  0  0
  190.7000  177.7600  144.3690 C   0  0  2  0  0  3  0  0  0  0  0  0
  182.7100  179.0340  138.5560 C   0  0  2  0  0  3  0  0  0  0  0  0
  187.5960  177.8890  137.6010 C   0  0  0  0  0  3  0  0  0  0  0  0
  186.2870  178.2520  139.6700 N   0  0  0  0  0  0  0  0  0  0  0  0
  187.5350  177.9820  139.0030 C   0  0  0  0  0  0  0  0  0  0  0  0
  188.6300  177.9180  141.2210 C   0  0  0  0  0  0  0  0  0  0  0  0
  190.0330  177.7040  145.6920 N   0  0  0  0  0  0  0  0  0  0  0  0
  181.3200  178.4480  140.6420 C   0  0  0  0  0  2  0  0  0  0  0  0
  183.8280  178.4880  139.4680 C   0  0  2  0  0  3  0  0  0  0  0  0
  188.6490  177.7910  145.4290 N   0  0  0  0  0  0  0  0  0  0  0  0
  182.4300  178.9660  141.5650 C   0  0  0  0  0  2  0  0  0  0  0  0
  182.0730  180.3280  139.0510 C   0  0  1  0  0  3  0  0  0  0  0  0
  189.9270  177.5750  139.0950 C   0  0  0  0  0  3  0  0  0  0  0  0
  188.7090  177.8210  139.7530 C   0  0  0  0  0  0  0  0  0  0  0  0
  189.7530  177.8780  141.9550 C   0  0  0  0  0  3  0  0  0  0  0  0
  184.8000  178.2020  141.7310 C   0  0  0  0  0  2  0  0  0  0  0  0
  186.0220  177.8760  144.2320 C   0  0  0  0  0  1  0  0  0  0  0  0
  191.6800  178.9180  144.3430 C   0  0  0  0  0  1  0  0  0  0  0  0
  187.2900  178.0330  141.8960 C   0  0  0  0  0  0  0  0  0  0  0  0
  189.6600  177.9670  143.3740 N   0  0  0  0  0  0  0  0  0  0  0  0
  181.5440  181.0430  137.9440 O   0  0  0  0  0  0  0  0  0  0  0  0
  180.8330  182.2360  138.0970 C   0  0  0  0  0  0  0  0  0  0  0  0
  179.5420  182.2860  138.8440 C   0  0  0  0  0  1  0  0  0  0  0  0
  181.2910  183.2940  137.5940 O   0  0  0  0  0  0  0  0  0  0  0  0
  1 16  1  1  0  0  0
  2 24  1  0  0  0  0
  2 27  2  0  0  0  0
  3 11  2  0  0  0  0
  3  4  1  0  0  0  0
  4 21  2  0  0  0  0
  5  6  2  0  0  0  0
  5 25  1  0  0  0  0
  6 18  1  0  0  0  0
  7 19  1  1  0  0  0
  7 24  1  0  0  0  0
  8 17  1  0  0  0  0
  8 12  1  0  0  0  0
  9 26  1  1  0  0  0
  9 15  1  0  0  0  0
 10 20  1  0  0  0  0
 10  1  1  0  0  0  0
 10 17  1  0  0  0  0
 11 13  1  0  0  0  0
 12  2  1  0  0  0  0
 13 12  1  0  0  0  0
 13 22  2  0  0  0  0
 14 27  1  0  0  0  0
 14 23  2  0  0  0  0
 16 19  1  0  0  0  0
 17  7  1  0  0  0  0
 18 15  2  0  0  0  0
 20  1  1  0  0  0  0
 21 22  1  0  0  0  0
 22 14  1  0  0  0  0
 23 28  1  0  0  0  0
 27  5  1  0  0  0  0
 28  6  1  0  0  0  0
 28  9  1  0  0  0  0
 29 30  1  0  0  0  0
 29 20  1  0  0  0  0
 30 31  1  0  0  0  0
 32 30  2  0  0  0  0
M  END
>  <MODEL>
7

>  <REMARK>
 VINA RESULT:      -8.7      4.528      8.519
  Name = 
  2 active torsions:
  status: ('A' for Active; 'I' for Inactive)
    1  A    between atoms: C_20  and  O_29
    2  A    between atoms: O_29  and  C_30
                            x       y       z     vdW  Elec       q    Type
                         _______ _______ _______ _____ _____    ______ ____

>  <TORSDO>
F 2

$$$$
=
 OpenBabel11122410413D

 32 38  0  0  1  0  0  0  0  0999 V2000
  181.5300  179.2580  139.8070 C   0  0  1  0  0  3  0  0  0  0  0  0
  186.1810  178.3310  142.1340 C   0  0  0  0  0  0  0  0  0  0  0  0
  184.9390  178.4910  146.9290 C   0  0  0  0  0  3  0  0  0  0  0  0
  186.2560  178.2000  147.2880 C   0  0  0  0  0  3  0  0  0  0  0  0
  188.5920  177.9660  141.4050 C   0  0  0  0  0  0  0  0  0  0  0  0
  189.7930  177.5560  141.8220 C   0  0  0  0  0  0  0  0  0  0  0  0
  184.3210  178.3130  140.4460 C   0  0  1  0  0  3  0  0  0  0  0  0
  183.7450  178.3060  142.8490 C   0  0  0  0  0  2  0  0  0  0  0  0
  191.4860  177.0010  143.2590 C   0  0  2  0  0  3  0  0  0  0  0  0
  181.9130  178.8780  141.2380 C   0  0  2  0  0  3  0  0  0  0  0  0
  184.5840  178.5610  145.5810 C   0  0  0  0  0  3  0  0  0  0  0  0
  185.1740  178.3980  143.1820 N   0  0  0  0  0  0  0  0  0  0  0  0
  185.5420  178.3410  144.5740 C   0  0  0  0  0  0  0  0  0  0  0  0
  187.8580  177.8260  143.8730 C   0  0  0  0  0  0  0  0  0  0  0  0
  192.0500  177.1180  141.8920 N   0  0  0  0  0  0  0  0  0  0  0  0
  182.7350  179.6360  138.9190 C   0  0  0  0  0  2  0  0  0  0  0  0
  183.4290  178.9530  141.5120 C   0  0  2  0  0  3  0  0  0  0  0  0
  190.9730  177.4890  141.0610 N   0  0  0  0  0  0  0  0  0  0  0  0
  183.9500  178.7050  139.0130 C   0  0  0  0  0  2  0  0  0  0  0  0
  181.5080  177.7970  140.2420 C   0  0  1  0  0  3  0  0  0  0  0  0
  187.2140  177.9800  146.2970 C   0  0  0  0  0  3  0  0  0  0  0  0
  186.8640  178.0520  144.9370 C   0  0  0  0  0  0  0  0  0  0  0  0
  189.1030  177.4410  144.1910 C   0  0  0  0  0  3  0  0  0  0  0  0
  185.7650  178.6800  140.7260 C   0  0  0  0  0  2  0  0  0  0  0  0
  188.4410  178.3450  139.9660 C   0  0  0  0  0  1  0  0  0  0  0  0
  191.7470  175.6080  143.7990 C   0  0  0  0  0  1  0  0  0  0  0  0
  187.4820  178.0570  142.4330 C   0  0  0  0  0  0  0  0  0  0  0  0
  190.0540  177.2320  143.1500 N   0  0  0  0  0  0  0  0  0  0  0  0
  180.1680  177.4020  140.4970 O   0  0  0  0  0  0  0  0  0  0  0  0
  179.7630  176.0660  140.4570 C   0  0  0  0  0  0  0  0  0  0  0  0
  180.2960  175.1180  139.4340 C   0  0  0  0  0  1  0  0  0  0  0  0
  178.9300  175.6490  141.3030 O   0  0  0  0  0  0  0  0  0  0  0  0
  1 16  1  6  0  0  0
  1 20  1  0  0  0  0
  1 10  1  0  0  0  0
  2 27  2  0  0  0  0
  2 12  1  0  0  0  0
  3  4  1  0  0  0  0
  5  6  2  0  0  0  0
  5 27  1  0  0  0  0
  6 28  1  0  0  0  0
  7 19  1  6  0  0  0
  7 24  1  0  0  0  0
  7 17  1  0  0  0  0
  8 12  1  0  0  0  0
  9 26  1  6  0  0  0
 10 17  1  0  0  0  0
 11  3  2  0  0  0  0
 12 13  1  0  0  0  0
 13 22  2  0  0  0  0
 13 11  1  0  0  0  0
 14 23  2  0  0  0  0
 14 22  1  0  0  0  0
 15  9  1  0  0  0  0
 16 19  1  0  0  0  0
 17  8  1  0  0  0  0
 18  6  1  0  0  0  0
 18 15  2  0  0  0  0
 20 29  1  0  0  0  0
 20 10  1  0  0  0  0
 21  4  2  0  0  0  0
 22 21  1  0  0  0  0
 24  2  1  0  0  0  0
 25  5  1  0  0  0  0
 27 14  1  0  0  0  0
 28  9  1  0  0  0  0
 28 23  1  0  0  0  0
 30 29  1  0  0  0  0
 30 32  2  0  0  0  0
 31 30  1  0  0  0  0
M  END
>  <MODEL>
8

>  <REMARK>
 VINA RESULT:      -8.6      3.877      8.649
  Name = 
  2 active torsions:
  status: ('A' for Active; 'I' for Inactive)
    1  A    between atoms: C_20  and  O_29
    2  A    between atoms: O_29  and  C_30
                            x       y       z     vdW  Elec       q    Type
                         _______ _______ _______ _____ _____    ______ ____

>  <TORSDO>
F 2

$$$$
=
 OpenBabel11122410413D

 32 38  0  0  1  0  0  0  0  0999 V2000
  190.9700  176.7690  137.3110 C   0  0  1  0  0  3  0  0  0  0  0  0
  189.2220  177.5940  142.2270 C   0  0  0  0  0  0  0  0  0  0  0  0
  184.5430  178.9960  141.3930 C   0  0  0  0  0  3  0  0  0  0  0  0
  184.3230  179.1090  142.7660 C   0  0  0  0  0  3  0  0  0  0  0  0
  190.1790  177.5180  144.5850 C   0  0  0  0  0  0  0  0  0  0  0  0
  189.8520  177.5150  145.8800 C   0  0  0  0  0  0  0  0  0  0  0  0
  190.5250  176.6650  140.2910 C   0  0  1  0  0  3  0  0  0  0  0  0
  188.1620  177.2970  139.9390 C   0  0  0  0  0  2  0  0  0  0  0  0
  188.5960  177.7990  147.7710 C   0  0  2  0  0  3  0  0  0  0  0  0
  189.5670  176.9460  137.8930 C   0  0  2  0  0  3  0  0  0  0  0  0
  185.7830  178.5640  140.9190 C   0  0  0  0  0  3  0  0  0  0  0  0
  188.0950  177.7790  141.3260 N   0  0  0  0  0  0  0  0  0  0  0  0
  186.8190  178.2390  141.8120 C   0  0  0  0  0  0  0  0  0  0  0  0
  187.6920  178.0150  144.1170 C   0  0  0  0  0  0  0  0  0  0  0  0
  190.0090  177.5930  148.1740 N   0  0  0  0  0  0  0  0  0  0  0  0
  192.1040  177.0870  138.3090 C   0  0  0  0  0  2  0  0  0  0  0  0
  189.5640  177.4110  139.3640 C   0  0  2  0  0  3  0  0  0  0  0  0
  190.7350  177.4550  146.9720 N   0  0  0  0  0  0  0  0  0  0  0  0
  191.9360  176.5030  139.7170 C   0  0  0  0  0  2  0  0  0  0  0  0
  190.1370  175.5480  137.6790 C   0  0  1  0  0  3  0  0  0  0  0  0
  185.3450  178.7890  143.6620 C   0  0  0  0  0  3  0  0  0  0  0  0
  186.5970  178.3560  143.1920 C   0  0  0  0  0  0  0  0  0  0  0  0
  187.4730  178.0130  145.4410 C   0  0  0  0  0  3  0  0  0  0  0  0
  190.5890  177.3890  141.6210 C   0  0  0  0  0  2  0  0  0  0  0  0
  191.6250  177.3870  144.2250 C   0  0  0  0  0  1  0  0  0  0  0  0
  187.7260  176.7310  148.4070 C   0  0  0  0  0  1  0  0  0  0  0  0
  189.0610  177.7000  143.5770 C   0  0  0  0  0  0  0  0  0  0  0  0
  188.5440  177.6860  146.3220 N   0  0  0  0  0  0  0  0  0  0  0  0
  189.5750  174.9880  136.5010 O   0  0  0  0  0  0  0  0  0  0  0  0
  189.9790  173.7500  135.9970 C   0  0  0  0  0  0  0  0  0  0  0  0
  191.3740  173.2500  136.1770 C   0  0  0  0  0  1  0  0  0  0  0  0
  189.1490  173.0370  135.3770 O   0  0  0  0  0  0  0  0  0  0  0  0
  1 20  1  0  0  0  0
  1 10  1  0  0  0  0
  1 16  1  1  0  0  0
  2 27  2  0  0  0  0
  3  4  1  0  0  0  0
  4 21  2  0  0  0  0
  5  6  2  0  0  0  0
  6 28  1  0  0  0  0
  6 18  1  0  0  0  0
  7 19  1  6  0  0  0
  7 24  1  0  0  0  0
  8 12  1  0  0  0  0
  9 15  1  0  0  0  0
  9 26  1  1  0  0  0
 10 17  1  0  0  0  0
 11  3  2  0  0  0  0
 11 13  1  0  0  0  0
 12 13  1  0  0  0  0
 12  2  1  0  0  0  0
 13 22  2  0  0  0  0
 14 23  2  0  0  0  0
 16 19  1  0  0  0  0
 17  8  1  0  0  0  0
 17  7  1  0  0  0  0
 18 15  2  0  0  0  0
 20 10  1  0  0  0  0
 22 21  1  0  0  0  0
 22 14  1  0  0  0  0
 23 28  1  0  0  0  0
 24  2  1  0  0  0  0
 25  5  1  0  0  0  0
 27 14  1  0  0  0  0
 27  5  1  0  0  0  0
 28  9  1  0  0  0  0
 29 20  1  0  0  0  0
 30 31  1  0  0  0  0
 30 29  1  0  0  0  0
 32 30  2  0  0  0  0
M  END
>  <MODEL>
9

>  <REMARK>
 VINA RESULT:      -8.5      4.004      7.987
  Name = 
  2 active torsions:
  status: ('A' for Active; 'I' for Inactive)
    1  A    between atoms: C_20  and  O_29
    2  A    between atoms: O_29  and  C_30
                            x       y       z     vdW  Elec       q    Type
                         _______ _______ _______ _____ _____    ______ ____

>  <TORSDO>
F 2

$$$$
