=
 OpenBabel11122411123D

 31 35  0  0  1  0  0  0  0  0999 V2000
  190.0770  175.9590  142.8120 C   0  0  0  0  0  0  0  0  0  0  0  0
  186.5090  177.1430  143.4020 C   0  0  2  0  0  3  0  0  0  0  0  0
  186.5100  177.8550  144.7520 C   0  0  0  0  0  0  0  0  0  0  0  0
  187.6060  178.3290  146.9830 C   0  0  0  0  0  0  0  0  0  0  0  0
  187.8880  177.0120  142.7930 C   0  0  0  0  0  0  0  0  0  0  0  0
  190.4870  176.7780  141.7580 C   0  0  0  0  0  3  0  0  0  0  0  0
  187.5950  177.4830  145.7450 C   0  0  0  0  0  2  0  0  0  0  0  0
  186.0700  179.0280  141.7810 C   0  0  2  0  0  3  0  0  0  0  0  0
  190.9370  175.0530  143.3390 F   0  0  0  0  0  0  0  0  0  0  0  0
  184.3170  178.9570  144.2250 C   0  0  0  0  0  2  0  0  0  0  0  0
  188.5950  178.2880  147.7570 O   0  0  0  0  0  0  0  0  0  0  0  0
  187.3450  178.7320  140.9930 C   0  0  0  0  0  2  0  0  0  0  0  0
  185.5090  177.7360  142.3940 C   0  0  2  0  0  3  0  0  0  0  0  0
  188.7830  176.0730  143.3230 C   0  0  0  0  0  3  0  0  0  0  0  0
  186.4470  179.1560  147.3250 C   0  0  0  0  0  3  0  0  0  0  0  0
  188.3020  177.8320  141.7190 C   0  0  0  0  0  0  0  0  0  0  0  0
  189.5970  177.7030  141.2080 C   0  0  0  0  0  3  0  0  0  0  0  0
  184.1670  177.9560  143.0860 C   0  0  0  0  0  2  0  0  0  0  0  0
  185.4580  178.6220  145.1440 C   0  0  0  0  0  0  0  0  0  0  0  0
  185.4410  179.2790  146.4640 C   0  0  0  0  0  3  0  0  0  0  0  0
  184.9260  177.7920  139.4800 O   0  0  0  0  0  0  0  0  0  0  0  0
  184.5460  178.9610  139.7630 C   0  0  0  0  0  0  0  0  0  0  0  0
  185.0870  179.6400  140.8960 N   0  0  0  0  0  2  0  0  0  0  0  0
  180.8280  178.6050  139.0750 N   0  0  0  0  0  0  0  0  0  0  0  0
  182.4400  180.3270  139.7500 C   0  0  0  0  0  2  0  0  0  0  0  0
  183.9060  178.0290  137.1750 F   0  0  0  0  0  0  0  0  0  0  0  0
  179.8670  177.6560  139.6050 C   0  0  0  0  0  1  0  0  0  0  0  0
  181.4140  179.2940  140.2220 C   0  0  0  0  0  2  0  0  0  0  0  0
  182.9260  178.7580  137.8250 C   0  0  2  0  0  3  0  0  0  0  0  0
  183.5340  179.6630  138.9070 C   0  0  2  0  0  3  0  0  0  0  0  0
  181.8740  177.8230  138.4210 C   0  0  0  0  0  2  0  0  0  0  0  0
  1 14  1  0  0  0  0
  1  9  1  0  0  0  0
  2  5  1  6  0  0  0
  2  3  1  0  0  0  0
  3 19  2  0  0  0  0
  3  7  1  0  0  0  0
  4 15  1  0  0  0  0
  4 11  2  0  0  0  0
  5 14  2  0  0  0  0
  6  1  2  0  0  0  0
  7  4  1  0  0  0  0
  8 23  1  6  0  0  0
  8 13  1  0  0  0  0
 10 19  1  0  0  0  0
 12 16  1  0  0  0  0
 12  8  1  0  0  0  0
 13 18  1  1  0  0  0
 13  2  1  0  0  0  0
 16  5  1  0  0  0  0
 17 16  2  0  0  0  0
 17  6  1  0  0  0  0
 18 10  1  0  0  0  0
 19 20  1  0  0  0  0
 20 15  2  0  0  0  0
 21 22  2  0  0  0  0
 22 23  1  0  0  0  0
 24 27  1  0  0  0  0
 24 28  1  0  0  0  0
 25 28  1  0  0  0  0
 29 26  1  1  0  0  0
 29 31  1  0  0  0  0
 29 30  1  0  0  0  0
 30 25  1  0  0  0  0
 30 22  1  1  0  0  0
 31 24  1  0  0  0  0
M  END
>  <MODEL>
1

>  <REMARK>
 VINA RESULT:      -9.1      0.000      0.000
  Name = 
  2 active torsions:
  status: ('A' for Active; 'I' for Inactive)
    1  A    between atoms: C_5  and  C_30
    2  A    between atoms: C_10  and  N_16
                            x       y       z     vdW  Elec       q    Type
                         _______ _______ _______ _____ _____    ______ ____

>  <TORSDO>
F 2

$$$$
=
 OpenBabel11122411123D

 31 35  0  0  1  0  0  0  0  0999 V2000
  191.0690  176.2550  143.4220 C   0  0  0  0  0  0  0  0  0  0  0  0
  187.3600  177.0350  143.7720 C   0  0  2  0  0  3  0  0  0  0  0  0
  187.1960  177.7440  145.1130 C   0  0  0  0  0  0  0  0  0  0  0  0
  188.0850  178.3400  147.4050 C   0  0  0  0  0  0  0  0  0  0  0  0
  188.7820  177.0580  143.2540 C   0  0  0  0  0  0  0  0  0  0  0  0
  191.4520  177.1140  142.3890 C   0  0  0  0  0  3  0  0  0  0  0  0
  188.2480  177.4970  146.1770 C   0  0  0  0  0  2  0  0  0  0  0  0
  186.8200  178.8560  142.1100 C   0  0  2  0  0  3  0  0  0  0  0  0
  191.9880  175.4520  144.0110 F   0  0  0  0  0  0  0  0  0  0  0  0
  184.9320  178.5930  144.4370 C   0  0  0  0  0  2  0  0  0  0  0  0
  189.0210  178.4110  148.2420 O   0  0  0  0  0  0  0  0  0  0  0  0
  188.1680  178.7040  141.4080 C   0  0  0  0  0  2  0  0  0  0  0  0
  186.3690  177.5110  142.6970 C   0  0  2  0  0  3  0  0  0  0  0  0
  189.7400  176.2250  143.8480 C   0  0  0  0  0  3  0  0  0  0  0  0
  186.8220  179.0330  147.6660 C   0  0  0  0  0  3  0  0  0  0  0  0
  189.1710  177.9180  142.2020 C   0  0  0  0  0  0  0  0  0  0  0  0
  190.5030  177.9330  141.7760 C   0  0  0  0  0  3  0  0  0  0  0  0
  184.9680  177.5810  143.2990 C   0  0  0  0  0  2  0  0  0  0  0  0
  186.0410  178.3890  145.4310 C   0  0  0  0  0  0  0  0  0  0  0  0
  185.8660  179.0420  146.7410 C   0  0  0  0  0  3  0  0  0  0  0  0
  186.3840  177.8160  139.4910 O   0  0  0  0  0  0  0  0  0  0  0  0
  185.6600  178.7800  139.8630 C   0  0  0  0  0  0  0  0  0  0  0  0
  185.8350  179.3540  141.1590 N   0  0  0  0  0  2  0  0  0  0  0  0
  182.1540  177.8120  138.7710 N   0  0  0  0  0  0  0  0  0  0  0  0
  183.3460  179.7410  139.7080 C   0  0  0  0  0  2  0  0  0  0  0  0
  185.4480  177.9450  137.1730 F   0  0  0  0  0  0  0  0  0  0  0  0
  181.3440  176.6670  139.1420 C   0  0  0  0  0  1  0  0  0  0  0  0
  182.4920  178.5070  140.0110 C   0  0  0  0  0  2  0  0  0  0  0  0
  184.2930  178.4340  137.7580 C   0  0  2  0  0  3  0  0  0  0  0  0
  184.6180  179.3500  138.9480 C   0  0  2  0  0  3  0  0  0  0  0  0
  183.3840  177.2830  138.1860 C   0  0  0  0  0  2  0  0  0  0  0  0
  1 14  1  0  0  0  0
  1  9  1  0  0  0  0
  2  5  1  6  0  0  0
  2  3  1  0  0  0  0
  3 19  2  0  0  0  0
  3  7  1  0  0  0  0
  4 15  1  0  0  0  0
  4 11  2  0  0  0  0
  5 14  2  0  0  0  0
  6  1  2  0  0  0  0
  7  4  1  0  0  0  0
  8 23  1  6  0  0  0
  8 13  1  0  0  0  0
 10 19  1  0  0  0  0
 12  8  1  0  0  0  0
 12 16  1  0  0  0  0
 13 18  1  1  0  0  0
 13  2  1  0  0  0  0
 16  5  1  0  0  0  0
 17 16  2  0  0  0  0
 17  6  1  0  0  0  0
 18 10  1  0  0  0  0
 19 20  1  0  0  0  0
 20 15  2  0  0  0  0
 21 22  2  0  0  0  0
 22 23  1  0  0  0  0
 24 27  1  0  0  0  0
 24 28  1  0  0  0  0
 25 28  1  0  0  0  0
 29 26  1  1  0  0  0
 29 31  1  0  0  0  0
 29 30  1  0  0  0  0
 30 25  1  0  0  0  0
 30 22  1  1  0  0  0
 31 24  1  0  0  0  0
M  END
>  <MODEL>
2

>  <REMARK>
 VINA RESULT:      -8.8      1.072      1.108
  Name = 
  2 active torsions:
  status: ('A' for Active; 'I' for Inactive)
    1  A    between atoms: C_5  and  C_30
    2  A    between atoms: C_10  and  N_16
                            x       y       z     vdW  Elec       q    Type
                         _______ _______ _______ _____ _____    ______ ____

>  <TORSDO>
F 2

$$$$
=
 OpenBabel11122411123D

 31 35  0  0  1  0  0  0  0  0999 V2000
  191.4020  176.7990  145.3060 C   0  0  0  0  0  0  0  0  0  0  0  0
  187.8490  177.0350  143.9620 C   0  0  2  0  0  3  0  0  0  0  0  0
  187.0460  177.8080  145.0050 C   0  0  0  0  0  0  0  0  0  0  0  0
  186.7860  178.6980  147.3590 C   0  0  0  0  0  0  0  0  0  0  0  0
  189.3440  177.2330  144.0900 C   0  0  0  0  0  0  0  0  0  0  0  0
  192.1020  177.6270  144.4270 C   0  0  0  0  0  3  0  0  0  0  0  0
  187.5530  177.8010  146.4340 C   0  0  0  0  0  2  0  0  0  0  0  0
  187.8960  178.6270  142.0040 C   0  0  2  0  0  3  0  0  0  0  0  0
  192.0530  176.1890  146.3260 F   0  0  0  0  0  0  0  0  0  0  0  0
  185.2240  178.2550  143.3360 C   0  0  0  0  0  2  0  0  0  0  0  0
  187.2540  178.9700  148.4940 O   0  0  0  0  0  0  0  0  0  0  0  0
  189.4230  178.6280  141.9590 C   0  0  0  0  0  2  0  0  0  0  0  0
  187.3770  177.2760  142.5180 C   0  0  2  0  0  3  0  0  0  0  0  0
  190.0300  176.6000  145.1350 C   0  0  0  0  0  3  0  0  0  0  0  0
  185.4700  179.2100  146.9710 C   0  0  0  0  0  3  0  0  0  0  0  0
  190.0580  178.0620  143.1960 C   0  0  0  0  0  0  0  0  0  0  0  0
  191.4330  178.2470  143.3710 C   0  0  0  0  0  3  0  0  0  0  0  0
  185.8550  177.1780  142.4620 C   0  0  0  0  0  2  0  0  0  0  0  0
  185.8080  178.2930  144.7210 C   0  0  0  0  0  0  0  0  0  0  0  0
  185.0150  179.0070  145.7390 C   0  0  0  0  0  3  0  0  0  0  0  0
  188.6610  177.2590  139.6220 O   0  0  0  0  0  0  0  0  0  0  0  0
  187.7930  178.1690  139.5180 C   0  0  0  0  0  0  0  0  0  0  0  0
  187.3740  178.9000  140.6710 N   0  0  0  0  0  2  0  0  0  0  0  0
  187.8070  176.6320  136.0460 N   0  0  0  0  0  0  0  0  0  0  0  0
  186.2040  177.4450  137.7150 C   0  0  0  0  0  2  0  0  0  0  0  0
  189.2540  179.6230  137.5870 F   0  0  0  0  0  0  0  0  0  0  0  0
  188.4530  175.4270  135.5610 C   0  0  0  0  0  1  0  0  0  0  0  0
  186.9360  176.2270  137.1460 C   0  0  0  0  0  2  0  0  0  0  0  0
  188.2590  178.7900  137.1070 C   0  0  2  0  0  3  0  0  0  0  0  0
  187.2010  178.5100  138.1830 C   0  0  2  0  0  3  0  0  0  0  0  0
  188.8630  177.4880  136.5810 C   0  0  0  0  0  2  0  0  0  0  0  0
  1  9  1  0  0  0  0
  2  5  1  6  0  0  0
  2  3  1  0  0  0  0
  3  7  1  0  0  0  0
  4 11  2  0  0  0  0
  5 14  2  0  0  0  0
  6  1  2  0  0  0  0
  7  4  1  0  0  0  0
  8 23  1  6  0  0  0
  8 13  1  0  0  0  0
 10 19  1  0  0  0  0
 12  8  1  0  0  0  0
 12 16  1  0  0  0  0
 13 18  1  1  0  0  0
 13  2  1  0  0  0  0
 14  1  1  0  0  0  0
 15  4  1  0  0  0  0
 16 17  2  0  0  0  0
 16  5  1  0  0  0  0
 17  6  1  0  0  0  0
 18 10  1  0  0  0  0
 19  3  2  0  0  0  0
 19 20  1  0  0  0  0
 20 15  2  0  0  0  0
 22 21  2  0  0  0  0
 22 23  1  0  0  0  0
 24 31  1  0  0  0  0
 24 28  1  0  0  0  0
 25 30  1  0  0  0  0
 27 24  1  0  0  0  0
 28 25  1  0  0  0  0
 29 26  1  1  0  0  0
 29 30  1  0  0  0  0
 30 22  1  1  0  0  0
 31 29  1  0  0  0  0
M  END
>  <MODEL>
3

>  <REMARK>
 VINA RESULT:      -8.7      3.027      3.905
  Name = 
  2 active torsions:
  status: ('A' for Active; 'I' for Inactive)
    1  A    between atoms: C_5  and  C_30
    2  A    between atoms: C_10  and  N_16
                            x       y       z     vdW  Elec       q    Type
                         _______ _______ _______ _____ _____    ______ ____

>  <TORSDO>
F 2

$$$$
=
 OpenBabel11122411123D

 31 35  0  0  1  0  0  0  0  0999 V2000
  190.5920  176.7570  146.4040 C   0  0  0  0  0  0  0  0  0  0  0  0
  187.8330  177.0780  143.8020 C   0  0  2  0  0  3  0  0  0  0  0  0
  186.7590  177.9690  144.4220 C   0  0  0  0  0  0  0  0  0  0  0  0
  185.7050  179.0450  146.4540 C   0  0  0  0  0  0  0  0  0  0  0  0
  189.1800  177.2070  144.4780 C   0  0  0  0  0  0  0  0  0  0  0  0
  191.6330  177.4780  145.8170 C   0  0  0  0  0  3  0  0  0  0  0  0
  186.6910  178.0420  145.9360 C   0  0  0  0  0  2  0  0  0  0  0  0
  188.7330  178.5140  141.9320 C   0  0  2  0  0  3  0  0  0  0  0  0
  190.7630  176.1920  147.6230 F   0  0  0  0  0  0  0  0  0  0  0  0
  185.7370  178.3840  142.1670 C   0  0  0  0  0  2  0  0  0  0  0  0
  185.7310  179.3770  147.6670 O   0  0  0  0  0  0  0  0  0  0  0  0
  190.1610  178.4310  142.4700 C   0  0  0  0  0  2  0  0  0  0  0  0
  187.9570  177.2350  142.2770 C   0  0  2  0  0  3  0  0  0  0  0  0
  189.3740  176.6190  145.7350 C   0  0  0  0  0  3  0  0  0  0  0  0
  184.6740  179.5950  145.5720 C   0  0  0  0  0  3  0  0  0  0  0  0
  190.2400  177.9270  143.8820 C   0  0  0  0  0  0  0  0  0  0  0  0
  191.4590  178.0520  144.5560 C   0  0  0  0  0  3  0  0  0  0  0  0
  186.5650  177.2130  141.6520 C   0  0  0  0  0  2  0  0  0  0  0  0
  185.7590  178.4960  143.6660 C   0  0  0  0  0  0  0  0  0  0  0  0
  184.7000  179.3250  144.2700 C   0  0  0  0  0  3  0  0  0  0  0  0
  190.1190  176.8520  140.0760 O   0  0  0  0  0  0  0  0  0  0  0  0
  189.4800  177.8360  139.6120 C   0  0  0  0  0  0  0  0  0  0  0  0
  188.7730  178.7130  140.4890 N   0  0  0  0  0  2  0  0  0  0  0  0
  188.2050  176.0510  136.5110 N   0  0  0  0  0  0  0  0  0  0  0  0
  188.0350  178.2430  137.5990 C   0  0  0  0  0  2  0  0  0  0  0  0
  191.4990  176.8390  137.9070 F   0  0  0  0  0  0  0  0  0  0  0  0
  187.5290  174.7740  136.3810 C   0  0  0  0  0  1  0  0  0  0  0  0
  187.3930  176.8660  137.4120 C   0  0  0  0  0  2  0  0  0  0  0  0
  190.2690  177.0860  137.3240 C   0  0  2  0  0  3  0  0  0  0  0  0
  189.4640  178.1100  138.1380 C   0  0  2  0  0  3  0  0  0  0  0  0
  189.4870  175.7820  137.1580 C   0  0  0  0  0  2  0  0  0  0  0  0
  1  9  1  0  0  0  0
  2  3  1  1  0  0  0
  2  5  1  0  0  0  0
  3  7  1  0  0  0  0
  4 11  2  0  0  0  0
  5 14  1  0  0  0  0
  6  1  1  0  0  0  0
  7  4  1  0  0  0  0
  8 23  1  6  0  0  0
  8 13  1  0  0  0  0
  8 12  1  0  0  0  0
 10 19  1  0  0  0  0
 12 16  1  0  0  0  0
 13 18  1  6  0  0  0
 13  2  1  0  0  0  0
 14  1  2  0  0  0  0
 15  4  1  0  0  0  0
 16  5  2  0  0  0  0
 16 17  1  0  0  0  0
 17  6  2  0  0  0  0
 18 10  1  0  0  0  0
 19 20  1  0  0  0  0
 19  3  2  0  0  0  0
 20 15  2  0  0  0  0
 22 21  2  0  0  0  0
 22 23  1  0  0  0  0
 24 31  1  0  0  0  0
 24 28  1  0  0  0  0
 25 30  1  0  0  0  0
 27 24  1  0  0  0  0
 28 25  1  0  0  0  0
 29 26  1  1  0  0  0
 29 30  1  0  0  0  0
 30 22  1  1  0  0  0
 31 29  1  0  0  0  0
M  END
>  <MODEL>
4

>  <REMARK>
 VINA RESULT:      -8.3      3.542      4.675
  Name = 
  2 active torsions:
  status: ('A' for Active; 'I' for Inactive)
    1  A    between atoms: C_5  and  C_30
    2  A    between atoms: C_10  and  N_16
                            x       y       z     vdW  Elec       q    Type
                         _______ _______ _______ _____ _____    ______ ____

>  <TORSDO>
F 2

$$$$
=
 OpenBabel11122411123D

 31 35  0  0  1  0  0  0  0  0999 V2000
  189.7070  176.4030  142.2780 C   0  0  0  0  0  0  0  0  0  0  0  0
  186.6400  177.0820  144.4270 C   0  0  2  0  0  3  0  0  0  0  0  0
  187.1580  177.6360  145.7520 C   0  0  0  0  0  0  0  0  0  0  0  0
  189.0490  177.9880  147.3950 C   0  0  0  0  0  0  0  0  0  0  0  0
  187.6470  177.1840  143.3020 C   0  0  0  0  0  0  0  0  0  0  0  0
  189.5890  177.3770  141.2850 C   0  0  0  0  0  3  0  0  0  0  0  0
  188.5780  177.2890  146.1550 C   0  0  0  0  0  2  0  0  0  0  0  0
  185.4490  179.0670  143.4220 C   0  0  2  0  0  3  0  0  0  0  0  0
  190.7640  175.5550  142.2730 F   0  0  0  0  0  0  0  0  0  0  0  0
  184.8780  178.5190  146.3250 C   0  0  0  0  0  2  0  0  0  0  0  0
  190.2710  177.9800  147.6890 O   0  0  0  0  0  0  0  0  0  0  0  0
  186.2970  179.0150  142.1530 C   0  0  0  0  0  2  0  0  0  0  0  0
  185.2770  177.6590  144.0090 C   0  0  2  0  0  3  0  0  0  0  0  0
  188.7380  176.3060  143.2790 C   0  0  0  0  0  3  0  0  0  0  0  0
  188.0870  178.6280  148.2950 C   0  0  0  0  0  3  0  0  0  0  0  0
  187.5240  178.1610  142.2880 C   0  0  0  0  0  0  0  0  0  0  0  0
  188.4950  178.2440  141.2850 C   0  0  0  0  0  3  0  0  0  0  0  0
  184.3320  177.6400  145.2080 C   0  0  0  0  0  2  0  0  0  0  0  0
  186.3170  178.2230  146.6450 C   0  0  0  0  0  0  0  0  0  0  0  0
  186.8090  178.7250  147.9420 C   0  0  0  0  0  3  0  0  0  0  0  0
  183.4710  177.8900  141.7400 O   0  0  0  0  0  0  0  0  0  0  0  0
  183.2000  179.0040  142.2670 C   0  0  0  0  0  0  0  0  0  0  0  0
  184.1510  179.6520  143.1120 N   0  0  0  0  0  2  0  0  0  0  0  0
  179.7150  177.8840  141.2520 N   0  0  0  0  0  0  0  0  0  0  0  0
  180.8070  179.2210  142.9950 C   0  0  0  0  0  2  0  0  0  0  0  0
  182.4280  179.7580  139.6560 F   0  0  0  0  0  0  0  0  0  0  0  0
  179.2080  176.5540  140.9690 C   0  0  0  0  0  1  0  0  0  0  0  0
  180.2540  177.8470  142.6100 C   0  0  0  0  0  2  0  0  0  0  0  0
  181.4030  179.5120  140.5530 C   0  0  2  0  0  3  0  0  0  0  0  0
  181.8830  179.6730  142.0030 C   0  0  2  0  0  3  0  0  0  0  0  0
  180.8180  178.1190  140.3230 C   0  0  0  0  0  2  0  0  0  0  0  0
  1 14  1  0  0  0  0
  2  5  1  6  0  0  0
  2  3  1  0  0  0  0
  3  7  1  0  0  0  0
  3 19  2  0  0  0  0
  4 11  2  0  0  0  0
  4 15  1  0  0  0  0
  6 17  1  0  0  0  0
  6  1  2  0  0  0  0
  7  4  1  0  0  0  0
  8 23  1  6  0  0  0
  8 13  1  0  0  0  0
  9  1  1  0  0  0  0
 10 19  1  0  0  0  0
 12 16  1  0  0  0  0
 12  8  1  0  0  0  0
 13  2  1  0  0  0  0
 13 18  1  1  0  0  0
 14  5  2  0  0  0  0
 16  5  1  0  0  0  0
 17 16  2  0  0  0  0
 18 10  1  0  0  0  0
 19 20  1  0  0  0  0
 20 15  2  0  0  0  0
 21 22  2  0  0  0  0
 22 23  1  0  0  0  0
 24 28  1  0  0  0  0
 27 24  1  0  0  0  0
 28 25  1  0  0  0  0
 29 26  1  6  0  0  0
 29 30  1  0  0  0  0
 30 22  1  6  0  0  0
 30 25  1  0  0  0  0
 31 29  1  0  0  0  0
 31 24  1  0  0  0  0
M  END
>  <MODEL>
5

>  <REMARK>
 VINA RESULT:      -7.7      1.682      2.111
  Name = 
  2 active torsions:
  status: ('A' for Active; 'I' for Inactive)
    1  A    between atoms: C_5  and  C_30
    2  A    between atoms: C_10  and  N_16
                            x       y       z     vdW  Elec       q    Type
                         _______ _______ _______ _____ _____    ______ ____

>  <TORSDO>
F 2

$$$$
=
 OpenBabel11122411123D

 31 35  0  0  1  0  0  0  0  0999 V2000
  183.6340  178.8250  144.1840 C   0  0  0  0  0  0  0  0  0  0  0  0
  182.6930  178.0680  140.5750 C   0  0  2  0  0  3  0  0  0  0  0  0
  181.5970  179.0630  140.1990 C   0  0  0  0  0  0  0  0  0  0  0  0
  179.8180  180.7290  140.8780 C   0  0  0  0  0  0  0  0  0  0  0  0
  183.5010  178.4960  141.7800 C   0  0  0  0  0  0  0  0  0  0  0  0
  184.9220  179.3470  144.0470 C   0  0  0  0  0  3  0  0  0  0  0  0
  180.7700  179.6600  141.3220 C   0  0  0  0  0  2  0  0  0  0  0  0
  184.6280  178.8010  139.1290 C   0  0  2  0  0  3  0  0  0  0  0  0
  183.0680  178.7330  145.4120 F   0  0  0  0  0  0  0  0  0  0  0  0
  181.9580  178.6070  137.7570 C   0  0  0  0  0  2  0  0  0  0  0  0
  179.2640  181.4660  141.7320 O   0  0  0  0  0  0  0  0  0  0  0  0
  185.5440  178.9860  140.3380 C   0  0  0  0  0  2  0  0  0  0  0  0
  183.6070  177.6860  139.3990 C   0  0  2  0  0  3  0  0  0  0  0  0
  182.9300  178.3980  143.0570 C   0  0  0  0  0  3  0  0  0  0  0  0
  179.4830  180.8800  139.4600 C   0  0  0  0  0  3  0  0  0  0  0  0
  184.8090  179.0150  141.6460 C   0  0  0  0  0  0  0  0  0  0  0  0
  185.5090  179.4310  142.7830 C   0  0  0  0  0  3  0  0  0  0  0  0
  182.7500  177.3740  138.1750 C   0  0  0  0  0  2  0  0  0  0  0  0
  181.2200  179.2390  138.9050 C   0  0  0  0  0  0  0  0  0  0  0  0
  180.1370  180.1710  138.5440 C   0  0  0  0  0  3  0  0  0  0  0  0
  187.4330  178.2920  139.1470 O   0  0  0  0  0  0  0  0  0  0  0  0
  186.8360  178.2280  138.0370 C   0  0  0  0  0  0  0  0  0  0  0  0
  185.4340  178.4820  137.9580 N   0  0  0  0  0  2  0  0  0  0  0  0
  189.9200  176.1960  137.1500 N   0  0  0  0  0  0  0  0  0  0  0  0
  187.5680  176.3990  136.4810 C   0  0  0  0  0  2  0  0  0  0  0  0
  189.0650  179.7570  137.2180 F   0  0  0  0  0  0  0  0  0  0  0  0
  190.8130  175.4350  138.0020 C   0  0  0  0  0  1  0  0  0  0  0  0
  188.5790  175.6530  137.3560 C   0  0  0  0  0  2  0  0  0  0  0  0
  189.0270  178.4440  136.7820 C   0  0  2  0  0  3  0  0  0  0  0  0
  187.5900  177.9010  136.7830 C   0  0  2  0  0  3  0  0  0  0  0  0
  189.9430  177.5720  137.6400 C   0  0  0  0  0  2  0  0  0  0  0  0
  1  9  1  0  0  0  0
  2  3  1  6  0  0  0
  2  5  1  0  0  0  0
  3  7  1  0  0  0  0
  4  7  1  0  0  0  0
  4 11  2  0  0  0  0
  5 14  1  0  0  0  0
  6  1  1  0  0  0  0
  8 23  1  6  0  0  0
  8 13  1  0  0  0  0
  8 12  1  0  0  0  0
 10 18  1  0  0  0  0
 10 19  1  0  0  0  0
 12 16  1  0  0  0  0
 13 18  1  6  0  0  0
 13  2  1  0  0  0  0
 14  1  2  0  0  0  0
 15  4  1  0  0  0  0
 16  5  2  0  0  0  0
 16 17  1  0  0  0  0
 17  6  2  0  0  0  0
 19  3  2  0  0  0  0
 20 19  1  0  0  0  0
 20 15  2  0  0  0  0
 22 21  2  0  0  0  0
 23 22  1  0  0  0  0
 24 28  1  0  0  0  0
 24 31  1  0  0  0  0
 24 27  1  0  0  0  0
 25 30  1  0  0  0  0
 25 28  1  0  0  0  0
 29 30  1  0  0  0  0
 29 26  1  1  0  0  0
 29 31  1  0  0  0  0
 30 22  1  1  0  0  0
M  END
>  <MODEL>
6

>  <REMARK>
 VINA RESULT:      -7.7      3.548      7.048
  Name = 
  2 active torsions:
  status: ('A' for Active; 'I' for Inactive)
    1  A    between atoms: C_5  and  C_30
    2  A    between atoms: C_10  and  N_16
                            x       y       z     vdW  Elec       q    Type
                         _______ _______ _______ _____ _____    ______ ____

>  <TORSDO>
F 2

$$$$
=
 OpenBabel11122411123D

 31 35  0  0  1  0  0  0  0  0999 V2000
  188.8790  178.1590  142.4790 C   0  0  0  0  0  0  0  0  0  0  0  0
  186.0540  179.0030  140.0740 C   0  0  2  0  0  3  0  0  0  0  0  0
  186.1960  178.0470  138.8920 C   0  0  0  0  0  0  0  0  0  0  0  0
  187.5840  176.4230  137.5360 C   0  0  0  0  0  0  0  0  0  0  0  0
  186.7800  178.5310  141.3150 C   0  0  0  0  0  0  0  0  0  0  0  0
  188.1890  177.6010  143.5570 C   0  0  0  0  0  3  0  0  0  0  0  0
  187.5670  177.4560  138.6230 C   0  0  0  0  0  2  0  0  0  0  0  0
  183.9030  178.2380  141.1510 C   0  0  2  0  0  3  0  0  0  0  0  0
  190.2310  178.2460  142.5130 F   0  0  0  0  0  0  0  0  0  0  0  0
  183.8450  178.5330  138.1570 C   0  0  0  0  0  2  0  0  0  0  0  0
  188.5940  175.6890  137.3900 O   0  0  0  0  0  0  0  0  0  0  0  0
  184.5850  178.0050  142.4980 C   0  0  0  0  0  2  0  0  0  0  0  0
  184.5960  179.3780  140.3900 C   0  0  2  0  0  3  0  0  0  0  0  0
  188.1770  178.6250  141.3660 C   0  0  0  0  0  3  0  0  0  0  0  0
  186.4580  176.3060  136.6080 C   0  0  0  0  0  3  0  0  0  0  0  0
  186.0830  177.9770  142.4120 C   0  0  0  0  0  0  0  0  0  0  0  0
  186.7960  177.5210  143.5260 C   0  0  0  0  0  3  0  0  0  0  0  0
  183.8740  179.7350  139.0940 C   0  0  0  0  0  2  0  0  0  0  0  0
  185.1990  177.9040  137.9790 C   0  0  0  0  0  0  0  0  0  0  0  0
  185.3490  177.0100  136.8160 C   0  0  0  0  0  3  0  0  0  0  0  0
  181.7000  176.7470  140.1240 O   0  0  0  0  0  0  0  0  0  0  0  0
  181.4400  177.7570  140.8340 C   0  0  0  0  0  0  0  0  0  0  0  0
  182.4970  178.5520  141.3700 N   0  0  0  0  0  2  0  0  0  0  0  0
  179.0260  180.3940  139.5520 N   0  0  0  0  0  0  0  0  0  0  0  0
  179.1260  177.9660  139.8810 C   0  0  0  0  0  2  0  0  0  0  0  0
  180.8100  179.7890  142.6930 F   0  0  0  0  0  0  0  0  0  0  0  0
  179.2190  181.4300  138.5550 C   0  0  0  0  0  1  0  0  0  0  0  0
  179.3150  179.1210  138.8950 C   0  0  0  0  0  2  0  0  0  0  0  0
  179.8850  179.5660  141.6880 C   0  0  2  0  0  3  0  0  0  0  0  0
  180.0190  178.1490  141.1130 C   0  0  2  0  0  3  0  0  0  0  0  0
  180.0300  180.6190  140.5890 C   0  0  0  0  0  2  0  0  0  0  0  0
  1  9  1  0  0  0  0
  1  6  1  0  0  0  0
  2  3  1  6  0  0  0
  2 13  1  0  0  0  0
  2  5  1  0  0  0  0
  4  7  1  0  0  0  0
  5 14  1  0  0  0  0
  5 16  2  0  0  0  0
  7  3  1  0  0  0  0
  8 23  1  1  0  0  0
  8 12  1  0  0  0  0
 10 18  1  0  0  0  0
 11  4  2  0  0  0  0
 13 18  1  6  0  0  0
 13  8  1  0  0  0  0
 14  1  2  0  0  0  0
 15 20  2  0  0  0  0
 15  4  1  0  0  0  0
 16 12  1  0  0  0  0
 16 17  1  0  0  0  0
 17  6  2  0  0  0  0
 19 10  1  0  0  0  0
 19  3  2  0  0  0  0
 20 19  1  0  0  0  0
 21 22  2  0  0  0  0
 22 23  1  0  0  0  0
 24 31  1  0  0  0  0
 25 30  1  0  0  0  0
 27 24  1  0  0  0  0
 28 24  1  0  0  0  0
 28 25  1  0  0  0  0
 29 26  1  1  0  0  0
 30 22  1  6  0  0  0
 30 29  1  0  0  0  0
 31 29  1  0  0  0  0
M  END
>  <MODEL>
7

>  <REMARK>
 VINA RESULT:      -7.5      3.019      5.398
  Name = 
  2 active torsions:
  status: ('A' for Active; 'I' for Inactive)
    1  A    between atoms: C_5  and  C_30
    2  A    between atoms: C_10  and  N_16
                            x       y       z     vdW  Elec       q    Type
                         _______ _______ _______ _____ _____    ______ ____

>  <TORSDO>
F 2

$$$$
=
 OpenBabel11122411123D

 31 35  0  0  1  0  0  0  0  0999 V2000
  183.5940  178.9940  143.1010 C   0  0  0  0  0  0  0  0  0  0  0  0
  183.0110  177.8340  139.5230 C   0  0  2  0  0  3  0  0  0  0  0  0
  182.0960  178.8720  138.8790 C   0  0  0  0  0  0  0  0  0  0  0  0
  180.4590  180.7890  139.0920 C   0  0  0  0  0  0  0  0  0  0  0  0
  183.7140  178.3440  140.7630 C   0  0  0  0  0  0  0  0  0  0  0  0
  184.9420  179.3580  143.0740 C   0  0  0  0  0  3  0  0  0  0  0  0
  181.2170  179.7030  139.7940 C   0  0  0  0  0  2  0  0  0  0  0  0
  185.1800  178.1530  138.2720 C   0  0  2  0  0  3  0  0  0  0  0  0
  182.8770  179.1360  144.2420 F   0  0  0  0  0  0  0  0  0  0  0  0
  182.6910  178.0400  136.5860 C   0  0  0  0  0  2  0  0  0  0  0  0
  179.8980  181.6930  139.7630 O   0  0  0  0  0  0  0  0  0  0  0  0
  185.9590  178.4140  139.5600 C   0  0  0  0  0  2  0  0  0  0  0  0
  184.0080  177.1980  138.5400 C   0  0  2  0  0  3  0  0  0  0  0  0
  182.9860  178.4860  141.9520 C   0  0  0  0  0  3  0  0  0  0  0  0
  180.3180  180.7710  137.6350 C   0  0  0  0  0  3  0  0  0  0  0  0
  185.0800  178.7020  140.7430 C   0  0  0  0  0  0  0  0  0  0  0  0
  185.6830  179.2020  141.9010 C   0  0  0  0  0  3  0  0  0  0  0  0
  183.2740  176.8050  137.2610 C   0  0  0  0  0  2  0  0  0  0  0  0
  181.9010  178.9000  137.5340 C   0  0  0  0  0  0  0  0  0  0  0  0
  180.9880  179.8770  136.9140 C   0  0  0  0  0  3  0  0  0  0  0  0
  187.2110  179.5950  136.8840 O   0  0  0  0  0  0  0  0  0  0  0  0
  187.0820  178.3680  136.6190 C   0  0  0  0  0  0  0  0  0  0  0  0
  186.0770  177.5920  137.2710 N   0  0  0  0  0  2  0  0  0  0  0  0
  188.3670  174.8510  135.9810 N   0  0  0  0  0  0  0  0  0  0  0  0
  187.2120  176.6560  134.7860 C   0  0  0  0  0  2  0  0  0  0  0  0
  189.8450  178.0150  137.0850 F   0  0  0  0  0  0  0  0  0  0  0  0
  188.1330  173.6240  136.7180 C   0  0  0  0  0  1  0  0  0  0  0  0
  187.0560  175.3580  135.5820 C   0  0  0  0  0  2  0  0  0  0  0  0
  189.2500  177.1220  136.2130 C   0  0  2  0  0  3  0  0  0  0  0  0
  187.9680  177.7090  135.6040 C   0  0  2  0  0  3  0  0  0  0  0  0
  188.9640  175.7980  136.9200 C   0  0  0  0  0  2  0  0  0  0  0  0
  1  9  1  0  0  0  0
  2  3  1  6  0  0  0
  2  5  1  0  0  0  0
  3  7  1  0  0  0  0
  4 11  2  0  0  0  0
  4  7  1  0  0  0  0
  5 14  1  0  0  0  0
  6  1  1  0  0  0  0
  8 23  1  6  0  0  0
  8 13  1  0  0  0  0
  8 12  1  0  0  0  0
 10 18  1  0  0  0  0
 10 19  1  0  0  0  0
 12 16  1  0  0  0  0
 13 18  1  6  0  0  0
 13  2  1  0  0  0  0
 14  1  2  0  0  0  0
 15  4  1  0  0  0  0
 16  5  2  0  0  0  0
 16 17  1  0  0  0  0
 17  6  2  0  0  0  0
 19  3  2  0  0  0  0
 20 19  1  0  0  0  0
 20 15  2  0  0  0  0
 22 21  2  0  0  0  0
 22 23  1  0  0  0  0
 24 27  1  0  0  0  0
 24 31  1  0  0  0  0
 25 28  1  0  0  0  0
 25 30  1  0  0  0  0
 28 24  1  0  0  0  0
 29 31  1  0  0  0  0
 29 26  1  1  0  0  0
 30 29  1  0  0  0  0
 30 22  1  1  0  0  0
M  END
>  <MODEL>
8

>  <REMARK>
 VINA RESULT:      -7.5      4.030      7.353
  Name = 
  2 active torsions:
  status: ('A' for Active; 'I' for Inactive)
    1  A    between atoms: C_5  and  C_30
    2  A    between atoms: C_10  and  N_16
                            x       y       z     vdW  Elec       q    Type
                         _______ _______ _______ _____ _____    ______ ____

>  <TORSDO>
F 2

$$$$
=
 OpenBabel11122411123D

 31 35  0  0  1  0  0  0  0  0999 V2000
  191.3890  177.3860  141.1050 C   0  0  0  0  0  0  0  0  0  0  0  0
  189.1260  177.9100  138.0900 C   0  0  2  0  0  3  0  0  0  0  0  0
  189.0770  176.5740  137.3530 C   0  0  0  0  0  0  0  0  0  0  0  0
  190.0360  174.2750  136.9080 C   0  0  0  0  0  0  0  0  0  0  0  0
  189.5850  177.7840  139.5260 C   0  0  0  0  0  0  0  0  0  0  0  0
  190.4840  177.4620  142.1660 C   0  0  0  0  0  3  0  0  0  0  0  0
  190.2340  175.6140  137.5530 C   0  0  0  0  0  2  0  0  0  0  0  0
  186.7690  178.1520  138.9580 C   0  0  2  0  0  3  0  0  0  0  0  0
  192.7010  177.1510  141.3500 F   0  0  0  0  0  0  0  0  0  0  0  0
  187.0330  177.2970  136.0860 C   0  0  0  0  0  2  0  0  0  0  0  0
  190.7970  173.3200  137.2060 O   0  0  0  0  0  0  0  0  0  0  0  0
  187.2470  178.2900  140.4030 C   0  0  0  0  0  2  0  0  0  0  0  0
  187.8200  178.7160  137.9910 C   0  0  2  0  0  3  0  0  0  0  0  0
  190.9410  177.5500  139.7930 C   0  0  0  0  0  3  0  0  0  0  0  0
  189.0010  174.0900  135.8900 C   0  0  0  0  0  3  0  0  0  0  0  0
  188.6740  177.8710  140.6030 C   0  0  0  0  0  0  0  0  0  0  0  0
  189.1340  177.7140  141.9140 C   0  0  0  0  0  3  0  0  0  0  0  0
  187.3370  178.7180  136.5440 C   0  0  0  0  0  2  0  0  0  0  0  0
  188.1560  176.3410  136.3800 C   0  0  0  0  0  0  0  0  0  0  0  0
  188.1310  175.0650  135.6410 C   0  0  0  0  0  3  0  0  0  0  0  0
  184.2850  176.9370  138.2640 O   0  0  0  0  0  0  0  0  0  0  0  0
  184.2890  178.1840  138.4600 C   0  0  0  0  0  0  0  0  0  0  0  0
  185.5020  178.8550  138.8000 N   0  0  0  0  0  2  0  0  0  0  0  0
  180.6070  177.6310  139.2070 N   0  0  0  0  0  0  0  0  0  0  0  0
  182.3790  179.2600  139.6830 C   0  0  0  0  0  2  0  0  0  0  0  0
  182.6410  177.9520  136.1780 F   0  0  0  0  0  0  0  0  0  0  0  0
  179.9290  176.4720  139.7570 C   0  0  0  0  0  1  0  0  0  0  0  0
  181.6170  178.0300  140.1830 C   0  0  0  0  0  2  0  0  0  0  0  0
  182.0200  178.3580  137.3460 C   0  0  2  0  0  3  0  0  0  0  0  0
  183.0270  178.9830  138.3220 C   0  0  2  0  0  3  0  0  0  0  0  0
  181.2860  177.1840  137.9930 C   0  0  0  0  0  2  0  0  0  0  0  0
  1  9  1  0  0  0  0
  1  6  1  0  0  0  0
  2  3  1  1  0  0  0
  2  5  1  0  0  0  0
  3  7  1  0  0  0  0
  4 11  2  0  0  0  0
  4  7  1  0  0  0  0
  5 14  1  0  0  0  0
  5 16  2  0  0  0  0
  8 23  1  1  0  0  0
  8 12  1  0  0  0  0
 10 19  1  0  0  0  0
 10 18  1  0  0  0  0
 12 16  1  0  0  0  0
 13 18  1  6  0  0  0
 13  2  1  0  0  0  0
 13  8  1  0  0  0  0
 14  1  2  0  0  0  0
 15  4  1  0  0  0  0
 16 17  1  0  0  0  0
 17  6  2  0  0  0  0
 19  3  2  0  0  0  0
 20 15  2  0  0  0  0
 20 19  1  0  0  0  0
 21 22  2  0  0  0  0
 22 23  1  0  0  0  0
 24 27  1  0  0  0  0
 24 28  1  0  0  0  0
 25 28  1  0  0  0  0
 29 26  1  6  0  0  0
 29 31  1  0  0  0  0
 29 30  1  0  0  0  0
 30 22  1  1  0  0  0
 30 25  1  0  0  0  0
 31 24  1  0  0  0  0
M  END
>  <MODEL>
9

>  <REMARK>
 VINA RESULT:      -7.4      3.477      5.892
  Name = 
  2 active torsions:
  status: ('A' for Active; 'I' for Inactive)
    1  A    between atoms: C_5  and  C_30
    2  A    between atoms: C_10  and  N_16
                            x       y       z     vdW  Elec       q    Type
                         _______ _______ _______ _____ _____    ______ ____

>  <TORSDO>
F 2

$$$$
