=
 OpenBabel11122410253D

 30 35  0  0  1  0  0  0  0  0999 V2000
  186.3290  178.4590  140.0810 C   0  0  0  0  0  0  0  0  0  0  0  0
  187.9250  178.2910  138.1800 C   0  0  0  0  0  0  0  0  0  0  0  0
  189.2480  177.4560  142.7970 N   0  0  0  0  0  2  0  0  0  0  0  0
  186.0760  178.4210  141.4780 C   0  0  0  0  0  0  0  0  0  0  0  0
  185.2640  178.7350  139.2170 O   0  0  0  0  0  0  0  0  0  0  0  0
  182.3360  179.0760  141.5620 C   0  0  0  0  0  1  0  0  0  0  0  0
  184.6950  178.0970  144.2790 C   0  0  1  0  0  3  0  0  0  0  0  0
  183.7440  179.2830  141.0080 C   0  0  2  0  0  3  0  0  0  0  0  0
  186.0990  177.6470  144.6630 C   0  0  2  0  0  3  0  0  0  0  0  0
  188.4640  177.4630  143.8950 C   0  0  0  0  0  0  0  0  0  0  0  0
  183.9120  178.6030  139.6440 C   0  0  2  0  0  3  0  0  0  0  0  0
  184.7910  178.8740  141.9620 N   0  0  0  0  0  0  0  0  0  0  0  0
  189.2240  178.0470  137.7250 C   0  0  0  0  0  3  0  0  0  0  0  0
  186.4020  178.3530  145.9700 C   0  0  0  0  0  2  0  0  0  0  0  0
  184.0000  178.4310  145.5890 C   0  0  0  0  0  2  0  0  0  0  0  0
  186.9470  178.5980  137.2430 O   0  0  0  0  0  1  0  0  0  0  0  0
  188.3950  177.8110  141.8220 C   0  0  0  0  0  0  0  0  0  0  0  0
  190.2460  177.7340  138.6210 C   0  0  0  0  0  3  0  0  0  0  0  0
  187.6340  178.2240  139.5650 C   0  0  0  0  0  0  0  0  0  0  0  0
  187.1380  178.0370  142.3270 C   0  0  0  0  0  0  0  0  0  0  0  0
  188.8970  177.1250  145.0290 O   0  0  0  0  0  0  0  0  0  0  0  0
  187.1720  177.8240  143.6680 N   0  0  0  0  0  0  0  0  0  0  0  0
  185.0650  178.4600  146.6730 C   0  0  0  0  0  2  0  0  0  0  0  0
  185.5230  180.4750  143.7080 C   0  0  0  0  0  1  0  0  0  0  0  0
  189.9780  177.6580  139.9870 C   0  0  0  0  0  3  0  0  0  0  0  0
  188.6860  177.9020  140.4630 C   0  0  0  0  0  0  0  0  0  0  0  0
  184.6200  179.2970  143.3450 C   0  0  2  0  0  3  0  0  0  0  0  0
  183.5330  177.1240  139.6910 C   0  0  0  0  0  2  0  0  0  0  0  0
  182.8400  175.3820  138.5310 C   0  0  0  0  0  1  0  0  0  0  0  0
  183.5010  176.6020  138.3980 O   0  0  0  0  0  0  0  0  0  0  0  0
  1  4  1  0  0  0  0
  2 19  1  0  0  0  0
  3 10  1  0  0  0  0
  4 12  1  0  0  0  0
  4 20  2  0  0  0  0
  5 11  1  0  0  0  0
  5  1  1  0  0  0  0
  7  9  1  0  0  0  0
  7 15  1  1  0  0  0
  8  6  1  1  0  0  0
  8 12  1  0  0  0  0
  9 14  1  1  0  0  0
 10 21  2  0  0  0  0
 11 28  1  1  0  0  0
 11  8  1  0  0  0  0
 12 27  1  0  0  0  0
 13  2  2  0  0  0  0
 13 18  1  0  0  0  0
 14 23  1  0  0  0  0
 15 23  1  0  0  0  0
 16  2  1  0  0  0  0
 17 20  1  0  0  0  0
 17  3  1  0  0  0  0
 18 25  2  0  0  0  0
 19  1  2  0  0  0  0
 19 26  1  0  0  0  0
 20 22  1  0  0  0  0
 22 10  1  0  0  0  0
 22  9  1  0  0  0  0
 25 26  1  0  0  0  0
 26 17  2  0  0  0  0
 27 24  1  1  0  0  0
 27  7  1  0  0  0  0
 30 29  1  0  0  0  0
 30 28  1  0  0  0  0
M  END
>  <MODEL>
1

>  <REMARK>
 VINA RESULT:      -7.4      0.000      0.000
  Name = 
  2 active torsions:
  status: ('A' for Active; 'I' for Inactive)
    1  A    between atoms: C_11  and  C_28
    2  A    between atoms: C_28  and  O_30
                            x       y       z     vdW  Elec       q    Type
                         _______ _______ _______ _____ _____    ______ ____

>  <TORSDO>
F 2

$$$$
=
 OpenBabel11122410253D

 30 35  0  0  1  0  0  0  0  0999 V2000
  186.7840  177.9170  140.8460 C   0  0  0  0  0  0  0  0  0  0  0  0
  184.4290  178.3680  140.1850 C   0  0  0  0  0  0  0  0  0  0  0  0
  185.9050  178.4230  144.8310 N   0  0  0  0  0  2  0  0  0  0  0  0
  187.7600  177.7310  141.8620 C   0  0  0  0  0  0  0  0  0  0  0  0
  187.1820  177.8010  139.5100 O   0  0  0  0  0  0  0  0  0  0  0  0
  190.8770  177.1260  139.7790 C   0  0  0  0  0  1  0  0  0  0  0  0
  190.4640  177.6160  143.4520 C   0  0  1  0  0  3  0  0  0  0  0  0
  189.3840  176.9920  140.0680 C   0  0  2  0  0  3  0  0  0  0  0  0
  189.5370  177.9760  144.6050 C   0  0  2  0  0  3  0  0  0  0  0  0
  187.1580  178.2480  145.3010 C   0  0  0  0  0  0  0  0  0  0  0  0
  188.5520  177.8810  139.1360 C   0  0  2  0  0  3  0  0  0  0  0  0
  189.0620  177.2240  141.4870 N   0  0  0  0  0  0  0  0  0  0  0  0
  183.1150  178.6640  140.5600 C   0  0  0  0  0  3  0  0  0  0  0  0
  189.9410  177.0640  145.7450 C   0  0  0  0  0  2  0  0  0  0  0  0
  191.7320  177.0830  144.0990 C   0  0  0  0  0  2  0  0  0  0  0  0
  184.7110  178.2330  138.8320 O   0  0  0  0  0  1  0  0  0  0  0  0
  186.0580  178.2430  143.5080 C   0  0  0  0  0  0  0  0  0  0  0  0
  182.7740  178.8130  141.9050 C   0  0  0  0  0  3  0  0  0  0  0  0
  185.4320  178.2140  141.1730 C   0  0  0  0  0  0  0  0  0  0  0  0
  187.3650  177.9560  143.1990 C   0  0  0  0  0  0  0  0  0  0  0  0
  187.4400  178.3920  146.5210 O   0  0  0  0  0  0  0  0  0  0  0  0
  188.0840  177.9480  144.3520 N   0  0  0  0  0  0  0  0  0  0  0  0
  191.4310  176.8630  145.5720 C   0  0  0  0  0  2  0  0  0  0  0  0
  189.2770  175.3510  143.0960 C   0  0  0  0  0  1  0  0  0  0  0  0
  183.7480  178.6690  142.8920 C   0  0  0  0  0  3  0  0  0  0  0  0
  185.0680  178.3700  142.5370 C   0  0  0  0  0  0  0  0  0  0  0  0
  189.9250  176.5850  142.4710 C   0  0  2  0  0  3  0  0  0  0  0  0
  189.0100  179.3380  139.1780 C   0  0  0  0  0  2  0  0  0  0  0  0
  189.0910  178.7460  137.0560 C   0  0  0  0  0  1  0  0  0  0  0  0
  189.0380  179.8630  137.8860 O   0  0  0  0  0  0  0  0  0  0  0  0
  1 19  2  0  0  0  0
  1  4  1  0  0  0  0
  2 13  2  0  0  0  0
  2 19  1  0  0  0  0
  3 10  1  0  0  0  0
  4 20  2  0  0  0  0
  5  1  1  0  0  0  0
  7 15  1  1  0  0  0
  7  9  1  0  0  0  0
  8  6  1  1  0  0  0
  8 12  1  0  0  0  0
  9 14  1  1  0  0  0
 10 21  2  0  0  0  0
 11 28  1  1  0  0  0
 11  5  1  0  0  0  0
 11  8  1  0  0  0  0
 12  4  1  0  0  0  0
 12 27  1  0  0  0  0
 13 18  1  0  0  0  0
 15 23  1  0  0  0  0
 16  2  1  0  0  0  0
 17  3  1  0  0  0  0
 18 25  2  0  0  0  0
 19 26  1  0  0  0  0
 20 17  1  0  0  0  0
 20 22  1  0  0  0  0
 22  9  1  0  0  0  0
 22 10  1  0  0  0  0
 23 14  1  0  0  0  0
 26 25  1  0  0  0  0
 26 17  2  0  0  0  0
 27 24  1  1  0  0  0
 27  7  1  0  0  0  0
 29 30  1  0  0  0  0
 30 28  1  0  0  0  0
M  END
>  <MODEL>
2

>  <REMARK>
 VINA RESULT:      -7.1      1.702      5.142
  Name = 
  2 active torsions:
  status: ('A' for Active; 'I' for Inactive)
    1  A    between atoms: C_11  and  C_28
    2  A    between atoms: C_28  and  O_30
                            x       y       z     vdW  Elec       q    Type
                         _______ _______ _______ _____ _____    ______ ____

>  <TORSDO>
F 2

$$$$
=
 OpenBabel11122410253D

 30 35  0  0  1  0  0  0  0  0999 V2000
  182.3230  178.3800  141.6070 C   0  0  0  0  0  0  0  0  0  0  0  0
  182.6690  178.8410  144.0270 C   0  0  0  0  0  0  0  0  0  0  0  0
  186.3590  178.5980  140.8520 N   0  0  0  0  0  2  0  0  0  0  0  0
  182.8610  178.1390  140.3150 C   0  0  0  0  0  0  0  0  0  0  0  0
  180.9340  178.3620  141.7650 O   0  0  0  0  0  0  0  0  0  0  0  0
  179.6890  177.7240  138.2680 C   0  0  0  0  0  1  0  0  0  0  0  0
  183.2560  177.9550  137.2060 C   0  0  1  0  0  3  0  0  0  0  0  0
  180.5290  177.5480  139.5320 C   0  0  2  0  0  3  0  0  0  0  0  0
  184.7010  178.2210  137.6040 C   0  0  2  0  0  3  0  0  0  0  0  0
  186.2890  178.4100  139.5170 C   0  0  0  0  0  0  0  0  0  0  0  0
  180.0600  178.4870  140.6490 C   0  0  2  0  0  3  0  0  0  0  0  0
  181.9740  177.6780  139.2700 N   0  0  0  0  0  0  0  0  0  0  0  0
  183.5470  179.0910  145.0860 C   0  0  0  0  0  3  0  0  0  0  0  0
  185.5270  177.2390  136.7980 C   0  0  0  0  0  2  0  0  0  0  0  0
  183.3170  177.3970  135.7930 C   0  0  0  0  0  2  0  0  0  0  0  0
  181.3060  178.8030  144.2990 O   0  0  0  0  0  1  0  0  0  0  0  0
  185.0730  178.5120  141.2300 C   0  0  0  0  0  0  0  0  0  0  0  0
  184.9250  179.1420  144.8720 C   0  0  0  0  0  3  0  0  0  0  0  0
  183.1730  178.6340  142.7200 C   0  0  0  0  0  0  0  0  0  0  0  0
  184.2590  178.2660  140.1520 C   0  0  0  0  0  0  0  0  0  0  0  0
  187.3080  178.4740  138.7790 O   0  0  0  0  0  0  0  0  0  0  0  0
  185.0350  178.1890  139.0400 N   0  0  0  0  0  0  0  0  0  0  0  0
  184.7720  177.0720  135.4970 C   0  0  0  0  0  2  0  0  0  0  0  0
  183.2370  175.7020  138.4680 C   0  0  0  0  0  1  0  0  0  0  0  0
  185.4400  178.9450  143.5910 C   0  0  0  0  0  3  0  0  0  0  0  0
  184.5770  178.6910  142.5200 C   0  0  0  0  0  0  0  0  0  0  0  0
  182.4950  176.9860  138.1000 C   0  0  2  0  0  3  0  0  0  0  0  0
  180.0200  179.9450  140.1920 C   0  0  0  0  0  2  0  0  0  0  0  0
  178.9310  181.6200  141.1240 C   0  0  0  0  0  1  0  0  0  0  0  0
  180.0360  180.7900  141.3020 O   0  0  0  0  0  0  0  0  0  0  0  0
  1  5  1  0  0  0  0
  1 19  1  0  0  0  0
  2 16  1  0  0  0  0
  2 13  1  0  0  0  0
  3 17  1  0  0  0  0
  4  1  2  0  0  0  0
  7 15  1  6  0  0  0
  7  9  1  0  0  0  0
  7 27  1  0  0  0  0
  8  6  1  6  0  0  0
  8 11  1  0  0  0  0
  9 14  1  6  0  0  0
  9 22  1  0  0  0  0
 10  3  1  0  0  0  0
 11 28  1  6  0  0  0
 11  5  1  0  0  0  0
 12  8  1  0  0  0  0
 12  4  1  0  0  0  0
 17 26  1  0  0  0  0
 18 13  2  0  0  0  0
 19  2  2  0  0  0  0
 20  4  1  0  0  0  0
 20 17  2  0  0  0  0
 21 10  2  0  0  0  0
 22 10  1  0  0  0  0
 22 20  1  0  0  0  0
 23 15  1  0  0  0  0
 23 14  1  0  0  0  0
 25 18  1  0  0  0  0
 26 19  1  0  0  0  0
 26 25  2  0  0  0  0
 27 24  1  1  0  0  0
 27 12  1  0  0  0  0
 28 30  1  0  0  0  0
 29 30  1  0  0  0  0
M  END
>  <MODEL>
3

>  <REMARK>
 VINA RESULT:      -7.1      2.910      6.508
  Name = 
  2 active torsions:
  status: ('A' for Active; 'I' for Inactive)
    1  A    between atoms: C_11  and  C_28
    2  A    between atoms: C_28  and  O_30
                            x       y       z     vdW  Elec       q    Type
                         _______ _______ _______ _____ _____    ______ ____

>  <TORSDO>
F 2

$$$$
=
 OpenBabel11122410253D

 30 35  0  0  1  0  0  0  0  0999 V2000
  183.5570  178.6570  140.7050 C   0  0  0  0  0  0  0  0  0  0  0  0
  183.0210  178.9320  143.1190 C   0  0  0  0  0  0  0  0  0  0  0  0
  187.5800  178.3550  141.4950 N   0  0  0  0  0  2  0  0  0  0  0  0
  184.5090  178.4160  139.6790 C   0  0  0  0  0  0  0  0  0  0  0  0
  182.2150  178.8230  140.3450 O   0  0  0  0  0  0  0  0  0  0  0  0
  182.3060  178.5580  136.5890 C   0  0  0  0  0  1  0  0  0  0  0  0
  186.0130  178.3510  136.9250 C   0  0  1  0  0  3  0  0  0  0  0  0
  182.5890  178.1980  138.0460 C   0  0  2  0  0  3  0  0  0  0  0  0
  187.2250  178.3920  137.8460 C   0  0  2  0  0  3  0  0  0  0  0  0
  187.9940  178.2530  140.2140 C   0  0  0  0  0  0  0  0  0  0  0  0
  181.8410  179.1300  139.0070 C   0  0  2  0  0  3  0  0  0  0  0  0
  184.0320  178.1410  138.3420 N   0  0  0  0  0  0  0  0  0  0  0  0
  183.4620  178.9990  144.4440 C   0  0  0  0  0  3  0  0  0  0  0  0
  188.1800  177.3500  137.2990 C   0  0  0  0  0  2  0  0  0  0  0  0
  186.5370  177.8690  135.5820 C   0  0  0  0  0  2  0  0  0  0  0  0
  181.6600  179.0680  142.8710 O   0  0  0  0  0  1  0  0  0  0  0  0
  186.2440  178.4280  141.3690 C   0  0  0  0  0  0  0  0  0  0  0  0
  184.8160  178.8700  144.7520 C   0  0  0  0  0  3  0  0  0  0  0  0
  183.9510  178.7290  142.0700 C   0  0  0  0  0  0  0  0  0  0  0  0
  185.8710  178.3570  140.0490 C   0  0  0  0  0  0  0  0  0  0  0  0
  189.2160  178.2150  139.9070 O   0  0  0  0  0  0  0  0  0  0  0  0
  186.9930  178.2350  139.2930 N   0  0  0  0  0  0  0  0  0  0  0  0
  187.9530  177.3620  135.8020 C   0  0  0  0  0  2  0  0  0  0  0  0
  185.2810  176.0560  137.8550 C   0  0  0  0  0  1  0  0  0  0  0  0
  185.7480  178.6750  143.7330 C   0  0  0  0  0  3  0  0  0  0  0  0
  185.3260  178.6020  142.4010 C   0  0  0  0  0  0  0  0  0  0  0  0
  184.8730  177.4490  137.3760 C   0  0  2  0  0  3  0  0  0  0  0  0
  182.1320  180.6020  138.7190 C   0  0  0  0  0  2  0  0  0  0  0  0
  181.0650  182.3780  137.9670 C   0  0  0  0  0  1  0  0  0  0  0  0
  180.9790  181.3610  138.9150 O   0  0  0  0  0  0  0  0  0  0  0  0
  1 19  1  0  0  0  0
  2 13  1  0  0  0  0
  4 20  1  0  0  0  0
  4  1  2  0  0  0  0
  5  1  1  0  0  0  0
  7 15  1  6  0  0  0
  7 27  1  0  0  0  0
  7  9  1  0  0  0  0
  8  6  1  6  0  0  0
  8 12  1  0  0  0  0
  8 11  1  0  0  0  0
  9 14  1  6  0  0  0
  9 22  1  0  0  0  0
 10  3  1  0  0  0  0
 11 28  1  6  0  0  0
 11  5  1  0  0  0  0
 12  4  1  0  0  0  0
 13 18  2  0  0  0  0
 15 23  1  0  0  0  0
 16  2  1  0  0  0  0
 17  3  1  0  0  0  0
 17 26  1  0  0  0  0
 19 26  1  0  0  0  0
 19  2  2  0  0  0  0
 20 17  2  0  0  0  0
 21 10  2  0  0  0  0
 22 20  1  0  0  0  0
 22 10  1  0  0  0  0
 23 14  1  0  0  0  0
 25 18  1  0  0  0  0
 26 25  2  0  0  0  0
 27 24  1  1  0  0  0
 27 12  1  0  0  0  0
 28 30  1  0  0  0  0
 29 30  1  0  0  0  0
M  END
>  <MODEL>
4

>  <REMARK>
 VINA RESULT:      -6.7      2.640      6.031
  Name = 
  2 active torsions:
  status: ('A' for Active; 'I' for Inactive)
    1  A    between atoms: C_11  and  C_28
    2  A    between atoms: C_28  and  O_30
                            x       y       z     vdW  Elec       q    Type
                         _______ _______ _______ _____ _____    ______ ____

>  <TORSDO>
F 2

$$$$
=
 OpenBabel11122410253D

 30 35  0  0  1  0  0  0  0  0999 V2000
  186.7570  177.8500  138.6790 C   0  0  0  0  0  0  0  0  0  0  0  0
  184.5270  178.9000  139.0170 C   0  0  0  0  0  0  0  0  0  0  0  0
  185.2690  175.2920  135.8240 N   0  0  0  0  0  2  0  0  0  0  0  0
  187.5890  176.9360  137.9800 C   0  0  0  0  0  0  0  0  0  0  0  0
  187.3250  178.6320  139.6890 O   0  0  0  0  0  0  0  0  0  0  0  0
  190.9030  177.4580  139.7600 C   0  0  0  0  0  1  0  0  0  0  0  0
  189.8800  174.9290  137.2180 C   0  0  1  0  0  3  0  0  0  0  0  0
  189.5790  177.9430  139.1760 C   0  0  2  0  0  3  0  0  0  0  0  0
  188.7540  174.3110  136.4000 C   0  0  2  0  0  3  0  0  0  0  0  0
  186.4130  174.6140  135.5960 C   0  0  0  0  0  0  0  0  0  0  0  0
  188.5720  178.2850  140.2810 C   0  0  2  0  0  3  0  0  0  0  0  0
  189.0190  177.0010  138.1900 N   0  0  0  0  0  0  0  0  0  0  0  0
  183.1740  178.9770  138.6710 C   0  0  0  0  0  3  0  0  0  0  0  0
  189.3600  174.0170  135.0420 C   0  0  0  0  0  2  0  0  0  0  0  0
  191.1660  174.3660  136.6350 C   0  0  0  0  0  2  0  0  0  0  0  0
  185.0020  179.7520  140.0060 O   0  0  0  0  0  1  0  0  0  0  0  0
  185.6430  176.2030  136.7390 C   0  0  0  0  0  0  0  0  0  0  0  0
  182.6420  178.1460  137.6860 C   0  0  0  0  0  3  0  0  0  0  0  0
  185.3750  177.9720  138.3630 C   0  0  0  0  0  0  0  0  0  0  0  0
  186.9770  176.0790  137.0380 C   0  0  0  0  0  0  0  0  0  0  0  0
  186.4590  173.6220  134.8190 O   0  0  0  0  0  0  0  0  0  0  0  0
  187.4880  175.0610  136.2990 N   0  0  0  0  0  0  0  0  0  0  0  0
  190.8070  173.6780  135.3270 C   0  0  0  0  0  2  0  0  0  0  0  0
  189.7980  177.1100  135.8390 C   0  0  0  0  0  1  0  0  0  0  0  0
  183.4590  177.2230  137.0350 C   0  0  0  0  0  3  0  0  0  0  0  0
  184.8160  177.1330  137.3640 C   0  0  0  0  0  0  0  0  0  0  0  0
  189.9430  176.4500  137.2090 C   0  0  2  0  0  3  0  0  0  0  0  0
  188.3720  177.1220  141.2510 C   0  0  0  0  0  2  0  0  0  0  0  0
  188.3000  176.4430  143.3480 C   0  0  0  0  0  1  0  0  0  0  0  0
  188.6130  177.5480  142.5570 O   0  0  0  0  0  0  0  0  0  0  0  0
  1  5  1  0  0  0  0
  2 16  1  0  0  0  0
  3 17  1  0  0  0  0
  4 12  1  0  0  0  0
  4  1  2  0  0  0  0
  5 11  1  0  0  0  0
  7 15  1  6  0  0  0
  8  6  1  1  0  0  0
  8 11  1  0  0  0  0
  9 14  1  6  0  0  0
  9  7  1  0  0  0  0
 10  3  1  0  0  0  0
 10 22  1  0  0  0  0
 11 28  1  1  0  0  0
 12  8  1  0  0  0  0
 13  2  1  0  0  0  0
 14 23  1  0  0  0  0
 17 20  2  0  0  0  0
 17 26  1  0  0  0  0
 18 13  2  0  0  0  0
 19  1  1  0  0  0  0
 19  2  2  0  0  0  0
 20  4  1  0  0  0  0
 21 10  2  0  0  0  0
 22  9  1  0  0  0  0
 22 20  1  0  0  0  0
 23 15  1  0  0  0  0
 25 26  2  0  0  0  0
 25 18  1  0  0  0  0
 26 19  1  0  0  0  0
 27 24  1  6  0  0  0
 27  7  1  0  0  0  0
 27 12  1  0  0  0  0
 28 30  1  0  0  0  0
 30 29  1  0  0  0  0
M  END
>  <MODEL>
5

>  <REMARK>
 VINA RESULT:      -6.7      3.372      7.640
  Name = 
  2 active torsions:
  status: ('A' for Active; 'I' for Inactive)
    1  A    between atoms: C_11  and  C_28
    2  A    between atoms: C_28  and  O_30
                            x       y       z     vdW  Elec       q    Type
                         _______ _______ _______ _____ _____    ______ ____

>  <TORSDO>
F 2

$$$$
=
 OpenBabel11122410253D

 30 35  0  0  1  0  0  0  0  0999 V2000
  189.8960  177.1860  141.1160 C   0  0  0  0  0  0  0  0  0  0  0  0
  190.5220  177.1200  138.7100 C   0  0  0  0  0  0  0  0  0  0  0  0
  186.2250  178.8260  140.2540 N   0  0  0  0  0  2  0  0  0  0  0  0
  188.9330  177.4510  142.1270 C   0  0  0  0  0  0  0  0  0  0  0  0
  191.1500  176.7000  141.5000 O   0  0  0  0  0  0  0  0  0  0  0  0
  190.9050  176.5900  145.2570 C   0  0  0  0  0  1  0  0  0  0  0  0
  187.5530  178.1710  144.8530 C   0  0  1  0  0  3  0  0  0  0  0  0
  190.5000  176.3780  143.8000 C   0  0  2  0  0  3  0  0  0  0  0  0
  186.5170  178.7670  143.9080 C   0  0  2  0  0  3  0  0  0  0  0  0
  185.8000  178.9610  141.5280 C   0  0  0  0  0  0  0  0  0  0  0  0
  191.6120  176.8190  142.8410 C   0  0  2  0  0  3  0  0  0  0  0  0
  189.2080  177.0100  143.4770 N   0  0  0  0  0  0  0  0  0  0  0  0
  190.1810  177.3620  137.3760 C   0  0  0  0  0  3  0  0  0  0  0  0
  185.1750  178.3190  144.4510 C   0  0  0  0  0  2  0  0  0  0  0  0
  186.8490  178.0270  146.1920 C   0  0  0  0  0  2  0  0  0  0  0  0
  191.7800  176.5950  138.9820 O   0  0  0  0  0  1  0  0  0  0  0  0
  187.4320  178.2550  140.4050 C   0  0  0  0  0  0  0  0  0  0  0  0
  188.9320  177.8890  137.0440 C   0  0  0  0  0  3  0  0  0  0  0  0
  189.5980  177.4090  139.7430 C   0  0  0  0  0  0  0  0  0  0  0  0
  187.7130  178.0420  141.7320 C   0  0  0  0  0  0  0  0  0  0  0  0
  184.7050  179.5180  141.8120 O   0  0  0  0  0  0  0  0  0  0  0  0
  186.6610  178.4860  142.4680 N   0  0  0  0  0  0  0  0  0  0  0  0
  185.3650  178.2530  145.9520 C   0  0  0  0  0  2  0  0  0  0  0  0
  187.1090  175.7860  143.9680 C   0  0  0  0  0  1  0  0  0  0  0  0
  188.0100  178.1840  138.0470 C   0  0  0  0  0  3  0  0  0  0  0  0
  188.3320  177.9470  139.3880 C   0  0  0  0  0  0  0  0  0  0  0  0
  188.1270  176.8250  144.4360 C   0  0  2  0  0  3  0  0  0  0  0  0
  192.0550  178.2570  143.1020 C   0  0  0  0  0  2  0  0  0  0  0  0
  191.3050  179.9390  144.3150 C   0  0  0  0  0  1  0  0  0  0  0  0
  191.7420  178.6190  144.4120 O   0  0  0  0  0  0  0  0  0  0  0  0
  1  5  1  0  0  0  0
  1  4  1  0  0  0  0
  2 16  1  0  0  0  0
  2 19  1  0  0  0  0
  3 17  1  0  0  0  0
  3 10  1  0  0  0  0
  4 12  1  0  0  0  0
  5 11  1  0  0  0  0
  7 15  1  1  0  0  0
  8  6  1  1  0  0  0
  9 14  1  1  0  0  0
  9  7  1  0  0  0  0
 10 21  2  0  0  0  0
 10 22  1  0  0  0  0
 11 28  1  1  0  0  0
 11  8  1  0  0  0  0
 12  8  1  0  0  0  0
 12 27  1  0  0  0  0
 13  2  2  0  0  0  0
 14 23  1  0  0  0  0
 17 20  1  0  0  0  0
 18 13  1  0  0  0  0
 18 25  2  0  0  0  0
 19  1  2  0  0  0  0
 20  4  2  0  0  0  0
 20 22  1  0  0  0  0
 22  9  1  0  0  0  0
 23 15  1  0  0  0  0
 25 26  1  0  0  0  0
 26 19  1  0  0  0  0
 26 17  2  0  0  0  0
 27 24  1  6  0  0  0
 27  7  1  0  0  0  0
 28 30  1  0  0  0  0
 29 30  1  0  0  0  0
M  END
>  <MODEL>
6

>  <REMARK>
 VINA RESULT:      -6.5      2.294      5.291
  Name = 
  2 active torsions:
  status: ('A' for Active; 'I' for Inactive)
    1  A    between atoms: C_11  and  C_28
    2  A    between atoms: C_28  and  O_30
                            x       y       z     vdW  Elec       q    Type
                         _______ _______ _______ _____ _____    ______ ____

>  <TORSDO>
F 2

$$$$
=
 OpenBabel11122410253D

 30 35  0  0  1  0  0  0  0  0999 V2000
  188.4080  177.8750  144.8080 C   0  0  0  0  0  0  0  0  0  0  0  0
  189.4140  177.8560  147.0830 C   0  0  0  0  0  0  0  0  0  0  0  0
  184.6420  178.5060  146.3320 N   0  0  0  0  0  2  0  0  0  0  0  0
  187.2750  178.0500  143.9680 C   0  0  0  0  0  0  0  0  0  0  0  0
  189.6410  177.5890  144.2140 O   0  0  0  0  0  0  0  0  0  0  0  0
  188.7970  177.4140  140.5470 C   0  0  0  0  0  1  0  0  0  0  0  0
  185.2450  177.8790  141.5800 C   0  0  1  0  0  3  0  0  0  0  0  0
  188.8290  177.9590  141.9730 C   0  0  2  0  0  3  0  0  0  0  0  0
  184.2450  178.0190  142.7200 C   0  0  2  0  0  3  0  0  0  0  0  0
  183.9800  178.4810  145.1560 C   0  0  0  0  0  0  0  0  0  0  0  0
  189.7240  177.1040  142.8780 C   0  0  2  0  0  3  0  0  0  0  0  0
  187.4790  178.1360  142.5390 N   0  0  0  0  0  0  0  0  0  0  0  0
  189.2490  177.9720  148.4660 C   0  0  0  0  0  3  0  0  0  0  0  0
  183.2350  179.0430  142.2440 C   0  0  0  0  0  2  0  0  0  0  0  0
  184.4750  178.2290  140.3170 C   0  0  0  0  0  2  0  0  0  0  0  0
  190.6900  177.6110  146.5900 O   0  0  0  0  0  1  0  0  0  0  0  0
  185.9200  178.3400  145.9550 C   0  0  0  0  0  0  0  0  0  0  0  0
  187.9910  178.2160  149.0170 C   0  0  0  0  0  3  0  0  0  0  0  0
  188.2970  177.9880  146.2210 C   0  0  0  0  0  0  0  0  0  0  0  0
  186.0200  178.2330  144.5890 C   0  0  0  0  0  0  0  0  0  0  0  0
  182.7230  178.5550  145.0940 O   0  0  0  0  0  0  0  0  0  0  0  0
  184.7730  178.3310  144.0610 N   0  0  0  0  0  0  0  0  0  0  0  0
  183.1520  178.8420  140.7470 C   0  0  0  0  0  2  0  0  0  0  0  0
  186.2290  180.2200  142.0470 C   0  0  0  0  0  1  0  0  0  0  0  0
  186.8790  178.3450  148.1860 C   0  0  0  0  0  3  0  0  0  0  0  0
  187.0230  178.2350  146.7990 C   0  0  0  0  0  0  0  0  0  0  0  0
  186.4830  178.7590  141.6790 C   0  0  2  0  0  3  0  0  0  0  0  0
  189.3300  175.6290  142.8440 C   0  0  0  0  0  2  0  0  0  0  0  0
  191.4040  175.6300  143.5920 C   0  0  0  0  0  1  0  0  0  0  0  0
  190.4700  174.8310  142.9340 O   0  0  0  0  0  0  0  0  0  0  0  0
  1 19  1  0  0  0  0
  2 13  1  0  0  0  0
  4 20  1  0  0  0  0
  4  1  2  0  0  0  0
  5  1  1  0  0  0  0
  7 15  1  6  0  0  0
  7 27  1  0  0  0  0
  7  9  1  0  0  0  0
  8  6  1  6  0  0  0
  8 12  1  0  0  0  0
  8 11  1  0  0  0  0
  9 14  1  6  0  0  0
  9 22  1  0  0  0  0
 10  3  1  0  0  0  0
 11 28  1  1  0  0  0
 11  5  1  0  0  0  0
 12  4  1  0  0  0  0
 13 18  2  0  0  0  0
 15 23  1  0  0  0  0
 16  2  1  0  0  0  0
 17  3  1  0  0  0  0
 17 26  1  0  0  0  0
 19 26  1  0  0  0  0
 19  2  2  0  0  0  0
 20 17  2  0  0  0  0
 21 10  2  0  0  0  0
 22 20  1  0  0  0  0
 22 10  1  0  0  0  0
 23 14  1  0  0  0  0
 25 18  1  0  0  0  0
 26 25  2  0  0  0  0
 27 24  1  1  0  0  0
 27 12  1  0  0  0  0
 28 30  1  0  0  0  0
 30 29  1  0  0  0  0
M  END
>  <MODEL>
7

>  <REMARK>
 VINA RESULT:      -6.4      2.701      6.465
  Name = 
  2 active torsions:
  status: ('A' for Active; 'I' for Inactive)
    1  A    between atoms: C_11  and  C_28
    2  A    between atoms: C_28  and  O_30
                            x       y       z     vdW  Elec       q    Type
                         _______ _______ _______ _____ _____    ______ ____

>  <TORSDO>
F 2

$$$$
=
 OpenBabel11122410253D

 30 35  0  0  1  0  0  0  0  0999 V2000
  185.0150  178.0510  138.6530 C   0  0  0  0  0  0  0  0  0  0  0  0
  187.4990  178.0770  138.7920 C   0  0  0  0  0  0  0  0  0  0  0  0
  184.6480  178.9530  142.6470 N   0  0  0  0  0  2  0  0  0  0  0  0
  183.7500  178.2510  139.2660 C   0  0  0  0  0  0  0  0  0  0  0  0
  185.0520  177.6720  137.3070 O   0  0  0  0  0  0  0  0  0  0  0  0
  181.4070  177.3830  136.4060 C   0  0  0  0  0  1  0  0  0  0  0  0
  180.7010  178.0860  139.9990 C   0  0  1  0  0  3  0  0  0  0  0  0
  182.6830  177.9880  136.9870 C   0  0  2  0  0  3  0  0  0  0  0  0
  181.2590  178.3300  141.3950 C   0  0  2  0  0  3  0  0  0  0  0  0
  183.3000  178.9130  142.7030 C   0  0  0  0  0  0  0  0  0  0  0  0
  183.9080  177.1250  136.6600 C   0  0  2  0  0  3  0  0  0  0  0  0
  182.5690  178.2630  138.4300 N   0  0  0  0  0  0  0  0  0  0  0  0
  188.6540  178.2620  139.5570 C   0  0  0  0  0  3  0  0  0  0  0  0
  180.3610  179.3860  142.0060 C   0  0  0  0  0  2  0  0  0  0  0  0
  179.2220  178.4220  140.0850 C   0  0  0  0  0  2  0  0  0  0  0  0
  187.6450  177.7410  137.4510 O   0  0  0  0  0  1  0  0  0  0  0  0
  184.8970  178.7010  141.3510 C   0  0  0  0  0  0  0  0  0  0  0  0
  188.5670  178.5980  140.9080 C   0  0  0  0  0  3  0  0  0  0  0  0
  186.2220  178.2320  139.3840 C   0  0  0  0  0  0  0  0  0  0  0  0
  183.7280  178.5290  140.6510 C   0  0  0  0  0  0  0  0  0  0  0  0
  182.6720  179.0520  143.7870 O   0  0  0  0  0  0  0  0  0  0  0  0
  182.6890  178.6720  141.5130 N   0  0  0  0  0  0  0  0  0  0  0  0
  178.9930  179.1240  141.4140 C   0  0  0  0  0  2  0  0  0  0  0  0
  181.5330  180.3880  139.1750 C   0  0  0  0  0  1  0  0  0  0  0  0
  187.3200  178.7510  141.5110 C   0  0  0  0  0  3  0  0  0  0  0  0
  186.1520  178.5730  140.7610 C   0  0  0  0  0  0  0  0  0  0  0  0
  181.3410  178.9010  138.8830 C   0  0  2  0  0  3  0  0  0  0  0  0
  183.7190  175.6740  137.0960 C   0  0  0  0  0  2  0  0  0  0  0  0
  184.6700  173.7420  137.5690 C   0  0  0  0  0  1  0  0  0  0  0  0
  184.9300  174.9900  137.0050 O   0  0  0  0  0  0  0  0  0  0  0  0
  1  4  2  0  0  0  0
  1 19  1  0  0  0  0
  2 19  2  0  0  0  0
  2 13  1  0  0  0  0
  3 10  1  0  0  0  0
  4 20  1  0  0  0  0
  5  1  1  0  0  0  0
  7 15  1  1  0  0  0
  7  9  1  0  0  0  0
  8  6  1  1  0  0  0
  8 12  1  0  0  0  0
  9 22  1  0  0  0  0
  9 14  1  6  0  0  0
 10 21  2  0  0  0  0
 11  8  1  0  0  0  0
 11 28  1  1  0  0  0
 11  5  1  0  0  0  0
 12 27  1  0  0  0  0
 12  4  1  0  0  0  0
 13 18  2  0  0  0  0
 15 23  1  0  0  0  0
 16  2  1  0  0  0  0
 17  3  1  0  0  0  0
 18 25  1  0  0  0  0
 19 26  1  0  0  0  0
 20 17  2  0  0  0  0
 20 22  1  0  0  0  0
 22 10  1  0  0  0  0
 23 14  1  0  0  0  0
 26 17  1  0  0  0  0
 26 25  2  0  0  0  0
 27 24  1  1  0  0  0
 27  7  1  0  0  0  0
 30 28  1  0  0  0  0
 30 29  1  0  0  0  0
M  END
>  <MODEL>
8

>  <REMARK>
 VINA RESULT:      -6.2      2.555      4.517
  Name = 
  2 active torsions:
  status: ('A' for Active; 'I' for Inactive)
    1  A    between atoms: C_11  and  C_28
    2  A    between atoms: C_28  and  O_30
                            x       y       z     vdW  Elec       q    Type
                         _______ _______ _______ _____ _____    ______ ____

>  <TORSDO>
F 2

$$$$
=
 OpenBabel11122410253D

 30 35  0  0  1  0  0  0  0  0999 V2000
  187.3950  178.2180  141.6040 C   0  0  0  0  0  0  0  0  0  0  0  0
  185.7490  178.7270  143.4000 C   0  0  0  0  0  0  0  0  0  0  0  0
  184.4510  178.1680  138.7350 N   0  0  0  0  0  2  0  0  0  0  0  0
  187.6880  178.0180  140.2290 C   0  0  0  0  0  0  0  0  0  0  0  0
  188.4430  178.1440  142.5270 O   0  0  0  0  0  0  0  0  0  0  0  0
  191.4150  177.3020  140.3720 C   0  0  0  0  0  1  0  0  0  0  0  0
  189.0020  177.0770  137.5380 C   0  0  1  0  0  3  0  0  0  0  0  0
  190.1470  178.0230  140.8250 C   0  0  2  0  0  3  0  0  0  0  0  0
  187.5520  177.1330  137.0760 C   0  0  2  0  0  3  0  0  0  0  0  0
  185.2410  177.8380  137.6920 C   0  0  0  0  0  0  0  0  0  0  0  0
  189.6790  177.5210  142.1960 C   0  0  2  0  0  3  0  0  0  0  0  0
  189.0730  177.9600  139.8170 N   0  0  0  0  0  0  0  0  0  0  0  0
  184.4280  178.9830  143.7760 C   0  0  0  0  0  3  0  0  0  0  0  0
  187.5860  177.8280  135.7300 C   0  0  0  0  0  2  0  0  0  0  0  0
  189.8360  177.0730  136.2670 C   0  0  0  0  0  2  0  0  0  0  0  0
  186.7250  178.7170  144.3900 O   0  0  0  0  0  1  0  0  0  0  0  0
  185.3240  178.2500  139.7520 C   0  0  0  0  0  0  0  0  0  0  0  0
  183.4070  179.0030  142.8240 C   0  0  0  0  0  3  0  0  0  0  0  0
  186.0680  178.4870  142.0400 C   0  0  0  0  0  0  0  0  0  0  0  0
  186.6030  177.9890  139.3250 C   0  0  0  0  0  0  0  0  0  0  0  0
  184.7730  177.6150  136.5430 O   0  0  0  0  0  0  0  0  0  0  0  0
  186.5630  177.7310  137.9920 N   0  0  0  0  0  0  0  0  0  0  0  0
  188.9070  177.4190  135.1140 C   0  0  0  0  0  2  0  0  0  0  0  0
  189.0470  179.6210  137.9760 C   0  0  0  0  0  1  0  0  0  0  0  0
  183.7000  178.7650  141.4820 C   0  0  0  0  0  3  0  0  0  0  0  0
  185.0170  178.5100  141.0860 C   0  0  0  0  0  0  0  0  0  0  0  0
  189.4520  178.2210  138.4350 C   0  0  2  0  0  3  0  0  0  0  0  0
  189.5090  176.0030  142.2220 C   0  0  0  0  0  2  0  0  0  0  0  0
  190.8490  176.3400  143.9400 C   0  0  0  0  0  1  0  0  0  0  0  0
  190.5570  175.4210  142.9340 O   0  0  0  0  0  0  0  0  0  0  0  0
  1 19  1  0  0  0  0
  1  5  1  0  0  0  0
  2 13  1  0  0  0  0
  2 16  1  0  0  0  0
  3 17  1  0  0  0  0
  4  1  2  0  0  0  0
  7 15  1  6  0  0  0
  7 27  1  0  0  0  0
  8  6  1  6  0  0  0
  8 11  1  0  0  0  0
  9 14  1  6  0  0  0
  9  7  1  0  0  0  0
  9 22  1  0  0  0  0
 10 22  1  0  0  0  0
 10  3  1  0  0  0  0
 11 28  1  6  0  0  0
 11  5  1  0  0  0  0
 12  4  1  0  0  0  0
 12  8  1  0  0  0  0
 17 26  1  0  0  0  0
 18 13  2  0  0  0  0
 19  2  2  0  0  0  0
 20 17  2  0  0  0  0
 20  4  1  0  0  0  0
 21 10  2  0  0  0  0
 22 20  1  0  0  0  0
 23 14  1  0  0  0  0
 23 15  1  0  0  0  0
 25 18  1  0  0  0  0
 26 25  2  0  0  0  0
 26 19  1  0  0  0  0
 27 24  1  6  0  0  0
 27 12  1  0  0  0  0
 28 30  1  0  0  0  0
 30 29  1  0  0  0  0
M  END
>  <MODEL>
9

>  <REMARK>
 VINA RESULT:      -6.2      2.081      7.167
  Name = 
  2 active torsions:
  status: ('A' for Active; 'I' for Inactive)
    1  A    between atoms: C_11  and  C_28
    2  A    between atoms: C_28  and  O_30
                            x       y       z     vdW  Elec       q    Type
                         _______ _______ _______ _____ _____    ______ ____

>  <TORSDO>
F 2

$$$$
