=
 OpenBabel11122410443D

 32 37  0  0  1  0  0  0  0  0999 V2000
  180.6460  179.3600  141.1060 C   0  0  0  0  0  2  0  0  0  0  0  0
  185.7480  178.3400  143.1050 C   0  0  0  0  0  0  0  0  0  0  0  0
  189.0300  177.2150  139.6910 C   0  0  0  0  0  2  0  0  0  0  0  0
  190.0860  177.1130  140.7560 C   0  0  0  0  0  3  0  0  0  0  0  0
  186.4090  178.3030  145.5550 C   0  0  0  0  0  0  0  0  0  0  0  0
  187.4350  178.0100  146.5480 C   0  0  0  0  0  0  0  0  0  0  0  0
  183.4280  178.6210  142.3090 C   0  0  0  0  0  0  0  0  0  0  0  0
  185.2600  178.9330  140.6410 C   0  0  0  0  0  2  0  0  0  0  0  0
  189.3950  177.3570  147.3110 N   0  0  0  0  0  0  0  0  0  0  0  0
  182.8270  178.9740  139.8880 C   0  0  0  0  0  2  0  0  0  0  0  0
  188.0200  178.3160  140.0120 C   0  0  0  0  0  2  0  0  0  0  0  0
  186.2060  178.4370  141.7040 C   0  0  0  0  0  0  0  0  0  0  0  0
  187.4830  178.1470  141.4110 C   0  0  0  0  0  0  0  0  0  0  0  0
  188.0680  177.7010  143.7690 C   0  0  0  0  0  0  0  0  0  0  0  0
  188.6410  177.7280  148.3670 C   0  0  0  0  0  3  0  0  0  0  0  0
  181.1100  178.2280  141.7980 O   0  0  0  0  0  0  0  0  0  0  0  0
  183.8070  178.8240  141.0210 C   0  0  0  0  0  0  0  0  0  0  0  0
  187.3890  178.1510  147.9240 C   0  0  0  0  0  3  0  0  0  0  0  0
  181.9970  178.7020  142.7730 C   0  0  0  0  0  2  0  0  0  0  0  0
  181.7260  179.9830  140.2090 C   0  0  1  0  0  3  0  0  0  0  0  0
  189.7910  177.3030  142.0450 C   0  0  0  0  0  3  0  0  0  0  0  0
  188.4310  177.7080  142.4690 C   0  0  0  0  0  0  0  0  0  0  0  0
  189.0680  177.2060  144.8050 C   0  0  0  0  0  2  0  0  0  0  0  0
  184.4380  178.4250  143.3620 C   0  0  0  0  0  3  0  0  0  0  0  0
  185.2930  178.7520  145.9300 O   0  0  0  0  0  0  0  0  0  0  0  0
  190.7540  176.8460  147.3830 C   0  0  0  0  0  1  0  0  0  0  0  0
  186.7200  178.0990  144.1530 N   0  0  0  0  0  0  0  0  0  0  0  0
  188.6610  177.5370  146.2040 C   0  0  0  0  0  0  0  0  0  0  0  0
  181.1130  180.4620  138.9790 N   0  0  0  0  0  2  0  0  0  0  0  0
  181.6170  181.5850  138.2540 C   0  0  0  0  0  0  0  0  0  0  0  0
  182.6160  182.2260  138.6740 O   0  0  0  0  0  0  0  0  0  0  0  0
  180.9510  182.0040  136.9930 C   0  0  0  0  0  1  0  0  0  0  0  0
  1 16  1  0  0  0  0
  2 24  2  0  0  0  0
  2 27  1  0  0  0  0
  3 11  1  0  0  0  0
  3  4  1  0  0  0  0
  4 21  2  0  0  0  0
  5 25  2  0  0  0  0
  5  6  1  0  0  0  0
  6 18  1  0  0  0  0
  7 19  1  0  0  0  0
  7 24  1  0  0  0  0
  8 17  1  0  0  0  0
  8 12  1  0  0  0  0
  9 26  1  0  0  0  0
  9 15  1  0  0  0  0
 10 20  1  0  0  0  0
 10 17  1  0  0  0  0
 11 13  1  0  0  0  0
 12  2  1  0  0  0  0
 13 12  2  0  0  0  0
 13 22  1  0  0  0  0
 14 27  1  0  0  0  0
 14 23  1  0  0  0  0
 16 19  1  0  0  0  0
 17  7  2  0  0  0  0
 18 15  2  0  0  0  0
 20 29  1  6  0  0  0
 20  1  1  0  0  0  0
 21 22  1  0  0  0  0
 22 14  2  0  0  0  0
 23 28  1  0  0  0  0
 27  5  1  0  0  0  0
 28  6  2  0  0  0  0
 28  9  1  0  0  0  0
 30 31  2  0  0  0  0
 30 29  1  0  0  0  0
 32 30  1  0  0  0  0
M  END
>  <MODEL>
1

>  <REMARK>
 VINA RESULT:     -11.2      0.000      0.000
  Name = 
  1 active torsions:
  status: ('A' for Active; 'I' for Inactive)
    1  A    between atoms: C_20  and  N_29
                            x       y       z     vdW  Elec       q    Type
                         _______ _______ _______ _____ _____    ______ ____

>  <TORSDO>
F 1

$$$$
=
 OpenBabel11122410443D

 32 37  0  0  1  0  0  0  0  0999 V2000
  188.3450  178.2110  136.9730 C   0  0  0  0  0  2  0  0  0  0  0  0
  187.3190  178.0440  142.4480 C   0  0  0  0  0  0  0  0  0  0  0  0
  182.7850  179.3350  143.6590 C   0  0  0  0  0  2  0  0  0  0  0  0
  183.1050  179.0640  145.1020 C   0  0  0  0  0  3  0  0  0  0  0  0
  189.0030  177.4910  144.2650 C   0  0  0  0  0  0  0  0  0  0  0  0
  189.2970  177.4240  145.6910 C   0  0  0  0  0  0  0  0  0  0  0  0
  187.8970  178.2740  140.0590 C   0  0  0  0  0  0  0  0  0  0  0  0
  185.4790  178.0370  140.6390 C   0  0  0  0  0  2  0  0  0  0  0  0
  188.9220  177.6130  147.8530 N   0  0  0  0  0  0  0  0  0  0  0  0
  186.1760  178.5080  138.2340 C   0  0  0  0  0  2  0  0  0  0  0  0
  183.5050  178.3530  142.7350 C   0  0  0  0  0  2  0  0  0  0  0  0
  185.8930  178.1640  142.0830 C   0  0  0  0  0  0  0  0  0  0  0  0
  184.9780  178.3150  143.0520 C   0  0  0  0  0  0  0  0  0  0  0  0
  186.6640  178.1880  144.8540 C   0  0  0  0  0  0  0  0  0  0  0  0
  190.1800  177.1540  147.6880 C   0  0  0  0  0  3  0  0  0  0  0  0
  188.7710  179.1000  137.9750 O   0  0  0  0  0  0  0  0  0  0  0  0
  186.5980  178.2810  139.6620 C   0  0  0  0  0  0  0  0  0  0  0  0
  190.4560  177.0170  146.3290 C   0  0  0  0  0  3  0  0  0  0  0  0
  189.0570  178.3140  139.0980 C   0  0  0  0  0  2  0  0  0  0  0  0
  186.9530  177.6280  137.2570 C   0  0  1  0  0  3  0  0  0  0  0  0
  184.3230  178.6650  145.4790 C   0  0  0  0  0  3  0  0  0  0  0  0
  185.3820  178.3880  144.4810 C   0  0  0  0  0  0  0  0  0  0  0  0
  187.0260  178.3110  146.3270 C   0  0  0  0  0  2  0  0  0  0  0  0
  188.2410  178.1040  141.4810 C   0  0  0  0  0  3  0  0  0  0  0  0
  189.8840  177.1450  143.4320 O   0  0  0  0  0  0  0  0  0  0  0  0
  188.2870  177.8930  149.1290 C   0  0  0  0  0  1  0  0  0  0  0  0
  187.6840  177.9240  143.8460 N   0  0  0  0  0  0  0  0  0  0  0  0
  188.3840  177.7700  146.6350 C   0  0  0  0  0  0  0  0  0  0  0  0
  186.2200  177.5020  136.0060 N   0  0  0  0  0  2  0  0  0  0  0  0
  184.9980  176.7710  135.9010 C   0  0  0  0  0  0  0  0  0  0  0  0
  184.5130  176.1790  136.9010 O   0  0  0  0  0  0  0  0  0  0  0  0
  184.2930  176.7030  134.5940 C   0  0  0  0  0  1  0  0  0  0  0  0
  1 20  1  0  0  0  0
  1 16  1  0  0  0  0
  2 27  1  0  0  0  0
  3  4  1  0  0  0  0
  4 21  2  0  0  0  0
  5  6  1  0  0  0  0
  6 18  1  0  0  0  0
  6 28  2  0  0  0  0
  7 24  1  0  0  0  0
  8 12  1  0  0  0  0
  9 26  1  0  0  0  0
 10 17  1  0  0  0  0
 11 13  1  0  0  0  0
 11  3  1  0  0  0  0
 12  2  1  0  0  0  0
 12 13  2  0  0  0  0
 13 22  1  0  0  0  0
 14 23  1  0  0  0  0
 15  9  1  0  0  0  0
 16 19  1  0  0  0  0
 17  7  2  0  0  0  0
 17  8  1  0  0  0  0
 18 15  2  0  0  0  0
 19  7  1  0  0  0  0
 20 29  1  6  0  0  0
 20 10  1  0  0  0  0
 22 14  2  0  0  0  0
 22 21  1  0  0  0  0
 23 28  1  0  0  0  0
 24  2  2  0  0  0  0
 25  5  2  0  0  0  0
 27  5  1  0  0  0  0
 27 14  1  0  0  0  0
 28  9  1  0  0  0  0
 30 29  1  0  0  0  0
 30 31  2  0  0  0  0
 32 30  1  0  0  0  0
M  END
>  <MODEL>
2

>  <REMARK>
 VINA RESULT:     -10.5      2.994      5.026
  Name = 
  1 active torsions:
  status: ('A' for Active; 'I' for Inactive)
    1  A    between atoms: C_20  and  N_29
                            x       y       z     vdW  Elec       q    Type
                         _______ _______ _______ _____ _____    ______ ____

>  <TORSDO>
F 1

$$$$
=
 OpenBabel11122410443D

 32 37  0  0  1  0  0  0  0  0999 V2000
  188.4340  177.6490  148.1410 C   0  0  0  0  0  2  0  0  0  0  0  0
  186.1780  178.1850  143.0730 C   0  0  1  0  0  3  0  0  0  0  0  0
  189.4310  178.3180  139.4550 C   0  0  0  0  0  2  0  0  0  0  0  0
  188.3060  178.4150  138.4630 C   0  0  0  0  0  3  0  0  0  0  0  0
  183.7080  178.4760  142.5630 C   0  0  0  0  0  0  0  0  0  0  0  0
  182.6820  178.7530  141.5660 C   0  0  0  0  0  0  0  0  0  0  0  0
  187.1160  178.1360  145.3560 C   0  0  0  0  0  0  0  0  0  0  0  0
  188.5730  177.3240  143.4980 C   0  0  0  0  0  3  0  0  0  0  0  0
  181.8540  179.2150  139.5780 N   0  0  0  0  0  0  0  0  0  0  0  0
  189.5100  177.5340  145.8570 C   0  0  0  0  0  2  0  0  0  0  0  0
  189.0510  177.4340  140.6420 C   0  0  0  0  0  2  0  0  0  0  0  0
  187.5110  177.8230  142.5510 C   0  0  0  0  0  0  0  0  0  0  0  0
  187.7350  177.8780  141.2290 C   0  0  0  0  0  0  0  0  0  0  0  0
  185.4160  178.5670  140.7260 C   0  0  0  0  0  0  0  0  0  0  0  0
  180.8240  179.1130  140.4440 C   0  0  0  0  0  3  0  0  0  0  0  0
  187.8620  178.7880  147.5490 O   0  0  0  0  0  0  0  0  0  0  0  0
  188.3310  177.6980  144.9360 C   0  0  0  0  0  0  0  0  0  0  0  0
  181.3080  178.8190  141.7170 C   0  0  0  0  0  3  0  0  0  0  0  0
  186.7640  178.3330  146.8080 C   0  0  0  0  0  2  0  0  0  0  0  0
  189.1500  176.7530  147.1190 C   0  0  1  0  0  3  0  0  0  0  0  0
  187.0310  178.4570  138.8610 C   0  0  0  0  0  3  0  0  0  0  0  0
  186.6700  178.3200  140.2910 C   0  0  0  0  0  0  0  0  0  0  0  0
  184.3760  179.0520  139.7250 C   0  0  0  0  0  2  0  0  0  0  0  0
  186.0190  178.3310  144.3930 C   0  0  0  0  0  3  0  0  0  0  0  0
  183.3700  178.2530  143.7570 O   0  0  0  0  0  0  0  0  0  0  0  0
  181.7400  179.5260  138.1630 C   0  0  0  0  0  1  0  0  0  0  0  0
  185.0950  178.4290  142.1410 N   0  0  0  0  0  0  0  0  0  0  0  0
  182.9840  178.9880  140.2630 C   0  0  0  0  0  0  0  0  0  0  0  0
  190.3510  176.1980  147.7240 N   0  0  0  0  0  2  0  0  0  0  0  0
  191.6160  176.1920  147.0600 C   0  0  0  0  0  0  0  0  0  0  0  0
  191.7330  176.6550  145.8940 O   0  0  0  0  0  0  0  0  0  0  0  0
  192.8050  175.6280  147.7500 C   0  0  0  0  0  1  0  0  0  0  0  0
  2 24  1  6  0  0  0
  3 11  1  0  0  0  0
  4 21  2  0  0  0  0
  4  3  1  0  0  0  0
  5 25  2  0  0  0  0
  6 18  1  0  0  0  0
  6  5  1  0  0  0  0
  7 19  1  0  0  0  0
  8 17  2  0  0  0  0
  9 28  1  0  0  0  0
  9 15  1  0  0  0  0
 10 20  1  0  0  0  0
 11 13  1  0  0  0  0
 12  2  1  0  0  0  0
 12  8  1  0  0  0  0
 13 12  2  0  0  0  0
 14 27  1  0  0  0  0
 15 18  2  0  0  0  0
 16  1  1  0  0  0  0
 17  7  1  0  0  0  0
 17 10  1  0  0  0  0
 19 16  1  0  0  0  0
 20 29  1  1  0  0  0
 20  1  1  0  0  0  0
 21 22  1  0  0  0  0
 22 14  2  0  0  0  0
 22 13  1  0  0  0  0
 23 28  1  0  0  0  0
 23 14  1  0  0  0  0
 24  7  2  0  0  0  0
 26  9  1  0  0  0  0
 27  5  1  0  0  0  0
 27  2  1  0  0  0  0
 28  6  2  0  0  0  0
 30 29  1  0  0  0  0
 30 32  1  0  0  0  0
 31 30  2  0  0  0  0
M  END
>  <MODEL>
3

>  <REMARK>
 VINA RESULT:      -9.4      1.843      8.138
  Name = 
  1 active torsions:
  status: ('A' for Active; 'I' for Inactive)
    1  A    between atoms: C_20  and  N_29
                            x       y       z     vdW  Elec       q    Type
                         _______ _______ _______ _____ _____    ______ ____

>  <TORSDO>
F 1

$$$$
=
 OpenBabel11122410443D

 32 37  0  0  1  0  0  0  0  0999 V2000
  191.2360  176.1930  136.6640 C   0  0  0  0  0  2  0  0  0  0  0  0
  188.8650  177.4060  141.5590 C   0  0  0  0  0  0  0  0  0  0  0  0
  191.6780  176.4620  145.4170 C   0  0  0  0  0  2  0  0  0  0  0  0
  190.5990  176.9910  146.3200 C   0  0  0  0  0  3  0  0  0  0  0  0
  186.4960  178.2540  141.9000 C   0  0  0  0  0  0  0  0  0  0  0  0
  185.4300  178.5810  142.8370 C   0  0  0  0  0  0  0  0  0  0  0  0
  189.7800  176.7190  139.3720 C   0  0  0  0  0  0  0  0  0  0  0  0
  191.4070  177.1130  141.2260 C   0  0  0  0  0  2  0  0  0  0  0  0
  184.4440  178.8080  144.7940 N   0  0  0  0  0  0  0  0  0  0  0  0
  192.2130  176.1840  138.9950 C   0  0  0  0  0  2  0  0  0  0  0  0
  191.7350  177.2370  144.1020 C   0  0  0  0  0  2  0  0  0  0  0  0
  190.2140  177.2500  142.1380 C   0  0  0  0  0  0  0  0  0  0  0  0
  190.3670  177.3020  143.4700 C   0  0  0  0  0  0  0  0  0  0  0  0
  187.9660  177.7300  143.8670 C   0  0  0  0  0  0  0  0  0  0  0  0
  183.5730  179.2020  143.8420 C   0  0  0  0  0  3  0  0  0  0  0  0
  190.2220  175.4990  137.3460 O   0  0  0  0  0  0  0  0  0  0  0  0
  191.0570  176.6660  139.8310 C   0  0  0  0  0  0  0  0  0  0  0  0
  184.1620  179.0760  142.5850 C   0  0  0  0  0  3  0  0  0  0  0  0
  189.4070  176.4750  137.9330 C   0  0  0  0  0  2  0  0  0  0  0  0
  192.2450  176.8480  137.6200 C   0  0  1  0  0  3  0  0  0  0  0  0
  189.4360  177.4280  145.8280 C   0  0  0  0  0  3  0  0  0  0  0  0
  189.1970  177.4900  144.3670 C   0  0  0  0  0  0  0  0  0  0  0  0
  186.7980  177.8770  144.8330 C   0  0  0  0  0  2  0  0  0  0  0  0
  188.6850  177.1460  140.2600 C   0  0  0  0  0  3  0  0  0  0  0  0
  186.3090  178.4180  140.6640 O   0  0  0  0  0  0  0  0  0  0  0  0
  184.1810  178.7870  146.2230 C   0  0  0  0  0  1  0  0  0  0  0  0
  187.7630  177.7780  142.4240 N   0  0  0  0  0  0  0  0  0  0  0  0
  185.5770  178.4380  144.1800 C   0  0  0  0  0  0  0  0  0  0  0  0
  193.5800  176.7530  137.0490 N   0  0  0  0  0  2  0  0  0  0  0  0
  194.1810  175.5040  136.7000 C   0  0  0  0  0  0  0  0  0  0  0  0
  193.5740  174.4190  136.9000 O   0  0  0  0  0  0  0  0  0  0  0  0
  195.5410  175.4860  136.1010 C   0  0  0  0  0  1  0  0  0  0  0  0
  1 16  1  0  0  0  0
  1 20  1  0  0  0  0
  2 12  1  0  0  0  0
  2 27  1  0  0  0  0
  3  4  1  0  0  0  0
  5 27  1  0  0  0  0
  5  6  1  0  0  0  0
  6 28  2  0  0  0  0
  7 17  2  0  0  0  0
  7 24  1  0  0  0  0
  8 12  1  0  0  0  0
  9 26  1  0  0  0  0
 10 17  1  0  0  0  0
 11  3  1  0  0  0  0
 12 13  2  0  0  0  0
 13 11  1  0  0  0  0
 13 22  1  0  0  0  0
 14 22  2  0  0  0  0
 14 23  1  0  0  0  0
 15  9  1  0  0  0  0
 16 19  1  0  0  0  0
 17  8  1  0  0  0  0
 18  6  1  0  0  0  0
 18 15  2  0  0  0  0
 19  7  1  0  0  0  0
 20 29  1  6  0  0  0
 20 10  1  0  0  0  0
 21  4  2  0  0  0  0
 22 21  1  0  0  0  0
 24  2  2  0  0  0  0
 25  5  2  0  0  0  0
 27 14  1  0  0  0  0
 28  9  1  0  0  0  0
 28 23  1  0  0  0  0
 30 31  2  0  0  0  0
 30 29  1  0  0  0  0
 32 30  1  0  0  0  0
M  END
>  <MODEL>
4

>  <REMARK>
 VINA RESULT:      -9.4      4.249      7.849
  Name = 
  1 active torsions:
  status: ('A' for Active; 'I' for Inactive)
    1  A    between atoms: C_20  and  N_29
                            x       y       z     vdW  Elec       q    Type
                         _______ _______ _______ _____ _____    ______ ____

>  <TORSDO>
F 1

$$$$
=
 OpenBabel11122410443D

 32 37  0  0  1  0  0  0  0  0999 V2000
  187.7720  178.3040  136.5780 C   0  0  0  0  0  2  0  0  0  0  0  0
  188.0890  177.7930  142.1190 C   0  0  0  0  0  0  0  0  0  0  0  0
  184.0830  179.2350  144.4790 C   0  0  0  0  0  2  0  0  0  0  0  0
  184.7230  178.8420  145.7810 C   0  0  0  0  0  3  0  0  0  0  0  0
  190.1190  177.0190  143.4310 C   0  0  0  0  0  0  0  0  0  0  0  0
  190.7430  176.8320  144.7350 C   0  0  0  0  0  0  0  0  0  0  0  0
  188.0870  178.1660  139.6790 C   0  0  0  0  0  0  0  0  0  0  0  0
  185.8710  178.0170  140.8190 C   0  0  0  0  0  2  0  0  0  0  0  0
  190.9160  176.8830  146.9300 N   0  0  0  0  0  0  0  0  0  0  0  0
  185.9970  178.6250  138.3490 C   0  0  0  0  0  2  0  0  0  0  0  0
  184.4880  178.2860  143.3510 C   0  0  0  0  0  2  0  0  0  0  0  0
  186.6290  178.0160  142.1220 C   0  0  0  0  0  0  0  0  0  0  0  0
  185.9880  178.1460  143.2940 C   0  0  0  0  0  0  0  0  0  0  0  0
  188.0460  177.7960  144.6160 C   0  0  0  0  0  0  0  0  0  0  0  0
  192.0610  176.3700  146.4350 C   0  0  0  0  0  3  0  0  0  0  0  0
  188.4880  179.0930  137.4950 O   0  0  0  0  0  0  0  0  0  0  0  0
  186.7350  178.2710  139.6130 C   0  0  0  0  0  0  0  0  0  0  0  0
  191.9910  176.3180  145.0440 C   0  0  0  0  0  3  0  0  0  0  0  0
  188.9810  178.2130  138.4660 C   0  0  0  0  0  2  0  0  0  0  0  0
  186.4520  177.7790  137.1610 C   0  0  1  0  0  3  0  0  0  0  0  0
  185.9650  178.3520  145.8230 C   0  0  0  0  0  3  0  0  0  0  0  0
  186.7300  178.0920  144.5810 C   0  0  0  0  0  0  0  0  0  0  0  0
  188.7610  177.7920  145.9600 C   0  0  0  0  0  2  0  0  0  0  0  0
  188.7520  177.8740  140.9600 C   0  0  0  0  0  3  0  0  0  0  0  0
  190.7470  176.6880  142.3890 O   0  0  0  0  0  0  0  0  0  0  0  0
  190.6280  177.1030  148.3370 C   0  0  0  0  0  1  0  0  0  0  0  0
  188.7710  177.5520  143.3750 N   0  0  0  0  0  0  0  0  0  0  0  0
  190.1120  177.1570  145.8930 C   0  0  0  0  0  0  0  0  0  0  0  0
  185.4320  177.7840  136.1240 N   0  0  0  0  0  2  0  0  0  0  0  0
  184.1120  177.2820  136.3400 C   0  0  0  0  0  0  0  0  0  0  0  0
  183.7840  176.7870  137.4500 O   0  0  0  0  0  0  0  0  0  0  0  0
  183.1150  177.3400  135.2380 C   0  0  0  0  0  1  0  0  0  0  0  0
  1 20  1  0  0  0  0
  1 16  1  0  0  0  0
  2 12  1  0  0  0  0
  2 27  1  0  0  0  0
  3  4  1  0  0  0  0
  4 21  2  0  0  0  0
  5  6  1  0  0  0  0
  6 18  1  0  0  0  0
  6 28  2  0  0  0  0
  7 24  1  0  0  0  0
  8 12  1  0  0  0  0
  9 26  1  0  0  0  0
 10 17  1  0  0  0  0
 11  3  1  0  0  0  0
 12 13  2  0  0  0  0
 13 11  1  0  0  0  0
 13 22  1  0  0  0  0
 14 23  1  0  0  0  0
 15  9  1  0  0  0  0
 16 19  1  0  0  0  0
 17  7  2  0  0  0  0
 17  8  1  0  0  0  0
 18 15  2  0  0  0  0
 19  7  1  0  0  0  0
 20 29  1  6  0  0  0
 20 10  1  0  0  0  0
 22 14  2  0  0  0  0
 22 21  1  0  0  0  0
 24  2  2  0  0  0  0
 25  5  2  0  0  0  0
 27  5  1  0  0  0  0
 27 14  1  0  0  0  0
 28 23  1  0  0  0  0
 28  9  1  0  0  0  0
 29 30  1  0  0  0  0
 30 31  2  0  0  0  0
 32 30  1  0  0  0  0
M  END
>  <MODEL>
5

>  <REMARK>
 VINA RESULT:      -9.3      3.053      4.941
  Name = 
  1 active torsions:
  status: ('A' for Active; 'I' for Inactive)
    1  A    between atoms: C_20  and  N_29
                            x       y       z     vdW  Elec       q    Type
                         _______ _______ _______ _____ _____    ______ ____

>  <TORSDO>
F 1

$$$$
=
 OpenBabel11122410443D

 32 37  0  0  1  0  0  0  0  0999 V2000
  179.8490  179.2420  139.6970 C   0  0  0  0  0  2  0  0  0  0  0  0
  184.7850  178.5170  142.1820 C   0  0  0  0  0  0  0  0  0  0  0  0
  188.4310  177.5380  139.1090 C   0  0  0  0  0  2  0  0  0  0  0  0
  189.3840  177.5030  140.2700 C   0  0  0  0  0  3  0  0  0  0  0  0
  185.2120  178.5380  144.6840 C   0  0  0  0  0  0  0  0  0  0  0  0
  186.1530  178.3100  145.7730 C   0  0  0  0  0  0  0  0  0  0  0  0
  182.5400  178.6650  141.1670 C   0  0  0  0  0  0  0  0  0  0  0  0
  184.5020  179.0590  139.6750 C   0  0  0  0  0  2  0  0  0  0  0  0
  188.0640  177.7710  146.7270 N   0  0  0  0  0  0  0  0  0  0  0  0
  182.1530  178.9610  138.6960 C   0  0  0  0  0  2  0  0  0  0  0  0
  187.3380  178.5860  139.3170 C   0  0  0  0  0  2  0  0  0  0  0  0
  185.3690  178.6250  140.8300 C   0  0  0  0  0  0  0  0  0  0  0  0
  186.6810  178.4010  140.6620 C   0  0  0  0  0  0  0  0  0  0  0  0
  187.0630  178.0090  143.0710 C   0  0  0  0  0  0  0  0  0  0  0  0
  187.1940  178.1100  147.7010 C   0  0  0  0  0  3  0  0  0  0  0  0
  180.3040  178.1430  140.4460 O   0  0  0  0  0  0  0  0  0  0  0  0
  183.0280  178.8750  139.9180 C   0  0  0  0  0  0  0  0  0  0  0  0
  185.9700  178.4620  147.1370 C   0  0  0  0  0  3  0  0  0  0  0  0
  181.0680  178.6730  141.4930 C   0  0  0  0  0  2  0  0  0  0  0  0
  180.9750  179.9130  138.8970 C   0  0  1  0  0  3  0  0  0  0  0  0
  188.9590  177.6880  141.5230 C   0  0  0  0  0  3  0  0  0  0  0  0
  187.5460  178.0240  141.8110 C   0  0  0  0  0  0  0  0  0  0  0  0
  187.9840  177.5790  144.2040 C   0  0  0  0  0  2  0  0  0  0  0  0
  183.4540  178.5330  142.3140 C   0  0  0  0  0  3  0  0  0  0  0  0
  184.0430  178.9300  144.9450 O   0  0  0  0  0  0  0  0  0  0  0  0
  189.4350  177.3350  146.9340 C   0  0  0  0  0  1  0  0  0  0  0  0
  185.6640  178.3380  143.3200 N   0  0  0  0  0  0  0  0  0  0  0  0
  187.4300  177.9000  145.5530 C   0  0  0  0  0  0  0  0  0  0  0  0
  180.4570  180.3460  137.6080 N   0  0  0  0  0  2  0  0  0  0  0  0
  180.8330  179.7250  136.3780 C   0  0  0  0  0  0  0  0  0  0  0  0
  181.6620  178.7770  136.3630 O   0  0  0  0  0  0  0  0  0  0  0  0
  180.2450  180.2080  135.1010 C   0  0  0  0  0  1  0  0  0  0  0  0
  1 16  1  0  0  0  0
  2 24  2  0  0  0  0
  2 27  1  0  0  0  0
  3 11  1  0  0  0  0
  3  4  1  0  0  0  0
  4 21  2  0  0  0  0
  5 25  2  0  0  0  0
  5  6  1  0  0  0  0
  6 18  1  0  0  0  0
  7 19  1  0  0  0  0
  7 24  1  0  0  0  0
  8 17  1  0  0  0  0
  8 12  1  0  0  0  0
  9 26  1  0  0  0  0
  9 15  1  0  0  0  0
 10 20  1  0  0  0  0
 10 17  1  0  0  0  0
 11 13  1  0  0  0  0
 12  2  1  0  0  0  0
 13 12  2  0  0  0  0
 13 22  1  0  0  0  0
 14 27  1  0  0  0  0
 14 23  1  0  0  0  0
 16 19  1  0  0  0  0
 17  7  2  0  0  0  0
 18 15  2  0  0  0  0
 20 29  1  6  0  0  0
 20  1  1  0  0  0  0
 21 22  1  0  0  0  0
 22 14  2  0  0  0  0
 23 28  1  0  0  0  0
 27  5  1  0  0  0  0
 28  6  2  0  0  0  0
 28  9  1  0  0  0  0
 30 29  1  0  0  0  0
 31 30  2  0  0  0  0
 32 30  1  0  0  0  0
M  END
>  <MODEL>
6

>  <REMARK>
 VINA RESULT:      -8.7      1.470      1.664
  Name = 
  1 active torsions:
  status: ('A' for Active; 'I' for Inactive)
    1  A    between atoms: C_20  and  N_29
                            x       y       z     vdW  Elec       q    Type
                         _______ _______ _______ _____ _____    ______ ____

>  <TORSDO>
F 1

$$$$
