=
 OpenBabel11122411403D

 37 43  0  0  1  0  0  0  0  0999 V2000
  185.6800  178.2140  141.8260 O   0  0  0  0  0  0  0  0  0  0  0  0
  187.2920  177.5490  137.1280 C   0  0  0  0  0  0  0  0  0  0  0  0
  189.8270  177.3270  140.4470 C   0  0  0  0  0  0  0  0  0  0  0  0
  184.6920  179.1410  142.2000 C   0  0  2  0  0  3  0  0  0  0  0  0
  188.0650  176.8820  143.6670 C   0  0  0  0  0  2  0  0  0  0  0  0
  189.6600  177.1830  138.0280 C   0  0  0  0  0  0  0  0  0  0  0  0
  189.0450  177.7140  141.4840 N   0  0  0  0  0  0  0  0  0  0  0  0
  184.9360  178.5810  144.6830 C   0  0  0  0  0  0  0  0  0  0  0  0
  189.1290  177.4160  139.2790 C   0  0  0  0  0  0  0  0  0  0  0  0
  189.2440  177.4190  142.8900 C   0  0  0  0  0  0  0  0  0  0  0  0
  191.0210  176.8490  137.9620 C   0  0  0  0  0  3  0  0  0  0  0  0
  184.8850  179.6610  143.6360 C   0  0  0  0  0  2  0  0  0  0  0  0
  187.8980  177.9040  139.5340 C   0  0  0  0  0  0  0  0  0  0  0  0
  186.7270  176.1410  137.2250 C   0  0  0  0  0  1  0  0  0  0  0  0
  192.0930  177.3050  141.5360 C   0  0  0  0  0  3  0  0  0  0  0  0
  191.7850  176.7970  139.1520 C   0  0  0  0  0  3  0  0  0  0  0  0
  186.9700  178.3230  138.4340 C   0  0  0  0  0  2  0  0  0  0  0  0
  185.9100  177.4480  144.5840 C   0  0  1  0  0  3  0  0  0  0  0  0
  187.2850  177.9620  144.3880 C   0  0  1  0  0  3  0  0  0  0  0  0
  191.1980  177.0570  140.4130 C   0  0  0  0  0  0  0  0  0  0  0  0
  187.8710  178.1260  140.9020 C   0  0  0  0  0  0  0  0  0  0  0  0
  188.8130  177.4710  136.8120 C   0  0  0  0  0  2  0  0  0  0  0  0
  190.4640  177.3880  143.4900 C   0  0  0  0  0  0  0  0  0  0  0  0
  186.6030  178.2510  135.9770 C   0  0  0  0  0  1  0  0  0  0  0  0
  186.8390  177.4940  145.6390 O   0  0  0  0  0  0  0  0  0  0  0  0
  184.1590  178.6260  145.6230 O   0  0  0  0  0  0  0  0  0  0  0  0
  186.8300  178.9650  141.5680 C   0  0  0  0  0  2  0  0  0  0  0  0
  191.7730  177.4720  142.8140 C   0  0  0  0  0  3  0  0  0  0  0  0
  191.5570  176.3310  145.4720 C   0  0  0  0  0  3  0  0  0  0  0  0
  190.5790  177.1920  144.9520 C   0  0  0  0  0  0  0  0  0  0  0  0
  189.7430  177.8940  145.8320 C   0  0  0  0  0  3  0  0  0  0  0  0
  189.0090  178.4310  148.0970 N   0  0  0  0  0  1  0  0  0  0  0  0
  190.8360  176.8550  147.7230 C   0  0  0  0  0  3  0  0  0  0  0  0
  189.8680  177.7220  147.2130 C   0  0  0  0  0  0  0  0  0  0  0  0
  191.6830  176.1610  146.8540 C   0  0  0  0  0  3  0  0  0  0  0  0
  183.2160  177.8000  140.7060 C   0  0  0  0  0  1  0  0  0  0  0  0
  183.3080  178.5340  142.0300 C   0  0  0  0  0  2  0  0  0  0  0  0
  1  4  1  0  0  0  0
  2 14  1  0  0  0  0
  2 17  1  0  0  0  0
  3  7  1  0  0  0  0
  4 37  1  1  0  0  0
  4 12  1  0  0  0  0
  6  9  1  0  0  0  0
  7 10  1  0  0  0  0
  8 26  2  0  0  0  0
  9 13  1  0  0  0  0
  9  3  2  0  0  0  0
 10 23  2  0  0  0  0
 10  5  1  0  0  0  0
 11  6  2  0  0  0  0
 11 16  1  0  0  0  0
 12  8  1  0  0  0  0
 13 21  2  0  0  0  0
 15 28  2  0  0  0  0
 16 20  2  0  0  0  0
 17 13  1  0  0  0  0
 18  8  1  1  0  0  0
 18 25  1  0  0  0  0
 19  5  1  6  0  0  0
 19 18  1  0  0  0  0
 19 25  1  0  0  0  0
 20  3  1  0  0  0  0
 20 15  1  0  0  0  0
 21  7  1  0  0  0  0
 21 27  1  0  0  0  0
 22  2  1  0  0  0  0
 22  6  1  0  0  0  0
 23 30  1  0  0  0  0
 24  2  1  0  0  0  0
 27  1  1  0  0  0  0
 28 23  1  0  0  0  0
 29 35  1  0  0  0  0
 30 29  2  0  0  0  0
 30 31  1  0  0  0  0
 31 34  2  0  0  0  0
 34 33  1  0  0  0  0
 34 32  1  0  0  0  0
 35 33  2  0  0  0  0
 36 37  1  0  0  0  0
M  END
>  <MODEL>
1

>  <REMARK>
 VINA RESULT:     -11.9      0.000      0.000
  Name = 
  2 active torsions:
  status: ('A' for Active; 'I' for Inactive)
    1  A    between atoms: C_4  and  C_37
    2  A    between atoms: C_23  and  C_30
                            x       y       z     vdW  Elec       q    Type
                         _______ _______ _______ _____ _____    ______ ____

>  <TORSDO>
F 2

$$$$
=
 OpenBabel11122411403D

 37 43  0  0  1  0  0  0  0  0999 V2000
  185.2030  178.5280  143.5190 O   0  0  0  0  0  0  0  0  0  0  0  0
  188.1740  177.8050  147.4910 C   0  0  0  0  0  0  0  0  0  0  0  0
  189.4860  177.2830  143.5540 C   0  0  0  0  0  0  0  0  0  0  0  0
  183.8380  178.1970  143.4820 C   0  0  2  0  0  3  0  0  0  0  0  0
  187.3160  178.8690  141.0150 C   0  0  0  0  0  2  0  0  0  0  0  0
  190.0850  177.1810  145.9060 C   0  0  0  0  0  0  0  0  0  0  0  0
  188.3600  177.4200  142.8110 N   0  0  0  0  0  0  0  0  0  0  0  0
  183.6130  178.8950  141.0320 C   0  0  0  0  0  0  0  0  0  0  0  0
  189.1820  177.3700  144.8800 C   0  0  0  0  0  0  0  0  0  0  0  0
  188.2730  177.7680  141.4060 C   0  0  0  0  0  0  0  0  0  0  0  0
  191.4020  176.8580  145.5470 C   0  0  0  0  0  3  0  0  0  0  0  0
  183.3590  177.8310  142.0650 C   0  0  0  0  0  2  0  0  0  0  0  0
  187.8500  177.5220  145.0210 C   0  0  0  0  0  0  0  0  0  0  0  0
  188.3270  179.3160  147.5430 C   0  0  0  0  0  1  0  0  0  0  0  0
  191.0980  176.4220  141.8260 C   0  0  0  0  0  3  0  0  0  0  0  0
  191.7380  176.7120  144.1810 C   0  0  0  0  0  3  0  0  0  0  0  0
  187.1800  177.4280  146.3600 C   0  0  0  0  0  2  0  0  0  0  0  0
  184.9860  179.4490  140.8080 C   0  0  1  0  0  3  0  0  0  0  0  0
  185.9580  178.3540  140.5860 C   0  0  1  0  0  3  0  0  0  0  0  0
  190.7730  176.9030  143.1640 C   0  0  0  0  0  0  0  0  0  0  0  0
  187.3440  177.5080  143.7310 C   0  0  0  0  0  0  0  0  0  0  0  0
  189.5770  177.1530  147.3260 C   0  0  0  0  0  2  0  0  0  0  0  0
  189.1460  177.3250  140.4630 C   0  0  0  0  0  0  0  0  0  0  0  0
  187.5880  177.3480  148.8100 C   0  0  0  0  0  1  0  0  0  0  0  0
  185.4530  179.1240  139.5210 O   0  0  0  0  0  0  0  0  0  0  0  0
  182.6780  179.3210  140.3740 O   0  0  0  0  0  0  0  0  0  0  0  0
  185.8930  177.3150  143.4290 C   0  0  0  0  0  2  0  0  0  0  0  0
  190.3960  176.5790  140.7090 C   0  0  0  0  0  3  0  0  0  0  0  0
  189.2910  178.8830  138.5150 C   0  0  0  0  0  3  0  0  0  0  0  0
  188.9280  177.6300  139.0320 C   0  0  0  0  0  0  0  0  0  0  0  0
  188.3970  176.6590  138.1710 C   0  0  0  0  0  3  0  0  0  0  0  0
  187.6620  175.9570  135.9510 N   0  0  0  0  0  1  0  0  0  0  0  0
  188.5630  178.1980  136.3100 C   0  0  0  0  0  3  0  0  0  0  0  0
  188.2100  176.9440  136.8150 C   0  0  0  0  0  0  0  0  0  0  0  0
  189.1060  179.1660  137.1600 C   0  0  0  0  0  3  0  0  0  0  0  0
  181.5290  178.9940  143.9740 C   0  0  0  0  0  1  0  0  0  0  0  0
  183.0050  179.3330  144.0530 C   0  0  0  0  0  2  0  0  0  0  0  0
  2 14  1  0  0  0  0
  2 24  1  0  0  0  0
  3  9  1  0  0  0  0
  4  1  1  0  0  0  0
  4 37  1  6  0  0  0
  5 10  1  0  0  0  0
  6 22  1  0  0  0  0
  7  3  1  0  0  0  0
  7 21  1  0  0  0  0
  8 12  1  0  0  0  0
  9 13  1  0  0  0  0
  9  6  2  0  0  0  0
 10  7  1  0  0  0  0
 11  6  1  0  0  0  0
 12  4  1  0  0  0  0
 13 17  1  0  0  0  0
 15 20  1  0  0  0  0
 16 11  2  0  0  0  0
 17  2  1  0  0  0  0
 18 25  1  6  0  0  0
 18  8  1  0  0  0  0
 19 18  1  0  0  0  0
 19  5  1  1  0  0  0
 20  3  2  0  0  0  0
 20 16  1  0  0  0  0
 21 13  2  0  0  0  0
 22  2  1  0  0  0  0
 23 28  1  0  0  0  0
 23 10  2  0  0  0  0
 25 19  1  0  0  0  0
 26  8  2  0  0  0  0
 27  1  1  0  0  0  0
 27 21  1  0  0  0  0
 28 15  2  0  0  0  0
 29 30  1  0  0  0  0
 30 23  1  0  0  0  0
 31 30  2  0  0  0  0
 32 34  1  0  0  0  0
 33 34  2  0  0  0  0
 33 35  1  0  0  0  0
 34 31  1  0  0  0  0
 35 29  2  0  0  0  0
 36 37  1  0  0  0  0
M  END
>  <MODEL>
2

>  <REMARK>
 VINA RESULT:     -11.4      1.812      6.732
  Name = 
  2 active torsions:
  status: ('A' for Active; 'I' for Inactive)
    1  A    between atoms: C_4  and  C_37
    2  A    between atoms: C_23  and  C_30
                            x       y       z     vdW  Elec       q    Type
                         _______ _______ _______ _____ _____    ______ ____

>  <TORSDO>
F 2

$$$$
=
 OpenBabel11122411403D

 37 43  0  0  1  0  0  0  0  0999 V2000
  186.3910  177.8330  139.9840 O   0  0  0  0  0  0  0  0  0  0  0  0
  190.2250  176.9860  143.0990 C   0  0  0  0  0  0  0  0  0  0  0  0
  186.4070  178.0440  144.4390 C   0  0  0  0  0  0  0  0  0  0  0  0
  186.5110  178.4620  138.7340 C   0  0  2  0  0  3  0  0  0  0  0  0
  183.7390  177.5780  141.9230 C   0  0  0  0  0  2  0  0  0  0  0  0
  188.6850  177.4940  145.0790 C   0  0  0  0  0  0  0  0  0  0  0  0
  185.7260  178.3290  143.3020 N   0  0  0  0  0  0  0  0  0  0  0  0
  183.9890  178.3830  138.3170 C   0  0  0  0  0  0  0  0  0  0  0  0
  187.7030  177.7410  144.1430 C   0  0  0  0  0  0  0  0  0  0  0  0
  184.2880  178.3230  143.1160 C   0  0  0  0  0  0  0  0  0  0  0  0
  188.3170  177.5820  146.4300 C   0  0  0  0  0  3  0  0  0  0  0  0
  185.2360  179.2260  138.3340 C   0  0  0  0  0  2  0  0  0  0  0  0
  187.8950  177.8660  142.8140 C   0  0  0  0  0  0  0  0  0  0  0  0
  189.9520  175.5050  142.8950 C   0  0  0  0  0  1  0  0  0  0  0  0
  184.7960  178.8750  146.1830 C   0  0  0  0  0  3  0  0  0  0  0  0
  186.9930  177.9430  146.7710 C   0  0  0  0  0  3  0  0  0  0  0  0
  189.2640  177.8140  142.2040 C   0  0  0  0  0  2  0  0  0  0  0  0
  183.5670  177.5970  139.5190 C   0  0  1  0  0  3  0  0  0  0  0  0
  183.5160  178.4670  140.7170 C   0  0  1  0  0  3  0  0  0  0  0  0
  186.0230  178.2000  145.7740 C   0  0  0  0  0  0  0  0  0  0  0  0
  186.6710  178.2740  142.3070 C   0  0  0  0  0  0  0  0  0  0  0  0
  190.1100  177.3260  144.6130 C   0  0  0  0  0  2  0  0  0  0  0  0
  183.4040  178.7530  144.0550 C   0  0  0  0  0  0  0  0  0  0  0  0
  191.6450  177.2650  142.6550 C   0  0  0  0  0  1  0  0  0  0  0  0
  182.3490  178.0810  140.0300 O   0  0  0  0  0  0  0  0  0  0  0  0
  183.3190  178.3320  137.2990 O   0  0  0  0  0  0  0  0  0  0  0  0
  186.5110  178.8490  140.9370 C   0  0  0  0  0  2  0  0  0  0  0  0
  183.7190  179.1270  145.4470 C   0  0  0  0  0  3  0  0  0  0  0  0
  181.0720  177.8980  144.3220 C   0  0  0  0  0  3  0  0  0  0  0  0
  181.9580  178.8240  143.7510 C   0  0  0  0  0  0  0  0  0  0  0  0
  181.4540  179.8390  142.9250 C   0  0  0  0  0  3  0  0  0  0  0  0
  179.5830  180.9420  141.8090 N   0  0  0  0  0  1  0  0  0  0  0  0
  179.2100  178.9830  143.2180 C   0  0  0  0  0  3  0  0  0  0  0  0
  180.0850  179.9150  142.6550 C   0  0  0  0  0  0  0  0  0  0  0  0
  179.7020  177.9760  144.0540 C   0  0  0  0  0  3  0  0  0  0  0  0
  187.1850  178.1480  136.3560 C   0  0  0  0  0  1  0  0  0  0  0  0
  186.8860  177.4470  137.6660 C   0  0  0  0  0  2  0  0  0  0  0  0
  1 27  1  0  0  0  0
  2 22  1  0  0  0  0
  3 20  1  0  0  0  0
  4 37  1  6  0  0  0
  4  1  1  0  0  0  0
  5 10  1  0  0  0  0
  6 11  2  0  0  0  0
  7  3  1  0  0  0  0
  8 12  1  0  0  0  0
  9  3  2  0  0  0  0
  9  6  1  0  0  0  0
 10  7  1  0  0  0  0
 10 23  2  0  0  0  0
 11 16  1  0  0  0  0
 12  4  1  0  0  0  0
 13  9  1  0  0  0  0
 14  2  1  0  0  0  0
 17 13  1  0  0  0  0
 17  2  1  0  0  0  0
 18  8  1  6  0  0  0
 18 25  1  0  0  0  0
 18 19  1  0  0  0  0
 19  5  1  1  0  0  0
 20 15  1  0  0  0  0
 20 16  2  0  0  0  0
 21 13  2  0  0  0  0
 21  7  1  0  0  0  0
 22  6  1  0  0  0  0
 23 28  1  0  0  0  0
 24  2  1  0  0  0  0
 25 19  1  0  0  0  0
 26  8  2  0  0  0  0
 27 21  1  0  0  0  0
 28 15  2  0  0  0  0
 30 23  1  0  0  0  0
 30 29  2  0  0  0  0
 31 30  1  0  0  0  0
 32 34  1  0  0  0  0
 33 35  2  0  0  0  0
 34 31  2  0  0  0  0
 34 33  1  0  0  0  0
 35 29  1  0  0  0  0
 36 37  1  0  0  0  0
M  END
>  <MODEL>
3

>  <REMARK>
 VINA RESULT:     -11.3      2.727      7.403
  Name = 
  2 active torsions:
  status: ('A' for Active; 'I' for Inactive)
    1  A    between atoms: C_4  and  C_37
    2  A    between atoms: C_23  and  C_30
                            x       y       z     vdW  Elec       q    Type
                         _______ _______ _______ _____ _____    ______ ____

>  <TORSDO>
F 2

$$$$
=
 OpenBabel11122411403D

 37 43  0  0  1  0  0  0  0  0999 V2000
  184.4390  178.5390  143.0960 O   0  0  0  0  0  0  0  0  0  0  0  0
  183.2540  178.3940  138.2290 C   0  0  0  0  0  0  0  0  0  0  0  0
  187.1710  177.9400  139.6230 C   0  0  0  0  0  0  0  0  0  0  0  0
  183.8280  179.3890  144.0350 C   0  0  2  0  0  3  0  0  0  0  0  0
  187.4090  177.1200  143.2200 C   0  0  0  0  0  2  0  0  0  0  0  0
  185.7260  178.0270  137.6720 C   0  0  0  0  0  0  0  0  0  0  0  0
  187.0800  178.1960  140.9510 N   0  0  0  0  0  0  0  0  0  0  0  0
  185.3570  178.5980  145.9260 C   0  0  0  0  0  0  0  0  0  0  0  0
  185.9570  178.1170  139.0290 C   0  0  0  0  0  0  0  0  0  0  0  0
  187.9960  177.7720  141.9920 C   0  0  0  0  0  0  0  0  0  0  0  0
  186.8300  177.7510  136.8530 C   0  0  0  0  0  3  0  0  0  0  0  0
  184.7750  179.7730  145.1860 C   0  0  0  0  0  2  0  0  0  0  0  0
  185.0680  178.5340  139.9540 C   0  0  0  0  0  0  0  0  0  0  0  0
  182.7990  176.9650  138.4710 C   0  0  0  0  0  1  0  0  0  0  0  0
  189.6660  177.8940  139.3150 C   0  0  0  0  0  3  0  0  0  0  0  0
  188.1120  177.6090  137.4330 C   0  0  0  0  0  3  0  0  0  0  0  0
  183.7030  179.0250  139.5740 C   0  0  0  0  0  2  0  0  0  0  0  0
  186.1000  177.5160  145.2040 C   0  0  1  0  0  3  0  0  0  0  0  0
  187.1640  178.0950  144.3530 C   0  0  1  0  0  3  0  0  0  0  0  0
  188.3020  177.7240  138.8300 C   0  0  0  0  0  0  0  0  0  0  0  0
  185.7860  178.6210  141.1360 C   0  0  0  0  0  0  0  0  0  0  0  0
  184.3650  178.4020  137.1390 C   0  0  0  0  0  2  0  0  0  0  0  0
  189.3460  177.7260  141.8350 C   0  0  0  0  0  0  0  0  0  0  0  0
  182.0700  179.1800  137.7070 C   0  0  0  0  0  1  0  0  0  0  0  0
  187.4510  177.4920  145.5920 O   0  0  0  0  0  0  0  0  0  0  0  0
  185.2100  178.5230  147.1340 O   0  0  0  0  0  0  0  0  0  0  0  0
  185.2860  179.3530  142.3380 C   0  0  0  0  0  2  0  0  0  0  0  0
  190.0880  177.9230  140.5740 C   0  0  0  0  0  3  0  0  0  0  0  0
  190.4690  178.3440  143.9800 C   0  0  0  0  0  3  0  0  0  0  0  0
  190.2260  177.3930  142.9770 C   0  0  0  0  0  0  0  0  0  0  0  0
  190.7890  176.1140  143.0920 C   0  0  0  0  0  3  0  0  0  0  0  0
  192.1770  174.4990  144.2860 N   0  0  0  0  0  1  0  0  0  0  0  0
  191.8500  176.7510  145.1710 C   0  0  0  0  0  3  0  0  0  0  0  0
  191.6020  175.7960  144.1820 C   0  0  0  0  0  0  0  0  0  0  0  0
  191.2810  178.0240  145.0710 C   0  0  0  0  0  3  0  0  0  0  0  0
  181.4570  178.8110  143.5310 C   0  0  0  0  0  1  0  0  0  0  0  0
  182.5580  178.7520  144.5740 C   0  0  0  0  0  2  0  0  0  0  0  0
  1  4  1  0  0  0  0
  2 14  1  0  0  0  0
  2 17  1  0  0  0  0
  3  7  1  0  0  0  0
  4 37  1  1  0  0  0
  4 12  1  0  0  0  0
  6  9  2  0  0  0  0
  7 21  1  0  0  0  0
  7 10  1  0  0  0  0
  8 26  2  0  0  0  0
  9  3  1  0  0  0  0
  9 13  1  0  0  0  0
 10  5  1  0  0  0  0
 11 16  2  0  0  0  0
 11  6  1  0  0  0  0
 12  8  1  0  0  0  0
 13 21  2  0  0  0  0
 15 28  2  0  0  0  0
 16 20  1  0  0  0  0
 17 13  1  0  0  0  0
 18 25  1  1  0  0  0
 18  8  1  0  0  0  0
 19  5  1  6  0  0  0
 19 18  1  0  0  0  0
 19 25  1  0  0  0  0
 20 15  1  0  0  0  0
 20  3  2  0  0  0  0
 21 27  1  0  0  0  0
 22  6  1  0  0  0  0
 22  2  1  0  0  0  0
 23 10  2  0  0  0  0
 23 30  1  0  0  0  0
 24  2  1  0  0  0  0
 27  1  1  0  0  0  0
 28 23  1  0  0  0  0
 29 35  1  0  0  0  0
 30 31  1  0  0  0  0
 30 29  2  0  0  0  0
 31 34  2  0  0  0  0
 34 32  1  0  0  0  0
 34 33  1  0  0  0  0
 35 33  2  0  0  0  0
 36 37  1  0  0  0  0
M  END
>  <MODEL>
4

>  <REMARK>
 VINA RESULT:     -11.2      1.801      3.086
  Name = 
  2 active torsions:
  status: ('A' for Active; 'I' for Inactive)
    1  A    between atoms: C_4  and  C_37
    2  A    between atoms: C_23  and  C_30
                            x       y       z     vdW  Elec       q    Type
                         _______ _______ _______ _____ _____    ______ ____

>  <TORSDO>
F 2

$$$$
=
 OpenBabel11122411403D

 37 43  0  0  1  0  0  0  0  0999 V2000
  188.3570  177.7220  138.9930 O   0  0  0  0  0  0  0  0  0  0  0  0
  190.2660  177.0430  143.5770 C   0  0  0  0  0  0  0  0  0  0  0  0
  186.2670  178.0750  142.9170 C   0  0  0  0  0  0  0  0  0  0  0  0
  189.0540  178.3140  137.9260 C   0  0  2  0  0  3  0  0  0  0  0  0
  185.1050  177.4820  139.4580 C   0  0  0  0  0  2  0  0  0  0  0  0
  187.9730  177.5850  144.5760 C   0  0  0  0  0  0  0  0  0  0  0  0
  186.2040  178.3110  141.5840 N   0  0  0  0  0  0  0  0  0  0  0  0
  187.0280  178.1770  136.3710 C   0  0  0  0  0  0  0  0  0  0  0  0
  187.5500  177.7850  143.2790 C   0  0  0  0  0  0  0  0  0  0  0  0
  185.0250  178.2740  140.7410 C   0  0  0  0  0  0  0  0  0  0  0  0
  187.0110  177.7100  145.5890 C   0  0  0  0  0  3  0  0  0  0  0  0
  188.1180  179.0420  136.9440 C   0  0  0  0  0  2  0  0  0  0  0  0
  188.3470  177.8710  142.1950 C   0  0  0  0  0  0  0  0  0  0  0  0
  190.1220  175.5510  143.3220 C   0  0  0  0  0  1  0  0  0  0  0  0
  184.0230  178.9310  143.6620 C   0  0  0  0  0  3  0  0  0  0  0  0
  185.6820  178.0580  145.2510 C   0  0  0  0  0  3  0  0  0  0  0  0
  189.8410  177.8240  142.3060 C   0  0  0  0  0  2  0  0  0  0  0  0
  186.0880  177.4220  137.2590 C   0  0  1  0  0  3  0  0  0  0  0  0
  185.4770  178.3280  138.2580 C   0  0  1  0  0  3  0  0  0  0  0  0
  185.2980  178.2660  143.9060 C   0  0  0  0  0  0  0  0  0  0  0  0
  187.5070  178.2410  141.1550 C   0  0  0  0  0  0  0  0  0  0  0  0
  189.4490  177.4270  144.8440 C   0  0  0  0  0  2  0  0  0  0  0  0
  183.8010  178.7180  141.1350 C   0  0  0  0  0  0  0  0  0  0  0  0
  191.7270  177.3320  143.8470 C   0  0  0  0  0  1  0  0  0  0  0  0
  184.7730  177.9000  137.1160 O   0  0  0  0  0  0  0  0  0  0  0  0
  186.9180  178.0820  135.1600 O   0  0  0  0  0  0  0  0  0  0  0  0
  188.0120  178.7700  139.8520 C   0  0  0  0  0  2  0  0  0  0  0  0
  183.4210  179.1410  142.4970 C   0  0  0  0  0  3  0  0  0  0  0  0
  181.7170  177.7240  140.1820 C   0  0  0  0  0  3  0  0  0  0  0  0
  182.6710  178.7530  140.1820 C   0  0  0  0  0  0  0  0  0  0  0  0
  182.5170  179.8330  139.3010 C   0  0  0  0  0  3  0  0  0  0  0  0
  181.2940  180.9680  137.5180 N   0  0  0  0  0  1  0  0  0  0  0  0
  180.4970  178.8400  138.4130 C   0  0  0  0  0  3  0  0  0  0  0  0
  181.4370  179.8740  138.4150 C   0  0  0  0  0  0  0  0  0  0  0  0
  180.6360  177.7660  139.2980 C   0  0  0  0  0  3  0  0  0  0  0  0
  190.3850  176.2220  138.1760 C   0  0  0  0  0  1  0  0  0  0  0  0
  189.8890  177.2720  137.1990 C   0  0  0  0  0  2  0  0  0  0  0  0
  1 27  1  0  0  0  0
  2 24  1  0  0  0  0
  2 22  1  0  0  0  0
  3  9  2  0  0  0  0
  3 20  1  0  0  0  0
  4 37  1  6  0  0  0
  4  1  1  0  0  0  0
  5 10  1  0  0  0  0
  6 22  1  0  0  0  0
  6 11  2  0  0  0  0
  7  3  1  0  0  0  0
  8 12  1  0  0  0  0
  9  6  1  0  0  0  0
 10 23  2  0  0  0  0
 10  7  1  0  0  0  0
 12  4  1  0  0  0  0
 13 17  1  0  0  0  0
 13  9  1  0  0  0  0
 14  2  1  0  0  0  0
 15 20  1  0  0  0  0
 16 11  1  0  0  0  0
 17  2  1  0  0  0  0
 18  8  1  6  0  0  0
 18 19  1  0  0  0  0
 19  5  1  1  0  0  0
 20 16  2  0  0  0  0
 21  7  1  0  0  0  0
 21 13  2  0  0  0  0
 23 28  1  0  0  0  0
 25 18  1  0  0  0  0
 25 19  1  0  0  0  0
 26  8  2  0  0  0  0
 27 21  1  0  0  0  0
 28 15  2  0  0  0  0
 30 29  1  0  0  0  0
 30 23  1  0  0  0  0
 31 30  2  0  0  0  0
 32 34  1  0  0  0  0
 33 34  2  0  0  0  0
 33 35  1  0  0  0  0
 34 31  1  0  0  0  0
 35 29  2  0  0  0  0
 37 36  1  0  0  0  0
M  END
>  <MODEL>
5

>  <REMARK>
 VINA RESULT:     -10.9      2.672      8.139
  Name = 
  2 active torsions:
  status: ('A' for Active; 'I' for Inactive)
    1  A    between atoms: C_4  and  C_37
    2  A    between atoms: C_23  and  C_30
                            x       y       z     vdW  Elec       q    Type
                         _______ _______ _______ _____ _____    ______ ____

>  <TORSDO>
F 2

$$$$
=
 OpenBabel11122411403D

 37 43  0  0  1  0  0  0  0  0999 V2000
  186.9260  177.5320  139.3300 O   0  0  0  0  0  0  0  0  0  0  0  0
  189.3460  177.3780  143.7170 C   0  0  0  0  0  0  0  0  0  0  0  0
  185.2680  178.2530  143.4070 C   0  0  0  0  0  0  0  0  0  0  0  0
  187.4830  178.0230  138.1370 C   0  0  2  0  0  3  0  0  0  0  0  0
  183.7540  177.2760  140.1790 C   0  0  0  0  0  2  0  0  0  0  0  0
  187.1590  177.9760  144.9060 C   0  0  0  0  0  0  0  0  0  0  0  0
  185.0520  178.3470  142.0720 N   0  0  0  0  0  0  0  0  0  0  0  0
  185.3050  177.6820  136.8410 C   0  0  0  0  0  0  0  0  0  0  0  0
  186.5900  178.0290  143.6500 C   0  0  0  0  0  0  0  0  0  0  0  0
  183.7890  178.1970  141.3750 C   0  0  0  0  0  0  0  0  0  0  0  0
  186.3100  178.1870  146.0020 C   0  0  0  0  0  3  0  0  0  0  0  0
  186.4230  178.6240  137.1960 C   0  0  0  0  0  2  0  0  0  0  0  0
  187.2610  178.0180  142.4810 C   0  0  0  0  0  0  0  0  0  0  0  0
  189.2230  175.8660  143.6330 C   0  0  0  0  0  1  0  0  0  0  0  0
  183.0920  179.1370  144.3080 C   0  0  0  0  0  3  0  0  0  0  0  0
  184.9420  178.4700  145.7810 C   0  0  0  0  0  3  0  0  0  0  0  0
  188.7600  178.0130  142.4280 C   0  0  0  0  0  2  0  0  0  0  0  0
  184.4920  177.0050  137.9010 C   0  0  1  0  0  3  0  0  0  0  0  0
  183.9650  177.9980  138.8650 C   0  0  1  0  0  3  0  0  0  0  0  0
  184.4060  178.5270  144.4730 C   0  0  0  0  0  0  0  0  0  0  0  0
  186.3020  178.2590  141.5090 C   0  0  0  0  0  0  0  0  0  0  0  0
  188.6600  177.8770  145.0220 C   0  0  0  0  0  2  0  0  0  0  0  0
  182.6020  178.6540  141.8570 C   0  0  0  0  0  0  0  0  0  0  0  0
  190.8180  177.7240  143.7900 C   0  0  0  0  0  1  0  0  0  0  0  0
  183.1550  177.4380  137.8590 O   0  0  0  0  0  0  0  0  0  0  0  0
  185.0660  177.4570  135.6660 O   0  0  0  0  0  0  0  0  0  0  0  0
  186.6440  178.6570  140.1110 C   0  0  0  0  0  2  0  0  0  0  0  0
  182.3600  179.2110  143.2020 C   0  0  0  0  0  3  0  0  0  0  0  0
  180.4960  177.4830  141.1980 C   0  0  0  0  0  3  0  0  0  0  0  0
  181.3740  178.5660  141.0370 C   0  0  0  0  0  0  0  0  0  0  0  0
  181.0530  179.5820  140.1250 C   0  0  0  0  0  3  0  0  0  0  0  0
  179.5680  180.5350  138.4370 N   0  0  0  0  0  1  0  0  0  0  0  0
  179.0180  178.4180  139.5240 C   0  0  0  0  0  3  0  0  0  0  0  0
  179.8810  179.5050  139.3670 C   0  0  0  0  0  0  0  0  0  0  0  0
  179.3240  177.4090  140.4420 C   0  0  0  0  0  3  0  0  0  0  0  0
  189.6510  176.7990  138.0380 C   0  0  0  0  0  1  0  0  0  0  0  0
  188.2660  176.9270  137.4320 C   0  0  0  0  0  2  0  0  0  0  0  0
  1 27  1  0  0  0  0
  2 24  1  0  0  0  0
  2 22  1  0  0  0  0
  3  9  2  0  0  0  0
  3 20  1  0  0  0  0
  4 37  1  6  0  0  0
  4  1  1  0  0  0  0
  5 10  1  0  0  0  0
  6 22  1  0  0  0  0
  6 11  2  0  0  0  0
  7  3  1  0  0  0  0
  8 12  1  0  0  0  0
  9  6  1  0  0  0  0
 10 23  2  0  0  0  0
 10  7  1  0  0  0  0
 12  4  1  0  0  0  0
 13  9  1  0  0  0  0
 14  2  1  0  0  0  0
 15 20  1  0  0  0  0
 16 11  1  0  0  0  0
 17 13  1  0  0  0  0
 17  2  1  0  0  0  0
 18  8  1  6  0  0  0
 18 19  1  0  0  0  0
 19  5  1  1  0  0  0
 20 16  2  0  0  0  0
 21  7  1  0  0  0  0
 21 13  2  0  0  0  0
 23 28  1  0  0  0  0
 25 18  1  0  0  0  0
 25 19  1  0  0  0  0
 26  8  2  0  0  0  0
 27 21  1  0  0  0  0
 28 15  2  0  0  0  0
 30 29  1  0  0  0  0
 30 23  1  0  0  0  0
 31 30  2  0  0  0  0
 32 34  1  0  0  0  0
 33 35  1  0  0  0  0
 34 33  2  0  0  0  0
 34 31  1  0  0  0  0
 35 29  2  0  0  0  0
 37 36  1  0  0  0  0
M  END
>  <MODEL>
6

>  <REMARK>
 VINA RESULT:     -10.8      2.883      8.345
  Name = 
  2 active torsions:
  status: ('A' for Active; 'I' for Inactive)
    1  A    between atoms: C_4  and  C_37
    2  A    between atoms: C_23  and  C_30
                            x       y       z     vdW  Elec       q    Type
                         _______ _______ _______ _____ _____    ______ ____

>  <TORSDO>
F 2

$$$$
=
 OpenBabel11122411403D

 37 43  0  0  1  0  0  0  0  0999 V2000
  186.3220  178.3730  138.2130 O   0  0  0  0  0  0  0  0  0  0  0  0
  181.6070  179.4300  139.5430 C   0  0  0  0  0  0  0  0  0  0  0  0
  184.6030  178.5470  142.3240 C   0  0  0  0  0  0  0  0  0  0  0  0
  186.6760  177.6360  137.0690 C   0  0  2  0  0  3  0  0  0  0  0  0
  188.0380  178.8330  140.9870 C   0  0  0  0  0  2  0  0  0  0  0  0
  182.2650  179.1170  141.9970 C   0  0  0  0  0  0  0  0  0  0  0  0
  185.6610  178.1750  141.5620 N   0  0  0  0  0  0  0  0  0  0  0  0
  189.1670  177.7150  137.6420 C   0  0  0  0  0  0  0  0  0  0  0  0
  183.5250  178.8050  141.5310 C   0  0  0  0  0  0  0  0  0  0  0  0
  187.0610  178.1860  141.9390 C   0  0  0  0  0  0  0  0  0  0  0  0
  182.0870  179.1520  143.3880 C   0  0  0  0  0  3  0  0  0  0  0  0
  187.9920  176.8590  137.2530 C   0  0  0  0  0  2  0  0  0  0  0  0
  183.8510  178.5630  140.2450 C   0  0  0  0  0  0  0  0  0  0  0  0
  181.9670  180.8910  139.3330 C   0  0  0  0  0  1  0  0  0  0  0  0
  185.4100  177.8940  144.6150 C   0  0  0  0  0  3  0  0  0  0  0  0
  183.1750  178.8410  144.2380 C   0  0  0  0  0  3  0  0  0  0  0  0
  182.8200  178.5420  139.1570 C   0  0  0  0  0  2  0  0  0  0  0  0
  189.1140  178.6090  138.8420 C   0  0  1  0  0  3  0  0  0  0  0  0
  188.6870  177.8470  140.0380 C   0  0  1  0  0  3  0  0  0  0  0  0
  184.4460  178.5130  143.7130 C   0  0  0  0  0  0  0  0  0  0  0  0
  185.1680  178.1300  140.2800 C   0  0  0  0  0  0  0  0  0  0  0  0
  181.1290  179.2240  141.0090 C   0  0  0  0  0  2  0  0  0  0  0  0
  187.5110  177.8510  143.1780 C   0  0  0  0  0  0  0  0  0  0  0  0
  180.4580  179.0930  138.6160 C   0  0  0  0  0  1  0  0  0  0  0  0
  190.0350  178.1890  139.8190 O   0  0  0  0  0  0  0  0  0  0  0  0
  190.1760  177.6880  136.9560 O   0  0  0  0  0  0  0  0  0  0  0  0
  185.8280  177.4410  139.1300 C   0  0  0  0  0  2  0  0  0  0  0  0
  186.6810  177.5950  144.3710 C   0  0  0  0  0  3  0  0  0  0  0  0
  189.6990  178.9490  143.6790 C   0  0  0  0  0  3  0  0  0  0  0  0
  188.9620  177.7750  143.4560 C   0  0  0  0  0  0  0  0  0  0  0  0
  189.6060  176.5330  143.5410 C   0  0  0  0  0  3  0  0  0  0  0  0
  191.6200  175.2000  143.8980 N   0  0  0  0  0  1  0  0  0  0  0  0
  191.7030  177.6370  144.0330 C   0  0  0  0  0  3  0  0  0  0  0  0
  190.9730  176.4640  143.8230 C   0  0  0  0  0  0  0  0  0  0  0  0
  191.0650  178.8790  143.9630 C   0  0  0  0  0  3  0  0  0  0  0  0
  186.9400  177.7320  134.5940 C   0  0  0  0  0  1  0  0  0  0  0  0
  186.7570  178.5500  135.8570 C   0  0  0  0  0  2  0  0  0  0  0  0
  1 27  1  0  0  0  0
  2 22  1  0  0  0  0
  3 20  1  0  0  0  0
  4 37  1  6  0  0  0
  4 12  1  0  0  0  0
  4  1  1  0  0  0  0
  5 10  1  0  0  0  0
  6 11  2  0  0  0  0
  7 10  1  0  0  0  0
  7  3  1  0  0  0  0
  9  6  1  0  0  0  0
  9  3  2  0  0  0  0
 10 23  2  0  0  0  0
 11 16  1  0  0  0  0
 12  8  1  0  0  0  0
 13 21  2  0  0  0  0
 13  9  1  0  0  0  0
 14  2  1  0  0  0  0
 17  2  1  0  0  0  0
 17 13  1  0  0  0  0
 18  8  1  6  0  0  0
 18 25  1  0  0  0  0
 18 19  1  0  0  0  0
 19  5  1  1  0  0  0
 20 16  2  0  0  0  0
 20 15  1  0  0  0  0
 21  7  1  0  0  0  0
 22  6  1  0  0  0  0
 23 30  1  0  0  0  0
 23 28  1  0  0  0  0
 24  2  1  0  0  0  0
 25 19  1  0  0  0  0
 26  8  2  0  0  0  0
 27 21  1  0  0  0  0
 28 15  2  0  0  0  0
 29 35  1  0  0  0  0
 30 31  1  0  0  0  0
 30 29  2  0  0  0  0
 31 34  2  0  0  0  0
 34 32  1  0  0  0  0
 34 33  1  0  0  0  0
 35 33  2  0  0  0  0
 36 37  1  0  0  0  0
M  END
>  <MODEL>
7

>  <REMARK>
 VINA RESULT:     -10.2      2.663      6.181
  Name = 
  2 active torsions:
  status: ('A' for Active; 'I' for Inactive)
    1  A    between atoms: C_4  and  C_37
    2  A    between atoms: C_23  and  C_30
                            x       y       z     vdW  Elec       q    Type
                         _______ _______ _______ _____ _____    ______ ____

>  <TORSDO>
F 2

$$$$
=
 OpenBabel11122411403D

 37 43  0  0  1  0  0  0  0  0999 V2000
  185.6090  178.7850  138.7150 O   0  0  0  0  0  0  0  0  0  0  0  0
  180.8900  180.0020  137.5450 C   0  0  0  0  0  0  0  0  0  0  0  0
  182.1200  179.1990  141.4610 C   0  0  0  0  0  0  0  0  0  0  0  0
  186.4420  177.9850  137.9140 C   0  0  2  0  0  3  0  0  0  0  0  0
  185.7810  179.3480  141.9560 C   0  0  0  0  0  2  0  0  0  0  0  0
  180.2600  179.8000  140.0180 C   0  0  0  0  0  0  0  0  0  0  0  0
  183.3970  178.7680  141.3230 N   0  0  0  0  0  0  0  0  0  0  0  0
  188.3430  178.0420  139.6230 C   0  0  0  0  0  0  0  0  0  0  0  0
  181.5740  179.4390  140.2350 C   0  0  0  0  0  0  0  0  0  0  0  0
  184.4380  178.7690  142.3330 C   0  0  0  0  0  0  0  0  0  0  0  0
  179.4320  179.9070  141.1450 C   0  0  0  0  0  3  0  0  0  0  0  0
  187.4690  177.1910  138.7410 C   0  0  0  0  0  2  0  0  0  0  0  0
  182.4730  179.1260  139.2800 C   0  0  0  0  0  0  0  0  0  0  0  0
  181.3680  181.4440  137.4880 C   0  0  0  0  0  1  0  0  0  0  0  0
  181.6860  178.6450  143.8760 C   0  0  0  0  0  3  0  0  0  0  0  0
  179.9550  179.6170  142.4270 C   0  0  0  0  0  3  0  0  0  0  0  0
  182.0990  179.0720  137.8290 C   0  0  0  0  0  2  0  0  0  0  0  0
  187.7520  178.9950  140.6160 C   0  0  1  0  0  3  0  0  0  0  0  0
  186.7660  178.3030  141.4780 C   0  0  1  0  0  3  0  0  0  0  0  0
  181.3070  179.2380  142.5980 C   0  0  0  0  0  0  0  0  0  0  0  0
  183.5870  178.6690  139.9660 C   0  0  0  0  0  0  0  0  0  0  0  0
  179.7520  179.8800  138.6000 C   0  0  0  0  0  2  0  0  0  0  0  0
  184.2160  178.4880  143.6450 C   0  0  0  0  0  0  0  0  0  0  0  0
  180.3220  179.6440  136.1890 C   0  0  0  0  0  1  0  0  0  0  0  0
  188.0650  178.6060  141.9310 O   0  0  0  0  0  0  0  0  0  0  0  0
  189.5550  177.9600  139.5170 O   0  0  0  0  0  0  0  0  0  0  0  0
  184.6930  177.9110  139.3070 C   0  0  0  0  0  2  0  0  0  0  0  0
  182.9010  178.3080  144.2910 C   0  0  0  0  0  3  0  0  0  0  0  0
  185.2900  179.0770  145.8230 C   0  0  0  0  0  3  0  0  0  0  0  0
  185.3450  178.3970  144.5970 C   0  0  0  0  0  0  0  0  0  0  0  0
  186.4600  177.5980  144.3030 C   0  0  0  0  0  3  0  0  0  0  0  0
  188.6470  176.6940  144.9030 N   0  0  0  0  0  1  0  0  0  0  0  0
  187.4590  178.1880  146.4270 C   0  0  0  0  0  3  0  0  0  0  0  0
  187.5150  177.4980  145.2130 C   0  0  0  0  0  0  0  0  0  0  0  0
  186.3450  178.9750  146.7330 C   0  0  0  0  0  3  0  0  0  0  0  0
  187.1250  178.1290  135.5220 C   0  0  0  0  0  1  0  0  0  0  0  0
  187.1390  178.8360  136.8650 C   0  0  0  0  0  2  0  0  0  0  0  0
  1 27  1  0  0  0  0
  2 17  1  0  0  0  0
  2 22  1  0  0  0  0
  3 20  1  0  0  0  0
  4 37  1  6  0  0  0
  4  1  1  0  0  0  0
  4 12  1  0  0  0  0
  5 10  1  0  0  0  0
  6  9  1  0  0  0  0
  6 11  2  0  0  0  0
  7  3  1  0  0  0  0
  7 10  1  0  0  0  0
  9  3  2  0  0  0  0
 10 23  2  0  0  0  0
 11 16  1  0  0  0  0
 12  8  1  0  0  0  0
 13 21  2  0  0  0  0
 13  9  1  0  0  0  0
 14  2  1  0  0  0  0
 15 28  2  0  0  0  0
 16 20  2  0  0  0  0
 17 13  1  0  0  0  0
 18  8  1  6  0  0  0
 18 19  1  0  0  0  0
 18 25  1  0  0  0  0
 19 25  1  0  0  0  0
 19  5  1  1  0  0  0
 20 15  1  0  0  0  0
 21  7  1  0  0  0  0
 22  6  1  0  0  0  0
 23 28  1  0  0  0  0
 23 30  1  0  0  0  0
 24  2  1  0  0  0  0
 26  8  2  0  0  0  0
 27 21  1  0  0  0  0
 29 35  1  0  0  0  0
 30 29  2  0  0  0  0
 31 30  1  0  0  0  0
 31 34  2  0  0  0  0
 32 34  1  0  0  0  0
 33 35  2  0  0  0  0
 34 33  1  0  0  0  0
 36 37  1  0  0  0  0
M  END
>  <MODEL>
8

>  <REMARK>
 VINA RESULT:      -9.9      2.811      6.868
  Name = 
  2 active torsions:
  status: ('A' for Active; 'I' for Inactive)
    1  A    between atoms: C_4  and  C_37
    2  A    between atoms: C_23  and  C_30
                            x       y       z     vdW  Elec       q    Type
                         _______ _______ _______ _____ _____    ______ ____

>  <TORSDO>
F 2

$$$$
=
 OpenBabel11122411403D

 37 43  0  0  1  0  0  0  0  0999 V2000
  185.7450  178.7840  139.8790 O   0  0  0  0  0  0  0  0  0  0  0  0
  184.4010  179.0860  144.6980 C   0  0  0  0  0  0  0  0  0  0  0  0
  188.1180  177.6140  143.4700 C   0  0  0  0  0  0  0  0  0  0  0  0
  184.8690  178.4450  138.8330 C   0  0  2  0  0  3  0  0  0  0  0  0
  189.0250  178.5080  139.9990 C   0  0  0  0  0  2  0  0  0  0  0  0
  186.6700  178.1020  145.3580 C   0  0  0  0  0  0  0  0  0  0  0  0
  188.0180  177.5550  142.1190 N   0  0  0  0  0  0  0  0  0  0  0  0
  186.7370  178.5130  137.0880 C   0  0  0  0  0  0  0  0  0  0  0  0
  186.9340  178.0250  144.0060 C   0  0  0  0  0  0  0  0  0  0  0  0
  189.1050  177.5450  141.1590 C   0  0  0  0  0  0  0  0  0  0  0  0
  187.6930  177.7090  146.2330 C   0  0  0  0  0  3  0  0  0  0  0  0
  185.5870  177.7360  137.6710 C   0  0  0  0  0  2  0  0  0  0  0  0
  186.0340  178.1980  143.0170 C   0  0  0  0  0  0  0  0  0  0  0  0
  184.7430  180.5640  144.6120 C   0  0  0  0  0  1  0  0  0  0  0  0
  190.2670  176.3630  143.8470 C   0  0  0  0  0  3  0  0  0  0  0  0
  188.9160  177.2310  145.7070 C   0  0  0  0  0  3  0  0  0  0  0  0
  184.5810  178.4350  143.3010 C   0  0  0  0  0  2  0  0  0  0  0  0
  187.8590  179.0030  137.9490 C   0  0  1  0  0  3  0  0  0  0  0  0
  188.4180  177.8940  138.7550 C   0  0  1  0  0  3  0  0  0  0  0  0
  189.1360  177.1580  144.3120 C   0  0  0  0  0  0  0  0  0  0  0  0
  186.7060  177.8620  141.8520 C   0  0  0  0  0  0  0  0  0  0  0  0
  185.2660  178.4230  145.8090 C   0  0  0  0  0  2  0  0  0  0  0  0
  190.2790  176.8870  141.3560 C   0  0  0  0  0  0  0  0  0  0  0  0
  182.9450  178.9670  145.0940 C   0  0  0  0  0  1  0  0  0  0  0  0
  189.0680  178.3730  137.6020 O   0  0  0  0  0  0  0  0  0  0  0  0
  186.7450  178.7570  135.8920 O   0  0  0  0  0  0  0  0  0  0  0  0
  186.0070  177.5910  140.5600 C   0  0  0  0  0  2  0  0  0  0  0  0
  190.7180  176.2340  142.6040 C   0  0  0  0  0  3  0  0  0  0  0  0
  192.5180  177.5030  140.4320 C   0  0  0  0  0  3  0  0  0  0  0  0
  191.2970  176.8270  140.2830 C   0  0  0  0  0  0  0  0  0  0  0  0
  191.0700  176.0630  139.1300 C   0  0  0  0  0  3  0  0  0  0  0  0
  191.8000  175.2220  136.9570 N   0  0  0  0  0  1  0  0  0  0  0  0
  193.2500  176.6770  138.2770 C   0  0  0  0  0  3  0  0  0  0  0  0
  192.0420  175.9920  138.1280 C   0  0  0  0  0  0  0  0  0  0  0  0
  193.4890  177.4300  139.4300 C   0  0  0  0  0  3  0  0  0  0  0  0
  182.7770  179.7880  139.0030 C   0  0  0  0  0  1  0  0  0  0  0  0
  184.1370  179.6820  138.3380 C   0  0  0  0  0  2  0  0  0  0  0  0
  1 27  1  0  0  0  0
  2 24  1  0  0  0  0
  2 22  1  0  0  0  0
  3  9  2  0  0  0  0
  3 20  1  0  0  0  0
  4 37  1  6  0  0  0
  4  1  1  0  0  0  0
  5 10  1  0  0  0  0
  6 22  1  0  0  0  0
  6 11  2  0  0  0  0
  7  3  1  0  0  0  0
  8 12  1  0  0  0  0
  9  6  1  0  0  0  0
 10 23  2  0  0  0  0
 10  7  1  0  0  0  0
 12  4  1  0  0  0  0
 13 17  1  0  0  0  0
 13  9  1  0  0  0  0
 14  2  1  0  0  0  0
 15 20  1  0  0  0  0
 16 11  1  0  0  0  0
 17  2  1  0  0  0  0
 18  8  1  6  0  0  0
 18 19  1  0  0  0  0
 19  5  1  1  0  0  0
 20 16  2  0  0  0  0
 21  7  1  0  0  0  0
 21 13  2  0  0  0  0
 23 28  1  0  0  0  0
 25 18  1  0  0  0  0
 25 19  1  0  0  0  0
 26  8  2  0  0  0  0
 27 21  1  0  0  0  0
 28 15  2  0  0  0  0
 30 29  1  0  0  0  0
 30 23  1  0  0  0  0
 31 30  2  0  0  0  0
 32 34  1  0  0  0  0
 33 35  1  0  0  0  0
 34 33  2  0  0  0  0
 34 31  1  0  0  0  0
 35 29  2  0  0  0  0
 37 36  1  0  0  0  0
M  END
>  <MODEL>
9

>  <REMARK>
 VINA RESULT:      -9.5      2.270      6.501
  Name = 
  2 active torsions:
  status: ('A' for Active; 'I' for Inactive)
    1  A    between atoms: C_4  and  C_37
    2  A    between atoms: C_23  and  C_30
                            x       y       z     vdW  Elec       q    Type
                         _______ _______ _______ _____ _____    ______ ____

>  <TORSDO>
F 2

$$$$
