=
 OpenBabel11122410353D

 32 37  0  0  1  0  0  0  0  0999 V2000
  186.2660  178.2050  142.9310 C   0  0  0  0  0  0  0  0  0  0  0  0
  189.3540  177.4430  139.2630 C   0  0  0  0  0  3  0  0  0  0  0  0
  190.4840  177.3480  140.2080 C   0  0  0  0  0  3  0  0  0  0  0  0
  187.0190  177.8690  145.3010 C   0  0  0  0  0  0  0  0  0  0  0  0
  188.1560  177.4540  146.1140 C   0  0  0  0  0  0  0  0  0  0  0  0
  184.0680  179.0490  142.4570 O   0  0  0  0  0  0  0  0  0  0  0  0
  185.4870  178.6390  140.5840 C   0  0  0  0  0  2  0  0  0  0  0  0
  190.2840  176.8120  146.6180 C   0  0  0  0  0  0  0  0  0  0  0  0
  188.1590  177.8950  139.6610 C   0  0  0  0  0  3  0  0  0  0  0  0
  186.5600  178.2720  141.5160 N   0  0  0  0  0  0  0  0  0  0  0  0
  187.9470  178.4280  141.0600 C   0  0  1  0  0  3  0  0  0  0  0  0
  188.6600  177.7360  143.3360 C   0  0  0  0  0  0  0  0  0  0  0  0
  189.6150  176.8430  147.7290 N   0  0  0  0  0  0  0  0  0  0  0  0
  184.1140  178.4040  141.2120 C   0  0  2  0  0  3  0  0  0  0  0  0
  188.2680  177.2490  147.4210 C   0  0  0  0  0  2  0  0  0  0  0  0
  190.2980  177.5280  141.5180 C   0  0  0  0  0  3  0  0  0  0  0  0
  188.9530  177.8590  142.0340 C   0  0  0  0  0  0  0  0  0  0  0  0
  189.6900  177.3150  144.2600 N   0  0  0  0  0  2  0  0  0  0  0  0
  184.8140  178.2490  143.3410 C   0  0  0  0  0  2  0  0  0  0  0  0
  185.9120  178.1350  145.8420 O   0  0  0  0  0  0  0  0  0  0  0  0
  191.7220  176.4410  146.5300 C   0  0  0  0  0  1  0  0  0  0  0  0
  187.2550  177.9760  143.8260 C   0  0  0  0  0  0  0  0  0  0  0  0
  189.4260  177.1910  145.5230 C   0  0  0  0  0  0  0  0  0  0  0  0
  182.1910  177.9130  139.5600 C   0  0  2  0  0  3  0  0  0  0  0  0
  183.0290  178.9650  140.2980 C   0  0  1  0  0  3  0  0  0  0  0  0
  181.6630  178.5690  140.8210 C   0  0  1  0  0  3  0  0  0  0  0  0
  182.5580  176.4650  139.8590 C   0  0  0  0  0  2  0  0  0  0  0  0
  183.0500  175.7940  138.5930 C   0  0  0  0  0  1  0  0  0  0  0  0
  180.7180  179.5700  140.4700 O   0  0  0  0  0  0  0  0  0  0  0  0
  180.0600  180.3440  141.4290 C   0  0  0  0  0  0  0  0  0  0  0  0
  178.9370  181.2550  141.0590 C   0  0  0  0  0  1  0  0  0  0  0  0
  180.4200  180.2730  142.6320 O   0  0  0  0  0  0  0  0  0  0  0  0
  1 19  1  0  0  0  0
  1 22  2  0  0  0  0
  2  9  2  0  0  0  0
  2  3  1  0  0  0  0
  3 16  2  0  0  0  0
  4 20  2  0  0  0  0
  4  5  1  0  0  0  0
  5 15  1  0  0  0  0
  6 19  1  0  0  0  0
  7 10  1  0  0  0  0
  8 13  2  0  0  0  0
 10  1  1  0  0  0  0
 11  9  1  6  0  0  0
 11 10  1  0  0  0  0
 11 17  1  0  0  0  0
 12 22  1  0  0  0  0
 12 18  1  0  0  0  0
 14  7  1  6  0  0  0
 14  6  1  0  0  0  0
 15 13  1  0  0  0  0
 16 17  1  0  0  0  0
 17 12  2  0  0  0  0
 18 23  1  0  0  0  0
 21  8  1  0  0  0  0
 22  4  1  0  0  0  0
 23  5  2  0  0  0  0
 23  8  1  0  0  0  0
 24 27  1  1  0  0  0
 24 25  1  0  0  0  0
 24 26  1  0  0  0  0
 25 26  1  0  0  0  0
 25 14  1  1  0  0  0
 26 29  1  6  0  0  0
 28 27  1  0  0  0  0
 29 30  1  0  0  0  0
 30 32  2  0  0  0  0
 31 30  1  0  0  0  0
M  END
>  <MODEL>
1

>  <REMARK>
 VINA RESULT:      -9.4      0.000      0.000
  Name = 
  4 active torsions:
  status: ('A' for Active; 'I' for Inactive)
    1  A    between atoms: C_1  and  C_16
    2  A    between atoms: C_10  and  C_17
    3  A    between atoms: C_20  and  O_29
    4  A    between atoms: O_29  and  C_30
                            x       y       z     vdW  Elec       q    Type
                         _______ _______ _______ _____ _____    ______ ____

>  <TORSDO>
F 4

$$$$
=
 OpenBabel11122410353D

 32 37  0  0  1  0  0  0  0  0999 V2000
  186.5310  178.2460  142.4200 C   0  0  0  0  0  0  0  0  0  0  0  0
  190.2810  177.2890  139.4900 C   0  0  0  0  0  3  0  0  0  0  0  0
  191.1930  177.2140  140.6480 C   0  0  0  0  0  3  0  0  0  0  0  0
  186.7780  177.9940  144.9050 C   0  0  0  0  0  0  0  0  0  0  0  0
  187.7160  177.5950  145.9470 C   0  0  0  0  0  0  0  0  0  0  0  0
  184.4960  179.1040  141.4770 O   0  0  0  0  0  0  0  0  0  0  0  0
  186.2550  178.5960  139.9490 C   0  0  0  0  0  2  0  0  0  0  0  0
  189.6820  176.9420  146.8980 C   0  0  0  0  0  0  0  0  0  0  0  0
  189.0420  177.7740  139.6190 C   0  0  0  0  0  3  0  0  0  0  0  0
  187.1080  178.2520  141.0940 N   0  0  0  0  0  0  0  0  0  0  0  0
  188.5610  178.3670  140.9240 C   0  0  1  0  0  3  0  0  0  0  0  0
  188.7810  177.7570  143.3220 C   0  0  0  0  0  0  0  0  0  0  0  0
  188.8020  177.0280  147.8470 N   0  0  0  0  0  0  0  0  0  0  0  0
  184.7790  178.4090  140.2920 C   0  0  2  0  0  3  0  0  0  0  0  0
  187.5550  177.4420  147.2560 C   0  0  0  0  0  2  0  0  0  0  0  0
  190.7490  177.4500  141.8850 C   0  0  0  0  0  3  0  0  0  0  0  0
  189.3360  177.8220  142.1040 C   0  0  0  0  0  0  0  0  0  0  0  0
  189.5920  177.3570  144.4520 N   0  0  0  0  0  2  0  0  0  0  0  0
  185.0270  178.3290  142.5230 C   0  0  0  0  0  2  0  0  0  0  0  0
  185.5910  178.2990  145.1980 O   0  0  0  0  0  0  0  0  0  0  0  0
  191.0980  176.5450  147.1190 C   0  0  0  0  0  1  0  0  0  0  0  0
  187.3110  178.0380  143.5060 C   0  0  0  0  0  0  0  0  0  0  0  0
  189.0740  177.2890  145.6380 C   0  0  0  0  0  0  0  0  0  0  0  0
  182.7670  178.0310  138.7170 C   0  0  2  0  0  3  0  0  0  0  0  0
  183.9150  178.9480  139.1560 C   0  0  1  0  0  3  0  0  0  0  0  0
  182.5050  179.1930  139.6550 C   0  0  1  0  0  3  0  0  0  0  0  0
  182.6520  176.7220  139.4890 C   0  0  0  0  0  2  0  0  0  0  0  0
  181.1940  176.4320  139.7820 C   0  0  0  0  0  1  0  0  0  0  0  0
  181.9290  180.2660  138.9240 O   0  0  0  0  0  0  0  0  0  0  0  0
  180.6950  180.1530  138.2790 C   0  0  0  0  0  0  0  0  0  0  0  0
  180.5230  180.5390  136.8480 C   0  0  0  0  0  1  0  0  0  0  0  0
  179.7040  179.7150  138.9180 O   0  0  0  0  0  0  0  0  0  0  0  0
  1 19  1  0  0  0  0
  1 22  2  0  0  0  0
  2  9  2  0  0  0  0
  2  3  1  0  0  0  0
  3 16  2  0  0  0  0
  4 20  2  0  0  0  0
  4  5  1  0  0  0  0
  5 15  1  0  0  0  0
  6 19  1  0  0  0  0
  7 10  1  0  0  0  0
  8 21  1  0  0  0  0
  8 13  2  0  0  0  0
 10  1  1  0  0  0  0
 11  9  1  6  0  0  0
 11 10  1  0  0  0  0
 11 17  1  0  0  0  0
 12 22  1  0  0  0  0
 12 18  1  0  0  0  0
 14  7  1  6  0  0  0
 14  6  1  0  0  0  0
 15 13  1  0  0  0  0
 16 17  1  0  0  0  0
 17 12  2  0  0  0  0
 18 23  1  0  0  0  0
 22  4  1  0  0  0  0
 23  5  2  0  0  0  0
 23  8  1  0  0  0  0
 24 25  1  0  0  0  0
 24 27  1  1  0  0  0
 24 26  1  0  0  0  0
 25 26  1  0  0  0  0
 25 14  1  1  0  0  0
 26 29  1  6  0  0  0
 27 28  1  0  0  0  0
 30 32  2  0  0  0  0
 30 29  1  0  0  0  0
 31 30  1  0  0  0  0
M  END
>  <MODEL>
2

>  <REMARK>
 VINA RESULT:      -8.9      1.344      1.513
  Name = 
  4 active torsions:
  status: ('A' for Active; 'I' for Inactive)
    1  A    between atoms: C_1  and  C_16
    2  A    between atoms: C_10  and  C_17
    3  A    between atoms: C_20  and  O_29
    4  A    between atoms: O_29  and  C_30
                            x       y       z     vdW  Elec       q    Type
                         _______ _______ _______ _____ _____    ______ ____

>  <TORSDO>
F 4

$$$$
=
 OpenBabel11122410353D

 32 37  0  0  1  0  0  0  0  0999 V2000
  187.8880  177.7340  141.8190 C   0  0  0  0  0  0  0  0  0  0  0  0
  183.8290  179.4330  143.8690 C   0  0  0  0  0  3  0  0  0  0  0  0
  184.3290  179.0700  145.2090 C   0  0  0  0  0  3  0  0  0  0  0  0
  189.8600  177.1240  143.2450 C   0  0  0  0  0  0  0  0  0  0  0  0
  190.3380  177.1030  144.6230 C   0  0  0  0  0  0  0  0  0  0  0  0
  187.9290  177.3440  139.4490 O   0  0  0  0  0  0  0  0  0  0  0  0
  185.9160  178.2480  140.3520 C   0  0  0  0  0  2  0  0  0  0  0  0
  190.2840  177.3020  146.8930 C   0  0  0  0  0  0  0  0  0  0  0  0
  184.4390  178.9950  142.7630 C   0  0  0  0  0  3  0  0  0  0  0  0
  186.5070  178.1460  141.6920 N   0  0  0  0  0  0  0  0  0  0  0  0
  185.5950  178.0220  142.8350 C   0  0  1  0  0  3  0  0  0  0  0  0
  187.6050  177.7800  144.2740 C   0  0  0  0  0  0  0  0  0  0  0  0
  191.4870  176.9450  146.5630 N   0  0  0  0  0  0  0  0  0  0  0  0
  187.0000  178.3820  139.2850 C   0  0  2  0  0  3  0  0  0  0  0  0
  191.5320  176.8160  145.1290 C   0  0  0  0  0  3  0  0  0  0  0  0
  185.5060  178.4540  145.3560 C   0  0  0  0  0  3  0  0  0  0  0  0
  186.3080  178.1010  144.1670 C   0  0  0  0  0  0  0  0  0  0  0  0
  188.2200  177.7370  145.5830 N   0  0  0  0  0  0  0  0  0  0  0  0
  188.7180  177.6960  140.5580 C   0  0  0  0  0  2  0  0  0  0  0  0
  190.6260  176.7980  142.3000 O   0  0  0  0  0  0  0  0  0  0  0  0
  189.8460  177.5310  148.2950 C   0  0  0  0  0  1  0  0  0  0  0  0
  188.4320  177.5260  143.0400 C   0  0  0  0  0  0  0  0  0  0  0  0
  189.4720  177.4280  145.7080 C   0  0  0  0  0  0  0  0  0  0  0  0
  187.3070  178.6440  136.7340 C   0  0  2  0  0  3  0  0  0  0  0  0
  186.3700  178.2990  137.8990 C   0  0  1  0  0  3  0  0  0  0  0  0
  187.0340  177.1970  137.0970 C   0  0  1  0  0  3  0  0  0  0  0  0
  188.7320  179.0060  137.1340 C   0  0  0  0  0  2  0  0  0  0  0  0
  189.6920  177.9720  136.5860 C   0  0  0  0  0  1  0  0  0  0  0  0
  186.0960  176.6510  136.1820 O   0  0  0  0  0  0  0  0  0  0  0  0
  184.9990  175.8940  136.6000 C   0  0  0  0  0  0  0  0  0  0  0  0
  183.5980  176.3360  136.3350 C   0  0  0  0  0  1  0  0  0  0  0  0
  185.1930  174.8130  137.2130 O   0  0  0  0  0  0  0  0  0  0  0  0
  1 22  2  0  0  0  0
  2  3  1  0  0  0  0
  3 16  2  0  0  0  0
  4  5  1  0  0  0  0
  5 15  2  0  0  0  0
  5 23  1  0  0  0  0
  6 19  1  0  0  0  0
  7 10  1  0  0  0  0
  8 21  1  0  0  0  0
  9  2  2  0  0  0  0
 10  1  1  0  0  0  0
 10 11  1  0  0  0  0
 11  9  1  1  0  0  0
 11 17  1  0  0  0  0
 12 18  1  0  0  0  0
 13  8  2  0  0  0  0
 14  6  1  0  0  0  0
 14  7  1  1  0  0  0
 15 13  1  0  0  0  0
 17 12  2  0  0  0  0
 17 16  1  0  0  0  0
 18 23  2  0  0  0  0
 19  1  1  0  0  0  0
 20  4  2  0  0  0  0
 22  4  1  0  0  0  0
 22 12  1  0  0  0  0
 23  8  1  0  0  0  0
 24 26  1  0  0  0  0
 24 27  1  1  0  0  0
 24 25  1  0  0  0  0
 25 14  1  1  0  0  0
 26 29  1  6  0  0  0
 26 25  1  0  0  0  0
 28 27  1  0  0  0  0
 29 30  1  0  0  0  0
 30 32  2  0  0  0  0
 31 30  1  0  0  0  0
M  END
>  <MODEL>
3

>  <REMARK>
 VINA RESULT:      -8.5      3.246      5.127
  Name = 
  4 active torsions:
  status: ('A' for Active; 'I' for Inactive)
    1  A    between atoms: C_1  and  C_16
    2  A    between atoms: C_10  and  C_17
    3  A    between atoms: C_20  and  O_29
    4  A    between atoms: O_29  and  C_30
                            x       y       z     vdW  Elec       q    Type
                         _______ _______ _______ _____ _____    ______ ____

>  <TORSDO>
F 4

$$$$
=
 OpenBabel11122410353D

 32 37  0  0  1  0  0  0  0  0999 V2000
  189.4960  177.6090  140.4520 C   0  0  0  0  0  0  0  0  0  0  0  0
  191.2240  176.5840  144.8710 C   0  0  0  0  0  3  0  0  0  0  0  0
  190.0150  177.1510  145.4980 C   0  0  0  0  0  3  0  0  0  0  0  0
  187.1110  178.3360  140.1700 C   0  0  0  0  0  0  0  0  0  0  0  0
  185.8720  178.5760  140.9010 C   0  0  0  0  0  0  0  0  0  0  0  0
  190.9860  177.5580  138.5690 O   0  0  0  0  0  0  0  0  0  0  0  0
  191.9120  176.9690  140.6870 C   0  0  0  0  0  2  0  0  0  0  0  0
  184.4670  178.7970  142.6820 C   0  0  0  0  0  0  0  0  0  0  0  0
  191.4810  176.7720  143.5720 C   0  0  0  0  0  3  0  0  0  0  0  0
  190.6160  177.2730  141.3040 N   0  0  0  0  0  0  0  0  0  0  0  0
  190.6050  177.6630  142.7190 C   0  0  1  0  0  3  0  0  0  0  0  0
  188.1600  178.0290  142.4890 C   0  0  0  0  0  0  0  0  0  0  0  0
  183.7690  179.0070  141.6090 N   0  0  0  0  0  0  0  0  0  0  0  0
  191.7400  176.5710  139.2220 C   0  0  2  0  0  3  0  0  0  0  0  0
  184.6490  178.8700  140.4770 C   0  0  0  0  0  3  0  0  0  0  0  0
  189.0530  177.7040  144.7540 C   0  0  0  0  0  3  0  0  0  0  0  0
  189.2080  177.7810  143.2860 C   0  0  0  0  0  0  0  0  0  0  0  0
  186.8600  178.2690  143.0790 N   0  0  0  0  0  0  0  0  0  0  0  0
  189.6530  177.3620  138.9710 C   0  0  0  0  0  2  0  0  0  0  0  0
  187.1380  178.4340  138.9140 O   0  0  0  0  0  0  0  0  0  0  0  0
  183.9040  178.8560  144.0580 C   0  0  0  0  0  1  0  0  0  0  0  0
  188.3170  177.9990  140.9910 C   0  0  0  0  0  0  0  0  0  0  0  0
  185.8340  178.5110  142.3250 C   0  0  0  0  0  0  0  0  0  0  0  0
  193.2950  175.1980  137.6840 C   0  0  2  0  0  3  0  0  0  0  0  0
  193.1080  176.4430  138.5610 C   0  0  1  0  0  3  0  0  0  0  0  0
  192.9620  176.5370  137.0550 C   0  0  1  0  0  3  0  0  0  0  0  0
  192.0810  174.2810  137.5930 C   0  0  0  0  0  2  0  0  0  0  0  0
  192.1570  173.4620  136.3220 C   0  0  0  0  0  1  0  0  0  0  0  0
  194.1420  177.1040  136.5040 O   0  0  0  0  0  0  0  0  0  0  0  0
  194.7360  176.6070  135.3410 C   0  0  0  0  0  0  0  0  0  0  0  0
  196.1330  176.9710  134.9600 C   0  0  0  0  0  1  0  0  0  0  0  0
  194.0810  175.8340  134.5950 O   0  0  0  0  0  0  0  0  0  0  0  0
  1 22  2  0  0  0  0
  1 10  1  0  0  0  0
  2  3  1  0  0  0  0
  4  5  1  0  0  0  0
  4 22  1  0  0  0  0
  5 23  1  0  0  0  0
  6 19  1  0  0  0  0
  6 14  1  0  0  0  0
  7 10  1  0  0  0  0
  8 21  1  0  0  0  0
  9  2  2  0  0  0  0
 10 11  1  0  0  0  0
 11 17  1  0  0  0  0
 11  9  1  1  0  0  0
 12 18  1  0  0  0  0
 12 17  2  0  0  0  0
 13  8  2  0  0  0  0
 14  7  1  1  0  0  0
 15  5  2  0  0  0  0
 15 13  1  0  0  0  0
 16  3  2  0  0  0  0
 17 16  1  0  0  0  0
 19  1  1  0  0  0  0
 20  4  2  0  0  0  0
 22 12  1  0  0  0  0
 23  8  1  0  0  0  0
 23 18  2  0  0  0  0
 24 27  1  1  0  0  0
 24 25  1  0  0  0  0
 25 14  1  1  0  0  0
 26 29  1  6  0  0  0
 26 24  1  0  0  0  0
 26 25  1  0  0  0  0
 28 27  1  0  0  0  0
 30 29  1  0  0  0  0
 31 30  1  0  0  0  0
 32 30  2  0  0  0  0
M  END
>  <MODEL>
4

>  <REMARK>
 VINA RESULT:      -8.5      4.494      8.778
  Name = 
  4 active torsions:
  status: ('A' for Active; 'I' for Inactive)
    1  A    between atoms: C_1  and  C_16
    2  A    between atoms: C_10  and  C_17
    3  A    between atoms: C_20  and  O_29
    4  A    between atoms: O_29  and  C_30
                            x       y       z     vdW  Elec       q    Type
                         _______ _______ _______ _____ _____    ______ ____

>  <TORSDO>
F 4

$$$$
=
 OpenBabel11122410353D

 32 37  0  0  1  0  0  0  0  0999 V2000
  185.7010  178.5290  141.7860 C   0  0  0  0  0  0  0  0  0  0  0  0
  186.7830  177.8050  146.4630 C   0  0  0  0  0  3  0  0  0  0  0  0
  185.4080  178.1670  146.8580 C   0  0  0  0  0  3  0  0  0  0  0  0
  183.3140  178.8540  141.0820 C   0  0  0  0  0  0  0  0  0  0  0  0
  181.9460  178.8870  141.5840 C   0  0  0  0  0  0  0  0  0  0  0  0
  187.4820  178.7220  140.1870 O   0  0  0  0  0  0  0  0  0  0  0  0
  188.1120  178.2950  142.4470 C   0  0  0  0  0  2  0  0  0  0  0  0
  180.2380  178.8760  143.0930 C   0  0  0  0  0  0  0  0  0  0  0  0
  187.2260  178.0330  145.2210 C   0  0  0  0  0  3  0  0  0  0  0  0
  186.6960  178.3830  142.8260 N   0  0  0  0  0  0  0  0  0  0  0  0
  186.3790  178.7660  144.2070 C   0  0  1  0  0  3  0  0  0  0  0  0
  183.9830  178.7250  143.5540 C   0  0  0  0  0  0  0  0  0  0  0  0
  179.7100  178.9680  141.9110 N   0  0  0  0  0  0  0  0  0  0  0  0
  188.2620  177.8730  140.9870 C   0  0  2  0  0  3  0  0  0  0  0  0
  180.7830  178.9760  140.9490 C   0  0  0  0  0  3  0  0  0  0  0  0
  184.5130  178.5530  145.9450 C   0  0  0  0  0  3  0  0  0  0  0  0
  184.9040  178.6540  144.5240 C   0  0  0  0  0  0  0  0  0  0  0  0
  182.5800  178.7490  143.9060 N   0  0  0  0  0  0  0  0  0  0  0  0
  186.1490  178.3100  140.3610 C   0  0  0  0  0  2  0  0  0  0  0  0
  183.5420  178.9530  139.8460 O   0  0  0  0  0  0  0  0  0  0  0  0
  179.4430  178.8430  144.3500 C   0  0  0  0  0  1  0  0  0  0  0  0
  184.4000  178.7200  142.1050 C   0  0  0  0  0  0  0  0  0  0  0  0
  181.6740  178.8180  142.9820 C   0  0  0  0  0  0  0  0  0  0  0  0
  190.6730  176.9980  141.2860 C   0  0  2  0  0  3  0  0  0  0  0  0
  189.7260  177.9710  140.5720 C   0  0  1  0  0  3  0  0  0  0  0  0
  190.1550  176.6840  139.8960 C   0  0  1  0  0  3  0  0  0  0  0  0
  190.0080  176.0700  142.2950 C   0  0  0  0  0  2  0  0  0  0  0  0
  190.8600  175.9830  143.5440 C   0  0  0  0  0  1  0  0  0  0  0  0
  191.1680  176.9700  138.9420 O   0  0  0  0  0  0  0  0  0  0  0  0
  191.8140  175.9680  138.2150 C   0  0  0  0  0  0  0  0  0  0  0  0
  193.1130  176.2170  137.5250 C   0  0  0  0  0  1  0  0  0  0  0  0
  191.2910  174.8260  138.1390 O   0  0  0  0  0  0  0  0  0  0  0  0
  1 22  2  0  0  0  0
  1 10  1  0  0  0  0
  2  3  1  0  0  0  0
  4  5  1  0  0  0  0
  4 22  1  0  0  0  0
  5 23  1  0  0  0  0
  6 19  1  0  0  0  0
  6 14  1  0  0  0  0
  7 10  1  0  0  0  0
  8 21  1  0  0  0  0
  9  2  2  0  0  0  0
 10 11  1  0  0  0  0
 11 17  1  0  0  0  0
 11  9  1  1  0  0  0
 12 18  1  0  0  0  0
 12 17  2  0  0  0  0
 13  8  2  0  0  0  0
 14  7  1  1  0  0  0
 15  5  2  0  0  0  0
 15 13  1  0  0  0  0
 16  3  2  0  0  0  0
 17 16  1  0  0  0  0
 19  1  1  0  0  0  0
 20  4  2  0  0  0  0
 22 12  1  0  0  0  0
 23  8  1  0  0  0  0
 23 18  2  0  0  0  0
 24 27  1  1  0  0  0
 25 14  1  1  0  0  0
 25 24  1  0  0  0  0
 26 29  1  6  0  0  0
 26 25  1  0  0  0  0
 26 24  1  0  0  0  0
 27 28  1  0  0  0  0
 30 29  1  0  0  0  0
 31 30  1  0  0  0  0
 32 30  2  0  0  0  0
M  END
>  <MODEL>
5

>  <REMARK>
 VINA RESULT:      -8.3      3.217      8.210
  Name = 
  4 active torsions:
  status: ('A' for Active; 'I' for Inactive)
    1  A    between atoms: C_1  and  C_16
    2  A    between atoms: C_10  and  C_17
    3  A    between atoms: C_20  and  O_29
    4  A    between atoms: O_29  and  C_30
                            x       y       z     vdW  Elec       q    Type
                         _______ _______ _______ _____ _____    ______ ____

>  <TORSDO>
F 4

$$$$
=
 OpenBabel11122410353D

 32 37  0  0  1  0  0  0  0  0999 V2000
  189.4990  177.1060  142.1130 C   0  0  0  0  0  0  0  0  0  0  0  0
  185.1700  179.2930  141.9150 C   0  0  0  0  0  3  0  0  0  0  0  0
  185.0200  179.1730  143.3790 C   0  0  0  0  0  3  0  0  0  0  0  0
  190.6120  176.7140  144.3280 C   0  0  0  0  0  0  0  0  0  0  0  0
  190.4650  176.9380  145.7610 C   0  0  0  0  0  0  0  0  0  0  0  0
  190.4860  176.2730  140.0880 O   0  0  0  0  0  0  0  0  0  0  0  0
  188.3920  177.3960  139.8790 C   0  0  0  0  0  2  0  0  0  0  0  0
  189.4870  177.5650  147.7220 C   0  0  0  0  0  0  0  0  0  0  0  0
  186.1350  178.6330  141.2650 C   0  0  0  0  0  3  0  0  0  0  0  0
  188.3530  177.5310  141.3400 N   0  0  0  0  0  0  0  0  0  0  0  0
  187.0390  177.6550  141.9810 C   0  0  1  0  0  3  0  0  0  0  0  0
  188.2210  177.6250  144.1650 C   0  0  0  0  0  0  0  0  0  0  0  0
  190.6710  177.1130  148.0060 N   0  0  0  0  0  0  0  0  0  0  0  0
  189.8320  177.2910  139.3780 C   0  0  2  0  0  3  0  0  0  0  0  0
  191.2970  176.7140  146.7710 C   0  0  0  0  0  2  0  0  0  0  0  0
  185.9500  178.5590  144.1140 C   0  0  0  0  0  3  0  0  0  0  0  0
  187.1330  177.9610  143.4590 C   0  0  0  0  0  0  0  0  0  0  0  0
  188.2230  177.8100  145.6000 N   0  0  0  0  0  2  0  0  0  0  0  0
  190.7720  176.8030  141.3580 C   0  0  0  0  0  2  0  0  0  0  0  0
  191.6620  176.1900  143.8700 O   0  0  0  0  0  0  0  0  0  0  0  0
  188.5310  178.0690  148.7430 C   0  0  0  0  0  1  0  0  0  0  0  0
  189.4560  177.1160  143.4660 C   0  0  0  0  0  0  0  0  0  0  0  0
  189.2660  177.4900  146.3000 C   0  0  0  0  0  0  0  0  0  0  0  0
  191.2150  176.6710  137.2870 C   0  0  2  0  0  3  0  0  0  0  0  0
  189.8350  176.9670  137.8880 C   0  0  1  0  0  3  0  0  0  0  0  0
  190.2860  175.5360  137.6730 C   0  0  1  0  0  3  0  0  0  0  0  0
  192.3760  176.7310  138.2710 C   0  0  0  0  0  2  0  0  0  0  0  0
  193.4620  175.7700  137.8350 C   0  0  0  0  0  1  0  0  0  0  0  0
  189.6650  175.0180  136.5060 O   0  0  0  0  0  0  0  0  0  0  0  0
  188.3230  175.2630  136.2020 C   0  0  0  0  0  0  0  0  0  0  0  0
  187.2190  174.6760  137.0160 C   0  0  0  0  0  1  0  0  0  0  0  0
  188.0370  175.9940  135.2200 O   0  0  0  0  0  0  0  0  0  0  0  0
  1 22  2  0  0  0  0
  2  3  1  0  0  0  0
  3 16  2  0  0  0  0
  4  5  1  0  0  0  0
  5 23  2  0  0  0  0
  5 15  1  0  0  0  0
  6 19  1  0  0  0  0
  7 10  1  0  0  0  0
  8 13  2  0  0  0  0
  8 21  1  0  0  0  0
  9  2  2  0  0  0  0
 10 11  1  0  0  0  0
 10  1  1  0  0  0  0
 11  9  1  6  0  0  0
 11 17  1  0  0  0  0
 12 18  1  0  0  0  0
 14  7  1  1  0  0  0
 14  6  1  0  0  0  0
 15 13  1  0  0  0  0
 17 16  1  0  0  0  0
 17 12  2  0  0  0  0
 18 23  1  0  0  0  0
 19  1  1  0  0  0  0
 20  4  2  0  0  0  0
 22 12  1  0  0  0  0
 22  4  1  0  0  0  0
 23  8  1  0  0  0  0
 24 26  1  0  0  0  0
 24 25  1  0  0  0  0
 24 27  1  1  0  0  0
 25 14  1  1  0  0  0
 26 29  1  6  0  0  0
 26 25  1  0  0  0  0
 28 27  1  0  0  0  0
 30 29  1  0  0  0  0
 30 31  1  0  0  0  0
 32 30  2  0  0  0  0
M  END
>  <MODEL>
6

>  <REMARK>
 VINA RESULT:      -8.3      3.915      6.423
  Name = 
  4 active torsions:
  status: ('A' for Active; 'I' for Inactive)
    1  A    between atoms: C_1  and  C_16
    2  A    between atoms: C_10  and  C_17
    3  A    between atoms: C_20  and  O_29
    4  A    between atoms: O_29  and  C_30
                            x       y       z     vdW  Elec       q    Type
                         _______ _______ _______ _____ _____    ______ ____

>  <TORSDO>
F 4

$$$$
=
 OpenBabel11122410353D

 32 37  0  0  1  0  0  0  0  0999 V2000
  184.9250  178.4080  142.1670 C   0  0  0  0  0  0  0  0  0  0  0  0
  187.6180  177.8490  138.1670 C   0  0  0  0  0  3  0  0  0  0  0  0
  188.8530  177.8390  138.9760 C   0  0  0  0  0  3  0  0  0  0  0  0
  185.9650  178.1380  144.4340 C   0  0  0  0  0  0  0  0  0  0  0  0
  187.2150  177.8100  145.1100 C   0  0  0  0  0  0  0  0  0  0  0  0
  182.6320  179.0910  141.9510 O   0  0  0  0  0  0  0  0  0  0  0  0
  183.8520  178.7730  139.9260 C   0  0  0  0  0  2  0  0  0  0  0  0
  189.4280  177.3230  145.3640 C   0  0  0  0  0  0  0  0  0  0  0  0
  186.4480  178.2160  138.7010 C   0  0  0  0  0  3  0  0  0  0  0  0
  185.0490  178.4890  140.7280 N   0  0  0  0  0  0  0  0  0  0  0  0
  186.3590  178.7400  140.1160 C   0  0  1  0  0  3  0  0  0  0  0  0
  187.3760  178.1130  142.2930 C   0  0  0  0  0  0  0  0  0  0  0  0
  188.8900  177.3120  146.5450 N   0  0  0  0  0  0  0  0  0  0  0  0
  182.5810  178.4450  140.7070 C   0  0  2  0  0  3  0  0  0  0  0  0
  187.4900  177.6200  146.3950 C   0  0  0  0  0  2  0  0  0  0  0  0
  188.8060  178.0120  140.2990 C   0  0  0  0  0  3  0  0  0  0  0  0
  187.5090  178.2490  140.9670 C   0  0  0  0  0  0  0  0  0  0  0  0
  188.5330  177.7700  143.0920 N   0  0  0  0  0  2  0  0  0  0  0  0
  183.5290  178.3500  142.7410 C   0  0  0  0  0  2  0  0  0  0  0  0
  184.9120  178.3270  145.0990 O   0  0  0  0  0  0  0  0  0  0  0  0
  190.8680  177.0550  145.1110 C   0  0  0  0  0  1  0  0  0  0  0  0
  186.0230  178.2540  142.9420 C   0  0  0  0  0  0  0  0  0  0  0  0
  188.4250  177.6350  144.3760 C   0  0  0  0  0  0  0  0  0  0  0  0
  180.3720  177.8200  139.5230 C   0  0  2  0  0  3  0  0  0  0  0  0
  181.3610  178.9210  139.9250 C   0  0  1  0  0  3  0  0  0  0  0  0
  180.1050  178.6850  140.7390 C   0  0  1  0  0  3  0  0  0  0  0  0
  180.7490  176.4140  139.9750 C   0  0  0  0  0  2  0  0  0  0  0  0
  180.2580  175.4040  138.9590 C   0  0  0  0  0  1  0  0  0  0  0  0
  179.1390  179.6730  140.4100 O   0  0  0  0  0  0  0  0  0  0  0  0
  179.2190  180.9830  140.8880 C   0  0  0  0  0  0  0  0  0  0  0  0
  178.9310  182.1540  140.0090 C   0  0  0  0  0  1  0  0  0  0  0  0
  179.5400  181.1830  142.0880 O   0  0  0  0  0  0  0  0  0  0  0  0
  1 19  1  0  0  0  0
  1 22  2  0  0  0  0
  2  9  2  0  0  0  0
  2  3  1  0  0  0  0
  3 16  2  0  0  0  0
  4 20  2  0  0  0  0
  4  5  1  0  0  0  0
  5 15  1  0  0  0  0
  6 19  1  0  0  0  0
  7 10  1  0  0  0  0
  8 13  2  0  0  0  0
 10  1  1  0  0  0  0
 11  9  1  6  0  0  0
 11 10  1  0  0  0  0
 11 17  1  0  0  0  0
 12 22  1  0  0  0  0
 12 18  1  0  0  0  0
 14  7  1  6  0  0  0
 14  6  1  0  0  0  0
 15 13  1  0  0  0  0
 16 17  1  0  0  0  0
 17 12  2  0  0  0  0
 18 23  1  0  0  0  0
 21  8  1  0  0  0  0
 22  4  1  0  0  0  0
 23  5  2  0  0  0  0
 23  8  1  0  0  0  0
 24 25  1  0  0  0  0
 24 27  1  1  0  0  0
 24 26  1  0  0  0  0
 25 14  1  1  0  0  0
 25 26  1  0  0  0  0
 26 29  1  6  0  0  0
 28 27  1  0  0  0  0
 29 30  1  0  0  0  0
 30 32  2  0  0  0  0
 31 30  1  0  0  0  0
M  END
>  <MODEL>
7

>  <REMARK>
 VINA RESULT:      -8.2      1.352      1.702
  Name = 
  4 active torsions:
  status: ('A' for Active; 'I' for Inactive)
    1  A    between atoms: C_1  and  C_16
    2  A    between atoms: C_10  and  C_17
    3  A    between atoms: C_20  and  O_29
    4  A    between atoms: O_29  and  C_30
                            x       y       z     vdW  Elec       q    Type
                         _______ _______ _______ _____ _____    ______ ____

>  <TORSDO>
F 4

$$$$
=
 OpenBabel11122410353D

 32 37  0  0  1  0  0  0  0  0999 V2000
  188.4700  178.0030  141.2930 C   0  0  0  0  0  0  0  0  0  0  0  0
  183.6960  178.6890  141.8440 C   0  0  0  0  0  3  0  0  0  0  0  0
  183.5280  178.8370  140.3860 C   0  0  0  0  0  3  0  0  0  0  0  0
  189.4330  177.6330  139.0060 C   0  0  0  0  0  0  0  0  0  0  0  0
  189.0740  177.4980  137.5990 C   0  0  0  0  0  0  0  0  0  0  0  0
  189.9080  178.1720  143.2100 O   0  0  0  0  0  0  0  0  0  0  0  0
  187.5710  178.4530  143.5940 C   0  0  0  0  0  2  0  0  0  0  0  0
  187.7660  177.4940  135.7330 C   0  0  0  0  0  0  0  0  0  0  0  0
  184.9120  178.6950  142.4030 C   0  0  0  0  0  3  0  0  0  0  0  0
  187.3490  178.3290  142.1480 N   0  0  0  0  0  0  0  0  0  0  0  0
  186.1520  178.9620  141.5810 C   0  0  1  0  0  3  0  0  0  0  0  0
  186.9700  178.2570  139.3440 C   0  0  0  0  0  0  0  0  0  0  0  0
  188.9700  177.1800  135.3630 N   0  0  0  0  0  0  0  0  0  0  0  0
  188.8480  177.7290  144.0150 C   0  0  2  0  0  3  0  0  0  0  0  0
  189.8050  177.1810  136.5370 C   0  0  0  0  0  3  0  0  0  0  0  0
  184.5830  178.7900  139.5670 C   0  0  0  0  0  3  0  0  0  0  0  0
  185.9420  178.6210  140.1230 C   0  0  0  0  0  0  0  0  0  0  0  0
  186.7550  178.0680  137.9260 N   0  0  0  0  0  0  0  0  0  0  0  0
  189.7420  177.5420  141.9630 C   0  0  0  0  0  2  0  0  0  0  0  0
  190.6270  177.4740  139.3770 O   0  0  0  0  0  0  0  0  0  0  0  0
  186.6170  177.6020  134.7950 C   0  0  0  0  0  1  0  0  0  0  0  0
  188.3240  177.9860  139.9480 C   0  0  0  0  0  0  0  0  0  0  0  0
  187.7370  177.7170  137.1570 C   0  0  0  0  0  0  0  0  0  0  0  0
  187.9670  177.8490  146.4400 C   0  0  2  0  0  3  0  0  0  0  0  0
  189.1490  178.0300  145.4800 C   0  0  1  0  0  3  0  0  0  0  0  0
  189.0170  176.7640  146.3020 C   0  0  1  0  0  3  0  0  0  0  0  0
  186.6700  177.3830  145.7900 C   0  0  0  0  0  2  0  0  0  0  0  0
  185.5060  178.1650  146.3610 C   0  0  0  0  0  1  0  0  0  0  0  0
  189.9060  176.8270  147.4080 O   0  0  0  0  0  0  0  0  0  0  0  0
  191.2870  176.6630  147.2660 C   0  0  0  0  0  0  0  0  0  0  0  0
  191.8720  175.9480  146.0940 C   0  0  0  0  0  1  0  0  0  0  0  0
  192.0560  177.1280  148.1460 O   0  0  0  0  0  0  0  0  0  0  0  0
  1 19  1  0  0  0  0
  1 10  1  0  0  0  0
  2  9  2  0  0  0  0
  3  2  1  0  0  0  0
  4 20  2  0  0  0  0
  4 22  1  0  0  0  0
  5  4  1  0  0  0  0
  6 14  1  0  0  0  0
  8 23  1  0  0  0  0
 10  7  1  0  0  0  0
 11 10  1  0  0  0  0
 11  9  1  1  0  0  0
 12 22  1  0  0  0  0
 12 17  2  0  0  0  0
 13  8  2  0  0  0  0
 13 15  1  0  0  0  0
 14  7  1  6  0  0  0
 15  5  2  0  0  0  0
 16 17  1  0  0  0  0
 16  3  2  0  0  0  0
 17 11  1  0  0  0  0
 18 12  1  0  0  0  0
 19  6  1  0  0  0  0
 21  8  1  0  0  0  0
 22  1  2  0  0  0  0
 23  5  1  0  0  0  0
 23 18  2  0  0  0  0
 24 27  1  6  0  0  0
 25 14  1  6  0  0  0
 25 26  1  0  0  0  0
 25 24  1  0  0  0  0
 26 24  1  0  0  0  0
 26 29  1  1  0  0  0
 27 28  1  0  0  0  0
 30 29  1  0  0  0  0
 30 32  2  0  0  0  0
 31 30  1  0  0  0  0
M  END
>  <MODEL>
8

>  <REMARK>
 VINA RESULT:      -7.9      3.440      8.392
  Name = 
  4 active torsions:
  status: ('A' for Active; 'I' for Inactive)
    1  A    between atoms: C_1  and  C_16
    2  A    between atoms: C_10  and  C_17
    3  A    between atoms: C_20  and  O_29
    4  A    between atoms: O_29  and  C_30
                            x       y       z     vdW  Elec       q    Type
                         _______ _______ _______ _____ _____    ______ ____

>  <TORSDO>
F 4

$$$$
=
 OpenBabel11122410353D

 32 37  0  0  1  0  0  0  0  0999 V2000
  189.0080  177.3120  140.9800 C   0  0  0  0  0  0  0  0  0  0  0  0
  184.4680  178.5930  142.1250 C   0  0  0  0  0  3  0  0  0  0  0  0
  184.2110  179.0040  140.7310 C   0  0  0  0  0  3  0  0  0  0  0  0
  189.7140  177.1910  138.5750 C   0  0  0  0  0  0  0  0  0  0  0  0
  189.2270  177.3460  137.2090 C   0  0  0  0  0  0  0  0  0  0  0  0
  190.6020  176.9470  142.7390 O   0  0  0  0  0  0  0  0  0  0  0  0
  188.3800  177.5010  143.4040 C   0  0  0  0  0  2  0  0  0  0  0  0
  187.7920  177.8460  135.5110 C   0  0  0  0  0  0  0  0  0  0  0  0
  185.7090  178.3260  142.5480 C   0  0  0  0  0  3  0  0  0  0  0  0
  188.0270  177.6530  141.9870 N   0  0  0  0  0  0  0  0  0  0  0  0
  186.9070  178.5410  141.6510 C   0  0  1  0  0  3  0  0  0  0  0  0
  187.4190  178.1050  139.2600 C   0  0  0  0  0  0  0  0  0  0  0  0
  188.8960  177.4250  134.9740 N   0  0  0  0  0  0  0  0  0  0  0  0
  189.5520  176.5360  143.5740 C   0  0  2  0  0  3  0  0  0  0  0  0
  189.8110  177.1060  136.0410 C   0  0  0  0  0  3  0  0  0  0  0  0
  185.1750  178.9400  139.8100 C   0  0  0  0  0  3  0  0  0  0  0  0
  186.5290  178.4820  140.1880 C   0  0  0  0  0  0  0  0  0  0  0  0
  187.0650  178.1890  137.8600 N   0  0  0  0  0  0  0  0  0  0  0  0
  190.2390  176.5650  141.4360 C   0  0  0  0  0  2  0  0  0  0  0  0
  190.8920  176.7980  138.7910 O   0  0  0  0  0  0  0  0  0  0  0  0
  186.6040  178.2770  134.7260 C   0  0  0  0  0  1  0  0  0  0  0  0
  188.7550  177.5420  139.6710 C   0  0  0  0  0  0  0  0  0  0  0  0
  187.9120  177.8300  136.9480 C   0  0  0  0  0  0  0  0  0  0  0  0
  191.1720  177.4980  145.3410 C   0  0  2  0  0  3  0  0  0  0  0  0
  190.0140  176.5420  145.0280 C   0  0  1  0  0  3  0  0  0  0  0  0
  189.7410  177.8970  145.6480 C   0  0  1  0  0  3  0  0  0  0  0  0
  191.6800  178.3110  144.1560 C   0  0  0  0  0  2  0  0  0  0  0  0
  191.3100  179.7670  144.3430 C   0  0  0  0  0  1  0  0  0  0  0  0
  189.4970  177.7360  147.0380 O   0  0  0  0  0  0  0  0  0  0  0  0
  188.2060  177.7250  147.5730 C   0  0  0  0  0  0  0  0  0  0  0  0
  187.0000  177.8600  146.7050 C   0  0  0  0  0  1  0  0  0  0  0  0
  188.0550  177.5980  148.8150 O   0  0  0  0  0  0  0  0  0  0  0  0
  1 19  1  0  0  0  0
  1 10  1  0  0  0  0
  2  9  2  0  0  0  0
  3  2  1  0  0  0  0
  4 20  2  0  0  0  0
  4 22  1  0  0  0  0
  5  4  1  0  0  0  0
  6 14  1  0  0  0  0
  8 23  1  0  0  0  0
 10  7  1  0  0  0  0
 11 10  1  0  0  0  0
 11  9  1  1  0  0  0
 12 22  1  0  0  0  0
 12 17  2  0  0  0  0
 13  8  2  0  0  0  0
 13 15  1  0  0  0  0
 14  7  1  1  0  0  0
 15  5  2  0  0  0  0
 16 17  1  0  0  0  0
 16  3  2  0  0  0  0
 17 11  1  0  0  0  0
 18 12  1  0  0  0  0
 19  6  1  0  0  0  0
 21  8  1  0  0  0  0
 22  1  2  0  0  0  0
 23  5  1  0  0  0  0
 23 18  2  0  0  0  0
 24 27  1  6  0  0  0
 24 26  1  0  0  0  0
 25 14  1  6  0  0  0
 25 24  1  0  0  0  0
 25 26  1  0  0  0  0
 26 29  1  1  0  0  0
 27 28  1  0  0  0  0
 29 30  1  0  0  0  0
 30 32  2  0  0  0  0
 31 30  1  0  0  0  0
M  END
>  <MODEL>
9

>  <REMARK>
 VINA RESULT:      -7.3      3.694      8.298
  Name = 
  4 active torsions:
  status: ('A' for Active; 'I' for Inactive)
    1  A    between atoms: C_1  and  C_16
    2  A    between atoms: C_10  and  C_17
    3  A    between atoms: C_20  and  O_29
    4  A    between atoms: O_29  and  C_30
                            x       y       z     vdW  Elec       q    Type
                         _______ _______ _______ _____ _____    ______ ____

>  <TORSDO>
F 4

$$$$
