=
 OpenBabel11122410583D

 31 35  0  0  1  0  0  0  0  0999 V2000
  190.0040  175.8590  142.7680 C   0  0  0  0  0  0  0  0  0  0  0  0
  186.5320  177.0920  143.7120 C   0  0  2  0  0  3  0  0  0  0  0  0
  186.6750  177.7620  145.0660 C   0  0  0  0  0  0  0  0  0  0  0  0
  187.8630  178.1210  147.1560 C   0  0  0  0  0  0  0  0  0  0  0  0
  187.8500  176.9600  142.9810 C   0  0  0  0  0  0  0  0  0  0  0  0
  190.3520  176.7280  141.7340 C   0  0  0  0  0  3  0  0  0  0  0  0
  187.7670  177.5000  145.9070 C   0  0  0  0  0  3  0  0  0  0  0  0
  186.0440  179.1140  142.2710 C   0  0  2  0  0  3  0  0  0  0  0  0
  190.8970  174.8800  143.1840 O   0  0  0  0  0  1  0  0  0  0  0  0
  184.5420  178.8500  144.7080 O   0  0  0  0  0  0  0  0  0  0  0  0
  189.2400  177.7990  148.1870 Cl  0  0  0  0  0  0  0  0  0  0  0  0
  187.2220  178.8150  141.3480 C   0  0  0  0  0  2  0  0  0  0  0  0
  185.4770  177.8060  142.8400 C   0  0  2  0  0  3  0  0  0  0  0  0
  188.7570  175.9730  143.3870 C   0  0  0  0  0  3  0  0  0  0  0  0
  186.8630  179.0010  147.5790 C   0  0  0  0  0  3  0  0  0  0  0  0
  188.2030  177.8370  141.9300 C   0  0  0  0  0  0  0  0  0  0  0  0
  189.4500  177.7070  141.3100 C   0  0  0  0  0  3  0  0  0  0  0  0
  184.2570  178.0400  143.6190 N   0  0  0  0  0  2  0  0  0  0  0  0
  185.6540  178.6170  145.5170 C   0  0  0  0  0  0  0  0  0  0  0  0
  185.7580  179.2470  146.7600 C   0  0  0  0  0  3  0  0  0  0  0  0
  185.0650  179.8090  141.5490 O   0  0  0  0  0  0  0  0  0  0  0  0
  183.2130  178.5470  141.1040 O   0  0  0  0  0  1  0  0  0  0  0  0
  184.5040  178.8700  140.6720 C   0  0  1  0  0  3  0  0  0  0  0  0
  183.2040  177.1160  138.0990 C   0  0  0  0  0  0  0  0  0  0  0  0
  182.9790  179.5440  138.7840 C   0  0  0  0  0  2  0  0  0  0  0  0
  186.5320  178.4190  138.5100 O   0  0  0  0  0  1  0  0  0  0  0  0
  182.5710  175.7920  137.8700 C   0  0  0  0  0  1  0  0  0  0  0  0
  182.4060  178.2140  138.5630 N   0  0  0  0  0  2  0  0  0  0  0  0
  185.1830  178.5790  138.1970 C   0  0  2  0  0  3  0  0  0  0  0  0
  184.4380  179.4300  139.2420 C   0  0  2  0  0  3  0  0  0  0  0  0
  184.5240  177.2500  137.9640 C   0  0  0  0  0  3  0  0  0  0  0  0
  1  9  1  0  0  0  0
  1 14  1  0  0  0  0
  2  5  1  6  0  0  0
  2  3  1  0  0  0  0
  3 19  2  0  0  0  0
  3  7  1  0  0  0  0
  4 15  1  0  0  0  0
  4 11  1  0  0  0  0
  5 14  2  0  0  0  0
  6  1  2  0  0  0  0
  7  4  2  0  0  0  0
  8 21  1  6  0  0  0
  8 13  1  0  0  0  0
 10 19  1  0  0  0  0
 12 16  1  0  0  0  0
 12  8  1  0  0  0  0
 13 18  1  1  0  0  0
 13  2  1  0  0  0  0
 16  5  1  0  0  0  0
 17  6  1  0  0  0  0
 17 16  2  0  0  0  0
 18 10  1  0  0  0  0
 19 20  1  0  0  0  0
 20 15  2  0  0  0  0
 23 22  1  1  0  0  0
 23 21  1  0  0  0  0
 24 28  1  0  0  0  0
 25 30  1  0  0  0  0
 27 24  1  0  0  0  0
 28 25  1  0  0  0  0
 29 26  1  1  0  0  0
 29 30  1  0  0  0  0
 30 23  1  1  0  0  0
 31 24  2  0  0  0  0
 31 29  1  0  0  0  0
M  END
>  <MODEL>
1

>  <REMARK>
 VINA RESULT:      -9.6      0.000      0.000
  Name = 
  3 active torsions:
  status: ('A' for Active; 'I' for Inactive)
    1  A    between atoms: C_5  and  O_16
    2  A    between atoms: C_5  and  C_30
    3  A    between atoms: C_10  and  O_16
                            x       y       z     vdW  Elec       q    Type
                         _______ _______ _______ _____ _____    ______ ____

>  <TORSDO>
F 3

$$$$
=
 OpenBabel11122410583D

 31 35  0  0  1  0  0  0  0  0999 V2000
  183.8050  178.7320  142.9350 C   0  0  0  0  0  0  0  0  0  0  0  0
  182.9800  177.7100  139.3660 C   0  0  2  0  0  3  0  0  0  0  0  0
  182.0200  178.7580  138.8370 C   0  0  0  0  0  0  0  0  0  0  0  0
  180.3990  180.5370  139.1820 C   0  0  0  0  0  0  0  0  0  0  0  0
  183.7640  178.1860  140.5690 C   0  0  0  0  0  0  0  0  0  0  0  0
  185.1300  179.1540  142.8200 C   0  0  0  0  0  3  0  0  0  0  0  0
  181.2880  179.5900  139.6980 C   0  0  0  0  0  3  0  0  0  0  0  0
  185.0160  178.2280  137.9550 C   0  0  2  0  0  3  0  0  0  0  0  0
  183.1600  178.7940  144.1630 O   0  0  0  0  0  1  0  0  0  0  0  0
  182.4980  178.0040  136.5870 O   0  0  0  0  0  0  0  0  0  0  0  0
  179.5060  181.5800  140.2670 Cl  0  0  0  0  0  0  0  0  0  0  0  0
  185.8930  178.4300  139.1880 C   0  0  0  0  0  2  0  0  0  0  0  0
  183.9200  177.1960  138.2540 C   0  0  2  0  0  3  0  0  0  0  0  0
  183.1260  178.2470  141.8150 C   0  0  0  0  0  3  0  0  0  0  0  0
  180.2260  180.6530  137.7990 C   0  0  0  0  0  3  0  0  0  0  0  0
  185.1070  178.6110  140.4560 C   0  0  0  0  0  0  0  0  0  0  0  0
  185.7810  179.0840  141.5860 C   0  0  0  0  0  3  0  0  0  0  0  0
  183.1440  176.8690  137.0530 N   0  0  0  0  0  2  0  0  0  0  0  0
  181.8080  178.8560  137.4510 C   0  0  0  0  0  0  0  0  0  0  0  0
  180.9290  179.8110  136.9350 C   0  0  0  0  0  3  0  0  0  0  0  0
  185.8210  177.8050  136.8890 O   0  0  0  0  0  0  0  0  0  0  0  0
  186.5610  175.7100  137.4230 O   0  0  0  0  0  1  0  0  0  0  0  0
  186.8670  177.0740  137.4710 C   0  0  1  0  0  3  0  0  0  0  0  0
  189.8430  177.1930  139.0570 C   0  0  0  0  0  0  0  0  0  0  0  0
  189.1220  176.1210  136.8790 C   0  0  0  0  0  2  0  0  0  0  0  0
  188.2010  179.7350  137.1100 O   0  0  0  0  0  1  0  0  0  0  0  0
  190.3670  177.0460  140.4390 C   0  0  0  0  0  1  0  0  0  0  0  0
  189.6170  176.0260  138.2540 N   0  0  0  0  0  2  0  0  0  0  0  0
  188.9580  178.5680  137.2160 C   0  0  2  0  0  3  0  0  0  0  0  0
  188.1880  177.3270  136.7270 C   0  0  2  0  0  3  0  0  0  0  0  0
  189.4950  178.4000  138.6070 C   0  0  0  0  0  3  0  0  0  0  0  0
  1  9  1  0  0  0  0
  2  3  1  6  0  0  0
  2  5  1  0  0  0  0
  3  7  1  0  0  0  0
  4  7  2  0  0  0  0
  4 11  1  0  0  0  0
  5 14  1  0  0  0  0
  6  1  1  0  0  0  0
  8 21  1  6  0  0  0
  8 13  1  0  0  0  0
  8 12  1  0  0  0  0
 10 18  1  0  0  0  0
 10 19  1  0  0  0  0
 12 16  1  0  0  0  0
 13 18  1  6  0  0  0
 13  2  1  0  0  0  0
 14  1  2  0  0  0  0
 15  4  1  0  0  0  0
 16  5  2  0  0  0  0
 16 17  1  0  0  0  0
 17  6  2  0  0  0  0
 19  3  2  0  0  0  0
 20 19  1  0  0  0  0
 20 15  2  0  0  0  0
 21 23  1  0  0  0  0
 23 22  1  6  0  0  0
 24 27  1  0  0  0  0
 25 28  1  0  0  0  0
 28 24  1  0  0  0  0
 29 26  1  1  0  0  0
 29 31  1  0  0  0  0
 30 25  1  0  0  0  0
 30 29  1  0  0  0  0
 30 23  1  1  0  0  0
 31 24  2  0  0  0  0
M  END
>  <MODEL>
2

>  <REMARK>
 VINA RESULT:      -8.6      3.893      7.203
  Name = 
  3 active torsions:
  status: ('A' for Active; 'I' for Inactive)
    1  A    between atoms: C_5  and  O_16
    2  A    between atoms: C_5  and  C_30
    3  A    between atoms: C_10  and  O_16
                            x       y       z     vdW  Elec       q    Type
                         _______ _______ _______ _____ _____    ______ ____

>  <TORSDO>
F 3

$$$$
=
 OpenBabel11122410583D

 31 35  0  0  1  0  0  0  0  0999 V2000
  179.7790  178.1500  142.0390 C   0  0  0  0  0  0  0  0  0  0  0  0
  183.1290  179.0880  140.5020 C   0  0  2  0  0  3  0  0  0  0  0  0
  184.1750  178.8110  141.5660 C   0  0  0  0  0  0  0  0  0  0  0  0
  184.8240  178.4640  143.8830 C   0  0  0  0  0  0  0  0  0  0  0  0
  181.8290  178.3570  140.7530 C   0  0  0  0  0  0  0  0  0  0  0  0
  179.4500  176.9890  141.3370 C   0  0  0  0  0  3  0  0  0  0  0  0
  183.8360  178.7050  142.9240 C   0  0  0  0  0  3  0  0  0  0  0  0
  183.7130  177.2800  138.8320 C   0  0  2  0  0  3  0  0  0  0  0  0
  178.9310  178.6270  143.0290 O   0  0  0  0  0  1  0  0  0  0  0  0
  185.8790  178.8720  139.8490 O   0  0  0  0  0  0  0  0  0  0  0  0
  184.3850  178.3160  145.5700 Cl  0  0  0  0  0  0  0  0  0  0  0  0
  182.2990  176.7070  138.8670 C   0  0  0  0  0  2  0  0  0  0  0  0
  183.6730  178.7930  139.0890 C   0  0  2  0  0  3  0  0  0  0  0  0
  180.9610  178.8320  141.7450 C   0  0  0  0  0  3  0  0  0  0  0  0
  186.1600  178.3390  143.4940 C   0  0  0  0  0  3  0  0  0  0  0  0
  181.4910  177.1830  140.0410 C   0  0  0  0  0  0  0  0  0  0  0  0
  180.2990  176.5130  140.3350 C   0  0  0  0  0  3  0  0  0  0  0  0
  184.9960  179.4040  138.9220 N   0  0  0  0  0  2  0  0  0  0  0  0
  185.5260  178.7240  141.1910 C   0  0  0  0  0  0  0  0  0  0  0  0
  186.5120  178.4700  142.1490 C   0  0  0  0  0  3  0  0  0  0  0  0
  184.2850  177.0020  137.5830 O   0  0  0  0  0  0  0  0  0  0  0  0
  182.8320  177.5620  135.9110 O   0  0  0  0  0  1  0  0  0  0  0  0
  183.2330  176.5410  136.7790 C   0  0  1  0  0  3  0  0  0  0  0  0
  181.2050  173.8950  136.2520 C   0  0  0  0  0  0  0  0  0  0  0  0
  182.7780  175.1600  134.7210 C   0  0  0  0  0  2  0  0  0  0  0  0
  184.4110  174.0130  137.8810 O   0  0  0  0  0  1  0  0  0  0  0  0
  179.8220  173.4760  136.5940 C   0  0  0  0  0  1  0  0  0  0  0  0
  181.4320  174.7370  135.1120 N   0  0  0  0  0  2  0  0  0  0  0  0
  183.6190  173.9870  136.7340 C   0  0  2  0  0  3  0  0  0  0  0  0
  183.6710  175.3160  135.9580 C   0  0  2  0  0  3  0  0  0  0  0  0
  182.2150  173.5670  137.0600 C   0  0  0  0  0  3  0  0  0  0  0  0
  1  9  1  0  0  0  0
  2  5  1  1  0  0  0
  2  3  1  0  0  0  0
  3  7  1  0  0  0  0
  4 11  1  0  0  0  0
  5 14  2  0  0  0  0
  6  1  2  0  0  0  0
  7  4  2  0  0  0  0
  8 21  1  6  0  0  0
  8 12  1  0  0  0  0
  8 13  1  0  0  0  0
 10 19  1  0  0  0  0
 12 16  1  0  0  0  0
 13 18  1  1  0  0  0
 13  2  1  0  0  0  0
 14  1  1  0  0  0  0
 15  4  1  0  0  0  0
 16 17  2  0  0  0  0
 16  5  1  0  0  0  0
 17  6  1  0  0  0  0
 18 10  1  0  0  0  0
 19  3  2  0  0  0  0
 19 20  1  0  0  0  0
 20 15  2  0  0  0  0
 23 22  1  6  0  0  0
 23 21  1  0  0  0  0
 24 27  1  0  0  0  0
 24 31  2  0  0  0  0
 25 28  1  0  0  0  0
 25 30  1  0  0  0  0
 28 24  1  0  0  0  0
 29 31  1  0  0  0  0
 29 26  1  1  0  0  0
 30 29  1  0  0  0  0
 30 23  1  1  0  0  0
M  END
>  <MODEL>
3

>  <REMARK>
 VINA RESULT:      -8.5      3.105      6.239
  Name = 
  3 active torsions:
  status: ('A' for Active; 'I' for Inactive)
    1  A    between atoms: C_5  and  O_16
    2  A    between atoms: C_5  and  C_30
    3  A    between atoms: C_10  and  O_16
                            x       y       z     vdW  Elec       q    Type
                         _______ _______ _______ _____ _____    ______ ____

>  <TORSDO>
F 3

$$$$
=
 OpenBabel11122410583D

 31 35  0  0  1  0  0  0  0  0999 V2000
  179.8080  177.9140  141.8500 C   0  0  0  0  0  0  0  0  0  0  0  0
  183.0900  179.2000  140.4220 C   0  0  2  0  0  3  0  0  0  0  0  0
  184.1550  178.8830  141.4550 C   0  0  0  0  0  0  0  0  0  0  0  0
  184.8320  178.3470  143.7280 C   0  0  0  0  0  0  0  0  0  0  0  0
  181.8370  178.3710  140.5960 C   0  0  0  0  0  0  0  0  0  0  0  0
  179.5470  176.8110  141.0360 C   0  0  0  0  0  3  0  0  0  0  0  0
  183.8280  178.6220  142.7950 C   0  0  0  0  0  3  0  0  0  0  0  0
  183.7760  177.6050  138.5810 C   0  0  2  0  0  3  0  0  0  0  0  0
  178.9370  178.2380  142.8810 O   0  0  0  0  0  1  0  0  0  0  0  0
  185.8460  179.2160  139.7560 O   0  0  0  0  0  0  0  0  0  0  0  0
  184.4090  178.0060  145.3910 Cl  0  0  0  0  0  0  0  0  0  0  0  0
  182.3990  176.9480  138.5560 C   0  0  0  0  0  2  0  0  0  0  0  0
  183.6460  179.0800  138.9870 C   0  0  2  0  0  3  0  0  0  0  0  0
  180.9470  178.6920  141.6290 C   0  0  0  0  0  3  0  0  0  0  0  0
  186.1720  178.3420  143.3310 C   0  0  0  0  0  3  0  0  0  0  0  0
  181.5680  177.2550  139.7700 C   0  0  0  0  0  0  0  0  0  0  0  0
  180.4200  176.4890  139.9930 C   0  0  0  0  0  3  0  0  0  0  0  0
  184.9290  179.7840  138.8850 N   0  0  0  0  0  2  0  0  0  0  0  0
  185.5080  178.9140  141.0760 C   0  0  0  0  0  0  0  0  0  0  0  0
  186.5100  178.6270  142.0060 C   0  0  0  0  0  3  0  0  0  0  0  0
  184.3590  177.4870  137.3120 O   0  0  0  0  0  0  0  0  0  0  0  0
  185.1490  175.3620  137.5940 O   0  0  0  0  0  1  0  0  0  0  0  0
  185.5110  176.7100  137.4950 C   0  0  1  0  0  3  0  0  0  0  0  0
  188.8610  176.5930  137.8830 C   0  0  0  0  0  0  0  0  0  0  0  0
  187.3210  175.6220  136.1220 C   0  0  0  0  0  2  0  0  0  0  0  0
  186.8060  179.2840  136.6650 O   0  0  0  0  0  1  0  0  0  0  0  0
  189.8420  176.3780  138.9780 C   0  0  0  0  0  1  0  0  0  0  0  0
  188.2760  175.4620  137.2210 N   0  0  0  0  0  2  0  0  0  0  0  0
  187.4650  178.0670  136.4890 C   0  0  2  0  0  3  0  0  0  0  0  0
  186.4840  176.8920  136.3190 C   0  0  2  0  0  3  0  0  0  0  0  0
  188.4590  177.8300  137.5890 C   0  0  0  0  0  3  0  0  0  0  0  0
  1  9  1  0  0  0  0
  2  5  1  6  0  0  0
  2  3  1  0  0  0  0
  3  7  1  0  0  0  0
  4 11  1  0  0  0  0
  5 14  2  0  0  0  0
  6  1  2  0  0  0  0
  7  4  2  0  0  0  0
  8 21  1  6  0  0  0
  8 13  1  0  0  0  0
 10 19  1  0  0  0  0
 12  8  1  0  0  0  0
 12 16  1  0  0  0  0
 13 18  1  1  0  0  0
 13  2  1  0  0  0  0
 14  1  1  0  0  0  0
 15  4  1  0  0  0  0
 16 17  2  0  0  0  0
 16  5  1  0  0  0  0
 17  6  1  0  0  0  0
 18 10  1  0  0  0  0
 19  3  2  0  0  0  0
 19 20  1  0  0  0  0
 20 15  2  0  0  0  0
 21 23  1  0  0  0  0
 23 22  1  6  0  0  0
 24 27  1  0  0  0  0
 25 30  1  0  0  0  0
 25 28  1  0  0  0  0
 28 24  1  0  0  0  0
 29 26  1  1  0  0  0
 29 31  1  0  0  0  0
 30 29  1  0  0  0  0
 30 23  1  1  0  0  0
 31 24  2  0  0  0  0
M  END
>  <MODEL>
4

>  <REMARK>
 VINA RESULT:      -8.5      3.076      6.303
  Name = 
  3 active torsions:
  status: ('A' for Active; 'I' for Inactive)
    1  A    between atoms: C_5  and  O_16
    2  A    between atoms: C_5  and  C_30
    3  A    between atoms: C_10  and  O_16
                            x       y       z     vdW  Elec       q    Type
                         _______ _______ _______ _____ _____    ______ ____

>  <TORSDO>
F 3

$$$$
=
 OpenBabel11122410583D

 31 35  0  0  1  0  0  0  0  0999 V2000
  191.8650  174.5050  135.7580 C   0  0  0  0  0  0  0  0  0  0  0  0
  189.5870  177.3480  136.8510 C   0  0  2  0  0  3  0  0  0  0  0  0
  188.1730  176.8010  136.7990 C   0  0  0  0  0  0  0  0  0  0  0  0
  186.5340  175.1920  136.0030 C   0  0  0  0  0  0  0  0  0  0  0  0
  190.6360  176.2600  136.9030 C   0  0  0  0  0  0  0  0  0  0  0  0
  192.4980  174.1610  136.9530 C   0  0  0  0  0  3  0  0  0  0  0  0
  187.8490  175.6640  136.0430 C   0  0  0  0  0  3  0  0  0  0  0  0
  189.8670  177.6050  139.3530 C   0  0  2  0  0  3  0  0  0  0  0  0
  192.1530  173.8070  134.5940 O   0  0  0  0  0  1  0  0  0  0  0  0
  187.4520  178.6450  138.1920 O   0  0  0  0  0  0  0  0  0  0  0  0
  186.1470  173.7630  135.0710 Cl  0  0  0  0  0  0  0  0  0  0  0  0
  191.1140  176.7260  139.3640 C   0  0  0  0  0  2  0  0  0  0  0  0
  189.7610  178.3480  138.0130 C   0  0  2  0  0  3  0  0  0  0  0  0
  190.9410  175.5520  135.7330 C   0  0  0  0  0  3  0  0  0  0  0  0
  185.5290  175.8600  136.7090 C   0  0  0  0  0  3  0  0  0  0  0  0
  191.2810  175.9120  138.1120 C   0  0  0  0  0  0  0  0  0  0  0  0
  192.2140  174.8690  138.1240 C   0  0  0  0  0  3  0  0  0  0  0  0
  188.6550  179.3120  138.0160 N   0  0  0  0  0  2  0  0  0  0  0  0
  187.1480  177.4880  137.4730 C   0  0  0  0  0  0  0  0  0  0  0  0
  185.8360  177.0080  137.4420 C   0  0  0  0  0  3  0  0  0  0  0  0
  189.9400  178.5100  140.4200 O   0  0  0  0  0  0  0  0  0  0  0  0
  188.1280  177.1880  140.8590 O   0  0  0  0  0  1  0  0  0  0  0  0
  189.1400  177.9640  141.4340 C   0  0  1  0  0  3  0  0  0  0  0  0
  188.3070  177.4720  144.6670 C   0  0  0  0  0  0  0  0  0  0  0  0
  189.1530  175.8970  142.8730 C   0  0  0  0  0  2  0  0  0  0  0  0
  191.2900  178.9350  143.2860 O   0  0  0  0  0  1  0  0  0  0  0  0
  187.2280  177.8740  145.6060 C   0  0  0  0  0  1  0  0  0  0  0  0
  188.1120  176.3450  143.8000 N   0  0  0  0  0  2  0  0  0  0  0  0
  190.5080  177.8300  143.6210 C   0  0  2  0  0  3  0  0  0  0  0  0
  189.9810  177.0890  142.3780 C   0  0  2  0  0  3  0  0  0  0  0  0
  189.4090  178.2170  144.5680 C   0  0  0  0  0  3  0  0  0  0  0  0
  1  6  1  0  0  0  0
  2  3  1  1  0  0  0
  2  5  1  0  0  0  0
  2 13  1  0  0  0  0
  3 19  1  0  0  0  0
  4  7  1  0  0  0  0
  4 15  2  0  0  0  0
  5 16  2  0  0  0  0
  6 17  2  0  0  0  0
  7  3  2  0  0  0  0
  8 12  1  0  0  0  0
  8 21  1  1  0  0  0
  9  1  1  0  0  0  0
 11  4  1  0  0  0  0
 13 18  1  1  0  0  0
 13  8  1  0  0  0  0
 14  1  2  0  0  0  0
 14  5  1  0  0  0  0
 15 20  1  0  0  0  0
 16 17  1  0  0  0  0
 16 12  1  0  0  0  0
 18 10  1  0  0  0  0
 19 10  1  0  0  0  0
 20 19  2  0  0  0  0
 21 23  1  0  0  0  0
 23 22  1  6  0  0  0
 24 27  1  0  0  0  0
 25 28  1  0  0  0  0
 28 24  1  0  0  0  0
 29 26  1  6  0  0  0
 29 31  1  0  0  0  0
 30 23  1  1  0  0  0
 30 25  1  0  0  0  0
 30 29  1  0  0  0  0
 31 24  2  0  0  0  0
M  END
>  <MODEL>
5

>  <REMARK>
 VINA RESULT:      -8.5      4.578      7.938
  Name = 
  3 active torsions:
  status: ('A' for Active; 'I' for Inactive)
    1  A    between atoms: C_5  and  O_16
    2  A    between atoms: C_5  and  C_30
    3  A    between atoms: C_10  and  O_16
                            x       y       z     vdW  Elec       q    Type
                         _______ _______ _______ _____ _____    ______ ____

>  <TORSDO>
F 3

$$$$
=
 OpenBabel11122410583D

 31 35  0  0  1  0  0  0  0  0999 V2000
  180.6470  177.2890  140.4930 C   0  0  0  0  0  0  0  0  0  0  0  0
  184.0440  178.5450  139.3340 C   0  0  2  0  0  3  0  0  0  0  0  0
  184.9580  178.4690  140.5420 C   0  0  0  0  0  0  0  0  0  0  0  0
  185.3180  178.3500  142.9440 C   0  0  0  0  0  0  0  0  0  0  0  0
  182.8160  177.6720  139.4710 C   0  0  0  0  0  0  0  0  0  0  0  0
  180.5550  176.0550  139.8480 C   0  0  0  0  0  3  0  0  0  0  0  0
  184.4510  178.4050  141.8490 C   0  0  0  0  0  3  0  0  0  0  0  0
  185.0600  176.7250  137.8990 C   0  0  2  0  0  3  0  0  0  0  0  0
  179.6200  177.7150  141.3250 O   0  0  0  0  0  1  0  0  0  0  0  0
  186.8650  178.6370  139.0600 O   0  0  0  0  0  0  0  0  0  0  0  0
  184.6710  178.2530  144.5660 Cl  0  0  0  0  0  0  0  0  0  0  0  0
  183.7310  175.9820  137.7960 C   0  0  0  0  0  2  0  0  0  0  0  0
  184.8090  178.2340  138.0300 C   0  0  2  0  0  3  0  0  0  0  0  0
  181.7710  178.0950  140.3020 C   0  0  0  0  0  3  0  0  0  0  0  0
  186.7010  178.3700  142.7420 C   0  0  0  0  0  3  0  0  0  0  0  0
  182.7190  176.4240  138.8160 C   0  0  0  0  0  0  0  0  0  0  0  0
  181.5840  175.6290  139.0040 C   0  0  0  0  0  3  0  0  0  0  0  0
  186.0620  178.9950  137.9890 N   0  0  0  0  0  2  0  0  0  0  0  0
  186.3500  178.5290  140.3530 C   0  0  0  0  0  0  0  0  0  0  0  0
  187.2160  178.4620  141.4470 C   0  0  0  0  0  3  0  0  0  0  0  0
  185.8270  176.4440  136.7610 O   0  0  0  0  0  0  0  0  0  0  0  0
  186.5260  174.3740  137.4320 O   0  0  0  0  0  1  0  0  0  0  0  0
  186.9240  175.6990  137.2170 C   0  0  1  0  0  3  0  0  0  0  0  0
  190.1070  176.4200  138.0740 C   0  0  0  0  0  0  0  0  0  0  0  0
  189.1180  174.6660  136.5360 C   0  0  0  0  0  2  0  0  0  0  0  0
  187.9300  178.1260  135.7730 O   0  0  0  0  0  1  0  0  0  0  0  0
  190.8740  176.7530  139.3010 C   0  0  0  0  0  1  0  0  0  0  0  0
  189.8510  175.0460  137.7460 N   0  0  0  0  0  2  0  0  0  0  0  0
  188.7960  177.0820  136.0970 C   0  0  2  0  0  3  0  0  0  0  0  0
  188.0680  175.7280  136.1900 C   0  0  2  0  0  3  0  0  0  0  0  0
  189.5790  177.3990  137.3380 C   0  0  0  0  0  3  0  0  0  0  0  0
  1  9  1  0  0  0  0
  2  5  1  1  0  0  0
  2  3  1  0  0  0  0
  3  7  1  0  0  0  0
  4 11  1  0  0  0  0
  5 14  2  0  0  0  0
  6  1  2  0  0  0  0
  7  4  2  0  0  0  0
  8 21  1  6  0  0  0
  8 13  1  0  0  0  0
 10 19  1  0  0  0  0
 12  8  1  0  0  0  0
 12 16  1  0  0  0  0
 13 18  1  1  0  0  0
 13  2  1  0  0  0  0
 14  1  1  0  0  0  0
 15  4  1  0  0  0  0
 16 17  2  0  0  0  0
 16  5  1  0  0  0  0
 17  6  1  0  0  0  0
 18 10  1  0  0  0  0
 19  3  2  0  0  0  0
 19 20  1  0  0  0  0
 20 15  2  0  0  0  0
 21 23  1  0  0  0  0
 23 22  1  6  0  0  0
 24 27  1  0  0  0  0
 25 28  1  0  0  0  0
 28 24  1  0  0  0  0
 29 26  1  1  0  0  0
 29 30  1  0  0  0  0
 29 31  1  0  0  0  0
 30 25  1  0  0  0  0
 30 23  1  1  0  0  0
 31 24  2  0  0  0  0
M  END
>  <MODEL>
6

>  <REMARK>
 VINA RESULT:      -8.2      3.265      6.653
  Name = 
  3 active torsions:
  status: ('A' for Active; 'I' for Inactive)
    1  A    between atoms: C_5  and  O_16
    2  A    between atoms: C_5  and  C_30
    3  A    between atoms: C_10  and  O_16
                            x       y       z     vdW  Elec       q    Type
                         _______ _______ _______ _____ _____    ______ ____

>  <TORSDO>
F 3

$$$$
=
 OpenBabel11122410583D

 31 35  0  0  1  0  0  0  0  0999 V2000
  189.2570  177.6630  143.4240 C   0  0  0  0  0  0  0  0  0  0  0  0
  186.8130  178.9910  140.8300 C   0  0  2  0  0  3  0  0  0  0  0  0
  187.0390  178.1670  139.5750 C   0  0  0  0  0  0  0  0  0  0  0  0
  188.4110  176.7100  138.1960 C   0  0  0  0  0  0  0  0  0  0  0  0
  187.3460  178.3200  142.0760 C   0  0  0  0  0  0  0  0  0  0  0  0
  188.4090  177.0060  144.3160 C   0  0  0  0  0  3  0  0  0  0  0  0
  188.2260  177.4480  139.3690 C   0  0  0  0  0  3  0  0  0  0  0  0
  184.5120  178.1680  141.4860 C   0  0  2  0  0  3  0  0  0  0  0  0
  190.6280  177.6640  143.6420 O   0  0  0  0  0  1  0  0  0  0  0  0
  184.8970  178.9260  138.7410 O   0  0  0  0  0  0  0  0  0  0  0  0
  189.8880  175.8020  137.9600 Cl  0  0  0  0  0  0  0  0  0  0  0  0
  184.9930  177.7470  142.8730 C   0  0  0  0  0  2  0  0  0  0  0  0
  185.3270  179.3720  140.9920 C   0  0  2  0  0  3  0  0  0  0  0  0
  188.7280  178.3200  142.3110 C   0  0  0  0  0  3  0  0  0  0  0  0
  187.4160  176.6940  137.2150 C   0  0  0  0  0  3  0  0  0  0  0  0
  186.4890  177.6560  142.9830 C   0  0  0  0  0  0  0  0  0  0  0  0
  187.0280  177.0110  144.1010 C   0  0  0  0  0  3  0  0  0  0  0  0
  184.8020  179.8960  139.7270 N   0  0  0  0  0  2  0  0  0  0  0  0
  186.0620  178.1780  138.5650 C   0  0  0  0  0  0  0  0  0  0  0  0
  186.2430  177.4300  137.3990 C   0  0  0  0  0  3  0  0  0  0  0  0
  183.1490  178.4840  141.5550 O   0  0  0  0  0  0  0  0  0  0  0  0
  183.0500  176.6290  140.2240 O   0  0  0  0  0  1  0  0  0  0  0  0
  182.5740  177.9330  140.4010 C   0  0  1  0  0  3  0  0  0  0  0  0
  180.5600  179.3560  138.0970 C   0  0  0  0  0  0  0  0  0  0  0  0
  180.4340  177.1460  139.3290 C   0  0  0  0  0  2  0  0  0  0  0  0
  180.8610  180.0760  141.6100 O   0  0  0  0  0  1  0  0  0  0  0  0
  180.6940  180.0960  136.8160 C   0  0  0  0  0  1  0  0  0  0  0  0
  180.5840  177.9210  138.0950 N   0  0  0  0  0  2  0  0  0  0  0  0
  180.3870  179.2990  140.5530 C   0  0  2  0  0  3  0  0  0  0  0  0
  181.0410  177.9050  140.5160 C   0  0  2  0  0  3  0  0  0  0  0  0
  180.5170  180.0290  139.2480 C   0  0  0  0  0  3  0  0  0  0  0  0
  1  9  1  0  0  0  0
  1  6  1  0  0  0  0
  2  3  1  6  0  0  0
  2 13  1  0  0  0  0
  2  5  1  0  0  0  0
  4  7  2  0  0  0  0
  5 14  1  0  0  0  0
  5 16  2  0  0  0  0
  7  3  1  0  0  0  0
  8 21  1  1  0  0  0
  8 12  1  0  0  0  0
 10 18  1  0  0  0  0
 11  4  1  0  0  0  0
 12 16  1  0  0  0  0
 13 18  1  6  0  0  0
 13  8  1  0  0  0  0
 14  1  2  0  0  0  0
 15 20  2  0  0  0  0
 15  4  1  0  0  0  0
 16 17  1  0  0  0  0
 17  6  2  0  0  0  0
 19 10  1  0  0  0  0
 19  3  2  0  0  0  0
 20 19  1  0  0  0  0
 23 22  1  1  0  0  0
 23 21  1  0  0  0  0
 24 31  2  0  0  0  0
 25 30  1  0  0  0  0
 27 24  1  0  0  0  0
 28 24  1  0  0  0  0
 28 25  1  0  0  0  0
 29 26  1  1  0  0  0
 30 23  1  6  0  0  0
 30 29  1  0  0  0  0
 31 29  1  0  0  0  0
M  END
>  <MODEL>
7

>  <REMARK>
 VINA RESULT:      -8.2      2.893      5.186
  Name = 
  3 active torsions:
  status: ('A' for Active; 'I' for Inactive)
    1  A    between atoms: C_5  and  O_16
    2  A    between atoms: C_5  and  C_30
    3  A    between atoms: C_10  and  O_16
                            x       y       z     vdW  Elec       q    Type
                         _______ _______ _______ _____ _____    ______ ____

>  <TORSDO>
F 3

$$$$
=
 OpenBabel11122410583D

 31 35  0  0  1  0  0  0  0  0999 V2000
  183.7850  173.0530  136.2850 C   0  0  0  0  0  0  0  0  0  0  0  0
  185.2660  176.5520  136.4560 C   0  0  2  0  0  3  0  0  0  0  0  0
  184.5440  177.2620  137.5860 C   0  0  0  0  0  0  0  0  0  0  0  0
  182.6560  177.4980  139.0980 C   0  0  0  0  0  0  0  0  0  0  0  0
  185.1500  175.0460  136.5390 C   0  0  0  0  0  0  0  0  0  0  0  0
  184.8340  172.2680  136.7670 C   0  0  0  0  0  3  0  0  0  0  0  0
  183.3040  176.8150  138.0660 C   0  0  0  0  0  3  0  0  0  0  0  0
  187.5720  176.3360  137.4740 C   0  0  2  0  0  3  0  0  0  0  0  0
  182.5840  172.4600  135.9220 O   0  0  0  0  0  1  0  0  0  0  0  0
  186.3120  178.9150  137.6220 O   0  0  0  0  0  0  0  0  0  0  0  0
  181.1180  176.9190  139.6990 Cl  0  0  0  0  0  0  0  0  0  0  0  0
  187.5750  174.8200  137.2930 C   0  0  0  0  0  2  0  0  0  0  0  0
  186.7410  176.9950  136.3650 C   0  0  2  0  0  3  0  0  0  0  0  0
  183.9440  174.4350  136.1690 C   0  0  0  0  0  3  0  0  0  0  0  0
  183.2370  178.6420  139.6520 C   0  0  0  0  0  3  0  0  0  0  0  0
  186.2110  174.2480  137.0240 C   0  0  0  0  0  0  0  0  0  0  0  0
  186.0460  172.8640  137.1260 C   0  0  0  0  0  3  0  0  0  0  0  0
  186.8310  178.4580  136.4200 N   0  0  0  0  0  2  0  0  0  0  0  0
  185.1010  178.4360  138.1220 C   0  0  0  0  0  0  0  0  0  0  0  0
  184.4590  179.1120  139.1630 C   0  0  0  0  0  3  0  0  0  0  0  0
  188.8940  176.7990  137.4500 O   0  0  0  0  0  0  0  0  0  0  0  0
  190.4810  175.5720  138.5450 O   0  0  0  0  0  1  0  0  0  0  0  0
  189.4300  176.4820  138.7060 C   0  0  1  0  0  3  0  0  0  0  0  0
  190.0400  176.5840  142.0230 C   0  0  0  0  0  0  0  0  0  0  0  0
  191.3270  177.4760  140.0320 C   0  0  0  0  0  2  0  0  0  0  0  0
  187.7490  178.5560  140.0720 O   0  0  0  0  0  1  0  0  0  0  0  0
  189.9720  175.6670  143.1900 C   0  0  0  0  0  1  0  0  0  0  0  0
  191.2020  176.5770  141.1810 N   0  0  0  0  0  2  0  0  0  0  0  0
  189.0330  178.2650  140.5320 C   0  0  2  0  0  3  0  0  0  0  0  0
  189.9510  177.7460  139.4100 C   0  0  2  0  0  3  0  0  0  0  0  0
  188.9850  177.3370  141.7110 C   0  0  0  0  0  3  0  0  0  0  0  0
  1  6  1  0  0  0  0
  2  5  1  1  0  0  0
  2  3  1  0  0  0  0
  3  7  2  0  0  0  0
  3 19  1  0  0  0  0
  4 15  2  0  0  0  0
  4 11  1  0  0  0  0
  5 16  2  0  0  0  0
  6 17  2  0  0  0  0
  7  4  1  0  0  0  0
  8 21  1  6  0  0  0
  9  1  1  0  0  0  0
 10 19  1  0  0  0  0
 12  8  1  0  0  0  0
 13 18  1  1  0  0  0
 13  2  1  0  0  0  0
 13  8  1  0  0  0  0
 14  1  2  0  0  0  0
 14  5  1  0  0  0  0
 16 17  1  0  0  0  0
 16 12  1  0  0  0  0
 18 10  1  0  0  0  0
 19 20  2  0  0  0  0
 20 15  1  0  0  0  0
 21 23  1  0  0  0  0
 23 22  1  6  0  0  0
 24 27  1  0  0  0  0
 25 28  1  0  0  0  0
 28 24  1  0  0  0  0
 29 26  1  6  0  0  0
 29 31  1  0  0  0  0
 30 23  1  1  0  0  0
 30 25  1  0  0  0  0
 30 29  1  0  0  0  0
 31 24  2  0  0  0  0
M  END
>  <MODEL>
8

>  <REMARK>
 VINA RESULT:      -8.1      4.116      7.824
  Name = 
  3 active torsions:
  status: ('A' for Active; 'I' for Inactive)
    1  A    between atoms: C_5  and  O_16
    2  A    between atoms: C_5  and  C_30
    3  A    between atoms: C_10  and  O_16
                            x       y       z     vdW  Elec       q    Type
                         _______ _______ _______ _____ _____    ______ ____

>  <TORSDO>
F 3

$$$$
=
 OpenBabel11122410583D

 31 35  0  0  1  0  0  0  0  0999 V2000
  191.4520  176.5110  145.3330 C   0  0  0  0  0  0  0  0  0  0  0  0
  187.9710  177.0130  143.8840 C   0  0  2  0  0  3  0  0  0  0  0  0
  187.1630  177.7160  144.9590 C   0  0  0  0  0  0  0  0  0  0  0  0
  186.7810  178.3430  147.2760 C   0  0  0  0  0  0  0  0  0  0  0  0
  189.4640  177.1460  144.0910 C   0  0  0  0  0  0  0  0  0  0  0  0
  192.2100  177.4190  144.5930 C   0  0  0  0  0  3  0  0  0  0  0  0
  187.5540  177.6980  146.3060 C   0  0  0  0  0  3  0  0  0  0  0  0
  188.1380  178.8700  142.1740 C   0  0  2  0  0  3  0  0  0  0  0  0
  192.0550  175.7450  146.3210 O   0  0  0  0  0  1  0  0  0  0  0  0
  185.5380  178.3340  143.2750 O   0  0  0  0  0  0  0  0  0  0  0  0
  187.2890  178.3270  148.9500 Cl  0  0  0  0  0  0  0  0  0  0  0  0
  189.6640  178.8080  142.1670 C   0  0  0  0  0  2  0  0  0  0  0  0
  187.5580  177.4810  142.4730 C   0  0  2  0  0  3  0  0  0  0  0  0
  190.0860  176.3730  145.0800 C   0  0  0  0  0  3  0  0  0  0  0  0
  185.6040  179.0020  146.9080 C   0  0  0  0  0  3  0  0  0  0  0  0
  190.2350  178.0620  143.3400 C   0  0  0  0  0  0  0  0  0  0  0  0
  191.6050  178.1850  143.5930 C   0  0  0  0  0  3  0  0  0  0  0  0
  186.0970  177.4670  142.3480 N   0  0  0  0  0  2  0  0  0  0  0  0
  185.9580  178.3470  144.6050 C   0  0  0  0  0  0  0  0  0  0  0  0
  185.1930  179.0030  145.5730 C   0  0  0  0  0  3  0  0  0  0  0  0
  187.6970  179.3370  140.9280 O   0  0  0  0  0  0  0  0  0  0  0  0
  186.7990  178.2530  139.1270 O   0  0  0  0  0  1  0  0  0  0  0  0
  187.8580  178.2620  140.0430 C   0  0  1  0  0  3  0  0  0  0  0  0
  188.4250  176.6500  137.1320 C   0  0  0  0  0  0  0  0  0  0  0  0
  188.9580  179.0040  137.9010 C   0  0  0  0  0  2  0  0  0  0  0  0
  190.1810  176.3780  140.2620 O   0  0  0  0  0  1  0  0  0  0  0  0
  187.6950  175.7450  136.2080 C   0  0  0  0  0  1  0  0  0  0  0  0
  188.2440  178.0700  137.0270 N   0  0  0  0  0  2  0  0  0  0  0  0
  189.9080  177.0340  139.0610 C   0  0  2  0  0  3  0  0  0  0  0  0
  189.1890  178.3780  139.2810 C   0  0  2  0  0  3  0  0  0  0  0  0
  189.1670  176.1350  138.1140 C   0  0  0  0  0  3  0  0  0  0  0  0
  1  9  1  0  0  0  0
  2  5  1  1  0  0  0
  2  3  1  0  0  0  0
  3  7  1  0  0  0  0
  4 11  1  0  0  0  0
  5 14  2  0  0  0  0
  6  1  2  0  0  0  0
  7  4  2  0  0  0  0
  8 21  1  6  0  0  0
  8 13  1  0  0  0  0
 10 19  1  0  0  0  0
 12  8  1  0  0  0  0
 12 16  1  0  0  0  0
 13 18  1  1  0  0  0
 13  2  1  0  0  0  0
 14  1  1  0  0  0  0
 15  4  1  0  0  0  0
 16 17  2  0  0  0  0
 16  5  1  0  0  0  0
 17  6  1  0  0  0  0
 18 10  1  0  0  0  0
 19  3  2  0  0  0  0
 19 20  1  0  0  0  0
 20 15  2  0  0  0  0
 23 22  1  6  0  0  0
 23 21  1  0  0  0  0
 24 31  2  0  0  0  0
 25 30  1  0  0  0  0
 27 24  1  0  0  0  0
 28 24  1  0  0  0  0
 28 25  1  0  0  0  0
 29 30  1  0  0  0  0
 29 26  1  1  0  0  0
 30 23  1  6  0  0  0
 31 29  1  0  0  0  0
M  END
>  <MODEL>
9

>  <REMARK>
 VINA RESULT:      -8.1      2.725      3.386
  Name = 
  3 active torsions:
  status: ('A' for Active; 'I' for Inactive)
    1  A    between atoms: C_5  and  O_16
    2  A    between atoms: C_5  and  C_30
    3  A    between atoms: C_10  and  O_16
                            x       y       z     vdW  Elec       q    Type
                         _______ _______ _______ _____ _____    ______ ____

>  <TORSDO>
F 3

$$$$
