=
 OpenBabel11122411273D

 37 43  0  0  1  0  0  0  0  0999 V2000
  181.2790  179.2640  140.0940 O   0  0  0  0  0  0  0  0  0  0  0  0
  185.4990  178.6960  143.0320 C   0  0  0  0  0  0  0  0  0  0  0  0
  184.7190  178.3530  138.7910 C   0  0  1  0  0  3  0  0  0  0  0  0
  179.8940  179.4760  140.2180 C   0  0  2  0  0  3  0  0  0  0  0  0
  182.2400  175.2590  138.7070 C   0  0  0  0  0  2  0  0  0  0  0  0
  186.4040  178.3940  140.6860 C   0  0  1  0  0  3  0  0  0  0  0  0
  183.4030  177.5840  138.9280 C   0  0  1  0  0  3  0  0  0  0  0  0
  179.2830  177.6260  138.5470 C   0  0  2  0  0  3  0  0  0  0  0  0
  185.0350  178.8740  140.1880 C   0  0  2  0  0  3  0  0  0  0  0  0
  183.4200  176.1620  138.3020 C   0  0  2  0  0  3  0  0  0  0  0  0
  187.4360  178.8100  139.7400 N   0  0  0  0  0  2  0  0  0  0  0  0
  179.2050  179.1210  138.8970 C   0  0  0  0  0  2  0  0  0  0  0  0
  183.9190  178.5570  141.1030 N   0  0  2  0  0  0  0  0  0  0  0  0
  184.9750  180.0130  143.5720 C   0  0  0  0  0  1  0  0  0  0  0  0
  185.6910  177.1730  136.7170 C   0  0  0  0  0  2  0  0  0  0  0  0
  187.2540  178.1840  138.4160 C   0  0  0  0  0  2  0  0  0  0  0  0
  184.3520  177.9220  142.3580 C   0  0  0  0  0  2  0  0  0  0  0  0
  180.6260  177.1090  138.8440 N   0  0  2  0  0  0  0  0  0  0  0  0
  180.8640  175.7840  138.2750 C   0  0  0  0  0  2  0  0  0  0  0  0
  185.8800  177.5220  138.1970 C   0  0  1  0  0  3  0  0  0  0  0  0
  183.0470  177.6070  140.4180 C   0  0  1  0  0  3  0  0  0  0  0  0
  186.6620  178.9760  142.0680 C   0  0  0  0  0  2  0  0  0  0  0  0
  183.5800  176.2060  136.7680 C   0  0  1  0  0  3  0  0  0  0  0  0
  186.0170  177.8720  144.1920 C   0  0  0  0  0  1  0  0  0  0  0  0
  180.7070  176.9770  140.1970 O   0  0  0  0  0  0  0  0  0  0  0  0
  178.9350  177.4920  137.0690 C   0  0  0  0  0  1  0  0  0  0  0  0
  181.5770  177.9950  140.6500 C   0  0  2  0  0  3  0  0  0  0  0  0
  184.3510  177.2940  136.2870 O   0  0  0  0  0  0  0  0  0  0  0  0
  183.1420  174.3530  135.2250 C   0  0  0  0  0  3  0  0  0  0  0  0
  183.9530  174.8900  136.1440 C   0  0  0  0  0  0  0  0  0  0  0  0
  185.2820  174.2400  136.4430 C   0  0  0  0  0  2  0  0  0  0  0  0
  186.5620  172.0970  136.3720 C   0  0  0  0  0  1  0  0  0  0  0  0
  184.4590  172.3030  135.0860 C   0  0  0  0  0  3  0  0  0  0  0  0
  185.1810  172.7150  136.3400 C   0  0  2  0  0  3  0  0  0  0  0  0
  183.4740  173.0610  134.5940 C   0  0  0  0  0  3  0  0  0  0  0  0
  179.6290  181.1220  141.9870 N   0  0  0  0  0  1  0  0  0  0  0  0
  179.6260  180.9310  140.5470 C   0  0  0  0  0  2  0  0  0  0  0  0
  1  4  1  0  0  0  0
  1 27  1  0  0  0  0
  2 14  1  0  0  0  0
  2 24  1  0  0  0  0
  3  7  1  0  0  0  0
  3  9  1  0  0  0  0
  4 37  1  0  0  0  0
  6 22  1  0  0  0  0
  7 21  1  0  0  0  0
  8 18  1  0  0  0  0
  8 12  1  0  0  0  0
  9  6  1  0  0  0  0
  9 13  1  0  0  0  0
 10  5  1  0  0  0  0
 10  7  1  0  0  0  0
 11  6  1  0  0  0  0
 12  4  1  0  0  0  0
 13 17  1  0  0  0  0
 15 20  1  0  0  0  0
 16 11  1  0  0  0  0
 17  2  1  0  0  0  0
 18 25  1  0  0  0  0
 19  5  1  0  0  0  0
 19 18  1  0  0  0  0
 20 16  1  0  0  0  0
 20  3  1  0  0  0  0
 21 27  1  0  0  0  0
 21 13  1  0  0  0  0
 22  2  1  0  0  0  0
 23 10  1  0  0  0  0
 25 27  1  0  0  0  0
 26  8  1  0  0  0  0
 28 15  1  0  0  0  0
 28 23  1  0  0  0  0
 29 30  2  0  0  0  0
 30 31  1  0  0  0  0
 30 23  1  0  0  0  0
 33 34  1  0  0  0  0
 34 32  1  0  0  0  0
 34 31  1  0  0  0  0
 35 33  2  0  0  0  0
 35 29  1  0  0  0  0
 37 36  1  0  0  0  0
M  END
>  <MODEL>
1

>  <REMARK>
 VINA RESULT:      -6.7      0.000      0.000
  Name = 
  2 active torsions:
  status: ('A' for Active; 'I' for Inactive)
    1  A    between atoms: C_4  and  C_37
    2  A    between atoms: C_23  and  C_30
                            x       y       z     vdW  Elec       q    Type
                         _______ _______ _______ _____ _____    ______ ____

>  <TORSDO>
F 2

$$$$
=
 OpenBabel11122411273D

 37 43  0  0  1  0  0  0  0  0999 V2000
  184.3960  178.3840  141.7630 O   0  0  0  0  0  0  0  0  0  0  0  0
  181.2970  180.5240  138.2160 C   0  0  0  0  0  0  0  0  0  0  0  0
  183.8830  177.0560  138.2510 C   0  0  1  0  0  3  0  0  0  0  0  0
  184.8990  178.6340  143.0530 C   0  0  2  0  0  3  0  0  0  0  0  0
  187.4430  178.7490  138.6850 C   0  0  0  0  0  2  0  0  0  0  0  0
  182.1210  178.4300  137.0520 C   0  0  1  0  0  3  0  0  0  0  0  0
  185.0560  177.7330  138.9640 C   0  0  1  0  0  3  0  0  0  0  0  0
  187.3190  178.0670  142.4120 C   0  0  2  0  0  3  0  0  0  0  0  0
  182.7050  178.0100  138.4070 C   0  0  2  0  0  3  0  0  0  0  0  0
  186.3650  177.7990  138.1300 C   0  0  2  0  0  3  0  0  0  0  0  0
  181.7200  177.2400  136.3070 N   0  0  0  0  0  2  0  0  0  0  0  0
  186.1150  177.7370  143.3080 C   0  0  0  0  0  2  0  0  0  0  0  0
  183.0910  179.1440  139.2710 N   0  0  2  0  0  0  0  0  0  0  0  0
  180.3640  180.5120  139.4120 C   0  0  0  0  0  1  0  0  0  0  0  0
  185.1870  175.5760  136.5920 C   0  0  0  0  0  2  0  0  0  0  0  0
  182.8730  176.3750  135.9900 C   0  0  0  0  0  2  0  0  0  0  0  0
  182.7560  180.4580  138.7000 C   0  0  0  0  0  2  0  0  0  0  0  0
  186.8670  178.3320  141.0390 N   0  0  2  0  0  0  0  0  0  0  0  0
  187.9660  178.3680  140.0760 C   0  0  0  0  0  2  0  0  0  0  0  0
  184.1600  176.7000  136.7720 C   0  0  1  0  0  3  0  0  0  0  0  0
  184.5410  179.1000  139.4290 C   0  0  1  0  0  3  0  0  0  0  0  0
  180.9350  179.3550  137.2870 C   0  0  0  0  0  2  0  0  0  0  0  0
  186.9510  176.3980  137.8600 C   0  0  1  0  0  3  0  0  0  0  0  0
  181.0980  181.8220  137.4630 C   0  0  0  0  0  1  0  0  0  0  0  0
  186.3040  179.5710  141.0400 O   0  0  0  0  0  0  0  0  0  0  0  0
  188.2700  176.8790  142.4810 C   0  0  0  0  0  1  0  0  0  0  0  0
  184.9110  179.3810  140.8960 C   0  0  2  0  0  3  0  0  0  0  0  0
  185.9840  175.3680  137.7400 O   0  0  0  0  0  0  0  0  0  0  0  0
  187.8980  177.1950  135.7440 C   0  0  0  0  0  3  0  0  0  0  0  0
  188.0000  176.3580  136.7830 C   0  0  0  0  0  0  0  0  0  0  0  0
  189.2230  175.4850  136.9250 C   0  0  0  0  0  2  0  0  0  0  0  0
  191.1020  174.3970  135.6930 C   0  0  0  0  0  1  0  0  0  0  0  0
  189.8020  176.1910  134.5940 C   0  0  0  0  0  3  0  0  0  0  0  0
  189.7360  175.0350  135.5550 C   0  0  2  0  0  3  0  0  0  0  0  0
  188.9060  177.1810  134.6670 C   0  0  0  0  0  3  0  0  0  0  0  0
  184.1110  179.0550  145.3140 N   0  0  0  0  0  1  0  0  0  0  0  0
  183.8300  178.3330  144.0850 C   0  0  0  0  0  2  0  0  0  0  0  0
  1  4  1  0  0  0  0
  2 17  1  0  0  0  0
  2 14  1  0  0  0  0
  3  9  1  0  0  0  0
  3  7  1  0  0  0  0
  4 12  1  0  0  0  0
  4 37  1  0  0  0  0
  5 19  1  0  0  0  0
  6 22  1  0  0  0  0
  6  9  1  0  0  0  0
  7 21  1  0  0  0  0
  8 26  1  0  0  0  0
  8 12  1  0  0  0  0
  9 13  1  0  0  0  0
 10  5  1  0  0  0  0
 10  7  1  0  0  0  0
 11  6  1  0  0  0  0
 13 21  1  0  0  0  0
 15 20  1  0  0  0  0
 15 28  1  0  0  0  0
 16 11  1  0  0  0  0
 16 20  1  0  0  0  0
 17 13  1  0  0  0  0
 18 25  1  0  0  0  0
 18  8  1  0  0  0  0
 19 18  1  0  0  0  0
 20  3  1  0  0  0  0
 21 27  1  0  0  0  0
 22  2  1  0  0  0  0
 23 10  1  0  0  0  0
 24  2  1  0  0  0  0
 27 25  1  0  0  0  0
 27  1  1  0  0  0  0
 28 23  1  0  0  0  0
 29 30  2  0  0  0  0
 30 31  1  0  0  0  0
 30 23  1  0  0  0  0
 33 35  2  0  0  0  0
 33 34  1  0  0  0  0
 34 32  1  0  0  0  0
 34 31  1  0  0  0  0
 35 29  1  0  0  0  0
 37 36  1  0  0  0  0
M  END
>  <MODEL>
2

>  <REMARK>
 VINA RESULT:      -6.5      2.630      5.721
  Name = 
  2 active torsions:
  status: ('A' for Active; 'I' for Inactive)
    1  A    between atoms: C_4  and  C_37
    2  A    between atoms: C_23  and  C_30
                            x       y       z     vdW  Elec       q    Type
                         _______ _______ _______ _____ _____    ______ ____

>  <TORSDO>
F 2

$$$$
=
 OpenBabel11122411273D

 37 43  0  0  1  0  0  0  0  0999 V2000
  183.0970  174.4370  136.4810 O   0  0  0  0  0  0  0  0  0  0  0  0
  187.5660  176.9650  135.8490 C   0  0  0  0  0  0  0  0  0  0  0  0
  184.2620  177.3420  138.6160 C   0  0  1  0  0  3  0  0  0  0  0  0
  182.3160  173.4440  135.8590 C   0  0  2  0  0  3  0  0  0  0  0  0
  181.3210  178.3920  136.1730 C   0  0  0  0  0  2  0  0  0  0  0  0
  186.6010  178.0410  137.9290 C   0  0  1  0  0  3  0  0  0  0  0  0
  183.1550  177.1750  137.5740 C   0  0  1  0  0  3  0  0  0  0  0  0
  180.1400  174.7920  136.0390 C   0  0  2  0  0  3  0  0  0  0  0  0
  185.5500  176.9240  137.9160 C   0  0  2  0  0  3  0  0  0  0  0  0
  182.2210  178.4070  137.4220 C   0  0  2  0  0  3  0  0  0  0  0  0
  186.8740  178.4320  139.3100 N   0  0  0  0  0  2  0  0  0  0  0  0
  180.8880  173.5010  136.4080 C   0  0  0  0  0  2  0  0  0  0  0  0
  185.2390  176.4090  136.5660 N   0  0  2  0  0  0  0  0  0  0  0  0
  188.0610  175.5320  135.7930 C   0  0  0  0  0  1  0  0  0  0  0  0
  183.1690  179.1270  140.1200 C   0  0  0  0  0  2  0  0  0  0  0  0
  185.6820  179.0030  139.9660 C   0  0  0  0  0  2  0  0  0  0  0  0
  186.0670  177.0060  135.5060 C   0  0  0  0  0  2  0  0  0  0  0  0
  181.0340  175.9500  136.1780 N   0  0  2  0  0  0  0  0  0  0  0  0
  180.3240  177.2260  136.1260 C   0  0  0  0  0  2  0  0  0  0  0  0
  184.3560  178.7620  139.2200 C   0  0  1  0  0  3  0  0  0  0  0  0
  183.8510  176.7530  136.2750 C   0  0  1  0  0  3  0  0  0  0  0  0
  187.8640  177.5430  137.2410 C   0  0  0  0  0  2  0  0  0  0  0  0
  181.3920  178.6670  138.6970 C   0  0  1  0  0  3  0  0  0  0  0  0
  188.3190  177.7750  134.8150 C   0  0  0  0  0  1  0  0  0  0  0  0
  181.8800  175.9260  135.1120 O   0  0  0  0  0  0  0  0  0  0  0  0
  178.9310  174.8900  136.9620 C   0  0  0  0  0  1  0  0  0  0  0  0
  183.1490  175.5550  135.6120 C   0  0  2  0  0  3  0  0  0  0  0  0
  182.0400  178.3050  139.9050 O   0  0  0  0  0  0  0  0  0  0  0  0
  179.6010  180.1690  139.4350 C   0  0  0  0  0  3  0  0  0  0  0  0
  180.7430  180.0210  138.7520 C   0  0  0  0  0  0  0  0  0  0  0  0
  181.4250  181.2320  138.1610 C   0  0  0  0  0  2  0  0  0  0  0  0
  181.0810  183.5660  137.3440 C   0  0  0  0  0  1  0  0  0  0  0  0
  179.3280  182.4840  138.7140 C   0  0  0  0  0  3  0  0  0  0  0  0
  180.3960  182.2580  137.6780 C   0  0  2  0  0  3  0  0  0  0  0  0
  178.9340  181.4830  139.5070 C   0  0  0  0  0  3  0  0  0  0  0  0
  183.9570  172.1900  137.1410 N   0  0  0  0  0  1  0  0  0  0  0  0
  182.9080  172.0780  136.1420 C   0  0  0  0  0  2  0  0  0  0  0  0
  2 22  1  0  0  0  0
  3 20  1  0  0  0  0
  4 37  1  0  0  0  0
  4 12  1  0  0  0  0
  4  1  1  0  0  0  0
  5 10  1  0  0  0  0
  6 11  1  0  0  0  0
  7  3  1  0  0  0  0
  8 18  1  0  0  0  0
  8 12  1  0  0  0  0
  8 26  1  0  0  0  0
  9  6  1  0  0  0  0
  9  3  1  0  0  0  0
 10  7  1  0  0  0  0
 10 23  1  0  0  0  0
 11 16  1  0  0  0  0
 13  9  1  0  0  0  0
 14  2  1  0  0  0  0
 17  2  1  0  0  0  0
 17 13  1  0  0  0  0
 19  5  1  0  0  0  0
 19 18  1  0  0  0  0
 20 16  1  0  0  0  0
 20 15  1  0  0  0  0
 21 13  1  0  0  0  0
 21  7  1  0  0  0  0
 22  6  1  0  0  0  0
 23 30  1  0  0  0  0
 23 28  1  0  0  0  0
 24  2  1  0  0  0  0
 25 27  1  0  0  0  0
 25 18  1  0  0  0  0
 27 21  1  0  0  0  0
 27  1  1  0  0  0  0
 28 15  1  0  0  0  0
 29 35  1  0  0  0  0
 30 29  2  0  0  0  0
 31 30  1  0  0  0  0
 32 34  1  0  0  0  0
 33 35  2  0  0  0  0
 34 31  1  0  0  0  0
 34 33  1  0  0  0  0
 37 36  1  0  0  0  0
M  END
>  <MODEL>
3

>  <REMARK>
 VINA RESULT:      -5.9      2.494      6.698
  Name = 
  2 active torsions:
  status: ('A' for Active; 'I' for Inactive)
    1  A    between atoms: C_4  and  C_37
    2  A    between atoms: C_23  and  C_30
                            x       y       z     vdW  Elec       q    Type
                         _______ _______ _______ _____ _____    ______ ____

>  <TORSDO>
F 2

$$$$
=
 OpenBabel11122411273D

 37 43  0  0  1  0  0  0  0  0999 V2000
  180.3520  180.8970  138.6870 O   0  0  0  0  0  0  0  0  0  0  0  0
  180.6430  178.7980  143.4050 C   0  0  0  0  0  0  0  0  0  0  0  0
  183.4620  179.3190  140.1660 C   0  0  1  0  0  3  0  0  0  0  0  0
  179.4050  181.4450  137.8010 C   0  0  2  0  0  3  0  0  0  0  0  0
  181.8440  177.0390  137.3560 C   0  0  0  0  0  2  0  0  0  0  0  0
  183.0270  178.6280  142.5670 C   0  0  1  0  0  3  0  0  0  0  0  0
  182.5030  178.9130  139.0460 C   0  0  1  0  0  3  0  0  0  0  0  0
  180.2460  180.0980  135.7860 C   0  0  2  0  0  3  0  0  0  0  0  0
  182.5900  179.5210  141.4000 C   0  0  2  0  0  3  0  0  0  0  0  0
  182.9350  177.6490  138.2540 C   0  0  2  0  0  3  0  0  0  0  0  0
  184.4280  178.8950  142.8830 N   0  0  0  0  0  2  0  0  0  0  0  0
  179.9940  181.4890  136.3890 C   0  0  0  0  0  2  0  0  0  0  0  0
  181.1660  179.3740  141.0330 N   0  0  2  0  0  0  0  0  0  0  0  0
  179.9580  180.1090  143.7400 C   0  0  0  0  0  1  0  0  0  0  0  0
  185.6340  178.2530  139.2780 C   0  0  0  0  0  2  0  0  0  0  0  0
  185.3210  178.5470  141.7620 C   0  0  0  0  0  2  0  0  0  0  0  0
  180.4230  178.4650  141.9190 C   0  0  0  0  0  2  0  0  0  0  0  0
  180.8220  179.2060  136.8020 N   0  0  2  0  0  0  0  0  0  0  0  0
  181.3530  177.9670  136.2370 C   0  0  0  0  0  2  0  0  0  0  0  0
  184.6090  178.3120  140.4160 C   0  0  1  0  0  3  0  0  0  0  0  0
  181.1170  178.8030  139.6900 C   0  0  1  0  0  3  0  0  0  0  0  0
  182.1320  178.9040  143.7670 C   0  0  0  0  0  2  0  0  0  0  0  0
  184.2380  177.8810  137.4590 C   0  0  1  0  0  3  0  0  0  0  0  0
  180.0180  177.7010  144.2410 C   0  0  0  0  0  1  0  0  0  0  0  0
  179.8080  178.8530  137.6390 O   0  0  0  0  0  0  0  0  0  0  0  0
  181.1800  180.2860  134.5970 C   0  0  0  0  0  1  0  0  0  0  0  0
  180.0410  179.5260  138.8610 C   0  0  2  0  0  3  0  0  0  0  0  0
  185.1440  178.7870  138.0650 O   0  0  0  0  0  0  0  0  0  0  0  0
  185.8480  176.7140  136.0270 C   0  0  0  0  0  3  0  0  0  0  0  0
  184.8960  176.6240  136.9620 C   0  0  0  0  0  0  0  0  0  0  0  0
  184.5890  175.2870  137.5940 C   0  0  0  0  0  2  0  0  0  0  0  0
  184.7010  172.8130  137.2790 C   0  0  0  0  0  1  0  0  0  0  0  0
  186.0240  174.2900  135.8010 C   0  0  0  0  0  3  0  0  0  0  0  0
  184.7420  174.1530  136.5760 C   0  0  2  0  0  3  0  0  0  0  0  0
  186.5130  175.5010  135.5130 C   0  0  0  0  0  3  0  0  0  0  0  0
  179.9050  183.8120  137.5630 N   0  0  0  0  0  1  0  0  0  0  0  0
  179.0500  182.8530  138.2400 C   0  0  0  0  0  2  0  0  0  0  0  0
  1 27  1  0  0  0  0
  2 14  1  0  0  0  0
  2 22  1  0  0  0  0
  2 24  1  0  0  0  0
  3 20  1  0  0  0  0
  3  9  1  0  0  0  0
  4 37  1  0  0  0  0
  4  1  1  0  0  0  0
  5 10  1  0  0  0  0
  6 11  1  0  0  0  0
  6 22  1  0  0  0  0
  7 21  1  0  0  0  0
  7  3  1  0  0  0  0
  8 12  1  0  0  0  0
  8 18  1  0  0  0  0
  9  6  1  0  0  0  0
 10  7  1  0  0  0  0
 12  4  1  0  0  0  0
 13  9  1  0  0  0  0
 13 17  1  0  0  0  0
 15 20  1  0  0  0  0
 16 11  1  0  0  0  0
 17  2  1  0  0  0  0
 18 25  1  0  0  0  0
 19 18  1  0  0  0  0
 19  5  1  0  0  0  0
 20 16  1  0  0  0  0
 21 13  1  0  0  0  0
 23 28  1  0  0  0  0
 23 10  1  0  0  0  0
 25 27  1  0  0  0  0
 26  8  1  0  0  0  0
 27 21  1  0  0  0  0
 28 15  1  0  0  0  0
 29 30  2  0  0  0  0
 30 23  1  0  0  0  0
 30 31  1  0  0  0  0
 33 34  1  0  0  0  0
 34 32  1  0  0  0  0
 34 31  1  0  0  0  0
 35 33  2  0  0  0  0
 35 29  1  0  0  0  0
 36 37  1  0  0  0  0
M  END
>  <MODEL>
4

>  <REMARK>
 VINA RESULT:      -5.8      2.385      3.368
  Name = 
  2 active torsions:
  status: ('A' for Active; 'I' for Inactive)
    1  A    between atoms: C_4  and  C_37
    2  A    between atoms: C_23  and  C_30
                            x       y       z     vdW  Elec       q    Type
                         _______ _______ _______ _____ _____    ______ ____

>  <TORSDO>
F 2

$$$$
=
 OpenBabel11122411273D

 37 43  0  0  1  0  0  0  0  0999 V2000
  183.7390  178.1620  140.5490 O   0  0  0  0  0  0  0  0  0  0  0  0
  180.7710  178.6290  136.3380 C   0  0  0  0  0  0  0  0  0  0  0  0
  183.9690  175.9500  137.4810 C   0  0  1  0  0  3  0  0  0  0  0  0
  184.0080  178.8200  141.7630 C   0  0  2  0  0  3  0  0  0  0  0  0
  187.0300  178.4570  137.7260 C   0  0  0  0  0  2  0  0  0  0  0  0
  182.1420  176.5600  135.8310 C   0  0  1  0  0  3  0  0  0  0  0  0
  184.8780  177.0250  138.0780 C   0  0  1  0  0  3  0  0  0  0  0  0
  186.5540  178.6790  141.4810 C   0  0  2  0  0  3  0  0  0  0  0  0
  182.6140  176.6200  137.2900 C   0  0  2  0  0  3  0  0  0  0  0  0
  186.2470  177.1840  137.3590 C   0  0  2  0  0  3  0  0  0  0  0  0
  182.0880  175.1670  135.3970 N   0  0  0  0  0  2  0  0  0  0  0  0
  185.3330  178.3100  142.3360 C   0  0  0  0  0  2  0  0  0  0  0  0
  182.6490  177.9860  137.8530 N   0  0  2  0  0  0  0  0  0  0  0  0
  179.7100  178.6940  137.4190 C   0  0  0  0  0  1  0  0  0  0  0  0
  185.7480  174.4490  136.3740 C   0  0  0  0  0  2  0  0  0  0  0  0
  183.4210  174.5350  135.4080 C   0  0  0  0  0  2  0  0  0  0  0  0
  182.1370  179.0130  136.9320 C   0  0  0  0  0  2  0  0  0  0  0  0
  186.2450  178.4980  140.0560 N   0  0  2  0  0  0  0  0  0  0  0  0
  187.4310  178.5490  139.2040 C   0  0  0  0  0  2  0  0  0  0  0  0
  184.5030  175.3210  136.1730 C   0  0  1  0  0  3  0  0  0  0  0  0
  184.0450  178.3100  138.1280 C   0  0  1  0  0  3  0  0  0  0  0  0
  180.7750  177.2210  135.7230 C   0  0  0  0  0  2  0  0  0  0  0  0
  187.1310  175.9280  137.5130 C   0  0  1  0  0  3  0  0  0  0  0  0
  180.4190  179.6290  135.2560 C   0  0  0  0  0  1  0  0  0  0  0  0
  185.4510  179.5400  139.6880 O   0  0  0  0  0  0  0  0  0  0  0  0
  187.7060  177.7890  141.9320 C   0  0  0  0  0  1  0  0  0  0  0  0
  184.1540  179.0110  139.4930 C   0  0  2  0  0  3  0  0  0  0  0  0
  186.4130  174.7090  137.5930 O   0  0  0  0  0  0  0  0  0  0  0  0
  188.3700  176.7530  135.5660 C   0  0  0  0  0  3  0  0  0  0  0  0
  188.2990  175.8700  136.5680 C   0  0  0  0  0  0  0  0  0  0  0  0
  189.4460  174.9190  136.8130 C   0  0  0  0  0  2  0  0  0  0  0  0
  191.3980  173.7720  135.7620 C   0  0  0  0  0  1  0  0  0  0  0  0
  190.3420  175.6840  134.6030 C   0  0  0  0  0  3  0  0  0  0  0  0
  190.0970  174.4960  135.4930 C   0  0  2  0  0  3  0  0  0  0  0  0
  189.5000  176.7230  134.6170 C   0  0  0  0  0  3  0  0  0  0  0  0
  182.9770  179.4700  143.8660 N   0  0  0  0  0  1  0  0  0  0  0  0
  182.8930  178.5420  142.7520 C   0  0  0  0  0  2  0  0  0  0  0  0
  1  4  1  0  0  0  0
  2 17  1  0  0  0  0
  2 14  1  0  0  0  0
  3  7  1  0  0  0  0
  4 12  1  0  0  0  0
  4 37  1  0  0  0  0
  5 19  1  0  0  0  0
  6  9  1  0  0  0  0
  7 21  1  0  0  0  0
  8 26  1  0  0  0  0
  8 12  1  0  0  0  0
  9  3  1  0  0  0  0
  9 13  1  0  0  0  0
 10 23  1  0  0  0  0
 10  5  1  0  0  0  0
 10  7  1  0  0  0  0
 11 16  1  0  0  0  0
 11  6  1  0  0  0  0
 13 21  1  0  0  0  0
 15 28  1  0  0  0  0
 16 20  1  0  0  0  0
 17 13  1  0  0  0  0
 18  8  1  0  0  0  0
 19 18  1  0  0  0  0
 20 15  1  0  0  0  0
 20  3  1  0  0  0  0
 21 27  1  0  0  0  0
 22  6  1  0  0  0  0
 22  2  1  0  0  0  0
 23 28  1  0  0  0  0
 24  2  1  0  0  0  0
 25 18  1  0  0  0  0
 27 25  1  0  0  0  0
 27  1  1  0  0  0  0
 29 30  2  0  0  0  0
 30 31  1  0  0  0  0
 30 23  1  0  0  0  0
 33 35  2  0  0  0  0
 33 34  1  0  0  0  0
 34 32  1  0  0  0  0
 34 31  1  0  0  0  0
 35 29  1  0  0  0  0
 37 36  1  0  0  0  0
M  END
>  <MODEL>
5

>  <REMARK>
 VINA RESULT:      -5.8      2.614      5.857
  Name = 
  2 active torsions:
  status: ('A' for Active; 'I' for Inactive)
    1  A    between atoms: C_4  and  C_37
    2  A    between atoms: C_23  and  C_30
                            x       y       z     vdW  Elec       q    Type
                         _______ _______ _______ _____ _____    ______ ____

>  <TORSDO>
F 2

$$$$
=
 OpenBabel11122411273D

 37 43  0  0  1  0  0  0  0  0999 V2000
  184.1710  178.5360  141.8160 O   0  0  0  0  0  0  0  0  0  0  0  0
  181.1590  180.7960  138.2690 C   0  0  0  0  0  0  0  0  0  0  0  0
  183.4760  177.1440  138.3620 C   0  0  1  0  0  3  0  0  0  0  0  0
  184.7220  178.7860  143.0870 C   0  0  2  0  0  3  0  0  0  0  0  0
  187.1620  178.5730  138.6640 C   0  0  0  0  0  2  0  0  0  0  0  0
  181.7950  178.6110  137.1560 C   0  0  1  0  0  3  0  0  0  0  0  0
  184.7130  177.7510  139.0270 C   0  0  1  0  0  3  0  0  0  0  0  0
  187.0750  178.0170  142.4130 C   0  0  2  0  0  3  0  0  0  0  0  0
  182.3770  178.1890  138.5110 C   0  0  2  0  0  3  0  0  0  0  0  0
  186.0030  177.6910  138.1640 C   0  0  2  0  0  3  0  0  0  0  0  0
  181.2870  177.4320  136.4590 N   0  0  0  0  0  2  0  0  0  0  0  0
  185.8710  177.8070  143.3440 C   0  0  0  0  0  2  0  0  0  0  0  0
  182.8680  179.3160  139.3300 N   0  0  2  0  0  0  0  0  0  0  0  0
  180.2560  180.8920  139.4840 C   0  0  0  0  0  1  0  0  0  0  0  0
  184.6240  175.5180  136.7240 C   0  0  0  0  0  2  0  0  0  0  0  0
  182.3630  176.4720  136.1460 C   0  0  0  0  0  2  0  0  0  0  0  0
  182.6200  180.6340  138.7240 C   0  0  0  0  0  2  0  0  0  0  0  0
  186.6130  178.2730  141.0420 N   0  0  2  0  0  0  0  0  0  0  0  0
  187.6880  178.1950  140.0550 C   0  0  0  0  0  2  0  0  0  0  0  0
  183.6900  176.7220  136.8890 C   0  0  1  0  0  3  0  0  0  0  0  0
  184.3140  179.1660  139.4590 C   0  0  1  0  0  3  0  0  0  0  0  0
  180.6880  179.6300  137.3860 C   0  0  0  0  0  2  0  0  0  0  0  0
  186.4750  176.2410  137.9260 C   0  0  1  0  0  3  0  0  0  0  0  0
  181.0410  182.0820  137.4780 C   0  0  0  0  0  1  0  0  0  0  0  0
  186.1450  179.5510  141.0150 O   0  0  0  0  0  0  0  0  0  0  0  0
  187.9350  176.7620  142.5000 C   0  0  0  0  0  1  0  0  0  0  0  0
  184.7380  179.4630  140.9070 C   0  0  2  0  0  3  0  0  0  0  0  0
  185.4310  175.2850  137.8600 O   0  0  0  0  0  0  0  0  0  0  0  0
  187.8630  174.8600  136.4510 C   0  0  0  0  0  3  0  0  0  0  0  0
  187.4920  176.0890  136.8300 C   0  0  0  0  0  0  0  0  0  0  0  0
  187.9960  177.2920  136.0690 C   0  0  0  0  0  2  0  0  0  0  0  0
  189.8180  178.1500  134.5940 C   0  0  0  0  0  1  0  0  0  0  0  0
  189.5730  175.7130  134.9330 C   0  0  0  0  0  3  0  0  0  0  0  0
  189.4280  177.0660  135.5750 C   0  0  2  0  0  3  0  0  0  0  0  0
  188.8610  174.6730  135.3810 C   0  0  0  0  0  3  0  0  0  0  0  0
  184.0890  179.2110  145.3950 N   0  0  0  0  0  1  0  0  0  0  0  0
  183.6570  178.5990  144.1510 C   0  0  0  0  0  2  0  0  0  0  0  0
  1  4  1  0  0  0  0
  2 17  1  0  0  0  0
  2 14  1  0  0  0  0
  3  9  1  0  0  0  0
  3  7  1  0  0  0  0
  4 12  1  0  0  0  0
  4 37  1  0  0  0  0
  5 19  1  0  0  0  0
  6 22  1  0  0  0  0
  6  9  1  0  0  0  0
  7 21  1  0  0  0  0
  8 26  1  0  0  0  0
  8 12  1  0  0  0  0
  9 13  1  0  0  0  0
 10  5  1  0  0  0  0
 10  7  1  0  0  0  0
 11  6  1  0  0  0  0
 13 21  1  0  0  0  0
 15 20  1  0  0  0  0
 15 28  1  0  0  0  0
 16 11  1  0  0  0  0
 16 20  1  0  0  0  0
 17 13  1  0  0  0  0
 18  8  1  0  0  0  0
 19 18  1  0  0  0  0
 20  3  1  0  0  0  0
 21 27  1  0  0  0  0
 22  2  1  0  0  0  0
 23 10  1  0  0  0  0
 24  2  1  0  0  0  0
 25 18  1  0  0  0  0
 27 25  1  0  0  0  0
 27  1  1  0  0  0  0
 28 23  1  0  0  0  0
 29 30  2  0  0  0  0
 30 23  1  0  0  0  0
 31 30  1  0  0  0  0
 32 34  1  0  0  0  0
 33 35  2  0  0  0  0
 33 34  1  0  0  0  0
 34 31  1  0  0  0  0
 35 29  1  0  0  0  0
 37 36  1  0  0  0  0
M  END
>  <MODEL>
6

>  <REMARK>
 VINA RESULT:      -5.3      2.497      5.684
  Name = 
  2 active torsions:
  status: ('A' for Active; 'I' for Inactive)
    1  A    between atoms: C_4  and  C_37
    2  A    between atoms: C_23  and  C_30
                            x       y       z     vdW  Elec       q    Type
                         _______ _______ _______ _____ _____    ______ ____

>  <TORSDO>
F 2

$$$$
=
 OpenBabel11122411273D

 37 43  0  0  1  0  0  0  0  0999 V2000
  191.1680  177.4400  139.9970 O   0  0  0  0  0  0  0  0  0  0  0  0
  188.2250  174.9010  136.5830 C   0  0  0  0  0  0  0  0  0  0  0  0
  187.5480  178.2540  139.2320 C   0  0  1  0  0  3  0  0  0  0  0  0
  192.4400  177.3670  140.5970 C   0  0  2  0  0  3  0  0  0  0  0  0
  187.9560  176.5320  142.7800 C   0  0  0  0  0  2  0  0  0  0  0  0
  186.7040  176.7750  137.3530 C   0  0  1  0  0  3  0  0  0  0  0  0
  188.2620  177.6520  140.4440 C   0  0  1  0  0  3  0  0  0  0  0  0
  191.5390  177.7570  142.9680 C   0  0  2  0  0  3  0  0  0  0  0  0
  187.9330  177.3710  138.0510 C   0  0  2  0  0  3  0  0  0  0  0  0
  187.3500  177.4240  141.6810 C   0  0  2  0  0  3  0  0  0  0  0  0
  185.8230  177.8550  136.9170 N   0  0  0  0  0  2  0  0  0  0  0  0
  192.4650  178.2530  141.8460 C   0  0  0  0  0  2  0  0  0  0  0  0
  188.9240  176.3640  138.4830 N   0  0  2  0  0  0  0  0  0  0  0  0
  189.4730  175.1170  135.7490 C   0  0  0  0  0  1  0  0  0  0  0  0
  185.5930  179.4330  140.4270 C   0  0  0  0  0  2  0  0  0  0  0  0
  185.2940  178.6280  138.0570 C   0  0  0  0  0  2  0  0  0  0  0  0
  188.5820  174.9920  138.0770 C   0  0  0  0  0  2  0  0  0  0  0  0
  190.2590  177.3080  142.4030 N   0  0  2  0  0  0  0  0  0  0  0  0
  189.2310  177.0970  143.4210 C   0  0  0  0  0  2  0  0  0  0  0  0
  186.0160  178.3810  139.3960 C   0  0  1  0  0  3  0  0  0  0  0  0
  188.9630  176.3860  139.9420 C   0  0  1  0  0  3  0  0  0  0  0  0
  187.1630  175.9320  136.1710 C   0  0  0  0  0  2  0  0  0  0  0  0
  186.8310  178.7520  142.2710 C   0  0  1  0  0  3  0  0  0  0  0  0
  187.6910  173.5140  136.2990 C   0  0  0  0  0  1  0  0  0  0  0  0
  190.4870  176.1000  141.8180 O   0  0  0  0  0  0  0  0  0  0  0  0
  191.3580  178.9120  143.9450 C   0  0  0  0  0  1  0  0  0  0  0  0
  190.4230  176.3110  140.4210 C   0  0  2  0  0  3  0  0  0  0  0  0
  186.6330  179.7820  141.3180 O   0  0  0  0  0  0  0  0  0  0  0  0
  184.4310  178.6620  142.7640 C   0  0  0  0  0  3  0  0  0  0  0  0
  185.6830  178.6000  143.2310 C   0  0  0  0  0  0  0  0  0  0  0  0
  185.9270  178.2520  144.6800 C   0  0  0  0  0  2  0  0  0  0  0  0
  184.9300  178.2530  146.9690 C   0  0  0  0  0  1  0  0  0  0  0  0
  183.4630  178.5580  145.0010 C   0  0  0  0  0  3  0  0  0  0  0  0
  184.8270  178.8310  145.5740 C   0  0  2  0  0  3  0  0  0  0  0  0
  183.2810  178.5220  143.6770 C   0  0  0  0  0  3  0  0  0  0  0  0
  193.5550  176.9540  138.4770 N   0  0  0  0  0  1  0  0  0  0  0  0
  193.4930  177.8490  139.6200 C   0  0  0  0  0  2  0  0  0  0  0  0
  1 27  1  0  0  0  0
  1  4  1  0  0  0  0
  2 17  1  0  0  0  0
  3 20  1  0  0  0  0
  3  7  1  0  0  0  0
  4 12  1  0  0  0  0
  5 19  1  0  0  0  0
  6  9  1  0  0  0  0
  7 10  1  0  0  0  0
  8 26  1  0  0  0  0
  9 13  1  0  0  0  0
  9  3  1  0  0  0  0
 10 23  1  0  0  0  0
 10  5  1  0  0  0  0
 11  6  1  0  0  0  0
 11 16  1  0  0  0  0
 12  8  1  0  0  0  0
 13 21  1  0  0  0  0
 14  2  1  0  0  0  0
 15 28  1  0  0  0  0
 16 20  1  0  0  0  0
 17 13  1  0  0  0  0
 18  8  1  0  0  0  0
 18 19  1  0  0  0  0
 20 15  1  0  0  0  0
 21 27  1  0  0  0  0
 21  7  1  0  0  0  0
 22  2  1  0  0  0  0
 22  6  1  0  0  0  0
 23 30  1  0  0  0  0
 24  2  1  0  0  0  0
 25 18  1  0  0  0  0
 27 25  1  0  0  0  0
 28 23  1  0  0  0  0
 29 30  2  0  0  0  0
 29 35  1  0  0  0  0
 30 31  1  0  0  0  0
 31 34  1  0  0  0  0
 33 34  1  0  0  0  0
 34 32  1  0  0  0  0
 35 33  2  0  0  0  0
 36 37  1  0  0  0  0
 37  4  1  0  0  0  0
M  END
>  <MODEL>
7

>  <REMARK>
 VINA RESULT:      -5.1      4.056      9.102
  Name = 
  2 active torsions:
  status: ('A' for Active; 'I' for Inactive)
    1  A    between atoms: C_4  and  C_37
    2  A    between atoms: C_23  and  C_30
                            x       y       z     vdW  Elec       q    Type
                         _______ _______ _______ _____ _____    ______ ____

>  <TORSDO>
F 2

$$$$
=
 OpenBabel11122411273D

 37 43  0  0  1  0  0  0  0  0999 V2000
  188.6650  176.9100  140.4070 O   0  0  0  0  0  0  0  0  0  0  0  0
  186.5530  177.4830  135.7200 C   0  0  0  0  0  0  0  0  0  0  0  0
  189.5140  174.8000  137.3770 C   0  0  1  0  0  3  0  0  0  0  0  0
  188.6860  177.5330  141.6690 C   0  0  2  0  0  3  0  0  0  0  0  0
  192.4320  177.3290  138.2790 C   0  0  0  0  0  2  0  0  0  0  0  0
  188.0280  175.4450  135.4260 C   0  0  1  0  0  3  0  0  0  0  0  0
  190.2750  175.8650  138.1690 C   0  0  1  0  0  3  0  0  0  0  0  0
  191.2410  177.4260  141.8770 C   0  0  2  0  0  3  0  0  0  0  0  0
  188.2100  175.4630  136.9480 C   0  0  2  0  0  3  0  0  0  0  0  0
  191.7530  176.0600  137.7310 C   0  0  2  0  0  3  0  0  0  0  0  0
  188.0800  174.0650  134.9480 N   0  0  0  0  0  2  0  0  0  0  0  0
  189.8840  177.0170  142.4710 C   0  0  0  0  0  2  0  0  0  0  0  0
  188.1150  176.8100  137.5480 N   0  0  2  0  0  0  0  0  0  0  0  0
  185.3030  177.5020  136.5780 C   0  0  0  0  0  1  0  0  0  0  0  0
  191.4960  173.3540  136.5890 C   0  0  0  0  0  2  0  0  0  0  0  0
  189.3970  173.4470  135.1960 C   0  0  0  0  0  2  0  0  0  0  0  0
  187.7730  177.8610  136.5770 C   0  0  0  0  0  2  0  0  0  0  0  0
  191.2130  177.2870  140.4140 N   0  0  2  0  0  0  0  0  0  0  0  0
  192.5400  177.3780  139.8090 C   0  0  0  0  0  2  0  0  0  0  0  0
  190.2990  174.2190  136.1780 C   0  0  1  0  0  3  0  0  0  0  0  0
  189.4280  177.1390  138.0950 C   0  0  1  0  0  3  0  0  0  0  0  0
  186.6970  176.0950  135.0770 C   0  0  0  0  0  2  0  0  0  0  0  0
  192.6110  174.8090  138.0150 C   0  0  1  0  0  3  0  0  0  0  0  0
  186.3980  178.5130  134.6210 C   0  0  0  0  0  1  0  0  0  0  0  0
  190.4880  178.3330  139.9320 O   0  0  0  0  0  0  0  0  0  0  0  0
  192.2990  176.5330  142.5150 C   0  0  0  0  0  1  0  0  0  0  0  0
  189.2620  177.7970  139.4760 C   0  0  2  0  0  3  0  0  0  0  0  0
  191.9110  173.5800  137.9200 O   0  0  0  0  0  0  0  0  0  0  0  0
  194.0790  175.4730  136.1670 C   0  0  0  0  0  3  0  0  0  0  0  0
  193.9390  174.7930  137.3110 C   0  0  0  0  0  0  0  0  0  0  0  0
  195.1420  174.1310  137.9410 C   0  0  0  0  0  2  0  0  0  0  0  0
  197.4100  173.1880  137.4990 C   0  0  0  0  0  1  0  0  0  0  0  0
  196.3370  174.6260  135.7970 C   0  0  0  0  0  3  0  0  0  0  0  0
  196.0970  173.5980  136.8690 C   0  0  2  0  0  3  0  0  0  0  0  0
  195.3660  175.4760  135.4470 C   0  0  0  0  0  3  0  0  0  0  0  0
  187.7060  176.3910  143.5790 N   0  0  0  0  0  1  0  0  0  0  0  0
  187.4070  177.2110  142.4170 C   0  0  0  0  0  2  0  0  0  0  0  0
  1  4  1  0  0  0  0
  2 17  1  0  0  0  0
  2 14  1  0  0  0  0
  3  7  1  0  0  0  0
  4 37  1  0  0  0  0
  4 12  1  0  0  0  0
  5 19  1  0  0  0  0
  6  9  1  0  0  0  0
  8 12  1  0  0  0  0
  8 26  1  0  0  0  0
  9  3  1  0  0  0  0
  9 13  1  0  0  0  0
 10 23  1  0  0  0  0
 10  7  1  0  0  0  0
 10  5  1  0  0  0  0
 11 16  1  0  0  0  0
 11  6  1  0  0  0  0
 13 21  1  0  0  0  0
 15 28  1  0  0  0  0
 16 20  1  0  0  0  0
 17 13  1  0  0  0  0
 18  8  1  0  0  0  0
 19 18  1  0  0  0  0
 20 15  1  0  0  0  0
 20  3  1  0  0  0  0
 21  7  1  0  0  0  0
 21 27  1  0  0  0  0
 22  6  1  0  0  0  0
 22  2  1  0  0  0  0
 24  2  1  0  0  0  0
 25 18  1  0  0  0  0
 27 25  1  0  0  0  0
 27  1  1  0  0  0  0
 28 23  1  0  0  0  0
 29 30  2  0  0  0  0
 30 31  1  0  0  0  0
 30 23  1  0  0  0  0
 33 34  1  0  0  0  0
 34 32  1  0  0  0  0
 34 31  1  0  0  0  0
 35 33  2  0  0  0  0
 35 29  1  0  0  0  0
 37 36  1  0  0  0  0
M  END
>  <MODEL>
8

>  <REMARK>
 VINA RESULT:      -5.0      5.675      9.191
  Name = 
  2 active torsions:
  status: ('A' for Active; 'I' for Inactive)
    1  A    between atoms: C_4  and  C_37
    2  A    between atoms: C_23  and  C_30
                            x       y       z     vdW  Elec       q    Type
                         _______ _______ _______ _____ _____    ______ ____

>  <TORSDO>
F 2

$$$$
=
 OpenBabel11122411273D

 37 43  0  0  1  0  0  0  0  0999 V2000
  182.1650  179.7090  138.5760 O   0  0  0  0  0  0  0  0  0  0  0  0
  184.6740  178.8010  143.0080 C   0  0  0  0  0  0  0  0  0  0  0  0
  185.7900  178.6360  138.8310 C   0  0  1  0  0  3  0  0  0  0  0  0
  180.8710  179.9980  138.1030 C   0  0  2  0  0  3  0  0  0  0  0  0
  183.4680  175.6990  137.5250 C   0  0  0  0  0  2  0  0  0  0  0  0
  186.4910  178.5190  141.2660 C   0  0  1  0  0  3  0  0  0  0  0  0
  184.5140  177.9430  138.3480 C   0  0  1  0  0  3  0  0  0  0  0  0
  180.9690  178.2410  136.2360 C   0  0  2  0  0  3  0  0  0  0  0  0
  185.4920  179.0940  140.2540 C   0  0  2  0  0  3  0  0  0  0  0  0
  184.7430  176.5420  137.7150 C   0  0  2  0  0  3  0  0  0  0  0  0
  187.8470  178.9020  140.8790 N   0  0  0  0  0  2  0  0  0  0  0  0
  180.8070  179.7260  136.5980 C   0  0  0  0  0  2  0  0  0  0  0  0
  184.0780  178.8160  140.5830 N   0  0  2  0  0  0  0  0  0  0  0  0
  184.0220  180.1290  143.3390 C   0  0  0  0  0  1  0  0  0  0  0  0
  187.5150  177.4650  137.3170 C   0  0  0  0  0  2  0  0  0  0  0  0
  188.2290  178.3290  139.5750 C   0  0  0  0  0  2  0  0  0  0  0  0
  183.9010  178.1180  141.8660 C   0  0  0  0  0  2  0  0  0  0  0  0
  182.0290  177.6360  137.0540 N   0  0  2  0  0  0  0  0  0  0  0  0
  182.4370  176.3180  136.5720 C   0  0  0  0  0  2  0  0  0  0  0  0
  187.0590  177.7570  138.7510 C   0  0  1  0  0  3  0  0  0  0  0  0
  183.5510  177.9410  139.5400 C   0  0  1  0  0  3  0  0  0  0  0  0
  186.1500  179.0410  142.6540 C   0  0  0  0  0  2  0  0  0  0  0  0
  185.5520  176.6240  136.4040 C   0  0  1  0  0  3  0  0  0  0  0  0
  184.6070  177.9130  144.2320 C   0  0  0  0  0  1  0  0  0  0  0  0
  181.5130  177.4570  138.3010 O   0  0  0  0  0  0  0  0  0  0  0  0
  181.2880  178.1730  134.7470 C   0  0  0  0  0  1  0  0  0  0  0  0
  182.1420  178.4080  139.1370 C   0  0  2  0  0  3  0  0  0  0  0  0
  186.4970  177.6790  136.3600 O   0  0  0  0  0  0  0  0  0  0  0  0
  187.1390  175.3040  135.0820 C   0  0  0  0  0  3  0  0  0  0  0  0
  186.1050  175.3080  135.9310 C   0  0  0  0  0  0  0  0  0  0  0  0
  185.5950  174.0050  136.4980 C   0  0  0  0  0  2  0  0  0  0  0  0
  185.4540  171.5400  136.1270 C   0  0  0  0  0  1  0  0  0  0  0  0
  187.0590  172.8810  134.8060 C   0  0  0  0  0  3  0  0  0  0  0  0
  185.7070  172.8790  135.4670 C   0  0  2  0  0  3  0  0  0  0  0  0
  187.7040  174.0320  134.5940 C   0  0  0  0  0  3  0  0  0  0  0  0
  181.7640  182.2490  138.3220 N   0  0  0  0  0  1  0  0  0  0  0  0
  180.5470  181.4560  138.3630 C   0  0  0  0  0  2  0  0  0  0  0  0
  1 27  1  0  0  0  0
  2 14  1  0  0  0  0
  2 24  1  0  0  0  0
  3  9  1  0  0  0  0
  4 37  1  0  0  0  0
  4  1  1  0  0  0  0
  5 10  1  0  0  0  0
  6 22  1  0  0  0  0
  7  3  1  0  0  0  0
  7 21  1  0  0  0  0
  8 12  1  0  0  0  0
  8 18  1  0  0  0  0
  9 13  1  0  0  0  0
  9  6  1  0  0  0  0
 10  7  1  0  0  0  0
 11  6  1  0  0  0  0
 12  4  1  0  0  0  0
 13 17  1  0  0  0  0
 15 20  1  0  0  0  0
 16 11  1  0  0  0  0
 17  2  1  0  0  0  0
 18 25  1  0  0  0  0
 19 18  1  0  0  0  0
 19  5  1  0  0  0  0
 20  3  1  0  0  0  0
 20 16  1  0  0  0  0
 21 13  1  0  0  0  0
 22  2  1  0  0  0  0
 23 10  1  0  0  0  0
 25 27  1  0  0  0  0
 26  8  1  0  0  0  0
 27 21  1  0  0  0  0
 28 23  1  0  0  0  0
 28 15  1  0  0  0  0
 29 30  2  0  0  0  0
 30 23  1  0  0  0  0
 30 31  1  0  0  0  0
 33 34  1  0  0  0  0
 34 32  1  0  0  0  0
 34 31  1  0  0  0  0
 35 33  2  0  0  0  0
 35 29  1  0  0  0  0
 36 37  1  0  0  0  0
M  END
>  <MODEL>
9

>  <REMARK>
 VINA RESULT:      -4.8      1.771      2.109
  Name = 
  2 active torsions:
  status: ('A' for Active; 'I' for Inactive)
    1  A    between atoms: C_4  and  C_37
    2  A    between atoms: C_23  and  C_30
                            x       y       z     vdW  Elec       q    Type
                         _______ _______ _______ _____ _____    ______ ____

>  <TORSDO>
F 2

$$$$
