=
 OpenBabel11122410363D

 32 38  0  0  1  0  0  0  0  0999 V2000
  187.0170  177.9240  143.4700 C   0  0  0  0  0  0  0  0  0  0  0  0
  189.6040  177.9710  139.1930 C   0  0  0  0  0  3  0  0  0  0  0  0
  190.7350  177.7430  139.8730 C   0  0  0  0  0  3  0  0  0  0  0  0
  188.3430  177.8570  145.6090 C   0  0  0  0  0  0  0  0  0  0  0  0
  189.7260  177.9310  146.1940 C   0  0  1  0  0  3  0  0  0  0  0  0
  184.6940  178.8450  143.3950 C   0  0  0  0  0  2  0  0  0  0  0  0
  185.8030  178.5190  141.3580 C   0  0  0  0  0  2  0  0  0  0  0  0
  191.7760  176.5400  146.1550 C   0  0  1  0  0  3  0  0  0  0  0  0
  188.2790  177.6430  139.8160 C   0  0  0  0  0  2  0  0  0  0  0  0
  186.9520  177.7090  141.9650 C   0  0  1  0  0  3  0  0  0  0  0  0
  188.2610  178.1070  141.2770 C   0  0  1  0  0  3  0  0  0  0  0  0
  189.4480  177.5100  143.3640 C   0  0  0  0  0  0  0  0  0  0  0  0
  191.2510  176.6060  147.5870 C   0  0  1  0  0  3  0  0  0  0  0  0
  184.5570  178.2510  142.0690 N   0  0  2  0  0  0  0  0  0  0  0  0
  189.8610  177.2550  147.5460 C   0  0  0  0  0  2  0  0  0  0  0  0
  190.6990  177.1460  141.2550 C   0  0  0  0  0  2  0  0  0  0  0  0
  189.4730  177.5850  142.0250 C   0  0  0  0  0  0  0  0  0  0  0  0
  190.6070  177.0540  144.0810 N   0  0  0  0  0  0  0  0  0  0  0  0
  185.7100  178.0540  144.2110 C   0  0  0  0  0  2  0  0  0  0  0  0
  187.3440  177.9330  146.3740 O   0  0  0  0  0  0  0  0  0  0  0  0
  191.2300  175.2960  146.8250 C   0  0  0  0  0  2  0  0  0  0  0  0
  188.1970  177.7930  144.1260 C   0  0  0  0  0  0  0  0  0  0  0  0
  190.7230  177.2110  145.3640 C   0  0  0  0  0  0  0  0  0  0  0  0
  182.7140  178.0940  140.4090 C   0  0  2  0  0  3  0  0  0  0  0  0
  183.5030  178.9850  141.3750 C   0  0  1  0  0  3  0  0  0  0  0  0
  182.1430  178.4370  141.7700 C   0  0  1  0  0  3  0  0  0  0  0  0
  181.1520  179.4760  141.6240 N   0  0  0  0  0  0  0  0  0  0  0  0
  180.1740  179.6350  142.4480 C   0  0  0  0  0  0  0  0  0  0  0  0
  179.9800  178.7450  143.6360 C   0  0  0  0  0  1  0  0  0  0  0  0
  179.2010  180.7370  142.2150 C   0  0  0  0  0  1  0  0  0  0  0  0
  183.1670  176.7720  140.4180 O   0  0  0  0  0  0  0  0  0  0  0  0
  182.4220  176.1380  139.4240 C   0  0  0  0  0  1  0  0  0  0  0  0
  1 22  2  0  0  0  0
  1 19  1  0  0  0  0
  2  9  1  0  0  0  0
  2  3  2  0  0  0  0
  3 16  1  0  0  0  0
  4  5  1  0  0  0  0
  4 20  2  0  0  0  0
  5 15  1  1  0  0  0
  6 19  1  0  0  0  0
  8 21  1  6  0  0  0
  8 13  1  0  0  0  0
 10  7  1  6  0  0  0
 10  1  1  0  0  0  0
 11  9  1  6  0  0  0
 11 10  1  0  0  0  0
 11 17  1  0  0  0  0
 12 18  1  0  0  0  0
 12 22  1  0  0  0  0
 13 21  1  6  0  0  0
 14  7  1  6  0  0  0
 14  6  1  0  0  0  0
 15 13  1  0  0  0  0
 16 17  1  0  0  0  0
 17 12  2  0  0  0  0
 18 23  2  0  0  0  0
 22  4  1  0  0  0  0
 23  8  1  0  0  0  0
 23  5  1  0  0  0  0
 24 31  1  1  0  0  0
 24 25  1  0  0  0  0
 24 26  1  0  0  0  0
 25 26  1  0  0  0  0
 25 14  1  1  0  0  0
 26 27  1  6  0  0  0
 27 28  2  0  0  0  0
 28 29  1  0  0  0  0
 30 28  1  0  0  0  0
 32 31  1  0  0  0  0
M  END
>  <MODEL>
1

>  <REMARK>
 VINA RESULT:      -9.3      0.000      0.000
  Name = 
  3 active torsions:
  status: ('A' for Active; 'I' for Inactive)
    1  A    between atoms: C_1  and  O_16
    2  A    between atoms: C_10  and  N_17
    3  A    between atoms: C_20  and  N_29
                            x       y       z     vdW  Elec       q    Type
                         _______ _______ _______ _____ _____    ______ ____

>  <TORSDO>
F 3

$$$$
=
 OpenBabel11122410363D

 32 38  0  0  1  0  0  0  0  0999 V2000
  186.0370  178.4200  141.5630 C   0  0  0  0  0  0  0  0  0  0  0  0
  183.6570  178.5910  145.9560 C   0  0  0  0  0  3  0  0  0  0  0  0
  184.8020  178.3030  146.5890 C   0  0  0  0  0  3  0  0  0  0  0  0
  188.4130  177.5860  141.5800 C   0  0  0  0  0  0  0  0  0  0  0  0
  189.4850  176.9650  142.4320 C   0  0  1  0  0  3  0  0  0  0  0  0
  184.6150  178.2860  139.5120 C   0  0  0  0  0  2  0  0  0  0  0  0
  183.5490  178.7260  141.5500 C   0  0  0  0  0  2  0  0  0  0  0  0
  190.8590  177.6420  144.3790 C   0  0  1  0  0  3  0  0  0  0  0  0
  183.6940  179.1490  144.5630 C   0  0  0  0  0  2  0  0  0  0  0  0
  184.8460  178.9880  142.3200 C   0  0  1  0  0  3  0  0  0  0  0  0
  184.7250  178.3860  143.7230 C   0  0  1  0  0  3  0  0  0  0  0  0
  187.1810  178.0950  143.7260 C   0  0  0  0  0  0  0  0  0  0  0  0
  191.7780  177.4070  143.1850 C   0  0  1  0  0  3  0  0  0  0  0  0
  183.6720  179.1850  140.1700 N   0  0  2  0  0  0  0  0  0  0  0  0
  190.8960  177.2350  141.9400 C   0  0  0  0  0  2  0  0  0  0  0  0
  186.1330  178.5450  145.9270 C   0  0  0  0  0  2  0  0  0  0  0  0
  186.0650  178.3300  144.4310 C   0  0  0  0  0  0  0  0  0  0  0  0
  188.4490  178.0010  144.3960 N   0  0  0  0  0  0  0  0  0  0  0  0
  186.0180  178.5220  140.0590 C   0  0  0  0  0  2  0  0  0  0  0  0
  188.5690  177.6390  140.3300 O   0  0  0  0  0  0  0  0  0  0  0  0
  191.6040  178.8020  143.7510 C   0  0  0  0  0  2  0  0  0  0  0  0
  187.1510  178.0330  142.2360 C   0  0  0  0  0  0  0  0  0  0  0  0
  189.5010  177.5230  143.8050 C   0  0  0  0  0  0  0  0  0  0  0  0
  181.9150  180.2180  138.7480 C   0  0  2  0  0  3  0  0  0  0  0  0
  182.3720  178.9850  139.5360 C   0  0  1  0  0  3  0  0  0  0  0  0
  182.5190  179.0300  138.0260 C   0  0  1  0  0  3  0  0  0  0  0  0
  181.4660  178.2510  137.4230 N   0  0  0  0  0  0  0  0  0  0  0  0
  181.6890  177.2150  136.6900 C   0  0  0  0  0  0  0  0  0  0  0  0
  183.0750  176.7300  136.3970 C   0  0  0  0  0  1  0  0  0  0  0  0
  180.5350  176.4730  136.1110 C   0  0  0  0  0  1  0  0  0  0  0  0
  182.8500  181.2540  138.7960 O   0  0  0  0  0  0  0  0  0  0  0  0
  182.1650  182.3700  138.3160 C   0  0  0  0  0  1  0  0  0  0  0  0
  1 22  2  0  0  0  0
  1 10  1  0  0  0  0
  2  3  2  0  0  0  0
  4 22  1  0  0  0  0
  4  5  1  0  0  0  0
  5 15  1  6  0  0  0
  5 23  1  0  0  0  0
  6 19  1  0  0  0  0
  8 21  1  6  0  0  0
  9  2  1  0  0  0  0
 10  7  1  6  0  0  0
 10 11  1  0  0  0  0
 11 17  1  0  0  0  0
 11  9  1  1  0  0  0
 12 18  1  0  0  0  0
 12 17  2  0  0  0  0
 13 15  1  6  0  0  0
 13 21  1  0  0  0  0
 13  8  1  0  0  0  0
 14  6  1  6  0  0  0
 14  7  1  0  0  0  0
 16  3  1  0  0  0  0
 17 16  1  0  0  0  0
 19  1  1  0  0  0  0
 20  4  2  0  0  0  0
 22 12  1  0  0  0  0
 23  8  1  0  0  0  0
 23 18  2  0  0  0  0
 24 31  1  1  0  0  0
 24 25  1  0  0  0  0
 25 14  1  1  0  0  0
 26 27  1  6  0  0  0
 26 24  1  0  0  0  0
 26 25  1  0  0  0  0
 28 27  2  0  0  0  0
 29 28  1  0  0  0  0
 30 28  1  0  0  0  0
 32 31  1  0  0  0  0
M  END
>  <MODEL>
2

>  <REMARK>
 VINA RESULT:      -9.1      2.555      4.959
  Name = 
  3 active torsions:
  status: ('A' for Active; 'I' for Inactive)
    1  A    between atoms: C_1  and  O_16
    2  A    between atoms: C_10  and  N_17
    3  A    between atoms: C_20  and  N_29
                            x       y       z     vdW  Elec       q    Type
                         _______ _______ _______ _____ _____    ______ ____

>  <TORSDO>
F 3

$$$$
=
 OpenBabel11122410363D

 32 38  0  0  1  0  0  0  0  0999 V2000
  186.8690  178.1230  142.1470 C   0  0  0  0  0  0  0  0  0  0  0  0
  182.0090  178.9060  143.0130 C   0  0  0  0  0  3  0  0  0  0  0  0
  182.2150  178.7410  144.3260 C   0  0  0  0  0  3  0  0  0  0  0  0
  188.2690  177.3500  144.0920 C   0  0  0  0  0  0  0  0  0  0  0  0
  188.2260  176.8870  145.5220 C   0  0  1  0  0  3  0  0  0  0  0  0
  187.5340  177.6520  139.7840 C   0  0  0  0  0  2  0  0  0  0  0  0
  185.3410  178.3730  140.1750 C   0  0  0  0  0  2  0  0  0  0  0  0
  187.6660  177.8780  147.7220 C   0  0  1  0  0  3  0  0  0  0  0  0
  183.1610  179.2480  142.1140 C   0  0  0  0  0  2  0  0  0  0  0  0
  185.5950  178.7740  141.6310 C   0  0  1  0  0  3  0  0  0  0  0  0
  184.3780  178.3880  142.4750 C   0  0  1  0  0  3  0  0  0  0  0  0
  185.8950  178.1520  144.4140 C   0  0  0  0  0  0  0  0  0  0  0  0
  189.1410  177.4840  147.7190 C   0  0  1  0  0  3  0  0  0  0  0  0
  186.5270  178.6200  139.3620 N   0  0  2  0  0  0  0  0  0  0  0  0
  189.5220  177.1080  146.2800 C   0  0  0  0  0  2  0  0  0  0  0  0
  183.5890  178.9070  144.9200 C   0  0  0  0  0  2  0  0  0  0  0  0
  184.6730  178.4670  143.9610 C   0  0  0  0  0  0  0  0  0  0  0  0
  186.1700  178.1850  145.8240 N   0  0  0  0  0  0  0  0  0  0  0  0
  188.0240  177.9960  141.1850 C   0  0  0  0  0  2  0  0  0  0  0  0
  189.3340  177.2170  143.4300 O   0  0  0  0  0  0  0  0  0  0  0  0
  188.7410  178.9450  147.7810 C   0  0  0  0  0  2  0  0  0  0  0  0
  187.0150  177.8650  143.4710 C   0  0  0  0  0  0  0  0  0  0  0  0
  187.2380  177.6460  146.3260 C   0  0  0  0  0  0  0  0  0  0  0  0
  187.2330  178.7810  136.9840 C   0  0  2  0  0  3  0  0  0  0  0  0
  186.1730  178.3000  137.9820 C   0  0  1  0  0  3  0  0  0  0  0  0
  187.1810  177.3250  137.4010 C   0  0  1  0  0  3  0  0  0  0  0  0
  186.5480  176.5530  136.3600 N   0  0  0  0  0  0  0  0  0  0  0  0
  186.8870  175.3410  136.0790 C   0  0  0  0  0  0  0  0  0  0  0  0
  187.9780  174.6270  136.8160 C   0  0  0  0  0  1  0  0  0  0  0  0
  186.1740  174.6240  134.9870 C   0  0  0  0  0  1  0  0  0  0  0  0
  188.3120  179.4050  137.6170 O   0  0  0  0  0  0  0  0  0  0  0  0
  189.4410  178.8110  137.0540 C   0  0  0  0  0  1  0  0  0  0  0  0
  1 22  2  0  0  0  0
  2  3  2  0  0  0  0
  3 16  1  0  0  0  0
  4  5  1  0  0  0  0
  5 15  1  1  0  0  0
  5 23  1  0  0  0  0
  6 19  1  0  0  0  0
  8 21  1  6  0  0  0
  9  2  1  0  0  0  0
 10  7  1  6  0  0  0
 10  1  1  0  0  0  0
 10 11  1  0  0  0  0
 11  9  1  1  0  0  0
 11 17  1  0  0  0  0
 12 18  1  0  0  0  0
 13 15  1  6  0  0  0
 13  8  1  0  0  0  0
 13 21  1  0  0  0  0
 14  6  1  1  0  0  0
 14  7  1  0  0  0  0
 17 12  2  0  0  0  0
 17 16  1  0  0  0  0
 18 23  2  0  0  0  0
 19  1  1  0  0  0  0
 20  4  2  0  0  0  0
 22  4  1  0  0  0  0
 22 12  1  0  0  0  0
 23  8  1  0  0  0  0
 24 26  1  0  0  0  0
 24 31  1  1  0  0  0
 24 25  1  0  0  0  0
 25 14  1  1  0  0  0
 26 27  1  6  0  0  0
 26 25  1  0  0  0  0
 28 27  2  0  0  0  0
 28 29  1  0  0  0  0
 30 28  1  0  0  0  0
 32 31  1  0  0  0  0
M  END
>  <MODEL>
3

>  <REMARK>
 VINA RESULT:      -9.0      2.838      5.926
  Name = 
  3 active torsions:
  status: ('A' for Active; 'I' for Inactive)
    1  A    between atoms: C_1  and  O_16
    2  A    between atoms: C_10  and  N_17
    3  A    between atoms: C_20  and  N_29
                            x       y       z     vdW  Elec       q    Type
                         _______ _______ _______ _____ _____    ______ ____

>  <TORSDO>
F 3

$$$$
=
 OpenBabel11122410363D

 32 38  0  0  1  0  0  0  0  0999 V2000
  187.7560  177.8810  142.3000 C   0  0  0  0  0  0  0  0  0  0  0  0
  183.1850  178.8960  144.0500 C   0  0  0  0  0  3  0  0  0  0  0  0
  183.6040  178.6450  145.2960 C   0  0  0  0  0  3  0  0  0  0  0  0
  189.4180  176.9180  143.9290 C   0  0  0  0  0  0  0  0  0  0  0  0
  189.5930  176.3780  145.3210 C   0  0  1  0  0  3  0  0  0  0  0  0
  187.9660  177.5070  139.8380 C   0  0  0  0  0  2  0  0  0  0  0  0
  185.9280  178.3320  140.6440 C   0  0  0  0  0  2  0  0  0  0  0  0
  189.4930  177.2730  147.6290 C   0  0  1  0  0  3  0  0  0  0  0  0
  184.1830  179.2210  142.9770 C   0  0  0  0  0  2  0  0  0  0  0  0
  186.4590  178.6340  142.0490 C   0  0  1  0  0  3  0  0  0  0  0  0
  185.3830  178.2730  143.0770 C   0  0  1  0  0  3  0  0  0  0  0  0
  187.1950  177.8380  144.7040 C   0  0  0  0  0  0  0  0  0  0  0  0
  190.9140  176.7950  147.3460 C   0  0  1  0  0  3  0  0  0  0  0  0
  186.9690  178.5560  139.6460 N   0  0  2  0  0  0  0  0  0  0  0  0
  191.0140  176.4800  145.8470 C   0  0  0  0  0  2  0  0  0  0  0  0
  185.0690  178.6960  145.6440 C   0  0  0  0  0  2  0  0  0  0  0  0
  185.9370  178.2500  144.4890 C   0  0  0  0  0  0  0  0  0  0  0  0
  187.7140  177.7750  146.0420 N   0  0  0  0  0  0  0  0  0  0  0  0
  188.7140  177.7420  141.1440 C   0  0  0  0  0  2  0  0  0  0  0  0
  190.3400  176.7610  143.0840 O   0  0  0  0  0  0  0  0  0  0  0  0
  190.6310  178.2710  147.5440 C   0  0  0  0  0  2  0  0  0  0  0  0
  188.1120  177.5410  143.5650 C   0  0  0  0  0  0  0  0  0  0  0  0
  188.8140  177.1460  146.3220 C   0  0  0  0  0  0  0  0  0  0  0  0
  187.2470  178.8350  137.1920 C   0  0  2  0  0  3  0  0  0  0  0  0
  186.3590  178.3360  138.3370 C   0  0  1  0  0  3  0  0  0  0  0  0
  187.1970  177.3590  137.5320 C   0  0  1  0  0  3  0  0  0  0  0  0
  186.3520  176.6780  136.5830 N   0  0  0  0  0  0  0  0  0  0  0  0
  186.5140  175.4420  136.2570 C   0  0  0  0  0  0  0  0  0  0  0  0
  187.6070  174.6000  136.8410 C   0  0  0  0  0  1  0  0  0  0  0  0
  185.5890  174.8250  135.2670 C   0  0  0  0  0  1  0  0  0  0  0  0
  188.4510  179.3750  137.6520 O   0  0  0  0  0  0  0  0  0  0  0  0
  189.4310  178.7750  136.8610 C   0  0  0  0  0  1  0  0  0  0  0  0
  1 22  2  0  0  0  0
  2  3  2  0  0  0  0
  3 16  1  0  0  0  0
  4  5  1  0  0  0  0
  5 15  1  1  0  0  0
  5 23  1  0  0  0  0
  6 19  1  0  0  0  0
  8 21  1  6  0  0  0
  9  2  1  0  0  0  0
 10  7  1  6  0  0  0
 10  1  1  0  0  0  0
 10 11  1  0  0  0  0
 11  9  1  1  0  0  0
 11 17  1  0  0  0  0
 12 18  1  0  0  0  0
 13 15  1  6  0  0  0
 13 21  1  0  0  0  0
 13  8  1  0  0  0  0
 14  6  1  1  0  0  0
 14  7  1  0  0  0  0
 17 12  2  0  0  0  0
 17 16  1  0  0  0  0
 18 23  2  0  0  0  0
 19  1  1  0  0  0  0
 20  4  2  0  0  0  0
 22  4  1  0  0  0  0
 22 12  1  0  0  0  0
 23  8  1  0  0  0  0
 24 26  1  0  0  0  0
 24 31  1  1  0  0  0
 24 25  1  0  0  0  0
 25 14  1  1  0  0  0
 26 27  1  6  0  0  0
 26 25  1  0  0  0  0
 28 27  2  0  0  0  0
 28 29  1  0  0  0  0
 30 28  1  0  0  0  0
 32 31  1  0  0  0  0
M  END
>  <MODEL>
4

>  <REMARK>
 VINA RESULT:      -8.4      2.758      5.580
  Name = 
  3 active torsions:
  status: ('A' for Active; 'I' for Inactive)
    1  A    between atoms: C_1  and  O_16
    2  A    between atoms: C_10  and  N_17
    3  A    between atoms: C_20  and  N_29
                            x       y       z     vdW  Elec       q    Type
                         _______ _______ _______ _____ _____    ______ ____

>  <TORSDO>
F 3

$$$$
=
 OpenBabel11122410363D

 32 38  0  0  1  0  0  0  0  0999 V2000
  185.5090  178.2700  143.4670 C   0  0  0  0  0  0  0  0  0  0  0  0
  189.1520  177.9880  140.0550 C   0  0  0  0  0  3  0  0  0  0  0  0
  190.0590  177.8670  141.0320 C   0  0  0  0  0  3  0  0  0  0  0  0
  186.2100  178.4600  145.8780 C   0  0  0  0  0  0  0  0  0  0  0  0
  187.3850  178.6390  146.7990 C   0  0  1  0  0  3  0  0  0  0  0  0
  183.2850  179.0960  142.6790 C   0  0  0  0  0  2  0  0  0  0  0  0
  184.9030  178.6110  141.0580 C   0  0  0  0  0  2  0  0  0  0  0  0
  189.3800  177.3250  147.4540 C   0  0  1  0  0  3  0  0  0  0  0  0
  187.7100  177.6760  140.3330 C   0  0  0  0  0  2  0  0  0  0  0  0
  185.8530  177.9060  142.0300 C   0  0  1  0  0  3  0  0  0  0  0  0
  187.2960  178.2800  141.6790 C   0  0  1  0  0  3  0  0  0  0  0  0
  187.8820  177.9330  144.0570 C   0  0  0  0  0  0  0  0  0  0  0  0
  188.4890  177.5130  148.6780 C   0  0  1  0  0  3  0  0  0  0  0  0
  183.5140  178.3700  141.4340 N   0  0  2  0  0  0  0  0  0  0  0  0
  187.1560  178.1050  148.2010 C   0  0  0  0  0  2  0  0  0  0  0  0
  189.6570  177.4080  142.4090 C   0  0  0  0  0  2  0  0  0  0  0  0
  188.2650  177.8770  142.7730 C   0  0  0  0  0  0  0  0  0  0  0  0
  188.8080  177.5920  145.1010 N   0  0  0  0  0  0  0  0  0  0  0  0
  184.0500  178.4260  143.8140 C   0  0  0  0  0  2  0  0  0  0  0  0
  185.0420  178.5750  146.3360 O   0  0  0  0  0  0  0  0  0  0  0  0
  188.6830  176.1340  148.0790 C   0  0  0  0  0  2  0  0  0  0  0  0
  186.4700  178.2450  144.4240 C   0  0  0  0  0  0  0  0  0  0  0  0
  188.5730  177.8770  146.3450 C   0  0  0  0  0  0  0  0  0  0  0  0
  181.8450  177.9690  139.6360 C   0  0  2  0  0  3  0  0  0  0  0  0
  182.6800  178.9940  140.4110 C   0  0  1  0  0  3  0  0  0  0  0  0
  181.2130  178.7890  140.7420 C   0  0  1  0  0  3  0  0  0  0  0  0
  180.4410  179.8600  140.1610 N   0  0  0  0  0  0  0  0  0  0  0  0
  179.6900  180.6430  140.8560 C   0  0  0  0  0  0  0  0  0  0  0  0
  179.5520  180.5050  142.3400 C   0  0  0  0  0  1  0  0  0  0  0  0
  178.9310  181.7220  140.1650 C   0  0  0  0  0  1  0  0  0  0  0  0
  182.0540  176.6640  140.0910 O   0  0  0  0  0  0  0  0  0  0  0  0
  181.3230  175.8640  139.2140 C   0  0  0  0  0  1  0  0  0  0  0  0
  1 19  1  0  0  0  0
  1 22  2  0  0  0  0
  2  9  1  0  0  0  0
  2  3  2  0  0  0  0
  3 16  1  0  0  0  0
  4 20  2  0  0  0  0
  4  5  1  0  0  0  0
  5 15  1  1  0  0  0
  6 19  1  0  0  0  0
  8 21  1  6  0  0  0
  8 13  1  0  0  0  0
 10  7  1  6  0  0  0
 10  1  1  0  0  0  0
 11  9  1  6  0  0  0
 11 10  1  0  0  0  0
 11 17  1  0  0  0  0
 12 22  1  0  0  0  0
 12 18  1  0  0  0  0
 13 21  1  6  0  0  0
 14  7  1  6  0  0  0
 14  6  1  0  0  0  0
 15 13  1  0  0  0  0
 16 17  1  0  0  0  0
 17 12  2  0  0  0  0
 18 23  2  0  0  0  0
 22  4  1  0  0  0  0
 23  5  1  0  0  0  0
 23  8  1  0  0  0  0
 24 31  1  1  0  0  0
 24 25  1  0  0  0  0
 24 26  1  0  0  0  0
 25 26  1  0  0  0  0
 25 14  1  1  0  0  0
 26 27  1  6  0  0  0
 27 28  2  0  0  0  0
 28 29  1  0  0  0  0
 30 28  1  0  0  0  0
 32 31  1  0  0  0  0
M  END
>  <MODEL>
5

>  <REMARK>
 VINA RESULT:      -8.3      1.446      1.889
  Name = 
  3 active torsions:
  status: ('A' for Active; 'I' for Inactive)
    1  A    between atoms: C_1  and  O_16
    2  A    between atoms: C_10  and  N_17
    3  A    between atoms: C_20  and  N_29
                            x       y       z     vdW  Elec       q    Type
                         _______ _______ _______ _____ _____    ______ ____

>  <TORSDO>
F 3

$$$$
=
 OpenBabel11122410363D

 32 38  0  0  1  0  0  0  0  0999 V2000
  186.4930  178.2530  142.8860 C   0  0  0  0  0  0  0  0  0  0  0  0
  190.7230  177.6420  140.2940 C   0  0  0  0  0  3  0  0  0  0  0  0
  191.4060  177.5020  141.4380 C   0  0  0  0  0  3  0  0  0  0  0  0
  186.7040  178.4840  145.3850 C   0  0  0  0  0  0  0  0  0  0  0  0
  187.6780  178.6260  146.5220 C   0  0  1  0  0  3  0  0  0  0  0  0
  184.5310  179.1800  141.6450 C   0  0  0  0  0  2  0  0  0  0  0  0
  186.4090  178.5460  140.3980 C   0  0  0  0  0  2  0  0  0  0  0  0
  189.4120  177.2220  147.5980 C   0  0  1  0  0  3  0  0  0  0  0  0
  189.2380  177.4240  140.2790 C   0  0  0  0  0  2  0  0  0  0  0  0
  187.0950  177.8200  141.5580 C   0  0  1  0  0  3  0  0  0  0  0  0
  188.6000  178.0970  141.5000 C   0  0  1  0  0  3  0  0  0  0  0  0
  188.6720  177.7990  143.9540 C   0  0  0  0  0  0  0  0  0  0  0  0
  188.3050  177.5030  148.6100 C   0  0  1  0  0  3  0  0  0  0  0  0
  184.9600  178.3990  140.4880 N   0  0  2  0  0  0  0  0  0  0  0  0
  187.1370  178.1550  147.8590 C   0  0  0  0  0  2  0  0  0  0  0  0
  190.7050  177.1150  142.7130 C   0  0  0  0  0  2  0  0  0  0  0  0
  189.3020  177.6760  142.7770 C   0  0  0  0  0  0  0  0  0  0  0  0
  189.3440  177.4400  145.1720 N   0  0  0  0  0  0  0  0  0  0  0  0
  185.0070  178.5050  142.9260 C   0  0  0  0  0  2  0  0  0  0  0  0
  185.4770  178.6830  145.5930 O   0  0  0  0  0  0  0  0  0  0  0  0
  188.5280  176.0950  148.0940 C   0  0  0  0  0  2  0  0  0  0  0  0
  187.2370  178.2050  144.0200 C   0  0  0  0  0  0  0  0  0  0  0  0
  188.8820  177.7810  146.3360 C   0  0  0  0  0  0  0  0  0  0  0  0
  183.2800  178.1930  138.6680 C   0  0  2  0  0  3  0  0  0  0  0  0
  184.3910  179.0360  139.3040 C   0  0  1  0  0  3  0  0  0  0  0  0
  182.9320  179.3760  139.5480 C   0  0  1  0  0  3  0  0  0  0  0  0
  182.5600  180.4960  138.7190 N   0  0  0  0  0  0  0  0  0  0  0  0
  181.3920  181.0400  138.7540 C   0  0  0  0  0  0  0  0  0  0  0  0
  180.3120  180.5500  139.6680 C   0  0  0  0  0  1  0  0  0  0  0  0
  181.1020  182.1940  137.8590 C   0  0  0  0  0  1  0  0  0  0  0  0
  183.0450  177.0090  139.3720 O   0  0  0  0  0  0  0  0  0  0  0  0
  181.6560  176.9060  139.4350 C   0  0  0  0  0  1  0  0  0  0  0  0
  1 19  1  0  0  0  0
  1 22  2  0  0  0  0
  2  3  2  0  0  0  0
  3 16  1  0  0  0  0
  4 20  2  0  0  0  0
  4  5  1  0  0  0  0
  5 15  1  1  0  0  0
  6 19  1  0  0  0  0
  8 21  1  6  0  0  0
  8 13  1  0  0  0  0
  9  2  1  0  0  0  0
 10  7  1  6  0  0  0
 10  1  1  0  0  0  0
 11  9  1  6  0  0  0
 11 10  1  0  0  0  0
 11 17  1  0  0  0  0
 12 22  1  0  0  0  0
 12 18  1  0  0  0  0
 13 15  1  6  0  0  0
 14  7  1  6  0  0  0
 14  6  1  0  0  0  0
 16 17  1  0  0  0  0
 17 12  2  0  0  0  0
 18 23  2  0  0  0  0
 21 13  1  0  0  0  0
 22  4  1  0  0  0  0
 23  5  1  0  0  0  0
 23  8  1  0  0  0  0
 24 25  1  0  0  0  0
 24 31  1  1  0  0  0
 24 26  1  0  0  0  0
 25 26  1  0  0  0  0
 25 14  1  1  0  0  0
 26 27  1  6  0  0  0
 27 28  2  0  0  0  0
 28 29  1  0  0  0  0
 30 28  1  0  0  0  0
 31 32  1  0  0  0  0
M  END
>  <MODEL>
6

>  <REMARK>
 VINA RESULT:      -8.2      1.842      2.295
  Name = 
  3 active torsions:
  status: ('A' for Active; 'I' for Inactive)
    1  A    between atoms: C_1  and  O_16
    2  A    between atoms: C_10  and  N_17
    3  A    between atoms: C_20  and  N_29
                            x       y       z     vdW  Elec       q    Type
                         _______ _______ _______ _____ _____    ______ ____

>  <TORSDO>
F 3

$$$$
=
 OpenBabel11122410363D

 32 38  0  0  1  0  0  0  0  0999 V2000
  189.1010  177.4380  140.1790 C   0  0  0  0  0  0  0  0  0  0  0  0
  190.9400  177.1530  144.8180 C   0  0  0  0  0  3  0  0  0  0  0  0
  189.7560  177.5370  145.3130 C   0  0  0  0  0  3  0  0  0  0  0  0
  186.8120  178.4530  139.9150 C   0  0  0  0  0  0  0  0  0  0  0  0
  185.7010  179.1680  140.6330 C   0  0  1  0  0  3  0  0  0  0  0  0
  190.7560  177.4310  138.3050 C   0  0  0  0  0  2  0  0  0  0  0  0
  191.5430  176.9410  140.4550 C   0  0  0  0  0  2  0  0  0  0  0  0
  184.0640  178.6280  142.4120 C   0  0  1  0  0  3  0  0  0  0  0  0
  191.0200  176.5780  143.4340 C   0  0  0  0  0  2  0  0  0  0  0  0
  190.1490  176.7920  141.0720 C   0  0  1  0  0  3  0  0  0  0  0  0
  190.1550  177.4040  142.4750 C   0  0  1  0  0  3  0  0  0  0  0  0
  187.7450  177.8830  142.1930 C   0  0  0  0  0  0  0  0  0  0  0  0
  183.3090  178.9150  141.1180 C   0  0  1  0  0  3  0  0  0  0  0  0
  191.5440  176.4720  139.0740 N   0  0  2  0  0  0  0  0  0  0  0  0
  184.3390  178.9990  139.9830 C   0  0  0  0  0  2  0  0  0  0  0  0
  188.4950  177.3880  144.5020 C   0  0  0  0  0  2  0  0  0  0  0  0
  188.7520  177.5740  143.0230 C   0  0  0  0  0  0  0  0  0  0  0  0
  186.4200  178.0850  142.7100 N   0  0  0  0  0  0  0  0  0  0  0  0
  189.2860  177.3120  138.6870 C   0  0  0  0  0  2  0  0  0  0  0  0
  186.7970  178.3930  138.6560 O   0  0  0  0  0  0  0  0  0  0  0  0
  183.3080  177.5190  141.7090 C   0  0  0  0  0  2  0  0  0  0  0  0
  187.9520  177.9200  140.7150 C   0  0  0  0  0  0  0  0  0  0  0  0
  185.4840  178.6340  141.9990 C   0  0  0  0  0  0  0  0  0  0  0  0
  193.4000  175.2510  137.9600 C   0  0  2  0  0  3  0  0  0  0  0  0
  192.9200  176.5620  138.5930 C   0  0  1  0  0  3  0  0  0  0  0  0
  192.9540  176.4040  137.0840 C   0  0  1  0  0  3  0  0  0  0  0  0
  194.1130  177.0840  136.5610 N   0  0  0  0  0  0  0  0  0  0  0  0
  194.6760  176.7610  135.4480 C   0  0  0  0  0  0  0  0  0  0  0  0
  194.1700  175.6380  134.5960 C   0  0  0  0  0  1  0  0  0  0  0  0
  195.8690  177.5230  134.9890 C   0  0  0  0  0  1  0  0  0  0  0  0
  192.4100  174.2650  137.9660 O   0  0  0  0  0  0  0  0  0  0  0  0
  192.7060  173.4620  136.8660 C   0  0  0  0  0  1  0  0  0  0  0  0
  1 22  2  0  0  0  0
  1 10  1  0  0  0  0
  2  3  2  0  0  0  0
  4  5  1  0  0  0  0
  4 22  1  0  0  0  0
  5 15  1  6  0  0  0
  5 23  1  0  0  0  0
  6 19  1  0  0  0  0
  8 21  1  6  0  0  0
  9  2  1  0  0  0  0
 10  7  1  6  0  0  0
 10 11  1  0  0  0  0
 11 17  1  0  0  0  0
 11  9  1  1  0  0  0
 12 18  1  0  0  0  0
 12 17  2  0  0  0  0
 13 15  1  6  0  0  0
 13 21  1  0  0  0  0
 13  8  1  0  0  0  0
 14  6  1  6  0  0  0
 14  7  1  0  0  0  0
 16  3  1  0  0  0  0
 17 16  1  0  0  0  0
 19  1  1  0  0  0  0
 20  4  2  0  0  0  0
 22 12  1  0  0  0  0
 23  8  1  0  0  0  0
 23 18  2  0  0  0  0
 24 31  1  1  0  0  0
 24 25  1  0  0  0  0
 25 14  1  1  0  0  0
 26 27  1  6  0  0  0
 26 24  1  0  0  0  0
 26 25  1  0  0  0  0
 28 27  2  0  0  0  0
 29 28  1  0  0  0  0
 30 28  1  0  0  0  0
 32 31  1  0  0  0  0
M  END
>  <MODEL>
7

>  <REMARK>
 VINA RESULT:      -8.2      3.711      9.060
  Name = 
  3 active torsions:
  status: ('A' for Active; 'I' for Inactive)
    1  A    between atoms: C_1  and  O_16
    2  A    between atoms: C_10  and  N_17
    3  A    between atoms: C_20  and  N_29
                            x       y       z     vdW  Elec       q    Type
                         _______ _______ _______ _____ _____    ______ ____

>  <TORSDO>
F 3

$$$$
=
 OpenBabel11122410363D

 32 38  0  0  1  0  0  0  0  0999 V2000
  185.9270  178.1590  142.2220 C   0  0  0  0  0  0  0  0  0  0  0  0
  187.3760  178.3280  147.0030 C   0  0  0  0  0  3  0  0  0  0  0  0
  186.1170  178.5930  147.3770 C   0  0  0  0  0  3  0  0  0  0  0  0
  183.5680  178.8780  141.7140 C   0  0  0  0  0  0  0  0  0  0  0  0
  182.3230  179.4890  142.2960 C   0  0  1  0  0  3  0  0  0  0  0  0
  187.7280  178.2550  140.4920 C   0  0  0  0  0  2  0  0  0  0  0  0
  188.3760  177.9720  142.7230 C   0  0  0  0  0  2  0  0  0  0  0  0
  180.6110  178.8480  143.9680 C   0  0  1  0  0  3  0  0  0  0  0  0
  187.6410  177.6980  145.6670 C   0  0  0  0  0  2  0  0  0  0  0  0
  186.9610  177.6880  143.2340 C   0  0  1  0  0  3  0  0  0  0  0  0
  186.7740  178.3660  144.5940 C   0  0  1  0  0  3  0  0  0  0  0  0
  184.3590  178.5390  144.0900 C   0  0  0  0  0  0  0  0  0  0  0  0
  179.9440  178.9770  142.6020 C   0  0  1  0  0  3  0  0  0  0  0  0
  188.5510  177.4370  141.3770 N   0  0  2  0  0  0  0  0  0  0  0  0
  181.0520  179.1270  141.5500 C   0  0  0  0  0  2  0  0  0  0  0  0
  184.9570  178.2540  146.4780 C   0  0  0  0  0  2  0  0  0  0  0  0
  185.3180  178.3940  145.0160 C   0  0  0  0  0  0  0  0  0  0  0  0
  182.9790  178.6070  144.4860 N   0  0  0  0  0  0  0  0  0  0  0  0
  186.2530  177.9810  140.7600 C   0  0  0  0  0  2  0  0  0  0  0  0
  183.6690  178.7530  140.4640 O   0  0  0  0  0  0  0  0  0  0  0  0
  180.0520  177.6230  143.2740 C   0  0  0  0  0  2  0  0  0  0  0  0
  184.6870  178.5260  142.6340 C   0  0  0  0  0  0  0  0  0  0  0  0
  182.0510  179.0030  143.6700 C   0  0  0  0  0  0  0  0  0  0  0  0
  190.8970  176.6750  141.6810 C   0  0  2  0  0  3  0  0  0  0  0  0
  189.9440  177.6670  141.0040 C   0  0  1  0  0  3  0  0  0  0  0  0
  190.4800  176.4700  140.2390 C   0  0  1  0  0  3  0  0  0  0  0  0
  191.5450  176.9020  139.3680 N   0  0  0  0  0  0  0  0  0  0  0  0
  191.9340  176.2240  138.3430 C   0  0  0  0  0  0  0  0  0  0  0  0
  191.3080  174.9160  137.9680 C   0  0  0  0  0  1  0  0  0  0  0  0
  193.0420  176.7530  137.5010 C   0  0  0  0  0  1  0  0  0  0  0  0
  190.2210  175.7600  142.4930 O   0  0  0  0  0  0  0  0  0  0  0  0
  191.0580  175.5790  143.5930 C   0  0  0  0  0  1  0  0  0  0  0  0
  1 22  2  0  0  0  0
  1 10  1  0  0  0  0
  2  3  2  0  0  0  0
  4  5  1  0  0  0  0
  4 22  1  0  0  0  0
  5 15  1  6  0  0  0
  5 23  1  0  0  0  0
  6 19  1  0  0  0  0
  8 21  1  6  0  0  0
  9  2  1  0  0  0  0
 10  7  1  6  0  0  0
 10 11  1  0  0  0  0
 11 17  1  0  0  0  0
 11  9  1  1  0  0  0
 12 18  1  0  0  0  0
 12 17  2  0  0  0  0
 13 15  1  6  0  0  0
 13 21  1  0  0  0  0
 13  8  1  0  0  0  0
 14  6  1  6  0  0  0
 14  7  1  0  0  0  0
 16  3  1  0  0  0  0
 17 16  1  0  0  0  0
 19  1  1  0  0  0  0
 20  4  2  0  0  0  0
 22 12  1  0  0  0  0
 23  8  1  0  0  0  0
 23 18  2  0  0  0  0
 24 31  1  1  0  0  0
 25 14  1  1  0  0  0
 25 24  1  0  0  0  0
 26 27  1  6  0  0  0
 26 25  1  0  0  0  0
 26 24  1  0  0  0  0
 28 27  2  0  0  0  0
 29 28  1  0  0  0  0
 30 28  1  0  0  0  0
 31 32  1  0  0  0  0
M  END
>  <MODEL>
8

>  <REMARK>
 VINA RESULT:      -8.1      2.231      8.418
  Name = 
  3 active torsions:
  status: ('A' for Active; 'I' for Inactive)
    1  A    between atoms: C_1  and  O_16
    2  A    between atoms: C_10  and  N_17
    3  A    between atoms: C_20  and  N_29
                            x       y       z     vdW  Elec       q    Type
                         _______ _______ _______ _____ _____    ______ ____

>  <TORSDO>
F 3

$$$$
=
 OpenBabel11122410363D

 32 38  0  0  1  0  0  0  0  0999 V2000
  188.6150  177.4700  142.6590 C   0  0  0  0  0  0  0  0  0  0  0  0
  183.8700  178.6400  141.6050 C   0  0  0  0  0  3  0  0  0  0  0  0
  183.5990  178.7220  142.9140 C   0  0  0  0  0  3  0  0  0  0  0  0
  189.1750  177.0210  145.0720 C   0  0  0  0  0  0  0  0  0  0  0  0
  188.5970  176.8460  146.4490 C   0  0  1  0  0  3  0  0  0  0  0  0
  189.9840  176.5190  140.7960 C   0  0  0  0  0  2  0  0  0  0  0  0
  187.8850  177.4070  140.2610 C   0  0  0  0  0  2  0  0  0  0  0  0
  187.4400  178.2700  148.1140 C   0  0  1  0  0  3  0  0  0  0  0  0
  185.2910  178.7450  141.1290 C   0  0  0  0  0  2  0  0  0  0  0  0
  187.6740  178.0700  141.6250 C   0  0  1  0  0  3  0  0  0  0  0  0
  186.2070  177.9140  142.0340 C   0  0  1  0  0  3  0  0  0  0  0  0
  186.9390  177.9840  144.3960 C   0  0  0  0  0  0  0  0  0  0  0  0
  188.7740  177.8120  148.6980 C   0  0  1  0  0  3  0  0  0  0  0  0
  189.2970  177.4350  139.8910 N   0  0  2  0  0  0  0  0  0  0  0  0
  189.5760  177.1470  147.5700 C   0  0  0  0  0  2  0  0  0  0  0  0
  184.6990  178.9330  143.9200 C   0  0  0  0  0  2  0  0  0  0  0  0
  185.9870  178.2650  143.4930 C   0  0  0  0  0  0  0  0  0  0  0  0
  186.7220  178.2770  145.7860 N   0  0  0  0  0  0  0  0  0  0  0  0
  190.0050  177.1030  142.2030 C   0  0  0  0  0  2  0  0  0  0  0  0
  190.3790  176.7110  144.8620 O   0  0  0  0  0  0  0  0  0  0  0  0
  188.5440  179.2750  148.3730 C   0  0  0  0  0  2  0  0  0  0  0  0
  188.2720  177.4660  143.9710 C   0  0  0  0  0  0  0  0  0  0  0  0
  187.4880  177.7930  146.7150 C   0  0  0  0  0  0  0  0  0  0  0  0
  189.2910  177.9440  137.4590 C   0  0  2  0  0  3  0  0  0  0  0  0
  189.3980  176.8710  138.5480 C   0  0  1  0  0  3  0  0  0  0  0  0
  190.6450  177.3950  137.8590 C   0  0  1  0  0  3  0  0  0  0  0  0
  191.0810  176.4350  136.8740 N   0  0  0  0  0  0  0  0  0  0  0  0
  192.2410  175.8750  136.9040 C   0  0  0  0  0  0  0  0  0  0  0  0
  193.2450  176.1770  137.9740 C   0  0  0  0  0  1  0  0  0  0  0  0
  192.6010  174.8950  135.8430 C   0  0  0  0  0  1  0  0  0  0  0  0
  189.1360  179.2270  137.9920 O   0  0  0  0  0  0  0  0  0  0  0  0
  188.1930  179.8390  137.1680 C   0  0  0  0  0  1  0  0  0  0  0  0
  1 22  2  0  0  0  0
  2  3  2  0  0  0  0
  3 16  1  0  0  0  0
  4  5  1  0  0  0  0
  5 23  1  0  0  0  0
  5 15  1  1  0  0  0
  6 19  1  0  0  0  0
  8 21  1  6  0  0  0
  8 13  1  0  0  0  0
  9  2  1  0  0  0  0
 10  7  1  6  0  0  0
 10 11  1  0  0  0  0
 10  1  1  0  0  0  0
 11  9  1  6  0  0  0
 11 17  1  0  0  0  0
 12 18  1  0  0  0  0
 13 15  1  6  0  0  0
 14  7  1  1  0  0  0
 14  6  1  0  0  0  0
 17 16  1  0  0  0  0
 17 12  2  0  0  0  0
 18 23  2  0  0  0  0
 19  1  1  0  0  0  0
 20  4  2  0  0  0  0
 21 13  1  0  0  0  0
 22 12  1  0  0  0  0
 22  4  1  0  0  0  0
 23  8  1  0  0  0  0
 24 26  1  0  0  0  0
 24 31  1  1  0  0  0
 24 25  1  0  0  0  0
 25 14  1  1  0  0  0
 26 27  1  6  0  0  0
 26 25  1  0  0  0  0
 27 28  2  0  0  0  0
 28 29  1  0  0  0  0
 30 28  1  0  0  0  0
 32 31  1  0  0  0  0
M  END
>  <MODEL>
9

>  <REMARK>
 VINA RESULT:      -8.1      2.816      6.788
  Name = 
  3 active torsions:
  status: ('A' for Active; 'I' for Inactive)
    1  A    between atoms: C_1  and  O_16
    2  A    between atoms: C_10  and  N_17
    3  A    between atoms: C_20  and  N_29
                            x       y       z     vdW  Elec       q    Type
                         _______ _______ _______ _____ _____    ______ ____

>  <TORSDO>
F 3

$$$$
