=
 OpenBabel11122410283D

 30 35  0  0  1  0  0  0  0  0999 V2000
  186.1240  178.5770  141.9850 C   0  0  0  0  0  0  0  0  0  0  0  0
  183.6940  178.9220  141.9670 C   0  0  0  0  0  0  0  0  0  0  0  0
  186.0400  177.8610  146.1530 N   0  0  0  0  0  0  0  0  0  0  0  0
  187.4610  178.4470  142.7240 C   0  0  2  0  0  3  0  0  0  0  0  0
  186.2110  178.6910  140.5160 C   0  0  0  0  0  3  0  0  0  0  0  0
  189.3600  177.1610  139.8740 O   0  0  0  0  0  0  0  0  0  0  0  0
  190.2150  177.8690  143.7090 C   0  0  1  0  0  3  0  0  0  0  0  0
  188.4110  177.6600  140.5390 C   0  0  0  0  0  0  0  0  0  0  0  0
  189.5110  177.7150  144.9720 N   0  0  0  0  0  0  0  0  0  0  0  0
  187.3060  177.6710  146.3640 C   0  0  0  0  0  0  0  0  0  0  0  0
  187.2850  178.2900  139.8290 C   0  0  0  0  0  0  0  0  0  0  0  0
  188.4270  177.6080  141.9790 N   0  0  0  0  0  0  0  0  0  0  0  0
  182.4870  178.9890  142.6660 C   0  0  0  0  0  3  0  0  0  0  0  0
  190.4230  177.3260  145.9820 C   0  0  0  0  0  3  0  0  0  0  0  0
  191.6530  177.4520  144.0210 C   0  0  0  0  0  2  0  0  0  0  0  0
  183.6390  179.1510  140.6300 F   0  0  0  0  0  0  0  0  0  0  0  0
  185.9410  178.1040  144.7510 C   0  0  0  0  0  0  0  0  0  0  0  0
  182.4460  178.7810  144.0400 C   0  0  0  0  0  3  0  0  0  0  0  0
  184.9160  178.6480  142.6470 C   0  0  0  0  0  0  0  0  0  0  0  0
  187.2330  178.0180  144.1400 C   0  0  0  0  0  0  0  0  0  0  0  0
  187.8550  177.3970  147.7200 C   0  0  0  0  0  1  0  0  0  0  0  0
  188.0890  177.7920  145.1210 C   0  0  0  0  0  0  0  0  0  0  0  0
  191.6390  177.1770  145.4920 C   0  0  0  0  0  3  0  0  0  0  0  0
  189.3060  175.5600  143.0400 C   0  0  0  0  0  1  0  0  0  0  0  0
  183.6160  178.4940  144.7320 C   0  0  0  0  0  3  0  0  0  0  0  0
  184.8430  178.4190  144.0610 C   0  0  0  0  0  0  0  0  0  0  0  0
  189.6030  176.9910  142.6080 C   0  0  2  0  0  3  0  0  0  0  0  0
  187.3420  178.4130  138.3990 N   0  0  0  0  0  0  0  0  0  0  0  0
  186.7190  177.9280  136.1220 C   0  0  0  0  0  1  0  0  0  0  0  0
  186.5920  177.7350  137.5900 C   0  0  0  0  0  3  0  0  0  0  0  0
  1 19  2  0  0  0  0
  2 19  1  0  0  0  0
  2 13  2  0  0  0  0
  3 10  2  0  0  0  0
  4  1  1  6  0  0  0
  4 20  1  0  0  0  0
  5  1  1  0  0  0  0
  6  8  2  0  0  0  0
  7 15  1  1  0  0  0
  7  9  1  0  0  0  0
  8 12  1  0  0  0  0
  9 22  1  0  0  0  0
  9 14  1  0  0  0  0
 10 21  1  0  0  0  0
 11  5  2  0  0  0  0
 11  8  1  0  0  0  0
 12 27  1  0  0  0  0
 12  4  1  0  0  0  0
 13 18  1  0  0  0  0
 15 23  1  0  0  0  0
 16  2  1  0  0  0  0
 17  3  1  0  0  0  0
 18 25  2  0  0  0  0
 19 26  1  0  0  0  0
 20 17  1  0  0  0  0
 20 22  2  0  0  0  0
 22 10  1  0  0  0  0
 23 14  2  0  0  0  0
 26 25  1  0  0  0  0
 26 17  2  0  0  0  0
 27 24  1  1  0  0  0
 27  7  1  0  0  0  0
 28 11  1  0  0  0  0
 29 30  1  0  0  0  0
 30 28  2  0  0  0  0
M  END
>  <MODEL>
1

>  <REMARK>
 VINA RESULT:     -10.9      0.000      0.000
  Name = 
  1 active torsions:
  status: ('A' for Active; 'I' for Inactive)
    1  A    between atoms: C_11  and  N_28
                            x       y       z     vdW  Elec       q    Type
                         _______ _______ _______ _____ _____    ______ ____

>  <TORSDO>
F 1

$$$$
=
 OpenBabel11122410283D

 30 35  0  0  1  0  0  0  0  0999 V2000
  189.3730  176.7750  143.4110 C   0  0  0  0  0  0  0  0  0  0  0  0
  191.3280  176.3210  144.8230 C   0  0  0  0  0  0  0  0  0  0  0  0
  187.1270  177.9230  146.8060 N   0  0  0  0  0  0  0  0  0  0  0  0
  187.8740  177.0430  143.2300 C   0  0  0  0  0  0  0  0  0  0  0  0
  190.1310  176.5110  142.1720 C   0  0  0  0  0  3  0  0  0  0  0  0
  188.0840  178.1050  139.7360 O   0  0  0  0  0  0  0  0  0  0  0  0
  185.1240  177.8460  142.4040 C   0  0  1  0  0  3  0  0  0  0  0  0
  188.4270  177.6370  140.8560 C   0  0  0  0  0  0  0  0  0  0  0  0
  184.9900  178.1000  143.8290 N   0  0  0  0  0  0  0  0  0  0  0  0
  185.9940  178.1910  146.2340 C   0  0  2  0  0  3  0  0  0  0  0  0
  189.6890  176.8850  140.9680 C   0  0  0  0  0  0  0  0  0  0  0  0
  187.5960  177.8420  142.0150 N   0  0  0  0  0  0  0  0  0  0  0  0
  191.9050  176.2730  146.0940 C   0  0  0  0  0  3  0  0  0  0  0  0
  183.7080  178.6350  144.0990 C   0  0  0  0  0  3  0  0  0  0  0  0
  183.8160  178.3580  141.8000 C   0  0  0  0  0  2  0  0  0  0  0  0
  192.1150  175.9500  143.7810 F   0  0  0  0  0  0  0  0  0  0  0  0
  187.9850  177.5280  145.7380 C   0  0  0  0  0  0  0  0  0  0  0  0
  191.1720  176.6230  147.2220 C   0  0  0  0  0  3  0  0  0  0  0  0
  189.9710  176.7200  144.6530 C   0  0  0  0  0  0  0  0  0  0  0  0
  187.2920  177.6080  144.4880 C   0  0  0  0  0  0  0  0  0  0  0  0
  184.7980  178.6320  147.0030 C   0  0  0  0  0  1  0  0  0  0  0  0
  186.0550  177.9750  144.7780 C   0  0  0  0  0  0  0  0  0  0  0  0
  183.0130  178.7860  142.9880 C   0  0  0  0  0  3  0  0  0  0  0  0
  186.4740  180.0280  142.2460 C   0  0  0  0  0  1  0  0  0  0  0  0
  189.8510  177.0340  147.0910 C   0  0  0  0  0  3  0  0  0  0  0  0
  189.2440  177.0930  145.8320 C   0  0  0  0  0  0  0  0  0  0  0  0
  186.3380  178.5740  141.8090 C   0  0  2  0  0  3  0  0  0  0  0  0
  190.4490  176.6140  139.7790 N   0  0  0  0  0  0  0  0  0  0  0  0
  192.3970  176.6330  138.3610 C   0  0  0  0  0  1  0  0  0  0  0  0
  191.6890  176.9550  139.6270 C   0  0  0  0  0  3  0  0  0  0  0  0
  1 19  1  0  0  0  0
  2 13  1  0  0  0  0
  4  1  2  0  0  0  0
  4 20  1  0  0  0  0
  5  1  1  0  0  0  0
  6  8  2  0  0  0  0
  7 15  1  6  0  0  0
  7  9  1  0  0  0  0
  8 11  1  0  0  0  0
  8 12  1  0  0  0  0
  9 14  1  0  0  0  0
  9 22  1  0  0  0  0
 10  3  1  0  0  0  0
 10 21  1  1  0  0  0
 11  5  2  0  0  0  0
 12  4  1  0  0  0  0
 13 18  2  0  0  0  0
 15 23  1  0  0  0  0
 16  2  1  0  0  0  0
 17 26  1  0  0  0  0
 17  3  2  0  0  0  0
 19  2  2  0  0  0  0
 19 26  1  0  0  0  0
 20 22  2  0  0  0  0
 20 17  1  0  0  0  0
 22 10  1  0  0  0  0
 23 14  2  0  0  0  0
 25 18  1  0  0  0  0
 26 25  2  0  0  0  0
 27 12  1  0  0  0  0
 27 24  1  1  0  0  0
 27  7  1  0  0  0  0
 28 11  1  0  0  0  0
 29 30  1  0  0  0  0
 30 28  2  0  0  0  0
M  END
>  <MODEL>
2

>  <REMARK>
 VINA RESULT:     -10.8      2.484      5.550
  Name = 
  1 active torsions:
  status: ('A' for Active; 'I' for Inactive)
    1  A    between atoms: C_11  and  N_28
                            x       y       z     vdW  Elec       q    Type
                         _______ _______ _______ _____ _____    ______ ____

>  <TORSDO>
F 1

$$$$
=
 OpenBabel11122410283D

 30 35  0  0  1  0  0  0  0  0999 V2000
  187.1510  178.4120  140.7930 C   0  0  0  0  0  0  0  0  0  0  0  0
  184.8560  178.7540  139.9960 C   0  0  0  0  0  0  0  0  0  0  0  0
  185.7590  177.9700  144.7630 N   0  0  0  0  0  0  0  0  0  0  0  0
  188.1880  178.3300  141.9190 C   0  0  2  0  0  3  0  0  0  0  0  0
  187.6940  178.4280  139.4200 C   0  0  0  0  0  3  0  0  0  0  0  0
  190.8540  176.8600  139.8900 O   0  0  0  0  0  0  0  0  0  0  0  0
  190.4860  177.8170  143.7490 C   0  0  1  0  0  3  0  0  0  0  0  0
  189.7560  177.4010  140.1930 C   0  0  0  0  0  0  0  0  0  0  0  0
  189.4210  177.7470  144.7360 N   0  0  0  0  0  0  0  0  0  0  0  0
  186.8910  177.7940  145.3690 C   0  0  0  0  0  0  0  0  0  0  0  0
  188.9200  177.9830  139.1290 C   0  0  0  0  0  0  0  0  0  0  0  0
  189.3220  177.4430  141.5660 N   0  0  0  0  0  0  0  0  0  0  0  0
  183.4920  178.8680  140.2770 C   0  0  0  0  0  3  0  0  0  0  0  0
  189.9650  177.4240  146.0020 C   0  0  0  0  0  3  0  0  0  0  0  0
  191.7460  177.4210  144.5190 C   0  0  0  0  0  2  0  0  0  0  0  0
  185.2250  178.8950  138.6970 F   0  0  0  0  0  0  0  0  0  0  0  0
  186.1060  178.1210  143.3880 C   0  0  0  0  0  0  0  0  0  0  0  0
  183.0210  178.7500  141.5800 C   0  0  0  0  0  3  0  0  0  0  0  0
  185.7990  178.5260  141.0390 C   0  0  0  0  0  0  0  0  0  0  0  0
  187.5220  177.9950  143.2170 C   0  0  0  0  0  0  0  0  0  0  0  0
  186.9850  177.6090  146.8430 C   0  0  0  0  0  1  0  0  0  0  0  0
  188.0250  177.8340  144.4280 C   0  0  0  0  0  0  0  0  0  0  0  0
  191.2700  177.2440  145.9260 C   0  0  0  0  0  3  0  0  0  0  0  0
  189.7830  175.4690  142.9740 C   0  0  0  0  0  1  0  0  0  0  0  0
  183.9120  178.5100  142.6200 C   0  0  0  0  0  3  0  0  0  0  0  0
  185.2840  178.3910  142.3710 C   0  0  0  0  0  0  0  0  0  0  0  0
  190.2300  176.8690  142.5690 C   0  0  2  0  0  3  0  0  0  0  0  0
  189.4220  178.0120  137.7840 N   0  0  0  0  0  0  0  0  0  0  0  0
  189.3520  177.6590  135.4010 C   0  0  0  0  0  1  0  0  0  0  0  0
  188.7520  177.5900  136.7590 C   0  0  0  0  0  3  0  0  0  0  0  0
  1 19  2  0  0  0  0
  2 13  2  0  0  0  0
  2 19  1  0  0  0  0
  3 10  2  0  0  0  0
  4  1  1  6  0  0  0
  4 20  1  0  0  0  0
  5  1  1  0  0  0  0
  6  8  2  0  0  0  0
  7 15  1  1  0  0  0
  7  9  1  0  0  0  0
  8 12  1  0  0  0  0
  9 14  1  0  0  0  0
 10 21  1  0  0  0  0
 11  5  2  0  0  0  0
 11  8  1  0  0  0  0
 12  4  1  0  0  0  0
 12 27  1  0  0  0  0
 13 18  1  0  0  0  0
 15 23  1  0  0  0  0
 16  2  1  0  0  0  0
 17  3  1  0  0  0  0
 18 25  2  0  0  0  0
 19 26  1  0  0  0  0
 20 17  1  0  0  0  0
 20 22  2  0  0  0  0
 22  9  1  0  0  0  0
 22 10  1  0  0  0  0
 23 14  2  0  0  0  0
 26 25  1  0  0  0  0
 26 17  2  0  0  0  0
 27 24  1  1  0  0  0
 27  7  1  0  0  0  0
 28 11  1  0  0  0  0
 29 30  1  0  0  0  0
 30 28  2  0  0  0  0
M  END
>  <MODEL>
3

>  <REMARK>
 VINA RESULT:     -10.1      1.289      1.621
  Name = 
  1 active torsions:
  status: ('A' for Active; 'I' for Inactive)
    1  A    between atoms: C_11  and  N_28
                            x       y       z     vdW  Elec       q    Type
                         _______ _______ _______ _____ _____    ______ ____

>  <TORSDO>
F 1

$$$$
=
 OpenBabel11122410283D

 30 35  0  0  1  0  0  0  0  0999 V2000
  187.9310  177.4650  145.2520 C   0  0  0  0  0  0  0  0  0  0  0  0
  186.0780  178.0230  146.7600 C   0  0  0  0  0  0  0  0  0  0  0  0
  185.6320  178.6590  141.9070 N   0  0  0  0  0  0  0  0  0  0  0  0
  188.4930  177.1910  143.8520 C   0  0  0  0  0  0  0  0  0  0  0  0
  188.8320  177.1520  146.3780 C   0  0  0  0  0  3  0  0  0  0  0  0
  192.0210  177.3500  144.8090 O   0  0  0  0  0  0  0  0  0  0  0  0
  190.0840  176.8480  141.3530 C   0  0  1  0  0  3  0  0  0  0  0  0
  190.7640  177.3130  144.9130 C   0  0  0  0  0  0  0  0  0  0  0  0
  188.8780  177.3960  140.7530 N   0  0  0  0  0  0  0  0  0  0  0  0
  186.4810  178.4030  140.9610 C   0  0  0  0  0  0  0  0  0  0  0  0
  190.1570  177.0520  146.2290 C   0  0  0  0  0  0  0  0  0  0  0  0
  189.9320  177.5280  143.7560 N   0  0  0  0  0  0  0  0  0  0  0  0
  184.7700  178.4810  146.9360 C   0  0  0  0  0  3  0  0  0  0  0  0
  189.0670  177.5480  139.3580 C   0  0  0  0  0  3  0  0  0  0  0  0
  191.0770  176.7520  140.1950 C   0  0  0  0  0  2  0  0  0  0  0  0
  186.7570  177.6710  147.8820 F   0  0  0  0  0  0  0  0  0  0  0  0
  186.3130  178.3010  143.1080 C   0  0  2  0  0  3  0  0  0  0  0  0
  183.9930  178.8540  145.8450 C   0  0  0  0  0  3  0  0  0  0  0  0
  186.6440  177.9160  145.4570 C   0  0  0  0  0  0  0  0  0  0  0  0
  187.6360  177.8400  142.8110 C   0  0  0  0  0  0  0  0  0  0  0  0
  186.1610  178.6200  139.5230 C   0  0  0  0  0  1  0  0  0  0  0  0
  187.7420  177.8570  141.4930 C   0  0  0  0  0  0  0  0  0  0  0  0
  190.2840  177.1870  139.0020 C   0  0  0  0  0  3  0  0  0  0  0  0
  190.6600  179.2310  142.1250 C   0  0  0  0  0  1  0  0  0  0  0  0
  184.5190  178.7790  144.5610 C   0  0  0  0  0  3  0  0  0  0  0  0
  185.8260  178.3240  144.3510 C   0  0  0  0  0  0  0  0  0  0  0  0
  190.6190  177.7490  142.4760 C   0  0  2  0  0  3  0  0  0  0  0  0
  191.0090  176.7450  147.3440 N   0  0  0  0  0  0  0  0  0  0  0  0
  192.8060  175.6280  148.4980 C   0  0  0  0  0  1  0  0  0  0  0  0
  191.9730  175.8820  147.2940 C   0  0  0  0  0  3  0  0  0  0  0  0
  1 19  1  0  0  0  0
  1  5  1  0  0  0  0
  2 13  1  0  0  0  0
  2 16  1  0  0  0  0
  4  1  2  0  0  0  0
  6  8  2  0  0  0  0
  7 15  1  6  0  0  0
  7 27  1  0  0  0  0
  8 11  1  0  0  0  0
  9  7  1  0  0  0  0
  9 22  1  0  0  0  0
 10 22  1  0  0  0  0
 10  3  2  0  0  0  0
 11  5  2  0  0  0  0
 11 28  1  0  0  0  0
 12  4  1  0  0  0  0
 12  8  1  0  0  0  0
 14  9  1  0  0  0  0
 17  3  1  6  0  0  0
 17 26  1  0  0  0  0
 18 13  2  0  0  0  0
 19  2  2  0  0  0  0
 20 17  1  0  0  0  0
 20  4  1  0  0  0  0
 21 10  1  0  0  0  0
 22 20  2  0  0  0  0
 23 14  2  0  0  0  0
 23 15  1  0  0  0  0
 25 18  1  0  0  0  0
 26 25  2  0  0  0  0
 26 19  1  0  0  0  0
 27 24  1  6  0  0  0
 27 12  1  0  0  0  0
 30 28  2  0  0  0  0
 30 29  1  0  0  0  0
M  END
>  <MODEL>
4

>  <REMARK>
 VINA RESULT:      -8.9      2.512      5.822
  Name = 
  1 active torsions:
  status: ('A' for Active; 'I' for Inactive)
    1  A    between atoms: C_11  and  N_28
                            x       y       z     vdW  Elec       q    Type
                         _______ _______ _______ _____ _____    ______ ____

>  <TORSDO>
F 1

$$$$
=
 OpenBabel11122410283D

 30 35  0  0  1  0  0  0  0  0999 V2000
  185.6170  178.2400  142.3180 C   0  0  0  0  0  0  0  0  0  0  0  0
  186.4250  178.4260  144.6270 C   0  0  0  0  0  0  0  0  0  0  0  0
  181.6560  179.0030  143.5900 N   0  0  0  0  0  0  0  0  0  0  0  0
  184.4870  178.0870  141.2940 C   0  0  0  0  0  0  0  0  0  0  0  0
  186.9870  178.0940  141.7870 C   0  0  0  0  0  3  0  0  0  0  0  0
  186.5060  178.9030  138.3550 O   0  0  0  0  0  0  0  0  0  0  0  0
  182.6460  178.0700  138.9480 C   0  0  1  0  0  3  0  0  0  0  0  0
  186.2060  178.6280  139.5490 C   0  0  0  0  0  0  0  0  0  0  0  0
  181.6650  178.3850  139.9730 N   0  0  0  0  0  0  0  0  0  0  0  0
  181.0440  178.9180  142.4500 C   0  0  0  0  0  0  0  0  0  0  0  0
  187.2730  178.2470  140.4900 C   0  0  0  0  0  0  0  0  0  0  0  0
  184.8350  178.6910  139.9870 N   0  0  0  0  0  0  0  0  0  0  0  0
  186.1510  178.6280  145.9820 C   0  0  0  0  0  3  0  0  0  0  0  0
  180.3960  178.5800  139.3760 C   0  0  0  0  0  3  0  0  0  0  0  0
  181.8710  178.1710  137.6340 C   0  0  0  0  0  2  0  0  0  0  0  0
  187.7220  178.2000  144.2940 F   0  0  0  0  0  0  0  0  0  0  0  0
  183.0290  178.7710  143.2800 C   0  0  2  0  0  3  0  0  0  0  0  0
  184.8510  178.8550  146.4190 C   0  0  0  0  0  3  0  0  0  0  0  0
  185.3780  178.4380  143.6610 C   0  0  0  0  0  0  0  0  0  0  0  0
  183.1930  178.5700  141.8720 C   0  0  0  0  0  0  0  0  0  0  0  0
  179.5700  179.0820  142.3230 C   0  0  0  0  0  1  0  0  0  0  0  0
  181.9790  178.6170  141.3510 C   0  0  0  0  0  0  0  0  0  0  0  0
  180.4660  178.4580  138.0640 C   0  0  0  0  0  3  0  0  0  0  0  0
  183.4310  180.5130  139.0930 C   0  0  0  0  0  1  0  0  0  0  0  0
  183.8070  178.8900  145.5020 C   0  0  0  0  0  3  0  0  0  0  0  0
  184.0490  178.6920  144.1380 C   0  0  0  0  0  0  0  0  0  0  0  0
  183.8300  179.0470  138.9760 C   0  0  2  0  0  3  0  0  0  0  0  0
  188.6160  178.0990  140.0030 N   0  0  0  0  0  0  0  0  0  0  0  0
  190.8280  177.1470  139.9010 C   0  0  0  0  0  1  0  0  0  0  0  0
  189.4560  177.2300  140.4670 C   0  0  0  0  0  3  0  0  0  0  0  0
  1 19  1  0  0  0  0
  2 13  1  0  0  0  0
  4 20  1  0  0  0  0
  4  1  2  0  0  0  0
  5  1  1  0  0  0  0
  6  8  2  0  0  0  0
  7 15  1  6  0  0  0
  7 27  1  0  0  0  0
  7  9  1  0  0  0  0
  8 12  1  0  0  0  0
  8 11  1  0  0  0  0
  9 22  1  0  0  0  0
 10  3  2  0  0  0  0
 11  5  2  0  0  0  0
 12  4  1  0  0  0  0
 13 18  2  0  0  0  0
 14  9  1  0  0  0  0
 15 23  1  0  0  0  0
 16  2  1  0  0  0  0
 17 20  1  1  0  0  0
 17  3  1  0  0  0  0
 17 26  1  0  0  0  0
 19 26  1  0  0  0  0
 19  2  2  0  0  0  0
 21 10  1  0  0  0  0
 22 20  2  0  0  0  0
 22 10  1  0  0  0  0
 23 14  2  0  0  0  0
 25 18  1  0  0  0  0
 26 25  2  0  0  0  0
 27 24  1  1  0  0  0
 27 12  1  0  0  0  0
 28 30  2  0  0  0  0
 28 11  1  0  0  0  0
 29 30  1  0  0  0  0
M  END
>  <MODEL>
5

>  <REMARK>
 VINA RESULT:      -8.9      2.873      6.366
  Name = 
  1 active torsions:
  status: ('A' for Active; 'I' for Inactive)
    1  A    between atoms: C_11  and  N_28
                            x       y       z     vdW  Elec       q    Type
                         _______ _______ _______ _____ _____    ______ ____

>  <TORSDO>
F 1

$$$$
=
 OpenBabel11122410283D

 30 35  0  0  1  0  0  0  0  0999 V2000
  185.4960  178.5450  141.7070 C   0  0  0  0  0  0  0  0  0  0  0  0
  185.4090  178.2530  144.1420 C   0  0  0  0  0  0  0  0  0  0  0  0
  189.5400  177.3060  141.6530 N   0  0  0  0  0  0  0  0  0  0  0  0
  186.2730  178.6690  140.3910 C   0  0  0  0  0  0  0  0  0  0  0  0
  184.0560  178.8630  141.6330 C   0  0  0  0  0  3  0  0  0  0  0  0
  183.3780  178.2890  138.1870 O   0  0  0  0  0  0  0  0  0  0  0  0
  187.3060  178.6980  137.5940 C   0  0  1  0  0  3  0  0  0  0  0  0
  184.0550  178.4380  139.2410 C   0  0  0  0  0  0  0  0  0  0  0  0
  188.5080  178.2090  138.2500 N   0  0  0  0  0  0  0  0  0  0  0  0
  189.7830  177.4220  140.3840 C   0  0  0  0  0  0  0  0  0  0  0  0
  183.3750  178.8430  140.4840 C   0  0  0  0  0  0  0  0  0  0  0  0
  185.4780  178.2090  139.2300 N   0  0  0  0  0  0  0  0  0  0  0  0
  186.0560  177.9180  145.3330 C   0  0  0  0  0  3  0  0  0  0  0  0
  189.5050  177.9410  137.2800 C   0  0  0  0  0  3  0  0  0  0  0  0
  187.6300  178.6280  136.1020 C   0  0  0  0  0  2  0  0  0  0  0  0
  184.1080  178.6280  144.2380 F   0  0  0  0  0  0  0  0  0  0  0  0
  188.1740  177.6920  141.7950 C   0  0  2  0  0  3  0  0  0  0  0  0
  187.3920  177.5330  145.3360 C   0  0  0  0  0  3  0  0  0  0  0  0
  186.1060  178.2180  142.8990 C   0  0  0  0  0  0  0  0  0  0  0  0
  187.6160  178.0200  140.5170 C   0  0  0  0  0  0  0  0  0  0  0  0
  191.1200  177.1280  139.8000 C   0  0  0  0  0  1  0  0  0  0  0  0
  188.6010  177.8980  139.6440 C   0  0  0  0  0  0  0  0  0  0  0  0
  189.0550  178.1740  136.0610 C   0  0  0  0  0  3  0  0  0  0  0  0
  186.3240  176.3370  137.8620 C   0  0  0  0  0  1  0  0  0  0  0  0
  188.0970  177.4710  144.1400 C   0  0  0  0  0  3  0  0  0  0  0  0
  187.4780  177.8000  142.9280 C   0  0  0  0  0  0  0  0  0  0  0  0
  186.0810  177.8400  137.9420 C   0  0  2  0  0  3  0  0  0  0  0  0
  181.9740  179.1580  140.4430 N   0  0  0  0  0  0  0  0  0  0  0  0
  179.7370  179.3560  141.3170 C   0  0  0  0  0  1  0  0  0  0  0  0
  181.1750  179.0030  141.4500 C   0  0  0  0  0  3  0  0  0  0  0  0
  1 19  1  0  0  0  0
  2 16  1  0  0  0  0
  2 13  1  0  0  0  0
  3 17  1  0  0  0  0
  4 20  1  0  0  0  0
  4  1  2  0  0  0  0
  5  1  1  0  0  0  0
  6  8  2  0  0  0  0
  7 15  1  6  0  0  0
  7 27  1  0  0  0  0
  7  9  1  0  0  0  0
  8 11  1  0  0  0  0
  9 22  1  0  0  0  0
 10  3  2  0  0  0  0
 11  5  2  0  0  0  0
 12  8  1  0  0  0  0
 12  4  1  0  0  0  0
 13 18  2  0  0  0  0
 14  9  1  0  0  0  0
 17 20  1  1  0  0  0
 17 26  1  0  0  0  0
 19 26  1  0  0  0  0
 19  2  2  0  0  0  0
 21 10  1  0  0  0  0
 22 10  1  0  0  0  0
 22 20  2  0  0  0  0
 23 15  1  0  0  0  0
 23 14  2  0  0  0  0
 25 18  1  0  0  0  0
 26 25  2  0  0  0  0
 27 24  1  1  0  0  0
 27 12  1  0  0  0  0
 28 11  1  0  0  0  0
 28 30  2  0  0  0  0
 29 30  1  0  0  0  0
M  END
>  <MODEL>
6

>  <REMARK>
 VINA RESULT:      -8.7      2.454      5.745
  Name = 
  1 active torsions:
  status: ('A' for Active; 'I' for Inactive)
    1  A    between atoms: C_11  and  N_28
                            x       y       z     vdW  Elec       q    Type
                         _______ _______ _______ _____ _____    ______ ____

>  <TORSDO>
F 1

$$$$
=
 OpenBabel11122410283D

 30 35  0  0  1  0  0  0  0  0999 V2000
  186.7550  177.7500  144.0480 C   0  0  0  0  0  0  0  0  0  0  0  0
  184.3730  178.3440  144.0370 C   0  0  0  0  0  0  0  0  0  0  0  0
  187.0420  178.6280  139.9200 N   0  0  0  0  0  0  0  0  0  0  0  0
  188.0600  177.4010  143.3230 C   0  0  0  0  0  0  0  0  0  0  0  0
  186.7590  177.5480  145.5100 C   0  0  0  0  0  3  0  0  0  0  0  0
  190.2360  177.7530  146.2420 O   0  0  0  0  0  0  0  0  0  0  0  0
  190.8510  176.9450  142.3800 C   0  0  1  0  0  3  0  0  0  0  0  0
  189.1850  177.6770  145.5480 C   0  0  0  0  0  0  0  0  0  0  0  0
  190.2860  177.4060  141.1230 N   0  0  0  0  0  0  0  0  0  0  0  0
  188.2910  178.3380  139.7250 C   0  0  0  0  0  0  0  0  0  0  0  0
  187.8890  177.4860  146.2210 C   0  0  0  0  0  0  0  0  0  0  0  0
  189.2530  177.7820  144.1130 N   0  0  0  0  0  0  0  0  0  0  0  0
  183.2450  178.7650  143.3300 C   0  0  0  0  0  3  0  0  0  0  0  0
  191.3000  177.4690  140.1380 C   0  0  0  0  0  3  0  0  0  0  0  0
  192.3470  176.8040  142.0970 C   0  0  0  0  0  2  0  0  0  0  0  0
  184.2060  178.0940  145.3610 F   0  0  0  0  0  0  0  0  0  0  0  0
  186.8260  178.3780  141.3070 C   0  0  2  0  0  3  0  0  0  0  0  0
  183.3170  179.0340  141.9680 C   0  0  0  0  0  3  0  0  0  0  0  0
  185.6240  178.1680  143.3770 C   0  0  0  0  0  0  0  0  0  0  0  0
  188.0420  177.9450  141.9290 C   0  0  0  0  0  0  0  0  0  0  0  0
  188.9340  178.4440  138.3870 C   0  0  0  0  0  1  0  0  0  0  0  0
  188.9420  177.8760  140.9640 C   0  0  0  0  0  0  0  0  0  0  0  0
  192.4710  177.1280  140.6410 C   0  0  0  0  0  3  0  0  0  0  0  0
  190.8590  179.3940  143.1590 C   0  0  0  0  0  1  0  0  0  0  0  0
  184.5250  178.8900  141.2960 C   0  0  0  0  0  3  0  0  0  0  0  0
  185.6740  178.4690  141.9760 C   0  0  0  0  0  0  0  0  0  0  0  0
  190.5890  177.9390  143.5200 C   0  0  2  0  0  3  0  0  0  0  0  0
  187.8620  177.2870  147.6440 N   0  0  0  0  0  0  0  0  0  0  0  0
  187.8960  177.9540  149.9590 C   0  0  0  0  0  1  0  0  0  0  0  0
  187.9310  178.2530  148.5040 C   0  0  0  0  0  3  0  0  0  0  0  0
  1  5  1  0  0  0  0
  2 16  1  0  0  0  0
  4  1  2  0  0  0  0
  4 12  1  0  0  0  0
  5 11  2  0  0  0  0
  7 15  1  6  0  0  0
  7 27  1  0  0  0  0
  8 11  1  0  0  0  0
  8  6  2  0  0  0  0
  9  7  1  0  0  0  0
 10  3  2  0  0  0  0
 10 22  1  0  0  0  0
 11 28  1  0  0  0  0
 12  8  1  0  0  0  0
 13  2  2  0  0  0  0
 14 23  2  0  0  0  0
 14  9  1  0  0  0  0
 17  3  1  6  0  0  0
 17 20  1  0  0  0  0
 17 26  1  0  0  0  0
 18 13  1  0  0  0  0
 19  2  1  0  0  0  0
 19  1  1  0  0  0  0
 20  4  1  0  0  0  0
 21 10  1  0  0  0  0
 22  9  1  0  0  0  0
 22 20  2  0  0  0  0
 23 15  1  0  0  0  0
 25 18  2  0  0  0  0
 25 26  1  0  0  0  0
 26 19  2  0  0  0  0
 27 24  1  6  0  0  0
 27 12  1  0  0  0  0
 28 30  2  0  0  0  0
 30 29  1  0  0  0  0
M  END
>  <MODEL>
7

>  <REMARK>
 VINA RESULT:      -8.6      2.106      5.529
  Name = 
  1 active torsions:
  status: ('A' for Active; 'I' for Inactive)
    1  A    between atoms: C_11  and  N_28
                            x       y       z     vdW  Elec       q    Type
                         _______ _______ _______ _____ _____    ______ ____

>  <TORSDO>
F 1

$$$$
=
 OpenBabel11122410283D

 30 35  0  0  1  0  0  0  0  0999 V2000
  187.5060  177.4680  143.9930 C   0  0  0  0  0  0  0  0  0  0  0  0
  186.1780  177.9700  145.9960 C   0  0  0  0  0  0  0  0  0  0  0  0
  184.4960  179.1230  141.5240 N   0  0  0  0  0  0  0  0  0  0  0  0
  187.6470  177.3090  142.4750 C   0  0  0  0  0  0  0  0  0  0  0  0
  188.6490  176.9930  144.7970 C   0  0  0  0  0  3  0  0  0  0  0  0
  191.3030  177.1760  142.4330 O   0  0  0  0  0  0  0  0  0  0  0  0
  188.4730  177.1380  139.6150 C   0  0  1  0  0  3  0  0  0  0  0  0
  190.1220  177.1970  142.8760 C   0  0  0  0  0  0  0  0  0  0  0  0
  187.1990  177.8090  139.4190 N   0  0  0  0  0  0  0  0  0  0  0  0
  185.0360  178.9180  140.3620 C   0  0  0  0  0  0  0  0  0  0  0  0
  189.8720  176.8360  144.2820 C   0  0  0  0  0  0  0  0  0  0  0  0
  189.0300  177.5750  142.0150 N   0  0  0  0  0  0  0  0  0  0  0  0
  185.0080  178.4780  146.5620 C   0  0  0  0  0  3  0  0  0  0  0  0
  187.0170  178.0930  138.0440 C   0  0  0  0  0  3  0  0  0  0  0  0
  189.1070  177.1060  138.2240 C   0  0  0  0  0  2  0  0  0  0  0  0
  187.1030  177.4670  146.8530 F   0  0  0  0  0  0  0  0  0  0  0  0
  185.4440  178.6070  142.4560 C   0  0  2  0  0  3  0  0  0  0  0  0
  183.9980  179.0020  145.7630 C   0  0  0  0  0  3  0  0  0  0  0  0
  186.3620  177.9660  144.5830 C   0  0  0  0  0  0  0  0  0  0  0  0
  186.5960  178.1070  141.7680 C   0  0  0  0  0  0  0  0  0  0  0  0
  184.3590  179.3000  139.0920 C   0  0  0  0  0  1  0  0  0  0  0  0
  186.3460  178.2530  140.4790 C   0  0  0  0  0  0  0  0  0  0  0  0
  188.0610  177.7040  137.3370 C   0  0  0  0  0  3  0  0  0  0  0  0
  189.4260  179.3940  140.3950 C   0  0  0  0  0  1  0  0  0  0  0  0
  184.1520  179.0310  144.3820 C   0  0  0  0  0  3  0  0  0  0  0  0
  185.3130  178.5290  143.7830 C   0  0  0  0  0  0  0  0  0  0  0  0
  189.3620  177.8870  140.6180 C   0  0  2  0  0  3  0  0  0  0  0  0
  190.9650  176.3710  145.0890 N   0  0  0  0  0  0  0  0  0  0  0  0
  192.1930  176.0020  147.1300 C   0  0  0  0  0  1  0  0  0  0  0  0
  191.0200  176.5150  146.3740 C   0  0  0  0  0  3  0  0  0  0  0  0
  1 19  1  0  0  0  0
  1  5  1  0  0  0  0
  2 13  1  0  0  0  0
  2 16  1  0  0  0  0
  4  1  2  0  0  0  0
  6  8  2  0  0  0  0
  7 15  1  6  0  0  0
  7 27  1  0  0  0  0
  8 11  1  0  0  0  0
  9  7  1  0  0  0  0
  9 22  1  0  0  0  0
 10 22  1  0  0  0  0
 10  3  2  0  0  0  0
 11  5  2  0  0  0  0
 11 28  1  0  0  0  0
 12  4  1  0  0  0  0
 12  8  1  0  0  0  0
 14  9  1  0  0  0  0
 17  3  1  6  0  0  0
 17 26  1  0  0  0  0
 18 13  2  0  0  0  0
 19  2  2  0  0  0  0
 20 17  1  0  0  0  0
 20  4  1  0  0  0  0
 21 10  1  0  0  0  0
 22 20  2  0  0  0  0
 23 14  2  0  0  0  0
 23 15  1  0  0  0  0
 25 18  1  0  0  0  0
 26 25  2  0  0  0  0
 26 19  1  0  0  0  0
 27 24  1  1  0  0  0
 27 12  1  0  0  0  0
 28 30  2  0  0  0  0
 30 29  1  0  0  0  0
M  END
>  <MODEL>
8

>  <REMARK>
 VINA RESULT:      -8.6      2.140      5.725
  Name = 
  1 active torsions:
  status: ('A' for Active; 'I' for Inactive)
    1  A    between atoms: C_11  and  N_28
                            x       y       z     vdW  Elec       q    Type
                         _______ _______ _______ _____ _____    ______ ____

>  <TORSDO>
F 1

$$$$
=
 OpenBabel11122410283D

 30 35  0  0  1  0  0  0  0  0999 V2000
  189.9410  177.7740  143.4880 C   0  0  0  0  0  0  0  0  0  0  0  0
  191.5570  177.3740  141.6840 C   0  0  0  0  0  0  0  0  0  0  0  0
  186.8260  178.2260  140.6630 N   0  0  0  0  0  0  0  0  0  0  0  0
  188.5720  178.2460  143.9900 C   0  0  2  0  0  3  0  0  0  0  0  0
  190.9490  177.5040  144.5320 C   0  0  0  0  0  3  0  0  0  0  0  0
  188.8860  176.8480  147.3560 O   0  0  0  0  0  0  0  0  0  0  0  0
  185.9990  178.7890  145.3950 C   0  0  1  0  0  3  0  0  0  0  0  0
  189.1960  177.2080  146.1880 C   0  0  0  0  0  0  0  0  0  0  0  0
  185.4900  178.7860  144.0340 N   0  0  0  0  0  0  0  0  0  0  0  0
  185.8410  178.4790  141.4680 C   0  0  0  0  0  0  0  0  0  0  0  0
  190.6170  177.2640  145.8040 C   0  0  0  0  0  0  0  0  0  0  0  0
  188.1700  177.5570  145.2380 N   0  0  0  0  0  0  0  0  0  0  0  0
  191.8290  177.2730  140.3180 C   0  0  0  0  0  3  0  0  0  0  0  0
  184.0860  178.9700  144.0490 C   0  0  0  0  0  3  0  0  0  0  0  0
  184.7510  178.9120  146.2690 C   0  0  0  0  0  2  0  0  0  0  0  0
  192.6050  177.2050  142.5300 F   0  0  0  0  0  0  0  0  0  0  0  0
  187.9510  178.0390  141.5180 C   0  0  0  0  0  0  0  0  0  0  0  0
  190.8210  177.4440  139.3760 C   0  0  0  0  0  3  0  0  0  0  0  0
  190.2410  177.6650  142.1450 C   0  0  0  0  0  0  0  0  0  0  0  0
  187.5600  178.1720  142.8890 C   0  0  0  0  0  0  0  0  0  0  0  0
  184.4630  178.7570  140.9780 C   0  0  0  0  0  1  0  0  0  0  0  0
  186.2750  178.4820  142.8760 C   0  0  0  0  0  0  0  0  0  0  0  0
  183.6330  179.0560  145.2850 C   0  0  0  0  0  3  0  0  0  0  0  0
  186.0930  176.2240  145.2570 C   0  0  0  0  0  1  0  0  0  0  0  0
  189.5220  177.7120  139.7910 C   0  0  0  0  0  3  0  0  0  0  0  0
  189.2160  177.8190  141.1530 C   0  0  0  0  0  0  0  0  0  0  0  0
  186.7800  177.5060  145.7120 C   0  0  2  0  0  3  0  0  0  0  0  0
  191.6210  177.0050  146.7980 N   0  0  0  0  0  0  0  0  0  0  0  0
  193.0250  175.6410  148.2040 C   0  0  0  0  0  1  0  0  0  0  0  0
  191.9760  175.8150  147.1650 C   0  0  0  0  0  3  0  0  0  0  0  0
  1  4  1  0  0  0  0
  1  5  1  0  0  0  0
  2 19  1  0  0  0  0
  2 16  1  0  0  0  0
  3 10  2  0  0  0  0
  3 17  1  0  0  0  0
  4 20  1  6  0  0  0
  4 12  1  0  0  0  0
  5 11  2  0  0  0  0
  7 27  1  0  0  0  0
  7 15  1  1  0  0  0
  8  6  2  0  0  0  0
  9 14  1  0  0  0  0
  9  7  1  0  0  0  0
 10 22  1  0  0  0  0
 11  8  1  0  0  0  0
 11 28  1  0  0  0  0
 12 27  1  0  0  0  0
 12  8  1  0  0  0  0
 13  2  2  0  0  0  0
 14 23  2  0  0  0  0
 17 20  1  0  0  0  0
 18 25  2  0  0  0  0
 18 13  1  0  0  0  0
 19  1  2  0  0  0  0
 21 10  1  0  0  0  0
 22 20  2  0  0  0  0
 22  9  1  0  0  0  0
 23 15  1  0  0  0  0
 25 26  1  0  0  0  0
 26 17  2  0  0  0  0
 26 19  1  0  0  0  0
 27 24  1  6  0  0  0
 28 30  2  0  0  0  0
 30 29  1  0  0  0  0
M  END
>  <MODEL>
9

>  <REMARK>
 VINA RESULT:      -8.6      2.784      6.969
  Name = 
  1 active torsions:
  status: ('A' for Active; 'I' for Inactive)
    1  A    between atoms: C_11  and  N_28
                            x       y       z     vdW  Elec       q    Type
                         _______ _______ _______ _____ _____    ______ ____

>  <TORSDO>
F 1

$$$$
