=
 OpenBabel11122411583D

 28 32  0  0  1  0  0  0  0  0999 V2000
  186.2090  176.2610  136.7680 C   0  0  2  0  0  3  0  0  0  0  0  0
  188.6880  176.3350  138.2470 O   0  0  0  0  0  0  0  0  0  0  0  0
  181.8720  178.5650  140.9440 O   0  0  0  0  0  0  0  0  0  0  0  0
  187.0210  178.2310  134.7380 C   0  0  0  0  0  2  0  0  0  0  0  0
  184.1830  178.9020  141.3130 N   0  0  0  0  0  0  0  0  0  0  0  0
  185.1690  175.3670  137.4600 C   0  0  0  0  0  2  0  0  0  0  0  0
  189.4440  178.6740  138.4150 O   0  0  0  0  0  0  0  0  0  0  0  0
  188.6330  177.5910  139.0660 S   0  0  0  0  0  0  0  0  0  0  0  0
  188.5530  177.9900  141.8010 C   0  0  0  0  0  0  0  0  0  0  0  0
  187.0110  178.1180  139.2970 N   0  0  0  0  0  0  0  0  0  0  0  0
  182.7580  177.5580  136.3290 O   0  0  0  0  0  0  0  0  0  0  0  0
  184.8660  178.6960  139.1110 C   0  0  0  0  0  0  0  0  0  0  0  0
  187.3470  178.4790  141.6990 N   0  0  0  0  0  0  0  0  0  0  0  0
  189.2670  177.2450  140.6960 C   0  0  0  0  0  2  0  0  0  0  0  0
  183.1390  176.7680  137.2330 C   0  0  0  0  0  0  0  0  0  0  0  0
  185.9770  177.7740  136.9790 C   0  0  2  0  0  3  0  0  0  0  0  0
  183.0400  178.6670  140.4830 C   0  0  0  0  0  0  0  0  0  0  0  0
  189.2210  178.0380  143.1270 C   0  0  0  0  0  1  0  0  0  0  0  0
  183.0800  177.1520  138.6040 N   0  0  0  0  0  2  0  0  0  0  0  0
  187.0000  178.6140  136.2120 C   0  0  0  0  0  2  0  0  0  0  0  0
  186.3110  175.9060  135.2830 C   0  0  0  0  0  2  0  0  0  0  0  0
  187.3710  176.7560  134.5940 C   0  0  0  0  0  2  0  0  0  0  0  0
  183.7610  175.4670  136.8670 C   0  0  0  0  0  2  0  0  0  0  0  0
  185.2530  178.9050  140.3900 C   0  0  0  0  0  0  0  0  0  0  0  0
  183.3790  178.5130  139.0170 C   0  0  2  0  0  3  0  0  0  0  0  0
  186.5630  178.5080  140.5020 C   0  0  0  0  0  0  0  0  0  0  0  0
  184.2780  178.5670  142.7230 C   0  0  0  0  0  1  0  0  0  0  0  0
  185.9650  178.1870  138.4270 C   0  0  0  0  0  0  0  0  0  0  0  0
  1 21  1  6  0  0  0
  1 16  1  0  0  0  0
  1  6  1  0  0  0  0
  2  8  2  0  0  0  0
  4 20  1  0  0  0  0
  5 27  1  0  0  0  0
  7  8  2  0  0  0  0
  8 10  1  0  0  0  0
  8 14  1  0  0  0  0
  9 18  1  0  0  0  0
 10 26  1  0  0  0  0
 11 15  2  0  0  0  0
 12 24  1  0  0  0  0
 13  9  2  0  0  0  0
 14  9  1  0  0  0  0
 15 19  1  0  0  0  0
 16 20  1  6  0  0  0
 16 28  1  0  0  0  0
 17  3  2  0  0  0  0
 17  5  1  0  0  0  0
 22  4  1  0  0  0  0
 22 21  1  0  0  0  0
 23 15  1  0  0  0  0
 23  6  1  0  0  0  0
 24 26  2  0  0  0  0
 24  5  1  0  0  0  0
 25 19  1  1  0  0  0
 25 12  1  0  0  0  0
 25 17  1  0  0  0  0
 26 13  1  0  0  0  0
 28 12  2  0  0  0  0
 28 10  1  0  0  0  0
M  END
>  <MODEL>
1

>  <REMARK>
 VINA RESULT:      -6.9      0.000      0.000
  Name = 
  0 active torsions:
  status: ('A' for Active; 'I' for Inactive)
                            x       y       z     vdW  Elec       q    Type
                         _______ _______ _______ _____ _____    ______ ____

>  <TORSDO>
F 0

$$$$
=
 OpenBabel11122411583D

 28 32  0  0  1  0  0  0  0  0999 V2000
  188.1480  175.4860  136.7170 C   0  0  2  0  0  3  0  0  0  0  0  0
  190.2000  175.5270  138.7480 O   0  0  0  0  0  0  0  0  0  0  0  0
  183.2060  178.5680  139.4810 O   0  0  0  0  0  0  0  0  0  0  0  0
  189.6160  177.1520  134.7860 C   0  0  0  0  0  2  0  0  0  0  0  0
  185.3850  178.7600  140.3760 N   0  0  0  0  0  0  0  0  0  0  0  0
  186.8870  174.7590  137.2080 C   0  0  0  0  0  2  0  0  0  0  0  0
  191.1300  177.8040  138.8920 O   0  0  0  0  0  0  0  0  0  0  0  0
  190.0820  176.8660  139.4160 S   0  0  0  0  0  0  0  0  0  0  0  0
  189.3980  177.5670  142.0010 C   0  0  0  0  0  0  0  0  0  0  0  0
  188.5140  177.5410  139.1930 N   0  0  0  0  0  0  0  0  0  0  0  0
  185.0500  176.9950  135.3320 O   0  0  0  0  0  0  0  0  0  0  0  0
  186.5450  178.2610  138.4360 C   0  0  0  0  0  0  0  0  0  0  0  0
  188.3070  178.1350  141.5640 N   0  0  0  0  0  0  0  0  0  0  0  0
  190.2730  176.6520  141.1750 C   0  0  0  0  0  2  0  0  0  0  0  0
  185.1230  176.2820  136.3660 C   0  0  0  0  0  0  0  0  0  0  0  0
  188.0290  177.0270  136.7310 C   0  0  2  0  0  3  0  0  0  0  0  0
  184.4530  178.5270  139.3140 C   0  0  0  0  0  0  0  0  0  0  0  0
  189.7340  177.7080  143.4410 C   0  0  0  0  0  1  0  0  0  0  0  0
  184.7810  176.8170  137.6420 N   0  0  0  0  0  2  0  0  0  0  0  0
  189.2850  177.6950  136.1700 C   0  0  0  0  0  2  0  0  0  0  0  0
  188.5610  174.9640  135.3400 C   0  0  0  0  0  2  0  0  0  0  0  0
  189.8360  175.6470  134.8610 C   0  0  0  0  0  2  0  0  0  0  0  0
  185.6770  174.9030  136.2800 C   0  0  0  0  0  2  0  0  0  0  0  0
  186.6380  178.5790  139.7480 C   0  0  0  0  0  0  0  0  0  0  0  0
  185.1120  178.1870  137.9960 C   0  0  2  0  0  3  0  0  0  0  0  0
  187.8360  178.0950  140.2130 C   0  0  0  0  0  0  0  0  0  0  0  0
  185.1080  178.5760  141.7900 C   0  0  0  0  0  1  0  0  0  0  0  0
  187.7170  177.5960  138.0910 C   0  0  0  0  0  0  0  0  0  0  0  0
  1 21  1  6  0  0  0
  1 16  1  0  0  0  0
  1  6  1  0  0  0  0
  2  8  2  0  0  0  0
  4 22  1  0  0  0  0
  4 20  1  0  0  0  0
  5 27  1  0  0  0  0
  7  8  2  0  0  0  0
  8 14  1  0  0  0  0
  9 18  1  0  0  0  0
 10  8  1  0  0  0  0
 10 26  1  0  0  0  0
 11 15  2  0  0  0  0
 12 24  1  0  0  0  0
 13  9  2  0  0  0  0
 14  9  1  0  0  0  0
 15 19  1  0  0  0  0
 16 20  1  1  0  0  0
 16 28  1  0  0  0  0
 17  3  2  0  0  0  0
 17  5  1  0  0  0  0
 22 21  1  0  0  0  0
 23 15  1  0  0  0  0
 23  6  1  0  0  0  0
 24 26  2  0  0  0  0
 24  5  1  0  0  0  0
 25 19  1  1  0  0  0
 25 12  1  0  0  0  0
 25 17  1  0  0  0  0
 26 13  1  0  0  0  0
 28 12  2  0  0  0  0
 28 10  1  0  0  0  0
M  END
>  <MODEL>
2

>  <REMARK>
 VINA RESULT:      -6.6      1.695      1.915
  Name = 
  0 active torsions:
  status: ('A' for Active; 'I' for Inactive)
                            x       y       z     vdW  Elec       q    Type
                         _______ _______ _______ _____ _____    ______ ____

>  <TORSDO>
F 0

$$$$
=
 OpenBabel11122411583D

 28 32  0  0  1  0  0  0  0  0999 V2000
  182.3250  177.1700  138.8250 C   0  0  2  0  0  3  0  0  0  0  0  0
  182.1830  174.5030  137.7290 O   0  0  0  0  0  0  0  0  0  0  0  0
  188.6100  178.5830  138.5910 O   0  0  0  0  0  0  0  0  0  0  0  0
  180.7700  178.4500  136.6790 C   0  0  0  0  0  2  0  0  0  0  0  0
  187.7400  176.7910  137.3180 N   0  0  0  0  0  0  0  0  0  0  0  0
  183.2120  177.2150  140.0780 C   0  0  0  0  0  2  0  0  0  0  0  0
  182.5130  174.6270  135.2900 O   0  0  0  0  0  0  0  0  0  0  0  0
  183.1930  174.4670  136.6190 S   0  0  0  0  0  0  0  0  0  0  0  0
  185.5260  173.0160  136.3130 C   0  0  0  0  0  0  0  0  0  0  0  0
  184.3930  175.6840  136.8240 N   0  0  0  0  0  0  0  0  0  0  0  0
  184.1800  180.3760  139.0930 O   0  0  0  0  0  0  0  0  0  0  0  0
  185.5560  177.5480  137.1990 C   0  0  0  0  0  0  0  0  0  0  0  0
  186.2240  174.1160  136.3760 N   0  0  0  0  0  0  0  0  0  0  0  0
  184.0630  172.9120  136.6800 C   0  0  0  0  0  2  0  0  0  0  0  0
  184.4920  179.2940  139.6580 C   0  0  0  0  0  0  0  0  0  0  0  0
  183.0100  177.7140  137.5500 C   0  0  2  0  0  3  0  0  0  0  0  0
  187.6350  178.0440  138.0040 C   0  0  0  0  0  0  0  0  0  0  0  0
  186.2370  171.7490  136.0000 C   0  0  0  0  0  1  0  0  0  0  0  0
  185.7200  178.6410  139.3460 N   0  0  0  0  0  2  0  0  0  0  0  0
  182.0600  177.7080  136.3530 C   0  0  0  0  0  2  0  0  0  0  0  0
  180.9910  177.8700  139.0920 C   0  0  0  0  0  2  0  0  0  0  0  0
  180.0850  177.7940  137.8700 C   0  0  0  0  0  2  0  0  0  0  0  0
  183.5270  178.6300  140.5750 C   0  0  0  0  0  2  0  0  0  0  0  0
  186.4230  176.5680  136.8570 C   0  0  0  0  0  0  0  0  0  0  0  0
  186.2400  178.6260  137.9890 C   0  0  2  0  0  3  0  0  0  0  0  0
  185.7000  175.4150  136.6680 C   0  0  0  0  0  0  0  0  0  0  0  0
  188.7300  175.7650  137.5930 C   0  0  0  0  0  1  0  0  0  0  0  0
  184.2820  176.9900  137.1940 C   0  0  0  0  0  0  0  0  0  0  0  0
  1 21  1  1  0  0  0
  1  6  1  0  0  0  0
  4 22  1  0  0  0  0
  5 27  1  0  0  0  0
  5 17  1  0  0  0  0
  6 23  1  0  0  0  0
  7  8  2  0  0  0  0
  8 14  1  0  0  0  0
  8 10  1  0  0  0  0
  8  2  2  0  0  0  0
  9 13  2  0  0  0  0
  9 14  1  0  0  0  0
 10 28  1  0  0  0  0
 11 15  2  0  0  0  0
 13 26  1  0  0  0  0
 15 23  1  0  0  0  0
 16 20  1  6  0  0  0
 16  1  1  0  0  0  0
 17  3  2  0  0  0  0
 18  9  1  0  0  0  0
 19 15  1  0  0  0  0
 20  4  1  0  0  0  0
 22 21  1  0  0  0  0
 24 12  1  0  0  0  0
 24  5  1  0  0  0  0
 25 12  1  6  0  0  0
 25 17  1  0  0  0  0
 25 19  1  0  0  0  0
 26 10  1  0  0  0  0
 26 24  2  0  0  0  0
 28 12  2  0  0  0  0
 28 16  1  0  0  0  0
M  END
>  <MODEL>
3

>  <REMARK>
 VINA RESULT:      -6.3      2.659      5.907
  Name = 
  0 active torsions:
  status: ('A' for Active; 'I' for Inactive)
                            x       y       z     vdW  Elec       q    Type
                         _______ _______ _______ _____ _____    ______ ____

>  <TORSDO>
F 0

$$$$
=
 OpenBabel11122411583D

 28 32  0  0  1  0  0  0  0  0999 V2000
  181.9530  177.5760  139.3850 C   0  0  2  0  0  3  0  0  0  0  0  0
  181.1990  174.9350  138.4940 O   0  0  0  0  0  0  0  0  0  0  0  0
  188.1970  177.9850  137.8360 O   0  0  0  0  0  0  0  0  0  0  0  0
  180.2000  179.0260  137.5180 C   0  0  0  0  0  2  0  0  0  0  0  0
  186.8310  176.3170  136.8650 N   0  0  0  0  0  0  0  0  0  0  0  0
  183.0730  177.5160  140.4350 C   0  0  0  0  0  2  0  0  0  0  0  0
  181.0400  174.9420  136.0340 O   0  0  0  0  0  0  0  0  0  0  0  0
  181.9450  174.7130  137.2100 S   0  0  0  0  0  0  0  0  0  0  0  0
  183.9270  172.9080  136.5350 C   0  0  0  0  0  0  0  0  0  0  0  0
  183.3280  175.7330  137.1050 N   0  0  0  0  0  0  0  0  0  0  0  0
  184.2760  180.4590  139.0980 O   0  0  0  0  0  0  0  0  0  0  0  0
  184.8050  177.4020  137.1360 C   0  0  0  0  0  0  0  0  0  0  0  0
  184.7790  173.8880  136.3950 N   0  0  0  0  0  0  0  0  0  0  0  0
  182.5710  173.0440  137.1880 C   0  0  0  0  0  2  0  0  0  0  0  0
  184.5330  179.3580  139.6520 C   0  0  0  0  0  0  0  0  0  0  0  0
  182.4370  177.9720  137.9720 C   0  0  2  0  0  3  0  0  0  0  0  0
  187.0540  177.5890  137.4850 C   0  0  0  0  0  0  0  0  0  0  0  0
  184.3650  171.5390  136.1610 C   0  0  0  0  0  1  0  0  0  0  0  0
  185.5610  178.5130  139.1410 N   0  0  0  0  0  2  0  0  0  0  0  0
  181.2720  178.0830  136.9870 C   0  0  0  0  0  2  0  0  0  0  0  0
  180.8190  178.4820  139.8690 C   0  0  0  0  0  2  0  0  0  0  0  0
  179.6820  178.5160  138.8560 C   0  0  0  0  0  2  0  0  0  0  0  0
  183.6870  178.8770  140.7770 C   0  0  0  0  0  2  0  0  0  0  0  0
  185.4300  176.2900  136.6870 C   0  0  0  0  0  0  0  0  0  0  0  0
  185.7860  178.3810  137.7120 C   0  0  2  0  0  3  0  0  0  0  0  0
  184.5220  175.2600  136.7100 C   0  0  0  0  0  0  0  0  0  0  0  0
  187.6950  175.1570  136.9990 C   0  0  0  0  0  1  0  0  0  0  0  0
  183.4880  177.0500  137.4130 C   0  0  0  0  0  0  0  0  0  0  0  0
  1 21  1  1  0  0  0
  1  6  1  0  0  0  0
  4 22  1  0  0  0  0
  5 27  1  0  0  0  0
  5 17  1  0  0  0  0
  6 23  1  0  0  0  0
  7  8  2  0  0  0  0
  8  2  2  0  0  0  0
  9 14  1  0  0  0  0
 10  8  1  0  0  0  0
 10 28  1  0  0  0  0
 11 15  2  0  0  0  0
 12 28  2  0  0  0  0
 13  9  2  0  0  0  0
 13 26  1  0  0  0  0
 14  8  1  0  0  0  0
 15 23  1  0  0  0  0
 16 20  1  6  0  0  0
 16  1  1  0  0  0  0
 17 25  1  0  0  0  0
 17  3  2  0  0  0  0
 18  9  1  0  0  0  0
 19 15  1  0  0  0  0
 20  4  1  0  0  0  0
 22 21  1  0  0  0  0
 24 26  2  0  0  0  0
 24  5  1  0  0  0  0
 24 12  1  0  0  0  0
 25 12  1  6  0  0  0
 25 19  1  0  0  0  0
 26 10  1  0  0  0  0
 28 16  1  0  0  0  0
M  END
>  <MODEL>
4

>  <REMARK>
 VINA RESULT:      -6.1      2.806      6.377
  Name = 
  0 active torsions:
  status: ('A' for Active; 'I' for Inactive)
                            x       y       z     vdW  Elec       q    Type
                         _______ _______ _______ _____ _____    ______ ____

>  <TORSDO>
F 0

$$$$
=
 OpenBabel11122411583D

 28 32  0  0  1  0  0  0  0  0999 V2000
  182.6980  175.6960  136.9240 C   0  0  2  0  0  3  0  0  0  0  0  0
  185.4150  175.5940  135.9550 O   0  0  0  0  0  0  0  0  0  0  0  0
  183.1690  178.9920  142.4440 O   0  0  0  0  0  0  0  0  0  0  0  0
  181.6540  177.3120  134.6970 C   0  0  0  0  0  2  0  0  0  0  0  0
  184.9250  179.0530  140.8620 N   0  0  0  0  0  0  0  0  0  0  0  0
  182.5680  175.0290  138.3020 C   0  0  0  0  0  2  0  0  0  0  0  0
  186.0330  177.8150  135.0860 O   0  0  0  0  0  0  0  0  0  0  0  0
  186.0170  176.9260  136.2960 S   0  0  0  0  0  0  0  0  0  0  0  0
  188.0780  177.6210  138.0020 C   0  0  0  0  0  0  0  0  0  0  0  0
  185.1640  177.6870  137.5830 N   0  0  0  0  0  0  0  0  0  0  0  0
  180.1680  177.3900  139.0500 O   0  0  0  0  0  0  0  0  0  0  0  0
  183.6590  178.5240  138.9980 C   0  0  0  0  0  0  0  0  0  0  0  0
  187.2340  178.2530  138.7720 N   0  0  0  0  0  0  0  0  0  0  0  0
  187.6770  176.6730  136.8940 C   0  0  0  0  0  2  0  0  0  0  0  0
  181.1050  176.6570  139.4620 C   0  0  0  0  0  0  0  0  0  0  0  0
  182.7170  177.2400  136.9730 C   0  0  2  0  0  3  0  0  0  0  0  0
  183.5560  178.8870  141.2510 C   0  0  0  0  0  0  0  0  0  0  0  0
  189.5260  177.7200  138.3180 C   0  0  0  0  0  1  0  0  0  0  0  0
  182.1270  177.1890  140.3010 N   0  0  0  0  0  2  0  0  0  0  0  0
  182.7790  177.8490  135.5720 C   0  0  0  0  0  2  0  0  0  0  0  0
  181.6150  175.1740  135.9770 C   0  0  0  0  0  2  0  0  0  0  0  0
  181.7600  175.7960  134.5940 C   0  0  0  0  0  2  0  0  0  0  0  0
  181.2140  175.2530  138.9830 C   0  0  0  0  0  2  0  0  0  0  0  0
  184.8930  178.8150  139.4690 C   0  0  0  0  0  0  0  0  0  0  0  0
  182.6400  178.5340  140.1000 C   0  0  2  0  0  3  0  0  0  0  0  0
  185.8110  178.2600  138.6120 C   0  0  0  0  0  0  0  0  0  0  0  0
  186.0720  178.8610  141.7310 C   0  0  0  0  0  1  0  0  0  0  0  0
  183.8290  177.8030  137.8210 C   0  0  0  0  0  0  0  0  0  0  0  0
  1 21  1  6  0  0  0
  1 16  1  0  0  0  0
  1  6  1  0  0  0  0
  2  8  2  0  0  0  0
  4 20  1  0  0  0  0
  5 17  1  0  0  0  0
  5 27  1  0  0  0  0
  6 23  1  0  0  0  0
  7  8  2  0  0  0  0
  8 14  1  0  0  0  0
  8 10  1  0  0  0  0
  9 18  1  0  0  0  0
  9 13  2  0  0  0  0
 10 28  1  0  0  0  0
 10 26  1  0  0  0  0
 11 15  2  0  0  0  0
 12 24  1  0  0  0  0
 14  9  1  0  0  0  0
 15 19  1  0  0  0  0
 16 20  1  6  0  0  0
 16 28  1  0  0  0  0
 17  3  2  0  0  0  0
 22  4  1  0  0  0  0
 22 21  1  0  0  0  0
 23 15  1  0  0  0  0
 24  5  1  0  0  0  0
 25 12  1  6  0  0  0
 25 19  1  0  0  0  0
 25 17  1  0  0  0  0
 26 13  1  0  0  0  0
 26 24  2  0  0  0  0
 28 12  2  0  0  0  0
M  END
>  <MODEL>
5

>  <REMARK>
 VINA RESULT:      -5.8      2.312      3.392
  Name = 
  0 active torsions:
  status: ('A' for Active; 'I' for Inactive)
                            x       y       z     vdW  Elec       q    Type
                         _______ _______ _______ _____ _____    ______ ____

>  <TORSDO>
F 0

$$$$
=
 OpenBabel11122411583D

 28 32  0  0  1  0  0  0  0  0999 V2000
  182.6720  178.2130  139.2630 C   0  0  2  0  0  3  0  0  0  0  0  0
  184.7900  177.5170  137.4290 O   0  0  0  0  0  0  0  0  0  0  0  0
  185.5800  178.2360  145.0150 O   0  0  0  0  0  0  0  0  0  0  0  0
  182.2250  180.9140  138.1810 C   0  0  0  0  0  2  0  0  0  0  0  0
  186.8600  178.3150  143.0290 N   0  0  0  0  0  0  0  0  0  0  0  0
  182.4500  177.1100  140.3080 C   0  0  0  0  0  2  0  0  0  0  0  0
  186.2790  179.4630  137.1580 O   0  0  0  0  0  0  0  0  0  0  0  0
  186.0170  178.2110  137.9450 S   0  0  0  0  0  0  0  0  0  0  0  0
  188.3930  177.2190  138.9530 C   0  0  0  0  0  0  0  0  0  0  0  0
  185.8690  178.5810  139.6200 N   0  0  0  0  0  0  0  0  0  0  0  0
  181.6850  179.6090  142.5590 O   0  0  0  0  0  0  0  0  0  0  0  0
  185.2210  179.2060  141.6590 C   0  0  0  0  0  0  0  0  0  0  0  0
  188.1060  177.7120  140.1270 N   0  0  0  0  0  0  0  0  0  0  0  0
  187.4060  177.1020  137.8130 C   0  0  0  0  0  2  0  0  0  0  0  0
  182.1880  178.4720  142.3610 C   0  0  0  0  0  0  0  0  0  0  0  0
  183.4600  179.4320  139.7930 C   0  0  2  0  0  3  0  0  0  0  0  0
  185.6700  178.5340  143.7950 C   0  0  0  0  0  0  0  0  0  0  0  0
  189.7290  176.6010  138.7580 C   0  0  0  0  0  1  0  0  0  0  0  0
  183.4580  178.1350  142.9140 N   0  0  0  0  0  2  0  0  0  0  0  0
  183.5910  180.5250  138.7320 C   0  0  0  0  0  2  0  0  0  0  0  0
  181.3380  178.6310  138.6380 C   0  0  0  0  0  2  0  0  0  0  0  0
  181.5500  179.6940  137.5680 C   0  0  0  0  0  2  0  0  0  0  0  0
  181.5120  177.5080  141.4520 C   0  0  0  0  0  2  0  0  0  0  0  0
  186.4940  178.7550  141.7370 C   0  0  0  0  0  0  0  0  0  0  0  0
  184.5300  179.1140  142.9880 C   0  0  2  0  0  3  0  0  0  0  0  0
  186.8690  178.3360  140.4840 C   0  0  0  0  0  0  0  0  0  0  0  0
  187.8830  177.3310  143.3340 C   0  0  0  0  0  1  0  0  0  0  0  0
  184.8220  179.0820  140.3320 C   0  0  0  0  0  0  0  0  0  0  0  0
  1 21  1  1  0  0  0
  1 16  1  0  0  0  0
  1  6  1  0  0  0  0
  2  8  2  0  0  0  0
  4 20  1  0  0  0  0
  5 27  1  0  0  0  0
  5 17  1  0  0  0  0
  6 23  1  0  0  0  0
  7  8  2  0  0  0  0
  8 10  1  0  0  0  0
  9 13  2  0  0  0  0
 10 28  1  0  0  0  0
 10 26  1  0  0  0  0
 12 24  1  0  0  0  0
 13 26  1  0  0  0  0
 14  8  1  0  0  0  0
 14  9  1  0  0  0  0
 15 11  2  0  0  0  0
 15 19  1  0  0  0  0
 16 20  1  6  0  0  0
 16 28  1  0  0  0  0
 17  3  2  0  0  0  0
 18  9  1  0  0  0  0
 19 25  1  0  0  0  0
 22  4  1  0  0  0  0
 22 21  1  0  0  0  0
 23 15  1  0  0  0  0
 24  5  1  0  0  0  0
 25 12  1  6  0  0  0
 25 17  1  0  0  0  0
 26 24  2  0  0  0  0
 28 12  2  0  0  0  0
M  END
>  <MODEL>
6

>  <REMARK>
 VINA RESULT:      -5.4      2.337      4.364
  Name = 
  0 active torsions:
  status: ('A' for Active; 'I' for Inactive)
                            x       y       z     vdW  Elec       q    Type
                         _______ _______ _______ _____ _____    ______ ____

>  <TORSDO>
F 0

$$$$
=
 OpenBabel11122411583D

 28 32  0  0  1  0  0  0  0  0999 V2000
  190.7470  177.3330  143.9970 C   0  0  2  0  0  3  0  0  0  0  0  0
  191.5280  177.6580  141.2360 O   0  0  0  0  0  0  0  0  0  0  0  0
  184.4990  178.9160  144.0110 O   0  0  0  0  0  0  0  0  0  0  0  0
  191.2050  174.4270  144.0880 C   0  0  0  0  0  2  0  0  0  0  0  0
  185.5980  178.4090  141.9800 N   0  0  0  0  0  0  0  0  0  0  0  0
  190.2270  178.6500  144.5920 C   0  0  0  0  0  2  0  0  0  0  0  0
  190.6020  175.7910  139.9220 O   0  0  0  0  0  0  0  0  0  0  0  0
  190.3570  177.1850  140.4250 S   0  0  0  0  0  0  0  0  0  0  0  0
  188.6630  178.5250  138.7010 C   0  0  0  0  0  0  0  0  0  0  0  0
  188.9000  177.2410  141.3390 N   0  0  0  0  0  0  0  0  0  0  0  0
  188.0270  176.7610  146.4590 O   0  0  0  0  0  0  0  0  0  0  0  0
  187.2940  177.1150  142.8800 C   0  0  0  0  0  0  0  0  0  0  0  0
  187.6660  178.3290  139.5200 N   0  0  0  0  0  0  0  0  0  0  0  0
  190.1160  178.2990  139.0560 C   0  0  0  0  0  2  0  0  0  0  0  0
  188.2510  177.8370  145.8440 C   0  0  0  0  0  0  0  0  0  0  0  0
  189.6330  176.3310  143.6180 C   0  0  2  0  0  3  0  0  0  0  0  0
  185.4280  178.3260  143.4000 C   0  0  0  0  0  0  0  0  0  0  0  0
  188.3770  179.1460  137.3820 C   0  0  0  0  0  1  0  0  0  0  0  0
  187.2850  178.3700  144.9420 N   0  0  0  0  0  2  0  0  0  0  0  0
  190.2100  175.0150  143.0960 C   0  0  0  0  0  2  0  0  0  0  0  0
  191.7830  176.7000  144.9290 C   0  0  0  0  0  2  0  0  0  0  0  0
  192.3390  175.4140  144.3290 C   0  0  0  0  0  2  0  0  0  0  0  0
  189.5750  178.5020  145.9700 C   0  0  0  0  0  2  0  0  0  0  0  0
  186.7610  177.6390  141.7520 C   0  0  0  0  0  0  0  0  0  0  0  0
  186.4920  177.5010  144.0890 C   0  0  2  0  0  3  0  0  0  0  0  0
  187.7670  177.7490  140.8240 C   0  0  0  0  0  0  0  0  0  0  0  0
  185.1180  179.4930  141.1410 C   0  0  0  0  0  1  0  0  0  0  0  0
  188.6410  176.8790  142.6260 C   0  0  0  0  0  0  0  0  0  0  0  0
  1  6  1  1  0  0  0
  1 21  1  0  0  0  0
  4 22  1  0  0  0  0
  5 17  1  0  0  0  0
  6 23  1  0  0  0  0
  7  8  2  0  0  0  0
  8  2  2  0  0  0  0
  8 10  1  0  0  0  0
  9 14  1  0  0  0  0
  9 13  2  0  0  0  0
 10 28  1  0  0  0  0
 13 26  1  0  0  0  0
 14  8  1  0  0  0  0
 15 23  1  0  0  0  0
 15 11  2  0  0  0  0
 16 20  1  6  0  0  0
 16  1  1  0  0  0  0
 17  3  2  0  0  0  0
 17 25  1  0  0  0  0
 18  9  1  0  0  0  0
 19 15  1  0  0  0  0
 20  4  1  0  0  0  0
 22 21  1  0  0  0  0
 24  5  1  0  0  0  0
 24 12  1  0  0  0  0
 25 12  1  6  0  0  0
 25 19  1  0  0  0  0
 26 10  1  0  0  0  0
 26 24  2  0  0  0  0
 27  5  1  0  0  0  0
 28 12  2  0  0  0  0
 28 16  1  0  0  0  0
M  END
>  <MODEL>
7

>  <REMARK>
 VINA RESULT:      -5.3      3.383      6.821
  Name = 
  0 active torsions:
  status: ('A' for Active; 'I' for Inactive)
                            x       y       z     vdW  Elec       q    Type
                         _______ _______ _______ _____ _____    ______ ____

>  <TORSDO>
F 0

$$$$
=
 OpenBabel11122411583D

 28 32  0  0  1  0  0  0  0  0999 V2000
  187.7090  176.4280  137.5760 C   0  0  2  0  0  3  0  0  0  0  0  0
  188.7070  176.7730  140.2630 O   0  0  0  0  0  0  0  0  0  0  0  0
  181.4770  178.0040  138.0480 O   0  0  0  0  0  0  0  0  0  0  0  0
  189.3530  178.5560  136.3800 C   0  0  0  0  0  2  0  0  0  0  0  0
  182.9980  178.6250  139.7480 N   0  0  0  0  0  0  0  0  0  0  0  0
  186.5840  175.3840  137.5250 C   0  0  0  0  0  2  0  0  0  0  0  0
  188.9000  179.1840  140.7370 O   0  0  0  0  0  0  0  0  0  0  0  0
  188.0020  177.9820  140.8050 S   0  0  0  0  0  0  0  0  0  0  0  0
  186.1970  178.2730  142.8790 C   0  0  0  0  0  0  0  0  0  0  0  0
  186.5360  178.2860  139.9550 N   0  0  0  0  0  0  0  0  0  0  0  0
  185.1440  177.2800  135.0300 O   0  0  0  0  0  0  0  0  0  0  0  0
  184.9170  178.5860  138.4530 C   0  0  0  0  0  0  0  0  0  0  0  0
  185.2650  178.6040  142.0280 N   0  0  0  0  0  0  0  0  0  0  0  0
  187.5270  177.6660  142.4940 C   0  0  0  0  0  2  0  0  0  0  0  0
  184.9780  176.5160  136.0160 C   0  0  0  0  0  0  0  0  0  0  0  0
  187.2130  177.8910  137.5170 C   0  0  2  0  0  3  0  0  0  0  0  0
  182.6540  178.2720  138.4020 C   0  0  0  0  0  0  0  0  0  0  0  0
  185.8880  178.3620  144.3290 C   0  0  0  0  0  1  0  0  0  0  0  0
  184.0360  176.8420  137.0350 N   0  0  0  0  0  2  0  0  0  0  0  0
  188.3770  178.8820  137.5020 C   0  0  0  0  0  2  0  0  0  0  0  0
  188.7520  176.1410  136.4930 C   0  0  0  0  0  2  0  0  0  0  0  0
  189.8960  177.1450  136.5610 C   0  0  0  0  0  2  0  0  0  0  0  0
  185.8470  175.3200  136.1830 C   0  0  0  0  0  2  0  0  0  0  0  0
  184.3990  178.7990  139.6840 C   0  0  0  0  0  0  0  0  0  0  0  0
  183.8440  178.2140  137.4700 C   0  0  2  0  0  3  0  0  0  0  0  0
  185.3940  178.5730  140.6030 C   0  0  0  0  0  0  0  0  0  0  0  0
  182.2390  178.2570  140.9300 C   0  0  0  0  0  1  0  0  0  0  0  0
  186.2550  178.2480  138.6230 C   0  0  0  0  0  0  0  0  0  0  0  0
  1 21  1  6  0  0  0
  2  8  2  0  0  0  0
  3 17  2  0  0  0  0
  4 22  1  0  0  0  0
  4 20  1  0  0  0  0
  5 27  1  0  0  0  0
  6  1  1  0  0  0  0
  7  8  2  0  0  0  0
  8 14  1  0  0  0  0
  9 18  1  0  0  0  0
 10 26  1  0  0  0  0
 10  8  1  0  0  0  0
 11 15  2  0  0  0  0
 12 28  2  0  0  0  0
 12 24  1  0  0  0  0
 13  9  2  0  0  0  0
 14  9  1  0  0  0  0
 15 23  1  0  0  0  0
 15 19  1  0  0  0  0
 16 20  1  1  0  0  0
 16  1  1  0  0  0  0
 16 28  1  0  0  0  0
 17  5  1  0  0  0  0
 21 22  1  0  0  0  0
 23  6  1  0  0  0  0
 24  5  1  0  0  0  0
 24 26  2  0  0  0  0
 25 19  1  1  0  0  0
 25 17  1  0  0  0  0
 25 12  1  0  0  0  0
 26 13  1  0  0  0  0
 28 10  1  0  0  0  0
M  END
>  <MODEL>
8

>  <REMARK>
 VINA RESULT:      -5.3      1.765      2.178
  Name = 
  0 active torsions:
  status: ('A' for Active; 'I' for Inactive)
                            x       y       z     vdW  Elec       q    Type
                         _______ _______ _______ _____ _____    ______ ____

>  <TORSDO>
F 0

$$$$
=
 OpenBabel11122411583D

 28 32  0  0  1  0  0  0  0  0999 V2000
  190.3360  178.4760  142.5800 C   0  0  2  0  0  3  0  0  0  0  0  0
  187.9400  179.3830  141.2480 O   0  0  0  0  0  0  0  0  0  0  0  0
  188.3870  177.3410  148.6190 O   0  0  0  0  0  0  0  0  0  0  0  0
  190.6460  176.0230  140.9840 C   0  0  0  0  0  2  0  0  0  0  0  0
  186.8070  177.5470  146.8720 N   0  0  0  0  0  0  0  0  0  0  0  0
  190.7050  179.3930  143.7560 C   0  0  0  0  0  2  0  0  0  0  0  0
  186.4590  177.4490  140.8730 O   0  0  0  0  0  0  0  0  0  0  0  0
  186.8230  178.5580  141.8180 S   0  0  0  0  0  0  0  0  0  0  0  0
  184.6240  179.2570  143.3400 C   0  0  0  0  0  0  0  0  0  0  0  0
  187.2430  177.9130  143.3580 N   0  0  0  0  0  0  0  0  0  0  0  0
  191.8600  176.5810  145.3860 O   0  0  0  0  0  0  0  0  0  0  0  0
  188.2200  176.9770  145.1290 C   0  0  0  0  0  0  0  0  0  0  0  0
  185.1030  178.5830  144.3500 N   0  0  0  0  0  0  0  0  0  0  0  0
  185.4130  179.6110  142.1000 C   0  0  0  0  0  2  0  0  0  0  0  0
  191.3130  177.7120  145.4720 C   0  0  0  0  0  0  0  0  0  0  0  0
  189.6620  177.1510  143.0030 C   0  0  2  0  0  3  0  0  0  0  0  0
  188.1080  177.2520  147.3940 C   0  0  0  0  0  0  0  0  0  0  0  0
  183.2630  179.8400  143.4670 C   0  0  0  0  0  1  0  0  0  0  0  0
  190.1430  177.8930  146.2650 N   0  0  0  0  0  2  0  0  0  0  0  0
  189.3810  176.2510  141.7990 C   0  0  0  0  0  2  0  0  0  0  0  0
  191.5580  178.2310  141.6930 C   0  0  0  0  0  2  0  0  0  0  0  0
  191.1950  177.3580  140.4980 C   0  0  0  0  0  2  0  0  0  0  0  0
  191.8200  178.8460  144.6520 C   0  0  0  0  0  2  0  0  0  0  0  0
  186.9680  177.3510  145.4820 C   0  0  0  0  0  0  0  0  0  0  0  0
  189.1130  176.8700  146.3310 C   0  0  2  0  0  3  0  0  0  0  0  0
  186.3910  177.9620  144.3960 C   0  0  0  0  0  0  0  0  0  0  0  0
  185.8300  178.4190  147.5000 C   0  0  0  0  0  1  0  0  0  0  0  0
  188.3990  177.3440  143.8000 C   0  0  0  0  0  0  0  0  0  0  0  0
  1 21  1  1  0  0  0
  1 16  1  0  0  0  0
  1  6  1  0  0  0  0
  2  8  2  0  0  0  0
  4 20  1  0  0  0  0
  5 17  1  0  0  0  0
  5 27  1  0  0  0  0
  6 23  1  0  0  0  0
  7  8  2  0  0  0  0
  8 14  1  0  0  0  0
  8 10  1  0  0  0  0
  9 18  1  0  0  0  0
  9 13  2  0  0  0  0
 10 28  1  0  0  0  0
 10 26  1  0  0  0  0
 11 15  2  0  0  0  0
 12 24  1  0  0  0  0
 13 26  1  0  0  0  0
 14  9  1  0  0  0  0
 15 19  1  0  0  0  0
 16 20  1  6  0  0  0
 16 28  1  0  0  0  0
 17  3  2  0  0  0  0
 19 25  1  0  0  0  0
 22  4  1  0  0  0  0
 22 21  1  0  0  0  0
 23 15  1  0  0  0  0
 24  5  1  0  0  0  0
 25 12  1  6  0  0  0
 25 17  1  0  0  0  0
 26 24  2  0  0  0  0
 28 12  2  0  0  0  0
M  END
>  <MODEL>
9

>  <REMARK>
 VINA RESULT:      -5.2      4.646      7.523
  Name = 
  0 active torsions:
  status: ('A' for Active; 'I' for Inactive)
                            x       y       z     vdW  Elec       q    Type
                         _______ _______ _______ _____ _____    ______ ____

>  <TORSDO>
F 0

$$$$
