=
 OpenBabel11122411503D

 28 32  0  0  1  0  0  0  0  0999 V2000
  181.0940  175.2610  137.1110 C   0  0  0  0  0  0  0  0  0  0  0  0
  186.1080  173.9860  137.2840 O   0  0  0  0  0  0  0  0  0  0  0  0
  183.8920  178.3260  141.7630 C   0  0  0  0  0  1  0  0  0  0  0  0
  181.3880  176.4580  134.5940 C   0  0  0  0  0  3  0  0  0  0  0  0
  184.4720  179.1510  139.4870 C   0  0  1  0  0  3  0  0  0  0  0  0
  180.8780  174.6620  138.4670 C   0  0  0  0  0  2  0  0  0  0  0  0
  184.8620  174.5430  135.2310 O   0  0  0  0  0  0  0  0  0  0  0  0
  185.6620  175.0950  136.3750 S   0  0  0  0  0  0  0  0  0  0  0  0
  187.6050  176.9350  136.8280 C   0  0  1  0  0  3  0  0  0  0  0  0
  184.7390  176.2820  137.2670 C   0  0  0  0  0  0  0  0  0  0  0  0
  180.2090  177.7200  138.6160 O   0  0  0  0  0  1  0  0  0  0  0  0
  183.2310  177.4400  138.5410 C   0  0  2  0  0  3  0  0  0  0  0  0
  186.5790  177.8810  137.2720 N   0  0  0  0  0  2  0  0  0  0  0  0
  187.0760  175.9880  135.7500 C   0  0  0  0  0  2  0  0  0  0  0  0
  180.2570  176.8350  139.6970 C   0  0  2  0  0  3  0  0  0  0  0  0
  182.2780  175.9640  136.8070 C   0  0  0  0  0  0  0  0  0  0  0  0
  183.3110  178.7950  140.4400 C   0  0  1  0  0  3  0  0  0  0  0  0
  188.8010  177.6960  136.2980 C   0  0  0  0  0  1  0  0  0  0  0  0
  181.6100  176.8370  140.4200 C   0  0  0  0  0  2  0  0  0  0  0  0
  182.4020  176.5780  135.5470 C   0  0  0  0  0  3  0  0  0  0  0  0
  180.0850  175.1420  136.1470 C   0  0  0  0  0  3  0  0  0  0  0  0
  180.2330  175.7340  134.8920 C   0  0  0  0  0  3  0  0  0  0  0  0
  179.8260  175.4270  139.2760 C   0  0  0  0  0  2  0  0  0  0  0  0
  184.2700  178.2050  138.3540 C   0  0  2  0  0  3  0  0  0  0  0  0
  182.5950  177.7040  139.7770 N   0  0  2  0  0  0  0  0  0  0  0  0
  185.2440  177.4640  137.5820 C   0  0  0  0  0  0  0  0  0  0  0  0
  184.3200  180.4610  139.0330 O   0  0  0  0  0  1  0  0  0  0  0  0
  183.3610  176.1170  137.8500 C   0  0  1  0  0  3  0  0  0  0  0  0
  1  6  1  0  0  0  0
  4 22  2  0  0  0  0
  4 20  1  0  0  0  0
  5 27  1  6  0  0  0
  5 17  1  0  0  0  0
  6 23  1  0  0  0  0
  7  8  2  0  0  0  0
  8 10  1  0  0  0  0
  8  2  2  0  0  0  0
  9 18  1  6  0  0  0
  9 13  1  0  0  0  0
 10 26  2  0  0  0  0
 10 28  1  0  0  0  0
 11 15  1  0  0  0  0
 12 25  1  0  0  0  0
 13 26  1  0  0  0  0
 14  8  1  0  0  0  0
 14  9  1  0  0  0  0
 15 19  1  0  0  0  0
 16  1  1  0  0  0  0
 16 28  1  0  0  0  0
 17  3  1  0  0  0  0
 20 16  2  0  0  0  0
 21  1  2  0  0  0  0
 22 21  1  0  0  0  0
 23 15  1  0  0  0  0
 24 12  1  0  0  0  0
 24  5  1  0  0  0  0
 25 19  1  0  0  0  0
 25 17  1  0  0  0  0
 26 24  1  0  0  0  0
 28 12  1  0  0  0  0
M  END
>  <MODEL>
1

>  <REMARK>
 VINA RESULT:      -5.5      0.000      0.000
  Name = 
  0 active torsions:
  status: ('A' for Active; 'I' for Inactive)
                            x       y       z     vdW  Elec       q    Type
                         _______ _______ _______ _____ _____    ______ ____

>  <TORSDO>
F 0

$$$$
=
 OpenBabel11122411503D

 28 32  0  0  1  0  0  0  0  0999 V2000
  183.2000  178.3460  137.9700 C   0  0  0  0  0  0  0  0  0  0  0  0
  187.1190  178.5390  134.5940 O   0  0  0  0  0  0  0  0  0  0  0  0
  183.9830  172.7570  135.3230 C   0  0  0  0  0  1  0  0  0  0  0  0
  184.9120  178.8550  140.1300 C   0  0  0  0  0  3  0  0  0  0  0  0
  185.7440  173.3760  136.9710 C   0  0  1  0  0  3  0  0  0  0  0  0
  182.2390  178.0450  136.8620 C   0  0  0  0  0  2  0  0  0  0  0  0
  187.1620  179.4970  136.8650 O   0  0  0  0  0  0  0  0  0  0  0  0
  187.4090  178.2660  136.0420 S   0  0  0  0  0  0  0  0  0  0  0  0
  189.2290  176.2650  135.8270 C   0  0  1  0  0  3  0  0  0  0  0  0
  186.4410  176.9280  136.6150 C   0  0  2  0  0  3  0  0  0  0  0  0
  182.2360  175.6320  138.8610 O   0  0  0  0  0  1  0  0  0  0  0  0
  184.7860  175.4680  137.2230 C   0  0  2  0  0  3  0  0  0  0  0  0
  188.3390  175.3980  136.6020 N   0  0  0  0  0  0  0  0  0  0  0  0
  189.0990  177.7300  136.2430 C   0  0  0  0  0  2  0  0  0  0  0  0
  181.5710  175.6820  137.6320 C   0  0  2  0  0  3  0  0  0  0  0  0
  184.5020  177.8030  137.9720 C   0  0  0  0  0  0  0  0  0  0  0  0
  184.2240  173.2550  136.7380 C   0  0  1  0  0  3  0  0  0  0  0  0
  190.6610  175.8080  136.0010 C   0  0  0  0  0  1  0  0  0  0  0  0
  182.3760  175.0580  136.4850 C   0  0  0  0  0  2  0  0  0  0  0  0
  185.3410  178.0490  139.0740 C   0  0  0  0  0  3  0  0  0  0  0  0
  182.7800  179.1570  139.0310 C   0  0  0  0  0  3  0  0  0  0  0  0
  183.6340  179.4150  140.1050 C   0  0  0  0  0  3  0  0  0  0  0  0
  181.1140  177.1070  137.3110 C   0  0  0  0  0  2  0  0  0  0  0  0
  185.9210  174.8270  137.2580 C   0  0  2  0  0  3  0  0  0  0  0  0
  183.7050  174.6150  136.9000 N   0  0  2  0  0  0  0  0  0  0  0  0
  186.9670  175.7330  136.8370 C   0  0  0  0  0  0  0  0  0  0  0  0
  186.1070  172.6300  138.0920 O   0  0  0  0  0  1  0  0  0  0  0  0
  184.9530  176.9080  136.8410 C   0  0  1  0  0  3  0  0  0  0  0  0
  1 16  2  0  0  0  0
  1 21  1  0  0  0  0
  2  8  2  0  0  0  0
  3 17  1  0  0  0  0
  5 24  1  0  0  0  0
  5 27  1  1  0  0  0
  6 23  1  0  0  0  0
  6  1  1  0  0  0  0
  8 14  1  0  0  0  0
  8 10  1  0  0  0  0
  8  7  2  0  0  0  0
  9 18  1  1  0  0  0
  9 14  1  0  0  0  0
  9 13  1  0  0  0  0
 10 26  1  6  0  0  0
 10 28  1  0  0  0  0
 12 24  1  0  0  0  0
 13 26  2  0  0  0  0
 15 11  1  0  0  0  0
 16 20  1  0  0  0  0
 17 25  1  0  0  0  0
 17  5  1  0  0  0  0
 19 25  1  0  0  0  0
 19 15  1  0  0  0  0
 20  4  2  0  0  0  0
 21 22  2  0  0  0  0
 22  4  1  0  0  0  0
 23 15  1  0  0  0  0
 25 12  1  0  0  0  0
 26 24  1  0  0  0  0
 28 12  1  0  0  0  0
 28 16  1  0  0  0  0
M  END
>  <MODEL>
2

>  <REMARK>
 VINA RESULT:      -5.4      2.355      4.721
  Name = 
  0 active torsions:
  status: ('A' for Active; 'I' for Inactive)
                            x       y       z     vdW  Elec       q    Type
                         _______ _______ _______ _____ _____    ______ ____

>  <TORSDO>
F 0

$$$$
=
 OpenBabel11122411503D

 28 32  0  0  1  0  0  0  0  0999 V2000
  189.9200  175.1950  135.5780 C   0  0  0  0  0  0  0  0  0  0  0  0
  187.3070  179.4810  136.8380 O   0  0  0  0  0  0  0  0  0  0  0  0
  192.6740  178.0010  140.4150 C   0  0  0  0  0  1  0  0  0  0  0  0
  187.7530  173.5570  136.2690 C   0  0  0  0  0  3  0  0  0  0  0  0
  190.5260  176.8700  140.9630 C   0  0  1  0  0  3  0  0  0  0  0  0
  191.1210  176.0130  135.2180 C   0  0  0  0  0  2  0  0  0  0  0  0
  186.2810  177.2930  136.3490 O   0  0  0  0  0  0  0  0  0  0  0  0
  186.8790  178.1630  137.4170 S   0  0  0  0  0  0  0  0  0  0  0  0
  186.4170  178.8660  139.9960 C   0  0  1  0  0  3  0  0  0  0  0  0
  188.2330  177.3660  138.1830 C   0  0  0  0  0  0  0  0  0  0  0  0
  191.8940  174.1040  137.5800 O   0  0  0  0  0  1  0  0  0  0  0  0
  190.2140  176.3570  138.7270 C   0  0  2  0  0  3  0  0  0  0  0  0
  187.4240  177.8910  140.4220 N   0  0  0  0  0  2  0  0  0  0  0  0
  185.6940  178.4180  138.7260 C   0  0  0  0  0  2  0  0  0  0  0  0
  192.6970  175.1140  137.0420 C   0  0  2  0  0  3  0  0  0  0  0  0
  189.1070  175.5390  136.6780 C   0  0  0  0  0  0  0  0  0  0  0  0
  191.9070  176.6950  140.2980 C   0  0  1  0  0  3  0  0  0  0  0  0
  185.4140  179.0780  141.1090 C   0  0  0  0  0  1  0  0  0  0  0  0
  192.5960  176.4380  137.8110 C   0  0  0  0  0  2  0  0  0  0  0  0
  188.0370  174.6950  137.0260 C   0  0  0  0  0  3  0  0  0  0  0  0
  189.6240  174.0530  134.8220 C   0  0  0  0  0  3  0  0  0  0  0  0
  188.5430  173.2400  135.1630 C   0  0  0  0  0  3  0  0  0  0  0  0
  192.4320  175.2910  135.5450 C   0  0  0  0  0  2  0  0  0  0  0  0
  189.5830  176.6270  139.8360 C   0  0  2  0  0  3  0  0  0  0  0  0
  191.6180  176.3910  138.8960 N   0  0  2  0  0  0  0  0  0  0  0  0
  188.3470  177.3000  139.5010 C   0  0  0  0  0  0  0  0  0  0  0  0
  190.3480  175.8900  141.9400 O   0  0  0  0  0  1  0  0  0  0  0  0
  189.4350  176.7560  137.5120 C   0  0  1  0  0  3  0  0  0  0  0  0
  1 16  1  0  0  0  0
  2  8  2  0  0  0  0
  4 20  1  0  0  0  0
  5 27  1  1  0  0  0
  6 23  1  0  0  0  0
  6  1  1  0  0  0  0
  7  8  2  0  0  0  0
  8 10  1  0  0  0  0
  8 14  1  0  0  0  0
  9 13  1  0  0  0  0
  9 18  1  1  0  0  0
 10 26  2  0  0  0  0
 12 25  1  0  0  0  0
 12 24  1  0  0  0  0
 14  9  1  0  0  0  0
 15 11  1  0  0  0  0
 15 19  1  0  0  0  0
 16 20  2  0  0  0  0
 16 28  1  0  0  0  0
 17  3  1  0  0  0  0
 17  5  1  0  0  0  0
 19 25  1  0  0  0  0
 21 22  1  0  0  0  0
 21  1  2  0  0  0  0
 22  4  2  0  0  0  0
 23 15  1  0  0  0  0
 24  5  1  0  0  0  0
 25 17  1  0  0  0  0
 26 24  1  0  0  0  0
 26 13  1  0  0  0  0
 28 10  1  0  0  0  0
 28 12  1  0  0  0  0
M  END
>  <MODEL>
3

>  <REMARK>
 VINA RESULT:      -5.2      4.353      7.909
  Name = 
  0 active torsions:
  status: ('A' for Active; 'I' for Inactive)
                            x       y       z     vdW  Elec       q    Type
                         _______ _______ _______ _____ _____    ______ ____

>  <TORSDO>
F 0

$$$$
=
 OpenBabel11122411503D

 28 32  0  0  1  0  0  0  0  0999 V2000
  182.9400  177.3870  138.2000 C   0  0  0  0  0  0  0  0  0  0  0  0
  185.4740  172.9080  137.6460 O   0  0  0  0  0  0  0  0  0  0  0  0
  188.7640  177.9780  140.3420 C   0  0  0  0  0  1  0  0  0  0  0  0
  182.6890  177.6970  135.4260 C   0  0  0  0  0  3  0  0  0  0  0  0
  188.5830  177.8570  137.8620 C   0  0  1  0  0  3  0  0  0  0  0  0
  183.0660  177.2940  139.6890 C   0  0  0  0  0  2  0  0  0  0  0  0
  184.0580  173.9530  135.9200 O   0  0  0  0  0  0  0  0  0  0  0  0
  185.4400  173.8800  136.5010 S   0  0  0  0  0  0  0  0  0  0  0  0
  188.0200  173.7740  135.6680 C   0  0  1  0  0  3  0  0  0  0  0  0
  185.9810  175.4580  137.0240 C   0  0  2  0  0  3  0  0  0  0  0  0
  184.5640  179.8730  138.7300 O   0  0  0  0  0  1  0  0  0  0  0  0
  186.3050  177.4840  138.0380 C   0  0  2  0  0  3  0  0  0  0  0  0
  188.1410  175.2120  135.9220 N   0  0  0  0  0  0  0  0  0  0  0  0
  186.6040  173.3900  135.2400 C   0  0  0  0  0  2  0  0  0  0  0  0
  184.5580  179.3610  140.0310 C   0  0  2  0  0  3  0  0  0  0  0  0
  183.9890  176.9720  137.3530 C   0  0  0  0  0  0  0  0  0  0  0  0
  188.0620  178.5650  139.1300 C   0  0  1  0  0  3  0  0  0  0  0  0
  189.0070  173.3640  134.5970 C   0  0  0  0  0  1  0  0  0  0  0  0
  185.7660  178.4650  140.3320 C   0  0  0  0  0  2  0  0  0  0  0  0
  183.8580  177.1550  135.9650 C   0  0  0  0  0  3  0  0  0  0  0  0
  181.7710  177.9260  137.6490 C   0  0  0  0  0  3  0  0  0  0  0  0
  181.6430  178.0770  136.2680 C   0  0  0  0  0  3  0  0  0  0  0  0
  183.2290  178.6680  140.3440 C   0  0  0  0  0  2  0  0  0  0  0  0
  187.3520  177.2290  137.3050 C   0  0  2  0  0  3  0  0  0  0  0  0
  186.6290  178.2670  139.1700 N   0  0  2  0  0  0  0  0  0  0  0  0
  187.1710  175.9310  136.6920 C   0  0  0  0  0  0  0  0  0  0  0  0
  189.0720  178.8040  136.9630 O   0  0  0  0  0  1  0  0  0  0  0  0
  185.2630  176.4110  137.9420 C   0  0  1  0  0  3  0  0  0  0  0  0
  1  6  1  0  0  0  0
  4 20  2  0  0  0  0
  4 22  1  0  0  0  0
  5 27  1  6  0  0  0
  5 17  1  0  0  0  0
  6 23  1  0  0  0  0
  7  8  2  0  0  0  0
  8 10  1  0  0  0  0
  8  2  2  0  0  0  0
  9 18  1  6  0  0  0
  9 13  1  0  0  0  0
 10 26  1  1  0  0  0
 10 28  1  0  0  0  0
 11 15  1  0  0  0  0
 12 25  1  0  0  0  0
 13 26  2  0  0  0  0
 14  9  1  0  0  0  0
 14  8  1  0  0  0  0
 15 19  1  0  0  0  0
 15 23  1  0  0  0  0
 16 28  1  0  0  0  0
 16  1  2  0  0  0  0
 17 25  1  0  0  0  0
 17  3  1  0  0  0  0
 20 16  1  0  0  0  0
 21  1  1  0  0  0  0
 22 21  2  0  0  0  0
 24  5  1  0  0  0  0
 24 12  1  0  0  0  0
 25 19  1  0  0  0  0
 26 24  1  0  0  0  0
 28 12  1  0  0  0  0
M  END
>  <MODEL>
4

>  <REMARK>
 VINA RESULT:      -5.1      2.196      3.564
  Name = 
  0 active torsions:
  status: ('A' for Active; 'I' for Inactive)
                            x       y       z     vdW  Elec       q    Type
                         _______ _______ _______ _____ _____    ______ ____

>  <TORSDO>
F 0

$$$$
=
 OpenBabel11122411503D

 28 32  0  0  1  0  0  0  0  0999 V2000
  182.2490  178.3760  138.1030 C   0  0  0  0  0  0  0  0  0  0  0  0
  186.7960  178.3760  135.6310 O   0  0  0  0  0  0  0  0  0  0  0  0
  182.7440  173.2480  134.5940 C   0  0  0  0  0  1  0  0  0  0  0  0
  183.5010  178.1930  140.6040 C   0  0  0  0  0  3  0  0  0  0  0  0
  184.1730  173.2460  136.6320 C   0  0  1  0  0  3  0  0  0  0  0  0
  181.5200  178.4460  136.7970 C   0  0  0  0  0  2  0  0  0  0  0  0
  186.4840  178.9240  138.0140 O   0  0  0  0  0  0  0  0  0  0  0  0
  186.7170  177.8200  137.0240 S   0  0  0  0  0  0  0  0  0  0  0  0
  188.2170  175.5750  136.7620 C   0  0  1  0  0  3  0  0  0  0  0  0
  185.4570  176.6130  137.1280 C   0  0  0  0  0  0  0  0  0  0  0  0
  180.7150  175.7830  138.2390 O   0  0  0  0  0  1  0  0  0  0  0  0
  183.5080  175.4120  137.1100 C   0  0  2  0  0  3  0  0  0  0  0  0
  187.0590  174.7760  137.1680 N   0  0  0  0  0  2  0  0  0  0  0  0
  188.2210  176.9500  137.4290 C   0  0  0  0  0  2  0  0  0  0  0  0
  180.3520  176.1580  136.9420 C   0  0  2  0  0  3  0  0  0  0  0  0
  183.4210  177.6040  138.2420 C   0  0  0  0  0  0  0  0  0  0  0  0
  182.7400  173.4540  136.0990 C   0  0  1  0  0  3  0  0  0  0  0  0
  189.4910  174.8340  137.1080 C   0  0  0  0  0  1  0  0  0  0  0  0
  181.2860  175.5900  135.8660 C   0  0  0  0  0  2  0  0  0  0  0  0
  184.0250  177.5040  139.5080 C   0  0  0  0  0  3  0  0  0  0  0  0
  181.7330  179.0670  139.2060 C   0  0  0  0  0  3  0  0  0  0  0  0
  182.3590  178.9800  140.4510 C   0  0  0  0  0  3  0  0  0  0  0  0
  180.1960  177.6770  136.8310 C   0  0  0  0  0  2  0  0  0  0  0  0
  184.4980  174.5710  137.2300 C   0  0  2  0  0  3  0  0  0  0  0  0
  182.4090  174.8420  136.4270 N   0  0  2  0  0  0  0  0  0  0  0  0
  185.7350  175.3210  137.2020 C   0  0  0  0  0  0  0  0  0  0  0  0
  184.1640  172.2730  137.6310 O   0  0  0  0  0  1  0  0  0  0  0  0
  183.9700  176.8370  137.0610 C   0  0  1  0  0  3  0  0  0  0  0  0
  1 16  2  0  0  0  0
  1 21  1  0  0  0  0
  2  8  2  0  0  0  0
  3 17  1  0  0  0  0
  5 24  1  0  0  0  0
  5 27  1  1  0  0  0
  6 23  1  0  0  0  0
  6  1  1  0  0  0  0
  8 10  1  0  0  0  0
  8 14  1  0  0  0  0
  8  7  2  0  0  0  0
  9 18  1  1  0  0  0
  9 13  1  0  0  0  0
  9 14  1  0  0  0  0
 10 26  2  0  0  0  0
 12 24  1  0  0  0  0
 13 26  1  0  0  0  0
 15 11  1  0  0  0  0
 16 20  1  0  0  0  0
 17 25  1  0  0  0  0
 17  5  1  0  0  0  0
 19 25  1  0  0  0  0
 19 15  1  0  0  0  0
 20  4  2  0  0  0  0
 21 22  2  0  0  0  0
 22  4  1  0  0  0  0
 23 15  1  0  0  0  0
 25 12  1  0  0  0  0
 26 24  1  0  0  0  0
 28 12  1  0  0  0  0
 28 10  1  0  0  0  0
 28 16  1  0  0  0  0
M  END
>  <MODEL>
5

>  <REMARK>
 VINA RESULT:      -5.0      2.302      4.593
  Name = 
  0 active torsions:
  status: ('A' for Active; 'I' for Inactive)
                            x       y       z     vdW  Elec       q    Type
                         _______ _______ _______ _____ _____    ______ ____

>  <TORSDO>
F 0

$$$$
=
 OpenBabel11122411503D

 28 32  0  0  1  0  0  0  0  0999 V2000
  185.9010  174.8460  136.8290 C   0  0  0  0  0  0  0  0  0  0  0  0
  183.9460  177.9720  140.4610 O   0  0  0  0  0  0  0  0  0  0  0  0
  179.6830  174.4000  136.8750 C   0  0  0  0  0  1  0  0  0  0  0  0
  186.8960  177.0160  135.3620 C   0  0  0  0  0  3  0  0  0  0  0  0
  180.5600  176.5250  135.9190 C   0  0  1  0  0  3  0  0  0  0  0  0
  185.3710  173.6460  137.5530 C   0  0  0  0  0  2  0  0  0  0  0  0
  185.7120  178.5990  138.8590 O   0  0  0  0  0  0  0  0  0  0  0  0
  184.2310  178.5230  139.0930 S   0  0  0  0  0  0  0  0  0  0  0  0
  182.0020  180.0110  138.6700 C   0  0  1  0  0  3  0  0  0  0  0  0
  183.4560  177.5450  137.8690 C   0  0  2  0  0  3  0  0  0  0  0  0
  184.0230  173.7750  134.7260 O   0  0  0  0  0  1  0  0  0  0  0  0
  182.7180  175.8930  136.4680 C   0  0  2  0  0  3  0  0  0  0  0  0
  181.7140  179.2060  137.4810 N   0  0  0  0  0  0  0  0  0  0  0  0
  183.5050  180.1430  138.9160 C   0  0  0  0  0  2  0  0  0  0  0  0
  183.7010  172.8810  135.7520 C   0  0  2  0  0  3  0  0  0  0  0  0
  185.1630  176.0460  136.7720 C   0  0  0  0  0  0  0  0  0  0  0  0
  180.6540  174.9860  135.8640 C   0  0  1  0  0  3  0  0  0  0  0  0
  181.3850  181.3840  138.5150 C   0  0  0  0  0  1  0  0  0  0  0  0
  182.5230  173.3510  136.6150 C   0  0  0  0  0  2  0  0  0  0  0  0
  185.6650  177.1190  136.0130 C   0  0  0  0  0  3  0  0  0  0  0  0
  187.1370  174.7540  136.1770 C   0  0  0  0  0  3  0  0  0  0  0  0
  187.6350  175.8360  135.4500 C   0  0  0  0  0  3  0  0  0  0  0  0
  184.9330  172.5370  136.5910 C   0  0  0  0  0  2  0  0  0  0  0  0
  181.9390  176.9260  136.3150 C   0  0  2  0  0  3  0  0  0  0  0  0
  182.0350  174.6760  136.2360 N   0  0  2  0  0  0  0  0  0  0  0  0
  182.3750  177.9610  137.2270 C   0  0  0  0  0  0  0  0  0  0  0  0
  180.2770  177.0230  134.6470 O   0  0  0  0  0  1  0  0  0  0  0  0
  183.8180  176.1440  137.4540 C   0  0  1  0  0  3  0  0  0  0  0  0
  1  6  1  0  0  0  0
  4 22  2  0  0  0  0
  4 20  1  0  0  0  0
  5 27  1  6  0  0  0
  5 24  1  0  0  0  0
  7  8  2  0  0  0  0
  8  2  2  0  0  0  0
  9 18  1  6  0  0  0
  9 14  1  0  0  0  0
 10 26  1  1  0  0  0
 10  8  1  0  0  0  0
 11 15  1  0  0  0  0
 12 28  1  0  0  0  0
 13  9  1  0  0  0  0
 14  8  1  0  0  0  0
 15 23  1  0  0  0  0
 15 19  1  0  0  0  0
 16  1  1  0  0  0  0
 16 28  1  0  0  0  0
 17  5  1  0  0  0  0
 17 25  1  0  0  0  0
 17  3  1  0  0  0  0
 20 16  2  0  0  0  0
 21  1  2  0  0  0  0
 22 21  1  0  0  0  0
 23  6  1  0  0  0  0
 24 12  1  0  0  0  0
 24 26  1  0  0  0  0
 25 12  1  0  0  0  0
 25 19  1  0  0  0  0
 26 13  2  0  0  0  0
 28 10  1  0  0  0  0
M  END
>  <MODEL>
6

>  <REMARK>
 VINA RESULT:      -5.0      2.426      5.538
  Name = 
  0 active torsions:
  status: ('A' for Active; 'I' for Inactive)
                            x       y       z     vdW  Elec       q    Type
                         _______ _______ _______ _____ _____    ______ ____

>  <TORSDO>
F 0

$$$$
=
 OpenBabel11122411503D

 28 32  0  0  1  0  0  0  0  0999 V2000
  183.7610  178.7140  139.0230 C   0  0  0  0  0  0  0  0  0  0  0  0
  186.4900  178.7740  134.6250 O   0  0  0  0  0  0  0  0  0  0  0  0
  182.6660  173.4990  135.7880 C   0  0  0  0  0  1  0  0  0  0  0  0
  186.0910  178.6440  140.5790 C   0  0  0  0  0  3  0  0  0  0  0  0
  184.9140  173.6010  136.8530 C   0  0  1  0  0  3  0  0  0  0  0  0
  182.4800  178.7220  138.2480 C   0  0  0  0  0  2  0  0  0  0  0  0
  187.3730  179.3840  136.8440 O   0  0  0  0  0  0  0  0  0  0  0  0
  187.1310  178.2580  135.8810 S   0  0  0  0  0  0  0  0  0  0  0  0
  188.3960  176.0510  134.9370 C   0  0  1  0  0  3  0  0  0  0  0  0
  186.1380  177.0180  136.6090 C   0  0  2  0  0  3  0  0  0  0  0  0
  182.6020  176.0820  139.9310 O   0  0  0  0  0  1  0  0  0  0  0  0
  184.4850  175.7590  137.5720 C   0  0  2  0  0  3  0  0  0  0  0  0
  187.6230  175.2310  135.8730 N   0  0  0  0  0  0  0  0  0  0  0  0
  188.6740  177.4460  135.4990 C   0  0  0  0  0  2  0  0  0  0  0  0
  181.6310  176.4070  138.9790 C   0  0  2  0  0  3  0  0  0  0  0  0
  184.8790  177.9820  138.5730 C   0  0  0  0  0  0  0  0  0  0  0  0
  183.3980  173.7500  137.0960 C   0  0  1  0  0  3  0  0  0  0  0  0
  189.7040  175.3590  134.6170 C   0  0  0  0  0  1  0  0  0  0  0  0
  181.9330  175.8340  137.5880 C   0  0  0  0  0  2  0  0  0  0  0  0
  186.0340  177.9380  139.3750 C   0  0  0  0  0  3  0  0  0  0  0  0
  183.8300  179.4220  140.2290 C   0  0  0  0  0  3  0  0  0  0  0  0
  184.9920  179.3920  141.0020 C   0  0  0  0  0  3  0  0  0  0  0  0
  181.3780  177.9160  138.9420 C   0  0  0  0  0  2  0  0  0  0  0  0
  185.4380  174.9530  137.1960 C   0  0  2  0  0  3  0  0  0  0  0  0
  183.2160  175.1370  137.5280 N   0  0  2  0  0  0  0  0  0  0  0  0
  186.4680  175.7380  136.5510 C   0  0  0  0  0  0  0  0  0  0  0  0
  185.4400  172.6590  137.7360 O   0  0  0  0  0  1  0  0  0  0  0  0
  184.8040  177.1960  137.2840 C   0  0  1  0  0  3  0  0  0  0  0  0
  1 21  1  0  0  0  0
  2  8  2  0  0  0  0
  3 17  1  0  0  0  0
  4 22  1  0  0  0  0
  5 17  1  0  0  0  0
  5 24  1  0  0  0  0
  5 27  1  1  0  0  0
  6 23  1  0  0  0  0
  6  1  1  0  0  0  0
  8 10  1  0  0  0  0
  8  7  2  0  0  0  0
  9 18  1  1  0  0  0
  9 14  1  0  0  0  0
  9 13  1  0  0  0  0
 10 26  1  6  0  0  0
 10 28  1  0  0  0  0
 13 26  2  0  0  0  0
 14  8  1  0  0  0  0
 15 11  1  0  0  0  0
 16  1  2  0  0  0  0
 16 20  1  0  0  0  0
 17 25  1  0  0  0  0
 19 15  1  0  0  0  0
 20  4  2  0  0  0  0
 21 22  2  0  0  0  0
 23 15  1  0  0  0  0
 24 12  1  0  0  0  0
 25 12  1  0  0  0  0
 25 19  1  0  0  0  0
 26 24  1  0  0  0  0
 28 12  1  0  0  0  0
 28 16  1  0  0  0  0
M  END
>  <MODEL>
7

>  <REMARK>
 VINA RESULT:      -4.8      2.259      4.805
  Name = 
  0 active torsions:
  status: ('A' for Active; 'I' for Inactive)
                            x       y       z     vdW  Elec       q    Type
                         _______ _______ _______ _____ _____    ______ ____

>  <TORSDO>
F 0

$$$$
=
 OpenBabel11122411503D

 28 32  0  0  1  0  0  0  0  0999 V2000
  185.9270  175.1790  135.8940 C   0  0  0  0  0  0  0  0  0  0  0  0
  180.7560  175.1340  135.6920 O   0  0  0  0  0  0  0  0  0  0  0  0
  183.6530  180.1130  138.9500 C   0  0  0  0  0  1  0  0  0  0  0  0
  185.9840  172.8120  137.3930 C   0  0  0  0  0  3  0  0  0  0  0  0
  183.3440  177.9380  140.1230 C   0  0  1  0  0  3  0  0  0  0  0  0
  185.9630  176.4590  135.1180 C   0  0  0  0  0  2  0  0  0  0  0  0
  182.1670  173.1760  136.1950 O   0  0  0  0  0  0  0  0  0  0  0  0
  181.4560  174.3640  136.7750 S   0  0  0  0  0  0  0  0  0  0  0  0
  179.9220  174.9990  138.9220 C   0  0  1  0  0  3  0  0  0  0  0  0
  182.5710  175.4000  137.6350 C   0  0  0  0  0  0  0  0  0  0  0  0
  187.2460  176.9690  137.9310 O   0  0  0  0  0  1  0  0  0  0  0  0
  184.2370  176.8200  138.3030 C   0  0  2  0  0  3  0  0  0  0  0  0
  181.1040  175.5630  139.5760 N   0  0  0  0  0  2  0  0  0  0  0  0
  180.2830  173.8270  138.0080 C   0  0  0  0  0  2  0  0  0  0  0  0
  186.9750  177.9400  136.9620 C   0  0  2  0  0  3  0  0  0  0  0  0
  184.9280  174.9400  136.8590 C   0  0  0  0  0  0  0  0  0  0  0  0
  184.3680  178.8610  139.4280 C   0  0  1  0  0  3  0  0  0  0  0  0
  178.9310  174.5430  139.9710 C   0  0  0  0  0  1  0  0  0  0  0  0
  185.6250  178.6390  137.1700 C   0  0  0  0  0  2  0  0  0  0  0  0
  184.9820  173.7580  137.6190 C   0  0  0  0  0  3  0  0  0  0  0  0
  186.9250  174.2220  135.6710 C   0  0  0  0  0  3  0  0  0  0  0  0
  186.9510  173.0410  136.4140 C   0  0  0  0  0  3  0  0  0  0  0  0
  187.1190  177.3660  135.5510 C   0  0  0  0  0  2  0  0  0  0  0  0
  183.3870  176.7070  139.2860 C   0  0  2  0  0  3  0  0  0  0  0  0
  184.8660  178.0860  138.2900 N   0  0  2  0  0  0  0  0  0  0  0  0
  182.3100  175.8420  138.8560 C   0  0  0  0  0  0  0  0  0  0  0  0
  183.7810  177.6410  141.4130 O   0  0  0  0  0  1  0  0  0  0  0  0
  183.8620  175.9790  137.1210 C   0  0  1  0  0  3  0  0  0  0  0  0
  1 16  1  0  0  0  0
  2  8  2  0  0  0  0
  3 17  1  0  0  0  0
  4 20  1  0  0  0  0
  5 27  1  1  0  0  0
  6 23  1  0  0  0  0
  6  1  1  0  0  0  0
  7  8  2  0  0  0  0
  8 10  1  0  0  0  0
  8 14  1  0  0  0  0
  9 13  1  0  0  0  0
  9 18  1  1  0  0  0
 10 26  2  0  0  0  0
 12 24  1  0  0  0  0
 14  9  1  0  0  0  0
 15 19  1  0  0  0  0
 15 11  1  0  0  0  0
 16 28  1  0  0  0  0
 16 20  2  0  0  0  0
 17  5  1  0  0  0  0
 19 25  1  0  0  0  0
 21  1  2  0  0  0  0
 21 22  1  0  0  0  0
 22  4  2  0  0  0  0
 23 15  1  0  0  0  0
 24  5  1  0  0  0  0
 25 12  1  0  0  0  0
 25 17  1  0  0  0  0
 26 24  1  0  0  0  0
 26 13  1  0  0  0  0
 28 10  1  0  0  0  0
 28 12  1  0  0  0  0
M  END
>  <MODEL>
8

>  <REMARK>
 VINA RESULT:      -4.8      2.272      5.510
  Name = 
  0 active torsions:
  status: ('A' for Active; 'I' for Inactive)
                            x       y       z     vdW  Elec       q    Type
                         _______ _______ _______ _____ _____    ______ ____

>  <TORSDO>
F 0

$$$$
=
 OpenBabel11122411503D

 28 32  0  0  1  0  0  0  0  0999 V2000
  186.3620  173.9690  135.6390 C   0  0  0  0  0  0  0  0  0  0  0  0
  182.9870  177.8480  135.0430 O   0  0  0  0  0  0  0  0  0  0  0  0
  189.0290  179.3590  137.2810 C   0  0  0  0  0  1  0  0  0  0  0  0
  184.7990  172.7920  137.6450 C   0  0  0  0  0  3  0  0  0  0  0  0
  187.3360  178.5100  138.8960 C   0  0  1  0  0  3  0  0  0  0  0  0
  187.2550  174.5630  134.5930 C   0  0  0  0  0  2  0  0  0  0  0  0
  182.4750  175.6790  136.0960 O   0  0  0  0  0  0  0  0  0  0  0  0
  182.9920  177.0690  136.3270 S   0  0  0  0  0  0  0  0  0  0  0  0
  182.7640  179.0750  138.1400 C   0  0  1  0  0  3  0  0  0  0  0  0
  184.6010  177.0300  137.0100 C   0  0  0  0  0  0  0  0  0  0  0  0
  188.8230  174.4810  137.3050 O   0  0  0  0  0  1  0  0  0  0  0  0
  186.8290  176.7650  137.4620 C   0  0  2  0  0  3  0  0  0  0  0  0
  184.0330  178.6540  138.7370 N   0  0  0  0  0  2  0  0  0  0  0  0
  181.9920  177.8920  137.5540 C   0  0  0  0  0  2  0  0  0  0  0  0
  189.2600  175.0810  136.1200 C   0  0  2  0  0  3  0  0  0  0  0  0
  185.6650  174.7880  136.5510 C   0  0  0  0  0  0  0  0  0  0  0  0
  188.6010  178.1470  138.0910 C   0  0  1  0  0  3  0  0  0  0  0  0
  181.9180  179.7720  139.1840 C   0  0  0  0  0  1  0  0  0  0  0  0
  188.9500  176.5810  136.0530 C   0  0  0  0  0  2  0  0  0  0  0  0
  184.9020  174.1820  137.5660 C   0  0  0  0  0  3  0  0  0  0  0  0
  186.2490  172.5760  135.7240 C   0  0  0  0  0  3  0  0  0  0  0  0
  185.4670  171.9890  136.7200 C   0  0  0  0  0  3  0  0  0  0  0  0
  188.7370  174.3250  134.8950 C   0  0  0  0  0  2  0  0  0  0  0  0
  186.3250  177.5500  138.3730 C   0  0  2  0  0  3  0  0  0  0  0  0
  188.1890  177.0560  137.2060 N   0  0  2  0  0  0  0  0  0  0  0  0
  184.9250  177.7530  138.0710 C   0  0  0  0  0  0  0  0  0  0  0  0
  187.5560  178.2630  140.2510 O   0  0  0  0  0  1  0  0  0  0  0  0
  185.8010  176.2910  136.4800 C   0  0  1  0  0  3  0  0  0  0  0  0
  1 21  2  0  0  0  0
  1 16  1  0  0  0  0
  2  8  2  0  0  0  0
  3 17  1  0  0  0  0
  5 27  1  1  0  0  0
  6 23  1  0  0  0  0
  6  1  1  0  0  0  0
  7  8  2  0  0  0  0
  8 10  1  0  0  0  0
  8 14  1  0  0  0  0
  9 13  1  0  0  0  0
  9 18  1  1  0  0  0
 10 26  2  0  0  0  0
 12 24  1  0  0  0  0
 14  9  1  0  0  0  0
 15 11  1  0  0  0  0
 16 20  2  0  0  0  0
 17  5  1  0  0  0  0
 19 15  1  0  0  0  0
 19 25  1  0  0  0  0
 20  4  1  0  0  0  0
 21 22  1  0  0  0  0
 22  4  2  0  0  0  0
 23 15  1  0  0  0  0
 24  5  1  0  0  0  0
 25 12  1  0  0  0  0
 25 17  1  0  0  0  0
 26 24  1  0  0  0  0
 26 13  1  0  0  0  0
 28 16  1  0  0  0  0
 28 10  1  0  0  0  0
 28 12  1  0  0  0  0
M  END
>  <MODEL>
9

>  <REMARK>
 VINA RESULT:      -4.7      2.682      5.825
  Name = 
  0 active torsions:
  status: ('A' for Active; 'I' for Inactive)
                            x       y       z     vdW  Elec       q    Type
                         _______ _______ _______ _____ _____    ______ ____

>  <TORSDO>
F 0

$$$$
