=
 OpenBabel11122411003D

 31 35  0  0  1  0  0  0  0  0999 V2000
  187.0140  176.3450  136.7480 C   0  0  0  0  0  0  0  0  0  0  0  0
  190.5570  177.0940  137.9150 C   0  0  2  0  0  3  0  0  0  0  0  0
  190.5100  177.2480  139.4270 C   0  0  0  0  0  0  0  0  0  0  0  0
  189.2760  177.6960  141.4740 C   0  0  0  0  0  0  0  0  0  0  0  0
  189.3500  176.3650  137.3920 C   0  0  0  0  0  0  0  0  0  0  0  0
  187.0630  174.9550  136.6140 C   0  0  0  0  0  3  0  0  0  0  0  0
  189.3060  177.5390  140.0860 C   0  0  0  0  0  3  0  0  0  0  0  0
  191.7850  174.8750  137.5620 C   0  0  0  0  0  0  0  0  0  0  0  0
  185.8310  177.0250  136.4970 O   0  0  0  0  0  1  0  0  0  0  0  0
  192.9210  176.9360  139.5480 O   0  0  0  0  0  0  0  0  0  0  0  0
  187.7620  178.0390  142.2820 Cl  0  0  0  0  0  0  0  0  0  0  0  0
  190.6380  174.2740  137.4330 N   0  0  0  0  0  0  0  0  0  0  0  0
  191.8560  176.3990  137.4310 C   0  0  2  0  0  3  0  0  0  0  0  0
  192.9570  174.0460  137.5960 N   0  0  0  0  0  2  0  0  0  0  0  0
  188.1550  177.0510  137.1410 C   0  0  0  0  0  3  0  0  0  0  0  0
  190.4530  177.5760  142.2170 C   0  0  0  0  0  3  0  0  0  0  0  0
  189.4000  174.9710  137.2460 C   0  0  0  0  0  0  0  0  0  0  0  0
  188.2560  174.2670  136.8610 C   0  0  0  0  0  3  0  0  0  0  0  0
  193.0550  177.0380  138.1330 C   0  0  0  0  0  2  0  0  0  0  0  0
  191.7000  177.1700  140.1810 C   0  0  0  0  0  0  0  0  0  0  0  0
  191.6630  177.3150  141.5700 C   0  0  0  0  0  3  0  0  0  0  0  0
  195.0960  173.9770  138.7110 C   0  0  0  0  0  1  0  0  0  0  0  0
  194.3340  174.5090  137.5080 C   0  0  1  0  0  3  0  0  0  0  0  0
  197.9290  173.7950  136.4910 C   0  0  1  0  0  3  0  0  0  0  0  0
  195.7170  172.8200  136.3520 O   0  0  0  0  0  0  0  0  0  0  0  0
  195.3700  176.6240  135.6780 O   0  0  0  0  0  0  0  0  0  0  0  0
  199.1800  173.7700  137.3410 C   0  0  0  0  0  1  0  0  0  0  0  0
  196.8120  173.0490  137.2130 C   0  0  0  0  0  2  0  0  0  0  0  0
  195.9750  175.2720  135.3260 S   0  0  2  0  0  0  0  0  0  0  0  0
  194.9770  174.0180  136.1970 C   0  0  2  0  0  3  0  0  0  0  0  0
  197.5150  175.2380  136.2570 C   0  0  0  0  0  2  0  0  0  0  0  0
  1 15  1  0  0  0  0
  2  5  1  1  0  0  0
  2  3  1  0  0  0  0
  3  7  2  0  0  0  0
  3 20  1  0  0  0  0
  4 16  2  0  0  0  0
  4 11  1  0  0  0  0
  6  1  2  0  0  0  0
  6 18  1  0  0  0  0
  7  4  1  0  0  0  0
  8 14  1  0  0  0  0
  9  1  1  0  0  0  0
 10 20  1  0  0  0  0
 12  8  2  0  0  0  0
 13  8  1  0  0  0  0
 13  2  1  0  0  0  0
 13 19  1  1  0  0  0
 15  5  2  0  0  0  0
 17  5  1  0  0  0  0
 17 12  1  0  0  0  0
 18 17  2  0  0  0  0
 19 10  1  0  0  0  0
 20 21  2  0  0  0  0
 21 16  1  0  0  0  0
 23 14  1  0  0  0  0
 23 22  1  1  0  0  0
 24 28  1  0  0  0  0
 24 27  1  1  0  0  0
 25 28  1  0  0  0  0
 29 26  2  1  0  0  0
 29 30  1  0  0  0  0
 29 31  1  0  0  0  0
 30 25  1  0  0  0  0
 30 23  1  1  0  0  0
 31 24  1  0  0  0  0
M  END
>  <MODEL>
1

>  <REMARK>
 VINA RESULT:      -7.2      0.000      0.000
  Name = 
  2 active torsions:
  status: ('A' for Active; 'I' for Inactive)
    1  A    between atoms: C_5  and  N_16
    2  A    between atoms: C_5  and  C_30
                            x       y       z     vdW  Elec       q    Type
                         _______ _______ _______ _____ _____    ______ ____

>  <TORSDO>
F 2

$$$$
=
 OpenBabel11122411003D

 31 35  0  0  1  0  0  0  0  0999 V2000
  191.3980  176.0930  143.6950 C   0  0  0  0  0  0  0  0  0  0  0  0
  187.6480  176.7010  143.8870 C   0  0  2  0  0  3  0  0  0  0  0  0
  187.3840  177.4970  145.1560 C   0  0  0  0  0  0  0  0  0  0  0  0
  188.0570  178.2290  147.3770 C   0  0  0  0  0  0  0  0  0  0  0  0
  189.0880  176.7870  143.4650 C   0  0  0  0  0  0  0  0  0  0  0  0
  191.7900  177.1040  142.8120 C   0  0  0  0  0  3  0  0  0  0  0  0
  188.3140  177.5090  146.2070 C   0  0  0  0  0  3  0  0  0  0  0  0
  187.2160  178.3850  142.0070 C   0  0  0  0  0  0  0  0  0  0  0  0
  192.3490  175.2490  144.2490 O   0  0  0  0  0  1  0  0  0  0  0  0
  185.1930  178.1410  144.3150 O   0  0  0  0  0  0  0  0  0  0  0  0
  189.2360  178.2490  148.6690 Cl  0  0  0  0  0  0  0  0  0  0  0  0
  188.4940  178.6200  141.9410 N   0  0  0  0  0  0  0  0  0  0  0  0
  186.7180  177.1240  142.7210 C   0  0  2  0  0  3  0  0  0  0  0  0
  186.3570  179.2120  141.2070 N   0  0  0  0  0  2  0  0  0  0  0  0
  190.0490  175.9370  144.0260 C   0  0  0  0  0  3  0  0  0  0  0  0
  186.8590  178.9350  147.5130 C   0  0  0  0  0  3  0  0  0  0  0  0
  189.4810  177.7940  142.5700 C   0  0  0  0  0  0  0  0  0  0  0  0
  190.8320  177.9530  142.2490 C   0  0  0  0  0  3  0  0  0  0  0  0
  185.2810  177.2160  143.2350 C   0  0  0  0  0  2  0  0  0  0  0  0
  186.1600  178.1790  145.3200 C   0  0  0  0  0  0  0  0  0  0  0  0
  185.9120  178.9080  146.4860 C   0  0  0  0  0  3  0  0  0  0  0  0
  184.1440  179.7080  142.0300 C   0  0  0  0  0  1  0  0  0  0  0  0
  184.9420  178.9820  140.9580 C   0  0  1  0  0  3  0  0  0  0  0  0
  182.6310  177.6450  138.2480 C   0  0  1  0  0  3  0  0  0  0  0  0
  183.1670  179.7070  139.3980 O   0  0  0  0  0  0  0  0  0  0  0  0
  186.5010  177.8610  138.6770 O   0  0  0  0  0  0  0  0  0  0  0  0
  181.6660  176.4800  138.2980 C   0  0  0  0  0  1  0  0  0  0  0  0
  182.4860  178.4760  139.5190 C   0  0  0  0  0  2  0  0  0  0  0  0
  185.2070  178.4900  138.1790 S   0  0  2  0  0  0  0  0  0  0  0  0
  184.5590  179.4950  139.5560 C   0  0  2  0  0  3  0  0  0  0  0  0
  184.0500  177.1120  138.1440 C   0  0  0  0  0  2  0  0  0  0  0  0
  1 15  1  0  0  0  0
  1  9  1  0  0  0  0
  2  5  1  6  0  0  0
  2  3  1  0  0  0  0
  3 20  2  0  0  0  0
  3  7  1  0  0  0  0
  4 16  1  0  0  0  0
  4 11  1  0  0  0  0
  5 15  2  0  0  0  0
  6  1  2  0  0  0  0
  7  4  2  0  0  0  0
  8 13  1  0  0  0  0
 10 20  1  0  0  0  0
 12  8  2  0  0  0  0
 12 17  1  0  0  0  0
 13 19  1  1  0  0  0
 13  2  1  0  0  0  0
 14  8  1  0  0  0  0
 17  5  1  0  0  0  0
 18 17  2  0  0  0  0
 18  6  1  0  0  0  0
 19 10  1  0  0  0  0
 20 21  1  0  0  0  0
 21 16  2  0  0  0  0
 23 14  1  0  0  0  0
 23 22  1  1  0  0  0
 24 27  1  1  0  0  0
 24 28  1  0  0  0  0
 25 28  1  0  0  0  0
 25 30  1  0  0  0  0
 29 26  2  1  0  0  0
 29 30  1  0  0  0  0
 30 23  1  1  0  0  0
 31 29  1  0  0  0  0
 31 24  1  0  0  0  0
M  END
>  <MODEL>
2

>  <REMARK>
 VINA RESULT:      -6.9      6.260      9.921
  Name = 
  2 active torsions:
  status: ('A' for Active; 'I' for Inactive)
    1  A    between atoms: C_5  and  N_16
    2  A    between atoms: C_5  and  C_30
                            x       y       z     vdW  Elec       q    Type
                         _______ _______ _______ _____ _____    ______ ____

>  <TORSDO>
F 2

$$$$
=
 OpenBabel11122411003D

 31 35  0  0  1  0  0  0  0  0999 V2000
  191.5220  176.7100  145.1560 C   0  0  0  0  0  0  0  0  0  0  0  0
  187.8690  176.8100  144.1000 C   0  0  2  0  0  3  0  0  0  0  0  0
  187.1130  177.5920  145.1630 C   0  0  0  0  0  0  0  0  0  0  0  0
  186.9340  178.4590  147.4280 C   0  0  0  0  0  0  0  0  0  0  0  0
  189.3480  177.0800  144.1550 C   0  0  0  0  0  0  0  0  0  0  0  0
  192.0560  177.7430  144.3810 C   0  0  0  0  0  3  0  0  0  0  0  0
  187.6420  177.7540  146.4530 C   0  0  0  0  0  3  0  0  0  0  0  0
  187.8740  178.3760  142.0740 C   0  0  0  0  0  0  0  0  0  0  0  0
  192.3360  176.0140  146.0390 O   0  0  0  0  0  1  0  0  0  0  0  0
  185.2550  177.9160  143.6250 O   0  0  0  0  0  0  0  0  0  0  0  0
  187.6170  178.6680  149.0260 Cl  0  0  0  0  0  0  0  0  0  0  0  0
  189.0670  178.7800  142.4050 N   0  0  0  0  0  0  0  0  0  0  0  0
  187.3270  177.0770  142.6720 C   0  0  2  0  0  3  0  0  0  0  0  0
  187.2290  179.0620  140.9890 N   0  0  0  0  0  2  0  0  0  0  0  0
  190.1680  176.3810  145.0480 C   0  0  0  0  0  3  0  0  0  0  0  0
  185.6810  179.0010  147.1280 C   0  0  0  0  0  3  0  0  0  0  0  0
  189.8870  178.1090  143.3690 C   0  0  0  0  0  0  0  0  0  0  0  0
  191.2390  178.4420  143.4860 C   0  0  0  0  0  3  0  0  0  0  0  0
  185.8000  176.9870  142.6930 C   0  0  0  0  0  2  0  0  0  0  0  0
  185.8310  178.1070  144.8810 C   0  0  0  0  0  0  0  0  0  0  0  0
  185.1310  178.8220  145.8570 C   0  0  0  0  0  3  0  0  0  0  0  0
  184.8370  179.3660  140.9500 C   0  0  0  0  0  1  0  0  0  0  0  0
  186.0110  178.6380  140.3160 C   0  0  1  0  0  3  0  0  0  0  0  0
  184.8170  176.8030  137.2050 C   0  0  1  0  0  3  0  0  0  0  0  0
  184.8310  179.0190  138.1790 O   0  0  0  0  0  0  0  0  0  0  0  0
  188.3010  177.4200  138.8440 O   0  0  0  0  0  0  0  0  0  0  0  0
  183.9510  175.5670  137.0930 C   0  0  0  0  0  1  0  0  0  0  0  0
  184.2110  177.7520  138.2340 C   0  0  0  0  0  2  0  0  0  0  0  0
  187.2210  177.8680  137.8700 S   0  0  2  0  0  0  0  0  0  0  0  0
  186.0970  178.9550  138.8110 C   0  0  2  0  0  3  0  0  0  0  0  0
  186.2130  176.3940  137.6440 C   0  0  0  0  0  2  0  0  0  0  0  0
  1  9  1  0  0  0  0
  2  5  1  6  0  0  0
  2  3  1  0  0  0  0
  3  7  1  0  0  0  0
  4 11  1  0  0  0  0
  5 15  2  0  0  0  0
  6  1  2  0  0  0  0
  7  4  2  0  0  0  0
  8 12  2  0  0  0  0
  8 13  1  0  0  0  0
 10 20  1  0  0  0  0
 12 17  1  0  0  0  0
 13 19  1  1  0  0  0
 13  2  1  0  0  0  0
 14  8  1  0  0  0  0
 15  1  1  0  0  0  0
 16  4  1  0  0  0  0
 17 18  2  0  0  0  0
 17  5  1  0  0  0  0
 18  6  1  0  0  0  0
 19 10  1  0  0  0  0
 20  3  2  0  0  0  0
 20 21  1  0  0  0  0
 21 16  2  0  0  0  0
 23 22  1  1  0  0  0
 23 14  1  0  0  0  0
 24 27  1  1  0  0  0
 24 31  1  0  0  0  0
 24 28  1  0  0  0  0
 25 28  1  0  0  0  0
 25 30  1  0  0  0  0
 29 30  1  0  0  0  0
 29 26  2  1  0  0  0
 30 23  1  1  0  0  0
 31 29  1  0  0  0  0
M  END
>  <MODEL>
3

>  <REMARK>
 VINA RESULT:      -6.5      6.345      9.310
  Name = 
  2 active torsions:
  status: ('A' for Active; 'I' for Inactive)
    1  A    between atoms: C_5  and  N_16
    2  A    between atoms: C_5  and  C_30
                            x       y       z     vdW  Elec       q    Type
                         _______ _______ _______ _____ _____    ______ ____

>  <TORSDO>
F 2

$$$$
=
 OpenBabel11122411003D

 31 35  0  0  1  0  0  0  0  0999 V2000
  183.4100  178.7800  143.5670 C   0  0  0  0  0  0  0  0  0  0  0  0
  182.9760  177.8360  139.9080 C   0  0  2  0  0  3  0  0  0  0  0  0
  182.0710  178.8830  139.2760 C   0  0  0  0  0  0  0  0  0  0  0  0
  180.3890  180.6290  139.4760 C   0  0  0  0  0  0  0  0  0  0  0  0
  183.5820  178.3260  141.1940 C   0  0  0  0  0  0  0  0  0  0  0  0
  184.6470  179.4290  143.5330 C   0  0  0  0  0  3  0  0  0  0  0  0
  181.2290  179.6810  140.0660 C   0  0  0  0  0  3  0  0  0  0  0  0
  185.2740  178.3170  138.8880 C   0  0  0  0  0  0  0  0  0  0  0  0
  182.7090  178.6850  144.7610 O   0  0  0  0  0  1  0  0  0  0  0  0
  182.8010  178.1970  137.0580 O   0  0  0  0  0  0  0  0  0  0  0  0
  179.3600  181.6290  140.4780 Cl  0  0  0  0  0  0  0  0  0  0  0  0
  185.5870  179.0030  139.9480 N   0  0  0  0  0  0  0  0  0  0  0  0
  184.0860  177.3520  138.9400 C   0  0  2  0  0  3  0  0  0  0  0  0
  186.2070  178.3380  137.7960 N   0  0  0  0  0  2  0  0  0  0  0  0
  182.8730  178.2330  142.3980 C   0  0  0  0  0  3  0  0  0  0  0  0
  180.3720  180.7790  138.0870 C   0  0  0  0  0  3  0  0  0  0  0  0
  184.8290  178.9670  141.1630 C   0  0  0  0  0  0  0  0  0  0  0  0
  185.3580  179.5210  142.3320 C   0  0  0  0  0  3  0  0  0  0  0  0
  183.4610  177.0470  137.5780 C   0  0  0  0  0  2  0  0  0  0  0  0
  182.0170  179.0140  137.8730 C   0  0  0  0  0  0  0  0  0  0  0  0
  181.1830  179.9710  137.2880 C   0  0  0  0  0  3  0  0  0  0  0  0
  186.9210  178.1680  135.4980 C   0  0  0  0  0  1  0  0  0  0  0  0
  186.1680  177.4770  136.6240 C   0  0  1  0  0  3  0  0  0  0  0  0
  189.4050  175.8030  135.5310 C   0  0  1  0  0  3  0  0  0  0  0  0
  188.0950  176.2190  137.5240 O   0  0  0  0  0  0  0  0  0  0  0  0
  185.6360  175.2840  134.6750 O   0  0  0  0  0  0  0  0  0  0  0  0
  190.5590  176.3730  134.7350 C   0  0  0  0  0  1  0  0  0  0  0  0
  188.9810  176.8090  136.5970 C   0  0  0  0  0  2  0  0  0  0  0  0
  186.8330  174.9400  135.5490 S   0  0  2  0  0  0  0  0  0  0  0  0
  186.8060  176.1120  136.9460 C   0  0  2  0  0  3  0  0  0  0  0  0
  188.2410  175.5290  134.5940 C   0  0  0  0  0  2  0  0  0  0  0  0
  1  9  1  0  0  0  0
  2  3  1  6  0  0  0
  2  5  1  0  0  0  0
  3  7  1  0  0  0  0
  4  7  2  0  0  0  0
  4 11  1  0  0  0  0
  5 15  1  0  0  0  0
  6  1  1  0  0  0  0
  8 13  1  0  0  0  0
  8 12  2  0  0  0  0
 10 19  1  0  0  0  0
 10 20  1  0  0  0  0
 12 17  1  0  0  0  0
 13 19  1  6  0  0  0
 13  2  1  0  0  0  0
 14  8  1  0  0  0  0
 15  1  2  0  0  0  0
 16  4  1  0  0  0  0
 17  5  2  0  0  0  0
 17 18  1  0  0  0  0
 18  6  2  0  0  0  0
 20  3  2  0  0  0  0
 21 20  1  0  0  0  0
 21 16  2  0  0  0  0
 23 22  1  6  0  0  0
 23 14  1  0  0  0  0
 24 27  1  6  0  0  0
 24 28  1  0  0  0  0
 28 25  1  0  0  0  0
 29 26  2  6  0  0  0
 29 30  1  0  0  0  0
 30 23  1  6  0  0  0
 30 25  1  0  0  0  0
 31 24  1  0  0  0  0
 31 29  1  0  0  0  0
M  END
>  <MODEL>
4

>  <REMARK>
 VINA RESULT:      -6.5      5.587      8.913
  Name = 
  2 active torsions:
  status: ('A' for Active; 'I' for Inactive)
    1  A    between atoms: C_5  and  N_16
    2  A    between atoms: C_5  and  C_30
                            x       y       z     vdW  Elec       q    Type
                         _______ _______ _______ _____ _____    ______ ____

>  <TORSDO>
F 2

$$$$
=
 OpenBabel11122411003D

 31 35  0  0  1  0  0  0  0  0999 V2000
  179.8850  178.2090  141.6590 C   0  0  0  0  0  0  0  0  0  0  0  0
  183.3270  178.9440  140.2150 C   0  0  2  0  0  3  0  0  0  0  0  0
  184.3400  178.7160  141.3260 C   0  0  0  0  0  0  0  0  0  0  0  0
  184.8900  178.5380  143.6880 C   0  0  0  0  0  0  0  0  0  0  0  0
  182.0160  178.2680  140.5080 C   0  0  0  0  0  0  0  0  0  0  0  0
  179.6750  176.9040  141.2050 C   0  0  0  0  0  3  0  0  0  0  0  0
  183.9500  178.7320  142.6730 C   0  0  0  0  0  3  0  0  0  0  0  0
  183.7310  176.9940  138.6060 C   0  0  0  0  0  0  0  0  0  0  0  0
  178.9330  178.8270  142.4560 O   0  0  0  0  0  1  0  0  0  0  0  0
  186.1330  178.5890  139.6840 O   0  0  0  0  0  0  0  0  0  0  0  0
  184.3820  178.5410  145.3630 Cl  0  0  0  0  0  0  0  0  0  0  0  0
  182.7460  176.3480  139.1610 N   0  0  0  0  0  0  0  0  0  0  0  0
  183.8610  178.5030  138.8280 C   0  0  2  0  0  3  0  0  0  0  0  0
  184.5110  176.2840  137.6310 N   0  0  0  0  0  2  0  0  0  0  0  0
  181.0570  178.8900  141.3160 C   0  0  0  0  0  3  0  0  0  0  0  0
  186.2350  178.3390  143.3660 C   0  0  0  0  0  3  0  0  0  0  0  0
  181.8000  176.9620  140.0430 C   0  0  0  0  0  0  0  0  0  0  0  0
  180.6310  176.2810  140.3960 C   0  0  0  0  0  3  0  0  0  0  0  0
  185.2780  179.0490  138.6420 C   0  0  0  0  0  2  0  0  0  0  0  0
  185.7060  178.5550  141.0120 C   0  0  0  0  0  0  0  0  0  0  0  0
  186.6420  178.3500  142.0300 C   0  0  0  0  0  3  0  0  0  0  0  0
  186.8740  176.3780  137.1570 C   0  0  0  0  0  1  0  0  0  0  0  0
  185.4980  176.8700  136.7370 C   0  0  1  0  0  3  0  0  0  0  0  0
  182.2660  176.2860  134.8180 C   0  0  1  0  0  3  0  0  0  0  0  0
  184.3960  177.4150  134.5940 O   0  0  0  0  0  0  0  0  0  0  0  0
  185.0610  173.9630  136.2340 O   0  0  0  0  0  0  0  0  0  0  0  0
  180.8370  176.5340  135.2480 C   0  0  0  0  0  1  0  0  0  0  0  0
  183.1260  177.4860  135.2040 C   0  0  0  0  0  2  0  0  0  0  0  0
  184.5150  174.7920  135.0790 S   0  0  2  0  0  0  0  0  0  0  0  0
  185.2000  176.4700  135.2800 C   0  0  2  0  0  3  0  0  0  0  0  0
  182.7850  175.0380  135.5130 C   0  0  0  0  0  2  0  0  0  0  0  0
  1  9  1  0  0  0  0
  2  5  1  1  0  0  0
  2  3  1  0  0  0  0
  3  7  1  0  0  0  0
  4 11  1  0  0  0  0
  5 15  2  0  0  0  0
  6  1  2  0  0  0  0
  7  4  2  0  0  0  0
  8 13  1  0  0  0  0
  8 12  2  0  0  0  0
 10 20  1  0  0  0  0
 12 17  1  0  0  0  0
 13 19  1  1  0  0  0
 13  2  1  0  0  0  0
 14  8  1  0  0  0  0
 15  1  1  0  0  0  0
 16  4  1  0  0  0  0
 17 18  2  0  0  0  0
 17  5  1  0  0  0  0
 18  6  1  0  0  0  0
 19 10  1  0  0  0  0
 20  3  2  0  0  0  0
 20 21  1  0  0  0  0
 21 16  2  0  0  0  0
 23 22  1  1  0  0  0
 23 14  1  0  0  0  0
 24 28  1  0  0  0  0
 24 27  1  1  0  0  0
 24 31  1  0  0  0  0
 25 28  1  0  0  0  0
 25 30  1  0  0  0  0
 29 30  1  0  0  0  0
 29 31  1  0  0  0  0
 29 26  2  1  0  0  0
 30 23  1  1  0  0  0
M  END
>  <MODEL>
5

>  <REMARK>
 VINA RESULT:      -6.5      6.973      9.657
  Name = 
  2 active torsions:
  status: ('A' for Active; 'I' for Inactive)
    1  A    between atoms: C_5  and  N_16
    2  A    between atoms: C_5  and  C_30
                            x       y       z     vdW  Elec       q    Type
                         _______ _______ _______ _____ _____    ______ ____

>  <TORSDO>
F 2

$$$$
=
 OpenBabel11122411003D

 31 35  0  0  1  0  0  0  0  0999 V2000
  185.3640  178.3370  138.3230 C   0  0  0  0  0  0  0  0  0  0  0  0
  189.0760  177.9390  139.0560 C   0  0  2  0  0  3  0  0  0  0  0  0
  189.2000  177.3820  140.4650 C   0  0  0  0  0  0  0  0  0  0  0  0
  188.2770  177.0060  142.6840 C   0  0  0  0  0  0  0  0  0  0  0  0
  187.7010  177.7180  138.4880 C   0  0  0  0  0  0  0  0  0  0  0  0
  185.1090  177.1750  137.5890 C   0  0  0  0  0  3  0  0  0  0  0  0
  188.1480  177.5060  141.3860 C   0  0  0  0  0  3  0  0  0  0  0  0
  189.7760  175.9830  137.5590 C   0  0  0  0  0  0  0  0  0  0  0  0
  184.3320  179.2190  138.6060 O   0  0  0  0  0  1  0  0  0  0  0  0
  191.4930  176.7030  140.0110 O   0  0  0  0  0  0  0  0  0  0  0  0
  186.9480  177.1520  143.8130 Cl  0  0  0  0  0  0  0  0  0  0  0  0
  188.5220  175.6830  137.3850 N   0  0  0  0  0  0  0  0  0  0  0  0
  190.1520  177.3660  138.0970 C   0  0  2  0  0  3  0  0  0  0  0  0
  190.7470  175.0720  137.0210 N   0  0  0  0  0  2  0  0  0  0  0  0
  186.6590  178.6070  138.7770 C   0  0  0  0  0  3  0  0  0  0  0  0
  189.4660  176.3870  143.0800 C   0  0  0  0  0  3  0  0  0  0  0  0
  187.4450  176.5580  137.7420 C   0  0  0  0  0  0  0  0  0  0  0  0
  186.1490  176.2870  137.2970 C   0  0  0  0  0  3  0  0  0  0  0  0
  191.5160  177.4270  138.7850 C   0  0  0  0  0  2  0  0  0  0  0  0
  190.4110  176.7920  140.8860 C   0  0  0  0  0  0  0  0  0  0  0  0
  190.5310  176.2830  142.1830 C   0  0  0  0  0  3  0  0  0  0  0  0
  192.9170  174.1360  137.5060 C   0  0  0  0  0  1  0  0  0  0  0  0
  192.1760  175.3190  136.9030 C   0  0  1  0  0  3  0  0  0  0  0  0
  194.6510  173.5410  134.6260 C   0  0  1  0  0  3  0  0  0  0  0  0
  192.3660  174.3390  134.6420 O   0  0  0  0  0  0  0  0  0  0  0  0
  194.5620  177.0270  136.3720 O   0  0  0  0  0  0  0  0  0  0  0  0
  195.4700  172.2950  134.8850 C   0  0  0  0  0  1  0  0  0  0  0  0
  193.2200  173.3130  135.1010 C   0  0  0  0  0  2  0  0  0  0  0  0
  194.2400  176.1690  135.1570 S   0  0  2  0  0  0  0  0  0  0  0  0
  192.5630  175.5050  135.4240 C   0  0  2  0  0  3  0  0  0  0  0  0
  195.2640  174.7070  135.3850 C   0  0  0  0  0  2  0  0  0  0  0  0
  1  9  1  0  0  0  0
  1 15  1  0  0  0  0
  2  5  1  6  0  0  0
  2  3  1  0  0  0  0
  3 20  2  0  0  0  0
  3  7  1  0  0  0  0
  4 16  1  0  0  0  0
  4 11  1  0  0  0  0
  5 15  2  0  0  0  0
  6  1  2  0  0  0  0
  7  4  2  0  0  0  0
  8 13  1  0  0  0  0
 10 20  1  0  0  0  0
 12  8  2  0  0  0  0
 12 17  1  0  0  0  0
 13 19  1  1  0  0  0
 13  2  1  0  0  0  0
 14  8  1  0  0  0  0
 17  5  1  0  0  0  0
 18  6  1  0  0  0  0
 18 17  2  0  0  0  0
 19 10  1  0  0  0  0
 20 21  1  0  0  0  0
 21 16  2  0  0  0  0
 23 14  1  0  0  0  0
 23 22  1  6  0  0  0
 24 27  1  1  0  0  0
 24 28  1  0  0  0  0
 24 31  1  0  0  0  0
 25 28  1  0  0  0  0
 25 30  1  0  0  0  0
 29 31  1  0  0  0  0
 29 30  1  0  0  0  0
 29 26  2  1  0  0  0
 30 23  1  1  0  0  0
M  END
>  <MODEL>
6

>  <REMARK>
 VINA RESULT:      -6.4      2.015      2.622
  Name = 
  2 active torsions:
  status: ('A' for Active; 'I' for Inactive)
    1  A    between atoms: C_5  and  N_16
    2  A    between atoms: C_5  and  C_30
                            x       y       z     vdW  Elec       q    Type
                         _______ _______ _______ _____ _____    ______ ____

>  <TORSDO>
F 2

$$$$
=
 OpenBabel11122411003D

 31 35  0  0  1  0  0  0  0  0999 V2000
  183.7850  178.7760  143.1040 C   0  0  0  0  0  0  0  0  0  0  0  0
  183.0760  177.6620  139.5370 C   0  0  2  0  0  3  0  0  0  0  0  0
  182.1610  178.7040  138.9120 C   0  0  0  0  0  0  0  0  0  0  0  0
  180.5470  180.5110  139.1310 C   0  0  0  0  0  0  0  0  0  0  0  0
  183.7820  178.1970  140.7520 C   0  0  0  0  0  0  0  0  0  0  0  0
  185.0350  179.3820  142.9540 C   0  0  0  0  0  3  0  0  0  0  0  0
  181.3980  179.5680  139.7130 C   0  0  0  0  0  3  0  0  0  0  0  0
  185.3130  178.0160  138.3420 C   0  0  0  0  0  0  0  0  0  0  0  0
  183.1640  178.7640  144.3450 O   0  0  0  0  0  1  0  0  0  0  0  0
  182.7190  177.8840  136.6900 O   0  0  0  0  0  0  0  0  0  0  0  0
  179.6190  181.5940  140.1440 Cl  0  0  0  0  0  0  0  0  0  0  0  0
  185.7170  178.7450  139.3420 N   0  0  0  0  0  0  0  0  0  0  0  0
  184.1030  177.0940  138.5240 C   0  0  2  0  0  3  0  0  0  0  0  0
  186.1690  177.9520  137.1910 N   0  0  0  0  0  2  0  0  0  0  0  0
  183.1550  178.1880  142.0030 C   0  0  0  0  0  3  0  0  0  0  0  0
  180.4400  180.5920  137.7400 C   0  0  0  0  0  3  0  0  0  0  0  0
  185.0420  178.7950  140.6050 C   0  0  0  0  0  0  0  0  0  0  0  0
  185.6650  179.3900  141.7050 C   0  0  0  0  0  3  0  0  0  0  0  0
  183.3790  176.7400  137.2240 C   0  0  0  0  0  2  0  0  0  0  0  0
  182.0150  178.7650  137.5100 C   0  0  0  0  0  0  0  0  0  0  0  0
  181.1720  179.7190  136.9320 C   0  0  0  0  0  3  0  0  0  0  0  0
  185.4350  177.8000  134.8980 C   0  0  0  0  0  1  0  0  0  0  0  0
  186.0260  177.0340  136.0710 C   0  0  1  0  0  3  0  0  0  0  0  0
  187.3250  173.4670  135.8340 C   0  0  1  0  0  3  0  0  0  0  0  0
  187.3350  175.5470  134.5950 O   0  0  0  0  0  0  0  0  0  0  0  0
  187.8560  176.4060  138.3410 O   0  0  0  0  0  0  0  0  0  0  0  0
  186.5690  172.1600  135.9440 C   0  0  0  0  0  1  0  0  0  0  0  0
  186.5480  174.4260  134.9380 C   0  0  0  0  0  2  0  0  0  0  0  0
  188.2960  175.6700  137.0830 S   0  0  2  0  0  0  0  0  0  0  0  0
  187.3960  176.4380  135.6950 C   0  0  2  0  0  3  0  0  0  0  0  0
  187.4810  174.0710  137.2190 C   0  0  0  0  0  2  0  0  0  0  0  0
  1  9  1  0  0  0  0
  2  3  1  6  0  0  0
  2  5  1  0  0  0  0
  3  7  1  0  0  0  0
  4  7  2  0  0  0  0
  4 11  1  0  0  0  0
  5 15  1  0  0  0  0
  6  1  1  0  0  0  0
  8 13  1  0  0  0  0
  8 12  2  0  0  0  0
 10 19  1  0  0  0  0
 10 20  1  0  0  0  0
 12 17  1  0  0  0  0
 13 19  1  6  0  0  0
 13  2  1  0  0  0  0
 14  8  1  0  0  0  0
 15  1  2  0  0  0  0
 16  4  1  0  0  0  0
 17  5  2  0  0  0  0
 17 18  1  0  0  0  0
 18  6  2  0  0  0  0
 20  3  2  0  0  0  0
 21 20  1  0  0  0  0
 21 16  2  0  0  0  0
 23 22  1  6  0  0  0
 23 14  1  0  0  0  0
 24 27  1  1  0  0  0
 24 31  1  0  0  0  0
 25 28  1  0  0  0  0
 25 30  1  0  0  0  0
 28 24  1  0  0  0  0
 29 31  1  0  0  0  0
 29 26  2  1  0  0  0
 30 23  1  1  0  0  0
 30 29  1  0  0  0  0
M  END
>  <MODEL>
7

>  <REMARK>
 VINA RESULT:      -6.2      6.467      9.023
  Name = 
  2 active torsions:
  status: ('A' for Active; 'I' for Inactive)
    1  A    between atoms: C_5  and  N_16
    2  A    between atoms: C_5  and  C_30
                            x       y       z     vdW  Elec       q    Type
                         _______ _______ _______ _____ _____    ______ ____

>  <TORSDO>
F 2

$$$$
=
 OpenBabel11122411003D

 31 35  0  0  1  0  0  0  0  0999 V2000
  187.3080  175.5200  136.6360 C   0  0  0  0  0  0  0  0  0  0  0  0
  190.6980  176.7780  137.8200 C   0  0  2  0  0  3  0  0  0  0  0  0
  190.5860  177.0350  139.3150 C   0  0  0  0  0  0  0  0  0  0  0  0
  189.2440  177.4770  141.2950 C   0  0  0  0  0  0  0  0  0  0  0  0
  189.6040  175.8720  137.3280 C   0  0  0  0  0  0  0  0  0  0  0  0
  187.5280  174.1400  136.6100 C   0  0  0  0  0  3  0  0  0  0  0  0
  189.3360  177.2240  139.9240 C   0  0  0  0  0  3  0  0  0  0  0  0
  192.1940  174.7070  137.6650 C   0  0  0  0  0  0  0  0  0  0  0  0
  186.0610  176.0310  136.3080 O   0  0  0  0  0  1  0  0  0  0  0  0
  193.0120  177.0290  139.5120 O   0  0  0  0  0  0  0  0  0  0  0  0
  187.6750  177.6900  142.0410 Cl  0  0  0  0  0  0  0  0  0  0  0  0
  191.1320  173.9620  137.5570 N   0  0  0  0  0  0  0  0  0  0  0  0
  192.0850  176.2140  137.4190 C   0  0  2  0  0  3  0  0  0  0  0  0
  193.4550  174.0310  137.7870 N   0  0  0  0  0  2  0  0  0  0  0  0
  188.3440  176.3860  137.0000 C   0  0  0  0  0  3  0  0  0  0  0  0
  190.4030  177.5560  142.0710 C   0  0  0  0  0  3  0  0  0  0  0  0
  189.8260  174.4870  137.2890 C   0  0  0  0  0  0  0  0  0  0  0  0
  188.7860  173.6230  136.9340 C   0  0  0  0  0  3  0  0  0  0  0  0
  193.1760  177.0440  138.0970 C   0  0  0  0  0  2  0  0  0  0  0  0
  191.7530  177.1580  140.0990 C   0  0  0  0  0  0  0  0  0  0  0  0
  191.6550  177.3990  141.4720 C   0  0  0  0  0  3  0  0  0  0  0  0
  195.4630  174.5050  139.0390 C   0  0  0  0  0  1  0  0  0  0  0  0
  194.7680  174.6520  137.6940 C   0  0  1  0  0  3  0  0  0  0  0  0
  193.9080  172.1110  134.9970 C   0  0  1  0  0  3  0  0  0  0  0  0
  195.0760  174.2120  135.2820 O   0  0  0  0  0  0  0  0  0  0  0  0
  195.9160  171.9750  138.3370 O   0  0  0  0  0  0  0  0  0  0  0  0
  192.5590  171.5520  134.5990 C   0  0  0  0  0  1  0  0  0  0  0  0
  193.7990  173.6220  135.1730 C   0  0  0  0  0  2  0  0  0  0  0  0
  195.9040  172.2010  136.8320 S   0  0  2  0  0  0  0  0  0  0  0  0
  195.5950  173.9810  136.5800 C   0  0  2  0  0  3  0  0  0  0  0  0
  194.3440  171.4720  136.3060 C   0  0  0  0  0  2  0  0  0  0  0  0
  1 15  1  0  0  0  0
  2  5  1  1  0  0  0
  2  3  1  0  0  0  0
  3  7  2  0  0  0  0
  3 20  1  0  0  0  0
  4 11  1  0  0  0  0
  4 16  2  0  0  0  0
  6  1  2  0  0  0  0
  6 18  1  0  0  0  0
  7  4  1  0  0  0  0
  8 14  1  0  0  0  0
  9  1  1  0  0  0  0
 10 20  1  0  0  0  0
 12  8  2  0  0  0  0
 13  8  1  0  0  0  0
 13  2  1  0  0  0  0
 13 19  1  1  0  0  0
 15  5  2  0  0  0  0
 17  5  1  0  0  0  0
 17 12  1  0  0  0  0
 18 17  2  0  0  0  0
 19 10  1  0  0  0  0
 20 21  2  0  0  0  0
 21 16  1  0  0  0  0
 23 14  1  0  0  0  0
 23 22  1  1  0  0  0
 24 27  1  1  0  0  0
 24 28  1  0  0  0  0
 24 31  1  0  0  0  0
 25 30  1  0  0  0  0
 28 25  1  0  0  0  0
 29 26  2  1  0  0  0
 30 29  1  0  0  0  0
 30 23  1  1  0  0  0
 31 29  1  0  0  0  0
M  END
>  <MODEL>
8

>  <REMARK>
 VINA RESULT:      -6.1      1.356      2.321
  Name = 
  2 active torsions:
  status: ('A' for Active; 'I' for Inactive)
    1  A    between atoms: C_5  and  N_16
    2  A    between atoms: C_5  and  C_30
                            x       y       z     vdW  Elec       q    Type
                         _______ _______ _______ _____ _____    ______ ____

>  <TORSDO>
F 2

$$$$
=
 OpenBabel11122411003D

 31 35  0  0  1  0  0  0  0  0999 V2000
  179.6610  179.0110  142.7520 C   0  0  0  0  0  0  0  0  0  0  0  0
  182.9180  179.3300  140.8130 C   0  0  2  0  0  3  0  0  0  0  0  0
  184.0450  178.9350  141.7550 C   0  0  0  0  0  0  0  0  0  0  0  0
  184.9100  178.6100  144.0050 C   0  0  0  0  0  0  0  0  0  0  0  0
  181.5870  178.8240  141.2930 C   0  0  0  0  0  0  0  0  0  0  0  0
  179.2120  177.7600  142.3190 C   0  0  0  0  0  3  0  0  0  0  0  0
  183.8640  178.9590  143.1460 C   0  0  0  0  0  3  0  0  0  0  0  0
  182.8120  177.3960  139.1390 C   0  0  0  0  0  0  0  0  0  0  0  0
  178.9310  179.7240  143.6910 O   0  0  0  0  0  1  0  0  0  0  0  0
  185.5400  178.6240  139.8600 O   0  0  0  0  0  0  0  0  0  0  0  0
  184.6610  178.6270  145.7370 Cl  0  0  0  0  0  0  0  0  0  0  0  0
  181.8420  176.8690  139.8280 N   0  0  0  0  0  0  0  0  0  0  0  0
  183.1760  178.8670  139.3560 C   0  0  2  0  0  3  0  0  0  0  0  0
  183.3350  176.6210  138.0490 N   0  0  0  0  0  2  0  0  0  0  0  0
  180.8510  179.5410  142.2440 C   0  0  0  0  0  3  0  0  0  0  0  0
  186.1530  178.2460  143.4810 C   0  0  0  0  0  3  0  0  0  0  0  0
  181.1280  177.5740  140.8510 C   0  0  0  0  0  0  0  0  0  0  0  0
  179.9440  177.0420  141.3680 C   0  0  0  0  0  3  0  0  0  0  0  0
  184.6100  179.2260  138.9640 C   0  0  0  0  0  2  0  0  0  0  0  0
  185.3150  178.6050  141.2360 C   0  0  0  0  0  0  0  0  0  0  0  0
  186.3540  178.2450  142.0990 C   0  0  0  0  0  3  0  0  0  0  0  0
  185.5980  176.4310  137.2350 C   0  0  0  0  0  1  0  0  0  0  0  0
  184.2490  177.0990  137.0230 C   0  0  1  0  0  3  0  0  0  0  0  0
  180.7630  177.2640  135.5080 C   0  0  1  0  0  3  0  0  0  0  0  0
  183.0520  177.8720  135.0040 O   0  0  0  0  0  0  0  0  0  0  0  0
  183.1050  174.3680  136.6670 O   0  0  0  0  0  0  0  0  0  0  0  0
  179.4890  177.8360  136.0910 C   0  0  0  0  0  1  0  0  0  0  0  0
  181.9130  178.2360  135.7540 C   0  0  0  0  0  2  0  0  0  0  0  0
  182.6280  175.2940  135.5570 S   0  0  2  0  0  0  0  0  0  0  0  0
  183.6950  176.7720  135.6230 C   0  0  2  0  0  3  0  0  0  0  0  0
  181.0640  175.9340  136.1780 C   0  0  0  0  0  2  0  0  0  0  0  0
  1  9  1  0  0  0  0
  2  5  1  1  0  0  0
  2  3  1  0  0  0  0
  3  7  1  0  0  0  0
  4 11  1  0  0  0  0
  5 15  1  0  0  0  0
  6  1  1  0  0  0  0
  7  4  2  0  0  0  0
  8 13  1  0  0  0  0
  8 12  2  0  0  0  0
 10 20  1  0  0  0  0
 12 17  1  0  0  0  0
 13 19  1  1  0  0  0
 13  2  1  0  0  0  0
 14  8  1  0  0  0  0
 15  1  2  0  0  0  0
 16  4  1  0  0  0  0
 17  5  2  0  0  0  0
 17 18  1  0  0  0  0
 18  6  2  0  0  0  0
 19 10  1  0  0  0  0
 20  3  2  0  0  0  0
 20 21  1  0  0  0  0
 21 16  2  0  0  0  0
 23 22  1  1  0  0  0
 23 14  1  0  0  0  0
 24 28  1  0  0  0  0
 24 27  1  1  0  0  0
 24 31  1  0  0  0  0
 25 30  1  0  0  0  0
 25 28  1  0  0  0  0
 29 30  1  0  0  0  0
 29 31  1  0  0  0  0
 29 26  2  1  0  0  0
 30 23  1  1  0  0  0
M  END
>  <MODEL>
9

>  <REMARK>
 VINA RESULT:      -6.0      7.925     10.718
  Name = 
  2 active torsions:
  status: ('A' for Active; 'I' for Inactive)
    1  A    between atoms: C_5  and  N_16
    2  A    between atoms: C_5  and  C_30
                            x       y       z     vdW  Elec       q    Type
                         _______ _______ _______ _____ _____    ______ ____

>  <TORSDO>
F 2

$$$$
