=
 OpenBabel11122411523D

 28 32  0  0  1  0  0  0  0  0999 V2000
  188.1080  177.0470  142.3240 C   0  0  0  0  0  0  0  0  0  0  0  0
  186.1000  177.6750  138.3030 O   0  0  0  0  0  0  0  0  0  0  0  0
  193.6590  177.8410  139.8540 O   0  0  0  0  0  0  0  0  0  0  0  0
  186.3640  179.1790  141.7890 C   0  0  0  0  0  3  0  0  0  0  0  0
  192.1990  176.3840  138.6100 C   0  0  1  0  0  3  0  0  0  0  0  0
  189.0940  176.0110  142.7590 C   0  0  0  0  0  2  0  0  0  0  0  0
  188.0430  178.9530  137.4620 O   0  0  0  0  0  0  0  0  0  0  0  0
  187.4920  177.5830  137.7460 S   0  0  0  0  0  0  0  0  0  0  0  0
  188.3600  175.4720  136.1900 C   0  0  0  0  0  0  0  0  0  0  0  0
  188.5470  176.6840  138.8470 C   0  0  1  0  0  3  0  0  0  0  0  0
  191.4740  178.5850  144.1460 N   0  0  0  0  0  1  0  0  0  0  0  0
  190.4060  176.5440  140.3130 C   0  0  1  0  0  3  0  0  0  0  0  0
  189.3520  175.2790  137.0160 N   0  0  0  0  0  0  0  0  0  0  0  0
  187.4950  176.6180  136.3030 N   0  0  0  0  0  2  0  0  0  0  0  0
  190.8800  177.7930  143.0860 C   0  0  1  0  0  3  0  0  0  0  0  0
  188.2290  177.7640  141.1020 C   0  0  0  0  0  0  0  0  0  0  0  0
  192.5480  177.2540  139.7510 C   0  0  0  0  0  0  0  0  0  0  0  0
  188.0880  174.4620  135.1340 C   0  0  0  0  0  1  0  0  0  0  0  0
  191.9790  177.3060  142.1560 C   0  0  0  0  0  2  0  0  0  0  0  0
  187.3530  178.8340  140.8670 C   0  0  0  0  0  3  0  0  0  0  0  0
  187.1100  177.4040  143.2420 C   0  0  0  0  0  3  0  0  0  0  0  0
  186.2370  178.4570  142.9740 C   0  0  0  0  0  3  0  0  0  0  0  0
  190.1310  176.6160  143.7060 C   0  0  0  0  0  2  0  0  0  0  0  0
  190.8000  175.8530  138.9870 C   0  0  1  0  0  3  0  0  0  0  0  0
  191.5560  177.3150  140.7590 N   0  0  0  0  0  0  0  0  0  0  0  0
  189.7200  176.2820  138.0110 C   0  0  2  0  0  3  0  0  0  0  0  0
  192.1950  177.1340  137.4280 O   0  0  0  0  0  1  0  0  0  0  0  0
  189.2040  177.4450  139.9810 C   0  0  2  0  0  3  0  0  0  0  0  0
  1  6  1  0  0  0  0
  1 21  1  0  0  0  0
  4 22  1  0  0  0  0
  5 27  1  6  0  0  0
  5 24  1  0  0  0  0
  5 17  1  0  0  0  0
  6 23  1  0  0  0  0
  7  8  2  0  0  0  0
  8  2  2  0  0  0  0
  9 14  1  0  0  0  0
  9 13  2  0  0  0  0
 10  8  1  6  0  0  0
 10 28  1  0  0  0  0
 12 25  1  6  0  0  0
 13 26  1  0  0  0  0
 14  8  1  0  0  0  0
 15 23  1  0  0  0  0
 15 11  1  1  0  0  0
 16  1  2  0  0  0  0
 17  3  2  0  0  0  0
 17 25  1  0  0  0  0
 18  9  1  0  0  0  0
 19 15  1  0  0  0  0
 20 16  1  0  0  0  0
 20  4  2  0  0  0  0
 22 21  2  0  0  0  0
 24 12  1  0  0  0  0
 25 19  1  0  0  0  0
 26 10  1  0  0  0  0
 26 24  1  0  0  0  0
 28 12  1  0  0  0  0
 28 16  1  0  0  0  0
M  END
>  <MODEL>
1

>  <REMARK>
 VINA RESULT:      -7.8      0.000      0.000
  Name = 
  0 active torsions:
  status: ('A' for Active; 'I' for Inactive)
                            x       y       z     vdW  Elec       q    Type
                         _______ _______ _______ _____ _____    ______ ____

>  <TORSDO>
F 0

$$$$
=
 OpenBabel11122411523D

 28 32  0  0  1  0  0  0  0  0999 V2000
  186.2960  177.4110  143.0670 C   0  0  0  0  0  0  0  0  0  0  0  0
  187.0050  178.1920  138.6530 O   0  0  0  0  0  0  0  0  0  0  0  0
  192.1980  178.4400  144.3570 O   0  0  0  0  0  0  0  0  0  0  0  0
  185.1040  179.5290  141.6660 C   0  0  0  0  0  3  0  0  0  0  0  0
  191.8140  177.0150  142.4530 C   0  0  1  0  0  3  0  0  0  0  0  0
  186.8860  176.3760  143.9700 C   0  0  0  0  0  2  0  0  0  0  0  0
  189.0100  179.5490  139.1510 O   0  0  0  0  0  0  0  0  0  0  0  0
  188.4610  178.1560  139.0190 S   0  0  0  0  0  0  0  0  0  0  0  0
  190.1720  176.1420  138.2150 C   0  0  0  0  0  0  0  0  0  0  0  0
  188.7080  177.2270  140.5050 C   0  0  1  0  0  3  0  0  0  0  0  0
  187.8790  178.9290  146.5610 N   0  0  0  0  0  1  0  0  0  0  0  0
  189.3570  177.0540  142.7800 C   0  0  1  0  0  3  0  0  0  0  0  0
  190.4980  175.9300  139.4610 N   0  0  0  0  0  0  0  0  0  0  0  0
  189.3540  177.2630  137.8290 N   0  0  0  0  0  2  0  0  0  0  0  0
  188.0570  178.1770  145.3330 C   0  0  1  0  0  3  0  0  0  0  0  0
  187.0790  178.1890  142.1700 C   0  0  0  0  0  0  0  0  0  0  0  0
  191.3870  177.8350  143.6040 C   0  0  0  0  0  0  0  0  0  0  0  0
  190.6180  175.1790  137.1740 C   0  0  0  0  0  1  0  0  0  0  0  0
  189.5130  177.7580  145.2150 C   0  0  0  0  0  2  0  0  0  0  0  0
  186.4600  179.2500  141.4930 C   0  0  0  0  0  3  0  0  0  0  0  0
  184.9340  177.7020  143.2310 C   0  0  0  0  0  3  0  0  0  0  0  0
  184.3390  178.7490  142.5300 C   0  0  0  0  0  3  0  0  0  0  0  0
  187.1410  176.9550  145.3620 C   0  0  0  0  0  2  0  0  0  0  0  0
  190.4850  176.4370  141.9210 C   0  0  1  0  0  3  0  0  0  0  0  0
  189.9910  177.8270  143.8370 N   0  0  0  0  0  0  0  0  0  0  0  0
  190.1650  176.8910  140.5080 C   0  0  2  0  0  3  0  0  0  0  0  0
  192.4700  177.8210  141.5160 O   0  0  0  0  0  1  0  0  0  0  0  0
  188.5390  177.9450  141.8280 C   0  0  2  0  0  3  0  0  0  0  0  0
  1 21  1  0  0  0  0
  1  6  1  0  0  0  0
  2  8  2  0  0  0  0
  4 22  1  0  0  0  0
  5 27  1  6  0  0  0
  5 17  1  0  0  0  0
  6 23  1  0  0  0  0
  8  7  2  0  0  0  0
  9 13  2  0  0  0  0
 10  8  1  6  0  0  0
 10 26  1  0  0  0  0
 10 28  1  0  0  0  0
 12 25  1  1  0  0  0
 13 26  1  0  0  0  0
 14  9  1  0  0  0  0
 14  8  1  0  0  0  0
 15 23  1  0  0  0  0
 15 11  1  1  0  0  0
 16  1  2  0  0  0  0
 17 25  1  0  0  0  0
 17  3  2  0  0  0  0
 18  9  1  0  0  0  0
 19 15  1  0  0  0  0
 20  4  2  0  0  0  0
 20 16  1  0  0  0  0
 22 21  2  0  0  0  0
 24  5  1  0  0  0  0
 24 12  1  0  0  0  0
 25 19  1  0  0  0  0
 26 24  1  0  0  0  0
 28 16  1  0  0  0  0
 28 12  1  0  0  0  0
M  END
>  <MODEL>
2

>  <REMARK>
 VINA RESULT:      -7.0      1.904      2.927
  Name = 
  0 active torsions:
  status: ('A' for Active; 'I' for Inactive)
                            x       y       z     vdW  Elec       q    Type
                         _______ _______ _______ _____ _____    ______ ____

>  <TORSDO>
F 0

$$$$
=
 OpenBabel11122411523D

 28 32  0  0  1  0  0  0  0  0999 V2000
  184.5240  175.2750  137.1720 C   0  0  0  0  0  0  0  0  0  0  0  0
  186.4880  178.6230  139.5230 O   0  0  0  0  0  0  0  0  0  0  0  0
  178.9840  177.7830  137.9270 O   0  0  0  0  0  0  0  0  0  0  0  0
  186.3820  177.0570  136.0570 C   0  0  0  0  0  3  0  0  0  0  0  0
  180.3300  177.6880  139.9220 C   0  0  1  0  0  3  0  0  0  0  0  0
  183.4850  174.2830  137.5880 C   0  0  0  0  0  2  0  0  0  0  0  0
  184.6100  180.1540  139.0330 O   0  0  0  0  0  0  0  0  0  0  0  0
  185.0830  179.0100  139.8860 S   0  0  0  0  0  0  0  0  0  0  0  0
  184.0600  178.7680  142.4410 C   0  0  0  0  0  0  0  0  0  0  0  0
  183.9970  177.6180  139.7500 C   0  0  1  0  0  3  0  0  0  0  0  0
  181.2910  175.0460  134.6200 N   0  0  0  0  0  1  0  0  0  0  0  0
  182.1610  176.4870  138.7620 C   0  0  1  0  0  3  0  0  0  0  0  0
  183.0740  178.0520  141.9710 N   0  0  0  0  0  0  0  0  0  0  0  0
  184.9940  179.4310  141.5670 N   0  0  0  0  0  2  0  0  0  0  0  0
  181.8160  175.2850  135.9500 C   0  0  1  0  0  3  0  0  0  0  0  0
  184.4220  176.6640  137.4560 C   0  0  0  0  0  0  0  0  0  0  0  0
  180.0550  177.4360  138.4930 C   0  0  0  0  0  0  0  0  0  0  0  0
  184.2500  178.8650  143.9110 C   0  0  0  0  0  1  0  0  0  0  0  0
  180.6720  175.6740  136.8720 C   0  0  0  0  0  2  0  0  0  0  0  0
  185.3570  177.5340  136.8740 C   0  0  0  0  0  3  0  0  0  0  0  0
  185.5590  174.8080  136.3490 C   0  0  0  0  0  3  0  0  0  0  0  0
  186.4880  175.6910  135.8010 C   0  0  0  0  0  3  0  0  0  0  0  0
  182.5050  174.0150  136.4470 C   0  0  0  0  0  2  0  0  0  0  0  0
  181.7010  177.0160  140.1410 C   0  0  1  0  0  3  0  0  0  0  0  0
  181.0680  176.7040  137.8280 N   0  0  0  0  0  0  0  0  0  0  0  0
  182.7870  177.9980  140.5410 C   0  0  2  0  0  3  0  0  0  0  0  0
  180.3560  179.0670  140.1620 O   0  0  0  0  0  1  0  0  0  0  0  0
  183.4090  177.3060  138.3890 C   0  0  2  0  0  3  0  0  0  0  0  0
  1 16  1  0  0  0  0
  1  6  1  0  0  0  0
  2  8  2  0  0  0  0
  3 17  2  0  0  0  0
  4 20  1  0  0  0  0
  5 24  1  0  0  0  0
  5 27  1  6  0  0  0
  7  8  2  0  0  0  0
  8 14  1  0  0  0  0
  9 18  1  0  0  0  0
 10  8  1  6  0  0  0
 10 26  1  0  0  0  0
 12 25  1  6  0  0  0
 12 24  1  0  0  0  0
 13  9  2  0  0  0  0
 14  9  1  0  0  0  0
 15 11  1  6  0  0  0
 15 23  1  0  0  0  0
 15 19  1  0  0  0  0
 16 28  1  0  0  0  0
 17  5  1  0  0  0  0
 19 25  1  0  0  0  0
 20 16  2  0  0  0  0
 21  1  2  0  0  0  0
 22  4  2  0  0  0  0
 22 21  1  0  0  0  0
 23  6  1  0  0  0  0
 24 26  1  0  0  0  0
 25 17  1  0  0  0  0
 26 13  1  0  0  0  0
 28 12  1  0  0  0  0
 28 10  1  0  0  0  0
M  END
>  <MODEL>
3

>  <REMARK>
 VINA RESULT:      -6.0      5.287      9.096
  Name = 
  0 active torsions:
  status: ('A' for Active; 'I' for Inactive)
                            x       y       z     vdW  Elec       q    Type
                         _______ _______ _______ _____ _____    ______ ____

>  <TORSDO>
F 0

$$$$
=
 OpenBabel11122411523D

 28 32  0  0  1  0  0  0  0  0999 V2000
  187.0910  177.7100  136.2970 C   0  0  0  0  0  0  0  0  0  0  0  0
  182.8010  176.2310  136.3880 O   0  0  0  0  0  0  0  0  0  0  0  0
  187.2160  178.2010  142.4040 O   0  0  0  0  0  0  0  0  0  0  0  0
  186.3230  175.1560  135.4270 C   0  0  0  0  0  3  0  0  0  0  0  0
  185.2450  179.1080  141.3580 C   0  0  1  0  0  3  0  0  0  0  0  0
  187.6760  179.0030  136.7670 C   0  0  0  0  0  2  0  0  0  0  0  0
  183.0560  175.4450  138.7180 O   0  0  0  0  0  0  0  0  0  0  0  0
  182.8330  176.6400  137.8330 S   0  0  0  0  0  0  0  0  0  0  0  0
  181.3790  178.7640  138.8360 C   0  0  0  0  0  0  0  0  0  0  0  0
  184.0710  177.8760  138.1040 C   0  0  1  0  0  3  0  0  0  0  0  0
  190.3500  177.2780  138.7880 N   0  0  0  0  0  1  0  0  0  0  0  0
  186.0970  178.6280  139.0810 C   0  0  1  0  0  3  0  0  0  0  0  0
  182.4780  179.2810  139.3140 N   0  0  0  0  0  0  0  0  0  0  0  0
  181.3560  177.4440  138.2590 N   0  0  0  0  0  2  0  0  0  0  0  0
  189.0130  177.7900  138.5600 C   0  0  1  0  0  3  0  0  0  0  0  0
  186.1760  176.9490  137.0750 C   0  0  0  0  0  0  0  0  0  0  0  0
  186.5730  178.4630  141.3520 C   0  0  0  0  0  0  0  0  0  0  0  0
  180.1320  179.5710  138.8460 C   0  0  0  0  0  1  0  0  0  0  0  0
  188.5200  178.4690  139.8270 C   0  0  0  0  0  2  0  0  0  0  0  0
  185.8200  175.6690  136.6220 C   0  0  0  0  0  3  0  0  0  0  0  0
  187.5880  177.1820  135.0970 C   0  0  0  0  0  3  0  0  0  0  0  0
  187.2010  175.9170  134.6590 C   0  0  0  0  0  3  0  0  0  0  0  0
  189.0510  178.7770  137.3950 C   0  0  0  0  0  2  0  0  0  0  0  0
  184.9300  179.2820  139.8570 C   0  0  1  0  0  3  0  0  0  0  0  0
  187.0980  178.2290  140.0580 N   0  0  0  0  0  0  0  0  0  0  0  0
  183.7070  178.5000  139.4140 C   0  0  2  0  0  3  0  0  0  0  0  0
  184.3230  178.2860  142.0150 O   0  0  0  0  0  1  0  0  0  0  0  0
  185.4930  177.4160  138.3490 C   0  0  2  0  0  3  0  0  0  0  0  0
  1  6  1  0  0  0  0
  1 16  1  0  0  0  0
  2  8  2  0  0  0  0
  4 20  1  0  0  0  0
  5 27  1  6  0  0  0
  6 23  1  0  0  0  0
  8 14  1  0  0  0  0
  8  7  2  0  0  0  0
  9 18  1  0  0  0  0
  9 13  2  0  0  0  0
 10  8  1  1  0  0  0
 10 28  1  0  0  0  0
 10 26  1  0  0  0  0
 12 24  1  0  0  0  0
 12 25  1  1  0  0  0
 13 26  1  0  0  0  0
 14  9  1  0  0  0  0
 15 11  1  1  0  0  0
 15 19  1  0  0  0  0
 16 28  1  0  0  0  0
 17  5  1  0  0  0  0
 17  3  2  0  0  0  0
 19 25  1  0  0  0  0
 20 16  2  0  0  0  0
 21  1  2  0  0  0  0
 22 21  1  0  0  0  0
 22  4  2  0  0  0  0
 23 15  1  0  0  0  0
 24  5  1  0  0  0  0
 25 17  1  0  0  0  0
 26 24  1  0  0  0  0
 28 12  1  0  0  0  0
M  END
>  <MODEL>
4

>  <REMARK>
 VINA RESULT:      -6.0      3.707      6.612
  Name = 
  0 active torsions:
  status: ('A' for Active; 'I' for Inactive)
                            x       y       z     vdW  Elec       q    Type
                         _______ _______ _______ _____ _____    ______ ____

>  <TORSDO>
F 0

$$$$
=
 OpenBabel11122411523D

 28 32  0  0  1  0  0  0  0  0999 V2000
  187.8600  177.2260  136.2910 C   0  0  0  0  0  0  0  0  0  0  0  0
  183.7900  175.3070  135.6980 O   0  0  0  0  0  0  0  0  0  0  0  0
  186.5550  178.5600  142.1270 O   0  0  0  0  0  0  0  0  0  0  0  0
  187.5100  174.5070  135.6920 C   0  0  0  0  0  3  0  0  0  0  0  0
  184.8090  179.0910  140.5560 C   0  0  1  0  0  3  0  0  0  0  0  0
  188.2210  178.6280  136.6640 C   0  0  0  0  0  2  0  0  0  0  0  0
  183.5690  174.8800  138.1230 O   0  0  0  0  0  0  0  0  0  0  0  0
  183.4610  175.9110  137.0330 S   0  0  0  0  0  0  0  0  0  0  0  0
  181.6570  177.9780  137.3550 C   0  0  0  0  0  0  0  0  0  0  0  0
  184.5050  177.3020  137.3630 C   0  0  1  0  0  3  0  0  0  0  0  0
  190.4910  177.5030  139.4560 N   0  0  0  0  0  1  0  0  0  0  0  0
  186.1910  178.4000  138.6180 C   0  0  1  0  0  3  0  0  0  0  0  0
  182.5750  178.6750  137.9680 N   0  0  0  0  0  0  0  0  0  0  0  0
  181.8680  176.5970  137.0030 N   0  0  0  0  0  2  0  0  0  0  0  0
  189.2050  177.8280  138.8700 C   0  0  1  0  0  3  0  0  0  0  0  0
  186.8540  176.4820  136.9660 C   0  0  0  0  0  0  0  0  0  0  0  0
  186.1500  178.6020  140.9350 C   0  0  0  0  0  0  0  0  0  0  0  0
  180.3810  178.6350  136.9710 C   0  0  0  0  0  1  0  0  0  0  0  0
  188.3860  178.6150  139.8790 C   0  0  0  0  0  2  0  0  0  0  0  0
  186.7110  175.1210  136.6560 C   0  0  0  0  0  3  0  0  0  0  0  0
  188.6570  176.5970  135.3230 C   0  0  0  0  0  3  0  0  0  0  0  0
  188.4790  175.2490  135.0180 C   0  0  0  0  0  3  0  0  0  0  0  0
  189.4300  178.6440  137.5980 C   0  0  0  0  0  2  0  0  0  0  0  0
  184.8320  179.0210  139.0140 C   0  0  1  0  0  3  0  0  0  0  0  0
  186.9720  178.2530  139.8370 N   0  0  0  0  0  0  0  0  0  0  0  0
  183.8060  178.0550  138.4500 C   0  0  2  0  0  3  0  0  0  0  0  0
  183.8290  178.2690  141.1230 O   0  0  0  0  0  1  0  0  0  0  0  0
  185.8650  177.0410  137.9750 C   0  0  2  0  0  3  0  0  0  0  0  0
  1  6  1  0  0  0  0
  1 16  1  0  0  0  0
  2  8  2  0  0  0  0
  4 20  1  0  0  0  0
  5 17  1  0  0  0  0
  5 27  1  1  0  0  0
  6 23  1  0  0  0  0
  8  7  2  0  0  0  0
  9 13  2  0  0  0  0
 10  8  1  1  0  0  0
 10 28  1  0  0  0  0
 10 26  1  0  0  0  0
 12 24  1  0  0  0  0
 12 25  1  1  0  0  0
 13 26  1  0  0  0  0
 14  8  1  0  0  0  0
 14  9  1  0  0  0  0
 15 11  1  1  0  0  0
 15 19  1  0  0  0  0
 16 28  1  0  0  0  0
 17  3  2  0  0  0  0
 18  9  1  0  0  0  0
 20 16  2  0  0  0  0
 21  1  2  0  0  0  0
 22 21  1  0  0  0  0
 22  4  2  0  0  0  0
 23 15  1  0  0  0  0
 24  5  1  0  0  0  0
 25 19  1  0  0  0  0
 25 17  1  0  0  0  0
 26 24  1  0  0  0  0
 28 12  1  0  0  0  0
M  END
>  <MODEL>
5

>  <REMARK>
 VINA RESULT:      -5.9      3.613      6.433
  Name = 
  0 active torsions:
  status: ('A' for Active; 'I' for Inactive)
                            x       y       z     vdW  Elec       q    Type
                         _______ _______ _______ _____ _____    ______ ____

>  <TORSDO>
F 0

$$$$
=
 OpenBabel11122411523D

 28 32  0  0  1  0  0  0  0  0999 V2000
  188.3520  177.8430  137.6650 C   0  0  0  0  0  0  0  0  0  0  0  0
  184.0620  177.3430  136.2700 O   0  0  0  0  0  0  0  0  0  0  0  0
  186.6450  177.5080  143.5410 O   0  0  0  0  0  0  0  0  0  0  0  0
  187.4700  175.6530  136.1500 C   0  0  0  0  0  3  0  0  0  0  0  0
  185.2850  178.9520  142.1760 C   0  0  1  0  0  3  0  0  0  0  0  0
  188.9730  178.9050  138.5160 C   0  0  0  0  0  2  0  0  0  0  0  0
  183.4380  176.2280  138.3870 O   0  0  0  0  0  0  0  0  0  0  0  0
  183.7110  177.5460  137.7170 S   0  0  0  0  0  0  0  0  0  0  0  0
  182.4010  179.7910  138.6540 C   0  0  0  0  0  0  0  0  0  0  0  0
  184.9940  178.4350  138.5520 C   0  0  1  0  0  3  0  0  0  0  0  0
  190.5460  176.3900  140.8420 N   0  0  0  0  0  1  0  0  0  0  0  0
  186.7110  178.5920  140.1810 C   0  0  1  0  0  3  0  0  0  0  0  0
  183.3670  179.9890  139.5090 N   0  0  0  0  0  0  0  0  0  0  0  0
  182.3340  178.5930  137.8560 N   0  0  0  0  0  2  0  0  0  0  0  0
  189.4550  177.2090  140.3500 C   0  0  1  0  0  3  0  0  0  0  0  0
  187.1240  177.2080  137.9980 C   0  0  0  0  0  0  0  0  0  0  0  0
  186.4180  178.0370  142.4200 C   0  0  0  0  0  0  0  0  0  0  0  0
  181.3700  180.8440  138.4650 C   0  0  0  0  0  1  0  0  0  0  0  0
  188.7150  177.8110  141.5320 C   0  0  0  0  0  2  0  0  0  0  0  0
  186.7140  176.1070  137.2310 C   0  0  0  0  0  3  0  0  0  0  0  0
  189.1020  177.3780  136.5760 C   0  0  0  0  0  3  0  0  0  0  0  0
  188.6610  176.2950  135.8170 C   0  0  0  0  0  3  0  0  0  0  0  0
  190.0230  178.3040  139.4490 C   0  0  0  0  0  2  0  0  0  0  0  0
  185.4900  179.3810  140.7070 C   0  0  1  0  0  3  0  0  0  0  0  0
  187.2730  177.8620  141.3060 N   0  0  0  0  0  0  0  0  0  0  0  0
  184.3510  178.9510  139.8000 C   0  0  2  0  0  3  0  0  0  0  0  0
  184.0780  178.2750  142.3810 O   0  0  0  0  0  1  0  0  0  0  0  0
  186.1680  177.6470  139.0940 C   0  0  2  0  0  3  0  0  0  0  0  0
  1 16  1  0  0  0  0
  1  6  1  0  0  0  0
  2  8  2  0  0  0  0
  4 20  1  0  0  0  0
  5 27  1  6  0  0  0
  5 17  1  0  0  0  0
  6 23  1  0  0  0  0
  8 14  1  0  0  0  0
  8  7  2  0  0  0  0
  9 13  2  0  0  0  0
 10  8  1  1  0  0  0
 10 28  1  0  0  0  0
 10 26  1  0  0  0  0
 12 24  1  0  0  0  0
 12 25  1  1  0  0  0
 13 26  1  0  0  0  0
 14  9  1  0  0  0  0
 15 11  1  1  0  0  0
 15 19  1  0  0  0  0
 16 28  1  0  0  0  0
 17  3  2  0  0  0  0
 18  9  1  0  0  0  0
 20 16  2  0  0  0  0
 21  1  2  0  0  0  0
 22  4  2  0  0  0  0
 22 21  1  0  0  0  0
 23 15  1  0  0  0  0
 24  5  1  0  0  0  0
 25 19  1  0  0  0  0
 25 17  1  0  0  0  0
 26 24  1  0  0  0  0
 28 12  1  0  0  0  0
M  END
>  <MODEL>
6

>  <REMARK>
 VINA RESULT:      -5.7      3.303      6.019
  Name = 
  0 active torsions:
  status: ('A' for Active; 'I' for Inactive)
                            x       y       z     vdW  Elec       q    Type
                         _______ _______ _______ _____ _____    ______ ____

>  <TORSDO>
F 0

$$$$
=
 OpenBabel11122411523D

 28 32  0  0  1  0  0  0  0  0999 V2000
  183.5280  174.8540  136.7440 C   0  0  0  0  0  0  0  0  0  0  0  0
  187.8050  176.3480  137.0050 O   0  0  0  0  0  0  0  0  0  0  0  0
  181.3330  180.4850  137.7530 O   0  0  0  0  0  0  0  0  0  0  0  0
  185.3280  174.7570  134.5940 C   0  0  0  0  0  3  0  0  0  0  0  0
  183.1170  179.8180  139.2270 C   0  0  1  0  0  3  0  0  0  0  0  0
  182.4330  174.8800  137.7620 C   0  0  0  0  0  2  0  0  0  0  0  0
  187.1050  178.6450  136.4150 O   0  0  0  0  0  0  0  0  0  0  0  0
  187.1870  177.6200  137.5120 S   0  0  0  0  0  0  0  0  0  0  0  0
  187.4650  178.5030  140.1140 C   0  0  0  0  0  0  0  0  0  0  0  0
  185.5920  177.3030  138.2120 C   0  0  1  0  0  3  0  0  0  0  0  0
  179.9850  176.4560  135.3660 N   0  0  0  0  0  1  0  0  0  0  0  0
  183.2330  177.5480  138.2380 C   0  0  1  0  0  3  0  0  0  0  0  0
  186.1660  178.5650  140.2250 N   0  0  0  0  0  0  0  0  0  0  0  0
  188.1030  178.2370  138.8500 N   0  0  0  0  0  2  0  0  0  0  0  0
  181.0780  176.4790  136.3190 C   0  0  1  0  0  3  0  0  0  0  0  0
  184.3480  175.9810  136.4640 C   0  0  0  0  0  0  0  0  0  0  0  0
  182.1500  179.6030  138.1320 C   0  0  0  0  0  0  0  0  0  0  0  0
  188.3060  178.6670  141.3280 C   0  0  0  0  0  1  0  0  0  0  0  0
  180.8940  177.6620  137.2550 C   0  0  0  0  0  2  0  0  0  0  0  0
  185.2290  175.9090  135.3740 C   0  0  0  0  0  3  0  0  0  0  0  0
  183.6360  173.7020  135.9520 C   0  0  0  0  0  3  0  0  0  0  0  0
  184.5360  173.6490  134.8890 C   0  0  0  0  0  3  0  0  0  0  0  0
  181.0850  175.1660  137.0980 C   0  0  0  0  0  2  0  0  0  0  0  0
  183.8120  178.4460  139.3560 C   0  0  1  0  0  3  0  0  0  0  0  0
  182.1660  178.2950  137.5910 N   0  0  0  0  0  0  0  0  0  0  0  0
  185.2980  178.5040  139.0530 C   0  0  2  0  0  3  0  0  0  0  0  0
  184.0020  180.8450  138.8810 O   0  0  0  0  0  1  0  0  0  0  0  0
  184.4010  177.2630  137.2770 C   0  0  2  0  0  3  0  0  0  0  0  0
  1  6  1  0  0  0  0
  2  8  2  0  0  0  0
  3 17  2  0  0  0  0
  4 22  2  0  0  0  0
  4 20  1  0  0  0  0
  5 27  1  6  0  0  0
  5 24  1  0  0  0  0
  7  8  2  0  0  0  0
  8 14  1  0  0  0  0
  9 13  2  0  0  0  0
  9 18  1  0  0  0  0
 10  8  1  6  0  0  0
 10 26  1  0  0  0  0
 12 25  1  6  0  0  0
 12 24  1  0  0  0  0
 14  9  1  0  0  0  0
 15 11  1  6  0  0  0
 15 23  1  0  0  0  0
 15 19  1  0  0  0  0
 16  1  1  0  0  0  0
 16 28  1  0  0  0  0
 17  5  1  0  0  0  0
 19 25  1  0  0  0  0
 20 16  2  0  0  0  0
 21  1  2  0  0  0  0
 22 21  1  0  0  0  0
 23  6  1  0  0  0  0
 25 17  1  0  0  0  0
 26 24  1  0  0  0  0
 26 13  1  0  0  0  0
 28 10  1  0  0  0  0
 28 12  1  0  0  0  0
M  END
>  <MODEL>
7

>  <REMARK>
 VINA RESULT:      -5.4      4.596      8.346
  Name = 
  0 active torsions:
  status: ('A' for Active; 'I' for Inactive)
                            x       y       z     vdW  Elec       q    Type
                         _______ _______ _______ _____ _____    ______ ____

>  <TORSDO>
F 0

$$$$
=
 OpenBabel11122411523D

 28 32  0  0  1  0  0  0  0  0999 V2000
  192.2170  174.4740  135.2780 C   0  0  0  0  0  0  0  0  0  0  0  0
  187.8570  173.3580  134.6860 O   0  0  0  0  0  0  0  0  0  0  0  0
  190.8930  177.5570  140.4050 O   0  0  0  0  0  0  0  0  0  0  0  0
  191.2830  171.8290  135.3280 C   0  0  0  0  0  3  0  0  0  0  0  0
  189.4210  178.0020  138.5520 C   0  0  1  0  0  3  0  0  0  0  0  0
  192.8690  175.8170  135.3370 C   0  0  0  0  0  2  0  0  0  0  0  0
  187.3910  173.6490  137.0960 O   0  0  0  0  0  0  0  0  0  0  0  0
  187.5950  174.3510  135.7820 S   0  0  0  0  0  0  0  0  0  0  0  0
  186.3040  176.7570  135.3650 C   0  0  0  0  0  0  0  0  0  0  0  0
  188.9100  175.5300  135.8840 C   0  0  1  0  0  3  0  0  0  0  0  0
  194.6350  175.0310  138.5730 N   0  0  0  0  0  1  0  0  0  0  0  0
  190.7240  176.5470  137.0250 C   0  0  1  0  0  3  0  0  0  0  0  0
  187.3180  177.3850  135.8940 N   0  0  0  0  0  0  0  0  0  0  0  0
  186.2100  175.3200  135.3910 N   0  0  0  0  0  2  0  0  0  0  0  0
  193.5000  175.4480  137.7740 C   0  0  1  0  0  3  0  0  0  0  0  0
  191.0250  174.1630  135.9890 C   0  0  0  0  0  0  0  0  0  0  0  0
  190.5850  177.3640  139.1990 C   0  0  0  0  0  0  0  0  0  0  0  0
  185.2430  177.5390  134.6790 C   0  0  0  0  0  1  0  0  0  0  0  0
  192.8240  176.6290  138.4520 C   0  0  0  0  0  2  0  0  0  0  0  0
  190.5890  172.8300  136.0080 C   0  0  0  0  0  3  0  0  0  0  0  0
  192.9050  173.4580  134.5990 C   0  0  0  0  0  3  0  0  0  0  0  0
  192.4370  172.1450  134.6160 C   0  0  0  0  0  3  0  0  0  0  0  0
  193.9880  175.8300  136.3780 C   0  0  0  0  0  2  0  0  0  0  0  0
  189.5240  177.5200  137.0890 C   0  0  1  0  0  3  0  0  0  0  0  0
  191.3710  176.5710  138.3280 N   0  0  0  0  0  0  0  0  0  0  0  0
  188.3390  176.6740  136.6590 C   0  0  2  0  0  3  0  0  0  0  0  0
  188.2430  177.5840  139.1800 O   0  0  0  0  0  1  0  0  0  0  0  0
  190.1320  175.1640  136.7020 C   0  0  2  0  0  3  0  0  0  0  0  0
  1  6  1  0  0  0  0
  1 16  1  0  0  0  0
  2  8  2  0  0  0  0
  4 20  1  0  0  0  0
  5 27  1  1  0  0  0
  5 17  1  0  0  0  0
  6 23  1  0  0  0  0
  8  7  2  0  0  0  0
  9 14  1  0  0  0  0
  9 13  2  0  0  0  0
 10  8  1  1  0  0  0
 10 26  1  0  0  0  0
 10 28  1  0  0  0  0
 12 24  1  0  0  0  0
 12 25  1  1  0  0  0
 13 26  1  0  0  0  0
 14  8  1  0  0  0  0
 15 19  1  0  0  0  0
 15 11  1  1  0  0  0
 16 20  2  0  0  0  0
 16 28  1  0  0  0  0
 17  3  2  0  0  0  0
 18  9  1  0  0  0  0
 21 22  1  0  0  0  0
 21  1  2  0  0  0  0
 22  4  2  0  0  0  0
 23 15  1  0  0  0  0
 24  5  1  0  0  0  0
 25 19  1  0  0  0  0
 25 17  1  0  0  0  0
 26 24  1  0  0  0  0
 28 12  1  0  0  0  0
M  END
>  <MODEL>
8

>  <REMARK>
 VINA RESULT:      -5.4      3.217      6.106
  Name = 
  0 active torsions:
  status: ('A' for Active; 'I' for Inactive)
                            x       y       z     vdW  Elec       q    Type
                         _______ _______ _______ _____ _____    ______ ____

>  <TORSDO>
F 0

$$$$
=
 OpenBabel11122411523D

 28 32  0  0  1  0  0  0  0  0999 V2000
  188.6640  173.9400  135.2980 C   0  0  0  0  0  0  0  0  0  0  0  0
  184.1880  173.2760  135.6480 O   0  0  0  0  0  0  0  0  0  0  0  0
  188.5380  178.1820  139.7190 O   0  0  0  0  0  0  0  0  0  0  0  0
  187.5250  171.5030  136.0960 C   0  0  0  0  0  3  0  0  0  0  0  0
  186.8070  178.4020  138.0580 C   0  0  1  0  0  3  0  0  0  0  0  0
  189.4310  175.1740  134.9460 C   0  0  0  0  0  2  0  0  0  0  0  0
  184.1800  174.1280  137.9690 O   0  0  0  0  0  0  0  0  0  0  0  0
  184.2100  174.5030  136.5130 S   0  0  0  0  0  0  0  0  0  0  0  0
  183.0810  176.9080  135.7540 C   0  0  0  0  0  0  0  0  0  0  0  0
  185.6210  175.5040  136.1400 C   0  0  1  0  0  3  0  0  0  0  0  0
  191.6640  174.8780  137.9700 N   0  0  0  0  0  1  0  0  0  0  0  0
  187.6890  176.5070  136.7270 C   0  0  1  0  0  3  0  0  0  0  0  0
  184.2240  177.5030  135.9650 N   0  0  0  0  0  0  0  0  0  0  0  0
  182.8680  175.5320  136.1240 N   0  0  0  0  0  2  0  0  0  0  0  0
  190.4460  175.2550  137.2780 C   0  0  1  0  0  3  0  0  0  0  0  0
  187.5930  173.9380  136.2340 C   0  0  0  0  0  0  0  0  0  0  0  0
  188.0060  177.7760  138.6500 C   0  0  0  0  0  0  0  0  0  0  0  0
  181.9890  177.6520  135.0760 C   0  0  0  0  0  1  0  0  0  0  0  0
  190.0060  176.6270  137.7610 C   0  0  0  0  0  2  0  0  0  0  0  0
  187.0520  172.7040  136.6250 C   0  0  0  0  0  3  0  0  0  0  0  0
  189.1300  172.7260  134.7740 C   0  0  0  0  0  3  0  0  0  0  0  0
  188.5600  171.5150  135.1630 C   0  0  0  0  0  3  0  0  0  0  0  0
  190.7130  175.2670  135.7740 C   0  0  0  0  0  2  0  0  0  0  0  0
  186.6080  177.6120  136.7470 C   0  0  1  0  0  3  0  0  0  0  0  0
  188.5540  176.7250  137.8760 N   0  0  0  0  0  0  0  0  0  0  0  0
  185.2970  176.8490  136.7080 C   0  0  2  0  0  3  0  0  0  0  0  0
  185.7260  178.2770  138.9380 O   0  0  0  0  0  1  0  0  0  0  0  0
  186.9300  175.1710  136.8250 C   0  0  2  0  0  3  0  0  0  0  0  0
  1 16  1  0  0  0  0
  2  8  2  0  0  0  0
  4 20  1  0  0  0  0
  5 17  1  0  0  0  0
  5 27  1  1  0  0  0
  6  1  1  0  0  0  0
  6 23  1  0  0  0  0
  8  7  2  0  0  0  0
  9 13  2  0  0  0  0
  9 14  1  0  0  0  0
 10  8  1  1  0  0  0
 10 26  1  0  0  0  0
 10 28  1  0  0  0  0
 12 24  1  0  0  0  0
 12 28  1  0  0  0  0
 12 25  1  1  0  0  0
 13 26  1  0  0  0  0
 14  8  1  0  0  0  0
 15 19  1  0  0  0  0
 15 11  1  1  0  0  0
 16 20  2  0  0  0  0
 16 28  1  0  0  0  0
 17  3  2  0  0  0  0
 18  9  1  0  0  0  0
 19 25  1  0  0  0  0
 21 22  1  0  0  0  0
 21  1  2  0  0  0  0
 22  4  2  0  0  0  0
 23 15  1  0  0  0  0
 24  5  1  0  0  0  0
 25 17  1  0  0  0  0
 26 24  1  0  0  0  0
M  END
>  <MODEL>
9

>  <REMARK>
 VINA RESULT:      -5.3      3.634      6.477
  Name = 
  0 active torsions:
  status: ('A' for Active; 'I' for Inactive)
                            x       y       z     vdW  Elec       q    Type
                         _______ _______ _______ _____ _____    ______ ____

>  <TORSDO>
F 0

$$$$
