=
 OpenBabel11122411063D

 31 35  0  0  1  0  0  0  0  0999 V2000
  185.0870  178.7180  144.6660 C   0  0  0  0  0  0  0  0  0  0  0  0
  188.6000  177.4950  144.0740 C   0  0  0  0  0  0  0  0  0  0  0  0
  189.2280  177.3780  145.3540 C   0  0  0  0  0  0  0  0  0  0  0  0
  188.0360  177.3430  138.8410 O   0  0  0  0  0  0  0  0  0  0  0  0
  189.1960  176.9430  139.1320 C   0  0  0  0  0  0  0  0  0  0  0  0
  189.2160  177.5640  147.7910 C   0  0  0  0  0  0  0  0  0  0  0  0
  187.2570  177.9310  143.8640 C   0  0  0  0  0  0  0  0  0  0  0  0
  184.6120  178.7820  143.3570 C   0  0  0  0  0  3  0  0  0  0  0  0
  188.5710  177.6900  146.5590 C   0  0  0  0  0  3  0  0  0  0  0  0
  188.8210  177.2440  141.6460 C   0  0  0  0  0  0  0  0  0  0  0  0
  184.2600  179.0710  145.7230 O   0  0  0  0  0  1  0  0  0  0  0  0
  191.2630  176.6130  144.2730 C   0  0  0  0  0  3  0  0  0  0  0  0
  188.5410  177.8800  148.9620 O   0  0  0  0  0  1  0  0  0  0  0  0
  187.5410  177.6640  141.4900 N   0  0  0  0  0  0  0  0  0  0  0  0
  189.3740  177.1510  142.9300 C   0  0  0  0  0  0  0  0  0  0  0  0
  189.6170  176.8930  140.5040 N   0  0  0  0  0  2  0  0  0  0  0  0
  186.3940  178.2950  144.9140 C   0  0  0  0  0  3  0  0  0  0  0  0
  190.5380  177.1220  147.8460 C   0  0  0  0  0  3  0  0  0  0  0  0
  186.7570  178.0040  142.5400 C   0  0  0  0  0  0  0  0  0  0  0  0
  185.4460  178.4260  142.2960 C   0  0  0  0  0  3  0  0  0  0  0  0
  190.6600  176.7280  143.0660 N   0  0  0  0  0  0  0  0  0  0  0  0
  190.5700  176.9310  145.4320 C   0  0  0  0  0  0  0  0  0  0  0  0
  191.2130  176.8070  146.6670 C   0  0  0  0  0  3  0  0  0  0  0  0
  192.0260  175.8180  136.0760 C   0  0  1  0  0  3  0  0  0  0  0  0
  191.4830  176.1980  138.4670 C   0  0  0  0  0  2  0  0  0  0  0  0
  188.4620  176.2720  136.4360 O   0  0  0  0  0  0  0  0  0  0  0  0
  192.9820  176.0100  135.0800 O   0  0  0  0  0  1  0  0  0  0  0  0
  192.4700  176.5190  137.3500 C   0  0  0  0  0  2  0  0  0  0  0  0
  189.6840  176.3790  136.7230 C   0  0  0  0  0  0  0  0  0  0  0  0
  190.1130  176.5580  138.0910 N   0  0  0  0  0  0  0  0  0  0  0  0
  190.6880  176.3780  135.6110 C   0  0  0  0  0  2  0  0  0  0  0  0
  1 17  1  0  0  0  0
  1 11  1  0  0  0  0
  2  3  1  0  0  0  0
  3 22  2  0  0  0  0
  3  9  1  0  0  0  0
  4  5  2  0  0  0  0
  5 16  1  0  0  0  0
  6 18  1  0  0  0  0
  6 13  1  0  0  0  0
  7  2  1  0  0  0  0
  7 17  2  0  0  0  0
  8  1  2  0  0  0  0
  9  6  2  0  0  0  0
 10 15  1  0  0  0  0
 12 22  1  0  0  0  0
 14 10  2  0  0  0  0
 14 19  1  0  0  0  0
 15 21  1  0  0  0  0
 15  2  2  0  0  0  0
 16 10  1  0  0  0  0
 19  7  1  0  0  0  0
 20 19  2  0  0  0  0
 20  8  1  0  0  0  0
 21 12  2  0  0  0  0
 22 23  1  0  0  0  0
 23 18  2  0  0  0  0
 24 27  1  6  0  0  0
 24 28  1  0  0  0  0
 26 29  2  0  0  0  0
 28 25  1  0  0  0  0
 29 30  1  0  0  0  0
 30 25  1  0  0  0  0
 30  5  1  0  0  0  0
 31 24  1  0  0  0  0
 31 29  1  0  0  0  0
M  END
>  <MODEL>
1

>  <REMARK>
 VINA RESULT:     -11.9      0.000      0.000
  Name = 
  0 active torsions:
  status: ('A' for Active; 'I' for Inactive)
                            x       y       z     vdW  Elec       q    Type
                         _______ _______ _______ _____ _____    ______ ____

>  <TORSDO>
F 0

$$$$
=
 OpenBabel11122411063D

 31 35  0  0  1  0  0  0  0  0999 V2000
  188.7260  177.5800  147.1010 C   0  0  0  0  0  0  0  0  0  0  0  0
  187.4460  177.9060  143.5730 C   0  0  0  0  0  0  0  0  0  0  0  0
  186.0620  178.2580  143.6570 C   0  0  0  0  0  0  0  0  0  0  0  0
  192.0850  176.6800  141.4070 O   0  0  0  0  0  0  0  0  0  0  0  0
  191.2610  176.9210  140.4830 C   0  0  0  0  0  0  0  0  0  0  0  0
  184.0360  178.7720  144.9250 C   0  0  0  0  0  0  0  0  0  0  0  0
  188.2980  177.6880  144.6970 C   0  0  0  0  0  0  0  0  0  0  0  0
  190.0560  177.2390  146.8620 C   0  0  0  0  0  3  0  0  0  0  0  0
  185.3890  178.4270  144.8820 C   0  0  0  0  0  3  0  0  0  0  0  0
  189.3570  177.4160  142.1200 C   0  0  0  0  0  0  0  0  0  0  0  0
  188.2630  177.6990  148.4030 O   0  0  0  0  0  1  0  0  0  0  0  0
  185.9350  178.2930  141.2330 C   0  0  0  0  0  3  0  0  0  0  0  0
  183.4010  178.9310  146.1490 O   0  0  0  0  0  1  0  0  0  0  0  0
  190.1330  177.2170  143.2140 N   0  0  0  0  0  0  0  0  0  0  0  0
  188.0080  177.7620  142.2740 C   0  0  0  0  0  0  0  0  0  0  0  0
  189.9070  177.2760  140.8000 N   0  0  0  0  0  2  0  0  0  0  0  0
  187.8590  177.8020  146.0290 C   0  0  0  0  0  3  0  0  0  0  0  0
  183.3240  178.9550  143.7410 C   0  0  0  0  0  3  0  0  0  0  0  0
  189.6540  177.3400  144.4740 C   0  0  0  0  0  0  0  0  0  0  0  0
  190.5190  177.1200  145.5510 C   0  0  0  0  0  3  0  0  0  0  0  0
  187.2450  177.9580  141.1640 N   0  0  0  0  0  0  0  0  0  0  0  0
  185.3190  178.4500  142.4660 C   0  0  0  0  0  0  0  0  0  0  0  0
  183.9650  178.7940  142.5130 C   0  0  0  0  0  3  0  0  0  0  0  0
  192.3730  176.5900  136.3280 C   0  0  1  0  0  3  0  0  0  0  0  0
  190.6520  177.0060  138.0650 C   0  0  0  0  0  2  0  0  0  0  0  0
  193.9770  176.9310  139.5440 O   0  0  0  0  0  0  0  0  0  0  0  0
  192.6400  175.9490  135.1190 O   0  0  0  0  0  1  0  0  0  0  0  0
  190.9830  176.2060  136.8110 C   0  0  0  0  0  2  0  0  0  0  0  0
  193.0530  176.6820  138.7250 C   0  0  0  0  0  0  0  0  0  0  0  0
  191.6660  176.8180  139.1050 N   0  0  0  0  0  0  0  0  0  0  0  0
  193.4160  176.1820  137.3590 C   0  0  0  0  0  2  0  0  0  0  0  0
  1 11  1  0  0  0  0
  2  3  1  0  0  0  0
  2  7  1  0  0  0  0
  3  9  1  0  0  0  0
  5 16  1  0  0  0  0
  5  4  2  0  0  0  0
  6 13  1  0  0  0  0
  7 17  1  0  0  0  0
  8  1  1  0  0  0  0
  9  6  2  0  0  0  0
 10 15  1  0  0  0  0
 10 14  2  0  0  0  0
 12 22  1  0  0  0  0
 14 19  1  0  0  0  0
 15  2  2  0  0  0  0
 16 10  1  0  0  0  0
 17  1  2  0  0  0  0
 18  6  1  0  0  0  0
 19  7  2  0  0  0  0
 19 20  1  0  0  0  0
 20  8  2  0  0  0  0
 21 12  2  0  0  0  0
 21 15  1  0  0  0  0
 22 23  1  0  0  0  0
 22  3  2  0  0  0  0
 23 18  2  0  0  0  0
 24 27  1  6  0  0  0
 24 28  1  0  0  0  0
 24 31  1  0  0  0  0
 25 30  1  0  0  0  0
 28 25  1  0  0  0  0
 29 30  1  0  0  0  0
 29 26  2  0  0  0  0
 30  5  1  0  0  0  0
 31 29  1  0  0  0  0
M  END
>  <MODEL>
2

>  <REMARK>
 VINA RESULT:     -11.2      1.569      4.424
  Name = 
  0 active torsions:
  status: ('A' for Active; 'I' for Inactive)
                            x       y       z     vdW  Elec       q    Type
                         _______ _______ _______ _____ _____    ______ ____

>  <TORSDO>
F 0

$$$$
=
 OpenBabel11122411063D

 31 35  0  0  1  0  0  0  0  0999 V2000
  191.4740  177.2800  141.4260 C   0  0  0  0  0  0  0  0  0  0  0  0
  188.4960  177.6800  143.6990 C   0  0  0  0  0  0  0  0  0  0  0  0
  188.9550  177.4700  145.0370 C   0  0  0  0  0  0  0  0  0  0  0  0
  185.1680  178.6590  139.7380 O   0  0  0  0  0  0  0  0  0  0  0  0
  184.5310  178.7230  140.8240 C   0  0  0  0  0  0  0  0  0  0  0  0
  190.7070  176.9690  146.6670 C   0  0  0  0  0  0  0  0  0  0  0  0
  189.3230  177.6150  142.5370 C   0  0  0  0  0  0  0  0  0  0  0  0
  190.8830  177.5070  140.1850 C   0  0  0  0  0  3  0  0  0  0  0  0
  190.2940  177.1690  145.3480 C   0  0  0  0  0  3  0  0  0  0  0  0
  186.6000  178.1900  142.2330 C   0  0  0  0  0  0  0  0  0  0  0  0
  192.8300  177.0000  141.5100 O   0  0  0  0  0  1  0  0  0  0  0  0
  186.7030  177.8540  145.8570 C   0  0  0  0  0  3  0  0  0  0  0  0
  192.0350  176.6740  146.9410 O   0  0  0  0  0  1  0  0  0  0  0  0
  187.4190  178.1190  141.1540 N   0  0  0  0  0  0  0  0  0  0  0  0
  187.1150  177.9740  143.5180 C   0  0  0  0  0  0  0  0  0  0  0  0
  185.2040  178.4860  142.0690 N   0  0  0  0  0  2  0  0  0  0  0  0
  190.7000  177.3350  142.5880 C   0  0  0  0  0  3  0  0  0  0  0  0
  189.7840  177.0660  147.7090 C   0  0  0  0  0  3  0  0  0  0  0  0
  188.7400  177.8430  141.2650 C   0  0  0  0  0  0  0  0  0  0  0  0
  189.5180  177.7880  140.1040 C   0  0  0  0  0  3  0  0  0  0  0  0
  186.2780  178.0510  144.5870 N   0  0  0  0  0  0  0  0  0  0  0  0
  188.0350  177.5630  146.1110 C   0  0  0  0  0  0  0  0  0  0  0  0
  188.4500  177.3620  147.4300 C   0  0  0  0  0  3  0  0  0  0  0  0
  180.2920  179.5230  140.9060 C   0  0  1  0  0  3  0  0  0  0  0  0
  182.3980  178.9720  142.0950 C   0  0  0  0  0  2  0  0  0  0  0  0
  183.0790  179.9040  138.6430 O   0  0  0  0  0  0  0  0  0  0  0  0
  178.9300  179.2390  140.8070 O   0  0  0  0  0  1  0  0  0  0  0  0
  180.9390  178.5730  141.9000 C   0  0  0  0  0  2  0  0  0  0  0  0
  182.4350  179.4670  139.6330 C   0  0  0  0  0  0  0  0  0  0  0  0
  183.1190  179.0080  140.8210 N   0  0  0  0  0  0  0  0  0  0  0  0
  180.9430  179.3720  139.5370 C   0  0  0  0  0  2  0  0  0  0  0  0
  1 11  1  0  0  0  0
  1 17  1  0  0  0  0
  2  3  1  0  0  0  0
  3  9  2  0  0  0  0
  3 22  1  0  0  0  0
  4  5  2  0  0  0  0
  5 16  1  0  0  0  0
  6 13  1  0  0  0  0
  6 18  2  0  0  0  0
  7 17  2  0  0  0  0
  7  2  1  0  0  0  0
  8  1  2  0  0  0  0
  9  6  1  0  0  0  0
 10 15  1  0  0  0  0
 12 22  1  0  0  0  0
 14 19  1  0  0  0  0
 14 10  2  0  0  0  0
 15  2  2  0  0  0  0
 15 21  1  0  0  0  0
 16 10  1  0  0  0  0
 19  7  1  0  0  0  0
 20  8  1  0  0  0  0
 20 19  2  0  0  0  0
 21 12  2  0  0  0  0
 22 23  2  0  0  0  0
 23 18  1  0  0  0  0
 24 27  1  6  0  0  0
 24 28  1  0  0  0  0
 26 29  2  0  0  0  0
 28 25  1  0  0  0  0
 29 30  1  0  0  0  0
 30  5  1  0  0  0  0
 30 25  1  0  0  0  0
 31 29  1  0  0  0  0
 31 24  1  0  0  0  0
M  END
>  <MODEL>
3

>  <REMARK>
 VINA RESULT:     -10.7      3.102      6.723
  Name = 
  0 active torsions:
  status: ('A' for Active; 'I' for Inactive)
                            x       y       z     vdW  Elec       q    Type
                         _______ _______ _______ _____ _____    ______ ____

>  <TORSDO>
F 0

$$$$
=
 OpenBabel11122411063D

 31 35  0  0  1  0  0  0  0  0999 V2000
  187.1150  178.1420  147.7050 C   0  0  0  0  0  0  0  0  0  0  0  0
  187.6520  177.7480  143.9980 C   0  0  0  0  0  0  0  0  0  0  0  0
  189.0290  177.4120  143.8040 C   0  0  0  0  0  0  0  0  0  0  0  0
  182.6490  178.8720  142.8020 O   0  0  0  0  0  0  0  0  0  0  0  0
  183.2700  178.6190  141.7350 C   0  0  0  0  0  0  0  0  0  0  0  0
  191.2790  176.9500  144.6410 C   0  0  0  0  0  0  0  0  0  0  0  0
  187.0440  177.9820  145.2680 C   0  0  0  0  0  0  0  0  0  0  0  0
  185.7590  178.4620  147.7360 C   0  0  0  0  0  3  0  0  0  0  0  0
  189.9410  177.2790  144.8680 C   0  0  0  0  0  3  0  0  0  0  0  0
  185.4770  178.1830  142.9560 C   0  0  0  0  0  0  0  0  0  0  0  0
  187.8360  178.0570  148.8870 O   0  0  0  0  0  1  0  0  0  0  0  0
  188.6580  177.3230  141.4070 C   0  0  0  0  0  3  0  0  0  0  0  0
  192.1530  176.8270  145.7110 O   0  0  0  0  0  1  0  0  0  0  0  0
  184.9370  178.3990  144.1820 N   0  0  0  0  0  0  0  0  0  0  0  0
  186.8340  177.8550  142.8380 C   0  0  0  0  0  0  0  0  0  0  0  0
  184.6660  178.2860  141.7750 N   0  0  0  0  0  2  0  0  0  0  0  0
  187.7470  177.9040  146.4830 C   0  0  0  0  0  3  0  0  0  0  0  0
  191.7370  176.7470  143.3390 C   0  0  0  0  0  3  0  0  0  0  0  0
  185.6660  178.3100  145.3200 C   0  0  0  0  0  0  0  0  0  0  0  0
  185.0360  178.5460  146.5460 C   0  0  0  0  0  3  0  0  0  0  0  0
  187.3560  177.6420  141.6000 N   0  0  0  0  0  0  0  0  0  0  0  0
  189.5150  177.2010  142.4900 C   0  0  0  0  0  0  0  0  0  0  0  0
  190.8550  176.8730  142.2660 C   0  0  0  0  0  3  0  0  0  0  0  0
  181.3290  178.8420  137.8880 C   0  0  1  0  0  3  0  0  0  0  0  0
  183.3740  178.4840  139.2450 C   0  0  0  0  0  2  0  0  0  0  0  0
  180.4210  178.5580  141.3710 O   0  0  0  0  0  0  0  0  0  0  0  0
  180.8090  179.4510  136.7470 O   0  0  0  0  0  1  0  0  0  0  0  0
  182.7810  179.2520  138.0690 C   0  0  0  0  0  2  0  0  0  0  0  0
  181.1540  178.7980  140.3750 C   0  0  0  0  0  0  0  0  0  0  0  0
  182.5910  178.6850  140.4670 N   0  0  0  0  0  0  0  0  0  0  0  0
  180.5120  179.2620  139.1030 C   0  0  0  0  0  2  0  0  0  0  0  0
  1  8  1  0  0  0  0
  1 11  1  0  0  0  0
  2  7  1  0  0  0  0
  3  2  1  0  0  0  0
  3  9  1  0  0  0  0
  5 16  1  0  0  0  0
  5  4  2  0  0  0  0
  6  9  2  0  0  0  0
  6 13  1  0  0  0  0
  7 19  2  0  0  0  0
  7 17  1  0  0  0  0
 10 14  2  0  0  0  0
 12 21  2  0  0  0  0
 12 22  1  0  0  0  0
 14 19  1  0  0  0  0
 15 10  1  0  0  0  0
 15  2  2  0  0  0  0
 16 10  1  0  0  0  0
 17  1  2  0  0  0  0
 18  6  1  0  0  0  0
 19 20  1  0  0  0  0
 20  8  2  0  0  0  0
 21 15  1  0  0  0  0
 22  3  2  0  0  0  0
 23 22  1  0  0  0  0
 23 18  2  0  0  0  0
 24 27  1  6  0  0  0
 24 28  1  0  0  0  0
 24 31  1  0  0  0  0
 25 30  1  0  0  0  0
 28 25  1  0  0  0  0
 29 30  1  0  0  0  0
 29 26  2  0  0  0  0
 30  5  1  0  0  0  0
 31 29  1  0  0  0  0
M  END
>  <MODEL>
4

>  <REMARK>
 VINA RESULT:     -10.6      3.848      6.261
  Name = 
  0 active torsions:
  status: ('A' for Active; 'I' for Inactive)
                            x       y       z     vdW  Elec       q    Type
                         _______ _______ _______ _____ _____    ______ ____

>  <TORSDO>
F 0

$$$$
=
 OpenBabel11122411063D

 31 35  0  0  1  0  0  0  0  0999 V2000
  191.5340  176.2990  145.9350 C   0  0  0  0  0  0  0  0  0  0  0  0
  188.3190  177.5480  144.4220 C   0  0  0  0  0  0  0  0  0  0  0  0
  187.4630  177.9280  145.5040 C   0  0  0  0  0  0  0  0  0  0  0  0
  189.9140  176.7050  139.4760 O   0  0  0  0  0  0  0  0  0  0  0  0
  188.7560  177.2040  139.4450 C   0  0  0  0  0  0  0  0  0  0  0  0
  186.9780  178.1950  147.8850 C   0  0  0  0  0  0  0  0  0  0  0  0
  189.6370  177.0210  144.5750 C   0  0  0  0  0  0  0  0  0  0  0  0
  192.2500  175.9720  144.7850 C   0  0  0  0  0  3  0  0  0  0  0  0
  187.8410  177.8140  146.8540 C   0  0  0  0  0  3  0  0  0  0  0  0
  188.6020  177.3560  141.9960 C   0  0  0  0  0  0  0  0  0  0  0  0
  192.1040  176.1090  147.1860 O   0  0  0  0  0  1  0  0  0  0  0  0
  185.7510  178.5710  143.9070 C   0  0  0  0  0  3  0  0  0  0  0  0
  187.3820  178.0700  149.2070 O   0  0  0  0  0  1  0  0  0  0  0  0
  189.8490  176.8570  142.1840 N   0  0  0  0  0  0  0  0  0  0  0  0
  187.8160  177.7090  143.1010 C   0  0  0  0  0  0  0  0  0  0  0  0
  188.0780  177.5260  140.6690 N   0  0  0  0  0  2  0  0  0  0  0  0
  190.2430  176.8180  145.8290 C   0  0  0  0  0  3  0  0  0  0  0  0
  185.7130  178.6980  147.5860 C   0  0  0  0  0  3  0  0  0  0  0  0
  190.3800  176.6820  143.4180 C   0  0  0  0  0  0  0  0  0  0  0  0
  191.6740  176.1640  143.5290 C   0  0  0  0  0  3  0  0  0  0  0  0
  186.5680  178.2080  142.8910 N   0  0  0  0  0  0  0  0  0  0  0  0
  186.1730  178.4420  145.2220 C   0  0  0  0  0  0  0  0  0  0  0  0
  185.3110  178.8210  146.2560 C   0  0  0  0  0  3  0  0  0  0  0  0
  186.6860  177.8720  135.7200 C   0  0  1  0  0  3  0  0  0  0  0  0
  186.7140  177.9150  138.2000 C   0  0  0  0  0  2  0  0  0  0  0  0
  190.0590  177.3320  136.8870 O   0  0  0  0  0  0  0  0  0  0  0  0
  185.9330  177.5430  134.5940 O   0  0  0  0  0  1  0  0  0  0  0  0
  185.9430  177.4400  136.9740 C   0  0  0  0  0  2  0  0  0  0  0  0
  188.8000  177.3350  136.9270 C   0  0  0  0  0  0  0  0  0  0  0  0
  188.0970  177.4310  138.1860 N   0  0  0  0  0  0  0  0  0  0  0  0
  188.0390  177.1760  135.6470 C   0  0  0  0  0  2  0  0  0  0  0  0
  1 11  1  0  0  0  0
  2  7  1  0  0  0  0
  2  3  1  0  0  0  0
  3  9  1  0  0  0  0
  5  4  2  0  0  0  0
  5 16  1  0  0  0  0
  6 13  1  0  0  0  0
  7 17  2  0  0  0  0
  8  1  2  0  0  0  0
  9  6  2  0  0  0  0
 10 14  2  0  0  0  0
 10 15  1  0  0  0  0
 12 22  1  0  0  0  0
 14 19  1  0  0  0  0
 15  2  2  0  0  0  0
 16 10  1  0  0  0  0
 17  1  1  0  0  0  0
 18  6  1  0  0  0  0
 19 20  2  0  0  0  0
 19  7  1  0  0  0  0
 20  8  1  0  0  0  0
 21 15  1  0  0  0  0
 21 12  2  0  0  0  0
 22  3  2  0  0  0  0
 22 23  1  0  0  0  0
 23 18  2  0  0  0  0
 24 27  1  6  0  0  0
 24 28  1  0  0  0  0
 26 29  2  0  0  0  0
 28 25  1  0  0  0  0
 29 30  1  0  0  0  0
 30 25  1  0  0  0  0
 30  5  1  0  0  0  0
 31 24  1  0  0  0  0
 31 29  1  0  0  0  0
M  END
>  <MODEL>
5

>  <REMARK>
 VINA RESULT:     -10.5      1.985      4.458
  Name = 
  0 active torsions:
  status: ('A' for Active; 'I' for Inactive)
                            x       y       z     vdW  Elec       q    Type
                         _______ _______ _______ _____ _____    ______ ____

>  <TORSDO>
F 0

$$$$
=
 OpenBabel11122411063D

 31 35  0  0  1  0  0  0  0  0999 V2000
  188.1180  177.4950  146.2030 C   0  0  0  0  0  0  0  0  0  0  0  0
  187.5800  177.9950  142.5080 C   0  0  0  0  0  0  0  0  0  0  0  0
  188.8480  177.8240  141.8700 C   0  0  0  0  0  0  0  0  0  0  0  0
  182.4300  178.9550  143.0360 O   0  0  0  0  0  0  0  0  0  0  0  0
  182.7240  179.0010  141.8110 C   0  0  0  0  0  0  0  0  0  0  0  0
  191.2500  177.3680  141.9210 C   0  0  0  0  0  0  0  0  0  0  0  0
  187.3570  177.8870  143.9140 C   0  0  0  0  0  0  0  0  0  0  0  0
  186.8240  177.6900  146.6800 C   0  0  0  0  0  3  0  0  0  0  0  0
  190.0280  177.5280  142.5780 C   0  0  0  0  0  3  0  0  0  0  0  0
  185.1930  178.4780  142.2390 C   0  0  0  0  0  0  0  0  0  0  0  0
  189.1480  177.2030  147.0850 O   0  0  0  0  0  1  0  0  0  0  0  0
  187.8100  178.2510  139.7170 C   0  0  0  0  0  3  0  0  0  0  0  0
  192.3940  177.0750  142.6490 O   0  0  0  0  0  1  0  0  0  0  0  0
  185.0230  178.3670  143.5800 N   0  0  0  0  0  0  0  0  0  0  0  0
  186.4640  178.2970  141.6780 C   0  0  0  0  0  0  0  0  0  0  0  0
  184.0770  178.7810  141.3860 N   0  0  0  0  0  2  0  0  0  0  0  0
  188.3790  177.5920  144.8340 C   0  0  0  0  0  3  0  0  0  0  0  0
  191.3190  177.5020  140.5350 C   0  0  0  0  0  3  0  0  0  0  0  0
  186.0470  178.0820  144.4190 C   0  0  0  0  0  0  0  0  0  0  0  0
  185.7900  177.9830  145.7900 C   0  0  0  0  0  3  0  0  0  0  0  0
  186.6140  178.4120  140.3310 N   0  0  0  0  0  0  0  0  0  0  0  0
  188.9420  177.9560  140.4610 C   0  0  0  0  0  0  0  0  0  0  0  0
  190.1670  177.7970  139.8070 C   0  0  0  0  0  3  0  0  0  0  0  0
  179.7620  179.9320  138.8150 C   0  0  1  0  0  3  0  0  0  0  0  0
  182.1140  179.4430  139.4320 C   0  0  0  0  0  2  0  0  0  0  0  0
  179.8900  178.7950  142.2390 O   0  0  0  0  0  0  0  0  0  0  0  0
  178.9310  180.7400  138.0410 O   0  0  0  0  0  1  0  0  0  0  0  0
  181.2000  180.4060  138.6830 C   0  0  0  0  0  2  0  0  0  0  0  0
  180.3050  179.3120  141.1690 C   0  0  0  0  0  0  0  0  0  0  0  0
  181.7100  179.2980  140.8330 N   0  0  0  0  0  0  0  0  0  0  0  0
  179.3210  180.0000  140.2720 C   0  0  0  0  0  2  0  0  0  0  0  0
  1  8  1  0  0  0  0
  1 11  1  0  0  0  0
  2  7  1  0  0  0  0
  3  2  1  0  0  0  0
  3  9  1  0  0  0  0
  5  4  2  0  0  0  0
  6  9  2  0  0  0  0
  6 13  1  0  0  0  0
  7 19  2  0  0  0  0
  7 17  1  0  0  0  0
 10 14  2  0  0  0  0
 12 21  2  0  0  0  0
 12 22  1  0  0  0  0
 14 19  1  0  0  0  0
 15 10  1  0  0  0  0
 15  2  2  0  0  0  0
 16  5  1  0  0  0  0
 16 10  1  0  0  0  0
 17  1  2  0  0  0  0
 18  6  1  0  0  0  0
 19 20  1  0  0  0  0
 20  8  2  0  0  0  0
 21 15  1  0  0  0  0
 22  3  2  0  0  0  0
 23 22  1  0  0  0  0
 23 18  2  0  0  0  0
 24 27  1  6  0  0  0
 24 31  1  0  0  0  0
 25 30  1  0  0  0  0
 28 24  1  0  0  0  0
 28 25  1  0  0  0  0
 29 26  2  0  0  0  0
 30 29  1  0  0  0  0
 30  5  1  0  0  0  0
 31 29  1  0  0  0  0
M  END
>  <MODEL>
6

>  <REMARK>
 VINA RESULT:     -10.1      3.728      7.419
  Name = 
  0 active torsions:
  status: ('A' for Active; 'I' for Inactive)
                            x       y       z     vdW  Elec       q    Type
                         _______ _______ _______ _____ _____    ______ ____

>  <TORSDO>
F 0

$$$$
=
 OpenBabel11122411063D

 31 35  0  0  1  0  0  0  0  0999 V2000
  185.7460  178.3280  146.2370 C   0  0  0  0  0  0  0  0  0  0  0  0
  185.4930  178.3170  142.4780 C   0  0  0  0  0  0  0  0  0  0  0  0
  184.1320  178.6040  142.1460 C   0  0  0  0  0  0  0  0  0  0  0  0
  190.5850  177.1670  141.7930 O   0  0  0  0  0  0  0  0  0  0  0  0
  190.0460  177.2940  140.6610 C   0  0  0  0  0  0  0  0  0  0  0  0
  181.8190  179.1100  142.7550 C   0  0  0  0  0  0  0  0  0  0  0  0
  186.0040  178.2300  143.8090 C   0  0  0  0  0  0  0  0  0  0  0  0
  187.0980  178.0380  146.4050 C   0  0  0  0  0  3  0  0  0  0  0  0
  183.1390  178.8320  143.1170 C   0  0  0  0  0  3  0  0  0  0  0  0
  187.7470  177.8150  141.6580 C   0  0  0  0  0  0  0  0  0  0  0  0
  184.9340  178.5230  147.3450 O   0  0  0  0  0  1  0  0  0  0  0  0
  184.6870  178.4460  139.7880 C   0  0  0  0  0  3  0  0  0  0  0  0
  180.8640  179.3300  143.7370 O   0  0  0  0  0  1  0  0  0  0  0  0
  188.1920  177.7410  142.9370 N   0  0  0  0  0  0  0  0  0  0  0  0
  186.4000  178.1030  141.4020 C   0  0  0  0  0  0  0  0  0  0  0  0
  188.6480  177.6030  140.5590 N   0  0  0  0  0  2  0  0  0  0  0  0
  185.2070  178.4230  144.9520 C   0  0  0  0  0  3  0  0  0  0  0  0
  181.4620  179.1660  141.4080 C   0  0  0  0  0  3  0  0  0  0  0  0
  187.3770  177.9350  144.0000 C   0  0  0  0  0  0  0  0  0  0  0  0
  187.9120  177.8420  145.2890 C   0  0  0  0  0  3  0  0  0  0  0  0
  185.9730  178.1740  140.1130 N   0  0  0  0  0  0  0  0  0  0  0  0
  183.7470  178.6660  140.7830 C   0  0  0  0  0  0  0  0  0  0  0  0
  182.4250  178.9430  140.4240 C   0  0  0  0  0  3  0  0  0  0  0  0
  192.2830  176.7020  137.0190 C   0  0  1  0  0  3  0  0  0  0  0  0
  190.1340  177.1620  138.1700 C   0  0  0  0  0  2  0  0  0  0  0  0
  192.9150  177.3700  140.5100 O   0  0  0  0  0  0  0  0  0  0  0  0
  192.8950  175.9850  135.9920 O   0  0  0  0  0  1  0  0  0  0  0  0
  190.8250  176.2860  137.1310 C   0  0  0  0  0  2  0  0  0  0  0  0
  192.2640  177.0120  139.4930 C   0  0  0  0  0  0  0  0  0  0  0  0
  190.8220  177.1070  139.4630 N   0  0  0  0  0  0  0  0  0  0  0  0
  193.0070  176.4280  138.3310 C   0  0  0  0  0  2  0  0  0  0  0  0
  1  8  1  0  0  0  0
  1 11  1  0  0  0  0
  2  7  1  0  0  0  0
  3  2  1  0  0  0  0
  3  9  1  0  0  0  0
  5  4  2  0  0  0  0
  6  9  2  0  0  0  0
  6 13  1  0  0  0  0
  7 19  2  0  0  0  0
  7 17  1  0  0  0  0
 10 14  2  0  0  0  0
 12 21  2  0  0  0  0
 12 22  1  0  0  0  0
 14 19  1  0  0  0  0
 15 10  1  0  0  0  0
 15  2  2  0  0  0  0
 16  5  1  0  0  0  0
 16 10  1  0  0  0  0
 17  1  2  0  0  0  0
 18  6  1  0  0  0  0
 19 20  1  0  0  0  0
 20  8  2  0  0  0  0
 21 15  1  0  0  0  0
 22  3  2  0  0  0  0
 23 22  1  0  0  0  0
 23 18  2  0  0  0  0
 24 27  1  6  0  0  0
 24 28  1  0  0  0  0
 24 31  1  0  0  0  0
 25 30  1  0  0  0  0
 28 25  1  0  0  0  0
 29 26  2  0  0  0  0
 30 29  1  0  0  0  0
 30  5  1  0  0  0  0
 31 29  1  0  0  0  0
M  END
>  <MODEL>
7

>  <REMARK>
 VINA RESULT:      -9.9      2.210      5.202
  Name = 
  0 active torsions:
  status: ('A' for Active; 'I' for Inactive)
                            x       y       z     vdW  Elec       q    Type
                         _______ _______ _______ _____ _____    ______ ____

>  <TORSDO>
F 0

$$$$
=
 OpenBabel11122411063D

 31 35  0  0  1  0  0  0  0  0999 V2000
  183.7680  179.0130  142.3750 C   0  0  0  0  0  0  0  0  0  0  0  0
  187.2780  177.9110  143.1860 C   0  0  0  0  0  0  0  0  0  0  0  0
  187.3980  177.9000  144.6110 C   0  0  0  0  0  0  0  0  0  0  0  0
  188.6630  177.4200  138.1300 O   0  0  0  0  0  0  0  0  0  0  0  0
  189.6440  177.0900  138.8500 C   0  0  0  0  0  0  0  0  0  0  0  0
  186.4950  178.2320  146.8590 C   0  0  0  0  0  0  0  0  0  0  0  0
  186.0960  178.2750  142.4730 C   0  0  0  0  0  0  0  0  0  0  0  0
  183.8020  178.9780  140.9820 C   0  0  0  0  0  3  0  0  0  0  0  0
  186.3420  178.2550  145.4710 C   0  0  0  0  0  3  0  0  0  0  0  0
  188.3730  177.5250  141.0280 C   0  0  0  0  0  0  0  0  0  0  0  0
  182.6070  179.3930  143.0320 O   0  0  0  0  0  1  0  0  0  0  0  0
  189.7010  177.1610  144.3990 C   0  0  0  0  0  3  0  0  0  0  0  0
  185.4340  178.5880  147.6790 O   0  0  0  0  0  1  0  0  0  0  0  0
  187.2300  177.8780  140.3890 N   0  0  0  0  0  0  0  0  0  0  0  0
  188.4220  177.5340  142.4280 C   0  0  0  0  0  0  0  0  0  0  0  0
  189.5380  177.1410  140.2800 N   0  0  0  0  0  2  0  0  0  0  0  0
  184.9030  178.6640  143.1100 C   0  0  0  0  0  3  0  0  0  0  0  0
  187.7140  177.8530  147.4200 C   0  0  0  0  0  3  0  0  0  0  0  0
  186.1110  178.2460  141.0560 C   0  0  0  0  0  0  0  0  0  0  0  0
  184.9720  178.5950  140.3240 C   0  0  0  0  0  3  0  0  0  0  0  0
  189.5780  177.1760  143.0510 N   0  0  0  0  0  0  0  0  0  0  0  0
  188.6280  177.5170  145.2030 C   0  0  0  0  0  0  0  0  0  0  0  0
  188.7790  177.4960  146.5920 C   0  0  0  0  0  3  0  0  0  0  0  0
  193.4140  175.9070  137.1170 C   0  0  1  0  0  3  0  0  0  0  0  0
  192.0300  176.4070  139.1130 C   0  0  0  0  0  2  0  0  0  0  0  0
  189.9570  176.2260  136.1270 O   0  0  0  0  0  0  0  0  0  0  0  0
  194.6630  176.0800  136.5230 O   0  0  0  0  0  1  0  0  0  0  0  0
  193.3500  176.7020  138.4110 C   0  0  0  0  0  2  0  0  0  0  0  0
  190.9870  176.4030  136.8290 C   0  0  0  0  0  0  0  0  0  0  0  0
  190.8850  176.6830  138.2420 N   0  0  0  0  0  0  0  0  0  0  0  0
  192.3280  176.3790  136.1590 C   0  0  0  0  0  2  0  0  0  0  0  0
  1 11  1  0  0  0  0
  1 17  1  0  0  0  0
  2  3  1  0  0  0  0
  3 22  2  0  0  0  0
  3  9  1  0  0  0  0
  4  5  2  0  0  0  0
  5 16  1  0  0  0  0
  6 18  1  0  0  0  0
  6 13  1  0  0  0  0
  7 17  2  0  0  0  0
  7  2  1  0  0  0  0
  8  1  2  0  0  0  0
  9  6  2  0  0  0  0
 10 15  1  0  0  0  0
 12 22  1  0  0  0  0
 14 10  2  0  0  0  0
 14 19  1  0  0  0  0
 15 21  1  0  0  0  0
 15  2  2  0  0  0  0
 16 10  1  0  0  0  0
 19  7  1  0  0  0  0
 20  8  1  0  0  0  0
 20 19  2  0  0  0  0
 21 12  2  0  0  0  0
 22 23  1  0  0  0  0
 23 18  2  0  0  0  0
 24 27  1  6  0  0  0
 24 28  1  0  0  0  0
 26 29  2  0  0  0  0
 28 25  1  0  0  0  0
 29 30  1  0  0  0  0
 30  5  1  0  0  0  0
 30 25  1  0  0  0  0
 31 29  1  0  0  0  0
 31 24  1  0  0  0  0
M  END
>  <MODEL>
8

>  <REMARK>
 VINA RESULT:      -9.9      1.397      1.964
  Name = 
  0 active torsions:
  status: ('A' for Active; 'I' for Inactive)
                            x       y       z     vdW  Elec       q    Type
                         _______ _______ _______ _____ _____    ______ ____

>  <TORSDO>
F 0

$$$$
=
 OpenBabel11122411063D

 31 35  0  0  1  0  0  0  0  0999 V2000
  183.7530  178.9740  139.3120 C   0  0  0  0  0  0  0  0  0  0  0  0
  187.4080  178.0810  139.5050 C   0  0  0  0  0  0  0  0  0  0  0  0
  187.8940  178.0010  138.1620 C   0  0  0  0  0  0  0  0  0  0  0  0
  187.4390  177.8830  144.7660 O   0  0  0  0  0  0  0  0  0  0  0  0
  188.6040  177.6430  144.3480 C   0  0  0  0  0  0  0  0  0  0  0  0
  187.5870  178.1410  135.7400 C   0  0  0  0  0  0  0  0  0  0  0  0
  186.0630  178.3970  139.8640 C   0  0  0  0  0  0  0  0  0  0  0  0
  183.4260  179.0130  140.6670 C   0  0  0  0  0  3  0  0  0  0  0  0
  187.0780  178.2280  137.0380 C   0  0  0  0  0  3  0  0  0  0  0  0
  187.9240  177.8860  141.8920 C   0  0  0  0  0  0  0  0  0  0  0  0
  182.7840  179.2370  138.3560 O   0  0  0  0  0  1  0  0  0  0  0  0
  190.1010  177.4440  139.0060 C   0  0  0  0  0  3  0  0  0  0  0  0
  186.7560  178.3700  134.6530 O   0  0  0  0  0  1  0  0  0  0  0  0
  186.6370  178.1890  142.1920 N   0  0  0  0  0  0  0  0  0  0  0  0
  188.3350  177.8260  140.5540 C   0  0  0  0  0  0  0  0  0  0  0  0
  188.8740  177.6260  142.9380 N   0  0  0  0  0  2  0  0  0  0  0  0
  185.0580  178.6700  138.9190 C   0  0  0  0  0  3  0  0  0  0  0  0
  188.9290  177.8230  135.5380 C   0  0  0  0  0  3  0  0  0  0  0  0
  185.7110  178.4410  141.2360 C   0  0  0  0  0  0  0  0  0  0  0  0
  184.4030  178.7480  141.6270 C   0  0  0  0  0  3  0  0  0  0  0  0
  189.6310  177.5210  140.2740 N   0  0  0  0  0  0  0  0  0  0  0  0
  189.2550  177.6800  137.9330 C   0  0  0  0  0  0  0  0  0  0  0  0
  189.7620  177.5920  136.6330 C   0  0  0  0  0  3  0  0  0  0  0  0
  191.8320  176.7350  147.0620 C   0  0  1  0  0  3  0  0  0  0  0  0
  190.9780  176.9850  144.7470 C   0  0  0  0  0  2  0  0  0  0  0  0
  188.5670  178.2720  147.1510 O   0  0  0  0  0  0  0  0  0  0  0  0
  192.6120  175.9510  147.9110 O   0  0  0  0  0  1  0  0  0  0  0  0
  191.7260  176.0620  145.7030 C   0  0  0  0  0  2  0  0  0  0  0  0
  189.5120  177.5730  146.6990 C   0  0  0  0  0  0  0  0  0  0  0  0
  189.6650  177.3590  145.2790 N   0  0  0  0  0  0  0  0  0  0  0  0
  190.4450  176.9120  147.6680 C   0  0  0  0  0  2  0  0  0  0  0  0
  1  8  1  0  0  0  0
  2  7  1  0  0  0  0
  2 15  1  0  0  0  0
  3  2  2  0  0  0  0
  5  4  2  0  0  0  0
  5 30  1  0  0  0  0
  6  9  2  0  0  0  0
  7 19  2  0  0  0  0
  8 20  2  0  0  0  0
  9  3  1  0  0  0  0
 10 14  2  0  0  0  0
 10 16  1  0  0  0  0
 11  1  1  0  0  0  0
 12 21  1  0  0  0  0
 13  6  1  0  0  0  0
 15 10  1  0  0  0  0
 16  5  1  0  0  0  0
 17  1  2  0  0  0  0
 17  7  1  0  0  0  0
 18  6  1  0  0  0  0
 18 23  2  0  0  0  0
 19 20  1  0  0  0  0
 19 14  1  0  0  0  0
 21 15  2  0  0  0  0
 22  3  1  0  0  0  0
 22 12  2  0  0  0  0
 23 22  1  0  0  0  0
 24 31  1  0  0  0  0
 24 27  1  1  0  0  0
 25 30  1  0  0  0  0
 25 28  1  0  0  0  0
 28 24  1  0  0  0  0
 29 26  2  0  0  0  0
 29 31  1  0  0  0  0
 30 29  1  0  0  0  0
M  END
>  <MODEL>
9

>  <REMARK>
 VINA RESULT:      -9.9      2.369      7.898
  Name = 
  0 active torsions:
  status: ('A' for Active; 'I' for Inactive)
                            x       y       z     vdW  Elec       q    Type
                         _______ _______ _______ _____ _____    ______ ____

>  <TORSDO>
F 0

$$$$
