=
 OpenBabel11122410423D

 32 38  0  0  1  0  0  0  0  0999 V2000
  179.9260  178.7650  141.6370 C   0  0  1  0  0  3  0  0  0  0  0  0
  184.7920  178.3980  143.6890 C   0  0  0  0  0  0  0  0  0  0  0  0
  187.7230  178.6760  139.8760 O   0  0  0  0  0  0  0  0  0  0  0  0
  188.6230  177.7390  140.4080 C   0  0  0  0  0  2  0  0  0  0  0  0
  185.7940  178.1860  146.0300 C   0  0  0  0  0  0  0  0  0  0  0  0
  186.9870  177.9160  146.8230 C   0  0  0  0  0  0  0  0  0  0  0  0
  182.3860  179.1080  143.3480 C   0  0  1  0  0  3  0  0  0  0  0  0
  183.8000  178.6920  141.3510 C   0  0  0  0  0  2  0  0  0  0  0  0
  189.0830  177.5210  147.2840 C   0  0  0  0  0  0  0  0  0  0  0  0
  181.3170  178.7730  141.0020 C   0  0  2  0  0  3  0  0  0  0  0  0
  186.4370  178.2270  140.2280 C   0  0  0  0  0  2  0  0  0  0  0  0
  184.9600  178.4100  142.2810 C   0  0  0  0  0  0  0  0  0  0  0  0
  186.2390  178.2650  141.7270 C   0  0  0  0  0  0  0  0  0  0  0  0
  187.2120  178.0370  143.9510 C   0  0  0  0  0  0  0  0  0  0  0  0
  188.3450  177.5670  148.4560 C   0  0  0  0  0  3  0  0  0  0  0  0
  179.9270  178.3970  143.1360 C   0  0  0  0  0  2  0  0  0  0  0  0
  182.4470  178.4090  141.9850 C   0  0  2  0  0  3  0  0  0  0  0  0
  187.0450  177.8140  148.1660 N   0  0  0  0  0  2  0  0  0  0  0  0
  180.9970  179.0890  143.9910 C   0  0  0  0  0  2  0  0  0  0  0  0
  180.6120  180.0880  141.3170 C   0  0  1  0  0  3  0  0  0  0  0  0
  188.7260  177.9320  141.9210 C   0  0  0  0  0  2  0  0  0  0  0  0
  187.3560  178.0550  142.5530 C   0  0  0  0  0  0  0  0  0  0  0  0
  188.4720  177.8410  144.7870 C   0  0  0  0  0  2  0  0  0  0  0  0
  183.3970  178.4540  144.2740 C   0  0  0  0  0  2  0  0  0  0  0  0
  184.7010  178.4010  146.6210 O   0  0  0  0  0  0  0  0  0  0  0  0
  190.5480  177.2900  147.1790 C   0  0  0  0  0  1  0  0  0  0  0  0
  185.9200  178.2120  144.5370 C   0  0  0  0  0  0  0  0  0  0  0  0
  188.2060  177.7410  146.2510 C   0  0  0  0  0  0  0  0  0  0  0  0
  180.0290  180.6570  140.0380 C   0  0  0  0  0  2  0  0  0  0  0  0
  180.9540  180.3760  138.8680 C   0  0  1  0  0  3  0  0  0  0  0  0
  180.2320  179.8030  137.8200 O   0  0  0  0  0  1  0  0  0  0  0  0
  181.5730  181.6750  138.3970 C   0  0  0  0  0  1  0  0  0  0  0  0
  1 16  1  1  0  0  0
  2 24  1  0  0  0  0
  2 27  1  0  0  0  0
  3 11  1  0  0  0  0
  3  4  1  0  0  0  0
  4 21  1  0  0  0  0
  5 25  2  0  0  0  0
  5  6  1  0  0  0  0
  6 18  1  0  0  0  0
  7 19  1  1  0  0  0
  7 24  1  0  0  0  0
  8 17  1  0  0  0  0
  8 12  1  0  0  0  0
  9 15  2  0  0  0  0
 10 20  1  0  0  0  0
 10  1  1  0  0  0  0
 10 17  1  0  0  0  0
 11 13  1  0  0  0  0
 12  2  2  0  0  0  0
 13 12  1  0  0  0  0
 13 22  2  0  0  0  0
 14 27  2  0  0  0  0
 14 23  1  0  0  0  0
 16 19  1  0  0  0  0
 17  7  1  0  0  0  0
 18 15  1  0  0  0  0
 20  1  1  0  0  0  0
 21 22  1  0  0  0  0
 22 14  1  0  0  0  0
 23 28  1  0  0  0  0
 26  9  1  0  0  0  0
 27  5  1  0  0  0  0
 28  6  2  0  0  0  0
 28  9  1  0  0  0  0
 29 20  1  0  0  0  0
 30 29  1  0  0  0  0
 31 30  1  0  0  0  0
 32 30  1  0  0  0  0
M  END
>  <MODEL>
1

>  <REMARK>
 VINA RESULT:     -10.9      0.000      0.000
  Name = 
  2 active torsions:
  status: ('A' for Active; 'I' for Inactive)
    1  A    between atoms: C_20  and  C_29
    2  A    between atoms: C_29  and  C_30
                            x       y       z     vdW  Elec       q    Type
                         _______ _______ _______ _____ _____    ______ ____

>  <TORSDO>
F 2

$$$$
=
 OpenBabel11122410423D

 32 38  0  0  1  0  0  0  0  0999 V2000
  188.9130  177.9270  147.8760 C   0  0  1  0  0  3  0  0  0  0  0  0
  186.2130  178.2000  143.3310 C   0  0  0  0  0  0  0  0  0  0  0  0
  189.5170  177.3710  139.9250 O   0  0  0  0  0  0  0  0  0  0  0  0
  188.9450  178.3000  139.0410 C   0  0  0  0  0  2  0  0  0  0  0  0
  183.7790  178.5800  142.6530 C   0  0  0  0  0  0  0  0  0  0  0  0
  182.8470  178.8540  141.5660 C   0  0  0  0  0  0  0  0  0  0  0  0
  186.8380  177.6060  145.7120 C   0  0  1  0  0  3  0  0  0  0  0  0
  188.6350  177.7380  144.0060 C   0  0  0  0  0  2  0  0  0  0  0  0
  182.1220  179.1650  139.5310 C   0  0  0  0  0  0  0  0  0  0  0  0
  189.3350  177.7730  146.4150 C   0  0  2  0  0  3  0  0  0  0  0  0
  189.3980  177.9290  141.2100 C   0  0  0  0  0  2  0  0  0  0  0  0
  187.5750  178.0390  142.9690 C   0  0  0  0  0  0  0  0  0  0  0  0
  187.9470  178.0520  141.6180 C   0  0  0  0  0  0  0  0  0  0  0  0
  185.6330  178.4370  140.9510 C   0  0  0  0  0  0  0  0  0  0  0  0
  181.0710  179.2790  140.4260 C   0  0  0  0  0  3  0  0  0  0  0  0
  187.4680  178.4400  148.0570 C   0  0  0  0  0  2  0  0  0  0  0  0
  188.2330  178.1630  145.4090 C   0  0  2  0  0  3  0  0  0  0  0  0
  181.5240  179.0840  141.6880 N   0  0  0  0  0  2  0  0  0  0  0  0
  186.4080  177.7730  147.1720 C   0  0  0  0  0  2  0  0  0  0  0  0
  189.0110  176.5400  147.2520 C   0  0  1  0  0  3  0  0  0  0  0  0
  187.4220  178.2500  139.1650 C   0  0  0  0  0  2  0  0  0  0  0  0
  186.9880  178.2730  140.6150 C   0  0  0  0  0  0  0  0  0  0  0  0
  184.6430  178.6380  139.8090 C   0  0  0  0  0  2  0  0  0  0  0  0
  185.8350  178.2850  144.7940 C   0  0  0  0  0  2  0  0  0  0  0  0
  183.3360  178.4900  143.8300 O   0  0  0  0  0  0  0  0  0  0  0  0
  182.0320  179.2960  138.0520 C   0  0  0  0  0  1  0  0  0  0  0  0
  185.2290  178.4000  142.3220 C   0  0  0  0  0  0  0  0  0  0  0  0
  183.2480  178.8980  140.2690 C   0  0  0  0  0  0  0  0  0  0  0  0
  190.3050  175.8840  147.6910 C   0  0  0  0  0  2  0  0  0  0  0  0
  191.4950  176.6280  147.1110 C   0  0  1  0  0  3  0  0  0  0  0  0
  192.4300  176.8830  148.1150 O   0  0  0  0  0  1  0  0  0  0  0  0
  192.1360  175.7820  146.0320 C   0  0  0  0  0  1  0  0  0  0  0  0
  1 16  1  6  0  0  0
  2 24  1  0  0  0  0
  3 11  1  0  0  0  0
  4 21  1  0  0  0  0
  4  3  1  0  0  0  0
  5 25  2  0  0  0  0
  6 18  1  0  0  0  0
  6  5  1  0  0  0  0
  7 24  1  6  0  0  0
  7 19  1  0  0  0  0
  8 17  1  0  0  0  0
  9 28  1  0  0  0  0
  9 15  2  0  0  0  0
 10 20  1  0  0  0  0
 10  1  1  0  0  0  0
 11 13  1  0  0  0  0
 12  2  1  0  0  0  0
 12  8  1  0  0  0  0
 13 12  2  0  0  0  0
 14 27  1  0  0  0  0
 15 18  1  0  0  0  0
 17  7  1  0  0  0  0
 17 10  1  0  0  0  0
 19 16  1  0  0  0  0
 20 29  1  0  0  0  0
 20  1  1  0  0  0  0
 21 22  1  0  0  0  0
 22 14  2  0  0  0  0
 22 13  1  0  0  0  0
 23 28  1  0  0  0  0
 23 14  1  0  0  0  0
 26  9  1  0  0  0  0
 27  5  1  0  0  0  0
 27  2  2  0  0  0  0
 28  6  2  0  0  0  0
 30 29  1  0  0  0  0
 30 31  1  0  0  0  0
 32 30  1  0  0  0  0
M  END
>  <MODEL>
2

>  <REMARK>
 VINA RESULT:     -10.7      2.453      8.125
  Name = 
  2 active torsions:
  status: ('A' for Active; 'I' for Inactive)
    1  A    between atoms: C_20  and  C_29
    2  A    between atoms: C_29  and  C_30
                            x       y       z     vdW  Elec       q    Type
                         _______ _______ _______ _____ _____    ______ ____

>  <TORSDO>
F 2

$$$$
=
 OpenBabel11122410423D

 32 38  0  0  1  0  0  0  0  0999 V2000
  188.4410  178.1570  136.7940 C   0  0  1  0  0  3  0  0  0  0  0  0
  187.8080  177.7960  142.0380 C   0  0  0  0  0  0  0  0  0  0  0  0
  183.1170  178.6370  142.7370 O   0  0  0  0  0  0  0  0  0  0  0  0
  183.3460  179.3510  143.9230 C   0  0  0  0  0  2  0  0  0  0  0  0
  189.3020  177.2690  144.0430 C   0  0  0  0  0  0  0  0  0  0  0  0
  189.4320  177.2640  145.4950 C   0  0  0  0  0  0  0  0  0  0  0  0
  188.5440  177.2670  139.6740 C   0  0  1  0  0  3  0  0  0  0  0  0
  186.2910  178.2440  140.0290 C   0  0  0  0  0  2  0  0  0  0  0  0
  188.8700  177.4630  147.5940 C   0  0  0  0  0  0  0  0  0  0  0  0
  187.2190  178.3170  137.6990 C   0  0  2  0  0  3  0  0  0  0  0  0
  184.1640  178.9800  141.8630 C   0  0  0  0  0  2  0  0  0  0  0  0
  186.5540  178.2090  141.5190 C   0  0  0  0  0  0  0  0  0  0  0  0
  185.4940  178.4930  142.3910 C   0  0  0  0  0  0  0  0  0  0  0  0
  186.9100  178.0170  144.3180 C   0  0  0  0  0  0  0  0  0  0  0  0
  190.1960  177.0760  147.4980 C   0  0  0  0  0  3  0  0  0  0  0  0
  189.7760  178.0520  137.5620 C   0  0  0  0  0  2  0  0  0  0  0  0
  187.5630  178.3450  139.2030 C   0  0  2  0  0  3  0  0  0  0  0  0
  190.5420  176.9530  146.1940 N   0  0  0  0  0  0  0  0  0  0  0  0
  189.7750  177.1140  138.7760 C   0  0  0  0  0  2  0  0  0  0  0  0
  187.4970  176.9820  137.0180 C   0  0  1  0  0  3  0  0  0  0  0  0
  184.4990  178.7060  144.6920 C   0  0  0  0  0  2  0  0  0  0  0  0
  185.6750  178.4220  143.7820 C   0  0  0  0  0  0  0  0  0  0  0  0
  187.0240  177.9280  145.8360 C   0  0  0  0  0  3  0  0  0  0  0  0
  188.9740  177.5900  141.0950 C   0  0  0  0  0  2  0  0  0  0  0  0
  190.2820  176.9040  143.3390 O   0  0  0  0  0  0  0  0  0  0  0  0
  188.1100  177.6890  148.8520 C   0  0  0  0  0  1  0  0  0  0  0  0
  187.9950  177.6960  143.4450 C   0  0  0  0  0  0  0  0  0  0  0  0
  188.3950  177.5820  146.3110 C   0  0  0  0  0  0  0  0  0  0  0  0
  186.5840  176.8380  135.8170 C   0  0  0  0  0  2  0  0  0  0  0  0
  185.1370  177.0490  136.2270 C   0  0  1  0  0  3  0  0  0  0  0  0
  184.3440  177.2290  135.0930 O   0  0  0  0  0  1  0  0  0  0  0  0
  184.6520  175.8360  136.9900 C   0  0  0  0  0  1  0  0  0  0  0  0
  1 20  1  0  0  0  0
  1 16  1  1  0  0  0
  1 10  1  0  0  0  0
  2 27  1  0  0  0  0
  3  4  1  0  0  0  0
  4 21  1  0  0  0  0
  5  6  1  0  0  0  0
  6 18  2  0  0  0  0
  6 28  1  0  0  0  0
  7 19  1  6  0  0  0
  7 24  1  0  0  0  0
  8 12  1  0  0  0  0
  9 26  1  0  0  0  0
 10 17  1  0  0  0  0
 11 13  1  0  0  0  0
 11  3  1  0  0  0  0
 12  2  2  0  0  0  0
 12 13  1  0  0  0  0
 13 22  2  0  0  0  0
 14 23  1  0  0  0  0
 15  9  2  0  0  0  0
 16 19  1  0  0  0  0
 17  7  1  0  0  0  0
 17  8  1  0  0  0  0
 18 15  1  0  0  0  0
 20 10  1  0  0  0  0
 22 14  1  0  0  0  0
 22 21  1  0  0  0  0
 23 28  2  0  0  0  0
 24  2  1  0  0  0  0
 25  5  2  0  0  0  0
 27  5  1  0  0  0  0
 27 14  2  0  0  0  0
 28  9  1  0  0  0  0
 29 30  1  0  0  0  0
 29 20  1  0  0  0  0
 30 32  1  0  0  0  0
 31 30  1  0  0  0  0
M  END
>  <MODEL>
3

>  <REMARK>
 VINA RESULT:     -10.6      2.692      5.638
  Name = 
  2 active torsions:
  status: ('A' for Active; 'I' for Inactive)
    1  A    between atoms: C_20  and  C_29
    2  A    between atoms: C_29  and  C_30
                            x       y       z     vdW  Elec       q    Type
                         _______ _______ _______ _____ _____    ______ ____

>  <TORSDO>
F 2

$$$$
=
 OpenBabel11122410423D

 32 38  0  0  1  0  0  0  0  0999 V2000
  182.1210  179.5300  139.1560 C   0  0  1  0  0  3  0  0  0  0  0  0
  186.0910  178.1190  142.3600 C   0  0  0  0  0  0  0  0  0  0  0  0
  184.1540  178.1950  146.7700 O   0  0  0  0  0  0  0  0  0  0  0  0
  185.3260  178.7000  147.3560 C   0  0  0  0  0  2  0  0  0  0  0  0
  188.5340  177.4270  142.0740 C   0  0  0  0  0  0  0  0  0  0  0  0
  189.8110  177.1680  142.7290 C   0  0  0  0  0  0  0  0  0  0  0  0
  184.4920  178.1410  140.3980 C   0  0  1  0  0  3  0  0  0  0  0  0
  183.6260  178.7310  142.6470 C   0  0  0  0  0  2  0  0  0  0  0  0
  191.2590  176.8970  144.3390 C   0  0  0  0  0  0  0  0  0  0  0  0
  182.2120  179.3590  140.6720 C   0  0  2  0  0  3  0  0  0  0  0  0
  184.0360  178.8290  145.5200 C   0  0  0  0  0  2  0  0  0  0  0  0
  185.0040  178.4540  143.2070 C   0  0  0  0  0  0  0  0  0  0  0  0
  185.1670  178.4300  144.5990 C   0  0  0  0  0  0  0  0  0  0  0  0
  187.5070  177.7910  144.3470 C   0  0  0  0  0  0  0  0  0  0  0  0
  191.8790  176.7110  143.1150 C   0  0  0  0  0  3  0  0  0  0  0  0
  183.4870  179.4600  138.4380 C   0  0  0  0  0  2  0  0  0  0  0  0
  183.6510  179.1500  141.1860 C   0  0  2  0  0  3  0  0  0  0  0  0
  190.9770  176.8800  142.1180 N   0  0  0  0  0  0  0  0  0  0  0  0
  184.4130  178.3200  138.8800 C   0  0  0  0  0  2  0  0  0  0  0  0
  181.6860  178.2210  139.8030 C   0  0  1  0  0  3  0  0  0  0  0  0
  186.5450  178.0790  146.6750 C   0  0  0  0  0  2  0  0  0  0  0  0
  186.4150  178.1240  145.1670 C   0  0  0  0  0  0  0  0  0  0  0  0
  188.8210  177.4360  145.0330 C   0  0  0  0  0  3  0  0  0  0  0  0
  185.9350  178.2460  140.8600 C   0  0  0  0  0  2  0  0  0  0  0  0
  188.4600  177.3310  140.8190 O   0  0  0  0  0  0  0  0  0  0  0  0
  191.9030  176.7840  145.6750 C   0  0  0  0  0  1  0  0  0  0  0  0
  187.3540  177.7830  142.9250 C   0  0  0  0  0  0  0  0  0  0  0  0
  189.9430  177.1910  144.0800 C   0  0  0  0  0  0  0  0  0  0  0  0
  180.1730  178.1860  139.8920 C   0  0  0  0  0  2  0  0  0  0  0  0
  179.7320  177.1960  140.9550 C   0  0  1  0  0  3  0  0  0  0  0  0
  178.9400  177.8420  141.9060 O   0  0  0  0  0  1  0  0  0  0  0  0
  178.9320  176.0880  140.3050 C   0  0  0  0  0  1  0  0  0  0  0  0
  1 16  1  6  0  0  0
  1 20  1  0  0  0  0
  1 10  1  0  0  0  0
  2 27  2  0  0  0  0
  2 12  1  0  0  0  0
  3  4  1  0  0  0  0
  5  6  1  0  0  0  0
  5 27  1  0  0  0  0
  6 28  1  0  0  0  0
  7 19  1  6  0  0  0
  7 24  1  0  0  0  0
  7 17  1  0  0  0  0
  8 12  1  0  0  0  0
  9 26  1  0  0  0  0
 10 17  1  0  0  0  0
 11  3  1  0  0  0  0
 12 13  2  0  0  0  0
 13 22  1  0  0  0  0
 13 11  1  0  0  0  0
 14 23  1  0  0  0  0
 14 22  2  0  0  0  0
 15  9  2  0  0  0  0
 16 19  1  0  0  0  0
 17  8  1  0  0  0  0
 18  6  2  0  0  0  0
 18 15  1  0  0  0  0
 20 29  1  0  0  0  0
 20 10  1  0  0  0  0
 21  4  1  0  0  0  0
 22 21  1  0  0  0  0
 24  2  1  0  0  0  0
 25  5  2  0  0  0  0
 27 14  1  0  0  0  0
 28  9  1  0  0  0  0
 28 23  2  0  0  0  0
 29 30  1  0  0  0  0
 30 31  1  0  0  0  0
 32 30  1  0  0  0  0
M  END
>  <MODEL>
4

>  <REMARK>
 VINA RESULT:      -9.7      2.213      4.488
  Name = 
  2 active torsions:
  status: ('A' for Active; 'I' for Inactive)
    1  A    between atoms: C_20  and  C_29
    2  A    between atoms: C_29  and  C_30
                            x       y       z     vdW  Elec       q    Type
                         _______ _______ _______ _____ _____    ______ ____

>  <TORSDO>
F 2

$$$$
=
 OpenBabel11122410423D

 32 38  0  0  1  0  0  0  0  0999 V2000
  187.4960  178.4920  136.1360 C   0  0  1  0  0  3  0  0  0  0  0  0
  187.9760  177.8020  141.3630 C   0  0  0  0  0  0  0  0  0  0  0  0
  183.5210  178.4660  143.0720 O   0  0  0  0  0  0  0  0  0  0  0  0
  183.9830  179.1150  144.2280 C   0  0  0  0  0  2  0  0  0  0  0  0
  189.8630  177.1980  142.9770 C   0  0  0  0  0  0  0  0  0  0  0  0
  190.2930  177.1100  144.3670 C   0  0  0  0  0  0  0  0  0  0  0  0
  188.2110  177.4360  138.8690 C   0  0  1  0  0  3  0  0  0  0  0  0
  186.0670  178.3250  139.7450 C   0  0  0  0  0  2  0  0  0  0  0  0
  190.1780  177.1680  146.5460 C   0  0  0  0  0  0  0  0  0  0  0  0
  186.4880  178.5640  137.2830 C   0  0  2  0  0  3  0  0  0  0  0  0
  184.3580  178.8910  142.0240 C   0  0  0  0  0  2  0  0  0  0  0  0
  186.6350  178.2090  141.1430 C   0  0  0  0  0  0  0  0  0  0  0  0
  185.7760  178.4110  142.2320 C   0  0  0  0  0  0  0  0  0  0  0  0
  187.5700  177.8610  143.7900 C   0  0  0  0  0  0  0  0  0  0  0  0
  191.4610  176.8250  146.1530 C   0  0  0  0  0  3  0  0  0  0  0  0
  188.9640  178.3800  136.6030 C   0  0  0  0  0  2  0  0  0  0  0  0
  187.1370  178.5120  138.6820 C   0  0  2  0  0  3  0  0  0  0  0  0
  191.5290  176.7890  144.8000 N   0  0  0  0  0  0  0  0  0  0  0  0
  189.2300  177.3720  137.7280 C   0  0  0  0  0  2  0  0  0  0  0  0
  186.6370  177.2800  136.4750 C   0  0  1  0  0  3  0  0  0  0  0  0
  185.2800  178.4580  144.6980 C   0  0  0  0  0  2  0  0  0  0  0  0
  186.2440  178.2620  143.5480 C   0  0  0  0  0  0  0  0  0  0  0  0
  187.9990  177.6840  145.2420 C   0  0  0  0  0  3  0  0  0  0  0  0
  188.9230  177.6850  140.1880 C   0  0  0  0  0  2  0  0  0  0  0  0
  190.6800  176.9040  142.0630 O   0  0  0  0  0  0  0  0  0  0  0  0
  189.6940  177.2970  147.9460 C   0  0  0  0  0  1  0  0  0  0  0  0
  188.4540  177.6230  142.6920 C   0  0  0  0  0  0  0  0  0  0  0  0
  189.4450  177.3500  145.3990 C   0  0  0  0  0  0  0  0  0  0  0  0
  185.4960  177.1830  135.4820 C   0  0  0  0  0  2  0  0  0  0  0  0
  184.5980  176.0070  135.8260 C   0  0  1  0  0  3  0  0  0  0  0  0
  183.8550  176.2970  136.9710 O   0  0  0  0  0  1  0  0  0  0  0  0
  183.6570  175.7420  134.6710 C   0  0  0  0  0  1  0  0  0  0  0  0
  1 20  1  0  0  0  0
  1 16  1  1  0  0  0
  1 10  1  0  0  0  0
  2 27  1  0  0  0  0
  3  4  1  0  0  0  0
  4 21  1  0  0  0  0
  5  6  1  0  0  0  0
  6 18  2  0  0  0  0
  6 28  1  0  0  0  0
  7 19  1  6  0  0  0
  7 24  1  0  0  0  0
  8 12  1  0  0  0  0
  9 26  1  0  0  0  0
 10 17  1  0  0  0  0
 11 13  1  0  0  0  0
 11  3  1  0  0  0  0
 12  2  2  0  0  0  0
 12 13  1  0  0  0  0
 13 22  2  0  0  0  0
 14 23  1  0  0  0  0
 15  9  2  0  0  0  0
 16 19  1  0  0  0  0
 17  7  1  0  0  0  0
 17  8  1  0  0  0  0
 18 15  1  0  0  0  0
 20 10  1  0  0  0  0
 22 14  1  0  0  0  0
 22 21  1  0  0  0  0
 23 28  2  0  0  0  0
 24  2  1  0  0  0  0
 25  5  2  0  0  0  0
 27  5  1  0  0  0  0
 27 14  2  0  0  0  0
 28  9  1  0  0  0  0
 29 30  1  0  0  0  0
 29 20  1  0  0  0  0
 30 31  1  0  0  0  0
 32 30  1  0  0  0  0
M  END
>  <MODEL>
5

>  <REMARK>
 VINA RESULT:      -9.5      2.932      5.711
  Name = 
  2 active torsions:
  status: ('A' for Active; 'I' for Inactive)
    1  A    between atoms: C_20  and  C_29
    2  A    between atoms: C_29  and  C_30
                            x       y       z     vdW  Elec       q    Type
                         _______ _______ _______ _____ _____    ______ ____

>  <TORSDO>
F 2

$$$$
=
 OpenBabel11122410423D

 32 38  0  0  1  0  0  0  0  0999 V2000
  181.1600  179.3290  139.7320 C   0  0  1  0  0  3  0  0  0  0  0  0
  185.6740  178.2710  142.2880 C   0  0  0  0  0  0  0  0  0  0  0  0
  184.4180  178.1580  146.9370 O   0  0  0  0  0  0  0  0  0  0  0  0
  185.6140  178.7650  147.3500 C   0  0  0  0  0  2  0  0  0  0  0  0
  188.0980  177.8030  141.6300 C   0  0  0  0  0  0  0  0  0  0  0  0
  189.4760  177.6590  142.0840 C   0  0  0  0  0  0  0  0  0  0  0  0
  183.8030  178.1550  140.5850 C   0  0  1  0  0  3  0  0  0  0  0  0
  183.2340  178.6580  142.9470 C   0  0  0  0  0  2  0  0  0  0  0  0
  191.1660  177.5140  143.4570 C   0  0  0  0  0  0  0  0  0  0  0  0
  181.4910  179.1610  141.2150 C   0  0  2  0  0  3  0  0  0  0  0  0
  184.0590  178.7830  145.7290 C   0  0  0  0  0  2  0  0  0  0  0  0
  184.7000  178.5040  143.2920 C   0  0  0  0  0  0  0  0  0  0  0  0
  185.0700  178.4910  144.6440 C   0  0  0  0  0  0  0  0  0  0  0  0
  187.3930  178.0660  144.0360 C   0  0  0  0  0  0  0  0  0  0  0  0
  191.6110  177.3890  142.1510 C   0  0  0  0  0  3  0  0  0  0  0  0
  182.4040  179.3840  138.8180 C   0  0  0  0  0  2  0  0  0  0  0  0
  183.0030  179.0820  141.5060 C   0  0  2  0  0  3  0  0  0  0  0  0
  190.5590  177.4780  141.3020 N   0  0  0  0  0  0  0  0  0  0  0  0
  183.4830  178.3310  139.0990 C   0  0  0  0  0  2  0  0  0  0  0  0
  180.9440  177.9840  140.4150 C   0  0  1  0  0  3  0  0  0  0  0  0
  186.7680  178.2580  146.4850 C   0  0  0  0  0  2  0  0  0  0  0  0
  186.4110  178.2970  145.0150 C   0  0  0  0  0  0  0  0  0  0  0  0
  188.8210  177.8290  144.5140 C   0  0  0  0  0  3  0  0  0  0  0  0
  185.2840  178.3880  140.8290 C   0  0  0  0  0  2  0  0  0  0  0  0
  187.8460  177.7040  140.3990 O   0  0  0  0  0  0  0  0  0  0  0  0
  192.0100  177.4550  144.6800 C   0  0  0  0  0  1  0  0  0  0  0  0
  187.0310  178.0490  142.6530 C   0  0  0  0  0  0  0  0  0  0  0  0
  189.8060  177.6880  143.4010 C   0  0  0  0  0  0  0  0  0  0  0  0
  179.4710  177.8120  140.7270 C   0  0  0  0  0  2  0  0  0  0  0  0
  178.9310  176.5670  140.0470 C   0  0  1  0  0  3  0  0  0  0  0  0
  179.4720  176.4530  138.7660 O   0  0  0  0  0  1  0  0  0  0  0  0
  179.3090  175.3490  140.8610 C   0  0  0  0  0  1  0  0  0  0  0  0
  1 16  1  6  0  0  0
  1 20  1  0  0  0  0
  1 10  1  0  0  0  0
  2 27  2  0  0  0  0
  2 12  1  0  0  0  0
  3  4  1  0  0  0  0
  5  6  1  0  0  0  0
  5 27  1  0  0  0  0
  6 28  1  0  0  0  0
  7 19  1  6  0  0  0
  7 24  1  0  0  0  0
  7 17  1  0  0  0  0
  8 12  1  0  0  0  0
  9 26  1  0  0  0  0
 10 17  1  0  0  0  0
 11  3  1  0  0  0  0
 12 13  2  0  0  0  0
 13 22  1  0  0  0  0
 13 11  1  0  0  0  0
 14 23  1  0  0  0  0
 14 22  2  0  0  0  0
 15  9  2  0  0  0  0
 16 19  1  0  0  0  0
 17  8  1  0  0  0  0
 18  6  2  0  0  0  0
 18 15  1  0  0  0  0
 20 29  1  0  0  0  0
 20 10  1  0  0  0  0
 21  4  1  0  0  0  0
 22 21  1  0  0  0  0
 24  2  1  0  0  0  0
 25  5  2  0  0  0  0
 27 14  1  0  0  0  0
 28  9  1  0  0  0  0
 28 23  2  0  0  0  0
 30 29  1  0  0  0  0
 30 32  1  0  0  0  0
 31 30  1  0  0  0  0
M  END
>  <MODEL>
6

>  <REMARK>
 VINA RESULT:      -9.4      2.167      4.497
  Name = 
  2 active torsions:
  status: ('A' for Active; 'I' for Inactive)
    1  A    between atoms: C_20  and  C_29
    2  A    between atoms: C_29  and  C_30
                            x       y       z     vdW  Elec       q    Type
                         _______ _______ _______ _____ _____    ______ ____

>  <TORSDO>
F 2

$$$$
=
 OpenBabel11122410423D

 32 38  0  0  1  0  0  0  0  0999 V2000
  187.1870  178.5560  147.0870 C   0  0  1  0  0  3  0  0  0  0  0  0
  184.9530  178.4700  142.2880 C   0  0  0  0  0  0  0  0  0  0  0  0
  188.5770  177.3990  139.3000 O   0  0  0  0  0  0  0  0  0  0  0  0
  188.0990  178.2550  138.2950 C   0  0  0  0  0  2  0  0  0  0  0  0
  182.6000  178.7860  141.3440 C   0  0  0  0  0  0  0  0  0  0  0  0
  181.7820  178.9730  140.1520 C   0  0  0  0  0  0  0  0  0  0  0  0
  185.3360  178.0630  144.7570 C   0  0  1  0  0  3  0  0  0  0  0  0
  187.2950  178.0710  143.2330 C   0  0  0  0  0  2  0  0  0  0  0  0
  181.2630  179.1250  138.0370 C   0  0  0  0  0  0  0  0  0  0  0  0
  187.7520  178.2930  145.6900 C   0  0  2  0  0  3  0  0  0  0  0  0
  188.3320  178.0530  140.5210 C   0  0  0  0  0  2  0  0  0  0  0  0
  186.3440  178.2880  142.0760 C   0  0  0  0  0  0  0  0  0  0  0  0
  186.8490  178.2000  140.7720 C   0  0  0  0  0  0  0  0  0  0  0  0
  184.6140  178.5230  139.8510 C   0  0  0  0  0  0  0  0  0  0  0  0
  180.1290  179.3020  138.8120 C   0  0  0  0  0  3  0  0  0  0  0  0
  185.7330  179.0750  147.0830 C   0  0  0  0  0  2  0  0  0  0  0  0
  186.7560  178.6000  144.5530 C   0  0  2  0  0  3  0  0  0  0  0  0
  180.4540  179.2060  140.1240 N   0  0  0  0  0  2  0  0  0  0  0  0
  184.7640  178.3380  146.1500 C   0  0  0  0  0  2  0  0  0  0  0  0
  187.3420  177.1270  146.5820 C   0  0  1  0  0  3  0  0  0  0  0  0
  186.5710  178.2090  138.2710 C   0  0  0  0  0  2  0  0  0  0  0  0
  185.9950  178.3400  139.6640 C   0  0  0  0  0  0  0  0  0  0  0  0
  183.7430  178.6320  138.6040 C   0  0  0  0  0  2  0  0  0  0  0  0
  184.4320  178.6650  143.6950 C   0  0  0  0  0  2  0  0  0  0  0  0
  182.0430  178.7850  142.4750 O   0  0  0  0  0  0  0  0  0  0  0  0
  181.3220  179.1430  136.5510 C   0  0  0  0  0  1  0  0  0  0  0  0
  184.0760  178.5880  141.1740 C   0  0  0  0  0  0  0  0  0  0  0  0
  182.3100  178.9190  138.9020 C   0  0  0  0  0  0  0  0  0  0  0  0
  188.5840  176.5120  147.1970 C   0  0  0  0  0  2  0  0  0  0  0  0
  189.7460  177.4860  147.1210 C   0  0  1  0  0  3  0  0  0  0  0  0
  190.1560  177.8370  148.4080 O   0  0  0  0  0  1  0  0  0  0  0  0
  190.8990  176.8330  146.3890 C   0  0  0  0  0  1  0  0  0  0  0  0
  1 16  1  6  0  0  0
  2 24  1  0  0  0  0
  3 11  1  0  0  0  0
  4  3  1  0  0  0  0
  5 25  2  0  0  0  0
  6  5  1  0  0  0  0
  7 24  1  6  0  0  0
  7 19  1  0  0  0  0
  8 17  1  0  0  0  0
  9 15  2  0  0  0  0
  9 28  1  0  0  0  0
 10 20  1  0  0  0  0
 10  1  1  0  0  0  0
 11 13  1  0  0  0  0
 12  2  1  0  0  0  0
 12  8  1  0  0  0  0
 13 12  2  0  0  0  0
 14 27  1  0  0  0  0
 15 18  1  0  0  0  0
 17  7  1  0  0  0  0
 17 10  1  0  0  0  0
 18  6  1  0  0  0  0
 19 16  1  0  0  0  0
 20  1  1  0  0  0  0
 20 29  1  0  0  0  0
 21  4  1  0  0  0  0
 21 22  1  0  0  0  0
 22 14  2  0  0  0  0
 22 13  1  0  0  0  0
 23 28  1  0  0  0  0
 23 14  1  0  0  0  0
 26  9  1  0  0  0  0
 27  5  1  0  0  0  0
 27  2  2  0  0  0  0
 28  6  2  0  0  0  0
 30 29  1  0  0  0  0
 30 31  1  0  0  0  0
 32 30  1  0  0  0  0
M  END
>  <MODEL>
7

>  <REMARK>
 VINA RESULT:      -9.0      2.649      7.954
  Name = 
  2 active torsions:
  status: ('A' for Active; 'I' for Inactive)
    1  A    between atoms: C_20  and  C_29
    2  A    between atoms: C_29  and  C_30
                            x       y       z     vdW  Elec       q    Type
                         _______ _______ _______ _____ _____    ______ ____

>  <TORSDO>
F 2

$$$$
=
 OpenBabel11122410423D

 32 38  0  0  1  0  0  0  0  0999 V2000
  190.2070  177.8960  146.0350 C   0  0  1  0  0  3  0  0  0  0  0  0
  185.7310  178.2940  143.2360 C   0  0  0  0  0  0  0  0  0  0  0  0
  187.1490  177.8920  138.6500 O   0  0  0  0  0  0  0  0  0  0  0  0
  186.2140  178.8380  138.2010 C   0  0  0  0  0  2  0  0  0  0  0  0
  183.2450  178.5650  143.7630 C   0  0  0  0  0  0  0  0  0  0  0  0
  181.9150  178.8510  143.2390 C   0  0  0  0  0  0  0  0  0  0  0  0
  187.3840  177.5880  145.0190 C   0  0  1  0  0  3  0  0  0  0  0  0
  188.2070  177.9400  142.7050 C   0  0  0  0  0  2  0  0  0  0  0  0
  180.3370  179.2470  141.7850 C   0  0  0  0  0  0  0  0  0  0  0  0
  189.9230  177.8630  144.5330 C   0  0  2  0  0  3  0  0  0  0  0  0
  187.6120  178.3580  139.8930 C   0  0  0  0  0  2  0  0  0  0  0  0
  186.7840  178.2410  142.2870 C   0  0  0  0  0  0  0  0  0  0  0  0
  186.5020  178.3640  140.9200 C   0  0  0  0  0  0  0  0  0  0  0  0
  184.1280  178.6480  141.4020 C   0  0  0  0  0  0  0  0  0  0  0  0
  179.8050  179.2380  143.0630 C   0  0  0  0  0  3  0  0  0  0  0  0
  188.9880  178.3070  146.8910 C   0  0  0  0  0  2  0  0  0  0  0  0
  188.4740  178.2480  144.1690 C   0  0  2  0  0  3  0  0  0  0  0  0
  180.7870  178.9910  143.9630 N   0  0  0  0  0  2  0  0  0  0  0  0
  187.6600  177.6330  146.5240 C   0  0  0  0  0  2  0  0  0  0  0  0
  190.0460  176.5620  145.3180 C   0  0  1  0  0  3  0  0  0  0  0  0
  184.9160  178.6870  138.9930 C   0  0  0  0  0  2  0  0  0  0  0  0
  185.1870  178.5900  140.4790 C   0  0  0  0  0  0  0  0  0  0  0  0
  182.7230  178.8600  140.8500 C   0  0  0  0  0  2  0  0  0  0  0  0
  186.0570  178.2620  144.7140 C   0  0  0  0  0  2  0  0  0  0  0  0
  183.3880  178.3730  145.0000 O   0  0  0  0  0  0  0  0  0  0  0  0
  179.5830  179.4670  140.5220 C   0  0  0  0  0  1  0  0  0  0  0  0
  184.3920  178.4970  142.7990 C   0  0  0  0  0  0  0  0  0  0  0  0
  181.6820  179.0030  141.9100 C   0  0  0  0  0  0  0  0  0  0  0  0
  191.4150  175.9600  145.0690 C   0  0  0  0  0  2  0  0  0  0  0  0
  191.5850  175.6280  143.5980 C   0  0  1  0  0  3  0  0  0  0  0  0
  190.3870  175.1310  143.0820 O   0  0  0  0  0  1  0  0  0  0  0  0
  191.9730  176.8820  142.8430 C   0  0  0  0  0  1  0  0  0  0  0  0
  1 16  1  1  0  0  0
  2 24  1  0  0  0  0
  3 11  1  0  0  0  0
  4  3  1  0  0  0  0
  4 21  1  0  0  0  0
  5 25  2  0  0  0  0
  6  5  1  0  0  0  0
  6 18  1  0  0  0  0
  7 24  1  1  0  0  0
  7 19  1  0  0  0  0
  8 17  1  0  0  0  0
  9 28  1  0  0  0  0
  9 15  2  0  0  0  0
 10 20  1  0  0  0  0
 10  1  1  0  0  0  0
 11 13  1  0  0  0  0
 12  8  1  0  0  0  0
 12  2  2  0  0  0  0
 13 12  1  0  0  0  0
 14 27  2  0  0  0  0
 15 18  1  0  0  0  0
 17 10  1  0  0  0  0
 17  7  1  0  0  0  0
 19 16  1  0  0  0  0
 20  1  1  0  0  0  0
 21 22  1  0  0  0  0
 22 13  2  0  0  0  0
 22 14  1  0  0  0  0
 23 14  1  0  0  0  0
 23 28  1  0  0  0  0
 26  9  1  0  0  0  0
 27  2  1  0  0  0  0
 27  5  1  0  0  0  0
 28  6  2  0  0  0  0
 29 20  1  0  0  0  0
 30 29  1  0  0  0  0
 31 30  1  0  0  0  0
 32 30  1  0  0  0  0
M  END
>  <MODEL>
8

>  <REMARK>
 VINA RESULT:      -8.7      2.257      7.715
  Name = 
  2 active torsions:
  status: ('A' for Active; 'I' for Inactive)
    1  A    between atoms: C_20  and  C_29
    2  A    between atoms: C_29  and  C_30
                            x       y       z     vdW  Elec       q    Type
                         _______ _______ _______ _____ _____    ______ ____

>  <TORSDO>
F 2

$$$$
=
 OpenBabel11122410423D

 32 38  0  0  1  0  0  0  0  0999 V2000
  190.0830  176.6400  146.6920 C   0  0  1  0  0  3  0  0  0  0  0  0
  188.2920  177.7620  141.8390 C   0  0  0  0  0  0  0  0  0  0  0  0
  183.7050  179.0650  142.5280 O   0  0  0  0  0  0  0  0  0  0  0  0
  183.2750  178.4440  141.3440 C   0  0  0  0  0  2  0  0  0  0  0  0
  189.2690  177.8070  139.4780 C   0  0  0  0  0  0  0  0  0  0  0  0
  188.9940  177.9020  138.0490 C   0  0  0  0  0  0  0  0  0  0  0  0
  189.7880  177.6880  143.8800 C   0  0  1  0  0  3  0  0  0  0  0  0
  187.3310  177.7990  144.2080 C   0  0  0  0  0  2  0  0  0  0  0  0
  187.8620  178.1740  136.2030 C   0  0  0  0  0  0  0  0  0  0  0  0
  188.7210  177.1040  146.1770 C   0  0  2  0  0  3  0  0  0  0  0  0
  184.6900  178.2230  143.0750 C   0  0  0  0  0  2  0  0  0  0  0  0
  187.1730  177.8700  142.7040 C   0  0  0  0  0  0  0  0  0  0  0  0
  185.9050  178.1510  142.1780 C   0  0  0  0  0  0  0  0  0  0  0  0
  186.8130  178.1750  139.9150 C   0  0  0  0  0  0  0  0  0  0  0  0
  189.1960  177.9500  135.9070 C   0  0  0  0  0  3  0  0  0  0  0  0
  191.0710  176.2460  145.5730 C   0  0  0  0  0  2  0  0  0  0  0  0
  188.6020  177.0860  144.6390 C   0  0  2  0  0  3  0  0  0  0  0  0
  189.8960  177.7830  137.0540 N   0  0  0  0  0  0  0  0  0  0  0  0
  191.1530  177.2130  144.3850 C   0  0  0  0  0  2  0  0  0  0  0  0
  189.7220  178.1200  146.7150 C   0  0  1  0  0  3  0  0  0  0  0  0
  184.3410  178.6130  140.2620 C   0  0  0  0  0  2  0  0  0  0  0  0
  185.7190  178.2800  140.7910 C   0  0  0  0  0  0  0  0  0  0  0  0
  186.5430  178.3600  138.4260 C   0  0  0  0  0  3  0  0  0  0  0  0
  189.6370  177.3590  142.4040 C   0  0  0  0  0  2  0  0  0  0  0  0
  190.4580  177.6490  139.8630 O   0  0  0  0  0  0  0  0  0  0  0  0
  186.7740  178.4190  135.2200 C   0  0  0  0  0  1  0  0  0  0  0  0
  188.1200  177.9160  140.4340 C   0  0  0  0  0  0  0  0  0  0  0  0
  187.7460  178.1380  137.5710 C   0  0  0  0  0  0  0  0  0  0  0  0
  189.3210  178.5150  148.1230 C   0  0  0  0  0  2  0  0  0  0  0  0
  187.9200  178.0180  148.4300 C   0  0  1  0  0  3  0  0  0  0  0  0
  187.7660  177.8520  149.8070 O   0  0  0  0  0  1  0  0  0  0  0  0
  186.9100  179.0300  147.9310 C   0  0  0  0  0  1  0  0  0  0  0  0
  1 16  1  6  0  0  0
  1 20  1  0  0  0  0
  2 24  1  0  0  0  0
  2 12  1  0  0  0  0
  3 11  1  0  0  0  0
  4  3  1  0  0  0  0
  5 25  2  0  0  0  0
  5 27  1  0  0  0  0
  6  5  1  0  0  0  0
  7 24  1  6  0  0  0
  7 19  1  0  0  0  0
  7 17  1  0  0  0  0
  8 17  1  0  0  0  0
  9 28  1  0  0  0  0
 10  1  1  0  0  0  0
 10 20  1  0  0  0  0
 12  8  1  0  0  0  0
 13 12  2  0  0  0  0
 13 11  1  0  0  0  0
 14 27  1  0  0  0  0
 14 22  2  0  0  0  0
 15  9  2  0  0  0  0
 15 18  1  0  0  0  0
 17 10  1  0  0  0  0
 18  6  2  0  0  0  0
 19 16  1  0  0  0  0
 20 29  1  0  0  0  0
 21 22  1  0  0  0  0
 21  4  1  0  0  0  0
 22 13  1  0  0  0  0
 23 14  1  0  0  0  0
 26  9  1  0  0  0  0
 27  2  2  0  0  0  0
 28  6  1  0  0  0  0
 28 23  2  0  0  0  0
 29 30  1  0  0  0  0
 30 31  1  0  0  0  0
 32 30  1  0  0  0  0
M  END
>  <MODEL>
9

>  <REMARK>
 VINA RESULT:      -8.7      3.185      8.729
  Name = 
  2 active torsions:
  status: ('A' for Active; 'I' for Inactive)
    1  A    between atoms: C_20  and  C_29
    2  A    between atoms: C_29  and  C_30
                            x       y       z     vdW  Elec       q    Type
                         _______ _______ _______ _____ _____    ______ ____

>  <TORSDO>
F 2

$$$$
