=
 OpenBabel11122410263D

 30 35  0  0  1  0  0  0  0  0999 V2000
  187.7350  177.6600  143.5630 C   0  0  0  0  0  0  0  0  0  0  0  0
  185.4970  178.1240  144.5660 C   0  0  0  0  0  0  0  0  0  0  0  0
  186.3720  178.6990  139.7330 N   0  0  0  0  0  0  0  0  0  0  0  0
  188.5680  177.6330  142.4180 C   0  0  0  0  0  0  0  0  0  0  0  0
  188.3230  177.1570  144.8540 C   0  0  0  0  0  2  0  0  0  0  0  0
  191.1280  178.9850  143.6180 O   0  0  0  0  0  1  0  0  0  0  0  0
  190.3060  176.0990  140.2630 C   0  0  1  0  0  3  0  0  0  0  0  0
  190.6630  177.6900  143.8500 C   0  0  1  0  0  3  0  0  0  0  0  0
  189.1470  176.6620  139.4220 C   0  0  2  0  0  3  0  0  0  0  0  0
  187.4410  178.5010  139.0280 C   0  0  0  0  0  0  0  0  0  0  0  0
  189.7370  177.7150  145.0820 C   0  0  2  0  0  3  0  0  0  0  0  0
  189.9800  177.1200  142.5920 C   0  0  2  0  0  3  0  0  0  0  0  0
  184.1700  178.5300  144.3990 C   0  0  0  0  0  3  0  0  0  0  0  0
  189.7090  176.6650  138.0350 C   0  0  0  0  0  2  0  0  0  0  0  0
  191.3370  175.6560  139.4120 O   0  0  0  0  0  0  0  0  0  0  0  0
  185.9040  177.7970  145.8180 F   0  0  0  0  0  0  0  0  0  0  0  0
  186.7130  178.3930  141.0740 C   0  0  0  0  0  0  0  0  0  0  0  0
  183.6880  178.8870  143.1410 C   0  0  0  0  0  3  0  0  0  0  0  0
  186.3730  178.0720  143.4550 C   0  0  0  0  0  0  0  0  0  0  0  0
  188.0210  178.0080  141.1860 C   0  0  0  0  0  0  0  0  0  0  0  0
  187.4740  178.7990  137.5700 C   0  0  0  0  0  1  0  0  0  0  0  0
  188.6440  178.0560  139.8330 C   0  0  1  0  0  3  0  0  0  0  0  0
  190.8010  175.6330  138.1150 C   0  0  0  0  0  2  0  0  0  0  0  0
  191.4300  178.3330  140.8310 C   0  0  0  0  0  1  0  0  0  0  0  0
  184.5310  178.8440  142.0320 C   0  0  0  0  0  3  0  0  0  0  0  0
  185.8630  178.4430  142.1770 C   0  0  0  0  0  0  0  0  0  0  0  0
  190.8910  177.0060  141.3570 C   0  0  2  0  0  3  0  0  0  0  0  0
  190.4000  177.0770  146.2980 C   0  0  0  0  0  2  0  0  0  0  0  0
  192.2340  175.6400  147.1430 C   0  0  0  0  0  1  0  0  0  0  0  0
  191.7070  176.3850  145.9360 C   0  0  0  0  0  2  0  0  0  0  0  0
  1  5  1  0  0  0  0
  2 16  1  0  0  0  0
  3 17  1  0  0  0  0
  4  1  2  0  0  0  0
  5 11  1  0  0  0  0
  7 15  1  6  0  0  0
  7 27  1  0  0  0  0
  8  6  1  6  0  0  0
  8 11  1  0  0  0  0
  9 14  1  6  0  0  0
  9 22  1  0  0  0  0
  9  7  1  0  0  0  0
 10  3  2  0  0  0  0
 11 28  1  1  0  0  0
 12  4  1  6  0  0  0
 12  8  1  0  0  0  0
 13  2  1  0  0  0  0
 14 23  1  0  0  0  0
 17 20  2  0  0  0  0
 17 26  1  0  0  0  0
 18 13  2  0  0  0  0
 19  1  1  0  0  0  0
 19  2  2  0  0  0  0
 20  4  1  0  0  0  0
 21 10  1  0  0  0  0
 22 10  1  6  0  0  0
 22 20  1  0  0  0  0
 23 15  1  0  0  0  0
 25 26  2  0  0  0  0
 25 18  1  0  0  0  0
 26 19  1  0  0  0  0
 27 24  1  6  0  0  0
 27 12  1  0  0  0  0
 30 28  1  0  0  0  0
 30 29  1  0  0  0  0
M  END
>  <MODEL>
1

>  <REMARK>
 VINA RESULT:      -8.9      0.000      0.000
  Name = 
  2 active torsions:
  status: ('A' for Active; 'I' for Inactive)
    1  A    between atoms: C_11  and  C_28
    2  A    between atoms: C_28  and  C_30
                            x       y       z     vdW  Elec       q    Type
                         _______ _______ _______ _____ _____    ______ ____

>  <TORSDO>
F 2

$$$$
=
 OpenBabel11122410263D

 30 35  0  0  1  0  0  0  0  0999 V2000
  188.4840  177.2640  142.7300 C   0  0  0  0  0  0  0  0  0  0  0  0
  186.4640  177.8730  144.0650 C   0  0  0  0  0  0  0  0  0  0  0  0
  186.7230  178.6710  139.1910 N   0  0  0  0  0  0  0  0  0  0  0  0
  189.1440  177.2320  141.4780 C   0  0  0  0  0  0  0  0  0  0  0  0
  189.1890  176.6260  143.8970 C   0  0  0  0  0  2  0  0  0  0  0  0
  191.9710  178.2560  142.3670 O   0  0  0  0  0  1  0  0  0  0  0  0
  190.4040  175.6820  139.0220 C   0  0  1  0  0  3  0  0  0  0  0  0
  191.4110  176.9980  142.5970 C   0  0  1  0  0  3  0  0  0  0  0  0
  189.2050  176.4050  138.3850 C   0  0  2  0  0  3  0  0  0  0  0  0
  187.6590  178.4180  138.3320 C   0  0  0  0  0  0  0  0  0  0  0  0
  190.6700  177.0320  143.9490 C   0  0  2  0  0  3  0  0  0  0  0  0
  190.5070  176.5780  141.4230 C   0  0  2  0  0  3  0  0  0  0  0  0
  185.1750  178.4120  144.1090 C   0  0  0  0  0  3  0  0  0  0  0  0
  189.5690  176.4430  136.9340 C   0  0  0  0  0  2  0  0  0  0  0  0
  191.2570  175.1980  138.0120 O   0  0  0  0  0  0  0  0  0  0  0  0
  187.0030  177.4290  145.2280 F   0  0  0  0  0  0  0  0  0  0  0  0
  187.2110  178.2480  140.4520 C   0  0  0  0  0  0  0  0  0  0  0  0
  184.5640  178.8930  142.9520 C   0  0  0  0  0  3  0  0  0  0  0  0
  187.1700  177.8090  142.8380 C   0  0  0  0  0  0  0  0  0  0  0  0
  188.4760  177.7350  140.3570 C   0  0  0  0  0  0  0  0  0  0  0  0
  187.5220  178.8050  136.9010 C   0  0  0  0  0  1  0  0  0  0  0  0
  188.9090  177.8100  138.9330 C   0  0  1  0  0  3  0  0  0  0  0  0
  190.5500  175.3100  136.8060 C   0  0  0  0  0  2  0  0  0  0  0  0
  191.8190  177.7580  139.5350 C   0  0  0  0  0  1  0  0  0  0  0  0
  185.2390  178.8420  141.7330 C   0  0  0  0  0  3  0  0  0  0  0  0
  186.5300  178.3080  141.6670 C   0  0  0  0  0  0  0  0  0  0  0  0
  191.2230  176.4570  140.0660 C   0  0  2  0  0  3  0  0  0  0  0  0
  191.4250  176.2570  145.0240 C   0  0  0  0  0  2  0  0  0  0  0  0
  191.9550  176.0350  147.4340 C   0  0  0  0  0  1  0  0  0  0  0  0
  191.0790  176.7430  146.4240 C   0  0  0  0  0  2  0  0  0  0  0  0
  1 19  1  0  0  0  0
  1  5  1  0  0  0  0
  2 13  1  0  0  0  0
  2 16  1  0  0  0  0
  3 17  1  0  0  0  0
  4  1  2  0  0  0  0
  5 11  1  0  0  0  0
  7 15  1  6  0  0  0
  7 27  1  0  0  0  0
  8  6  1  6  0  0  0
  8 11  1  0  0  0  0
  9 14  1  6  0  0  0
  9 22  1  0  0  0  0
  9  7  1  0  0  0  0
 10  3  2  0  0  0  0
 11 28  1  1  0  0  0
 12  4  1  6  0  0  0
 12  8  1  0  0  0  0
 17 26  1  0  0  0  0
 18 13  2  0  0  0  0
 19  2  2  0  0  0  0
 20 17  2  0  0  0  0
 20  4  1  0  0  0  0
 21 10  1  0  0  0  0
 22 10  1  6  0  0  0
 22 20  1  0  0  0  0
 23 14  1  0  0  0  0
 23 15  1  0  0  0  0
 25 18  1  0  0  0  0
 26 25  2  0  0  0  0
 26 19  1  0  0  0  0
 27 24  1  6  0  0  0
 27 12  1  0  0  0  0
 28 30  1  0  0  0  0
 30 29  1  0  0  0  0
M  END
>  <MODEL>
2

>  <REMARK>
 VINA RESULT:      -8.8      0.995      1.195
  Name = 
  2 active torsions:
  status: ('A' for Active; 'I' for Inactive)
    1  A    between atoms: C_11  and  C_28
    2  A    between atoms: C_28  and  C_30
                            x       y       z     vdW  Elec       q    Type
                         _______ _______ _______ _____ _____    ______ ____

>  <TORSDO>
F 2

$$$$
=
 OpenBabel11122410263D

 30 35  0  0  1  0  0  0  0  0999 V2000
  184.9020  178.2450  142.2980 C   0  0  0  0  0  0  0  0  0  0  0  0
  186.1910  178.2540  144.4360 C   0  0  0  0  0  0  0  0  0  0  0  0
  181.2990  178.9700  144.3210 N   0  0  0  0  0  0  0  0  0  0  0  0
  183.6610  178.3810  141.6310 C   0  0  0  0  0  0  0  0  0  0  0  0
  186.0980  177.8780  141.4600 C   0  0  0  0  0  2  0  0  0  0  0  0
  184.5560  180.2270  139.2610 O   0  0  0  0  0  1  0  0  0  0  0  0
  181.2710  177.2180  139.9110 C   0  0  1  0  0  3  0  0  0  0  0  0
  184.8170  178.8660  139.4240 C   0  0  1  0  0  3  0  0  0  0  0  0
  180.5960  177.5320  141.2580 C   0  0  2  0  0  3  0  0  0  0  0  0
  180.4610  178.9880  143.3340 C   0  0  0  0  0  0  0  0  0  0  0  0
  186.1570  178.7100  140.1700 C   0  0  2  0  0  3  0  0  0  0  0  0
  183.6440  178.1640  140.1340 C   0  0  2  0  0  3  0  0  0  0  0  0
  186.2010  178.3820  145.8280 C   0  0  0  0  0  3  0  0  0  0  0  0
  179.1490  177.6410  140.8900 C   0  0  0  0  0  2  0  0  0  0  0  0
  180.2870  176.9880  138.9310 O   0  0  0  0  0  0  0  0  0  0  0  0
  187.3740  178.0210  143.8140 F   0  0  0  0  0  0  0  0  0  0  0  0
  182.5790  178.7440  143.7570 C   0  0  0  0  0  0  0  0  0  0  0  0
  185.0220  178.6290  146.5290 C   0  0  0  0  0  3  0  0  0  0  0  0
  184.9770  178.3730  143.7170 C   0  0  0  0  0  0  0  0  0  0  0  0
  182.5170  178.6320  142.3950 C   0  0  0  0  0  0  0  0  0  0  0  0
  179.0170  179.2790  143.5490 C   0  0  0  0  0  1  0  0  0  0  0  0
  181.0960  178.7980  141.9730 C   0  0  1  0  0  3  0  0  0  0  0  0
  179.0690  176.8510  139.6130 C   0  0  0  0  0  2  0  0  0  0  0  0
  181.7390  179.6360  139.1950 C   0  0  0  0  0  1  0  0  0  0  0  0
  183.8150  178.7520  145.8430 C   0  0  0  0  0  3  0  0  0  0  0  0
  183.7820  178.6280  144.4510 C   0  0  0  0  0  0  0  0  0  0  0  0
  182.3020  178.2300  139.3850 C   0  0  2  0  0  3  0  0  0  0  0  0
  187.2650  178.2250  139.2410 C   0  0  0  0  0  2  0  0  0  0  0  0
  189.7110  177.8770  139.0400 C   0  0  0  0  0  1  0  0  0  0  0  0
  188.5420  177.8990  140.0020 C   0  0  0  0  0  2  0  0  0  0  0  0
  1 19  1  0  0  0  0
  2 13  1  0  0  0  0
  4  1  2  0  0  0  0
  4 20  1  0  0  0  0
  5  1  1  0  0  0  0
  7 15  1  6  0  0  0
  7  9  1  0  0  0  0
  8  6  1  1  0  0  0
  8 12  1  0  0  0  0
  8 11  1  0  0  0  0
  9 14  1  6  0  0  0
  9 22  1  0  0  0  0
 10 21  1  0  0  0  0
 10  3  2  0  0  0  0
 11 28  1  6  0  0  0
 11  5  1  0  0  0  0
 12  4  1  1  0  0  0
 13 18  2  0  0  0  0
 15 23  1  0  0  0  0
 16  2  1  0  0  0  0
 17  3  1  0  0  0  0
 17 26  1  0  0  0  0
 19  2  2  0  0  0  0
 19 26  1  0  0  0  0
 20 17  2  0  0  0  0
 22 20  1  1  0  0  0
 22 10  1  0  0  0  0
 23 14  1  0  0  0  0
 25 18  1  0  0  0  0
 26 25  2  0  0  0  0
 27 24  1  1  0  0  0
 27  7  1  0  0  0  0
 27 12  1  0  0  0  0
 28 30  1  0  0  0  0
 29 30  1  0  0  0  0
M  END
>  <MODEL>
3

>  <REMARK>
 VINA RESULT:      -8.7      3.827      7.209
  Name = 
  2 active torsions:
  status: ('A' for Active; 'I' for Inactive)
    1  A    between atoms: C_11  and  C_28
    2  A    between atoms: C_28  and  C_30
                            x       y       z     vdW  Elec       q    Type
                         _______ _______ _______ _____ _____    ______ ____

>  <TORSDO>
F 2

$$$$
=
 OpenBabel11122410263D

 30 35  0  0  1  0  0  0  0  0999 V2000
  189.4510  176.8930  143.6820 C   0  0  0  0  0  0  0  0  0  0  0  0
  191.4010  175.9320  144.9080 C   0  0  0  0  0  0  0  0  0  0  0  0
  187.7160  178.2520  147.2510 N   0  0  0  0  0  0  0  0  0  0  0  0
  188.2250  177.6000  143.7190 C   0  0  0  0  0  0  0  0  0  0  0  0
  189.9030  176.3680  142.3450 C   0  0  0  0  0  2  0  0  0  0  0  0
  188.7010  179.5710  141.3280 O   0  0  0  0  0  1  0  0  0  0  0  0
  185.0890  177.7780  143.3290 C   0  0  1  0  0  3  0  0  0  0  0  0
  188.4150  178.2060  141.2610 C   0  0  1  0  0  3  0  0  0  0  0  0
  185.2500  177.9520  144.8490 C   0  0  2  0  0  3  0  0  0  0  0  0
  186.6290  178.7980  146.8060 C   0  0  0  0  0  0  0  0  0  0  0  0
  189.7460  177.4270  141.2430 C   0  0  2  0  0  3  0  0  0  0  0  0
  187.4840  177.7840  142.4130 C   0  0  2  0  0  3  0  0  0  0  0  0
  192.0560  175.6960  146.1210 C   0  0  0  0  0  3  0  0  0  0  0  0
  183.9750  178.6280  145.2460 C   0  0  0  0  0  2  0  0  0  0  0  0
  183.7840  178.1440  142.9460 O   0  0  0  0  0  0  0  0  0  0  0  0
  191.9910  175.4800  143.7740 F   0  0  0  0  0  0  0  0  0  0  0  0
  188.4110  177.7600  146.1200 C   0  0  0  0  0  0  0  0  0  0  0  0
  191.5080  176.1390  147.3240 C   0  0  0  0  0  3  0  0  0  0  0  0
  190.1680  176.6280  144.8860 C   0  0  0  0  0  0  0  0  0  0  0  0
  187.7340  178.0210  144.9600 C   0  0  0  0  0  0  0  0  0  0  0  0
  185.6800  179.4930  147.7180 C   0  0  0  0  0  1  0  0  0  0  0  0
  186.4810  178.7530  145.2990 C   0  0  1  0  0  3  0  0  0  0  0  0
  183.0390  178.2580  144.1280 C   0  0  0  0  0  2  0  0  0  0  0  0
  186.1620  179.9950  142.6180 C   0  0  0  0  0  1  0  0  0  0  0  0
  190.2970  176.8280  147.3270 C   0  0  0  0  0  3  0  0  0  0  0  0
  189.6260  177.0760  146.1260 C   0  0  0  0  0  0  0  0  0  0  0  0
  186.1130  178.4820  142.4250 C   0  0  2  0  0  3  0  0  0  0  0  0
  190.0410  176.8480  139.8640 C   0  0  0  0  0  2  0  0  0  0  0  0
  189.4320  177.8910  137.7000 C   0  0  0  0  0  1  0  0  0  0  0  0
  188.9060  177.1070  138.8830 C   0  0  0  0  0  2  0  0  0  0  0  0
  1  4  2  0  0  0  0
  1 19  1  0  0  0  0
  2 13  1  0  0  0  0
  4 20  1  0  0  0  0
  5  1  1  0  0  0  0
  7 15  1  6  0  0  0
  7  9  1  0  0  0  0
  8  6  1  1  0  0  0
  8 12  1  0  0  0  0
  9 14  1  6  0  0  0
  9 22  1  0  0  0  0
 10  3  2  0  0  0  0
 10 21  1  0  0  0  0
 11 28  1  6  0  0  0
 11  8  1  0  0  0  0
 11  5  1  0  0  0  0
 12 27  1  0  0  0  0
 12  4  1  1  0  0  0
 13 18  2  0  0  0  0
 15 23  1  0  0  0  0
 16  2  1  0  0  0  0
 17 26  1  0  0  0  0
 17  3  1  0  0  0  0
 18 25  1  0  0  0  0
 19  2  2  0  0  0  0
 19 26  1  0  0  0  0
 20 17  2  0  0  0  0
 22 20  1  6  0  0  0
 22 10  1  0  0  0  0
 23 14  1  0  0  0  0
 26 25  2  0  0  0  0
 27 24  1  1  0  0  0
 27  7  1  0  0  0  0
 29 30  1  0  0  0  0
 30 28  1  0  0  0  0
M  END
>  <MODEL>
4

>  <REMARK>
 VINA RESULT:      -8.2      2.686      6.685
  Name = 
  2 active torsions:
  status: ('A' for Active; 'I' for Inactive)
    1  A    between atoms: C_11  and  C_28
    2  A    between atoms: C_28  and  C_30
                            x       y       z     vdW  Elec       q    Type
                         _______ _______ _______ _____ _____    ______ ____

>  <TORSDO>
F 2

$$$$
=
 OpenBabel11122410263D

 30 35  0  0  1  0  0  0  0  0999 V2000
  185.9500  178.1860  142.7790 C   0  0  0  0  0  0  0  0  0  0  0  0
  185.7290  178.2990  140.2950 C   0  0  0  0  0  0  0  0  0  0  0  0
  190.1370  178.2900  142.5370 N   0  0  0  0  0  0  0  0  0  0  0  0
  186.7850  178.1640  143.9210 C   0  0  0  0  0  0  0  0  0  0  0  0
  184.4690  178.0330  143.0050 C   0  0  0  0  0  2  0  0  0  0  0  0
  185.2430  180.2160  145.7210 O   0  0  0  0  0  1  0  0  0  0  0  0
  187.9930  176.7320  146.4730 C   0  0  1  0  0  3  0  0  0  0  0  0
  184.8760  178.9020  145.4230 C   0  0  1  0  0  3  0  0  0  0  0  0
  189.2220  176.8890  145.5610 C   0  0  2  0  0  3  0  0  0  0  0  0
  190.4580  178.2240  143.7910 C   0  0  0  0  0  0  0  0  0  0  0  0
  183.9840  178.9160  144.1660 C   0  0  2  0  0  3  0  0  0  0  0  0
  186.1210  178.0080  145.2710 C   0  0  2  0  0  3  0  0  0  0  0  0
  186.3410  178.3720  139.0400 C   0  0  0  0  0  3  0  0  0  0  0  0
  190.3660  176.7980  146.5220 C   0  0  0  0  0  2  0  0  0  0  0  0
  188.4090  176.3980  147.7760 O   0  0  0  0  0  0  0  0  0  0  0  0
  184.3740  178.2690  140.3360 F   0  0  0  0  0  0  0  0  0  0  0  0
  188.7210  178.2790  142.4850 C   0  0  0  0  0  0  0  0  0  0  0  0
  187.7300  178.4140  138.9260 C   0  0  0  0  0  3  0  0  0  0  0  0
  186.5160  178.2670  141.4720 C   0  0  0  0  0  0  0  0  0  0  0  0
  188.1710  178.2130  143.7360 C   0  0  0  0  0  0  0  0  0  0  0  0
  191.8790  178.2900  144.2310 C   0  0  0  0  0  1  0  0  0  0  0  0
  189.2760  178.1850  144.7360 C   0  0  1  0  0  3  0  0  0  0  0  0
  189.7660  176.0560  147.6860 C   0  0  0  0  0  2  0  0  0  0  0  0
  187.6300  179.2190  146.9840 C   0  0  0  0  0  1  0  0  0  0  0  0
  188.5250  178.3850  140.0700 C   0  0  0  0  0  3  0  0  0  0  0  0
  187.9340  178.3130  141.3350 C   0  0  0  0  0  0  0  0  0  0  0  0
  187.0010  177.9050  146.5290 C   0  0  2  0  0  3  0  0  0  0  0  0
  182.5240  178.6370  144.5080 C   0  0  0  0  0  2  0  0  0  0  0  0
  180.1720  178.6290  143.7310 C   0  0  0  0  0  1  0  0  0  0  0  0
  181.5910  179.0070  143.3650 C   0  0  0  0  0  2  0  0  0  0  0  0
  1  5  1  0  0  0  0
  1  4  1  0  0  0  0
  2 16  1  0  0  0  0
  2 19  1  0  0  0  0
  3 10  2  0  0  0  0
  5 11  1  0  0  0  0
  7 27  1  0  0  0  0
  7 15  1  1  0  0  0
  8  6  1  6  0  0  0
  9  7  1  0  0  0  0
  9 14  1  1  0  0  0
 10 21  1  0  0  0  0
 10 22  1  0  0  0  0
 11 28  1  1  0  0  0
 11  8  1  0  0  0  0
 12  4  1  6  0  0  0
 12  8  1  0  0  0  0
 12 27  1  0  0  0  0
 13  2  2  0  0  0  0
 14 23  1  0  0  0  0
 17  3  1  0  0  0  0
 17 20  1  0  0  0  0
 18 13  1  0  0  0  0
 18 25  2  0  0  0  0
 19  1  2  0  0  0  0
 20  4  2  0  0  0  0
 22 20  1  6  0  0  0
 22  9  1  0  0  0  0
 23 15  1  0  0  0  0
 25 26  1  0  0  0  0
 26 19  1  0  0  0  0
 26 17  2  0  0  0  0
 27 24  1  6  0  0  0
 30 29  1  0  0  0  0
 30 28  1  0  0  0  0
M  END
>  <MODEL>
5

>  <REMARK>
 VINA RESULT:      -7.6      2.826      6.428
  Name = 
  2 active torsions:
  status: ('A' for Active; 'I' for Inactive)
    1  A    between atoms: C_11  and  C_28
    2  A    between atoms: C_28  and  C_30
                            x       y       z     vdW  Elec       q    Type
                         _______ _______ _______ _____ _____    ______ ____

>  <TORSDO>
F 2

$$$$
=
 OpenBabel11122410263D

 30 35  0  0  1  0  0  0  0  0999 V2000
  186.9520  177.9300  141.6590 C   0  0  0  0  0  0  0  0  0  0  0  0
  186.4040  178.2160  144.0790 C   0  0  0  0  0  0  0  0  0  0  0  0
  183.1370  179.2470  140.5120 N   0  0  0  0  0  0  0  0  0  0  0  0
  186.5510  178.0370  140.3060 C   0  0  0  0  0  0  0  0  0  0  0  0
  188.3100  177.3400  141.9320 C   0  0  0  0  0  2  0  0  0  0  0  0
  189.1230  179.3780  139.1180 O   0  0  0  0  0  1  0  0  0  0  0  0
  185.8330  176.7680  137.4960 C   0  0  1  0  0  3  0  0  0  0  0  0
  188.9630  178.0500  139.5160 C   0  0  1  0  0  3  0  0  0  0  0  0
  184.4870  177.3570  137.9540 C   0  0  2  0  0  3  0  0  0  0  0  0
  183.2210  179.1540  139.2230 C   0  0  0  0  0  0  0  0  0  0  0  0
  189.3770  177.9300  140.9970 C   0  0  2  0  0  3  0  0  0  0  0  0
  187.5260  177.5660  139.2490 C   0  0  2  0  0  3  0  0  0  0  0  0
  185.4820  178.5820  145.0630 C   0  0  0  0  0  3  0  0  0  0  0  0
  183.7310  177.5030  136.6710 C   0  0  0  0  0  2  0  0  0  0  0  0
  185.7670  176.4420  136.1280 O   0  0  0  0  0  0  0  0  0  0  0  0
  187.6290  177.7960  144.4850 F   0  0  0  0  0  0  0  0  0  0  0  0
  184.3920  178.8380  141.0270 C   0  0  0  0  0  0  0  0  0  0  0  0
  184.2080  179.0290  144.7150 C   0  0  0  0  0  3  0  0  0  0  0  0
  186.0560  178.2960  142.7080 C   0  0  0  0  0  0  0  0  0  0  0  0
  185.2600  178.4970  140.0260 C   0  0  0  0  0  0  0  0  0  0  0  0
  182.1000  179.5800  138.3410 C   0  0  0  0  0  1  0  0  0  0  0  0
  184.5700  178.6880  138.7180 C   0  0  1  0  0  3  0  0  0  0  0  0
  184.4130  176.5120  135.7670 C   0  0  0  0  0  2  0  0  0  0  0  0
  187.0700  178.9860  137.1380 C   0  0  0  0  0  1  0  0  0  0  0  0
  183.8430  179.1170  143.3730 C   0  0  0  0  0  3  0  0  0  0  0  0
  184.7500  178.7570  142.3720 C   0  0  0  0  0  0  0  0  0  0  0  0
  187.0970  177.5970  137.7720 C   0  0  2  0  0  3  0  0  0  0  0  0
  190.7140  177.2140  141.1520 C   0  0  0  0  0  2  0  0  0  0  0  0
  191.6800  177.7710  143.3650 C   0  0  0  0  0  1  0  0  0  0  0  0
  190.9330  176.7190  142.5740 C   0  0  0  0  0  2  0  0  0  0  0  0
  1  5  1  0  0  0  0
  1 19  1  0  0  0  0
  2 16  1  0  0  0  0
  2 13  1  0  0  0  0
  3 17  1  0  0  0  0
  4  1  2  0  0  0  0
  7 15  1  6  0  0  0
  7 27  1  0  0  0  0
  7  9  1  0  0  0  0
  8  6  1  1  0  0  0
  8 11  1  0  0  0  0
  9 14  1  6  0  0  0
  9 22  1  0  0  0  0
 10  3  2  0  0  0  0
 11 28  1  6  0  0  0
 11  5  1  0  0  0  0
 12  8  1  0  0  0  0
 12  4  1  1  0  0  0
 17 26  1  0  0  0  0
 18 13  2  0  0  0  0
 19  2  2  0  0  0  0
 20  4  1  0  0  0  0
 20 17  2  0  0  0  0
 21 10  1  0  0  0  0
 22 10  1  1  0  0  0
 22 20  1  0  0  0  0
 23 15  1  0  0  0  0
 23 14  1  0  0  0  0
 25 18  1  0  0  0  0
 26 19  1  0  0  0  0
 26 25  2  0  0  0  0
 27 24  1  1  0  0  0
 27 12  1  0  0  0  0
 28 30  1  0  0  0  0
 30 29  1  0  0  0  0
M  END
>  <MODEL>
6

>  <REMARK>
 VINA RESULT:      -7.6      2.471      4.118
  Name = 
  2 active torsions:
  status: ('A' for Active; 'I' for Inactive)
    1  A    between atoms: C_11  and  C_28
    2  A    between atoms: C_28  and  C_30
                            x       y       z     vdW  Elec       q    Type
                         _______ _______ _______ _____ _____    ______ ____

>  <TORSDO>
F 2

$$$$
=
 OpenBabel11122410263D

 30 35  0  0  1  0  0  0  0  0999 V2000
  187.2170  178.3400  140.2460 C   0  0  0  0  0  0  0  0  0  0  0  0
  184.8850  178.9260  139.5730 C   0  0  0  0  0  0  0  0  0  0  0  0
  186.0430  177.7020  144.2230 N   0  0  0  0  0  0  0  0  0  0  0  0
  188.1210  177.9360  141.2570 C   0  0  0  0  0  0  0  0  0  0  0  0
  187.7920  178.6380  138.8870 C   0  0  0  0  0  2  0  0  0  0  0  0
  189.6890  175.7230  139.6860 O   0  0  0  0  0  1  0  0  0  0  0  0
  190.6050  178.4480  143.1510 C   0  0  1  0  0  3  0  0  0  0  0  0
  189.7920  177.1070  139.5360 C   0  0  1  0  0  3  0  0  0  0  0  0
  189.4350  178.3640  144.1460 C   0  0  2  0  0  3  0  0  0  0  0  0
  187.1760  177.3850  144.7670 C   0  0  0  0  0  0  0  0  0  0  0  0
  188.7940  177.5580  138.4510 C   0  0  2  0  0  3  0  0  0  0  0  0
  189.5820  177.8210  140.8850 C   0  0  2  0  0  3  0  0  0  0  0  0
  183.5440  179.1020  139.9280 C   0  0  0  0  0  3  0  0  0  0  0  0
  190.1150  178.0300  145.4370 C   0  0  0  0  0  2  0  0  0  0  0  0
  191.8260  178.3590  143.8470 O   0  0  0  0  0  0  0  0  0  0  0  0
  185.2290  179.1390  138.2790 F   0  0  0  0  0  0  0  0  0  0  0  0
  186.3070  177.9310  142.8500 C   0  0  0  0  0  0  0  0  0  0  0  0
  183.1210  178.8930  141.2400 C   0  0  0  0  0  3  0  0  0  0  0  0
  185.8350  178.5290  140.5460 C   0  0  0  0  0  0  0  0  0  0  0  0
  187.6290  177.7390  142.5520 C   0  0  0  0  0  0  0  0  0  0  0  0
  187.2650  177.0000  146.2020 C   0  0  0  0  0  1  0  0  0  0  0  0
  188.3400  177.3410  143.8000 C   0  0  1  0  0  3  0  0  0  0  0  0
  191.5210  178.5130  145.2080 C   0  0  0  0  0  2  0  0  0  0  0  0
  190.5930  175.9940  142.4060 C   0  0  0  0  0  1  0  0  0  0  0  0
  184.0370  178.5020  142.2150 C   0  0  0  0  0  3  0  0  0  0  0  0
  185.3830  178.3180  141.8810 C   0  0  0  0  0  0  0  0  0  0  0  0
  190.6050  177.4580  141.9750 C   0  0  2  0  0  3  0  0  0  0  0  0
  189.5040  177.9420  137.1570 C   0  0  0  0  0  2  0  0  0  0  0  0
  188.2930  175.9760  136.2590 C   0  0  0  0  0  1  0  0  0  0  0  0
  189.5740  176.7790  136.1790 C   0  0  0  0  0  2  0  0  0  0  0  0
  1 19  2  0  0  0  0
  1  4  1  0  0  0  0
  2 13  2  0  0  0  0
  2 19  1  0  0  0  0
  3 10  2  0  0  0  0
  4 20  2  0  0  0  0
  5  1  1  0  0  0  0
  7 15  1  1  0  0  0
  7  9  1  0  0  0  0
  8  6  1  1  0  0  0
  8 12  1  0  0  0  0
  9 14  1  1  0  0  0
 10 21  1  0  0  0  0
 11 28  1  6  0  0  0
 11  5  1  0  0  0  0
 11  8  1  0  0  0  0
 12  4  1  1  0  0  0
 12 27  1  0  0  0  0
 13 18  1  0  0  0  0
 15 23  1  0  0  0  0
 16  2  1  0  0  0  0
 17  3  1  0  0  0  0
 18 25  2  0  0  0  0
 19 26  1  0  0  0  0
 20 17  1  0  0  0  0
 22 20  1  6  0  0  0
 22  9  1  0  0  0  0
 22 10  1  0  0  0  0
 23 14  1  0  0  0  0
 26 25  1  0  0  0  0
 26 17  2  0  0  0  0
 27 24  1  1  0  0  0
 27  7  1  0  0  0  0
 30 29  1  0  0  0  0
 30 28  1  0  0  0  0
M  END
>  <MODEL>
7

>  <REMARK>
 VINA RESULT:      -7.6      2.134      5.578
  Name = 
  2 active torsions:
  status: ('A' for Active; 'I' for Inactive)
    1  A    between atoms: C_11  and  C_28
    2  A    between atoms: C_28  and  C_30
                            x       y       z     vdW  Elec       q    Type
                         _______ _______ _______ _____ _____    ______ ____

>  <TORSDO>
F 2

$$$$
=
 OpenBabel11122410263D

 30 35  0  0  1  0  0  0  0  0999 V2000
  186.3660  178.4930  141.3740 C   0  0  0  0  0  0  0  0  0  0  0  0
  183.9190  178.9530  141.5640 C   0  0  0  0  0  0  0  0  0  0  0  0
  186.6350  177.5650  145.4570 N   0  0  0  0  0  0  0  0  0  0  0  0
  187.5760  178.0990  141.9930 C   0  0  0  0  0  0  0  0  0  0  0  0
  186.4340  178.9030  139.9270 C   0  0  0  0  0  2  0  0  0  0  0  0
  188.6230  176.0860  139.8300 O   0  0  0  0  0  1  0  0  0  0  0  0
  190.5270  178.6770  142.9800 C   0  0  1  0  0  3  0  0  0  0  0  0
  188.6040  177.4800  139.7570 C   0  0  1  0  0  3  0  0  0  0  0  0
  189.7670  178.4600  144.3000 C   0  0  2  0  0  3  0  0  0  0  0  0
  187.8980  177.2970  145.5660 C   0  0  0  0  0  0  0  0  0  0  0  0
  187.2780  177.9190  139.1030 C   0  0  2  0  0  3  0  0  0  0  0  0
  188.8290  178.1040  141.1460 C   0  0  2  0  0  3  0  0  0  0  0  0
  182.7710  179.0180  142.3590 C   0  0  0  0  0  3  0  0  0  0  0  0
  190.8580  178.1050  145.2610 C   0  0  0  0  0  2  0  0  0  0  0  0
  191.9140  178.6340  143.2200 O   0  0  0  0  0  0  0  0  0  0  0  0
  183.7950  179.2590  140.2480 F   0  0  0  0  0  0  0  0  0  0  0  0
  186.4090  177.8840  144.0950 C   0  0  0  0  0  0  0  0  0  0  0  0
  182.8260  178.7110  143.7170 C   0  0  0  0  0  3  0  0  0  0  0  0
  185.1590  178.5710  142.1320 C   0  0  0  0  0  0  0  0  0  0  0  0
  187.5600  177.8000  143.3600 C   0  0  0  0  0  0  0  0  0  0  0  0
  188.4850  176.8430  146.8570 C   0  0  0  0  0  1  0  0  0  0  0  0
  188.6690  177.3850  144.2660 C   0  0  1  0  0  3  0  0  0  0  0  0
  192.0800  178.6940  144.6120 C   0  0  0  0  0  2  0  0  0  0  0  0
  190.3780  176.2710  142.1040 C   0  0  0  0  0  1  0  0  0  0  0  0
  184.0340  178.3310  144.2980 C   0  0  0  0  0  3  0  0  0  0  0  0
  185.1950  178.2580  143.5220 C   0  0  0  0  0  0  0  0  0  0  0  0
  190.1760  177.7540  141.8030 C   0  0  2  0  0  3  0  0  0  0  0  0
  187.4910  178.4190  137.6790 C   0  0  0  0  0  2  0  0  0  0  0  0
  189.3340  177.5950  136.2430 C   0  0  0  0  0  1  0  0  0  0  0  0
  188.9680  178.5680  137.3430 C   0  0  0  0  0  2  0  0  0  0  0  0
  1  4  2  0  0  0  0
  1 19  1  0  0  0  0
  2 19  2  0  0  0  0
  2 13  1  0  0  0  0
  3 10  2  0  0  0  0
  4 20  1  0  0  0  0
  5  1  1  0  0  0  0
  7 15  1  1  0  0  0
  7  9  1  0  0  0  0
  8  6  1  1  0  0  0
  8 12  1  0  0  0  0
  9 14  1  1  0  0  0
 10 21  1  0  0  0  0
 11 28  1  6  0  0  0
 11  8  1  0  0  0  0
 11  5  1  0  0  0  0
 12 27  1  0  0  0  0
 12  4  1  1  0  0  0
 13 18  2  0  0  0  0
 15 23  1  0  0  0  0
 16  2  1  0  0  0  0
 17  3  1  0  0  0  0
 18 25  1  0  0  0  0
 19 26  1  0  0  0  0
 20 17  2  0  0  0  0
 22 20  1  6  0  0  0
 22  9  1  0  0  0  0
 22 10  1  0  0  0  0
 23 14  1  0  0  0  0
 26 17  1  0  0  0  0
 26 25  2  0  0  0  0
 27 24  1  1  0  0  0
 27  7  1  0  0  0  0
 29 30  1  0  0  0  0
 30 28  1  0  0  0  0
M  END
>  <MODEL>
8

>  <REMARK>
 VINA RESULT:      -7.5      2.097      5.455
  Name = 
  2 active torsions:
  status: ('A' for Active; 'I' for Inactive)
    1  A    between atoms: C_11  and  C_28
    2  A    between atoms: C_28  and  C_30
                            x       y       z     vdW  Elec       q    Type
                         _______ _______ _______ _____ _____    ______ ____

>  <TORSDO>
F 2

$$$$
=
 OpenBabel11122410263D

 30 35  0  0  1  0  0  0  0  0999 V2000
  187.7310  177.7430  141.2060 C   0  0  0  0  0  0  0  0  0  0  0  0
  187.5980  177.8770  143.6960 C   0  0  0  0  0  0  0  0  0  0  0  0
  183.7670  179.0550  140.7980 N   0  0  0  0  0  0  0  0  0  0  0  0
  187.1080  177.9210  139.9480 C   0  0  0  0  0  0  0  0  0  0  0  0
  189.1210  177.1630  141.2100 C   0  0  0  0  0  2  0  0  0  0  0  0
  189.4300  179.3770  138.4280 O   0  0  0  0  0  1  0  0  0  0  0  0
  185.9360  176.8060  137.2270 C   0  0  1  0  0  3  0  0  0  0  0  0
  189.3520  178.0250  138.7670 C   0  0  1  0  0  3  0  0  0  0  0  0
  184.6820  177.3420  137.9390 C   0  0  2  0  0  3  0  0  0  0  0  0
  183.6330  179.0390  139.5100 C   0  0  0  0  0  0  0  0  0  0  0  0
  190.0100  177.8270  140.1470 C   0  0  2  0  0  3  0  0  0  0  0  0
  187.8940  177.5320  138.7160 C   0  0  2  0  0  3  0  0  0  0  0  0
  186.8520  178.1680  144.8410 C   0  0  0  0  0  3  0  0  0  0  0  0
  183.7190  177.5490  136.8120 C   0  0  0  0  0  2  0  0  0  0  0  0
  185.6430  176.5590  135.8720 O   0  0  0  0  0  0  0  0  0  0  0  0
  188.8770  177.4570  143.8640 F   0  0  0  0  0  0  0  0  0  0  0  0
  185.0940  178.6390  141.0690 C   0  0  0  0  0  0  0  0  0  0  0  0
  185.5340  178.6100  144.7400 C   0  0  0  0  0  3  0  0  0  0  0  0
  187.0220  178.0300  142.4110 C   0  0  0  0  0  0  0  0  0  0  0  0
  185.7840  178.3730  139.9180 C   0  0  0  0  0  0  0  0  0  0  0  0
  182.3760  179.4950  138.8560 C   0  0  0  0  0  1  0  0  0  0  0  0
  184.8810  178.6270  138.7580 C   0  0  1  0  0  3  0  0  0  0  0  0
  184.2470  176.6260  135.7480 C   0  0  0  0  0  2  0  0  0  0  0  0
  187.0760  179.0640  136.8020 C   0  0  0  0  0  1  0  0  0  0  0  0
  184.9460  178.7700  143.4860 C   0  0  0  0  0  3  0  0  0  0  0  0
  185.6750  178.4860  142.3270 C   0  0  0  0  0  0  0  0  0  0  0  0
  187.2220  177.6410  137.3360 C   0  0  2  0  0  3  0  0  0  0  0  0
  191.3610  177.1280  140.0320 C   0  0  0  0  0  2  0  0  0  0  0  0
  192.9640  176.3780  138.2980 C   0  0  0  0  0  1  0  0  0  0  0  0
  191.5080  176.3900  138.7100 C   0  0  0  0  0  2  0  0  0  0  0  0
  1  5  1  0  0  0  0
  1 19  1  0  0  0  0
  2 16  1  0  0  0  0
  2 13  1  0  0  0  0
  3 17  1  0  0  0  0
  4  1  2  0  0  0  0
  7 15  1  6  0  0  0
  7 27  1  0  0  0  0
  7  9  1  0  0  0  0
  8  6  1  1  0  0  0
  8 11  1  0  0  0  0
  9 14  1  6  0  0  0
  9 22  1  0  0  0  0
 10  3  2  0  0  0  0
 11 28  1  6  0  0  0
 11  5  1  0  0  0  0
 12  8  1  0  0  0  0
 12  4  1  1  0  0  0
 17 26  1  0  0  0  0
 18 13  2  0  0  0  0
 19  2  2  0  0  0  0
 20  4  1  0  0  0  0
 20 17  2  0  0  0  0
 21 10  1  0  0  0  0
 22 10  1  1  0  0  0
 22 20  1  0  0  0  0
 23 15  1  0  0  0  0
 23 14  1  0  0  0  0
 25 18  1  0  0  0  0
 26 19  1  0  0  0  0
 26 25  2  0  0  0  0
 27 24  1  1  0  0  0
 27 12  1  0  0  0  0
 29 30  1  0  0  0  0
 30 28  1  0  0  0  0
M  END
>  <MODEL>
9

>  <REMARK>
 VINA RESULT:      -7.5      2.545      4.703
  Name = 
  2 active torsions:
  status: ('A' for Active; 'I' for Inactive)
    1  A    between atoms: C_11  and  C_28
    2  A    between atoms: C_28  and  C_30
                            x       y       z     vdW  Elec       q    Type
                         _______ _______ _______ _____ _____    ______ ____

>  <TORSDO>
F 2

$$$$
