=
 OpenBabel11122410423D

 32 37  0  0  1  0  0  0  0  0999 V2000
  188.7180  177.6120  136.7140 C   0  0  0  0  0  2  0  0  0  0  0  0
  187.6800  178.0700  142.1840 C   0  0  0  0  0  0  0  0  0  0  0  0
  183.0070  179.0460  143.1750 C   0  0  0  0  0  3  0  0  0  0  0  0
  183.2400  178.6280  144.6000 C   0  0  0  0  0  2  0  0  0  0  0  0
  189.2480  177.4690  144.0970 C   0  0  0  0  0  0  0  0  0  0  0  0
  189.4470  177.3500  145.5390 C   0  0  0  0  0  0  0  0  0  0  0  0
  188.3060  177.9780  139.7930 C   0  0  0  0  0  0  0  0  0  0  0  0
  186.0290  178.5210  140.3590 N   0  0  0  0  0  2  0  0  0  0  0  0
  189.0270  177.4900  147.7050 N   0  0  0  0  0  0  0  0  0  0  0  0
  186.6650  178.4500  137.9360 C   0  0  0  0  0  2  0  0  0  0  0  0
  183.9960  179.0230  142.2780 C   0  0  0  0  0  3  0  0  0  0  0  0
  186.3170  178.4360  141.7610 C   0  0  0  0  0  0  0  0  0  0  0  0
  185.3740  178.6740  142.6790 C   0  0  0  0  0  0  0  0  0  0  0  0
  186.9300  178.2890  144.5580 C   0  0  0  0  0  0  0  0  0  0  0  0
  190.3260  176.9550  147.6970 N   0  0  0  0  0  0  0  0  0  0  0  0
  189.3540  178.4110  137.6820 O   0  0  0  0  0  0  0  0  0  0  0  0
  187.0460  178.2710  139.3820 C   0  0  0  0  0  0  0  0  0  0  0  0
  190.6500  176.8400  146.2630 C   0  0  0  0  0  3  0  0  0  0  0  0
  189.4250  177.6370  138.8460 C   0  0  0  0  0  2  0  0  0  0  0  0
  187.2380  177.3560  137.0370 C   0  0  1  0  0  3  0  0  0  0  0  0
  184.6200  179.0620  145.0920 C   0  0  0  0  0  2  0  0  0  0  0  0
  185.6950  178.6210  144.1290 C   0  0  0  0  0  0  0  0  0  0  0  0
  187.2240  178.3250  146.0470 C   0  0  0  0  0  2  0  0  0  0  0  0
  188.6030  177.8600  141.2360 C   0  0  0  0  0  3  0  0  0  0  0  0
  190.1820  177.1380  143.3180 O   0  0  0  0  0  0  0  0  0  0  0  0
  188.3060  177.7910  148.9290 C   0  0  0  0  0  1  0  0  0  0  0  0
  187.9740  177.9490  143.6000 N   0  0  0  0  0  0  0  0  0  0  0  0
  188.5390  177.7020  146.4010 C   0  0  0  0  0  0  0  0  0  0  0  0
  186.4820  177.2780  135.7970 N   0  0  0  0  0  2  0  0  0  0  0  0
  185.2620  176.5450  135.6940 C   0  0  0  0  0  0  0  0  0  0  0  0
  184.7600  175.8500  136.7870 O   0  0  0  0  0  1  0  0  0  0  0  0
  184.6370  176.5240  134.6020 O   0  0  0  0  0  0  0  0  0  0  0  0
  1 20  1  0  0  0  0
  1 16  1  0  0  0  0
  2 27  1  0  0  0  0
  3  4  1  0  0  0  0
  4 21  1  0  0  0  0
  5  6  1  0  0  0  0
  6 18  1  0  0  0  0
  6 28  2  0  0  0  0
  7 24  1  0  0  0  0
  8 12  1  0  0  0  0
  9 26  1  0  0  0  0
 10 17  1  0  0  0  0
 11 13  1  0  0  0  0
 11  3  2  0  0  0  0
 12  2  1  0  0  0  0
 12 13  2  0  0  0  0
 13 22  1  0  0  0  0
 14 23  1  0  0  0  0
 15  9  1  0  0  0  0
 16 19  1  0  0  0  0
 17  7  2  0  0  0  0
 17  8  1  0  0  0  0
 18 15  2  0  0  0  0
 19  7  1  0  0  0  0
 20 29  1  6  0  0  0
 20 10  1  0  0  0  0
 22 14  2  0  0  0  0
 22 21  1  0  0  0  0
 23 28  1  0  0  0  0
 24  2  2  0  0  0  0
 25  5  2  0  0  0  0
 27  5  1  0  0  0  0
 27 14  1  0  0  0  0
 28  9  1  0  0  0  0
 30 29  1  0  0  0  0
 30 31  1  0  0  0  0
 32 30  2  0  0  0  0
M  END
>  <MODEL>
1

>  <REMARK>
 VINA RESULT:     -10.5      0.000      0.000
  Name = 
  1 active torsions:
  status: ('A' for Active; 'I' for Inactive)
    1  A    between atoms: C_20  and  N_29
                            x       y       z     vdW  Elec       q    Type
                         _______ _______ _______ _____ _____    ______ ____

>  <TORSDO>
F 1

$$$$
=
 OpenBabel11122410423D

 32 37  0  0  1  0  0  0  0  0999 V2000
  186.1530  178.0440  136.7570 C   0  0  0  0  0  2  0  0  0  0  0  0
  187.4500  177.9810  142.1910 C   0  0  0  0  0  0  0  0  0  0  0  0
  183.6400  178.9260  145.0840 C   0  0  0  0  0  3  0  0  0  0  0  0
  184.4080  178.3660  146.2490 C   0  0  0  0  0  2  0  0  0  0  0  0
  189.6240  177.1710  143.2380 C   0  0  0  0  0  0  0  0  0  0  0  0
  190.3840  176.9080  144.4570 C   0  0  0  0  0  0  0  0  0  0  0  0
  187.0450  178.1130  139.7550 C   0  0  0  0  0  0  0  0  0  0  0  0
  185.2270  178.6330  141.2460 N   0  0  0  0  0  2  0  0  0  0  0  0
  190.8870  176.8420  146.6090 N   0  0  0  0  0  0  0  0  0  0  0  0
  184.8200  178.7900  138.7770 C   0  0  0  0  0  2  0  0  0  0  0  0
  184.1770  178.9750  143.8620 C   0  0  0  0  0  3  0  0  0  0  0  0
  186.0530  178.4060  142.3950 C   0  0  0  0  0  0  0  0  0  0  0  0
  185.5790  178.5680  143.6340 C   0  0  0  0  0  0  0  0  0  0  0  0
  187.7400  177.9770  144.6730 C   0  0  0  0  0  0  0  0  0  0  0  0
  192.0400  176.2910  146.0260 N   0  0  0  0  0  0  0  0  0  0  0  0
  187.1680  178.7350  137.4440 O   0  0  0  0  0  0  0  0  0  0  0  0
  185.7450  178.4640  139.9210 C   0  0  0  0  0  0  0  0  0  0  0  0
  191.7470  176.3120  144.5800 C   0  0  0  0  0  3  0  0  0  0  0  0
  187.6640  177.8500  138.4080 C   0  0  0  0  0  2  0  0  0  0  0  0
  184.9200  177.7810  137.6350 C   0  0  1  0  0  3  0  0  0  0  0  0
  185.8910  178.7290  146.1680 C   0  0  0  0  0  2  0  0  0  0  0  0
  186.4570  178.3690  144.8160 C   0  0  0  0  0  0  0  0  0  0  0  0
  188.6140  177.8630  145.9090 C   0  0  0  0  0  2  0  0  0  0  0  0
  187.8960  177.8510  140.9350 C   0  0  0  0  0  3  0  0  0  0  0  0
  190.1420  176.9040  142.1210 O   0  0  0  0  0  0  0  0  0  0  0  0
  190.7410  177.0320  148.0410 C   0  0  0  0  0  1  0  0  0  0  0  0
  188.2850  177.7170  143.3480 N   0  0  0  0  0  0  0  0  0  0  0  0
  189.9240  177.1880  145.6420 C   0  0  0  0  0  0  0  0  0  0  0  0
  183.7230  177.8360  136.8110 N   0  0  0  0  0  2  0  0  0  0  0  0
  182.5660  177.0490  137.0940 C   0  0  0  0  0  0  0  0  0  0  0  0
  182.5540  176.1700  138.1710 O   0  0  0  0  0  1  0  0  0  0  0  0
  181.5490  177.1470  136.3590 O   0  0  0  0  0  0  0  0  0  0  0  0
  1 16  1  0  0  0  0
  1 20  1  0  0  0  0
  2 12  1  0  0  0  0
  2 27  1  0  0  0  0
  3  4  1  0  0  0  0
  5 27  1  0  0  0  0
  5  6  1  0  0  0  0
  6 18  1  0  0  0  0
  6 28  2  0  0  0  0
  7 17  2  0  0  0  0
  7 24  1  0  0  0  0
  8 12  1  0  0  0  0
  9 26  1  0  0  0  0
 10 17  1  0  0  0  0
 11  3  2  0  0  0  0
 12 13  2  0  0  0  0
 13 11  1  0  0  0  0
 13 22  1  0  0  0  0
 14 22  2  0  0  0  0
 14 23  1  0  0  0  0
 15  9  1  0  0  0  0
 16 19  1  0  0  0  0
 17  8  1  0  0  0  0
 18 15  2  0  0  0  0
 19  7  1  0  0  0  0
 20 29  1  6  0  0  0
 20 10  1  0  0  0  0
 21  4  1  0  0  0  0
 22 21  1  0  0  0  0
 24  2  2  0  0  0  0
 25  5  2  0  0  0  0
 27 14  1  0  0  0  0
 28 23  1  0  0  0  0
 28  9  1  0  0  0  0
 29 30  1  0  0  0  0
 30 31  1  0  0  0  0
 32 30  2  0  0  0  0
M  END
>  <MODEL>
2

>  <REMARK>
 VINA RESULT:     -10.2      1.635      1.928
  Name = 
  1 active torsions:
  status: ('A' for Active; 'I' for Inactive)
    1  A    between atoms: C_20  and  N_29
                            x       y       z     vdW  Elec       q    Type
                         _______ _______ _______ _____ _____    ______ ____

>  <TORSDO>
F 1

$$$$
=
 OpenBabel11122410423D

 32 37  0  0  1  0  0  0  0  0999 V2000
  188.5540  177.5170  148.2290 C   0  0  0  0  0  2  0  0  0  0  0  0
  186.3440  178.2510  143.1500 C   0  0  2  0  0  3  0  0  0  0  0  0
  189.5780  177.6650  139.5480 C   0  0  0  0  0  3  0  0  0  0  0  0
  188.4420  177.5300  138.5730 C   0  0  0  0  0  2  0  0  0  0  0  0
  183.8750  178.4660  142.5700 C   0  0  0  0  0  0  0  0  0  0  0  0
  182.8590  178.5990  141.5290 C   0  0  0  0  0  0  0  0  0  0  0  0
  187.2210  178.0900  145.4580 C   0  0  0  0  0  0  0  0  0  0  0  0
  188.7720  177.8780  143.6270 N   0  0  0  0  0  0  0  0  0  0  0  0
  181.9770  178.8480  139.5170 N   0  0  0  0  0  0  0  0  0  0  0  0
  189.6670  177.7370  145.9650 C   0  0  0  0  0  2  0  0  0  0  0  0
  189.3520  177.8760  140.8480 C   0  0  0  0  0  3  0  0  0  0  0  0
  187.7250  178.0680  142.6670 C   0  0  0  0  0  0  0  0  0  0  0  0
  187.9800  178.0760  141.3550 C   0  0  0  0  0  0  0  0  0  0  0  0
  185.6150  178.4840  140.7720 C   0  0  0  0  0  0  0  0  0  0  0  0
  180.8320  178.7980  140.3310 N   0  0  0  0  0  0  0  0  0  0  0  0
  187.8080  178.5980  147.7250 O   0  0  0  0  0  0  0  0  0  0  0  0
  188.4920  177.8770  145.0320 C   0  0  0  0  0  0  0  0  0  0  0  0
  181.3750  178.6280  141.6920 C   0  0  0  0  0  3  0  0  0  0  0  0
  186.8160  178.0440  146.9060 C   0  0  0  0  0  2  0  0  0  0  0  0
  189.3750  176.8080  147.1420 C   0  0  1  0  0  3  0  0  0  0  0  0
  187.2890  178.4710  138.9240 C   0  0  0  0  0  2  0  0  0  0  0  0
  186.8920  178.3150  140.3710 C   0  0  0  0  0  0  0  0  0  0  0  0
  184.5550  178.8010  139.7310 C   0  0  0  0  0  2  0  0  0  0  0  0
  186.1310  178.2590  144.4730 C   0  0  0  0  0  3  0  0  0  0  0  0
  183.5150  178.3850  143.7740 O   0  0  0  0  0  0  0  0  0  0  0  0
  181.9140  179.0270  138.0780 C   0  0  0  0  0  1  0  0  0  0  0  0
  185.2720  178.4120  142.1860 N   0  0  0  0  0  0  0  0  0  0  0  0
  183.1600  178.7180  140.2690 C   0  0  0  0  0  0  0  0  0  0  0  0
  190.6190  176.3230  147.7190 N   0  0  0  0  0  2  0  0  0  0  0  0
  191.7450  175.9710  146.9150 C   0  0  0  0  0  0  0  0  0  0  0  0
  191.6810  176.0590  145.5290 O   0  0  0  0  0  0  0  0  0  0  0  0
  192.8050  175.5740  147.4650 O   0  0  0  0  0  1  0  0  0  0  0  0
  2 24  1  6  0  0  0
  3 11  2  0  0  0  0
  4 21  1  0  0  0  0
  4  3  1  0  0  0  0
  5 25  2  0  0  0  0
  6 18  1  0  0  0  0
  6  5  1  0  0  0  0
  7 19  1  0  0  0  0
  8 17  2  0  0  0  0
  9 28  1  0  0  0  0
  9 15  1  0  0  0  0
 10 20  1  0  0  0  0
 11 13  1  0  0  0  0
 12  2  1  0  0  0  0
 12  8  1  0  0  0  0
 13 12  2  0  0  0  0
 14 27  1  0  0  0  0
 15 18  2  0  0  0  0
 16  1  1  0  0  0  0
 17  7  1  0  0  0  0
 17 10  1  0  0  0  0
 19 16  1  0  0  0  0
 20 29  1  1  0  0  0
 20  1  1  0  0  0  0
 21 22  1  0  0  0  0
 22 14  2  0  0  0  0
 22 13  1  0  0  0  0
 23 28  1  0  0  0  0
 23 14  1  0  0  0  0
 24  7  2  0  0  0  0
 26  9  1  0  0  0  0
 27  5  1  0  0  0  0
 27  2  1  0  0  0  0
 28  6  2  0  0  0  0
 30 32  1  0  0  0  0
 30 29  1  0  0  0  0
 31 30  2  0  0  0  0
M  END
>  <MODEL>
3

>  <REMARK>
 VINA RESULT:      -9.8      3.167      8.523
  Name = 
  1 active torsions:
  status: ('A' for Active; 'I' for Inactive)
    1  A    between atoms: C_20  and  N_29
                            x       y       z     vdW  Elec       q    Type
                         _______ _______ _______ _____ _____    ______ ____

>  <TORSDO>
F 1

$$$$
=
 OpenBabel11122410423D

 32 37  0  0  1  0  0  0  0  0999 V2000
  179.2840  179.6920  142.4340 C   0  0  0  0  0  2  0  0  0  0  0  0
  184.6050  178.4340  143.5830 C   0  0  0  0  0  0  0  0  0  0  0  0
  187.4330  178.2530  139.6150 C   0  0  0  0  0  3  0  0  0  0  0  0
  188.6470  178.3410  140.4970 C   0  0  0  0  0  2  0  0  0  0  0  0
  185.6940  178.3370  145.8810 C   0  0  0  0  0  0  0  0  0  0  0  0
  186.9130  178.1410  146.6620 C   0  0  0  0  0  0  0  0  0  0  0  0
  182.1950  178.8450  143.2030 C   0  0  0  0  0  0  0  0  0  0  0  0
  183.6430  178.6760  141.2860 N   0  0  0  0  0  2  0  0  0  0  0  0
  189.0270  177.6850  147.1190 N   0  0  0  0  0  0  0  0  0  0  0  0
  181.1980  179.0710  140.8970 C   0  0  0  0  0  2  0  0  0  0  0  0
  186.2010  178.2440  140.1320 C   0  0  0  0  0  3  0  0  0  0  0  0
  184.7830  178.4370  142.1200 C   0  0  0  0  0  0  0  0  0  0  0  0
  185.9950  178.2260  141.5950 C   0  0  0  0  0  0  0  0  0  0  0  0
  187.0410  177.9300  143.8130 C   0  0  0  0  0  0  0  0  0  0  0  0
  188.5030  177.9380  148.3980 N   0  0  0  0  0  0  0  0  0  0  0  0
  179.8100  178.6140  143.1690 O   0  0  0  0  0  0  0  0  0  0  0  0
  182.3470  178.8950  141.8550 C   0  0  0  0  0  0  0  0  0  0  0  0
  187.0850  178.2530  148.1410 C   0  0  0  0  0  3  0  0  0  0  0  0
  180.8900  179.1250  143.8990 C   0  0  0  0  0  2  0  0  0  0  0  0
  180.2360  180.1750  141.3290 C   0  0  1  0  0  3  0  0  0  0  0  0
  188.4550  177.5520  141.7930 C   0  0  0  0  0  2  0  0  0  0  0  0
  187.1620  177.9400  142.4690 C   0  0  0  0  0  0  0  0  0  0  0  0
  188.2470  177.5560  144.6550 C   0  0  0  0  0  2  0  0  0  0  0  0
  183.3720  178.6270  144.0710 C   0  0  0  0  0  3  0  0  0  0  0  0
  184.6190  178.6130  146.4780 O   0  0  0  0  0  0  0  0  0  0  0  0
  190.4120  177.3110  146.8950 C   0  0  0  0  0  1  0  0  0  0  0  0
  185.7590  178.2260  144.4370 N   0  0  0  0  0  0  0  0  0  0  0  0
  188.0500  177.8230  146.1150 C   0  0  0  0  0  0  0  0  0  0  0  0
  179.4560  180.6350  140.1910 N   0  0  0  0  0  2  0  0  0  0  0  0
  180.0470  181.3360  139.0970 C   0  0  0  0  0  0  0  0  0  0  0  0
  181.4060  181.6270  139.0940 O   0  0  0  0  0  1  0  0  0  0  0  0
  179.3300  181.6970  138.1270 O   0  0  0  0  0  0  0  0  0  0  0  0
  1 16  1  0  0  0  0
  2 24  2  0  0  0  0
  2 27  1  0  0  0  0
  3 11  2  0  0  0  0
  3  4  1  0  0  0  0
  4 21  1  0  0  0  0
  5 25  2  0  0  0  0
  5  6  1  0  0  0  0
  6 18  1  0  0  0  0
  7 19  1  0  0  0  0
  7 24  1  0  0  0  0
  8 17  1  0  0  0  0
  8 12  1  0  0  0  0
  9 15  1  0  0  0  0
 10 20  1  0  0  0  0
 10 17  1  0  0  0  0
 11 13  1  0  0  0  0
 12  2  1  0  0  0  0
 13 12  2  0  0  0  0
 13 22  1  0  0  0  0
 14 27  1  0  0  0  0
 14 23  1  0  0  0  0
 16 19  1  0  0  0  0
 17  7  2  0  0  0  0
 18 15  2  0  0  0  0
 20 29  1  6  0  0  0
 20  1  1  0  0  0  0
 21 22  1  0  0  0  0
 22 14  2  0  0  0  0
 23 28  1  0  0  0  0
 26  9  1  0  0  0  0
 27  5  1  0  0  0  0
 28  6  2  0  0  0  0
 28  9  1  0  0  0  0
 30 29  1  0  0  0  0
 31 30  1  0  0  0  0
 32 30  2  0  0  0  0
M  END
>  <MODEL>
4

>  <REMARK>
 VINA RESULT:      -9.8      3.449      5.838
  Name = 
  1 active torsions:
  status: ('A' for Active; 'I' for Inactive)
    1  A    between atoms: C_20  and  N_29
                            x       y       z     vdW  Elec       q    Type
                         _______ _______ _______ _____ _____    ______ ____

>  <TORSDO>
F 1

$$$$
=
 OpenBabel11122410423D

 32 37  0  0  1  0  0  0  0  0999 V2000
  190.3500  176.2650  136.7870 C   0  0  0  0  0  2  0  0  0  0  0  0
  189.0650  177.4040  142.1040 C   0  0  0  0  0  0  0  0  0  0  0  0
  184.4050  178.7020  142.7150 C   0  0  0  0  0  3  0  0  0  0  0  0
  184.5450  178.4420  144.1900 C   0  0  0  0  0  2  0  0  0  0  0  0
  190.5020  176.9570  144.1560 C   0  0  0  0  0  0  0  0  0  0  0  0
  190.6220  176.9970  145.6110 C   0  0  0  0  0  0  0  0  0  0  0  0
  189.8040  177.0050  139.7770 C   0  0  0  0  0  0  0  0  0  0  0  0
  187.5330  177.7150  140.1500 N   0  0  0  0  0  2  0  0  0  0  0  0
  190.1020  177.4070  147.7210 N   0  0  0  0  0  0  0  0  0  0  0  0
  188.2840  177.3340  137.7890 C   0  0  0  0  0  2  0  0  0  0  0  0
  185.4350  178.5290  141.8830 C   0  0  0  0  0  3  0  0  0  0  0  0
  187.7450  177.7800  141.5660 C   0  0  0  0  0  0  0  0  0  0  0  0
  186.7720  178.1660  142.3970 C   0  0  0  0  0  0  0  0  0  0  0  0
  188.2100  177.9310  144.3910 C   0  0  0  0  0  0  0  0  0  0  0  0
  191.3710  176.8160  147.8450 N   0  0  0  0  0  0  0  0  0  0  0  0
  190.9760  177.1410  137.6910 O   0  0  0  0  0  0  0  0  0  0  0  0
  188.5820  177.3060  139.2660 C   0  0  0  0  0  0  0  0  0  0  0  0
  191.7590  176.5200  146.4540 C   0  0  0  0  0  3  0  0  0  0  0  0
  190.9490  176.5050  138.9380 C   0  0  0  0  0  2  0  0  0  0  0  0
  188.8440  176.1170  137.0540 C   0  0  1  0  0  3  0  0  0  0  0  0
  185.9190  178.8670  144.7050 C   0  0  0  0  0  2  0  0  0  0  0  0
  187.0170  178.2680  143.8600 C   0  0  0  0  0  0  0  0  0  0  0  0
  188.4310  178.1260  145.8810 C   0  0  0  0  0  2  0  0  0  0  0  0
  190.0220  177.0420  141.2380 C   0  0  0  0  0  3  0  0  0  0  0  0
  191.4550  176.4950  143.4730 O   0  0  0  0  0  0  0  0  0  0  0  0
  189.3380  177.8810  148.8600 C   0  0  0  0  0  1  0  0  0  0  0  0
  189.2810  177.4340  143.5380 N   0  0  0  0  0  0  0  0  0  0  0  0
  189.6920  177.4890  146.3760 C   0  0  0  0  0  0  0  0  0  0  0  0
  188.1480  175.9300  135.7910 N   0  0  0  0  0  2  0  0  0  0  0  0
  186.8770  175.2850  135.7100 C   0  0  0  0  0  0  0  0  0  0  0  0
  186.2630  174.7840  136.8520 O   0  0  0  0  0  1  0  0  0  0  0  0
  186.3080  175.1650  134.5940 O   0  0  0  0  0  0  0  0  0  0  0  0
  1 20  1  0  0  0  0
  1 16  1  0  0  0  0
  2 27  1  0  0  0  0
  3  4  1  0  0  0  0
  4 21  1  0  0  0  0
  5  6  1  0  0  0  0
  6 28  2  0  0  0  0
  6 18  1  0  0  0  0
  7 24  1  0  0  0  0
  8 12  1  0  0  0  0
  9 15  1  0  0  0  0
  9 26  1  0  0  0  0
 10 17  1  0  0  0  0
 11 13  1  0  0  0  0
 11  3  2  0  0  0  0
 12  2  1  0  0  0  0
 12 13  2  0  0  0  0
 13 22  1  0  0  0  0
 14 23  1  0  0  0  0
 16 19  1  0  0  0  0
 17  7  2  0  0  0  0
 17  8  1  0  0  0  0
 18 15  2  0  0  0  0
 19  7  1  0  0  0  0
 20 29  1  6  0  0  0
 20 10  1  0  0  0  0
 22 14  2  0  0  0  0
 22 21  1  0  0  0  0
 23 28  1  0  0  0  0
 24  2  2  0  0  0  0
 25  5  2  0  0  0  0
 27  5  1  0  0  0  0
 27 14  1  0  0  0  0
 28  9  1  0  0  0  0
 30 29  1  0  0  0  0
 30 31  1  0  0  0  0
 32 30  2  0  0  0  0
M  END
>  <MODEL>
5

>  <REMARK>
 VINA RESULT:      -9.5      1.360      1.618
  Name = 
  1 active torsions:
  status: ('A' for Active; 'I' for Inactive)
    1  A    between atoms: C_20  and  N_29
                            x       y       z     vdW  Elec       q    Type
                         _______ _______ _______ _____ _____    ______ ____

>  <TORSDO>
F 1

$$$$
=
 OpenBabel11122410423D

 32 37  0  0  1  0  0  0  0  0999 V2000
  188.8490  177.2480  148.0950 C   0  0  0  0  0  2  0  0  0  0  0  0
  185.7730  178.3440  143.5620 C   0  0  0  0  0  0  0  0  0  0  0  0
  188.2750  177.9230  139.3980 C   0  0  0  0  0  3  0  0  0  0  0  0
  186.9760  177.8710  138.6430 C   0  0  0  0  0  2  0  0  0  0  0  0
  183.2470  178.6430  143.4600 C   0  0  0  0  0  0  0  0  0  0  0  0
  182.0620  178.8620  142.6330 C   0  0  0  0  0  0  0  0  0  0  0  0
  187.0500  178.0210  145.6550 C   0  0  0  0  0  0  0  0  0  0  0  0
  188.2340  177.8940  143.5610 N   0  0  0  0  0  2  0  0  0  0  0  0
  180.8360  179.2540  140.8360 N   0  0  0  0  0  0  0  0  0  0  0  0
  189.5360  177.5880  145.6820 C   0  0  0  0  0  2  0  0  0  0  0  0
  188.2970  178.0560  140.7270 C   0  0  0  0  0  3  0  0  0  0  0  0
  187.0360  178.1650  142.8230 C   0  0  0  0  0  0  0  0  0  0  0  0
  187.0460  178.2500  141.4890 C   0  0  0  0  0  0  0  0  0  0  0  0
  184.6280  178.7410  141.3760 C   0  0  0  0  0  0  0  0  0  0  0  0
  179.8580  179.1750  141.8430 N   0  0  0  0  0  0  0  0  0  0  0  0
  188.0570  178.3730  147.8010 O   0  0  0  0  0  0  0  0  0  0  0  0
  188.2150  177.8100  144.9910 C   0  0  0  0  0  0  0  0  0  0  0  0
  180.6340  178.9090  143.0680 C   0  0  0  0  0  3  0  0  0  0  0  0
  186.9160  177.8920  147.1480 C   0  0  0  0  0  2  0  0  0  0  0  0
  189.4350  176.5930  146.8360 C   0  0  1  0  0  3  0  0  0  0  0  0
  185.9360  178.8110  139.2540 C   0  0  0  0  0  2  0  0  0  0  0  0
  185.8050  178.5720  140.7380 C   0  0  0  0  0  0  0  0  0  0  0  0
  183.4070  179.1430  140.5690 C   0  0  0  0  0  2  0  0  0  0  0  0
  185.8050  178.2730  144.8990 C   0  0  0  0  0  3  0  0  0  0  0  0
  183.1110  178.4940  144.7030 O   0  0  0  0  0  0  0  0  0  0  0  0
  180.5170  179.5250  139.4470 C   0  0  0  0  0  1  0  0  0  0  0  0
  184.5480  178.5860  142.8220 N   0  0  0  0  0  0  0  0  0  0  0  0
  182.1320  179.0540  141.3490 C   0  0  0  0  0  0  0  0  0  0  0  0
  190.7480  176.0480  147.1450 N   0  0  0  0  0  2  0  0  0  0  0  0
  191.6900  176.7470  147.9590 C   0  0  0  0  0  0  0  0  0  0  0  0
  191.3860  178.0020  148.4740 O   0  0  0  0  0  1  0  0  0  0  0  0
  192.8060  176.2240  148.2110 O   0  0  0  0  0  0  0  0  0  0  0  0
  2 24  2  0  0  0  0
  3 11  2  0  0  0  0
  4 21  1  0  0  0  0
  4  3  1  0  0  0  0
  5 25  2  0  0  0  0
  6 18  1  0  0  0  0
  6  5  1  0  0  0  0
  7 19  1  0  0  0  0
  8 17  1  0  0  0  0
  9 28  1  0  0  0  0
  9 15  1  0  0  0  0
 10 20  1  0  0  0  0
 11 13  1  0  0  0  0
 12  8  1  0  0  0  0
 12  2  1  0  0  0  0
 13 12  2  0  0  0  0
 14 27  1  0  0  0  0
 15 18  2  0  0  0  0
 16  1  1  0  0  0  0
 17  7  2  0  0  0  0
 17 10  1  0  0  0  0
 19 16  1  0  0  0  0
 20 29  1  1  0  0  0
 20  1  1  0  0  0  0
 21 22  1  0  0  0  0
 22 14  2  0  0  0  0
 22 13  1  0  0  0  0
 23 28  1  0  0  0  0
 23 14  1  0  0  0  0
 24  7  1  0  0  0  0
 26  9  1  0  0  0  0
 27  5  1  0  0  0  0
 27  2  1  0  0  0  0
 28  6  2  0  0  0  0
 29 30  1  0  0  0  0
 30 32  2  0  0  0  0
 30 31  1  0  0  0  0
M  END
>  <MODEL>
6

>  <REMARK>
 VINA RESULT:      -8.8      3.571      8.607
  Name = 
  1 active torsions:
  status: ('A' for Active; 'I' for Inactive)
    1  A    between atoms: C_20  and  N_29
                            x       y       z     vdW  Elec       q    Type
                         _______ _______ _______ _____ _____    ______ ____

>  <TORSDO>
F 1

$$$$
=
 OpenBabel11122410423D

 32 37  0  0  1  0  0  0  0  0999 V2000
  191.3340  176.6410  136.6180 C   0  0  0  0  0  2  0  0  0  0  0  0
  188.7580  177.2610  141.5370 C   0  0  0  0  0  0  0  0  0  0  0  0
  191.6800  176.4310  145.3510 C   0  0  0  0  0  3  0  0  0  0  0  0
  190.6880  177.1270  146.2400 C   0  0  0  0  0  2  0  0  0  0  0  0
  186.4490  178.2530  141.9430 C   0  0  0  0  0  0  0  0  0  0  0  0
  185.4330  178.6580  142.9110 C   0  0  0  0  0  0  0  0  0  0  0  0
  189.7350  176.8870  139.2950 C   0  0  0  0  0  0  0  0  0  0  0  0
  191.0990  176.4330  141.2280 N   0  0  0  0  0  2  0  0  0  0  0  0
  184.4260  178.9440  144.8580 N   0  0  0  0  0  0  0  0  0  0  0  0
  192.0840  176.0310  138.9580 C   0  0  0  0  0  2  0  0  0  0  0  0
  191.4550  176.2900  144.0420 C   0  0  0  0  0  3  0  0  0  0  0  0
  190.0330  176.7980  142.1140 C   0  0  0  0  0  0  0  0  0  0  0  0
  190.1800  176.7330  143.4410 C   0  0  0  0  0  0  0  0  0  0  0  0
  187.8720  177.5060  143.8610 C   0  0  0  0  0  0  0  0  0  0  0  0
  183.4870  179.4860  143.9650 N   0  0  0  0  0  0  0  0  0  0  0  0
  190.1410  176.0590  137.0830 O   0  0  0  0  0  0  0  0  0  0  0  0
  190.9310  176.5000  139.8070 C   0  0  0  0  0  0  0  0  0  0  0  0
  184.1210  179.3190  142.6440 C   0  0  0  0  0  3  0  0  0  0  0  0
  189.4810  177.0500  137.8210 C   0  0  0  0  0  2  0  0  0  0  0  0
  192.3300  176.9340  137.7510 C   0  0  1  0  0  3  0  0  0  0  0  0
  189.2500  176.8190  145.8230 C   0  0  0  0  0  2  0  0  0  0  0  0
  189.0540  177.0760  144.3480 C   0  0  0  0  0  0  0  0  0  0  0  0
  186.7320  177.7700  144.8270 C   0  0  0  0  0  2  0  0  0  0  0  0
  188.6410  177.2920  140.2030 C   0  0  0  0  0  3  0  0  0  0  0  0
  186.2370  178.4370  140.7150 O   0  0  0  0  0  0  0  0  0  0  0  0
  184.2060  178.8810  146.2920 C   0  0  0  0  0  1  0  0  0  0  0  0
  187.6840  177.6650  142.4250 N   0  0  0  0  0  0  0  0  0  0  0  0
  185.5720  178.4700  144.1910 C   0  0  0  0  0  0  0  0  0  0  0  0
  193.6860  176.7530  137.2570 N   0  0  0  0  0  2  0  0  0  0  0  0
  194.1850  175.4780  136.8530 C   0  0  0  0  0  0  0  0  0  0  0  0
  193.3860  174.3450  136.9410 O   0  0  0  0  0  1  0  0  0  0  0  0
  195.3610  175.3790  136.4150 O   0  0  0  0  0  0  0  0  0  0  0  0
  1 16  1  0  0  0  0
  1 20  1  0  0  0  0
  2 12  1  0  0  0  0
  2 27  1  0  0  0  0
  3  4  1  0  0  0  0
  5 27  1  0  0  0  0
  5  6  1  0  0  0  0
  6 28  2  0  0  0  0
  7 17  2  0  0  0  0
  7 24  1  0  0  0  0
  8 12  1  0  0  0  0
  9 26  1  0  0  0  0
 10 17  1  0  0  0  0
 11  3  2  0  0  0  0
 12 13  2  0  0  0  0
 13 11  1  0  0  0  0
 13 22  1  0  0  0  0
 14 22  2  0  0  0  0
 14 23  1  0  0  0  0
 15  9  1  0  0  0  0
 16 19  1  0  0  0  0
 17  8  1  0  0  0  0
 18  6  1  0  0  0  0
 18 15  2  0  0  0  0
 19  7  1  0  0  0  0
 20 29  1  6  0  0  0
 20 10  1  0  0  0  0
 21  4  1  0  0  0  0
 22 21  1  0  0  0  0
 24  2  2  0  0  0  0
 25  5  2  0  0  0  0
 27 14  1  0  0  0  0
 28 23  1  0  0  0  0
 28  9  1  0  0  0  0
 30 31  1  0  0  0  0
 30 29  1  0  0  0  0
 32 30  2  0  0  0  0
M  END
>  <MODEL>
7

>  <REMARK>
 VINA RESULT:      -8.7      3.064      5.681
  Name = 
  1 active torsions:
  status: ('A' for Active; 'I' for Inactive)
    1  A    between atoms: C_20  and  N_29
                            x       y       z     vdW  Elec       q    Type
                         _______ _______ _______ _____ _____    ______ ____

>  <TORSDO>
F 1

$$$$
=
 OpenBabel11122410423D

 32 37  0  0  1  0  0  0  0  0999 V2000
  192.8090  175.7640  135.3170 C   0  0  0  0  0  2  0  0  0  0  0  0
  189.4010  177.2230  139.4960 C   0  0  2  0  0  3  0  0  0  0  0  0
  191.6800  177.5900  143.7910 C   0  0  0  0  0  3  0  0  0  0  0  0
  190.5090  178.3660  144.3270 C   0  0  0  0  0  2  0  0  0  0  0  0
  186.9980  178.0400  139.3000 C   0  0  0  0  0  0  0  0  0  0  0  0
  185.8090  178.5490  139.9770 C   0  0  0  0  0  0  0  0  0  0  0  0
  190.7660  176.4490  137.5840 C   0  0  0  0  0  0  0  0  0  0  0  0
  191.8080  176.5910  139.7510 N   0  0  0  0  0  0  0  0  0  0  0  0
  184.4690  179.1670  141.6240 N   0  0  0  0  0  0  0  0  0  0  0  0
  193.1890  175.7840  137.8200 C   0  0  0  0  0  2  0  0  0  0  0  0
  191.6900  177.1320  142.5360 C   0  0  0  0  0  3  0  0  0  0  0  0
  190.5860  177.0380  140.3520 C   0  0  0  0  0  0  0  0  0  0  0  0
  190.5100  177.2920  141.6620 C   0  0  0  0  0  0  0  0  0  0  0  0
  188.1200  177.9000  141.5320 C   0  0  0  0  0  0  0  0  0  0  0  0
  183.6630  179.3920  140.4950 N   0  0  0  0  0  0  0  0  0  0  0  0
  191.5940  175.1850  135.7250 O   0  0  0  0  0  0  0  0  0  0  0  0
  191.8800  176.3140  138.3480 C   0  0  0  0  0  0  0  0  0  0  0  0
  184.5210  178.9940  139.3640 C   0  0  0  0  0  3  0  0  0  0  0  0
  190.7570  176.2440  136.0940 C   0  0  0  0  0  2  0  0  0  0  0  0
  193.5770  176.4080  136.4810 C   0  0  1  0  0  3  0  0  0  0  0  0
  189.1850  177.8250  143.7850 C   0  0  0  0  0  2  0  0  0  0  0  0
  189.2270  177.7170  142.2810 C   0  0  0  0  0  0  0  0  0  0  0  0
  186.8170  178.2600  142.2240 C   0  0  0  0  0  2  0  0  0  0  0  0
  189.5100  176.9370  138.1920 C   0  0  0  0  0  3  0  0  0  0  0  0
  186.9860  177.9160  138.0460 O   0  0  0  0  0  0  0  0  0  0  0  0
  184.0130  179.4110  142.9800 C   0  0  0  0  0  1  0  0  0  0  0  0
  188.1680  177.7070  140.0890 N   0  0  0  0  0  0  0  0  0  0  0  0
  185.7400  178.6740  141.2700 C   0  0  0  0  0  0  0  0  0  0  0  0
  195.0060  176.2590  136.2540 N   0  0  0  0  0  2  0  0  0  0  0  0
  195.7210  177.0830  135.3340 C   0  0  0  0  0  0  0  0  0  0  0  0
  195.0600  178.0570  134.5950 O   0  0  0  0  0  0  0  0  0  0  0  0
  196.9610  176.9260  135.1880 O   0  0  0  0  0  1  0  0  0  0  0  0
  1 16  1  0  0  0  0
  1 20  1  0  0  0  0
  2 24  1  6  0  0  0
  2 27  1  0  0  0  0
  2 12  1  0  0  0  0
  3  4  1  0  0  0  0
  5  6  1  0  0  0  0
  5 27  1  0  0  0  0
  6 28  2  0  0  0  0
  7 24  2  0  0  0  0
  7 17  1  0  0  0  0
  8 12  1  0  0  0  0
  9 26  1  0  0  0  0
 10 17  1  0  0  0  0
 11  3  2  0  0  0  0
 12 13  2  0  0  0  0
 13 22  1  0  0  0  0
 13 11  1  0  0  0  0
 14 23  1  0  0  0  0
 14 22  2  0  0  0  0
 15  9  1  0  0  0  0
 16 19  1  0  0  0  0
 17  8  2  0  0  0  0
 18  6  1  0  0  0  0
 18 15  2  0  0  0  0
 19  7  1  0  0  0  0
 20 29  1  6  0  0  0
 20 10  1  0  0  0  0
 21  4  1  0  0  0  0
 22 21  1  0  0  0  0
 25  5  2  0  0  0  0
 27 14  1  0  0  0  0
 28  9  1  0  0  0  0
 28 23  1  0  0  0  0
 30 29  1  0  0  0  0
 31 30  2  0  0  0  0
 32 30  1  0  0  0  0
M  END
>  <MODEL>
8

>  <REMARK>
 VINA RESULT:      -8.6      3.666      6.794
  Name = 
  1 active torsions:
  status: ('A' for Active; 'I' for Inactive)
    1  A    between atoms: C_20  and  N_29
                            x       y       z     vdW  Elec       q    Type
                         _______ _______ _______ _____ _____    ______ ____

>  <TORSDO>
F 1

$$$$
=
 OpenBabel11122410423D

 32 37  0  0  1  0  0  0  0  0999 V2000
  193.1830  176.3450  138.3170 C   0  0  0  0  0  2  0  0  0  0  0  0
  188.9990  177.6890  141.7670 C   0  0  0  0  0  0  0  0  0  0  0  0
  184.8040  178.5720  139.4440 C   0  0  0  0  0  3  0  0  0  0  0  0
  184.0700  178.4200  140.7470 C   0  0  0  0  0  2  0  0  0  0  0  0
  188.9900  177.5110  144.3070 C   0  0  0  0  0  0  0  0  0  0  0  0
  188.2390  177.6540  145.5510 C   0  0  0  0  0  0  0  0  0  0  0  0
  190.9690  177.2160  140.3480 C   0  0  0  0  0  0  0  0  0  0  0  0
  188.8780  177.7280  139.2690 N   0  0  0  0  0  2  0  0  0  0  0  0
  186.5730  178.1450  146.9190 N   0  0  0  0  0  0  0  0  0  0  0  0
  190.8770  177.2730  137.8270 C   0  0  0  0  0  2  0  0  0  0  0  0
  186.1330  178.4460  139.3800 C   0  0  0  0  0  3  0  0  0  0  0  0
  188.2240  177.9020  140.5320 C   0  0  0  0  0  0  0  0  0  0  0  0
  186.9340  178.2450  140.6050 C   0  0  0  0  0  0  0  0  0  0  0  0
  186.9520  178.2750  143.0740 C   0  0  0  0  0  0  0  0  0  0  0  0
  187.5550  177.6860  147.8130 N   0  0  0  0  0  0  0  0  0  0  0  0
  193.1290  177.3320  139.3180 O   0  0  0  0  0  0  0  0  0  0  0  0
  190.2620  177.3670  139.1990 C   0  0  0  0  0  0  0  0  0  0  0  0
  188.6930  177.3420  146.9400 C   0  0  0  0  0  3  0  0  0  0  0  0
  192.4080  176.7760  140.3810 C   0  0  0  0  0  2  0  0  0  0  0  0
  191.8100  176.0710  137.6830 C   0  0  1  0  0  3  0  0  0  0  0  0
  184.8700  179.0060  141.9110 C   0  0  0  0  0  2  0  0  0  0  0  0
  186.2780  178.4620  141.9210 C   0  0  0  0  0  0  0  0  0  0  0  0
  186.2560  178.5840  144.3880 C   0  0  0  0  0  2  0  0  0  0  0  0
  190.2950  177.3670  141.6550 C   0  0  0  0  0  3  0  0  0  0  0  0
  190.1810  177.1000  144.3500 O   0  0  0  0  0  0  0  0  0  0  0  0
  185.2700  178.6140  147.3520 C   0  0  0  0  0  1  0  0  0  0  0  0
  188.3380  177.8300  143.0510 N   0  0  0  0  0  0  0  0  0  0  0  0
  187.0190  178.1020  145.5840 C   0  0  0  0  0  0  0  0  0  0  0  0
  191.9870  175.7400  136.2780 N   0  0  0  0  0  2  0  0  0  0  0  0
  192.1140  174.3930  135.8230 C   0  0  0  0  0  0  0  0  0  0  0  0
  192.0940  173.3360  136.7260 O   0  0  0  0  0  1  0  0  0  0  0  0
  192.2470  174.1590  134.5940 O   0  0  0  0  0  0  0  0  0  0  0  0
  1 16  1  0  0  0  0
  2 27  1  0  0  0  0
  3  4  1  0  0  0  0
  4 21  1  0  0  0  0
  5 25  2  0  0  0  0
  5  6  1  0  0  0  0
  6 28  2  0  0  0  0
  6 18  1  0  0  0  0
  7 19  1  0  0  0  0
  7 24  1  0  0  0  0
  8 12  1  0  0  0  0
  9 26  1  0  0  0  0
  9 15  1  0  0  0  0
 10 17  1  0  0  0  0
 11  3  2  0  0  0  0
 11 13  1  0  0  0  0
 12 13  2  0  0  0  0
 12  2  1  0  0  0  0
 13 22  1  0  0  0  0
 14 23  1  0  0  0  0
 16 19  1  0  0  0  0
 17  8  1  0  0  0  0
 17  7  2  0  0  0  0
 18 15  2  0  0  0  0
 20 29  1  6  0  0  0
 20 10  1  0  0  0  0
 20  1  1  0  0  0  0
 21 22  1  0  0  0  0
 22 14  2  0  0  0  0
 23 28  1  0  0  0  0
 24  2  2  0  0  0  0
 27 14  1  0  0  0  0
 27  5  1  0  0  0  0
 28  9  1  0  0  0  0
 30 29  1  0  0  0  0
 30 31  1  0  0  0  0
 32 30  2  0  0  0  0
M  END
>  <MODEL>
9

>  <REMARK>
 VINA RESULT:      -8.5      2.805      3.781
  Name = 
  1 active torsions:
  status: ('A' for Active; 'I' for Inactive)
    1  A    between atoms: C_20  and  N_29
                            x       y       z     vdW  Elec       q    Type
                         _______ _______ _______ _____ _____    ______ ____

>  <TORSDO>
F 1

$$$$
