=
 OpenBabel11122410283D

 30 35  0  0  1  0  0  0  0  0999 V2000
  185.6800  178.4130  142.0720 C   0  0  0  0  0  0  0  0  0  0  0  0
  183.1880  178.7740  141.9240 C   0  0  0  0  0  0  0  0  0  0  0  0
  185.5280  178.3170  146.1820 N   0  0  0  0  0  0  0  0  0  0  0  0
  186.8300  178.2170  142.8750 C   0  0  0  0  0  0  0  0  0  0  0  0
  185.8410  178.3890  140.6460 N   0  0  0  0  0  0  0  0  0  0  0  0
  188.7300  179.7650  140.8490 O   0  0  0  0  0  1  0  0  0  0  0  0
  189.7990  178.0710  143.9340 C   0  0  1  0  0  3  0  0  0  0  0  0
  188.2740  178.4450  140.8350 C   0  0  2  0  0  3  0  0  0  0  0  0
  189.0720  178.0490  145.2700 C   0  0  2  0  0  3  0  0  0  0  0  0
  186.8500  178.1540  146.4040 C   0  0  0  0  0  0  0  0  0  0  0  0
  186.9980  178.3680  140.0490 C   0  0  0  0  0  0  0  0  0  0  0  0
  188.0790  177.9820  142.2080 N   0  0  0  0  0  0  0  0  0  0  0  0
  181.9670  178.9170  142.5920 C   0  0  0  0  0  3  0  0  0  0  0  0
  189.6460  176.8690  146.0280 C   0  0  0  0  0  2  0  0  0  0  0  0
  191.1840  177.5230  144.2440 C   0  0  0  0  0  2  0  0  0  0  0  0
  183.0980  178.8790  140.1710 Cl  0  0  0  0  0  0  0  0  0  0  0  0
  185.4440  178.3390  144.8420 C   0  0  0  0  0  0  0  0  0  0  0  0
  181.8950  178.8680  143.9800 C   0  0  0  0  0  3  0  0  0  0  0  0
  184.3870  178.5720  142.6690 C   0  0  0  0  0  0  0  0  0  0  0  0
  186.6800  178.1930  144.2740 C   0  0  0  0  0  0  0  0  0  0  0  0
  187.4180  178.1500  147.7840 C   0  0  0  0  0  1  0  0  0  0  0  0
  187.5970  178.0630  145.2680 N   0  0  0  0  0  0  0  0  0  0  0  0
  191.0870  176.7710  145.5650 C   0  0  0  0  0  2  0  0  0  0  0  0
  188.7500  175.8290  143.1990 C   0  0  0  0  0  1  0  0  0  0  0  0
  183.0510  178.6750  144.7270 C   0  0  0  0  0  3  0  0  0  0  0  0
  184.2860  178.5260  144.0900 C   0  0  0  0  0  0  0  0  0  0  0  0
  189.1690  177.2470  142.8180 C   0  0  2  0  0  3  0  0  0  0  0  0
  187.0770  178.3220  138.6550 O   0  0  0  0  0  0  0  0  0  0  0  0
  188.9000  178.9070  137.2130 C   0  0  0  0  0  1  0  0  0  0  0  0
  188.2090  177.7970  137.9760 C   0  0  0  0  0  2  0  0  0  0  0  0
  1 19  2  0  0  0  0
  1  4  1  0  0  0  0
  2 13  2  0  0  0  0
  2 19  1  0  0  0  0
  3 10  2  0  0  0  0
  4 20  2  0  0  0  0
  5  1  1  0  0  0  0
  7 15  1  1  0  0  0
  7  9  1  0  0  0  0
  8  6  1  1  0  0  0
  8 12  1  0  0  0  0
  9 14  1  6  0  0  0
 10 21  1  0  0  0  0
 11  5  2  0  0  0  0
 11  8  1  0  0  0  0
 12 27  1  0  0  0  0
 12  4  1  0  0  0  0
 13 18  1  0  0  0  0
 15 23  1  0  0  0  0
 16  2  1  0  0  0  0
 17  3  1  0  0  0  0
 18 25  2  0  0  0  0
 19 26  1  0  0  0  0
 20 17  1  0  0  0  0
 20 22  1  0  0  0  0
 22  9  1  0  0  0  0
 22 10  1  0  0  0  0
 23 14  1  0  0  0  0
 26 25  1  0  0  0  0
 26 17  2  0  0  0  0
 27 24  1  1  0  0  0
 27  7  1  0  0  0  0
 28 11  1  0  0  0  0
 29 30  1  0  0  0  0
 30 28  1  0  0  0  0
M  END
>  <MODEL>
1

>  <REMARK>
 VINA RESULT:      -9.9      0.000      0.000
  Name = 
  2 active torsions:
  status: ('A' for Active; 'I' for Inactive)
    1  A    between atoms: C_11  and  O_28
    2  A    between atoms: O_28  and  C_30
                            x       y       z     vdW  Elec       q    Type
                         _______ _______ _______ _____ _____    ______ ____

>  <TORSDO>
F 2

$$$$
=
 OpenBabel11122410283D

 30 35  0  0  1  0  0  0  0  0999 V2000
  185.4280  178.4280  141.4330 C   0  0  0  0  0  0  0  0  0  0  0  0
  185.4120  178.2330  143.9480 C   0  0  0  0  0  0  0  0  0  0  0  0
  189.4430  177.5450  141.2840 N   0  0  0  0  0  0  0  0  0  0  0  0
  186.1490  178.3540  140.2160 C   0  0  0  0  0  0  0  0  0  0  0  0
  184.0210  178.7030  141.3670 N   0  0  0  0  0  0  0  0  0  0  0  0
  184.4190  180.6390  138.8410 O   0  0  0  0  0  1  0  0  0  0  0  0
  187.0900  178.6950  137.2230 C   0  0  1  0  0  3  0  0  0  0  0  0
  184.1600  179.2760  138.9970 C   0  0  2  0  0  3  0  0  0  0  0  0
  188.4120  178.2620  137.8370 C   0  0  2  0  0  3  0  0  0  0  0  0
  189.5970  177.6490  139.9470 C   0  0  0  0  0  0  0  0  0  0  0  0
  183.4030  179.0570  140.2760 C   0  0  0  0  0  0  0  0  0  0  0  0
  185.4200  178.5360  138.9940 N   0  0  0  0  0  0  0  0  0  0  0  0
  186.1240  177.9690  145.1230 C   0  0  0  0  0  3  0  0  0  0  0  0
  188.9130  177.1260  136.9690 C   0  0  0  0  0  2  0  0  0  0  0  0
  187.2540  178.4290  135.7350 C   0  0  0  0  0  2  0  0  0  0  0  0
  183.7150  178.6350  144.1760 Cl  0  0  0  0  0  0  0  0  0  0  0  0
  188.1350  177.7930  141.4610 C   0  0  0  0  0  0  0  0  0  0  0  0
  187.4770  177.6500  145.0890 C   0  0  0  0  0  3  0  0  0  0  0  0
  186.0750  178.1760  142.6870 C   0  0  0  0  0  0  0  0  0  0  0  0
  187.5200  178.0400  140.2630 C   0  0  0  0  0  0  0  0  0  0  0  0
  190.9370  177.5210  139.3010 C   0  0  0  0  0  1  0  0  0  0  0  0
  188.4480  177.9410  139.2760 N   0  0  0  0  0  0  0  0  0  0  0  0
  188.4060  177.4450  135.5760 C   0  0  0  0  0  2  0  0  0  0  0  0
  185.9580  176.4480  137.8030 C   0  0  0  0  0  1  0  0  0  0  0  0
  188.1450  177.5910  143.8720 C   0  0  0  0  0  3  0  0  0  0  0  0
  187.4620  177.8470  142.6790 C   0  0  0  0  0  0  0  0  0  0  0  0
  185.8500  177.9690  137.7310 C   0  0  2  0  0  3  0  0  0  0  0  0
  182.0260  179.2880  140.2820 O   0  0  0  0  0  0  0  0  0  0  0  0
  180.5880  179.4640  142.1910 C   0  0  0  0  0  1  0  0  0  0  0  0
  181.1380  178.5540  141.1130 C   0  0  0  0  0  2  0  0  0  0  0  0
  1 19  1  0  0  0  0
  2 16  1  0  0  0  0
  2 13  1  0  0  0  0
  3 17  1  0  0  0  0
  4 20  1  0  0  0  0
  4  1  2  0  0  0  0
  5  1  1  0  0  0  0
  7 15  1  6  0  0  0
  7 27  1  0  0  0  0
  7  9  1  0  0  0  0
  8  6  1  1  0  0  0
  8 11  1  0  0  0  0
  9 14  1  6  0  0  0
  9 22  1  0  0  0  0
 10  3  2  0  0  0  0
 11 28  1  0  0  0  0
 11  5  2  0  0  0  0
 12  8  1  0  0  0  0
 12  4  1  0  0  0  0
 17 26  1  0  0  0  0
 18 13  2  0  0  0  0
 19  2  2  0  0  0  0
 20 17  2  0  0  0  0
 21 10  1  0  0  0  0
 22 10  1  0  0  0  0
 22 20  1  0  0  0  0
 23 15  1  0  0  0  0
 23 14  1  0  0  0  0
 25 18  1  0  0  0  0
 26 19  1  0  0  0  0
 26 25  2  0  0  0  0
 27 24  1  1  0  0  0
 27 12  1  0  0  0  0
 28 30  1  0  0  0  0
 30 29  1  0  0  0  0
M  END
>  <MODEL>
2

>  <REMARK>
 VINA RESULT:      -8.6      2.442      6.076
  Name = 
  2 active torsions:
  status: ('A' for Active; 'I' for Inactive)
    1  A    between atoms: C_11  and  O_28
    2  A    between atoms: O_28  and  C_30
                            x       y       z     vdW  Elec       q    Type
                         _______ _______ _______ _____ _____    ______ ____

>  <TORSDO>
F 2

$$$$
=
 OpenBabel11122410283D

 30 35  0  0  1  0  0  0  0  0999 V2000
  186.6660  178.4260  140.1680 C   0  0  0  0  0  0  0  0  0  0  0  0
  188.3770  178.1750  138.3330 C   0  0  0  0  0  0  0  0  0  0  0  0
  189.4000  177.2740  143.0180 N   0  0  0  0  0  0  0  0  0  0  0  0
  186.3460  178.3480  141.5460 C   0  0  0  0  0  0  0  0  0  0  0  0
  185.6460  178.8790  139.2650 N   0  0  0  0  0  0  0  0  0  0  0  0
  183.3480  177.4510  140.9860 O   0  0  0  0  0  1  0  0  0  0  0  0
  184.8140  178.1080  144.2940 C   0  0  1  0  0  3  0  0  0  0  0  0
  183.9280  178.7210  140.9920 C   0  0  2  0  0  3  0  0  0  0  0  0
  186.2110  177.7390  144.7710 C   0  0  2  0  0  3  0  0  0  0  0  0
  188.5770  177.3370  144.0880 C   0  0  0  0  0  0  0  0  0  0  0  0
  184.4030  179.0570  139.6080 C   0  0  0  0  0  0  0  0  0  0  0  0
  185.0290  178.7500  141.9520 N   0  0  0  0  0  0  0  0  0  0  0  0
  189.6900  177.8600  137.9680 C   0  0  0  0  0  3  0  0  0  0  0  0
  186.4790  178.6210  145.9730 C   0  0  0  0  0  2  0  0  0  0  0  0
  184.0720  178.5100  145.5600 C   0  0  0  0  0  2  0  0  0  0  0  0
  187.3140  178.6090  136.9990 Cl  0  0  0  0  0  0  0  0  0  0  0  0
  188.6110  177.6620  142.0030 C   0  0  0  0  0  0  0  0  0  0  0  0
  190.6320  177.4870  138.9210 C   0  0  0  0  0  3  0  0  0  0  0  0
  187.9850  178.1190  139.7020 C   0  0  0  0  0  0  0  0  0  0  0  0
  187.3490  177.9490  142.4490 C   0  0  0  0  0  0  0  0  0  0  0  0
  189.0250  176.9110  145.4460 C   0  0  0  0  0  1  0  0  0  0  0  0
  187.3140  177.7540  143.7930 N   0  0  0  0  0  0  0  0  0  0  0  0
  185.1210  178.8270  146.6180 C   0  0  0  0  0  2  0  0  0  0  0  0
  185.5550  180.4880  143.6170 C   0  0  0  0  0  1  0  0  0  0  0  0
  190.2730  177.4220  140.2620 C   0  0  0  0  0  3  0  0  0  0  0  0
  188.9690  177.7330  140.6590 C   0  0  0  0  0  0  0  0  0  0  0  0
  184.7340  179.2440  143.2820 C   0  0  2  0  0  3  0  0  0  0  0  0
  183.4690  179.5220  138.6780 O   0  0  0  0  0  0  0  0  0  0  0  0
  181.7980  181.2020  138.3190 C   0  0  0  0  0  1  0  0  0  0  0  0
  182.1620  179.9300  139.0550 C   0  0  0  0  0  2  0  0  0  0  0  0
  1  4  1  0  0  0  0
  2 19  1  0  0  0  0
  3 10  2  0  0  0  0
  4 12  1  0  0  0  0
  4 20  2  0  0  0  0
  5 11  2  0  0  0  0
  5  1  1  0  0  0  0
  7  9  1  0  0  0  0
  7 15  1  1  0  0  0
  8  6  1  6  0  0  0
  8 12  1  0  0  0  0
  9 14  1  1  0  0  0
 10 21  1  0  0  0  0
 11  8  1  0  0  0  0
 12 27  1  0  0  0  0
 13  2  2  0  0  0  0
 13 18  1  0  0  0  0
 14 23  1  0  0  0  0
 15 23  1  0  0  0  0
 16  2  1  0  0  0  0
 17 20  1  0  0  0  0
 17  3  1  0  0  0  0
 18 25  2  0  0  0  0
 19  1  2  0  0  0  0
 19 26  1  0  0  0  0
 20 22  1  0  0  0  0
 22 10  1  0  0  0  0
 22  9  1  0  0  0  0
 25 26  1  0  0  0  0
 26 17  2  0  0  0  0
 27 24  1  1  0  0  0
 27  7  1  0  0  0  0
 28 30  1  0  0  0  0
 28 11  1  0  0  0  0
 29 30  1  0  0  0  0
M  END
>  <MODEL>
3

>  <REMARK>
 VINA RESULT:      -8.4      2.220      5.302
  Name = 
  2 active torsions:
  status: ('A' for Active; 'I' for Inactive)
    1  A    between atoms: C_11  and  O_28
    2  A    between atoms: O_28  and  C_30
                            x       y       z     vdW  Elec       q    Type
                         _______ _______ _______ _____ _____    ______ ____

>  <TORSDO>
F 2

$$$$
=
 OpenBabel11122410283D

 30 35  0  0  1  0  0  0  0  0999 V2000
  188.4790  177.3580  144.6970 C   0  0  0  0  0  0  0  0  0  0  0  0
  186.9580  177.7990  146.6600 C   0  0  0  0  0  0  0  0  0  0  0  0
  185.6060  178.6430  142.0480 N   0  0  0  0  0  0  0  0  0  0  0  0
  188.6890  177.3860  143.2960 C   0  0  0  0  0  0  0  0  0  0  0  0
  189.5650  176.9290  145.5330 N   0  0  0  0  0  0  0  0  0  0  0  0
  190.5440  174.8040  143.3390 O   0  0  0  0  0  1  0  0  0  0  0  0
  189.7730  176.8500  140.3810 C   0  0  1  0  0  3  0  0  0  0  0  0
  190.8450  176.1400  143.6090 C   0  0  2  0  0  3  0  0  0  0  0  0
  188.4350  177.4800  140.0230 C   0  0  2  0  0  3  0  0  0  0  0  0
  186.3020  178.4230  140.9120 C   0  0  0  0  0  0  0  0  0  0  0  0
  190.6660  176.4040  145.0760 C   0  0  0  0  0  0  0  0  0  0  0  0
  189.9840  177.0060  142.8060 N   0  0  0  0  0  0  0  0  0  0  0  0
  185.7190  178.2540  147.1240 C   0  0  0  0  0  3  0  0  0  0  0  0
  188.7540  178.5710  139.0200 C   0  0  0  0  0  2  0  0  0  0  0  0
  190.6090  176.9820  139.1180 C   0  0  0  0  0  2  0  0  0  0  0  0
  188.0660  177.2440  147.9080 Cl  0  0  0  0  0  0  0  0  0  0  0  0
  186.4680  178.2760  143.0100 C   0  0  0  0  0  0  0  0  0  0  0  0
  184.7440  178.7100  146.2440 C   0  0  0  0  0  3  0  0  0  0  0  0
  187.2390  177.8010  145.2620 C   0  0  0  0  0  0  0  0  0  0  0  0
  187.6490  177.8470  142.4680 C   0  0  0  0  0  0  0  0  0  0  0  0
  185.6900  178.6280  139.5660 C   0  0  0  0  0  1  0  0  0  0  0  0
  187.5610  177.9450  141.1160 N   0  0  0  0  0  0  0  0  0  0  0  0
  189.9630  178.0620  138.2590 C   0  0  0  0  0  2  0  0  0  0  0  0
  190.6110  179.0110  141.5190 C   0  0  0  0  0  1  0  0  0  0  0  0
  184.9930  178.7170  144.8760 C   0  0  0  0  0  3  0  0  0  0  0  0
  186.2220  178.2720  144.3810 C   0  0  0  0  0  0  0  0  0  0  0  0
  190.5190  177.4870  141.5470 C   0  0  2  0  0  3  0  0  0  0  0  0
  191.6900  176.0310  145.9490 O   0  0  0  0  0  0  0  0  0  0  0  0
  192.8000  175.6270  148.0340 C   0  0  0  0  0  1  0  0  0  0  0  0
  191.6370  176.3050  147.3420 C   0  0  0  0  0  2  0  0  0  0  0  0
  1 19  1  0  0  0  0
  1  5  1  0  0  0  0
  2 13  1  0  0  0  0
  2 16  1  0  0  0  0
  3 17  1  0  0  0  0
  4  1  2  0  0  0  0
  7 15  1  6  0  0  0
  7 27  1  0  0  0  0
  8  6  1  1  0  0  0
  8 11  1  0  0  0  0
  9 14  1  6  0  0  0
  9  7  1  0  0  0  0
  9 22  1  0  0  0  0
 10 22  1  0  0  0  0
 10  3  2  0  0  0  0
 11  5  2  0  0  0  0
 11 28  1  0  0  0  0
 12  4  1  0  0  0  0
 12  8  1  0  0  0  0
 17 26  1  0  0  0  0
 18 13  2  0  0  0  0
 19  2  2  0  0  0  0
 20 17  2  0  0  0  0
 20  4  1  0  0  0  0
 21 10  1  0  0  0  0
 22 20  1  0  0  0  0
 23 14  1  0  0  0  0
 23 15  1  0  0  0  0
 25 18  1  0  0  0  0
 26 25  2  0  0  0  0
 26 19  1  0  0  0  0
 27 24  1  1  0  0  0
 27 12  1  0  0  0  0
 28 30  1  0  0  0  0
 30 29  1  0  0  0  0
M  END
>  <MODEL>
4

>  <REMARK>
 VINA RESULT:      -8.0      2.954      5.845
  Name = 
  2 active torsions:
  status: ('A' for Active; 'I' for Inactive)
    1  A    between atoms: C_11  and  O_28
    2  A    between atoms: O_28  and  C_30
                            x       y       z     vdW  Elec       q    Type
                         _______ _______ _______ _____ _____    ______ ____

>  <TORSDO>
F 2

$$$$
=
 OpenBabel11122410283D

 30 35  0  0  1  0  0  0  0  0999 V2000
  184.6950  178.6250  141.0170 C   0  0  0  0  0  0  0  0  0  0  0  0
  186.1120  178.3660  143.0870 C   0  0  0  0  0  0  0  0  0  0  0  0
  181.2790  179.0100  143.2770 N   0  0  0  0  0  0  0  0  0  0  0  0
  183.4160  178.8250  140.4410 C   0  0  0  0  0  0  0  0  0  0  0  0
  185.8250  178.5450  140.1360 N   0  0  0  0  0  0  0  0  0  0  0  0
  184.0910  177.0580  137.8850 O   0  0  0  0  0  1  0  0  0  0  0  0
  180.9640  178.9100  138.4560 C   0  0  1  0  0  3  0  0  0  0  0  0
  184.3880  178.3930  138.1690 C   0  0  2  0  0  3  0  0  0  0  0  0
  180.2090  179.0570  139.7680 C   0  0  2  0  0  3  0  0  0  0  0  0
  180.4040  179.1290  142.2560 C   0  0  0  0  0  0  0  0  0  0  0  0
  185.7280  178.4720  138.8390 C   0  0  0  0  0  0  0  0  0  0  0  0
  183.3380  178.9580  139.0140 N   0  0  0  0  0  0  0  0  0  0  0  0
  186.1790  178.3240  144.4830 C   0  0  0  0  0  3  0  0  0  0  0  0
  179.3040  180.2590  139.5870 C   0  0  0  0  0  2  0  0  0  0  0  0
  179.9950  179.4160  137.3990 C   0  0  0  0  0  2  0  0  0  0  0  0
  187.6490  178.1460  142.2580 Cl  0  0  0  0  0  0  0  0  0  0  0  0
  182.4630  178.9000  142.6540 C   0  0  0  0  0  0  0  0  0  0  0  0
  185.0370  178.4720  145.2630 C   0  0  0  0  0  3  0  0  0  0  0  0
  184.8580  178.5660  142.4390 C   0  0  0  0  0  0  0  0  0  0  0  0
  182.3040  178.9510  141.2950 C   0  0  0  0  0  0  0  0  0  0  0  0
  178.9310  179.2020  142.4910 C   0  0  0  0  0  1  0  0  0  0  0  0
  180.9830  179.1080  141.0230 N   0  0  0  0  0  0  0  0  0  0  0  0
  178.9470  180.2600  138.1130 C   0  0  0  0  0  2  0  0  0  0  0  0
  182.2190  181.1410  138.8000 C   0  0  0  0  0  1  0  0  0  0  0  0
  183.8020  178.6640  144.6540 C   0  0  0  0  0  3  0  0  0  0  0  0
  183.7020  178.7130  143.2610 C   0  0  0  0  0  0  0  0  0  0  0  0
  182.2730  179.6840  138.3500 C   0  0  2  0  0  3  0  0  0  0  0  0
  186.8750  178.4190  138.0440 O   0  0  0  0  0  0  0  0  0  0  0  0
  189.1470  178.7330  138.7400 C   0  0  0  0  0  1  0  0  0  0  0  0
  188.0490  177.7310  138.4500 C   0  0  0  0  0  2  0  0  0  0  0  0
  1 19  1  0  0  0  0
  2 13  1  0  0  0  0
  4  1  2  0  0  0  0
  4 20  1  0  0  0  0
  5  1  1  0  0  0  0
  7 15  1  6  0  0  0
  7  9  1  0  0  0  0
  8  6  1  1  0  0  0
  8 11  1  0  0  0  0
  8 12  1  0  0  0  0
  9 14  1  6  0  0  0
  9 22  1  0  0  0  0
 10 21  1  0  0  0  0
 10  3  2  0  0  0  0
 11  5  2  0  0  0  0
 12  4  1  0  0  0  0
 13 18  2  0  0  0  0
 15 23  1  0  0  0  0
 16  2  1  0  0  0  0
 17 26  1  0  0  0  0
 17  3  1  0  0  0  0
 19  2  2  0  0  0  0
 19 26  1  0  0  0  0
 20 17  2  0  0  0  0
 22 20  1  0  0  0  0
 22 10  1  0  0  0  0
 23 14  1  0  0  0  0
 25 18  1  0  0  0  0
 26 25  2  0  0  0  0
 27  7  1  0  0  0  0
 27 24  1  1  0  0  0
 27 12  1  0  0  0  0
 28 30  1  0  0  0  0
 28 11  1  0  0  0  0
 30 29  1  0  0  0  0
M  END
>  <MODEL>
5

>  <REMARK>
 VINA RESULT:      -7.9      3.019      6.873
  Name = 
  2 active torsions:
  status: ('A' for Active; 'I' for Inactive)
    1  A    between atoms: C_11  and  O_28
    2  A    between atoms: O_28  and  C_30
                            x       y       z     vdW  Elec       q    Type
                         _______ _______ _______ _____ _____    ______ ____

>  <TORSDO>
F 2

$$$$
=
 OpenBabel11122410283D

 30 35  0  0  1  0  0  0  0  0999 V2000
  189.5750  177.5430  141.2820 C   0  0  0  0  0  0  0  0  0  0  0  0
  190.6700  177.1300  139.0480 C   0  0  0  0  0  0  0  0  0  0  0  0
  186.0450  178.6290  139.4700 N   0  0  0  0  0  0  0  0  0  0  0  0
  188.4250  177.9240  142.0160 C   0  0  0  0  0  0  0  0  0  0  0  0
  190.7410  177.1440  142.0170 N   0  0  0  0  0  0  0  0  0  0  0  0
  190.1290  179.2710  144.3380 O   0  0  0  0  0  1  0  0  0  0  0  0
  186.4670  178.9380  144.2740 C   0  0  1  0  0  3  0  0  0  0  0  0
  189.7890  177.9340  144.1220 C   0  0  2  0  0  3  0  0  0  0  0  0
  185.5490  179.1080  143.0730 C   0  0  2  0  0  3  0  0  0  0  0  0
  185.3510  178.9170  140.5920 C   0  0  0  0  0  0  0  0  0  0  0  0
  190.8630  177.2730  143.3080 C   0  0  0  0  0  0  0  0  0  0  0  0
  188.4940  177.8620  143.4490 N   0  0  0  0  0  0  0  0  0  0  0  0
  190.5550  177.1150  137.6540 C   0  0  0  0  0  3  0  0  0  0  0  0
  184.2530  178.4170  143.4480 C   0  0  0  0  0  2  0  0  0  0  0  0
  185.5300  178.9170  145.4720 C   0  0  0  0  0  2  0  0  0  0  0  0
  192.2520  176.6810  139.6730 Cl  0  0  0  0  0  0  0  0  0  0  0  0
  187.2370  178.2290  139.9420 C   0  0  0  0  0  0  0  0  0  0  0  0
  189.3640  177.4610  137.0260 C   0  0  0  0  0  3  0  0  0  0  0  0
  189.5510  177.5020  139.8500 C   0  0  0  0  0  0  0  0  0  0  0  0
  187.2590  178.2740  141.3100 C   0  0  0  0  0  0  0  0  0  0  0  0
  183.9710  179.4810  140.5370 C   0  0  0  0  0  1  0  0  0  0  0  0
  186.0470  178.7070  141.7440 N   0  0  0  0  0  0  0  0  0  0  0  0
  184.1350  178.5950  144.9490 C   0  0  0  0  0  2  0  0  0  0  0  0
  186.5940  176.3780  143.9540 C   0  0  0  0  0  1  0  0  0  0  0  0
  188.2610  177.8300  137.7870 C   0  0  0  0  0  3  0  0  0  0  0  0
  188.3420  177.8530  139.1820 C   0  0  0  0  0  0  0  0  0  0  0  0
  187.3240  177.6780  144.2840 C   0  0  2  0  0  3  0  0  0  0  0  0
  192.0210  176.8410  143.9580 O   0  0  0  0  0  0  0  0  0  0  0  0
  192.0550  176.0160  146.2080 C   0  0  0  0  0  1  0  0  0  0  0  0
  192.0550  175.6540  144.7380 C   0  0  0  0  0  2  0  0  0  0  0  0
  1  4  1  0  0  0  0
  1  5  1  0  0  0  0
  2 16  1  0  0  0  0
  2 19  1  0  0  0  0
  3 17  1  0  0  0  0
  3 10  2  0  0  0  0
  4 12  1  0  0  0  0
  5 11  2  0  0  0  0
  7 27  1  0  0  0  0
  7 15  1  1  0  0  0
  8  6  1  6  0  0  0
  9 14  1  1  0  0  0
  9  7  1  0  0  0  0
 10 22  1  0  0  0  0
 11 28  1  0  0  0  0
 11  8  1  0  0  0  0
 12  8  1  0  0  0  0
 12 27  1  0  0  0  0
 13  2  2  0  0  0  0
 14 23  1  0  0  0  0
 17 20  1  0  0  0  0
 18 13  1  0  0  0  0
 18 25  2  0  0  0  0
 19  1  2  0  0  0  0
 20 22  1  0  0  0  0
 20  4  2  0  0  0  0
 21 10  1  0  0  0  0
 22  9  1  0  0  0  0
 23 15  1  0  0  0  0
 25 26  1  0  0  0  0
 26 19  1  0  0  0  0
 26 17  2  0  0  0  0
 27 24  1  6  0  0  0
 28 30  1  0  0  0  0
 30 29  1  0  0  0  0
M  END
>  <MODEL>
6

>  <REMARK>
 VINA RESULT:      -7.4      2.740      6.340
  Name = 
  2 active torsions:
  status: ('A' for Active; 'I' for Inactive)
    1  A    between atoms: C_11  and  O_28
    2  A    between atoms: O_28  and  C_30
                            x       y       z     vdW  Elec       q    Type
                         _______ _______ _______ _____ _____    ______ ____

>  <TORSDO>
F 2

$$$$
=
 OpenBabel11122410283D

 30 35  0  0  1  0  0  0  0  0999 V2000
  186.4090  178.0820  143.8580 C   0  0  0  0  0  0  0  0  0  0  0  0
  184.3110  178.5970  145.1580 C   0  0  0  0  0  0  0  0  0  0  0  0
  184.5050  178.8200  140.2870 N   0  0  0  0  0  0  0  0  0  0  0  0
  187.0650  177.9780  142.6070 C   0  0  0  0  0  0  0  0  0  0  0  0
  187.1810  177.8420  145.0450 N   0  0  0  0  0  0  0  0  0  0  0  0
  188.9250  175.5890  143.5750 O   0  0  0  0  0  1  0  0  0  0  0  0
  189.0680  177.2300  140.2860 C   0  0  1  0  0  3  0  0  0  0  0  0
  189.0560  176.9670  143.7500 C   0  0  2  0  0  3  0  0  0  0  0  0
  187.8930  177.6980  139.4410 C   0  0  2  0  0  3  0  0  0  0  0  0
  185.5440  178.5410  139.4720 C   0  0  0  0  0  0  0  0  0  0  0  0
  188.3940  177.3700  145.0360 C   0  0  0  0  0  0  0  0  0  0  0  0
  188.4660  177.6630  142.6090 N   0  0  0  0  0  0  0  0  0  0  0  0
  182.9680  178.9890  145.1400 C   0  0  0  0  0  3  0  0  0  0  0  0
  188.4700  178.6990  138.4600 C   0  0  0  0  0  2  0  0  0  0  0  0
  190.2640  177.2980  139.3500 C   0  0  0  0  0  2  0  0  0  0  0  0
  184.9740  178.2780  146.7560 Cl  0  0  0  0  0  0  0  0  0  0  0  0
  185.0200  178.6350  141.5140 C   0  0  0  0  0  0  0  0  0  0  0  0
  182.3140  179.2600  143.9420 C   0  0  0  0  0  3  0  0  0  0  0  0
  185.0330  178.4740  143.9360 C   0  0  0  0  0  0  0  0  0  0  0  0
  186.3330  178.2560  141.4370 C   0  0  0  0  0  0  0  0  0  0  0  0
  185.3970  178.5460  137.9860 C   0  0  0  0  0  1  0  0  0  0  0  0
  186.6880  178.2000  140.1270 N   0  0  0  0  0  0  0  0  0  0  0  0
  189.8840  178.2190  138.1970 C   0  0  0  0  0  2  0  0  0  0  0  0
  189.3830  179.5650  141.3420 C   0  0  0  0  0  1  0  0  0  0  0  0
  182.9970  179.1430  142.7370 C   0  0  0  0  0  3  0  0  0  0  0  0
  184.3400  178.7570  142.7230 C   0  0  0  0  0  0  0  0  0  0  0  0
  189.3590  178.0510  141.5360 C   0  0  2  0  0  3  0  0  0  0  0  0
  189.0930  177.1830  146.2310 O   0  0  0  0  0  0  0  0  0  0  0  0
  188.6900  178.2450  148.3410 C   0  0  0  0  0  1  0  0  0  0  0  0
  188.4320  177.0280  147.4790 C   0  0  0  0  0  2  0  0  0  0  0  0
  1 19  1  0  0  0  0
  1  5  1  0  0  0  0
  2 16  1  0  0  0  0
  3 17  1  0  0  0  0
  4 12  1  0  0  0  0
  4  1  2  0  0  0  0
  7 15  1  6  0  0  0
  7 27  1  0  0  0  0
  8  6  1  6  0  0  0
  8 11  1  0  0  0  0
  9 14  1  6  0  0  0
  9 22  1  0  0  0  0
  9  7  1  0  0  0  0
 10 22  1  0  0  0  0
 10  3  2  0  0  0  0
 11  5  2  0  0  0  0
 11 28  1  0  0  0  0
 12  8  1  0  0  0  0
 13  2  1  0  0  0  0
 17 26  1  0  0  0  0
 18 13  2  0  0  0  0
 19  2  2  0  0  0  0
 20 17  2  0  0  0  0
 20  4  1  0  0  0  0
 21 10  1  0  0  0  0
 22 20  1  0  0  0  0
 23 14  1  0  0  0  0
 23 15  1  0  0  0  0
 25 18  1  0  0  0  0
 26 25  2  0  0  0  0
 26 19  1  0  0  0  0
 27 24  1  6  0  0  0
 27 12  1  0  0  0  0
 28 30  1  0  0  0  0
 30 29  1  0  0  0  0
M  END
>  <MODEL>
7

>  <REMARK>
 VINA RESULT:      -7.2      2.255      5.449
  Name = 
  2 active torsions:
  status: ('A' for Active; 'I' for Inactive)
    1  A    between atoms: C_11  and  O_28
    2  A    between atoms: O_28  and  C_30
                            x       y       z     vdW  Elec       q    Type
                         _______ _______ _______ _____ _____    ______ ____

>  <TORSDO>
F 2

$$$$
=
 OpenBabel11122410283D

 30 35  0  0  1  0  0  0  0  0999 V2000
  188.1360  177.6710  143.2050 C   0  0  0  0  0  0  0  0  0  0  0  0
  188.6890  177.1450  145.6080 C   0  0  0  0  0  0  0  0  0  0  0  0
  192.0570  177.1450  142.0770 N   0  0  0  0  0  0  0  0  0  0  0  0
  188.5720  177.8180  141.8650 C   0  0  0  0  0  0  0  0  0  0  0  0
  186.7370  177.8370  143.4810 N   0  0  0  0  0  0  0  0  0  0  0  0
  186.4650  180.1160  141.2400 O   0  0  0  0  0  1  0  0  0  0  0  0
  188.8050  178.6270  138.8240 C   0  0  1  0  0  3  0  0  0  0  0  0
  186.3170  178.7280  141.2460 C   0  0  2  0  0  3  0  0  0  0  0  0
  190.2510  178.2250  139.0720 C   0  0  2  0  0  3  0  0  0  0  0  0
  191.9050  177.4370  140.7670 C   0  0  0  0  0  0  0  0  0  0  0  0
  185.8760  178.2810  142.6100 C   0  0  0  0  0  0  0  0  0  0  0  0
  187.5800  178.1000  140.8660 N   0  0  0  0  0  0  0  0  0  0  0  0
  189.6560  176.7870  146.5540 C   0  0  0  0  0  3  0  0  0  0  0  0
  190.6030  177.2590  137.9600 C   0  0  0  0  0  2  0  0  0  0  0  0
  188.6470  178.5740  137.3120 C   0  0  0  0  0  2  0  0  0  0  0  0
  187.0670  177.3740  146.2490 Cl  0  0  0  0  0  0  0  0  0  0  0  0
  190.8100  177.2610  142.5620 C   0  0  0  0  0  0  0  0  0  0  0  0
  190.9830  176.5860  146.1860 C   0  0  0  0  0  3  0  0  0  0  0  0
  189.0570  177.3090  144.2410 C   0  0  0  0  0  0  0  0  0  0  0  0
  189.9330  177.6120  141.5730 C   0  0  0  0  0  0  0  0  0  0  0  0
  193.0720  177.5050  139.8390 C   0  0  0  0  0  1  0  0  0  0  0  0
  190.6220  177.7210  140.4070 N   0  0  0  0  0  0  0  0  0  0  0  0
  189.7830  177.7170  136.7690 C   0  0  0  0  0  2  0  0  0  0  0  0
  187.9450  176.2380  139.2950 C   0  0  0  0  0  1  0  0  0  0  0  0
  191.3660  176.7430  144.8590 C   0  0  0  0  0  3  0  0  0  0  0  0
  190.4230  177.0990  143.8900 C   0  0  0  0  0  0  0  0  0  0  0  0
  187.7470  177.7410  139.4710 C   0  0  2  0  0  3  0  0  0  0  0  0
  184.5240  178.3950  142.9430 O   0  0  0  0  0  0  0  0  0  0  0  0
  183.6200  178.9410  145.0950 C   0  0  0  0  0  1  0  0  0  0  0  0
  184.0260  179.4650  143.7330 C   0  0  0  0  0  2  0  0  0  0  0  0
  1  5  1  0  0  0  0
  1 19  1  0  0  0  0
  2 16  1  0  0  0  0
  2 13  1  0  0  0  0
  3 17  1  0  0  0  0
  4  1  2  0  0  0  0
  7 15  1  6  0  0  0
  7  9  1  0  0  0  0
  7 27  1  0  0  0  0
  8  6  1  1  0  0  0
  8 11  1  0  0  0  0
  9 14  1  6  0  0  0
  9 22  1  0  0  0  0
 10  3  2  0  0  0  0
 11 28  1  0  0  0  0
 11  5  2  0  0  0  0
 12  8  1  0  0  0  0
 12  4  1  0  0  0  0
 17 26  1  0  0  0  0
 18 13  2  0  0  0  0
 19  2  2  0  0  0  0
 20  4  1  0  0  0  0
 20 17  2  0  0  0  0
 21 10  1  0  0  0  0
 22 10  1  0  0  0  0
 22 20  1  0  0  0  0
 23 15  1  0  0  0  0
 23 14  1  0  0  0  0
 25 18  1  0  0  0  0
 26 19  1  0  0  0  0
 26 25  2  0  0  0  0
 27 24  1  1  0  0  0
 27 12  1  0  0  0  0
 28 30  1  0  0  0  0
 30 29  1  0  0  0  0
M  END
>  <MODEL>
8

>  <REMARK>
 VINA RESULT:      -6.9      2.502      6.377
  Name = 
  2 active torsions:
  status: ('A' for Active; 'I' for Inactive)
    1  A    between atoms: C_11  and  O_28
    2  A    between atoms: O_28  and  C_30
                            x       y       z     vdW  Elec       q    Type
                         _______ _______ _______ _____ _____    ______ ____

>  <TORSDO>
F 2

$$$$
=
 OpenBabel11122410283D

 30 35  0  0  1  0  0  0  0  0999 V2000
  186.7690  177.9970  143.0310 C   0  0  0  0  0  0  0  0  0  0  0  0
  189.0160  177.2590  143.9050 C   0  0  0  0  0  0  0  0  0  0  0  0
  188.1290  177.9010  139.1500 N   0  0  0  0  0  0  0  0  0  0  0  0
  185.9450  178.3210  141.9250 C   0  0  0  0  0  0  0  0  0  0  0  0
  186.1800  178.0240  144.3400 N   0  0  0  0  0  0  0  0  0  0  0  0
  184.3050  180.5030  143.5540 O   0  0  0  0  0  1  0  0  0  0  0  0
  183.6540  179.4700  140.0840 C   0  0  1  0  0  3  0  0  0  0  0  0
  184.1630  179.1160  143.5020 C   0  0  2  0  0  3  0  0  0  0  0  0
  184.6840  179.1570  139.0090 C   0  0  2  0  0  3  0  0  0  0  0  0
  186.9910  178.3200  138.5540 C   0  0  0  0  0  0  0  0  0  0  0  0
  184.9900  178.4910  144.5890 C   0  0  0  0  0  0  0  0  0  0  0  0
  184.5680  178.6320  142.1840 N   0  0  0  0  0  0  0  0  0  0  0  0
  190.3320  176.8760  143.6250 C   0  0  0  0  0  3  0  0  0  0  0  0
  183.9490  178.3460  137.9620 C   0  0  0  0  0  2  0  0  0  0  0  0
  182.3360  179.5690  139.3330 C   0  0  0  0  0  2  0  0  0  0  0  0
  188.5950  177.2910  145.6130 Cl  0  0  0  0  0  0  0  0  0  0  0  0
  187.7970  177.8660  140.4510 C   0  0  0  0  0  0  0  0  0  0  0  0
  190.8030  176.8190  142.3180 C   0  0  0  0  0  3  0  0  0  0  0  0
  188.1310  177.5970  142.8400 C   0  0  0  0  0  0  0  0  0  0  0  0
  186.4970  178.2540  140.6320 C   0  0  0  0  0  0  0  0  0  0  0  0
  186.9260  178.5780  137.0850 C   0  0  0  0  0  1  0  0  0  0  0  0
  185.9610  178.5410  139.4170 N   0  0  0  0  0  0  0  0  0  0  0  0
  182.5250  178.8660  137.9940 C   0  0  0  0  0  2  0  0  0  0  0  0
  183.4300  176.9840  140.7490 C   0  0  0  0  0  1  0  0  0  0  0  0
  189.9590  177.1480  141.2630 C   0  0  0  0  0  3  0  0  0  0  0  0
  188.6380  177.5320  141.5090 C   0  0  0  0  0  0  0  0  0  0  0  0
  183.5210  178.4400  141.2000 C   0  0  2  0  0  3  0  0  0  0  0  0
  184.4730  178.4640  145.8860 O   0  0  0  0  0  0  0  0  0  0  0  0
  186.0560  179.5200  147.3440 C   0  0  0  0  0  1  0  0  0  0  0  0
  185.2940  178.2510  147.0260 C   0  0  0  0  0  2  0  0  0  0  0  0
  1  5  1  0  0  0  0
  2 16  1  0  0  0  0
  3 17  1  0  0  0  0
  4 12  1  0  0  0  0
  4  1  2  0  0  0  0
  5 11  2  0  0  0  0
  7 15  1  6  0  0  0
  7 27  1  0  0  0  0
  8  6  1  6  0  0  0
  8 11  1  0  0  0  0
  9 14  1  6  0  0  0
  9 22  1  0  0  0  0
  9  7  1  0  0  0  0
 10  3  2  0  0  0  0
 10 22  1  0  0  0  0
 11 28  1  0  0  0  0
 12  8  1  0  0  0  0
 13  2  1  0  0  0  0
 14 23  1  0  0  0  0
 17 20  2  0  0  0  0
 17 26  1  0  0  0  0
 18 13  2  0  0  0  0
 19  1  1  0  0  0  0
 19  2  2  0  0  0  0
 20  4  1  0  0  0  0
 21 10  1  0  0  0  0
 22 20  1  0  0  0  0
 23 15  1  0  0  0  0
 25 26  2  0  0  0  0
 25 18  1  0  0  0  0
 26 19  1  0  0  0  0
 27 24  1  6  0  0  0
 27 12  1  0  0  0  0
 28 30  1  0  0  0  0
 30 29  1  0  0  0  0
M  END
>  <MODEL>
9

>  <REMARK>
 VINA RESULT:      -6.9      2.773      7.237
  Name = 
  2 active torsions:
  status: ('A' for Active; 'I' for Inactive)
    1  A    between atoms: C_11  and  O_28
    2  A    between atoms: O_28  and  C_30
                            x       y       z     vdW  Elec       q    Type
                         _______ _______ _______ _____ _____    ______ ____

>  <TORSDO>
F 2

$$$$
