=
 OpenBabel11122410383D

 32 37  0  0  1  0  0  0  0  0999 V2000
  188.3980  178.0670  142.4250 C   0  0  0  0  0  2  0  0  0  0  0  0
  189.5490  176.4000  137.1410 C   0  0  1  0  0  3  0  0  0  0  0  0
  194.3000  176.7260  136.2830 O   0  0  0  0  0  0  0  0  0  0  0  0
  194.3690  175.5950  135.4500 C   0  0  0  0  0  2  0  0  0  0  0  0
  188.0880  176.0070  135.0250 C   0  0  1  0  0  3  0  0  0  0  0  0
  187.7950  174.5110  135.1880 C   0  0  2  0  0  3  0  0  0  0  0  0
  188.6080  177.2240  139.3450 C   0  0  1  0  0  3  0  0  0  0  0  0
  191.0300  176.6180  139.1190 C   0  0  0  0  0  3  0  0  0  0  0  0
  188.6540  172.4110  135.6440 C   0  0  0  0  0  0  0  0  0  0  0  0
  190.1630  176.5620  141.3860 C   0  0  0  0  0  2  0  0  0  0  0  0
  193.4660  176.3870  137.3710 C   0  0  0  0  0  2  0  0  0  0  0  0
  190.9560  176.7920  137.6260 C   0  0  1  0  0  3  0  0  0  0  0  0
  192.0450  175.9720  136.9280 C   0  0  1  0  0  3  0  0  0  0  0  0
  190.5310  175.6080  134.9310 C   0  0  1  0  0  3  0  0  0  0  0  0
  187.7250  172.6770  136.6780 N   0  0  0  0  0  2  0  0  0  0  0  0
  188.5980  179.0050  141.2340 C   0  0  0  0  0  2  0  0  0  0  0  0
  189.9810  176.8580  139.9190 C   0  0  0  0  0  0  0  0  0  0  0  0
  187.3290  174.0700  136.5800 C   0  0  0  0  0  2  0  0  0  0  0  0
  187.9560  178.4820  139.9480 C   0  0  0  0  0  2  0  0  0  0  0  0
  188.8500  176.6250  142.1620 C   0  0  1  0  0  3  0  0  0  0  0  0
  193.0600  175.4200  134.6680 C   0  0  0  0  0  2  0  0  0  0  0  0
  191.9000  176.0930  135.4040 C   0  0  2  0  0  3  0  0  0  0  0  0
  190.3270  174.1200  135.2490 C   0  0  0  0  0  2  0  0  0  0  0  0
  188.5720  177.3550  137.8170 C   0  0  0  0  0  2  0  0  0  0  0  0
  186.9080  176.8990  135.3770 C   0  0  0  0  0  1  0  0  0  0  0  0
  189.1770  171.2770  135.4810 O   0  0  0  0  0  0  0  0  0  0  0  0
  189.4400  176.4600  135.5970 C   0  0  2  0  0  3  0  0  0  0  0  0
  188.9610  173.5860  134.7990 C   0  0  2  0  0  3  0  0  0  0  0  0
  189.0010  175.8750  143.4750 C   0  0  0  0  0  2  0  0  0  0  0  0
  189.3640  176.8090  144.5790 C   0  0  0  0  0  0  0  0  0  0  0  0
  190.7130  177.2340  144.7370 N   0  0  0  0  0  1  0  0  0  0  0  0
  188.4830  177.2030  145.3860 O   0  0  0  0  0  0  0  0  0  0  0  0
  2 12  1  0  0  0  0
  2 24  1  1  0  0  0
  3 11  1  0  0  0  0
  4  3  1  0  0  0  0
  5  6  1  0  0  0  0
  5 25  1  1  0  0  0
  5 27  1  0  0  0  0
  6 18  1  1  0  0  0
  7 24  1  6  0  0  0
  7 17  1  0  0  0  0
  7 19  1  0  0  0  0
  8 17  2  0  0  0  0
  9 15  1  0  0  0  0
 10 20  1  0  0  0  0
 12  8  1  1  0  0  0
 13 11  1  1  0  0  0
 13 12  1  0  0  0  0
 14 23  1  1  0  0  0
 14 22  1  0  0  0  0
 14 27  1  0  0  0  0
 16  1  1  0  0  0  0
 17 10  1  0  0  0  0
 18 15  1  0  0  0  0
 19 16  1  0  0  0  0
 20  1  1  0  0  0  0
 20 29  1  1  0  0  0
 21  4  1  0  0  0  0
 22 21  1  6  0  0  0
 22 13  1  0  0  0  0
 26  9  2  0  0  0  0
 27  2  1  0  0  0  0
 28  6  1  0  0  0  0
 28 23  1  0  0  0  0
 28  9  1  0  0  0  0
 29 30  1  0  0  0  0
 30 31  1  0  0  0  0
 30 32  2  0  0  0  0
M  END
>  <MODEL>
1

>  <REMARK>
 VINA RESULT:      -6.7      0.000      0.000
  Name = 
  2 active torsions:
  status: ('A' for Active; 'I' for Inactive)
    1  A    between atoms: C_20  and  C_29
    2  A    between atoms: C_29  and  C_30
                            x       y       z     vdW  Elec       q    Type
                         _______ _______ _______ _____ _____    ______ ____

>  <TORSDO>
F 2

$$$$
=
 OpenBabel11122410383D

 32 37  0  0  1  0  0  0  0  0999 V2000
  189.0770  178.3950  136.9580 C   0  0  0  0  0  2  0  0  0  0  0  0
  184.0860  175.8250  136.2460 C   0  0  1  0  0  3  0  0  0  0  0  0
  184.7150  171.0500  135.7840 O   0  0  0  0  0  0  0  0  0  0  0  0
  183.5310  170.6880  136.4510 C   0  0  0  0  0  2  0  0  0  0  0  0
  181.7050  176.6700  135.6310 C   0  0  1  0  0  3  0  0  0  0  0  0
  181.1350  176.8830  137.0380 C   0  0  2  0  0  3  0  0  0  0  0  0
  186.1030  177.3520  136.4070 C   0  0  1  0  0  3  0  0  0  0  0  0
  186.2790  174.9120  136.9600 C   0  0  0  0  0  3  0  0  0  0  0  0
  180.8620  176.0120  139.1650 C   0  0  0  0  0  0  0  0  0  0  0  0
  187.9960  176.3170  137.9460 C   0  0  0  0  0  2  0  0  0  0  0  0
  185.2990  172.1030  136.5210 C   0  0  0  0  0  2  0  0  0  0  0  0
  185.0390  174.6200  136.1590 C   0  0  1  0  0  3  0  0  0  0  0  0
  184.3690  173.3320  136.6460 C   0  0  1  0  0  3  0  0  0  0  0  0
  182.0890  174.2610  136.0540 C   0  0  1  0  0  3  0  0  0  0  0  0
  181.6300  177.1890  139.3280 N   0  0  0  0  0  2  0  0  0  0  0  0
  188.4950  177.9710  135.6100 C   0  0  0  0  0  2  0  0  0  0  0  0
  186.8030  176.1440  137.0420 C   0  0  0  0  0  0  0  0  0  0  0  0
  182.0330  177.6510  138.0130 C   0  0  0  0  0  2  0  0  0  0  0  0
  186.9910  178.2270  135.5030 C   0  0  0  0  0  2  0  0  0  0  0  0
  188.3550  177.7850  138.1660 C   0  0  1  0  0  3  0  0  0  0  0  0
  182.4380  171.7400  136.2180 C   0  0  0  0  0  2  0  0  0  0  0  0
  183.0610  173.0960  135.8760 C   0  0  2  0  0  3  0  0  0  0  0  0
  181.6800  174.4260  137.5240 C   0  0  0  0  0  2  0  0  0  0  0  0
  184.8240  177.0100  135.6320 C   0  0  0  0  0  2  0  0  0  0  0  0
  182.0810  177.9650  134.9270 C   0  0  0  0  0  1  0  0  0  0  0  0
  180.3750  175.3820  140.1400 O   0  0  0  0  0  0  0  0  0  0  0  0
  182.7440  175.5450  135.5240 C   0  0  2  0  0  3  0  0  0  0  0  0
  180.7070  175.5900  137.7560 C   0  0  2  0  0  3  0  0  0  0  0  0
  189.2140  177.9140  139.4130 C   0  0  0  0  0  2  0  0  0  0  0  0
  188.3840  178.2960  140.5910 C   0  0  0  0  0  0  0  0  0  0  0  0
  187.0240  178.6720  140.4100 N   0  0  0  0  0  1  0  0  0  0  0  0
  188.8920  178.3080  141.7420 O   0  0  0  0  0  0  0  0  0  0  0  0
  1 20  1  0  0  0  0
  2 24  1  6  0  0  0
  3  4  1  0  0  0  0
  3 11  1  0  0  0  0
  5 25  1  1  0  0  0
  5  6  1  0  0  0  0
  6 28  1  0  0  0  0
  6 18  1  1  0  0  0
  7 19  1  6  0  0  0
  7 17  1  0  0  0  0
  8 17  2  0  0  0  0
  9 15  1  0  0  0  0
  9 26  2  0  0  0  0
 10 20  1  0  0  0  0
 12  2  1  0  0  0  0
 12 13  1  0  0  0  0
 12  8  1  1  0  0  0
 13 11  1  6  0  0  0
 14 23  1  1  0  0  0
 16  1  1  0  0  0  0
 17 10  1  0  0  0  0
 18 15  1  0  0  0  0
 19 16  1  0  0  0  0
 20 29  1  1  0  0  0
 21  4  1  0  0  0  0
 22 14  1  0  0  0  0
 22 21  1  1  0  0  0
 22 13  1  0  0  0  0
 23 28  1  0  0  0  0
 24  7  1  0  0  0  0
 27  5  1  0  0  0  0
 27 14  1  0  0  0  0
 27  2  1  0  0  0  0
 28  9  1  0  0  0  0
 29 30  1  0  0  0  0
 30 32  2  0  0  0  0
 31 30  1  0  0  0  0
M  END
>  <MODEL>
2

>  <REMARK>
 VINA RESULT:      -6.4      4.530      7.305
  Name = 
  2 active torsions:
  status: ('A' for Active; 'I' for Inactive)
    1  A    between atoms: C_20  and  C_29
    2  A    between atoms: C_29  and  C_30
                            x       y       z     vdW  Elec       q    Type
                         _______ _______ _______ _____ _____    ______ ____

>  <TORSDO>
F 2

$$$$
=
 OpenBabel11122410383D

 32 37  0  0  1  0  0  0  0  0999 V2000
  186.9070  176.3100  136.0510 C   0  0  0  0  0  2  0  0  0  0  0  0
  182.2660  177.8580  138.8940 C   0  0  1  0  0  3  0  0  0  0  0  0
  183.2720  178.3400  143.6020 O   0  0  0  0  0  0  0  0  0  0  0  0
  182.3940  179.4170  143.8220 C   0  0  0  0  0  2  0  0  0  0  0  0
  179.7290  177.8630  138.3200 C   0  0  1  0  0  3  0  0  0  0  0  0
  179.5910  179.2890  137.7740 C   0  0  2  0  0  3  0  0  0  0  0  0
  184.0460  177.0030  137.3060 C   0  0  1  0  0  3  0  0  0  0  0  0
  184.6620  178.0200  139.5140 C   0  0  0  0  0  3  0  0  0  0  0  0
  180.0760  181.5310  138.0790 C   0  0  0  0  0  0  0  0  0  0  0  0
  186.4230  178.0470  137.8430 C   0  0  0  0  0  2  0  0  0  0  0  0
  183.9250  178.5840  142.3740 C   0  0  0  0  0  2  0  0  0  0  0  0
  183.2800  177.7510  140.0460 C   0  0  1  0  0  3  0  0  0  0  0  0
  182.9420  178.7120  141.1890 C   0  0  1  0  0  3  0  0  0  0  0  0
  180.4980  178.6870  140.5250 C   0  0  1  0  0  3  0  0  0  0  0  0
  180.7170  181.1610  136.8720 N   0  0  0  0  0  2  0  0  0  0  0  0
  185.9970  175.3590  136.8270 C   0  0  0  0  0  2  0  0  0  0  0  0
  185.0400  177.6410  138.2840 C   0  0  0  0  0  0  0  0  0  0  0  0
  180.6470  179.7170  136.7490 C   0  0  0  0  0  2  0  0  0  0  0  0
  184.5130  175.6850  136.6610 C   0  0  0  0  0  2  0  0  0  0  0  0
  186.6590  177.7930  136.3560 C   0  0  1  0  0  3  0  0  0  0  0  0
  181.1680  179.3100  142.9050 C   0  0  0  0  0  2  0  0  0  0  0  0
  181.4980  178.4820  141.6600 C   0  0  2  0  0  3  0  0  0  0  0  0
  180.5360  180.1300  140.0020 C   0  0  0  0  0  2  0  0  0  0  0  0
  182.6410  176.7820  137.8810 C   0  0  0  0  0  2  0  0  0  0  0  0
  179.7230  176.7950  137.2370 C   0  0  0  0  0  1  0  0  0  0  0  0
  179.9830  182.7290  138.4540 O   0  0  0  0  0  0  0  0  0  0  0  0
  180.8100  177.6920  139.3970 C   0  0  2  0  0  3  0  0  0  0  0  0
  179.5520  180.3850  138.8530 C   0  0  2  0  0  3  0  0  0  0  0  0
  187.8350  178.6310  135.8800 C   0  0  0  0  0  2  0  0  0  0  0  0
  188.8820  178.7210  136.9380 C   0  0  0  0  0  0  0  0  0  0  0  0
  189.7470  177.6180  137.1800 N   0  0  0  0  0  1  0  0  0  0  0  0
  188.9840  179.7650  137.6340 O   0  0  0  0  0  0  0  0  0  0  0  0
  1 20  1  0  0  0  0
  1 16  1  0  0  0  0
  2 24  1  6  0  0  0
  2 27  1  0  0  0  0
  2 12  1  0  0  0  0
  3  4  1  0  0  0  0
  5 25  1  6  0  0  0
  5 27  1  0  0  0  0
  6 18  1  6  0  0  0
  6  5  1  0  0  0  0
  6 28  1  0  0  0  0
  7 19  1  1  0  0  0
  7 24  1  0  0  0  0
  7 17  1  0  0  0  0
  9 26  2  0  0  0  0
  9 28  1  0  0  0  0
 10 17  1  0  0  0  0
 11  3  1  0  0  0  0
 12  8  1  6  0  0  0
 12 13  1  0  0  0  0
 13 22  1  0  0  0  0
 13 11  1  1  0  0  0
 14 23  1  6  0  0  0
 14 22  1  0  0  0  0
 15  9  1  0  0  0  0
 17  8  2  0  0  0  0
 18 15  1  0  0  0  0
 19 16  1  0  0  0  0
 20 29  1  1  0  0  0
 20 10  1  0  0  0  0
 21  4  1  0  0  0  0
 22 21  1  1  0  0  0
 27 14  1  0  0  0  0
 28 23  1  0  0  0  0
 29 30  1  0  0  0  0
 30 31  1  0  0  0  0
 30 32  2  0  0  0  0
M  END
>  <MODEL>
3

>  <REMARK>
 VINA RESULT:      -6.2      6.241      9.786
  Name = 
  2 active torsions:
  status: ('A' for Active; 'I' for Inactive)
    1  A    between atoms: C_20  and  C_29
    2  A    between atoms: C_29  and  C_30
                            x       y       z     vdW  Elec       q    Type
                         _______ _______ _______ _____ _____    ______ ____

>  <TORSDO>
F 2

$$$$
=
 OpenBabel11122410383D

 32 37  0  0  1  0  0  0  0  0999 V2000
  185.4800  178.9950  145.2720 C   0  0  0  0  0  2  0  0  0  0  0  0
  184.9180  178.3680  139.6760 C   0  0  1  0  0  3  0  0  0  0  0  0
  189.1390  179.2130  137.4660 O   0  0  0  0  0  0  0  0  0  0  0  0
  188.9610  178.2540  136.4540 C   0  0  0  0  0  2  0  0  0  0  0  0
  182.8660  178.2360  138.0830 C   0  0  1  0  0  3  0  0  0  0  0  0
  182.6700  176.7160  138.0410 C   0  0  2  0  0  3  0  0  0  0  0  0
  184.7130  178.7200  142.1770 C   0  0  1  0  0  3  0  0  0  0  0  0
  186.9480  178.3560  141.1010 C   0  0  0  0  0  3  0  0  0  0  0  0
  183.6710  174.6430  137.8000 C   0  0  0  0  0  0  0  0  0  0  0  0
  186.8510  177.8380  143.4710 C   0  0  0  0  0  2  0  0  0  0  0  0
  188.7030  178.6260  138.6740 C   0  0  0  0  0  2  0  0  0  0  0  0
  186.3980  178.7810  139.7670 C   0  0  1  0  0  3  0  0  0  0  0  0
  187.2230  178.1830  138.6230 C   0  0  1  0  0  3  0  0  0  0  0  0
  185.1580  178.0530  137.1630 C   0  0  1  0  0  3  0  0  0  0  0  0
  183.1150  174.6510  139.1020 N   0  0  0  0  0  2  0  0  0  0  0  0
  185.2710  180.1380  144.2790 C   0  0  0  0  0  2  0  0  0  0  0  0
  186.2050  178.3690  142.2170 C   0  0  0  0  0  0  0  0  0  0  0  0
  182.6800  176.0040  139.3980 C   0  0  0  0  0  2  0  0  0  0  0  0
  184.2630  179.7980  143.1810 C   0  0  0  0  0  2  0  0  0  0  0  0
  185.8530  177.6610  144.6130 C   0  0  1  0  0  3  0  0  0  0  0  0
  187.4740  178.1140  136.0980 C   0  0  0  0  0  2  0  0  0  0  0  0
  186.5960  178.5560  137.2720 C   0  0  2  0  0  3  0  0  0  0  0  0
  185.0960  176.5220  137.2390 C   0  0  0  0  0  2  0  0  0  0  0  0
  184.1890  179.1120  140.7900 C   0  0  0  0  0  2  0  0  0  0  0  0
  181.8420  178.9570  138.9460 C   0  0  0  0  0  1  0  0  0  0  0  0
  184.1360  173.6000  137.2710 O   0  0  0  0  0  0  0  0  0  0  0  0
  184.3200  178.6880  138.2830 C   0  0  2  0  0  3  0  0  0  0  0  0
  183.6680  175.9670  137.1420 C   0  0  2  0  0  3  0  0  0  0  0  0
  186.4300  176.7080  145.6470 C   0  0  0  0  0  2  0  0  0  0  0  0
  187.4750  177.3860  146.4660 C   0  0  0  0  0  0  0  0  0  0  0  0
  188.8150  177.4580  145.9920 N   0  0  0  0  0  1  0  0  0  0  0  0
  187.1780  177.8740  147.5870 O   0  0  0  0  0  0  0  0  0  0  0  0
  2 12  1  0  0  0  0
  2 24  1  1  0  0  0
  3 11  1  0  0  0  0
  4  3  1  0  0  0  0
  5 27  1  0  0  0  0
  5 25  1  1  0  0  0
  6  5  1  0  0  0  0
  6 18  1  1  0  0  0
  7 24  1  6  0  0  0
  7 17  1  0  0  0  0
  7 19  1  0  0  0  0
  8 17  2  0  0  0  0
  9 15  1  0  0  0  0
 10 20  1  0  0  0  0
 12  8  1  1  0  0  0
 13 11  1  6  0  0  0
 13 12  1  0  0  0  0
 14 23  1  1  0  0  0
 14 22  1  0  0  0  0
 14 27  1  0  0  0  0
 15 18  1  0  0  0  0
 16  1  1  0  0  0  0
 17 10  1  0  0  0  0
 19 16  1  0  0  0  0
 20  1  1  0  0  0  0
 20 29  1  1  0  0  0
 21  4  1  0  0  0  0
 22 21  1  6  0  0  0
 22 13  1  0  0  0  0
 26  9  2  0  0  0  0
 27  2  1  0  0  0  0
 28 23  1  0  0  0  0
 28  9  1  0  0  0  0
 28  6  1  0  0  0  0
 29 30  1  0  0  0  0
 30 32  2  0  0  0  0
 31 30  1  0  0  0  0
M  END
>  <MODEL>
4

>  <REMARK>
 VINA RESULT:      -6.0      3.733      5.343
  Name = 
  2 active torsions:
  status: ('A' for Active; 'I' for Inactive)
    1  A    between atoms: C_20  and  C_29
    2  A    between atoms: C_29  and  C_30
                            x       y       z     vdW  Elec       q    Type
                         _______ _______ _______ _____ _____    ______ ____

>  <TORSDO>
F 2

$$$$
=
 OpenBabel11122410383D

 32 37  0  0  1  0  0  0  0  0999 V2000
  180.8000  180.0240  140.6660 C   0  0  0  0  0  2  0  0  0  0  0  0
  184.6080  177.4900  137.3340 C   0  0  1  0  0  3  0  0  0  0  0  0
  189.0690  179.0020  138.4430 O   0  0  0  0  0  0  0  0  0  0  0  0
  189.7000  177.7710  138.1900 C   0  0  0  0  0  2  0  0  0  0  0  0
  184.4380  176.1490  135.1110 C   0  0  1  0  0  3  0  0  0  0  0  0
  184.3260  174.7280  135.6760 C   0  0  2  0  0  3  0  0  0  0  0  0
  182.6040  178.5270  138.4870 C   0  0  1  0  0  3  0  0  0  0  0  0
  184.8890  178.6410  139.5130 C   0  0  0  0  0  3  0  0  0  0  0  0
  185.1530  173.1740  137.1780 C   0  0  0  0  0  0  0  0  0  0  0  0
  183.0470  178.9080  141.0720 C   0  0  0  0  0  2  0  0  0  0  0  0
  187.8710  178.7170  139.1350 C   0  0  0  0  0  2  0  0  0  0  0  0
  185.5260  178.3980  138.1710 C   0  0  1  0  0  3  0  0  0  0  0  0
  186.9240  177.7950  138.3350 C   0  0  1  0  0  3  0  0  0  0  0  0
  186.6450  176.4950  136.1800 C   0  0  1  0  0  3  0  0  0  0  0  0
  183.8100  173.4030  137.5630 N   0  0  0  0  0  2  0  0  0  0  0  0
  181.4140  180.6420  139.4090 C   0  0  0  0  0  2  0  0  0  0  0  0
  183.5610  178.7500  139.6640 C   0  0  0  0  0  0  0  0  0  0  0  0
  183.3120  174.5380  136.8090 C   0  0  0  0  0  2  0  0  0  0  0  0
  181.5640  179.6400  138.2640 C   0  0  0  0  0  2  0  0  0  0  0  0
  181.5290  178.7680  141.1590 C   0  0  1  0  0  3  0  0  0  0  0  0
  188.9790  177.0160  137.0640 C   0  0  0  0  0  2  0  0  0  0  0  0
  187.5220  177.4730  136.9580 C   0  0  2  0  0  3  0  0  0  0  0  0
  186.5340  175.1470  136.9060 C   0  0  0  0  0  2  0  0  0  0  0  0
  183.2980  178.2460  137.1480 C   0  0  0  0  0  2  0  0  0  0  0  0
  183.1190  176.7030  134.5950 C   0  0  0  0  0  1  0  0  0  0  0  0
  185.8490  172.2480  137.6710 O   0  0  0  0  0  0  0  0  0  0  0  0
  185.2560  177.1190  135.9770 C   0  0  2  0  0  3  0  0  0  0  0  0
  185.6550  174.1300  136.1670 C   0  0  2  0  0  3  0  0  0  0  0  0
  181.1310  178.4590  142.5930 C   0  0  0  0  0  2  0  0  0  0  0  0
  179.6960  178.0620  142.6690 C   0  0  0  0  0  0  0  0  0  0  0  0
  179.1840  177.0700  141.7880 N   0  0  0  0  0  1  0  0  0  0  0  0
  178.9310  178.6220  143.4970 O   0  0  0  0  0  0  0  0  0  0  0  0
  1 20  1  0  0  0  0
  2 24  1  6  0  0  0
  2 12  1  0  0  0  0
  3 11  1  0  0  0  0
  4  3  1  0  0  0  0
  5 25  1  1  0  0  0
  5  6  1  0  0  0  0
  5 27  1  0  0  0  0
  6 28  1  0  0  0  0
  6 18  1  1  0  0  0
  7 24  1  6  0  0  0
  7 17  1  0  0  0  0
  8 17  2  0  0  0  0
  9 15  1  0  0  0  0
  9 26  2  0  0  0  0
 10 20  1  0  0  0  0
 12 13  1  0  0  0  0
 12  8  1  1  0  0  0
 13 11  1  6  0  0  0
 14 23  1  1  0  0  0
 14 22  1  0  0  0  0
 16  1  1  0  0  0  0
 17 10  1  0  0  0  0
 18 15  1  0  0  0  0
 19  7  1  0  0  0  0
 19 16  1  0  0  0  0
 20 29  1  1  0  0  0
 21  4  1  0  0  0  0
 22 21  1  1  0  0  0
 22 13  1  0  0  0  0
 27 14  1  0  0  0  0
 27  2  1  0  0  0  0
 28 23  1  0  0  0  0
 28  9  1  0  0  0  0
 29 30  1  0  0  0  0
 30 32  2  0  0  0  0
 31 30  1  0  0  0  0
M  END
>  <MODEL>
5

>  <REMARK>
 VINA RESULT:      -5.9      4.990      6.288
  Name = 
  2 active torsions:
  status: ('A' for Active; 'I' for Inactive)
    1  A    between atoms: C_20  and  C_29
    2  A    between atoms: C_29  and  C_30
                            x       y       z     vdW  Elec       q    Type
                         _______ _______ _______ _____ _____    ______ ____

>  <TORSDO>
F 2

$$$$
=
 OpenBabel11122410383D

 32 37  0  0  1  0  0  0  0  0999 V2000
  180.4670  180.3050  140.7890 C   0  0  0  0  0  2  0  0  0  0  0  0
  182.9800  177.1730  136.8030 C   0  0  1  0  0  3  0  0  0  0  0  0
  187.7140  178.1620  136.6360 O   0  0  0  0  0  0  0  0  0  0  0  0
  188.1190  176.8530  136.3250 C   0  0  0  0  0  2  0  0  0  0  0  0
  182.0940  175.7680  134.8010 C   0  0  1  0  0  3  0  0  0  0  0  0
  181.9780  174.3980  135.4790 C   0  0  2  0  0  3  0  0  0  0  0  0
  181.4690  178.5010  138.3430 C   0  0  1  0  0  3  0  0  0  0  0  0
  183.9400  178.3740  138.7480 C   0  0  0  0  0  3  0  0  0  0  0  0
  182.9900  172.8190  136.8350 C   0  0  0  0  0  0  0  0  0  0  0  0
  182.6060  178.9350  140.6980 C   0  0  0  0  0  2  0  0  0  0  0  0
  186.7120  178.0600  137.6270 C   0  0  0  0  0  2  0  0  0  0  0  0
  184.1770  177.9950  137.3120 C   0  0  1  0  0  3  0  0  0  0  0  0
  185.4950  177.2290  137.1620 C   0  0  1  0  0  3  0  0  0  0  0  0
  184.5270  175.8810  135.2490 C   0  0  1  0  0  3  0  0  0  0  0  0
  181.8270  173.2310  137.5280 N   0  0  0  0  0  2  0  0  0  0  0  0
  180.7980  180.7860  139.3760 C   0  0  0  0  0  2  0  0  0  0  0  0
  182.7170  178.6540  139.2210 C   0  0  0  0  0  0  0  0  0  0  0  0
  181.2770  174.3850  136.8410 C   0  0  0  0  0  2  0  0  0  0  0  0
  180.5350  179.7240  138.3080 C   0  0  0  0  0  2  0  0  0  0  0  0
  181.1560  178.9910  141.1750 C   0  0  1  0  0  3  0  0  0  0  0  0
  187.0530  176.1450  135.4760 C   0  0  0  0  0  2  0  0  0  0  0  0
  185.6770  176.7760  135.7060 C   0  0  2  0  0  3  0  0  0  0  0  0
  184.4620  174.5910  136.0780 C   0  0  0  0  0  2  0  0  0  0  0  0
  181.7570  178.0780  136.8970 C   0  0  0  0  0  2  0  0  0  0  0  0
  180.7550  176.4590  134.5940 C   0  0  0  0  0  1  0  0  0  0  0  0
  183.6840  171.8360  137.2040 O   0  0  0  0  0  0  0  0  0  0  0  0
  183.2100  176.6640  135.3570 C   0  0  2  0  0  3  0  0  0  0  0  0
  183.3150  173.6600  135.6620 C   0  0  2  0  0  3  0  0  0  0  0  0
  181.1120  178.7970  142.6820 C   0  0  0  0  0  2  0  0  0  0  0  0
  179.8090  178.2050  143.1000 C   0  0  0  0  0  0  0  0  0  0  0  0
  179.1900  178.6300  144.3080 N   0  0  0  0  0  1  0  0  0  0  0  0
  179.2690  177.3110  142.3980 O   0  0  0  0  0  0  0  0  0  0  0  0
  1 20  1  0  0  0  0
  2 24  1  6  0  0  0
  2 12  1  0  0  0  0
  3 11  1  0  0  0  0
  4  3  1  0  0  0  0
  5 25  1  1  0  0  0
  5 27  1  0  0  0  0
  5  6  1  0  0  0  0
  6 28  1  0  0  0  0
  6 18  1  1  0  0  0
  7 24  1  6  0  0  0
  7 17  1  0  0  0  0
  8 17  2  0  0  0  0
  9 26  2  0  0  0  0
  9 15  1  0  0  0  0
 10 20  1  0  0  0  0
 12  8  1  1  0  0  0
 13 12  1  0  0  0  0
 13 11  1  6  0  0  0
 14 27  1  0  0  0  0
 14 22  1  0  0  0  0
 14 23  1  1  0  0  0
 16  1  1  0  0  0  0
 17 10  1  0  0  0  0
 18 15  1  0  0  0  0
 19  7  1  0  0  0  0
 19 16  1  0  0  0  0
 20 29  1  1  0  0  0
 21  4  1  0  0  0  0
 22 21  1  1  0  0  0
 22 13  1  0  0  0  0
 27  2  1  0  0  0  0
 28 23  1  0  0  0  0
 28  9  1  0  0  0  0
 29 30  1  0  0  0  0
 30 31  1  0  0  0  0
 32 30  2  0  0  0  0
M  END
>  <MODEL>
6

>  <REMARK>
 VINA RESULT:      -5.8      5.811      7.230
  Name = 
  2 active torsions:
  status: ('A' for Active; 'I' for Inactive)
    1  A    between atoms: C_20  and  C_29
    2  A    between atoms: C_29  and  C_30
                            x       y       z     vdW  Elec       q    Type
                         _______ _______ _______ _____ _____    ______ ____

>  <TORSDO>
F 2

$$$$
=
 OpenBabel11122410383D

 32 37  0  0  1  0  0  0  0  0999 V2000
  185.4840  178.7110  143.5710 C   0  0  0  0  0  2  0  0  0  0  0  0
  181.3010  178.2240  139.7910 C   0  0  1  0  0  3  0  0  0  0  0  0
  180.8760  182.3080  137.2330 O   0  0  0  0  0  0  0  0  0  0  0  0
  180.5170  181.6810  136.0260 C   0  0  0  0  0  2  0  0  0  0  0  0
  179.3300  176.5520  139.5030 C   0  0  1  0  0  3  0  0  0  0  0  0
  179.9880  175.5360  138.5620 C   0  0  2  0  0  3  0  0  0  0  0  0
  182.9520  178.1060  141.7110 C   0  0  1  0  0  3  0  0  0  0  0  0
  183.2090  179.8060  139.8850 C   0  0  0  0  0  3  0  0  0  0  0  0
  181.2540  175.2080  136.6520 C   0  0  0  0  0  0  0  0  0  0  0  0
  185.2430  179.2940  141.1090 C   0  0  0  0  0  2  0  0  0  0  0  0
  181.9210  181.5470  137.8000 C   0  0  0  0  0  2  0  0  0  0  0  0
  181.7540  179.6700  139.5260 C   0  0  1  0  0  3  0  0  0  0  0  0
  181.5140  180.0810  138.0700 C   0  0  1  0  0  3  0  0  0  0  0  0
  179.6370  178.3930  137.8740 C   0  0  1  0  0  3  0  0  0  0  0  0
  182.0220  174.6780  137.7170 N   0  0  0  0  0  2  0  0  0  0  0  0
  184.0640  179.2410  143.7630 C   0  0  0  0  0  2  0  0  0  0  0  0
  183.7580  179.1350  140.9090 C   0  0  0  0  0  0  0  0  0  0  0  0
  181.3900  175.0640  138.9650 C   0  0  0  0  0  2  0  0  0  0  0  0
  182.9930  178.2830  143.2390 C   0  0  0  0  0  2  0  0  0  0  0  0
  185.8050  178.3050  142.1270 C   0  0  1  0  0  3  0  0  0  0  0  0
  179.7200  180.3980  136.3020 C   0  0  0  0  0  2  0  0  0  0  0  0
  180.0420  179.8540  137.6960 C   0  0  2  0  0  3  0  0  0  0  0  0
  180.4450  177.4740  136.9480 C   0  0  0  0  0  2  0  0  0  0  0  0
  181.4840  177.9760  141.2840 C   0  0  0  0  0  2  0  0  0  0  0  0
  179.2140  176.0630  140.9380 C   0  0  0  0  0  1  0  0  0  0  0  0
  181.5640  175.0340  135.4440 O   0  0  0  0  0  0  0  0  0  0  0  0
  179.8360  177.9930  139.3440 C   0  0  2  0  0  3  0  0  0  0  0  0
  180.0800  175.9910  137.0950 C   0  0  2  0  0  3  0  0  0  0  0  0
  187.3080  178.1830  141.9380 C   0  0  0  0  0  2  0  0  0  0  0  0
  187.9120  177.3580  143.0230 C   0  0  0  0  0  0  0  0  0  0  0  0
  188.7750  177.9610  143.9790 N   0  0  0  0  0  1  0  0  0  0  0  0
  187.6790  176.1220  143.0780 O   0  0  0  0  0  0  0  0  0  0  0  0
  1 16  1  0  0  0  0
  2 24  1  1  0  0  0
  3 11  1  0  0  0  0
  4 21  1  0  0  0  0
  4  3  1  0  0  0  0
  5 25  1  1  0  0  0
  6 18  1  1  0  0  0
  6  5  1  0  0  0  0
  7 24  1  6  0  0  0
  7 19  1  0  0  0  0
  8 17  2  0  0  0  0
  9 28  1  0  0  0  0
  9 15  1  0  0  0  0
 10 20  1  0  0  0  0
 12  2  1  0  0  0  0
 12  8  1  6  0  0  0
 13 11  1  1  0  0  0
 13 12  1  0  0  0  0
 14 23  1  6  0  0  0
 14 27  1  0  0  0  0
 15 18  1  0  0  0  0
 17 10  1  0  0  0  0
 17  7  1  0  0  0  0
 19 16  1  0  0  0  0
 20 29  1  1  0  0  0
 20  1  1  0  0  0  0
 22 21  1  6  0  0  0
 22 14  1  0  0  0  0
 22 13  1  0  0  0  0
 23 28  1  0  0  0  0
 26  9  2  0  0  0  0
 27  5  1  0  0  0  0
 27  2  1  0  0  0  0
 28  6  1  0  0  0  0
 29 30  1  0  0  0  0
 30 32  2  0  0  0  0
 30 31  1  0  0  0  0
M  END
>  <MODEL>
7

>  <REMARK>
 VINA RESULT:      -5.7      6.516      8.935
  Name = 
  2 active torsions:
  status: ('A' for Active; 'I' for Inactive)
    1  A    between atoms: C_20  and  C_29
    2  A    between atoms: C_29  and  C_30
                            x       y       z     vdW  Elec       q    Type
                         _______ _______ _______ _____ _____    ______ ____

>  <TORSDO>
F 2

$$$$
=
 OpenBabel11122410383D

 32 37  0  0  1  0  0  0  0  0999 V2000
  186.3650  178.5680  141.9570 C   0  0  0  0  0  2  0  0  0  0  0  0
  181.3630  178.2980  139.3240 C   0  0  1  0  0  3  0  0  0  0  0  0
  180.2710  182.5850  137.3660 O   0  0  0  0  0  0  0  0  0  0  0  0
  179.6230  182.0610  136.2330 C   0  0  0  0  0  2  0  0  0  0  0  0
  179.3960  176.5970  139.3800 C   0  0  1  0  0  3  0  0  0  0  0  0
  179.8020  175.6940  138.2090 C   0  0  2  0  0  3  0  0  0  0  0  0
  183.4480  178.0560  140.7450 C   0  0  1  0  0  3  0  0  0  0  0  0
  183.2200  179.9250  139.0880 C   0  0  0  0  0  3  0  0  0  0  0  0
  180.5440  175.5840  136.0190 C   0  0  0  0  0  0  0  0  0  0  0  0
  185.5020  179.3680  139.7040 C   0  0  0  0  0  2  0  0  0  0  0  0
  181.4320  181.8090  137.5740 C   0  0  0  0  0  2  0  0  0  0  0  0
  181.7230  179.7760  139.0950 C   0  0  1  0  0  3  0  0  0  0  0  0
  181.1180  180.3120  137.7950 C   0  0  1  0  0  3  0  0  0  0  0  0
  179.2660  178.5890  137.9140 C   0  0  1  0  0  3  0  0  0  0  0  0
  181.5600  174.9830  136.8000 N   0  0  0  0  0  2  0  0  0  0  0  0
  185.0360  179.0320  142.5520 C   0  0  0  0  0  2  0  0  0  0  0  0
  184.0160  179.1800  139.8700 C   0  0  0  0  0  0  0  0  0  0  0  0
  181.2630  175.2320  138.1980 C   0  0  0  0  0  2  0  0  0  0  0  0
  183.8740  178.0930  142.2230 C   0  0  0  0  0  2  0  0  0  0  0  0
  186.3120  178.3070  140.4460 C   0  0  1  0  0  3  0  0  0  0  0  0
  178.9310  180.7330  136.5750 C   0  0  0  0  0  2  0  0  0  0  0  0
  179.6010  180.0730  137.7830 C   0  0  2  0  0  3  0  0  0  0  0  0
  179.8190  177.7860  136.7290 C   0  0  0  0  0  2  0  0  0  0  0  0
  181.9210  177.9190  140.6910 C   0  0  0  0  0  2  0  0  0  0  0  0
  179.6520  175.9750  140.7440 C   0  0  0  0  0  1  0  0  0  0  0  0
  180.5380  175.5330  134.7620 O   0  0  0  0  0  0  0  0  0  0  0  0
  179.8350  178.0620  139.2400 C   0  0  2  0  0  3  0  0  0  0  0  0
  179.5140  176.2850  136.8180 C   0  0  2  0  0  3  0  0  0  0  0  0
  187.7180  178.2520  139.8730 C   0  0  0  0  0  2  0  0  0  0  0  0
  187.6830  177.9470  138.4140 C   0  0  0  0  0  0  0  0  0  0  0  0
  188.0480  178.9460  137.4700 N   0  0  0  0  0  1  0  0  0  0  0  0
  187.3080  176.8140  138.0170 O   0  0  0  0  0  0  0  0  0  0  0  0
  1 16  1  0  0  0  0
  2 24  1  1  0  0  0
  3 11  1  0  0  0  0
  4 21  1  0  0  0  0
  4  3  1  0  0  0  0
  5 25  1  1  0  0  0
  6 18  1  6  0  0  0
  6  5  1  0  0  0  0
  7 24  1  1  0  0  0
  7 19  1  0  0  0  0
  8 17  2  0  0  0  0
  9 15  1  0  0  0  0
  9 28  1  0  0  0  0
 10 17  1  0  0  0  0
 10 20  1  0  0  0  0
 12  8  1  6  0  0  0
 12  2  1  0  0  0  0
 13 11  1  1  0  0  0
 13 12  1  0  0  0  0
 14 23  1  6  0  0  0
 14 27  1  0  0  0  0
 15 18  1  0  0  0  0
 17  7  1  0  0  0  0
 19 16  1  0  0  0  0
 20 29  1  6  0  0  0
 20  1  1  0  0  0  0
 22 21  1  6  0  0  0
 22 13  1  0  0  0  0
 22 14  1  0  0  0  0
 23 28  1  0  0  0  0
 26  9  2  0  0  0  0
 27  2  1  0  0  0  0
 27  5  1  0  0  0  0
 28  6  1  0  0  0  0
 30 29  1  0  0  0  0
 31 30  1  0  0  0  0
 32 30  2  0  0  0  0
M  END
>  <MODEL>
8

>  <REMARK>
 VINA RESULT:      -5.6      6.816      9.400
  Name = 
  2 active torsions:
  status: ('A' for Active; 'I' for Inactive)
    1  A    between atoms: C_20  and  C_29
    2  A    between atoms: C_29  and  C_30
                            x       y       z     vdW  Elec       q    Type
                         _______ _______ _______ _____ _____    ______ ____

>  <TORSDO>
F 2

$$$$
=
 OpenBabel11122410383D

 32 37  0  0  1  0  0  0  0  0999 V2000
  181.4660  179.4200  140.8640 C   0  0  0  0  0  2  0  0  0  0  0  0
  184.8260  176.9720  137.0250 C   0  0  1  0  0  3  0  0  0  0  0  0
  189.1070  179.2210  136.8740 O   0  0  0  0  0  0  0  0  0  0  0  0
  189.8640  178.0640  136.6160 C   0  0  0  0  0  2  0  0  0  0  0  0
  184.4020  175.3130  135.0670 C   0  0  1  0  0  3  0  0  0  0  0  0
  184.6520  173.9870  135.7940 C   0  0  2  0  0  3  0  0  0  0  0  0
  182.9760  177.8820  138.4980 C   0  0  1  0  0  3  0  0  0  0  0  0
  185.3780  178.4540  138.9350 C   0  0  0  0  0  3  0  0  0  0  0  0
  186.0310  172.7930  137.2190 C   0  0  0  0  0  0  0  0  0  0  0  0
  183.9000  178.6900  140.8480 C   0  0  0  0  0  2  0  0  0  0  0  0
  188.1520  178.8800  137.8570 C   0  0  0  0  0  2  0  0  0  0  0  0
  185.7400  178.1080  137.5170 C   0  0  1  0  0  3  0  0  0  0  0  0
  187.2200  177.7310  137.4100 C   0  0  1  0  0  3  0  0  0  0  0  0
  186.7000  176.1070  135.5380 C   0  0  1  0  0  3  0  0  0  0  0  0
  184.7850  172.8910  137.8830 N   0  0  0  0  0  2  0  0  0  0  0  0
  181.6810  179.9270  139.4380 C   0  0  0  0  0  2  0  0  0  0  0  0
  184.1150  178.4020  139.3840 C   0  0  0  0  0  0  0  0  0  0  0  0
  183.9530  173.8260  137.1490 C   0  0  0  0  0  2  0  0  0  0  0  0
  181.7430  178.8000  138.4070 C   0  0  0  0  0  2  0  0  0  0  0  0
  182.4820  178.3600  141.3060 C   0  0  1  0  0  3  0  0  0  0  0  0
  189.0510  177.0630  135.7830 C   0  0  0  0  0  2  0  0  0  0  0  0
  187.5500  177.2980  135.9740 C   0  0  2  0  0  3  0  0  0  0  0  0
  186.9740  174.8760  136.4140 C   0  0  0  0  0  2  0  0  0  0  0  0
  183.3990  177.5080  137.0730 C   0  0  0  0  0  2  0  0  0  0  0  0
  182.9290  175.6020  134.8200 C   0  0  0  0  0  1  0  0  0  0  0  0
  186.9600  172.0520  137.6320 O   0  0  0  0  0  0  0  0  0  0  0  0
  185.2160  176.5000  135.6020 C   0  0  2  0  0  3  0  0  0  0  0  0
  186.1360  173.6520  136.0190 C   0  0  2  0  0  3  0  0  0  0  0  0
  182.4610  178.2100  142.8190 C   0  0  0  0  0  2  0  0  0  0  0  0
  183.6510  178.8680  143.4310 C   0  0  0  0  0  0  0  0  0  0  0  0
  184.8740  178.1520  143.5530 N   0  0  0  0  0  1  0  0  0  0  0  0
  183.5660  180.0470  143.8620 O   0  0  0  0  0  0  0  0  0  0  0  0
  1 20  1  0  0  0  0
  2 24  1  6  0  0  0
  2 12  1  0  0  0  0
  3 11  1  0  0  0  0
  4  3  1  0  0  0  0
  5 25  1  1  0  0  0
  5 27  1  0  0  0  0
  5  6  1  0  0  0  0
  6 28  1  0  0  0  0
  6 18  1  1  0  0  0
  7 24  1  6  0  0  0
  7 17  1  0  0  0  0
  8 17  2  0  0  0  0
  9 26  2  0  0  0  0
  9 15  1  0  0  0  0
 10 20  1  0  0  0  0
 12  8  1  1  0  0  0
 13 12  1  0  0  0  0
 13 11  1  6  0  0  0
 14 27  1  0  0  0  0
 14 22  1  0  0  0  0
 14 23  1  1  0  0  0
 16  1  1  0  0  0  0
 17 10  1  0  0  0  0
 18 15  1  0  0  0  0
 19  7  1  0  0  0  0
 19 16  1  0  0  0  0
 20 29  1  1  0  0  0
 21  4  1  0  0  0  0
 22 21  1  1  0  0  0
 22 13  1  0  0  0  0
 27  2  1  0  0  0  0
 28 23  1  0  0  0  0
 28  9  1  0  0  0  0
 29 30  1  0  0  0  0
 30 31  1  0  0  0  0
 30 32  2  0  0  0  0
M  END
>  <MODEL>
9

>  <REMARK>
 VINA RESULT:      -5.2      3.966      5.240
  Name = 
  2 active torsions:
  status: ('A' for Active; 'I' for Inactive)
    1  A    between atoms: C_20  and  C_29
    2  A    between atoms: C_29  and  C_30
                            x       y       z     vdW  Elec       q    Type
                         _______ _______ _______ _____ _____    ______ ____

>  <TORSDO>
F 2

$$$$
