=
 OpenBabel11122410253D

 30 35  0  0  1  0  0  0  0  0999 V2000
  185.9150  178.2930  141.9640 C   0  0  0  0  0  0  0  0  0  0  0  0
  183.4980  178.9070  142.3040 C   0  0  0  0  0  0  0  0  0  0  0  0
  186.4510  177.7450  146.0920 N   0  0  0  0  0  0  0  0  0  0  0  0
  187.1700  177.9250  142.5370 C   0  0  0  0  0  0  0  0  0  0  0  0
  185.8330  178.4160  140.5700 C   0  0  0  0  0  3  0  0  0  0  0  0
  189.2810  177.6740  139.4920 O   0  0  0  0  0  1  0  0  0  0  0  0
  190.0980  178.4310  143.3700 C   0  0  1  0  0  3  0  0  0  0  0  0
  188.1740  177.8670  140.3160 C   0  0  0  0  0  0  0  0  0  0  0  0
  189.5180  178.2340  144.7200 N   0  0  2  0  0  0  0  0  0  0  0  0
  187.6910  177.3720  146.1300 C   0  0  0  0  0  0  0  0  0  0  0  0
  186.9370  178.1980  139.7500 C   0  0  0  0  0  0  0  0  0  0  0  0
  188.3030  177.7350  141.7080 C   0  0  0  0  0  0  0  0  0  0  0  0
  182.4300  179.1130  143.1820 C   0  0  0  0  0  3  0  0  0  0  0  0
  190.6090  177.6890  145.5200 C   0  0  0  0  0  2  0  0  0  0  0  0
  191.6110  178.4470  143.4970 C   0  0  0  0  0  2  0  0  0  0  0  0
  183.2570  179.0860  140.9460 O   0  0  0  0  0  1  0  0  0  0  0  0
  186.1550  178.0000  144.7300 C   0  0  0  0  0  0  0  0  0  0  0  0
  182.5940  178.9530  144.5560 C   0  0  0  0  0  3  0  0  0  0  0  0
  184.7750  178.5280  142.8030 C   0  0  0  0  0  0  0  0  0  0  0  0
  187.2410  177.7810  143.9290 C   0  0  0  0  0  0  0  0  0  0  0  0
  188.3100  176.9700  147.3480 N   0  0  0  0  0  1  0  0  0  0  0  0
  188.3760  177.3080  144.7820 C   0  0  1  0  0  3  0  0  0  0  0  0
  191.8930  178.2490  144.9620 C   0  0  0  0  0  2  0  0  0  0  0  0
  189.8770  175.9670  142.5950 C   0  0  0  0  0  1  0  0  0  0  0  0
  183.8340  178.5840  145.0700 C   0  0  0  0  0  3  0  0  0  0  0  0
  184.9180  178.3740  144.2130 C   0  0  0  0  0  0  0  0  0  0  0  0
  189.6690  177.4410  142.2680 C   0  0  2  0  0  3  0  0  0  0  0  0
  186.7860  178.3590  138.2700 C   0  0  0  0  0  2  0  0  0  0  0  0
  185.6080  176.7290  136.7880 C   0  0  0  0  0  1  0  0  0  0  0  0
  185.4320  177.8500  137.7960 C   0  0  0  0  0  2  0  0  0  0  0  0
  1  4  1  0  0  0  0
  1 19  1  0  0  0  0
  2 19  2  0  0  0  0
  2 13  1  0  0  0  0
  3 10  2  0  0  0  0
  4 20  1  0  0  0  0
  5  1  2  0  0  0  0
  6  8  1  0  0  0  0
  7 15  1  1  0  0  0
  7  9  1  0  0  0  0
  8 12  1  0  0  0  0
  9 22  1  0  0  0  0
  9 14  1  1  0  0  0
 10 21  1  0  0  0  0
 11  8  2  0  0  0  0
 11  5  1  0  0  0  0
 12 27  1  0  0  0  0
 12  4  2  0  0  0  0
 13 18  2  0  0  0  0
 15 23  1  0  0  0  0
 16  2  1  0  0  0  0
 17  3  1  0  0  0  0
 18 25  1  0  0  0  0
 19 26  1  0  0  0  0
 20 17  2  0  0  0  0
 22 20  1  6  0  0  0
 22 10  1  0  0  0  0
 23 14  1  0  0  0  0
 26 17  1  0  0  0  0
 26 25  2  0  0  0  0
 27 24  1  1  0  0  0
 27  7  1  0  0  0  0
 28 11  1  0  0  0  0
 29 30  1  0  0  0  0
 30 28  1  0  0  0  0
M  END
>  <MODEL>
1

>  <REMARK>
 VINA RESULT:      -9.8      0.000      0.000
  Name = 
  2 active torsions:
  status: ('A' for Active; 'I' for Inactive)
    1  A    between atoms: C_11  and  C_28
    2  A    between atoms: C_28  and  C_30
                            x       y       z     vdW  Elec       q    Type
                         _______ _______ _______ _____ _____    ______ ____

>  <TORSDO>
F 2

$$$$
=
 OpenBabel11122410253D

 30 35  0  0  1  0  0  0  0  0999 V2000
  186.2500  178.3480  142.6570 C   0  0  0  0  0  0  0  0  0  0  0  0
  187.0570  178.1530  145.0330 C   0  0  0  0  0  0  0  0  0  0  0  0
  182.2920  178.8870  143.9490 N   0  0  0  0  0  0  0  0  0  0  0  0
  185.1590  178.5140  141.7510 C   0  0  0  0  0  0  0  0  0  0  0  0
  187.5390  178.2110  142.1240 C   0  0  0  0  0  3  0  0  0  0  0  0
  186.9260  178.3440  138.4890 O   0  0  0  0  0  1  0  0  0  0  0  0
  183.1390  177.5450  139.6290 C   0  0  1  0  0  3  0  0  0  0  0  0
  186.6940  178.3560  139.8630 C   0  0  0  0  0  0  0  0  0  0  0  0
  182.1800  177.8650  140.7130 N   0  0  2  0  0  0  0  0  0  0  0  0
  181.6860  179.0500  142.8160 C   0  0  0  0  0  0  0  0  0  0  0  0
  187.7680  178.2240  140.7500 C   0  0  0  0  0  0  0  0  0  0  0  0
  185.3850  178.4940  140.3530 C   0  0  0  0  0  0  0  0  0  0  0  0
  186.7600  178.1470  146.3980 C   0  0  0  0  0  3  0  0  0  0  0  0
  180.9490  178.2380  140.0260 C   0  0  0  0  0  2  0  0  0  0  0  0
  182.3530  177.2800  138.3580 C   0  0  0  0  0  2  0  0  0  0  0  0
  188.3880  177.9870  144.6640 O   0  0  0  0  0  1  0  0  0  0  0  0
  183.6550  178.6570  143.6390 C   0  0  0  0  0  0  0  0  0  0  0  0
  185.4500  178.3070  146.8440 C   0  0  0  0  0  3  0  0  0  0  0  0
  186.0220  178.3250  144.0720 C   0  0  0  0  0  0  0  0  0  0  0  0
  183.8760  178.6740  142.2900 C   0  0  0  0  0  0  0  0  0  0  0  0
  180.2990  179.3690  142.7540 N   0  0  0  0  0  1  0  0  0  0  0  0
  182.5820  178.9700  141.5990 C   0  0  1  0  0  3  0  0  0  0  0  0
  180.9070  177.4600  138.7350 C   0  0  0  0  0  2  0  0  0  0  0  0
  183.7930  179.9940  139.0860 C   0  0  0  0  0  1  0  0  0  0  0  0
  184.4180  178.4750  145.9260 C   0  0  0  0  0  3  0  0  0  0  0  0
  184.6890  178.4830  144.5550 C   0  0  0  0  0  0  0  0  0  0  0  0
  184.2600  178.5690  139.3550 C   0  0  2  0  0  3  0  0  0  0  0  0
  189.1670  178.0580  140.2450 C   0  0  0  0  0  2  0  0  0  0  0  0
  191.2030  177.3900  141.5300 C   0  0  0  0  0  1  0  0  0  0  0  0
  189.8790  176.9180  140.9580 C   0  0  0  0  0  2  0  0  0  0  0  0
  1 19  1  0  0  0  0
  2 13  1  0  0  0  0
  4 20  1  0  0  0  0
  4  1  2  0  0  0  0
  5  1  1  0  0  0  0
  6  8  1  0  0  0  0
  7 15  1  6  0  0  0
  7  9  1  0  0  0  0
  8 12  2  0  0  0  0
  8 11  1  0  0  0  0
  9 14  1  6  0  0  0
  9 22  1  0  0  0  0
 10  3  2  0  0  0  0
 11  5  2  0  0  0  0
 12  4  1  0  0  0  0
 13 18  2  0  0  0  0
 15 23  1  0  0  0  0
 16  2  1  0  0  0  0
 17  3  1  0  0  0  0
 17 26  1  0  0  0  0
 19 26  1  0  0  0  0
 19  2  2  0  0  0  0
 20 17  2  0  0  0  0
 21 10  1  0  0  0  0
 22 20  1  1  0  0  0
 22 10  1  0  0  0  0
 23 14  1  0  0  0  0
 25 18  1  0  0  0  0
 26 25  2  0  0  0  0
 27 24  1  1  0  0  0
 27  7  1  0  0  0  0
 27 12  1  0  0  0  0
 28 11  1  0  0  0  0
 28 30  1  0  0  0  0
 30 29  1  0  0  0  0
M  END
>  <MODEL>
2

>  <REMARK>
 VINA RESULT:      -9.6      2.851      6.073
  Name = 
  2 active torsions:
  status: ('A' for Active; 'I' for Inactive)
    1  A    between atoms: C_11  and  C_28
    2  A    between atoms: C_28  and  C_30
                            x       y       z     vdW  Elec       q    Type
                         _______ _______ _______ _____ _____    ______ ____

>  <TORSDO>
F 2

$$$$
=
 OpenBabel11122410253D

 30 35  0  0  1  0  0  0  0  0999 V2000
  187.6990  177.6770  143.2350 C   0  0  0  0  0  0  0  0  0  0  0  0
  186.4740  177.8440  145.4280 C   0  0  0  0  0  0  0  0  0  0  0  0
  184.4250  179.3150  141.1780 N   0  0  0  0  0  0  0  0  0  0  0  0
  187.6930  177.8660  141.8200 C   0  0  0  0  0  0  0  0  0  0  0  0
  188.8550  177.1550  143.8290 C   0  0  0  0  0  3  0  0  0  0  0  0
  191.0730  176.6110  140.9330 O   0  0  0  0  0  1  0  0  0  0  0  0
  187.6080  176.9050  138.8890 C   0  0  1  0  0  3  0  0  0  0  0  0
  189.9580  176.9740  141.6850 C   0  0  0  0  0  0  0  0  0  0  0  0
  186.3270  177.6520  138.9110 N   0  0  2  0  0  0  0  0  0  0  0  0
  184.8880  179.3490  139.9690 C   0  0  0  0  0  0  0  0  0  0  0  0
  189.9760  176.8160  143.0760 C   0  0  0  0  0  0  0  0  0  0  0  0
  188.8190  177.4920  141.0460 C   0  0  0  0  0  0  0  0  0  0  0  0
  185.3180  178.2020  146.1250 C   0  0  0  0  0  3  0  0  0  0  0  0
  186.1410  178.1170  137.5410 C   0  0  0  0  0  2  0  0  0  0  0  0
  187.9230  176.5390  137.4500 C   0  0  0  0  0  2  0  0  0  0  0  0
  187.5330  177.3230  146.1630 O   0  0  0  0  0  1  0  0  0  0  0  0
  185.4430  178.7380  141.9770 C   0  0  0  0  0  0  0  0  0  0  0  0
  184.2160  178.7310  145.4570 C   0  0  0  0  0  3  0  0  0  0  0  0
  186.5450  178.0150  144.0170 C   0  0  0  0  0  0  0  0  0  0  0  0
  186.5430  178.4100  141.2330 C   0  0  0  0  0  0  0  0  0  0  0  0
  184.1450  179.9330  138.9040 N   0  0  0  0  0  1  0  0  0  0  0  0
  186.2960  178.8140  139.8140 C   0  0  1  0  0  3  0  0  0  0  0  0
  186.7890  177.1000  136.6340 C   0  0  0  0  0  2  0  0  0  0  0  0
  189.1580  178.9780  139.0300 C   0  0  0  0  0  1  0  0  0  0  0  0
  184.2570  178.9070  144.0770 C   0  0  0  0  0  3  0  0  0  0  0  0
  185.4020  178.5550  143.3560 C   0  0  0  0  0  0  0  0  0  0  0  0
  188.8290  177.5810  139.5440 C   0  0  2  0  0  3  0  0  0  0  0  0
  191.1750  176.2500  143.7700 C   0  0  0  0  0  2  0  0  0  0  0  0
  191.8020  176.2450  146.1880 C   0  0  0  0  0  1  0  0  0  0  0  0
  191.5780  177.1080  144.9610 C   0  0  0  0  0  2  0  0  0  0  0  0
  1  5  1  0  0  0  0
  1 19  1  0  0  0  0
  2 13  1  0  0  0  0
  2 16  1  0  0  0  0
  3 17  1  0  0  0  0
  4  1  2  0  0  0  0
  6  8  1  0  0  0  0
  7 15  1  6  0  0  0
  7  9  1  0  0  0  0
  7 27  1  0  0  0  0
  8 11  1  0  0  0  0
  9 14  1  6  0  0  0
  9 22  1  0  0  0  0
 10  3  2  0  0  0  0
 11 28  1  0  0  0  0
 11  5  2  0  0  0  0
 12  8  2  0  0  0  0
 12  4  1  0  0  0  0
 17 26  1  0  0  0  0
 18 13  2  0  0  0  0
 19  2  2  0  0  0  0
 20  4  1  0  0  0  0
 20 17  2  0  0  0  0
 21 10  1  0  0  0  0
 22 10  1  1  0  0  0
 22 20  1  0  0  0  0
 23 15  1  0  0  0  0
 23 14  1  0  0  0  0
 25 18  1  0  0  0  0
 26 19  1  0  0  0  0
 26 25  2  0  0  0  0
 27 24  1  1  0  0  0
 27 12  1  0  0  0  0
 28 30  1  0  0  0  0
 30 29  1  0  0  0  0
M  END
>  <MODEL>
3

>  <REMARK>
 VINA RESULT:      -9.6      2.764      5.755
  Name = 
  2 active torsions:
  status: ('A' for Active; 'I' for Inactive)
    1  A    between atoms: C_11  and  C_28
    2  A    between atoms: C_28  and  C_30
                            x       y       z     vdW  Elec       q    Type
                         _______ _______ _______ _____ _____    ______ ____

>  <TORSDO>
F 2

$$$$
=
 OpenBabel11122410253D

 30 35  0  0  1  0  0  0  0  0999 V2000
  189.4370  177.1610  143.4660 C   0  0  0  0  0  0  0  0  0  0  0  0
  191.3510  176.1700  144.7660 C   0  0  0  0  0  0  0  0  0  0  0  0
  187.3900  178.0890  147.0140 N   0  0  0  0  0  0  0  0  0  0  0  0
  188.1500  177.7780  143.4760 C   0  0  0  0  0  0  0  0  0  0  0  0
  190.0510  176.9260  142.2290 C   0  0  0  0  0  3  0  0  0  0  0  0
  187.5350  178.1650  139.8340 O   0  0  0  0  0  1  0  0  0  0  0  0
  185.0960  177.8410  143.0320 C   0  0  1  0  0  3  0  0  0  0  0  0
  188.1580  177.8460  141.0380 C   0  0  0  0  0  0  0  0  0  0  0  0
  185.1070  178.0330  144.5010 N   0  0  2  0  0  0  0  0  0  0  0  0
  186.3340  178.6710  146.5410 C   0  0  0  0  0  0  0  0  0  0  0  0
  189.4330  177.2690  141.0290 C   0  0  0  0  0  0  0  0  0  0  0  0
  187.5050  178.0980  142.2560 C   0  0  0  0  0  0  0  0  0  0  0  0
  191.9150  175.8490  146.0040 C   0  0  0  0  0  3  0  0  0  0  0  0
  183.9080  178.8120  144.7860 C   0  0  0  0  0  2  0  0  0  0  0  0
  183.6870  178.0920  142.5260 C   0  0  0  0  0  2  0  0  0  0  0  0
  192.0820  175.8550  143.6260 O   0  0  0  0  0  1  0  0  0  0  0  0
  188.1590  177.6900  145.8920 C   0  0  0  0  0  0  0  0  0  0  0  0
  191.2430  176.1340  147.1900 C   0  0  0  0  0  3  0  0  0  0  0  0
  190.0760  176.7970  144.6980 C   0  0  0  0  0  0  0  0  0  0  0  0
  187.5500  178.0330  144.7160 C   0  0  0  0  0  0  0  0  0  0  0  0
  185.3620  179.2590  147.3990 N   0  0  0  0  0  1  0  0  0  0  0  0
  186.2770  178.7530  145.0300 C   0  0  1  0  0  3  0  0  0  0  0  0
  182.8790  178.4410  143.7470 C   0  0  0  0  0  2  0  0  0  0  0  0
  186.0640  180.1680  142.4260 C   0  0  0  0  0  1  0  0  0  0  0  0
  189.9930  176.7450  147.1520 C   0  0  0  0  0  3  0  0  0  0  0  0
  189.4060  177.0740  145.9260 C   0  0  0  0  0  0  0  0  0  0  0  0
  186.1090  178.6600  142.2070 C   0  0  2  0  0  3  0  0  0  0  0  0
  190.1370  176.9770  139.7410 C   0  0  0  0  0  2  0  0  0  0  0  0
  192.3490  176.6660  138.6230 C   0  0  0  0  0  1  0  0  0  0  0  0
  191.6470  177.0830  139.9010 C   0  0  0  0  0  2  0  0  0  0  0  0
  1  4  1  0  0  0  0
  1 19  1  0  0  0  0
  2 13  1  0  0  0  0
  4 20  1  0  0  0  0
  5  1  2  0  0  0  0
  6  8  1  0  0  0  0
  7 15  1  6  0  0  0
  7  9  1  0  0  0  0
  8 12  1  0  0  0  0
  9 14  1  6  0  0  0
  9 22  1  0  0  0  0
 10  3  2  0  0  0  0
 10 21  1  0  0  0  0
 11  8  2  0  0  0  0
 11  5  1  0  0  0  0
 12  4  2  0  0  0  0
 13 18  2  0  0  0  0
 15 23  1  0  0  0  0
 16  2  1  0  0  0  0
 17 26  1  0  0  0  0
 17  3  1  0  0  0  0
 19  2  2  0  0  0  0
 19 26  1  0  0  0  0
 20 17  2  0  0  0  0
 22 20  1  6  0  0  0
 22 10  1  0  0  0  0
 23 14  1  0  0  0  0
 25 18  1  0  0  0  0
 26 25  2  0  0  0  0
 27 12  1  0  0  0  0
 27 24  1  1  0  0  0
 27  7  1  0  0  0  0
 28 30  1  0  0  0  0
 28 11  1  0  0  0  0
 29 30  1  0  0  0  0
M  END
>  <MODEL>
4

>  <REMARK>
 VINA RESULT:      -9.1      2.026      5.637
  Name = 
  2 active torsions:
  status: ('A' for Active; 'I' for Inactive)
    1  A    between atoms: C_11  and  C_28
    2  A    between atoms: C_28  and  C_30
                            x       y       z     vdW  Elec       q    Type
                         _______ _______ _______ _____ _____    ______ ____

>  <TORSDO>
F 2

$$$$
=
 OpenBabel11122410253D

 30 35  0  0  1  0  0  0  0  0999 V2000
  187.1240  178.2090  140.6360 C   0  0  0  0  0  0  0  0  0  0  0  0
  184.8460  179.0070  139.9230 C   0  0  0  0  0  0  0  0  0  0  0  0
  185.8610  177.8780  144.6260 N   0  0  0  0  0  0  0  0  0  0  0  0
  187.9940  177.7910  141.6880 C   0  0  0  0  0  0  0  0  0  0  0  0
  187.6350  178.2520  139.3310 C   0  0  0  0  0  3  0  0  0  0  0  0
  191.1410  177.2110  139.8050 O   0  0  0  0  0  1  0  0  0  0  0  0
  190.3500  178.1440  143.6490 C   0  0  1  0  0  3  0  0  0  0  0  0
  189.8150  177.5290  140.0880 C   0  0  0  0  0  0  0  0  0  0  0  0
  189.2500  178.0710  144.6410 N   0  0  2  0  0  0  0  0  0  0  0  0
  186.9360  177.4230  145.1860 C   0  0  0  0  0  0  0  0  0  0  0  0
  188.9550  177.9090  139.0510 C   0  0  0  0  0  0  0  0  0  0  0  0
  189.3460  177.4740  141.4110 C   0  0  0  0  0  0  0  0  0  0  0  0
  183.5340  179.3390  140.2720 C   0  0  0  0  0  3  0  0  0  0  0  0
  189.8620  177.5020  145.8360 C   0  0  0  0  0  2  0  0  0  0  0  0
  191.6710  178.0640  144.3930 C   0  0  0  0  0  2  0  0  0  0  0  0
  185.2030  179.1190  138.5840 O   0  0  0  0  0  1  0  0  0  0  0  0
  186.1760  178.0680  143.2580 C   0  0  0  0  0  0  0  0  0  0  0  0
  183.1020  179.2510  141.5930 C   0  0  0  0  0  3  0  0  0  0  0  0
  185.7660  178.5720  140.9180 C   0  0  0  0  0  0  0  0  0  0  0  0
  187.4720  177.7270  142.9870 C   0  0  0  0  0  0  0  0  0  0  0  0
  186.9610  177.0540  146.5610 N   0  0  0  0  0  1  0  0  0  0  0  0
  188.1080  177.2300  144.2470 C   0  0  1  0  0  3  0  0  0  0  0  0
  191.3060  177.9370  145.8480 C   0  0  0  0  0  2  0  0  0  0  0  0
  190.2530  175.6590  142.9190 C   0  0  0  0  0  1  0  0  0  0  0  0
  183.9820  178.8310  142.5860 C   0  0  0  0  0  3  0  0  0  0  0  0
  185.3000  178.4950  142.2630 C   0  0  0  0  0  0  0  0  0  0  0  0
  190.3290  177.1210  142.4960 C   0  0  2  0  0  3  0  0  0  0  0  0
  189.4420  177.9900  137.6380 C   0  0  0  0  0  2  0  0  0  0  0  0
  187.8930  177.6250  135.7120 C   0  0  0  0  0  1  0  0  0  0  0  0
  188.4000  178.6290  136.7310 C   0  0  0  0  0  2  0  0  0  0  0  0
  1 19  2  0  0  0  0
  1  4  1  0  0  0  0
  2 13  2  0  0  0  0
  2 19  1  0  0  0  0
  3 10  2  0  0  0  0
  4 20  2  0  0  0  0
  5  1  1  0  0  0  0
  6  8  1  0  0  0  0
  7 15  1  1  0  0  0
  7  9  1  0  0  0  0
  8 12  2  0  0  0  0
  9 14  1  1  0  0  0
 10 21  1  0  0  0  0
 11  5  2  0  0  0  0
 11  8  1  0  0  0  0
 12  4  1  0  0  0  0
 12 27  1  0  0  0  0
 13 18  1  0  0  0  0
 14 23  1  0  0  0  0
 15 23  1  0  0  0  0
 16  2  1  0  0  0  0
 17  3  1  0  0  0  0
 18 25  2  0  0  0  0
 19 26  1  0  0  0  0
 20 17  1  0  0  0  0
 22 20  1  6  0  0  0
 22  9  1  0  0  0  0
 22 10  1  0  0  0  0
 26 25  1  0  0  0  0
 26 17  2  0  0  0  0
 27 24  1  1  0  0  0
 27  7  1  0  0  0  0
 28 11  1  0  0  0  0
 29 30  1  0  0  0  0
 30 28  1  0  0  0  0
M  END
>  <MODEL>
5

>  <REMARK>
 VINA RESULT:      -9.1      1.420      1.931
  Name = 
  2 active torsions:
  status: ('A' for Active; 'I' for Inactive)
    1  A    between atoms: C_11  and  C_28
    2  A    between atoms: C_28  and  C_30
                            x       y       z     vdW  Elec       q    Type
                         _______ _______ _______ _____ _____    ______ ____

>  <TORSDO>
F 2

$$$$
=
 OpenBabel11122410253D

 30 35  0  0  1  0  0  0  0  0999 V2000
  186.3380  178.0640  144.7150 C   0  0  0  0  0  0  0  0  0  0  0  0
  183.8690  178.4530  145.0160 C   0  0  0  0  0  0  0  0  0  0  0  0
  186.0470  178.8140  140.5940 N   0  0  0  0  0  0  0  0  0  0  0  0
  187.4600  177.9880  143.8360 C   0  0  0  0  0  0  0  0  0  0  0  0
  186.5480  177.8300  146.0810 C   0  0  0  0  0  3  0  0  0  0  0  0
  190.1580  177.0860  146.2230 O   0  0  0  0  0  1  0  0  0  0  0  0
  189.6610  176.5040  142.2620 C   0  0  1  0  0  3  0  0  0  0  0  0
  188.9030  177.4190  145.7170 C   0  0  0  0  0  0  0  0  0  0  0  0
  188.9030  177.0520  141.1120 N   0  0  2  0  0  0  0  0  0  0  0  0
  187.2850  178.6920  140.2360 C   0  0  0  0  0  0  0  0  0  0  0  0
  187.8100  177.5220  146.5840 C   0  0  0  0  0  0  0  0  0  0  0  0
  188.7380  177.6430  144.3400 C   0  0  0  0  0  0  0  0  0  0  0  0
  182.6320  178.7640  144.4470 C   0  0  0  0  0  3  0  0  0  0  0  0
  189.8950  177.2270  140.0580 C   0  0  0  0  0  2  0  0  0  0  0  0
  190.9670  175.9300  141.7430 C   0  0  0  0  0  2  0  0  0  0  0  0
  183.9090  178.2320  146.3880 O   0  0  0  0  0  1  0  0  0  0  0  0
  186.0080  178.5440  141.9840 C   0  0  0  0  0  0  0  0  0  0  0  0
  182.5130  178.9990  143.0790 C   0  0  0  0  0  3  0  0  0  0  0  0
  185.0340  178.3720  144.2020 C   0  0  0  0  0  0  0  0  0  0  0  0
  187.2490  178.2460  142.4750 C   0  0  0  0  0  0  0  0  0  0  0  0
  187.7030  178.9590  138.9000 N   0  0  0  0  0  1  0  0  0  0  0  0
  188.2400  178.3430  141.3580 C   0  0  1  0  0  3  0  0  0  0  0  0
  190.9470  176.1640  140.2570 C   0  0  0  0  0  2  0  0  0  0  0  0
  190.6210  178.7680  143.0840 C   0  0  0  0  0  1  0  0  0  0  0  0
  183.6360  178.9240  142.2600 C   0  0  0  0  0  3  0  0  0  0  0  0
  184.8860  178.6120  142.8050 C   0  0  0  0  0  0  0  0  0  0  0  0
  189.9330  177.4560  143.4440 C   0  0  2  0  0  3  0  0  0  0  0  0
  187.9640  177.2700  148.0510 C   0  0  0  0  0  2  0  0  0  0  0  0
  189.8800  178.5270  149.0470 C   0  0  0  0  0  1  0  0  0  0  0  0
  188.3850  178.5340  148.7860 C   0  0  0  0  0  2  0  0  0  0  0  0
  1  5  1  0  0  0  0
  2 16  1  0  0  0  0
  3 17  1  0  0  0  0
  4 12  1  0  0  0  0
  4  1  2  0  0  0  0
  5 11  2  0  0  0  0
  7 15  1  6  0  0  0
  7 27  1  0  0  0  0
  8  6  1  0  0  0  0
  8 11  1  0  0  0  0
  9 14  1  6  0  0  0
  9 22  1  0  0  0  0
  9  7  1  0  0  0  0
 10  3  2  0  0  0  0
 11 28  1  0  0  0  0
 12  8  2  0  0  0  0
 13  2  1  0  0  0  0
 14 23  1  0  0  0  0
 17 20  2  0  0  0  0
 17 26  1  0  0  0  0
 18 13  2  0  0  0  0
 19  1  1  0  0  0  0
 19  2  2  0  0  0  0
 20  4  1  0  0  0  0
 21 10  1  0  0  0  0
 22 10  1  6  0  0  0
 22 20  1  0  0  0  0
 23 15  1  0  0  0  0
 25 26  2  0  0  0  0
 25 18  1  0  0  0  0
 26 19  1  0  0  0  0
 27 24  1  6  0  0  0
 27 12  1  0  0  0  0
 28 30  1  0  0  0  0
 30 29  1  0  0  0  0
M  END
>  <MODEL>
6

>  <REMARK>
 VINA RESULT:      -8.9      2.661      5.451
  Name = 
  2 active torsions:
  status: ('A' for Active; 'I' for Inactive)
    1  A    between atoms: C_11  and  C_28
    2  A    between atoms: C_28  and  C_30
                            x       y       z     vdW  Elec       q    Type
                         _______ _______ _______ _____ _____    ______ ____

>  <TORSDO>
F 2

$$$$
=
 OpenBabel11122410253D

 30 35  0  0  1  0  0  0  0  0999 V2000
  186.4610  178.2720  141.9380 C   0  0  0  0  0  0  0  0  0  0  0  0
  185.0530  178.5800  139.8740 C   0  0  0  0  0  0  0  0  0  0  0  0
  189.9120  177.7180  139.6120 N   0  0  0  0  0  0  0  0  0  0  0  0
  187.7410  178.0030  142.5090 C   0  0  0  0  0  0  0  0  0  0  0  0
  185.3780  178.4760  142.8040 C   0  0  0  0  0  3  0  0  0  0  0  0
  186.9120  178.0350  146.1290 O   0  0  0  0  0  1  0  0  0  0  0  0
  189.8180  176.2510  143.9730 C   0  0  1  0  0  3  0  0  0  0  0  0
  186.7750  178.1200  144.7450 C   0  0  0  0  0  0  0  0  0  0  0  0
  190.5170  176.3770  142.6720 N   0  0  2  0  0  0  0  0  0  0  0  0
  190.8080  177.5700  140.5360 C   0  0  0  0  0  0  0  0  0  0  0  0
  185.5250  178.4140  144.1870 C   0  0  0  0  0  0  0  0  0  0  0  0
  187.8880  177.9060  143.9150 C   0  0  0  0  0  0  0  0  0  0  0  0
  184.9720  178.6270  138.4800 C   0  0  0  0  0  3  0  0  0  0  0  0
  191.9350  176.2850  142.9980 C   0  0  0  0  0  2  0  0  0  0  0  0
  190.7760  175.6290  144.9730 C   0  0  0  0  0  2  0  0  0  0  0  0
  183.8810  178.7880  140.5940 O   0  0  0  0  0  1  0  0  0  0  0  0
  188.6750  177.8810  140.2820 C   0  0  0  0  0  0  0  0  0  0  0  0
  186.1040  178.4290  137.6920 C   0  0  0  0  0  3  0  0  0  0  0  0
  186.2990  178.3290  140.5140 C   0  0  0  0  0  0  0  0  0  0  0  0
  188.8250  177.8230  141.6400 C   0  0  0  0  0  0  0  0  0  0  0  0
  192.1910  177.4460  140.2180 N   0  0  0  0  0  1  0  0  0  0  0  0
  190.2770  177.6380  141.9520 C   0  0  1  0  0  3  0  0  0  0  0  0
  192.0560  175.4000  144.2140 C   0  0  0  0  0  2  0  0  0  0  0  0
  190.1450  178.7120  144.7200 C   0  0  0  0  0  1  0  0  0  0  0  0
  187.3340  178.1790  138.2920 C   0  0  0  0  0  3  0  0  0  0  0  0
  187.4410  178.1250  139.6850 C   0  0  0  0  0  0  0  0  0  0  0  0
  189.1930  177.5310  144.5640 C   0  0  2  0  0  3  0  0  0  0  0  0
  184.3260  178.6280  145.0560 C   0  0  0  0  0  2  0  0  0  0  0  0
  182.0090  178.6280  144.1230 C   0  0  0  0  0  1  0  0  0  0  0  0
  183.2650  179.4500  144.3390 C   0  0  0  0  0  2  0  0  0  0  0  0
  1  4  1  0  0  0  0
  1  5  2  0  0  0  0
  2 19  1  0  0  0  0
  2 16  1  0  0  0  0
  3 17  1  0  0  0  0
  3 10  2  0  0  0  0
  4 12  2  0  0  0  0
  5 11  1  0  0  0  0
  7 27  1  0  0  0  0
  7 15  1  1  0  0  0
  8  6  1  0  0  0  0
  9 14  1  1  0  0  0
  9  7  1  0  0  0  0
 11  8  2  0  0  0  0
 11 28  1  0  0  0  0
 12 27  1  0  0  0  0
 12  8  1  0  0  0  0
 13  2  2  0  0  0  0
 14 23  1  0  0  0  0
 17 20  2  0  0  0  0
 18 25  2  0  0  0  0
 18 13  1  0  0  0  0
 19  1  1  0  0  0  0
 20 22  1  0  0  0  0
 20  4  1  0  0  0  0
 21 10  1  0  0  0  0
 22 10  1  6  0  0  0
 22  9  1  0  0  0  0
 23 15  1  0  0  0  0
 25 26  1  0  0  0  0
 26 17  1  0  0  0  0
 26 19  2  0  0  0  0
 27 24  1  6  0  0  0
 29 30  1  0  0  0  0
 30 28  1  0  0  0  0
M  END
>  <MODEL>
7

>  <REMARK>
 VINA RESULT:      -8.5      2.158      4.949
  Name = 
  2 active torsions:
  status: ('A' for Active; 'I' for Inactive)
    1  A    between atoms: C_11  and  C_28
    2  A    between atoms: C_28  and  C_30
                            x       y       z     vdW  Elec       q    Type
                         _______ _______ _______ _____ _____    ______ ____

>  <TORSDO>
F 2

$$$$
=
 OpenBabel11122410253D

 30 35  0  0  1  0  0  0  0  0999 V2000
  187.9860  177.9630  142.2170 C   0  0  0  0  0  0  0  0  0  0  0  0
  187.0340  178.0960  144.5440 C   0  0  0  0  0  0  0  0  0  0  0  0
  184.2600  178.9330  140.5410 N   0  0  0  0  0  0  0  0  0  0  0  0
  187.7720  178.0490  140.8080 C   0  0  0  0  0  0  0  0  0  0  0  0
  189.2760  177.6670  142.6760 C   0  0  0  0  0  3  0  0  0  0  0  0
  191.1720  177.2640  139.5380 O   0  0  0  0  0  1  0  0  0  0  0  0
  187.4760  176.8810  137.9670 C   0  0  1  0  0  3  0  0  0  0  0  0
  190.1160  177.5050  140.4140 C   0  0  0  0  0  0  0  0  0  0  0  0
  186.1060  177.4230  138.1240 N   0  0  2  0  0  0  0  0  0  0  0  0
  184.5570  178.9520  139.2810 C   0  0  0  0  0  0  0  0  0  0  0  0
  190.3340  177.4500  141.7960 C   0  0  0  0  0  0  0  0  0  0  0  0
  188.8380  177.7970  139.9100 C   0  0  0  0  0  0  0  0  0  0  0  0
  185.9320  178.3220  145.3720 C   0  0  0  0  0  3  0  0  0  0  0  0
  185.6780  177.7560  136.7700 C   0  0  0  0  0  2  0  0  0  0  0  0
  187.6640  176.4670  136.5190 C   0  0  0  0  0  2  0  0  0  0  0  0
  188.2470  177.7960  145.1550 O   0  0  0  0  0  1  0  0  0  0  0  0
  185.4490  178.5760  141.2230 C   0  0  0  0  0  0  0  0  0  0  0  0
  184.6850  178.6280  144.8330 C   0  0  0  0  0  3  0  0  0  0  0  0
  186.9000  178.1760  143.1300 C   0  0  0  0  0  0  0  0  0  0  0  0
  186.4850  178.3680  140.3550 C   0  0  0  0  0  0  0  0  0  0  0  0
  183.6020  179.3390  138.2970 N   0  0  0  0  0  1  0  0  0  0  0  0
  186.0010  178.6280  138.9640 C   0  0  1  0  0  3  0  0  0  0  0  0
  186.3620  176.7890  135.8370 C   0  0  0  0  0  2  0  0  0  0  0  0
  188.6790  179.1710  137.7940 C   0  0  0  0  0  1  0  0  0  0  0  0
  184.5240  178.7100  143.4530 C   0  0  0  0  0  3  0  0  0  0  0  0
  185.6110  178.4860  142.6030 C   0  0  0  0  0  0  0  0  0  0  0  0
  188.6460  177.7800  138.4170 C   0  0  2  0  0  3  0  0  0  0  0  0
  191.6850  177.1250  142.3500 C   0  0  0  0  0  2  0  0  0  0  0  0
  191.6810  175.6360  144.3570 C   0  0  0  0  0  1  0  0  0  0  0  0
  191.6590  177.0740  143.8710 C   0  0  0  0  0  2  0  0  0  0  0  0
  1  5  1  0  0  0  0
  1 19  1  0  0  0  0
  2 16  1  0  0  0  0
  2 13  1  0  0  0  0
  3 17  1  0  0  0  0
  4  1  2  0  0  0  0
  6  8  1  0  0  0  0
  7 15  1  6  0  0  0
  7  9  1  0  0  0  0
  7 27  1  0  0  0  0
  8 11  1  0  0  0  0
  9 14  1  6  0  0  0
  9 22  1  0  0  0  0
 10  3  2  0  0  0  0
 11 28  1  0  0  0  0
 11  5  2  0  0  0  0
 12  8  2  0  0  0  0
 12  4  1  0  0  0  0
 17 26  1  0  0  0  0
 18 13  2  0  0  0  0
 19  2  2  0  0  0  0
 20  4  1  0  0  0  0
 20 17  2  0  0  0  0
 21 10  1  0  0  0  0
 22 10  1  1  0  0  0
 22 20  1  0  0  0  0
 23 15  1  0  0  0  0
 23 14  1  0  0  0  0
 25 18  1  0  0  0  0
 26 19  1  0  0  0  0
 26 25  2  0  0  0  0
 27 24  1  1  0  0  0
 27 12  1  0  0  0  0
 28 30  1  0  0  0  0
 30 29  1  0  0  0  0
M  END
>  <MODEL>
8

>  <REMARK>
 VINA RESULT:      -8.5      2.862      5.960
  Name = 
  2 active torsions:
  status: ('A' for Active; 'I' for Inactive)
    1  A    between atoms: C_11  and  C_28
    2  A    between atoms: C_28  and  C_30
                            x       y       z     vdW  Elec       q    Type
                         _______ _______ _______ _____ _____    ______ ____

>  <TORSDO>
F 2

$$$$
=
 OpenBabel11122410253D

 30 35  0  0  1  0  0  0  0  0999 V2000
  186.0540  178.4020  142.9550 C   0  0  0  0  0  0  0  0  0  0  0  0
  185.7080  178.4770  140.4630 C   0  0  0  0  0  0  0  0  0  0  0  0
  190.1970  177.9320  142.4560 N   0  0  0  0  0  0  0  0  0  0  0  0
  186.9530  178.2600  144.0550 C   0  0  0  0  0  0  0  0  0  0  0  0
  184.6930  178.5890  143.2290 C   0  0  0  0  0  3  0  0  0  0  0  0
  184.5940  178.4750  146.9150 O   0  0  0  0  0  1  0  0  0  0  0  0
  188.2110  176.7540  146.4370 C   0  0  1  0  0  3  0  0  0  0  0  0
  185.0870  178.4590  145.6120 C   0  0  0  0  0  0  0  0  0  0  0  0
  189.4130  176.8400  145.5740 N   0  0  2  0  0  0  0  0  0  0  0  0
  190.5900  177.9070  143.6900 C   0  0  0  0  0  0  0  0  0  0  0  0
  184.2090  178.6290  144.5350 C   0  0  0  0  0  0  0  0  0  0  0  0
  186.4590  178.2670  145.3830 C   0  0  0  0  0  0  0  0  0  0  0  0
  186.2570  178.4250  139.1790 C   0  0  0  0  0  3  0  0  0  0  0  0
  190.5380  176.8670  146.5010 C   0  0  0  0  0  2  0  0  0  0  0  0
  188.6410  176.2660  147.8090 C   0  0  0  0  0  2  0  0  0  0  0  0
  184.3320  178.6510  140.5670 O   0  0  0  0  0  1  0  0  0  0  0  0
  188.7860  178.0540  142.4920 C   0  0  0  0  0  0  0  0  0  0  0  0
  187.6270  178.2530  138.9940 C   0  0  0  0  0  3  0  0  0  0  0  0
  186.5440  178.3530  141.6070 C   0  0  0  0  0  0  0  0  0  0  0  0
  188.3160  178.0960  143.7750 C   0  0  0  0  0  0  0  0  0  0  0  0
  191.9720  177.8560  144.0300 N   0  0  0  0  0  1  0  0  0  0  0  0
  189.4810  178.0320  144.7120 C   0  0  1  0  0  3  0  0  0  0  0  0
  190.1310  176.0750  147.7180 C   0  0  0  0  0  2  0  0  0  0  0  0
  188.0930  179.2750  147.0270 C   0  0  0  0  0  1  0  0  0  0  0  0
  188.4670  178.1280  140.0960 C   0  0  0  0  0  3  0  0  0  0  0  0
  187.9420  178.1730  141.3920 C   0  0  0  0  0  0  0  0  0  0  0  0
  187.3480  178.0250  146.5730 C   0  0  2  0  0  3  0  0  0  0  0  0
  182.7420  178.8180  144.7600 C   0  0  0  0  0  2  0  0  0  0  0  0
  180.5270  178.6850  143.6110 C   0  0  0  0  0  1  0  0  0  0  0  0
  182.0010  179.0020  143.4430 C   0  0  0  0  0  2  0  0  0  0  0  0
  1  5  2  0  0  0  0
  1  4  1  0  0  0  0
  2 16  1  0  0  0  0
  2 19  1  0  0  0  0
  3 17  1  0  0  0  0
  3 10  2  0  0  0  0
  4 12  2  0  0  0  0
  5 11  1  0  0  0  0
  7 27  1  0  0  0  0
  7 15  1  1  0  0  0
  8  6  1  0  0  0  0
  9  7  1  0  0  0  0
  9 14  1  1  0  0  0
 10 21  1  0  0  0  0
 11 28  1  0  0  0  0
 11  8  2  0  0  0  0
 12  8  1  0  0  0  0
 12 27  1  0  0  0  0
 13  2  2  0  0  0  0
 14 23  1  0  0  0  0
 17 20  2  0  0  0  0
 18 13  1  0  0  0  0
 18 25  2  0  0  0  0
 19  1  1  0  0  0  0
 20  4  1  0  0  0  0
 20 22  1  0  0  0  0
 22 10  1  6  0  0  0
 22  9  1  0  0  0  0
 23 15  1  0  0  0  0
 25 26  1  0  0  0  0
 26 19  2  0  0  0  0
 26 17  1  0  0  0  0
 27 24  1  6  0  0  0
 30 29  1  0  0  0  0
 30 28  1  0  0  0  0
M  END
>  <MODEL>
9

>  <REMARK>
 VINA RESULT:      -8.1      1.742      4.929
  Name = 
  2 active torsions:
  status: ('A' for Active; 'I' for Inactive)
    1  A    between atoms: C_11  and  C_28
    2  A    between atoms: C_28  and  C_30
                            x       y       z     vdW  Elec       q    Type
                         _______ _______ _______ _____ _____    ______ ____

>  <TORSDO>
F 2

$$$$
