=
 OpenBabel11122410463D

 32 37  0  0  1  0  0  0  0  0999 V2000
  180.2020  176.4570  139.0620 C   0  0  0  0  0  2  0  0  0  0  0  0
  184.8320  179.2720  139.7720 C   0  0  1  0  0  3  0  0  0  0  0  0
  188.5960  178.3660  136.7850 C   0  0  0  0  0  3  0  0  0  0  0  0
  189.4320  178.1320  137.8800 C   0  0  0  0  0  3  0  0  0  0  0  0
  185.1200  178.7980  142.2980 C   0  0  0  0  0  0  0  0  0  0  0  0
  185.9230  178.3120  143.3280 C   0  0  0  0  0  0  0  0  0  0  0  0
  182.7980  177.8630  139.9360 N   0  0  2  0  0  0  0  0  0  0  0  0
  184.5880  177.1890  138.3750 C   0  0  0  0  0  2  0  0  0  0  0  0
  187.7320  177.4310  144.2500 N   0  0  0  0  0  0  0  0  0  0  0  0
  182.6310  175.7600  138.6460 C   0  0  0  0  0  2  0  0  0  0  0  0
  187.2230  178.5380  136.9780 C   0  0  0  0  0  3  0  0  0  0  0  0
  185.1980  178.5870  138.4460 C   0  0  2  0  0  3  0  0  0  0  0  0
  186.6820  178.4920  138.2680 C   0  0  0  0  0  0  0  0  0  0  0  0
  186.9400  178.2350  140.7410 C   0  0  0  0  0  0  0  0  0  0  0  0
  186.8400  177.6920  145.2310 C   0  0  0  0  0  3  0  0  0  0  0  0
  180.7390  176.7860  140.3110 O   0  0  0  0  0  0  0  0  0  0  0  0
  183.0830  177.2210  138.6360 C   0  0  1  0  0  3  0  0  0  0  0  0
  185.6810  178.2530  144.6900 C   0  0  0  0  0  3  0  0  0  0  0  0
  181.3550  178.0250  140.0990 C   0  0  0  0  0  2  0  0  0  0  0  0
  181.1610  175.5780  138.2550 C   0  0  1  0  0  3  0  0  0  0  0  0
  188.8950  178.0760  139.1680 C   0  0  0  0  0  3  0  0  0  0  0  0
  187.5180  178.2530  139.3760 C   0  0  0  0  0  0  0  0  0  0  0  0
  187.7190  177.7680  141.8210 C   0  0  0  0  0  3  0  0  0  0  0  0
  183.3080  179.2350  139.9170 C   0  0  0  0  0  2  0  0  0  0  0  0
  183.8840  179.3580  142.6000 O   0  0  0  0  0  1  0  0  0  0  0  0
  189.0540  176.8560  144.4340 C   0  0  0  0  0  1  0  0  0  0  0  0
  185.6120  178.7180  140.9630 C   0  0  0  0  0  0  0  0  0  0  0  0
  187.1670  177.8110  143.0960 C   0  0  0  0  0  0  0  0  0  0  0  0
  180.7800  174.1820  138.4100 N   0  0  0  0  0  2  0  0  0  0  0  0
  180.8090  173.2480  137.3300 C   0  0  0  0  0  0  0  0  0  0  0  0
  181.1480  173.6140  136.1730 O   0  0  0  0  0  0  0  0  0  0  0  0
  180.4300  171.8320  137.5720 C   0  0  0  0  0  1  0  0  0  0  0  0
  1 16  1  0  0  0  0
  2 24  1  1  0  0  0
  2 27  1  0  0  0  0
  3 11  2  0  0  0  0
  3  4  1  0  0  0  0
  4 21  2  0  0  0  0
  5 25  1  0  0  0  0
  5  6  1  0  0  0  0
  6 18  1  0  0  0  0
  7 24  1  6  0  0  0
  7 19  1  0  0  0  0
  9 26  1  0  0  0  0
  9 15  1  0  0  0  0
 11 13  1  0  0  0  0
 12  8  1  1  0  0  0
 12  2  1  0  0  0  0
 13 12  1  0  0  0  0
 13 22  2  0  0  0  0
 14 27  1  0  0  0  0
 14 23  2  0  0  0  0
 17  8  1  1  0  0  0
 17 10  1  0  0  0  0
 17  7  1  0  0  0  0
 18 15  2  0  0  0  0
 19 16  1  0  0  0  0
 20 29  1  1  0  0  0
 20 10  1  0  0  0  0
 20  1  1  0  0  0  0
 21 22  1  0  0  0  0
 22 14  1  0  0  0  0
 23 28  1  0  0  0  0
 27  5  2  0  0  0  0
 28  6  2  0  0  0  0
 28  9  1  0  0  0  0
 30 32  1  0  0  0  0
 30 29  1  0  0  0  0
 31 30  2  0  0  0  0
M  END
>  <MODEL>
1

>  <REMARK>
 VINA RESULT:      -8.2      0.000      0.000
  Name = 
  1 active torsions:
  status: ('A' for Active; 'I' for Inactive)
    1  A    between atoms: C_20  and  N_29
                            x       y       z     vdW  Elec       q    Type
                         _______ _______ _______ _____ _____    ______ ____

>  <TORSDO>
F 1

$$$$
=
 OpenBabel11122410463D

 32 37  0  0  1  0  0  0  0  0999 V2000
  184.0820  174.7650  136.4100 C   0  0  0  0  0  2  0  0  0  0  0  0
  188.6510  177.6450  137.2420 C   0  0  1  0  0  3  0  0  0  0  0  0
  192.8870  175.8230  135.6160 C   0  0  0  0  0  3  0  0  0  0  0  0
  193.4500  175.9470  136.8880 C   0  0  0  0  0  3  0  0  0  0  0  0
  188.3570  177.9990  139.7870 C   0  0  0  0  0  0  0  0  0  0  0  0
  188.8830  177.8640  141.0710 C   0  0  0  0  0  0  0  0  0  0  0  0
  186.5290  176.3680  137.3690 N   0  0  2  0  0  0  0  0  0  0  0  0
  188.5560  175.2260  136.5410 C   0  0  0  0  0  2  0  0  0  0  0  0
  190.3810  177.3160  142.6040 N   0  0  0  0  0  0  0  0  0  0  0  0
  186.4840  173.9640  136.7910 C   0  0  0  0  0  2  0  0  0  0  0  0
  191.5220  176.0520  135.4300 C   0  0  0  0  0  3  0  0  0  0  0  0
  189.2400  176.5720  136.3120 C   0  0  2  0  0  3  0  0  0  0  0  0
  190.7160  176.4200  136.5130 C   0  0  0  0  0  0  0  0  0  0  0  0
  190.4200  176.9640  138.9350 C   0  0  0  0  0  0  0  0  0  0  0  0
  189.3230  177.8790  143.2280 C   0  0  0  0  0  3  0  0  0  0  0  0
  184.3630  175.4730  137.5830 O   0  0  0  0  0  0  0  0  0  0  0  0
  187.0360  175.3440  136.4320 C   0  0  1  0  0  3  0  0  0  0  0  0
  188.3520  178.2420  142.2920 C   0  0  0  0  0  3  0  0  0  0  0  0
  185.1010  176.5780  137.1430 C   0  0  0  0  0  2  0  0  0  0  0  0
  185.1220  173.6720  136.1530 C   0  0  1  0  0  3  0  0  0  0  0  0
  192.6480  176.3060  137.9740 C   0  0  0  0  0  3  0  0  0  0  0  0
  191.2760  176.5440  137.7990 C   0  0  0  0  0  0  0  0  0  0  0  0
  190.9130  176.8620  140.2540 C   0  0  0  0  0  3  0  0  0  0  0  0
  187.1330  177.6610  137.0430 C   0  0  0  0  0  2  0  0  0  0  0  0
  187.1310  178.6300  139.6130 O   0  0  0  0  0  1  0  0  0  0  0  0
  191.5870  176.8260  143.2510 C   0  0  0  0  0  1  0  0  0  0  0  0
  189.1150  177.4970  138.6900 C   0  0  0  0  0  0  0  0  0  0  0  0
  190.1060  177.3110  141.2930 C   0  0  0  0  0  0  0  0  0  0  0  0
  184.6130  172.3990  136.6430 N   0  0  0  0  0  2  0  0  0  0  0  0
  183.9250  171.4690  135.8050 C   0  0  0  0  0  0  0  0  0  0  0  0
  183.7070  171.7340  134.5940 O   0  0  0  0  0  0  0  0  0  0  0  0
  183.4570  170.1770  136.3720 C   0  0  0  0  0  1  0  0  0  0  0  0
  1 16  1  0  0  0  0
  2 24  1  1  0  0  0
  2 27  1  0  0  0  0
  3  4  1  0  0  0  0
  4 21  2  0  0  0  0
  5  6  1  0  0  0  0
  6 28  2  0  0  0  0
  6 18  1  0  0  0  0
  7 24  1  6  0  0  0
  9 15  1  0  0  0  0
  9 26  1  0  0  0  0
 11  3  2  0  0  0  0
 11 13  1  0  0  0  0
 12 13  1  0  0  0  0
 12  8  1  1  0  0  0
 12  2  1  0  0  0  0
 13 22  2  0  0  0  0
 14 23  2  0  0  0  0
 17  8  1  1  0  0  0
 17 10  1  0  0  0  0
 17  7  1  0  0  0  0
 18 15  2  0  0  0  0
 19  7  1  0  0  0  0
 19 16  1  0  0  0  0
 20  1  1  0  0  0  0
 20 29  1  1  0  0  0
 20 10  1  0  0  0  0
 22 21  1  0  0  0  0
 22 14  1  0  0  0  0
 23 28  1  0  0  0  0
 25  5  1  0  0  0  0
 27 14  1  0  0  0  0
 27  5  2  0  0  0  0
 28  9  1  0  0  0  0
 30 32  1  0  0  0  0
 30 29  1  0  0  0  0
 31 30  2  0  0  0  0
M  END
>  <MODEL>
2

>  <REMARK>
 VINA RESULT:      -8.1      3.153      4.380
  Name = 
  1 active torsions:
  status: ('A' for Active; 'I' for Inactive)
    1  A    between atoms: C_20  and  N_29
                            x       y       z     vdW  Elec       q    Type
                         _______ _______ _______ _____ _____    ______ ____

>  <TORSDO>
F 1

$$$$
=
 OpenBabel11122410463D

 32 37  0  0  1  0  0  0  0  0999 V2000
  185.5730  175.3490  135.2410 C   0  0  0  0  0  2  0  0  0  0  0  0
  188.1050  178.5050  138.9130 C   0  0  1  0  0  3  0  0  0  0  0  0
  192.5060  177.1250  140.5380 C   0  0  0  0  0  3  0  0  0  0  0  0
  192.0630  177.2060  141.8600 C   0  0  0  0  0  3  0  0  0  0  0  0
  186.1590  178.6630  140.6080 C   0  0  0  0  0  0  0  0  0  0  0  0
  185.7070  178.4820  141.9140 C   0  0  0  0  0  0  0  0  0  0  0  0
  186.5810  177.0650  137.5900 N   0  0  2  0  0  0  0  0  0  0  0  0
  188.7480  176.1390  138.3300 C   0  0  0  0  0  2  0  0  0  0  0  0
  185.8510  177.9470  144.0570 N   0  0  0  0  0  0  0  0  0  0  0  0
  187.1770  174.7090  137.1310 C   0  0  0  0  0  2  0  0  0  0  0  0
  191.5960  177.2620  139.4860 C   0  0  0  0  0  3  0  0  0  0  0  0
  189.2690  177.5450  138.6160 C   0  0  2  0  0  3  0  0  0  0  0  0
  190.2420  177.4940  139.7520 C   0  0  0  0  0  0  0  0  0  0  0  0
  188.3570  177.8480  141.3550 C   0  0  0  0  0  0  0  0  0  0  0  0
  184.5960  178.3850  143.8130 C   0  0  0  0  0  3  0  0  0  0  0  0
  184.9290  175.9950  136.3000 O   0  0  0  0  0  0  0  0  0  0  0  0
  187.6840  176.1480  137.2320 C   0  0  1  0  0  3  0  0  0  0  0  0
  184.4630  178.7350  142.4670 C   0  0  0  0  0  3  0  0  0  0  0  0
  185.6540  177.1800  136.4660 C   0  0  0  0  0  2  0  0  0  0  0  0
  186.6240  174.3580  135.7460 C   0  0  1  0  0  3  0  0  0  0  0  0
  190.7110  177.4280  142.1310 C   0  0  0  0  0  3  0  0  0  0  0  0
  189.7880  177.5730  141.0830 C   0  0  0  0  0  0  0  0  0  0  0  0
  187.8540  177.6950  142.6650 C   0  0  0  0  0  3  0  0  0  0  0  0
  187.1130  178.4190  137.7500 C   0  0  0  0  0  2  0  0  0  0  0  0
  185.3030  179.2090  139.6580 O   0  0  0  0  0  1  0  0  0  0  0  0
  186.3630  177.5080  145.3450 C   0  0  0  0  0  1  0  0  0  0  0  0
  187.5000  178.2950  140.3000 C   0  0  0  0  0  0  0  0  0  0  0  0
  186.5200  178.0100  142.8980 C   0  0  0  0  0  0  0  0  0  0  0  0
  186.0520  173.0200  135.7710 N   0  0  0  0  0  2  0  0  0  0  0  0
  186.7430  171.8740  135.2690 C   0  0  0  0  0  0  0  0  0  0  0  0
  187.8860  171.9880  134.7520 O   0  0  0  0  0  0  0  0  0  0  0  0
  186.1030  170.5360  135.3520 C   0  0  0  0  0  1  0  0  0  0  0  0
  1 20  1  0  0  0  0
  1 16  1  0  0  0  0
  2 24  1  6  0  0  0
  2 27  1  0  0  0  0
  3  4  1  0  0  0  0
  4 21  2  0  0  0  0
  5  6  1  0  0  0  0
  6 18  1  0  0  0  0
  6 28  2  0  0  0  0
  7 19  1  6  0  0  0
  7 24  1  0  0  0  0
  9 26  1  0  0  0  0
 11 13  1  0  0  0  0
 11  3  2  0  0  0  0
 12  8  1  1  0  0  0
 12  2  1  0  0  0  0
 12 13  1  0  0  0  0
 13 22  2  0  0  0  0
 14 23  2  0  0  0  0
 15  9  1  0  0  0  0
 16 19  1  0  0  0  0
 17 10  1  1  0  0  0
 17  7  1  0  0  0  0
 17  8  1  0  0  0  0
 18 15  2  0  0  0  0
 20 29  1  1  0  0  0
 20 10  1  0  0  0  0
 22 14  1  0  0  0  0
 22 21  1  0  0  0  0
 23 28  1  0  0  0  0
 25  5  1  0  0  0  0
 27  5  2  0  0  0  0
 27 14  1  0  0  0  0
 28  9  1  0  0  0  0
 30 32  1  0  0  0  0
 30 29  1  0  0  0  0
 31 30  2  0  0  0  0
M  END
>  <MODEL>
3

>  <REMARK>
 VINA RESULT:      -8.0      3.293      4.408
  Name = 
  1 active torsions:
  status: ('A' for Active; 'I' for Inactive)
    1  A    between atoms: C_20  and  N_29
                            x       y       z     vdW  Elec       q    Type
                         _______ _______ _______ _____ _____    ______ ____

>  <TORSDO>
F 1

$$$$
=
 OpenBabel11122410463D

 32 37  0  0  1  0  0  0  0  0999 V2000
  183.3240  175.6470  136.1450 C   0  0  0  0  0  2  0  0  0  0  0  0
  187.4120  178.4420  138.4560 C   0  0  1  0  0  3  0  0  0  0  0  0
  191.9660  176.7200  138.0020 C   0  0  0  0  0  3  0  0  0  0  0  0
  192.1360  176.7530  139.3870 C   0  0  0  0  0  3  0  0  0  0  0  0
  186.3910  178.6180  140.8250 C   0  0  0  0  0  0  0  0  0  0  0  0
  186.5260  178.3910  142.1940 C   0  0  0  0  0  0  0  0  0  0  0  0
  185.3650  177.1680  137.8770 N   0  0  2  0  0  0  0  0  0  0  0  0
  187.5620  176.0790  137.5930 C   0  0  0  0  0  2  0  0  0  0  0  0
  187.5280  177.7300  144.0530 N   0  0  0  0  0  0  0  0  0  0  0  0
  185.5270  174.8110  137.1480 C   0  0  0  0  0  2  0  0  0  0  0  0
  190.7090  176.9680  137.4450 C   0  0  0  0  0  3  0  0  0  0  0  0
  188.2610  177.4340  137.6640 C   0  0  2  0  0  3  0  0  0  0  0  0
  189.6190  177.2630  138.2720 C   0  0  0  0  0  0  0  0  0  0  0  0
  188.6280  177.6360  140.5370 C   0  0  0  0  0  0  0  0  0  0  0  0
  186.3260  178.2530  144.3820 C   0  0  0  0  0  3  0  0  0  0  0  0
  183.2440  176.2700  137.3940 O   0  0  0  0  0  0  0  0  0  0  0  0
  186.1370  176.2110  137.0580 C   0  0  1  0  0  3  0  0  0  0  0  0
  185.6590  178.6850  143.2320 C   0  0  0  0  0  3  0  0  0  0  0  0
  184.0590  177.4000  137.2630 C   0  0  0  0  0  2  0  0  0  0  0  0
  184.4120  174.5700  136.1250 C   0  0  1  0  0  3  0  0  0  0  0  0
  191.0490  177.0380  140.2180 C   0  0  0  0  0  3  0  0  0  0  0  0
  189.7820  177.2940  139.6710 C   0  0  0  0  0  0  0  0  0  0  0  0
  188.7220  177.4400  141.9310 C   0  0  0  0  0  3  0  0  0  0  0  0
  186.0160  178.4780  137.8280 C   0  0  0  0  0  2  0  0  0  0  0  0
  185.2570  179.2650  140.3480 O   0  0  0  0  0  1  0  0  0  0  0  0
  188.5030  177.1910  144.9860 C   0  0  0  0  0  1  0  0  0  0  0  0
  187.4410  178.1910  139.9620 C   0  0  0  0  0  0  0  0  0  0  0  0
  187.6420  177.8180  142.7220 C   0  0  0  0  0  0  0  0  0  0  0  0
  183.8040  173.2680  136.3590 N   0  0  0  0  0  2  0  0  0  0  0  0
  184.3070  172.0650  135.7760 C   0  0  0  0  0  0  0  0  0  0  0  0
  185.2990  172.0920  135.0000 O   0  0  0  0  0  0  0  0  0  0  0  0
  183.6480  170.7690  136.0820 C   0  0  0  0  0  1  0  0  0  0  0  0
  1 16  1  0  0  0  0
  2 24  1  6  0  0  0
  2 27  1  0  0  0  0
  3  4  1  0  0  0  0
  4 21  2  0  0  0  0
  5  6  1  0  0  0  0
  6 28  2  0  0  0  0
  6 18  1  0  0  0  0
  7 19  1  6  0  0  0
  9 15  1  0  0  0  0
  9 26  1  0  0  0  0
 11  3  2  0  0  0  0
 11 13  1  0  0  0  0
 12  8  1  1  0  0  0
 12 13  1  0  0  0  0
 12  2  1  0  0  0  0
 13 22  2  0  0  0  0
 14 23  2  0  0  0  0
 17 10  1  1  0  0  0
 17  8  1  0  0  0  0
 17  7  1  0  0  0  0
 18 15  2  0  0  0  0
 19 16  1  0  0  0  0
 20  1  1  0  0  0  0
 20 29  1  1  0  0  0
 20 10  1  0  0  0  0
 22 21  1  0  0  0  0
 22 14  1  0  0  0  0
 23 28  1  0  0  0  0
 24  7  1  0  0  0  0
 25  5  1  0  0  0  0
 27 14  1  0  0  0  0
 27  5  2  0  0  0  0
 28  9  1  0  0  0  0
 30 32  1  0  0  0  0
 30 29  1  0  0  0  0
 31 30  2  0  0  0  0
M  END
>  <MODEL>
4

>  <REMARK>
 VINA RESULT:      -7.9      2.359      3.067
  Name = 
  1 active torsions:
  status: ('A' for Active; 'I' for Inactive)
    1  A    between atoms: C_20  and  N_29
                            x       y       z     vdW  Elec       q    Type
                         _______ _______ _______ _____ _____    ______ ____

>  <TORSDO>
F 1

$$$$
=
 OpenBabel11122410463D

 32 37  0  0  1  0  0  0  0  0999 V2000
  179.4240  180.9300  136.0570 C   0  0  0  0  0  2  0  0  0  0  0  0
  182.3950  177.6750  139.2880 C   0  0  1  0  0  3  0  0  0  0  0  0
  182.9770  178.9410  143.9750 C   0  0  0  0  0  3  0  0  0  0  0  0
  184.3650  178.8530  143.8450 C   0  0  0  0  0  3  0  0  0  0  0  0
  184.4900  177.5380  137.7780 C   0  0  0  0  0  0  0  0  0  0  0  0
  185.8660  177.7130  137.6420 C   0  0  0  0  0  0  0  0  0  0  0  0
  181.4660  179.1640  137.5360 N   0  0  2  0  0  0  0  0  0  0  0  0
  181.6970  180.0340  139.8350 C   0  0  0  0  0  2  0  0  0  0  0  0
  187.9220  178.2180  138.2860 N   0  0  0  0  0  0  0  0  0  0  0  0
  180.9000  181.5120  138.0660 C   0  0  0  0  0  2  0  0  0  0  0  0
  182.1610  178.8360  142.8450 C   0  0  0  0  0  3  0  0  0  0  0  0
  181.8460  178.6130  140.3740 C   0  0  2  0  0  3  0  0  0  0  0  0
  182.7290  178.6300  141.5830 C   0  0  0  0  0  0  0  0  0  0  0  0
  184.7190  178.2960  140.1070 C   0  0  0  0  0  0  0  0  0  0  0  0
  187.9690  177.8100  136.9980 C   0  0  0  0  0  3  0  0  0  0  0  0
  180.5980  180.2850  135.6570 O   0  0  0  0  0  0  0  0  0  0  0  0
  180.8720  180.0610  138.5490 C   0  0  1  0  0  3  0  0  0  0  0  0
  186.6870  177.4790  136.5520 C   0  0  0  0  0  3  0  0  0  0  0  0
  180.5850  179.0830  136.3730 C   0  0  0  0  0  2  0  0  0  0  0  0
  179.6820  181.8920  137.2190 C   0  0  1  0  0  3  0  0  0  0  0  0
  184.9370  178.6570  142.5860 C   0  0  0  0  0  3  0  0  0  0  0  0
  184.1280  178.5450  141.4440 C   0  0  0  0  0  0  0  0  0  0  0  0
  186.1100  178.4440  139.9220 C   0  0  0  0  0  3  0  0  0  0  0  0
  181.4910  177.7970  138.0580 C   0  0  0  0  0  2  0  0  0  0  0  0
  183.7580  177.0220  136.7150 O   0  0  0  0  0  1  0  0  0  0  0  0
  189.0620  178.6300  139.0890 C   0  0  0  0  0  1  0  0  0  0  0  0
  183.8850  177.8810  139.0210 C   0  0  0  0  0  0  0  0  0  0  0  0
  186.6410  178.1550  138.6700 C   0  0  0  0  0  0  0  0  0  0  0  0
  179.8460  183.2420  136.6990 N   0  0  0  0  0  2  0  0  0  0  0  0
  179.4620  184.4050  137.4340 C   0  0  0  0  0  0  0  0  0  0  0  0
  178.9310  184.3000  138.5720 O   0  0  0  0  0  0  0  0  0  0  0  0
  179.6850  185.7520  136.8470 C   0  0  0  0  0  1  0  0  0  0  0  0
  1 20  1  0  0  0  0
  2 24  1  6  0  0  0
  2 12  1  0  0  0  0
  4  3  1  0  0  0  0
  5 27  1  0  0  0  0
  6  5  2  0  0  0  0
  6 28  1  0  0  0  0
  7 19  1  6  0  0  0
  7 24  1  0  0  0  0
  7 17  1  0  0  0  0
  9 28  1  0  0  0  0
  9 26  1  0  0  0  0
 11  3  2  0  0  0  0
 12  8  1  6  0  0  0
 12 13  1  0  0  0  0
 13 11  1  0  0  0  0
 14 22  1  0  0  0  0
 15  9  1  0  0  0  0
 16  1  1  0  0  0  0
 16 19  1  0  0  0  0
 17 10  1  6  0  0  0
 17  8  1  0  0  0  0
 18 15  2  0  0  0  0
 18  6  1  0  0  0  0
 20 29  1  6  0  0  0
 20 10  1  0  0  0  0
 21  4  2  0  0  0  0
 22 13  2  0  0  0  0
 22 21  1  0  0  0  0
 23 14  1  0  0  0  0
 25  5  1  0  0  0  0
 27  2  1  0  0  0  0
 27 14  2  0  0  0  0
 28 23  2  0  0  0  0
 29 30  1  0  0  0  0
 30 31  2  0  0  0  0
 32 30  1  0  0  0  0
M  END
>  <MODEL>
5

>  <REMARK>
 VINA RESULT:      -7.5      3.734      6.565
  Name = 
  1 active torsions:
  status: ('A' for Active; 'I' for Inactive)
    1  A    between atoms: C_20  and  N_29
                            x       y       z     vdW  Elec       q    Type
                         _______ _______ _______ _____ _____    ______ ____

>  <TORSDO>
F 1

$$$$
=
 OpenBabel11122410463D

 32 37  0  0  1  0  0  0  0  0999 V2000
  191.1880  177.5030  140.7540 C   0  0  0  0  0  2  0  0  0  0  0  0
  186.9120  177.7890  137.3640 C   0  0  1  0  0  3  0  0  0  0  0  0
  182.7460  179.7390  139.0210 C   0  0  0  0  0  3  0  0  0  0  0  0
  182.0380  178.5970  138.6400 C   0  0  0  0  0  3  0  0  0  0  0  0
  186.9070  175.3080  136.6320 C   0  0  0  0  0  0  0  0  0  0  0  0
  186.2050  174.1110  136.5080 C   0  0  0  0  0  0  0  0  0  0  0  0
  188.8370  177.1620  138.7960 N   0  0  2  0  0  0  0  0  0  0  0  0
  186.8190  178.1050  139.8620 C   0  0  0  0  0  2  0  0  0  0  0  0
  184.4640  172.7530  136.6590 N   0  0  0  0  0  0  0  0  0  0  0  0
  188.6810  177.3680  141.2550 C   0  0  0  0  0  2  0  0  0  0  0  0
  184.1410  179.7530  138.9530 C   0  0  0  0  0  3  0  0  0  0  0  0
  186.3310  178.6280  138.5130 C   0  0  2  0  0  3  0  0  0  0  0  0
  184.8340  178.6280  138.4910 C   0  0  0  0  0  0  0  0  0  0  0  0
  184.8690  176.2950  137.5930 C   0  0  0  0  0  0  0  0  0  0  0  0
  185.4880  172.0680  136.1030 C   0  0  0  0  0  3  0  0  0  0  0  0
  190.8380  176.5010  139.8430 O   0  0  0  0  0  0  0  0  0  0  0  0
  188.3430  178.0040  139.9060 C   0  0  1  0  0  3  0  0  0  0  0  0
  186.6100  172.8930  135.9890 C   0  0  0  0  0  3  0  0  0  0  0  0
  190.2980  177.2020  138.7600 C   0  0  0  0  0  2  0  0  0  0  0  0
  190.0710  177.7480  141.7730 C   0  0  1  0  0  3  0  0  0  0  0  0
  182.7260  177.4680  138.1870 C   0  0  0  0  0  3  0  0  0  0  0  0
  184.1280  177.4710  138.1090 C   0  0  0  0  0  0  0  0  0  0  0  0
  184.1980  175.0630  137.4340 C   0  0  0  0  0  3  0  0  0  0  0  0
  188.4350  177.7610  137.5220 C   0  0  0  0  0  2  0  0  0  0  0  0
  188.2100  175.3890  136.1550 O   0  0  0  0  0  1  0  0  0  0  0  0
  183.1350  172.2270  136.9230 C   0  0  0  0  0  1  0  0  0  0  0  0
  186.2470  176.4190  137.2320 C   0  0  0  0  0  0  0  0  0  0  0  0
  184.9070  173.9930  136.9010 C   0  0  0  0  0  0  0  0  0  0  0  0
  190.3610  177.0060  142.9910 N   0  0  0  0  0  2  0  0  0  0  0  0
  191.1080  177.5630  144.0740 C   0  0  0  0  0  0  0  0  0  0  0  0
  191.5750  178.7300  144.0010 O   0  0  0  0  0  0  0  0  0  0  0  0
  191.3420  176.7530  145.2980 C   0  0  0  0  0  1  0  0  0  0  0  0
  1 20  1  0  0  0  0
  2 24  1  1  0  0  0
  2 12  1  0  0  0  0
  4  3  2  0  0  0  0
  5 27  1  0  0  0  0
  6  5  2  0  0  0  0
  6 28  1  0  0  0  0
  7 24  1  6  0  0  0
  7 17  1  0  0  0  0
  9 28  1  0  0  0  0
  9 26  1  0  0  0  0
 10 20  1  0  0  0  0
 11  3  1  0  0  0  0
 12  8  1  1  0  0  0
 13 12  1  0  0  0  0
 13 11  2  0  0  0  0
 14 22  1  0  0  0  0
 15  9  1  0  0  0  0
 16  1  1  0  0  0  0
 17  8  1  6  0  0  0
 17 10  1  0  0  0  0
 18 15  2  0  0  0  0
 18  6  1  0  0  0  0
 19  7  1  0  0  0  0
 19 16  1  0  0  0  0
 20 29  1  1  0  0  0
 21  4  1  0  0  0  0
 22 21  2  0  0  0  0
 22 13  1  0  0  0  0
 23 14  1  0  0  0  0
 25  5  1  0  0  0  0
 27  2  1  0  0  0  0
 27 14  2  0  0  0  0
 28 23  2  0  0  0  0
 29 30  1  0  0  0  0
 30 32  1  0  0  0  0
 31 30  2  0  0  0  0
M  END
>  <MODEL>
6

>  <REMARK>
 VINA RESULT:      -7.3      3.461      8.256
  Name = 
  1 active torsions:
  status: ('A' for Active; 'I' for Inactive)
    1  A    between atoms: C_20  and  N_29
                            x       y       z     vdW  Elec       q    Type
                         _______ _______ _______ _____ _____    ______ ____

>  <TORSDO>
F 1

$$$$
=
 OpenBabel11122410463D

 32 37  0  0  1  0  0  0  0  0999 V2000
  181.0560  175.4770  136.6560 C   0  0  0  0  0  2  0  0  0  0  0  0
  184.6510  178.9930  138.7950 C   0  0  1  0  0  3  0  0  0  0  0  0
  189.4200  178.1650  138.1040 C   0  0  0  0  0  3  0  0  0  0  0  0
  189.6490  178.2280  139.4800 C   0  0  0  0  0  3  0  0  0  0  0  0
  183.7330  178.9700  141.2130 C   0  0  0  0  0  0  0  0  0  0  0  0
  183.9760  178.7710  142.5710 C   0  0  0  0  0  0  0  0  0  0  0  0
  182.8550  177.3550  138.3030 N   0  0  2  0  0  0  0  0  0  0  0  0
  185.2020  176.7020  137.9020 C   0  0  0  0  0  2  0  0  0  0  0  0
  185.1750  178.3100  144.3730 N   0  0  0  0  0  0  0  0  0  0  0  0
  183.4230  175.0720  137.5420 C   0  0  0  0  0  2  0  0  0  0  0  0
  188.1120  178.1710  137.6110 C   0  0  0  0  0  3  0  0  0  0  0  0
  185.6350  178.1650  137.9530 C   0  0  2  0  0  3  0  0  0  0  0  0
  187.0290  178.2530  138.4930 C   0  0  0  0  0  0  0  0  0  0  0  0
  186.0990  178.4300  140.8070 C   0  0  0  0  0  0  0  0  0  0  0  0
  183.9140  178.5950  144.7650 C   0  0  0  0  0  3  0  0  0  0  0  0
  180.9210  176.0720  137.9140 O   0  0  0  0  0  0  0  0  0  0  0  0
  183.7530  176.5620  137.4380 C   0  0  1  0  0  3  0  0  0  0  0  0
  183.1220  178.8940  143.6530 C   0  0  0  0  0  3  0  0  0  0  0  0
  181.5000  177.3360  137.7560 C   0  0  0  0  0  2  0  0  0  0  0  0
  182.3250  174.6260  136.5720 C   0  0  1  0  0  3  0  0  0  0  0  0
  188.5700  178.3010  140.3650 C   0  0  0  0  0  3  0  0  0  0  0  0
  187.2520  178.3130  139.8820 C   0  0  0  0  0  0  0  0  0  0  0  0
  186.2960  178.2530  142.1930 C   0  0  0  0  0  3  0  0  0  0  0  0
  183.2430  178.7650  138.2370 C   0  0  0  0  0  2  0  0  0  0  0  0
  182.4750  179.3910  140.7980 O   0  0  0  0  0  1  0  0  0  0  0  0
  186.2800  177.9640  145.2520 C   0  0  0  0  0  1  0  0  0  0  0  0
  184.8010  178.7500  140.2960 C   0  0  0  0  0  0  0  0  0  0  0  0
  185.2050  178.4190  143.0380 C   0  0  0  0  0  0  0  0  0  0  0  0
  181.9860  173.2320  136.8210 N   0  0  0  0  0  2  0  0  0  0  0  0
  182.3750  172.1740  135.9440 C   0  0  0  0  0  0  0  0  0  0  0  0
  183.0150  172.4180  134.8870 O   0  0  0  0  0  0  0  0  0  0  0  0
  182.0140  170.7720  136.2780 C   0  0  0  0  0  1  0  0  0  0  0  0
  1 16  1  0  0  0  0
  2 24  1  6  0  0  0
  2 27  1  0  0  0  0
  3  4  1  0  0  0  0
  4 21  2  0  0  0  0
  5  6  1  0  0  0  0
  6 28  2  0  0  0  0
  6 18  1  0  0  0  0
  7 19  1  6  0  0  0
  9 15  1  0  0  0  0
  9 26  1  0  0  0  0
 11  3  2  0  0  0  0
 11 13  1  0  0  0  0
 12  8  1  1  0  0  0
 12 13  1  0  0  0  0
 12  2  1  0  0  0  0
 13 22  2  0  0  0  0
 14 23  2  0  0  0  0
 17 10  1  1  0  0  0
 17  8  1  0  0  0  0
 17  7  1  0  0  0  0
 18 15  2  0  0  0  0
 19 16  1  0  0  0  0
 20  1  1  0  0  0  0
 20 29  1  1  0  0  0
 20 10  1  0  0  0  0
 22 21  1  0  0  0  0
 22 14  1  0  0  0  0
 23 28  1  0  0  0  0
 24  7  1  0  0  0  0
 25  5  1  0  0  0  0
 27 14  1  0  0  0  0
 27  5  2  0  0  0  0
 28  9  1  0  0  0  0
 30 32  1  0  0  0  0
 30 29  1  0  0  0  0
 31 30  2  0  0  0  0
M  END
>  <MODEL>
7

>  <REMARK>
 VINA RESULT:      -7.1      1.634      1.975
  Name = 
  1 active torsions:
  status: ('A' for Active; 'I' for Inactive)
    1  A    between atoms: C_20  and  N_29
                            x       y       z     vdW  Elec       q    Type
                         _______ _______ _______ _____ _____    ______ ____

>  <TORSDO>
F 1

$$$$
=
 OpenBabel11122410463D

 32 37  0  0  1  0  0  0  0  0999 V2000
  189.9180  177.8960  141.9200 C   0  0  0  0  0  2  0  0  0  0  0  0
  186.2940  178.1370  137.8370 C   0  0  1  0  0  3  0  0  0  0  0  0
  181.9180  180.1350  138.7150 C   0  0  0  0  0  3  0  0  0  0  0  0
  181.2790  178.9890  138.2380 C   0  0  0  0  0  3  0  0  0  0  0  0
  186.3970  175.6440  137.1590 C   0  0  0  0  0  0  0  0  0  0  0  0
  185.7180  174.4470  136.9360 C   0  0  0  0  0  0  0  0  0  0  0  0
  187.9380  177.5290  139.5910 N   0  0  2  0  0  0  0  0  0  0  0  0
  185.7730  178.5000  140.2760 C   0  0  0  0  0  2  0  0  0  0  0  0
  183.9680  173.0990  136.8070 N   0  0  0  0  0  0  0  0  0  0  0  0
  187.3610  177.7810  141.9830 C   0  0  0  0  0  2  0  0  0  0  0  0
  183.3050  180.1410  138.8890 C   0  0  0  0  0  3  0  0  0  0  0  0
  185.5300  179.0000  138.8540 C   0  0  2  0  0  3  0  0  0  0  0  0
  184.0590  179.0050  138.5740 C   0  0  0  0  0  0  0  0  0  0  0  0
  184.2310  176.6560  137.7360 C   0  0  0  0  0  0  0  0  0  0  0  0
  185.0680  172.4010  136.4500 C   0  0  0  0  0  3  0  0  0  0  0  0
  189.7230  176.8790  140.9800 O   0  0  0  0  0  0  0  0  0  0  0  0
  187.2660  178.3930  140.5840 C   0  0  1  0  0  3  0  0  0  0  0  0
  186.1990  173.2180  136.5160 C   0  0  0  0  0  3  0  0  0  0  0  0
  189.3830  177.5630  139.8070 C   0  0  0  0  0  2  0  0  0  0  0  0
  188.6440  178.1640  142.7260 C   0  0  1  0  0  3  0  0  0  0  0  0
  182.0260  177.8490  137.9300 C   0  0  0  0  0  3  0  0  0  0  0  0
  183.4200  177.8450  138.0960 C   0  0  0  0  0  0  0  0  0  0  0  0
  183.5890  175.4250  137.4850 C   0  0  0  0  0  3  0  0  0  0  0  0
  187.7660  178.1060  138.2570 C   0  0  0  0  0  2  0  0  0  0  0  0
  187.7640  175.7110  136.9130 O   0  0  0  0  0  1  0  0  0  0  0  0
  182.6090  172.5840  136.8470 C   0  0  0  0  0  1  0  0  0  0  0  0
  185.6520  176.7680  137.6160 C   0  0  0  0  0  0  0  0  0  0  0  0
  184.3710  174.3420  137.1010 C   0  0  0  0  0  0  0  0  0  0  0  0
  188.7130  177.4440  143.9890 N   0  0  0  0  0  2  0  0  0  0  0  0
  189.5270  177.8770  145.0810 C   0  0  0  0  0  0  0  0  0  0  0  0
  190.2480  178.9040  144.9780 O   0  0  0  0  0  0  0  0  0  0  0  0
  189.5260  177.1030  146.3490 C   0  0  0  0  0  1  0  0  0  0  0  0
  1 20  1  0  0  0  0
  2 24  1  1  0  0  0
  2 12  1  0  0  0  0
  3 11  1  0  0  0  0
  4  3  2  0  0  0  0
  5 27  1  0  0  0  0
  6 28  1  0  0  0  0
  6  5  2  0  0  0  0
  7 24  1  6  0  0  0
  7 19  1  0  0  0  0
  7 17  1  0  0  0  0
  9 26  1  0  0  0  0
  9 28  1  0  0  0  0
 10 20  1  0  0  0  0
 12  8  1  1  0  0  0
 13 12  1  0  0  0  0
 13 11  2  0  0  0  0
 14 22  1  0  0  0  0
 15 18  2  0  0  0  0
 15  9  1  0  0  0  0
 16  1  1  0  0  0  0
 17  8  1  6  0  0  0
 17 10  1  0  0  0  0
 18  6  1  0  0  0  0
 19 16  1  0  0  0  0
 20 29  1  1  0  0  0
 21 22  2  0  0  0  0
 21  4  1  0  0  0  0
 22 13  1  0  0  0  0
 23 14  1  0  0  0  0
 25  5  1  0  0  0  0
 27 14  2  0  0  0  0
 27  2  1  0  0  0  0
 28 23  2  0  0  0  0
 29 30  1  0  0  0  0
 30 32  1  0  0  0  0
 31 30  2  0  0  0  0
M  END
>  <MODEL>
8

>  <REMARK>
 VINA RESULT:      -6.9      2.966      7.912
  Name = 
  1 active torsions:
  status: ('A' for Active; 'I' for Inactive)
    1  A    between atoms: C_20  and  N_29
                            x       y       z     vdW  Elec       q    Type
                         _______ _______ _______ _____ _____    ______ ____

>  <TORSDO>
F 1

$$$$
=
 OpenBabel11122410463D

 32 37  0  0  1  0  0  0  0  0999 V2000
  189.6220  174.6300  134.6570 C   0  0  0  0  0  2  0  0  0  0  0  0
  189.4590  178.4000  138.6090 C   0  0  1  0  0  3  0  0  0  0  0  0
  191.7260  177.4500  142.8360 C   0  0  0  0  0  3  0  0  0  0  0  0
  190.5520  177.7140  143.5460 C   0  0  0  0  0  3  0  0  0  0  0  0
  186.8960  178.7400  138.6340 C   0  0  0  0  0  0  0  0  0  0  0  0
  185.7070  178.7420  139.3620 C   0  0  0  0  0  0  0  0  0  0  0  0
  189.0260  176.7190  136.8390 N   0  0  2  0  0  0  0  0  0  0  0  0
  190.1640  176.0000  138.9090 C   0  0  0  0  0  2  0  0  0  0  0  0
  184.4240  178.5440  141.1550 N   0  0  0  0  0  0  0  0  0  0  0  0
  189.6170  174.3450  137.2020 C   0  0  0  0  0  2  0  0  0  0  0  0
  191.7010  177.3920  141.4410 C   0  0  0  0  0  3  0  0  0  0  0  0
  190.4790  177.4520  139.2600 C   0  0  2  0  0  3  0  0  0  0  0  0
  190.5050  177.6100  140.7480 C   0  0  0  0  0  0  0  0  0  0  0  0
  188.0600  178.1320  140.7140 C   0  0  0  0  0  0  0  0  0  0  0  0
  183.6420  178.8920  140.1090 C   0  0  0  0  0  3  0  0  0  0  0  0
  188.4980  175.4050  134.9600 O   0  0  0  0  0  0  0  0  0  0  0  0
  190.0400  175.8020  137.3990 C   0  0  1  0  0  3  0  0  0  0  0  0
  184.4160  179.0280  138.9540 C   0  0  0  0  0  3  0  0  0  0  0  0
  189.0320  176.6280  135.3800 C   0  0  0  0  0  2  0  0  0  0  0  0
  190.0450  173.7680  135.8490 C   0  0  1  0  0  3  0  0  0  0  0  0
  189.3540  177.9230  142.8600 C   0  0  0  0  0  3  0  0  0  0  0  0
  189.3170  177.8720  141.4570 C   0  0  0  0  0  0  0  0  0  0  0  0
  186.8320  178.1600  141.4090 C   0  0  0  0  0  3  0  0  0  0  0  0
  189.4260  178.1010  137.1080 C   0  0  0  0  0  2  0  0  0  0  0  0
  186.8760  179.1030  137.2920 O   0  0  0  0  0  1  0  0  0  0  0  0
  183.9720  178.3250  142.5190 C   0  0  0  0  0  1  0  0  0  0  0  0
  188.1000  178.3810  139.3050 C   0  0  0  0  0  0  0  0  0  0  0  0
  185.6780  178.4550  140.6930 C   0  0  0  0  0  0  0  0  0  0  0  0
  189.4970  172.4280  135.6920 N   0  0  0  0  0  2  0  0  0  0  0  0
  188.1230  172.1230  135.9330 C   0  0  0  0  0  0  0  0  0  0  0  0
  187.3240  173.0150  136.3230 O   0  0  0  0  0  0  0  0  0  0  0  0
  187.6310  170.7360  135.7260 C   0  0  0  0  0  1  0  0  0  0  0  0
  1 16  1  0  0  0  0
  1 20  1  0  0  0  0
  2 24  1  6  0  0  0
  2 12  1  0  0  0  0
  2 27  1  0  0  0  0
  3  4  1  0  0  0  0
  5 27  2  0  0  0  0
  5  6  1  0  0  0  0
  6 28  2  0  0  0  0
  7 19  1  6  0  0  0
  7 24  1  0  0  0  0
  7 17  1  0  0  0  0
  9 26  1  0  0  0  0
 11  3  2  0  0  0  0
 12  8  1  1  0  0  0
 12 13  1  0  0  0  0
 13 11  1  0  0  0  0
 13 22  2  0  0  0  0
 14 23  2  0  0  0  0
 14 22  1  0  0  0  0
 15  9  1  0  0  0  0
 16 19  1  0  0  0  0
 17 10  1  1  0  0  0
 17  8  1  0  0  0  0
 18  6  1  0  0  0  0
 18 15  2  0  0  0  0
 20 29  1  6  0  0  0
 20 10  1  0  0  0  0
 21  4  2  0  0  0  0
 22 21  1  0  0  0  0
 25  5  1  0  0  0  0
 27 14  1  0  0  0  0
 28  9  1  0  0  0  0
 28 23  1  0  0  0  0
 29 30  1  0  0  0  0
 30 31  2  0  0  0  0
 32 30  1  0  0  0  0
M  END
>  <MODEL>
9

>  <REMARK>
 VINA RESULT:      -6.5      3.934      6.324
  Name = 
  1 active torsions:
  status: ('A' for Active; 'I' for Inactive)
    1  A    between atoms: C_20  and  N_29
                            x       y       z     vdW  Elec       q    Type
                         _______ _______ _______ _____ _____    ______ ____

>  <TORSDO>
F 1

$$$$
