=
 OpenBabel11122412283D

 34 42  0  0  1  0  0  0  0  0999 V2000
  188.2040  177.3600  138.4700 C   0  0  2  0  0  3  0  0  0  0  0  0
  186.6850  178.3140  140.2180 C   0  0  0  0  0  2  0  0  0  0  0  0
  193.9940  175.1760  135.8390 C   0  0  2  0  0  3  0  0  0  0  0  0
  189.6890  176.1560  136.9160 C   0  0  1  0  0  3  0  0  0  0  0  0
  192.2480  176.0870  137.5030 C   0  0  2  0  0  3  0  0  0  0  0  0
  194.5180  175.6470  138.1250 O   0  0  0  0  0  1  0  0  0  0  0  0
  193.6970  176.4310  135.0310 C   0  0  0  0  0  2  0  0  0  0  0  0
  191.4290  175.3210  135.1410 C   0  0  1  0  0  3  0  0  0  0  0  0
  189.0690  178.2300  140.7170 C   0  0  2  0  0  3  0  0  0  0  0  0
  189.6120  176.6330  143.4540 C   0  0  0  0  0  2  0  0  0  0  0  0
  191.7210  176.0010  138.9300 C   0  0  0  0  0  2  0  0  0  0  0  0
  191.1150  174.3880  136.1510 O   0  0  0  0  0  0  0  0  0  0  0  0
  190.0260  177.0350  140.5290 C   0  0  1  0  0  3  0  0  0  0  0  0
  186.8860  178.7240  141.6590 C   0  0  0  0  0  2  0  0  0  0  0  0
  191.1150  175.7450  136.5340 C   0  0  2  0  0  0  0  0  0  0  0  0
  192.9150  175.1570  134.7470 C   0  0  2  0  0  3  0  0  0  0  0  0
  188.2530  176.9190  142.8150 C   0  0  2  0  0  3  0  0  0  0  0  0
  189.6550  177.2540  137.9950 C   0  0  2  0  0  3  0  0  0  0  0  0
  193.4850  175.2180  137.2910 C   0  0  2  0  0  3  0  0  0  0  0  0
  190.6850  177.1080  139.1490 C   0  0  2  0  0  3  0  0  0  0  0  0
  187.5830  176.5710  136.1910 C   0  0  0  0  0  2  0  0  0  0  0  0
  190.5910  176.0600  142.4380 C   0  0  0  0  0  2  0  0  0  0  0  0
  188.9400  176.5840  135.8020 O   0  0  0  0  0  0  0  0  0  0  0  0
  190.9940  177.0500  141.5370 O   0  0  0  0  0  0  0  0  0  0  0  0
  188.2850  178.2590  142.0450 C   0  0  1  0  0  3  0  0  0  0  0  0
  187.3080  177.6380  137.2620 C   0  0  0  0  0  2  0  0  0  0  0  0
  188.0520  178.4080  139.5750 C   0  0  1  0  0  3  0  0  0  0  0  0
  187.2090  176.9490  143.9240 C   0  0  0  0  0  2  0  0  0  0  0  0
  187.5820  177.9880  144.9770 C   0  0  0  0  0  2  0  0  0  0  0  0
  187.8580  178.1000  148.6700 C   0  0  0  0  0  2  0  0  0  0  0  0
  189.1090  177.1570  146.8170 C   0  0  0  0  0  2  0  0  0  0  0  0
  187.6710  177.3940  146.3810 C   0  0  0  0  0  3  0  0  0  0  0  0
  189.2600  177.8060  148.1820 C   0  0  0  0  0  2  0  0  0  0  0  0
  187.0300  178.2910  147.4220 C   0  0  0  0  0  2  0  0  0  0  0  0
  1 26  1  6  0  0  0
  1 27  1  0  0  0  0
  2 14  1  0  0  0  0
  3  7  1  6  0  0  0
  3 19  1  0  0  0  0
  4 23  1  6  0  0  0
  4 18  1  0  0  0  0
  5 11  1  1  0  0  0
  8 12  1  1  0  0  0
  8 15  1  0  0  0  0
  9 25  1  0  0  0  0
 11 20  1  0  0  0  0
 12 15  1  0  0  0  0
 13  9  1  0  0  0  0
 13 24  1  0  0  0  0
 14 25  1  0  0  0  0
 15  4  1  0  0  0  0
 15  5  1  0  0  0  0
 16  7  1  0  0  0  0
 16  8  1  0  0  0  0
 16  3  1  0  0  0  0
 17 10  1  0  0  0  0
 17 28  1  0  0  0  0
 18  1  1  0  0  0  0
 18 20  1  0  0  0  0
 19  5  1  0  0  0  0
 19  6  1  0  0  0  0
 20 13  1  0  0  0  0
 21 26  1  0  0  0  0
 22 10  1  0  0  0  0
 23 21  1  0  0  0  0
 24 22  1  0  0  0  0
 25 17  1  0  0  0  0
 27  2  1  0  0  0  0
 27  9  1  0  0  0  0
 28 29  1  0  0  0  0
 29 32  1  0  0  0  0
 31 33  1  0  0  0  0
 32 31  1  0  0  0  0
 32 34  1  0  0  0  0
 33 30  1  0  0  0  0
 34 30  1  0  0  0  0
M  END
>  <MODEL>
1

>  <REMARK>
 VINA RESULT:      -9.9      0.000      0.000
  Name = 
  3 active torsions:
  status: ('A' for Active; 'I' for Inactive)
    1  A    between atoms: C_17  and  C_28
    2  A    between atoms: C_28  and  C_29
    3  A    between atoms: C_29  and  C_32
                            x       y       z     vdW  Elec       q    Type
                         _______ _______ _______ _____ _____    ______ ____

>  <TORSDO>
F 3

$$$$
=
 OpenBabel11122412283D

 34 42  0  0  1  0  0  0  0  0999 V2000
  189.2950  177.2000  141.2070 C   0  0  2  0  0  3  0  0  0  0  0  0
  190.3280  177.1530  138.9260 C   0  0  0  0  0  2  0  0  0  0  0  0
  184.7630  178.8120  145.9070 C   0  0  2  0  0  3  0  0  0  0  0  0
  188.0700  177.0440  143.3390 C   0  0  1  0  0  3  0  0  0  0  0  0
  185.9660  178.5860  143.6370 C   0  0  2  0  0  3  0  0  0  0  0  0
  183.8390  179.6630  143.8710 O   0  0  0  0  0  1  0  0  0  0  0  0
  186.0080  179.5670  146.3500 C   0  0  0  0  0  2  0  0  0  0  0  0
  186.9570  177.3180  145.6970 C   0  0  1  0  0  3  0  0  0  0  0  0
  188.3730  178.5720  139.2520 C   0  0  2  0  0  3  0  0  0  0  0  0
  186.0560  177.8300  137.1500 C   0  0  0  0  0  2  0  0  0  0  0  0
  185.7830  178.2980  142.1520 C   0  0  0  0  0  2  0  0  0  0  0  0
  186.2720  176.4600  144.8120 O   0  0  0  0  0  0  0  0  0  0  0  0
  187.0450  178.1950  139.9390 C   0  0  1  0  0  3  0  0  0  0  0  0
  189.9050  177.7000  137.5820 C   0  0  0  0  0  2  0  0  0  0  0  0
  186.9320  177.5590  144.2280 C   0  0  2  0  0  0  0  0  0  0  0  0
  185.9250  178.0640  146.5750 C   0  0  2  0  0  3  0  0  0  0  0  0
  187.4380  177.1850  137.2540 C   0  0  2  0  0  3  0  0  0  0  0  0
  188.3530  177.9660  142.1390 C   0  0  2  0  0  3  0  0  0  0  0  0
  184.6340  178.6370  144.3830 C   0  0  2  0  0  3  0  0  0  0  0  0
  187.1070  178.5580  141.4250 C   0  0  2  0  0  3  0  0  0  0  0  0
  190.0990  176.0400  143.2590 C   0  0  0  0  0  2  0  0  0  0  0  0
  185.3750  177.9010  138.5100 C   0  0  0  0  0  2  0  0  0  0  0  0
  189.2640  176.8490  144.0600 O   0  0  0  0  0  0  0  0  0  0  0  0
  185.9900  178.8660  139.3130 O   0  0  0  0  0  0  0  0  0  0  0  0
  188.4810  178.2110  137.7560 C   0  0  1  0  0  3  0  0  0  0  0  0
  190.5410  176.7910  141.9930 C   0  0  0  0  0  2  0  0  0  0  0  0
  189.6240  178.0140  139.9540 C   0  0  1  0  0  3  0  0  0  0  0  0
  187.8130  176.6510  135.8770 C   0  0  0  0  0  2  0  0  0  0  0  0
  187.4930  175.1620  135.7810 C   0  0  0  0  0  2  0  0  0  0  0  0
  190.8060  173.9310  136.8950 C   0  0  0  0  0  2  0  0  0  0  0  0
  189.8620  174.9620  134.9110 C   0  0  0  0  0  2  0  0  0  0  0  0
  188.7500  174.2970  135.7070 C   0  0  0  0  0  3  0  0  0  0  0  0
  191.1070  174.9090  135.7800 C   0  0  0  0  0  2  0  0  0  0  0  0
  189.3090  173.9830  137.0810 C   0  0  0  0  0  2  0  0  0  0  0  0
  1 26  1  1  0  0  0
  1 18  1  0  0  0  0
  2 27  1  0  0  0  0
  3  7  1  6  0  0  0
  3 16  1  0  0  0  0
  4 23  1  1  0  0  0
  4 15  1  0  0  0  0
  5 11  1  6  0  0  0
  5 15  1  0  0  0  0
  5 19  1  0  0  0  0
  6 19  1  0  0  0  0
  7 16  1  0  0  0  0
  8 12  1  6  0  0  0
  8 16  1  0  0  0  0
  9 13  1  0  0  0  0
  9 27  1  0  0  0  0
 10 17  1  0  0  0  0
 10 22  1  0  0  0  0
 13 20  1  0  0  0  0
 14 25  1  0  0  0  0
 14  2  1  0  0  0  0
 15 12  1  0  0  0  0
 15  8  1  0  0  0  0
 17 25  1  0  0  0  0
 18  4  1  0  0  0  0
 19  3  1  0  0  0  0
 20 18  1  0  0  0  0
 20 11  1  0  0  0  0
 21 23  1  0  0  0  0
 22 24  1  0  0  0  0
 24 13  1  0  0  0  0
 25  9  1  0  0  0  0
 26 21  1  0  0  0  0
 27  1  1  0  0  0  0
 28 17  1  0  0  0  0
 29 28  1  0  0  0  0
 30 34  1  0  0  0  0
 31 32  1  0  0  0  0
 31 33  1  0  0  0  0
 32 29  1  0  0  0  0
 32 34  1  0  0  0  0
 33 30  1  0  0  0  0
M  END
>  <MODEL>
2

>  <REMARK>
 VINA RESULT:      -9.7      2.643      8.968
  Name = 
  3 active torsions:
  status: ('A' for Active; 'I' for Inactive)
    1  A    between atoms: C_17  and  C_28
    2  A    between atoms: C_28  and  C_29
    3  A    between atoms: C_29  and  C_32
                            x       y       z     vdW  Elec       q    Type
                         _______ _______ _______ _____ _____    ______ ____

>  <TORSDO>
F 3

$$$$
=
 OpenBabel11122412283D

 34 42  0  0  1  0  0  0  0  0999 V2000
  182.4230  178.5730  143.2150 C   0  0  2  0  0  3  0  0  0  0  0  0
  183.4300  179.0030  145.4680 C   0  0  0  0  0  2  0  0  0  0  0  0
  182.3080  177.8780  136.5270 C   0  0  2  0  0  3  0  0  0  0  0  0
  181.5720  177.8710  141.0120 C   0  0  1  0  0  3  0  0  0  0  0  0
  183.1450  178.2310  138.9410 C   0  0  2  0  0  3  0  0  0  0  0  0
  184.6230  178.1700  137.0570 O   0  0  0  0  0  1  0  0  0  0  0  0
  181.4860  179.1380  136.7610 C   0  0  0  0  0  2  0  0  0  0  0  0
  180.6330  177.6040  138.5780 C   0  0  1  0  0  3  0  0  0  0  0  0
  184.8520  179.3250  143.5140 C   0  0  2  0  0  3  0  0  0  0  0  0
  187.5260  177.5530  143.7370 C   0  0  0  0  0  2  0  0  0  0  0  0
  184.2320  177.8780  139.9480 C   0  0  0  0  0  2  0  0  0  0  0  0
  181.4010  176.5160  139.0440 O   0  0  0  0  0  0  0  0  0  0  0  0
  185.0340  178.3680  142.3180 C   0  0  1  0  0  3  0  0  0  0  0  0
  184.8410  179.2720  145.9420 C   0  0  0  0  0  2  0  0  0  0  0  0
  181.7900  177.7920  139.4970 C   0  0  2  0  0  0  0  0  0  0  0  0
  180.8720  177.7780  137.0610 C   0  0  2  0  0  3  0  0  0  0  0  0
  186.3980  177.6430  144.7660 C   0  0  2  0  0  3  0  0  0  0  0  0
  182.5750  178.8070  141.7100 C   0  0  2  0  0  3  0  0  0  0  0  0
  183.4280  177.6500  137.5570 C   0  0  2  0  0  3  0  0  0  0  0  0
  184.0430  178.7300  141.2070 C   0  0  2  0  0  3  0  0  0  0  0  0
  180.0660  177.9520  142.7030 C   0  0  0  0  0  2  0  0  0  0  0  0
  186.9780  177.3040  142.3390 C   0  0  0  0  0  2  0  0  0  0  0  0
  180.2630  178.2740  141.3430 O   0  0  0  0  0  0  0  0  0  0  0  0
  186.3490  178.4520  141.8500 O   0  0  0  0  0  0  0  0  0  0  0  0
  185.7470  179.0450  144.7380 C   0  0  1  0  0  3  0  0  0  0  0  0
  180.9650  178.8120  143.6060 C   0  0  0  0  0  2  0  0  0  0  0  0
  183.4010  179.4350  144.0170 C   0  0  1  0  0  3  0  0  0  0  0  0
  186.9880  177.3390  146.1380 C   0  0  0  0  0  2  0  0  0  0  0  0
  188.4120  177.8780  146.2350 C   0  0  0  0  0  2  0  0  0  0  0  0
  191.6290  176.4100  147.3430 C   0  0  0  0  0  2  0  0  0  0  0  0
  190.4450  176.7330  145.2500 C   0  0  0  0  0  2  0  0  0  0  0  0
  189.4490  176.7680  146.3990 C   0  0  0  0  0  3  0  0  0  0  0  0
  191.8280  176.7260  145.8770 C   0  0  0  0  0  2  0  0  0  0  0  0
  190.2470  176.9180  147.6800 C   0  0  0  0  0  2  0  0  0  0  0  0
  1 26  1  1  0  0  0
  1 27  1  0  0  0  0
  2 14  1  0  0  0  0
  3  7  1  1  0  0  0
  3 16  1  0  0  0  0
  3 19  1  0  0  0  0
  4 23  1  6  0  0  0
  4 18  1  0  0  0  0
  5 15  1  0  0  0  0
  5 11  1  1  0  0  0
  6 19  1  0  0  0  0
  7 16  1  0  0  0  0
  8 12  1  6  0  0  0
  8 15  1  0  0  0  0
  9 27  1  0  0  0  0
  9 25  1  0  0  0  0
 10 17  1  0  0  0  0
 11 20  1  0  0  0  0
 12 15  1  0  0  0  0
 13  9  1  0  0  0  0
 15  4  1  0  0  0  0
 16  8  1  0  0  0  0
 17 28  1  0  0  0  0
 18  1  1  0  0  0  0
 19  5  1  0  0  0  0
 20 18  1  0  0  0  0
 20 13  1  0  0  0  0
 21 26  1  0  0  0  0
 22 10  1  0  0  0  0
 23 21  1  0  0  0  0
 24 13  1  0  0  0  0
 24 22  1  0  0  0  0
 25 17  1  0  0  0  0
 25 14  1  0  0  0  0
 27  2  1  0  0  0  0
 28 29  1  0  0  0  0
 29 32  1  0  0  0  0
 30 34  1  0  0  0  0
 31 33  1  0  0  0  0
 31 32  1  0  0  0  0
 32 34  1  0  0  0  0
 33 30  1  0  0  0  0
M  END
>  <MODEL>
3

>  <REMARK>
 VINA RESULT:      -9.1      5.378      7.674
  Name = 
  3 active torsions:
  status: ('A' for Active; 'I' for Inactive)
    1  A    between atoms: C_17  and  C_28
    2  A    between atoms: C_28  and  C_29
    3  A    between atoms: C_29  and  C_32
                            x       y       z     vdW  Elec       q    Type
                         _______ _______ _______ _____ _____    ______ ____

>  <TORSDO>
F 3

$$$$
=
 OpenBabel11122412283D

 34 42  0  0  1  0  0  0  0  0999 V2000
  183.7110  178.0670  140.3720 C   0  0  2  0  0  3  0  0  0  0  0  0
  183.0730  178.5950  142.7350 C   0  0  0  0  0  2  0  0  0  0  0  0
  187.7450  177.6300  135.0090 C   0  0  2  0  0  3  0  0  0  0  0  0
  184.4900  177.3010  138.1640 C   0  0  1  0  0  3  0  0  0  0  0  0
  186.8920  178.0440  137.4080 C   0  0  2  0  0  3  0  0  0  0  0  0
  189.1840  178.3480  136.7810 O   0  0  0  0  0  1  0  0  0  0  0  0
  186.7370  178.6950  134.6010 C   0  0  0  0  0  2  0  0  0  0  0  0
  185.2600  176.9530  135.6810 C   0  0  1  0  0  3  0  0  0  0  0  0
  185.2930  179.2670  141.9880 C   0  0  2  0  0  3  0  0  0  0  0  0
  187.5680  178.0450  143.9040 C   0  0  0  0  0  2  0  0  0  0  0  0
  187.2030  177.8700  138.8890 C   0  0  0  0  0  2  0  0  0  0  0  0
  185.7780  176.0180  136.6030 O   0  0  0  0  0  0  0  0  0  0  0  0
  186.3230  178.4130  141.2200 C   0  0  1  0  0  3  0  0  0  0  0  0
  183.8430  179.1160  143.9280 C   0  0  0  0  0  2  0  0  0  0  0  0
  185.5810  177.3260  137.0870 C   0  0  2  0  0  0  0  0  0  0  0  0
  186.3230  177.2300  134.5940 C   0  0  2  0  0  3  0  0  0  0  0  0
  186.0560  177.8720  144.0510 C   0  0  2  0  0  3  0  0  0  0  0  0
  184.6870  178.3860  139.2370 C   0  0  2  0  0  3  0  0  0  0  0  0
  188.0460  177.5850  136.5180 C   0  0  2  0  0  3  0  0  0  0  0  0
  186.1490  178.6180  139.7120 C   0  0  2  0  0  3  0  0  0  0  0  0
  182.2880  177.0180  138.6170 C   0  0  0  0  0  2  0  0  0  0  0  0
  188.0210  177.7500  142.4810 C   0  0  0  0  0  2  0  0  0  0  0  0
  183.1970  177.4260  137.6170 O   0  0  0  0  0  0  0  0  0  0  0  0
  187.6150  178.7710  141.6180 O   0  0  0  0  0  0  0  0  0  0  0  0
  185.3110  179.1190  143.5220 C   0  0  1  0  0  3  0  0  0  0  0  0
  182.2950  178.0000  139.7990 C   0  0  0  0  0  2  0  0  0  0  0  0
  183.8400  179.0710  141.5200 C   0  0  1  0  0  3  0  0  0  0  0  0
  185.7510  177.6350  145.5250 C   0  0  0  0  0  2  0  0  0  0  0  0
  186.6310  178.5230  146.3990 C   0  0  0  0  0  2  0  0  0  0  0  0
  189.4080  177.9940  148.7950 C   0  0  0  0  0  2  0  0  0  0  0  0
  188.6700  177.0500  146.6850 C   0  0  0  0  0  2  0  0  0  0  0  0
  187.4910  177.7190  147.3730 C   0  0  0  0  0  3  0  0  0  0  0  0
  189.9060  177.4200  147.4860 C   0  0  0  0  0  2  0  0  0  0  0  0
  188.0530  178.5840  148.4850 C   0  0  0  0  0  2  0  0  0  0  0  0
  1 26  1  6  0  0  0
  1 27  1  0  0  0  0
  2 14  1  0  0  0  0
  3  7  1  1  0  0  0
  3 19  1  0  0  0  0
  4 23  1  6  0  0  0
  4 18  1  0  0  0  0
  5 11  1  1  0  0  0
  8 12  1  1  0  0  0
  8 15  1  0  0  0  0
  9 25  1  0  0  0  0
 10 17  1  0  0  0  0
 11 20  1  0  0  0  0
 12 15  1  0  0  0  0
 13 24  1  0  0  0  0
 13  9  1  0  0  0  0
 15  5  1  0  0  0  0
 15  4  1  0  0  0  0
 16  7  1  0  0  0  0
 16  3  1  0  0  0  0
 16  8  1  0  0  0  0
 17 28  1  0  0  0  0
 18 20  1  0  0  0  0
 18  1  1  0  0  0  0
 19  6  1  0  0  0  0
 19  5  1  0  0  0  0
 20 13  1  0  0  0  0
 21 26  1  0  0  0  0
 22 10  1  0  0  0  0
 23 21  1  0  0  0  0
 24 22  1  0  0  0  0
 25 14  1  0  0  0  0
 25 17  1  0  0  0  0
 27  9  1  0  0  0  0
 27  2  1  0  0  0  0
 28 29  1  0  0  0  0
 29 32  1  0  0  0  0
 31 32  1  0  0  0  0
 31 33  1  0  0  0  0
 32 34  1  0  0  0  0
 33 30  1  0  0  0  0
 34 30  1  0  0  0  0
M  END
>  <MODEL>
4

>  <REMARK>
 VINA RESULT:      -8.9      3.242      4.679
  Name = 
  3 active torsions:
  status: ('A' for Active; 'I' for Inactive)
    1  A    between atoms: C_17  and  C_28
    2  A    between atoms: C_28  and  C_29
    3  A    between atoms: C_29  and  C_32
                            x       y       z     vdW  Elec       q    Type
                         _______ _______ _______ _____ _____    ______ ____

>  <TORSDO>
F 3

$$$$
=
 OpenBabel11122412283D

 34 42  0  0  1  0  0  0  0  0999 V2000
  187.8530  177.6800  140.8650 C   0  0  2  0  0  3  0  0  0  0  0  0
  187.9380  177.7020  138.3620 C   0  0  0  0  0  2  0  0  0  0  0  0
  185.2480  178.7550  146.9710 C   0  0  2  0  0  3  0  0  0  0  0  0
  187.5700  177.4220  143.2990 C   0  0  1  0  0  3  0  0  0  0  0  0
  185.5190  178.6280  144.4090 C   0  0  2  0  0  3  0  0  0  0  0  0
  183.4980  179.3680  145.4590 O   0  0  0  0  0  1  0  0  0  0  0  0
  186.4310  179.7140  146.9230 C   0  0  0  0  0  2  0  0  0  0  0  0
  187.4070  177.6150  145.9090 C   0  0  1  0  0  3  0  0  0  0  0  0
  186.0530  178.8100  139.4390 C   0  0  2  0  0  3  0  0  0  0  0  0
  183.2620  177.6310  138.3620 C   0  0  0  0  0  2  0  0  0  0  0  0
  184.8360  178.2540  143.1000 C   0  0  0  0  0  2  0  0  0  0  0  0
  186.5840  176.6250  145.3320 O   0  0  0  0  0  0  0  0  0  0  0  0
  185.1630  178.2590  140.5720 C   0  0  1  0  0  3  0  0  0  0  0  0
  186.9550  178.1210  137.2930 C   0  0  0  0  0  2  0  0  0  0  0  0
  186.7890  177.7890  144.5650 C   0  0  2  0  0  0  0  0  0  0  0  0
  186.6810  178.2260  147.1290 C   0  0  2  0  0  3  0  0  0  0  0  0
  184.6650  177.2140  137.9180 C   0  0  2  0  0  3  0  0  0  0  0  0
  187.2260  178.3270  142.1020 C   0  0  2  0  0  3  0  0  0  0  0  0
  184.5810  178.5000  145.6080 C   0  0  2  0  0  3  0  0  0  0  0  0
  185.7250  178.6880  141.9300 C   0  0  2  0  0  3  0  0  0  0  0  0
  189.5500  176.7450  142.4300 C   0  0  0  0  0  2  0  0  0  0  0  0
  183.1460  177.6500  139.8810 C   0  0  0  0  0  2  0  0  0  0  0  0
  188.9640  177.4450  143.5060 O   0  0  0  0  0  0  0  0  0  0  0  0
  183.8570  178.7320  140.4100 O   0  0  0  0  0  0  0  0  0  0  0  0
  185.6410  178.4090  138.0080 C   0  0  1  0  0  3  0  0  0  0  0  0
  189.3530  177.5030  141.1080 C   0  0  0  0  0  2  0  0  0  0  0  0
  187.5490  178.4830  139.5990 C   0  0  1  0  0  3  0  0  0  0  0  0
  184.5690  176.6890  136.4910 C   0  0  0  0  0  2  0  0  0  0  0  0
  183.8310  175.3540  136.4650 C   0  0  0  0  0  2  0  0  0  0  0  0
  186.3500  172.8780  137.5840 C   0  0  0  0  0  2  0  0  0  0  0  0
  186.1700  174.5900  135.8740 C   0  0  0  0  0  2  0  0  0  0  0  0
  184.7750  174.1650  136.3040 C   0  0  0  0  0  3  0  0  0  0  0  0
  187.1400  173.9310  136.8380 C   0  0  0  0  0  2  0  0  0  0  0  0
  184.9240  173.3760  137.5910 C   0  0  0  0  0  2  0  0  0  0  0  0
  1 26  1  1  0  0  0
  1 18  1  0  0  0  0
  2 27  1  0  0  0  0
  3  7  1  6  0  0  0
  3 16  1  0  0  0  0
  4 23  1  1  0  0  0
  4 15  1  0  0  0  0
  5 11  1  6  0  0  0
  5 15  1  0  0  0  0
  5 19  1  0  0  0  0
  6 19  1  0  0  0  0
  7 16  1  0  0  0  0
  8 12  1  1  0  0  0
  8 16  1  0  0  0  0
  9 27  1  0  0  0  0
  9 13  1  0  0  0  0
 10 22  1  0  0  0  0
 13 20  1  0  0  0  0
 14 25  1  0  0  0  0
 14  2  1  0  0  0  0
 15 12  1  0  0  0  0
 15  8  1  0  0  0  0
 17 25  1  0  0  0  0
 17 10  1  0  0  0  0
 18  4  1  0  0  0  0
 19  3  1  0  0  0  0
 20 18  1  0  0  0  0
 20 11  1  0  0  0  0
 21 23  1  0  0  0  0
 22 24  1  0  0  0  0
 24 13  1  0  0  0  0
 25  9  1  0  0  0  0
 26 21  1  0  0  0  0
 27  1  1  0  0  0  0
 28 17  1  0  0  0  0
 29 28  1  0  0  0  0
 30 34  1  0  0  0  0
 31 32  1  0  0  0  0
 31 33  1  0  0  0  0
 32 29  1  0  0  0  0
 32 34  1  0  0  0  0
 33 30  1  0  0  0  0
M  END
>  <MODEL>
5

>  <REMARK>
 VINA RESULT:      -8.9      3.776      9.157
  Name = 
  3 active torsions:
  status: ('A' for Active; 'I' for Inactive)
    1  A    between atoms: C_17  and  C_28
    2  A    between atoms: C_28  and  C_29
    3  A    between atoms: C_29  and  C_32
                            x       y       z     vdW  Elec       q    Type
                         _______ _______ _______ _____ _____    ______ ____

>  <TORSDO>
F 3

$$$$
=
 OpenBabel11122412283D

 34 42  0  0  1  0  0  0  0  0999 V2000
  185.8740  178.4120  145.2810 C   0  0  2  0  0  3  0  0  0  0  0  0
  183.7960  178.8200  143.9440 C   0  0  0  0  0  2  0  0  0  0  0  0
  192.0890  176.1550  146.5110 C   0  0  2  0  0  3  0  0  0  0  0  0
  188.0490  178.2360  146.4250 C   0  0  1  0  0  3  0  0  0  0  0  0
  189.8850  176.7310  145.3020 C   0  0  2  0  0  3  0  0  0  0  0  0
  191.7360  175.6970  144.1890 O   0  0  0  0  0  1  0  0  0  0  0  0
  191.2200  175.2960  147.4190 C   0  0  0  0  0  2  0  0  0  0  0  0
  190.2210  177.5940  147.7470 C   0  0  1  0  0  3  0  0  0  0  0  0
  185.5280  177.4270  142.9430 C   0  0  2  0  0  3  0  0  0  0  0  0
  186.4250  178.5920  140.0840 C   0  0  0  0  0  2  0  0  0  0  0  0
  189.2720  177.2770  144.0180 C   0  0  0  0  0  2  0  0  0  0  0  0
  190.3880  178.6130  146.7860 O   0  0  0  0  0  0  0  0  0  0  0  0
  187.0410  177.7210  142.8680 C   0  0  1  0  0  3  0  0  0  0  0  0
  183.4060  178.5260  142.5130 C   0  0  0  0  0  2  0  0  0  0  0  0
  189.4480  177.6110  146.4740 C   0  0  2  0  0  0  0  0  0  0  0  0
  191.5080  176.7400  147.8060 C   0  0  2  0  0  3  0  0  0  0  0  0
  185.3540  179.1660  141.0110 C   0  0  2  0  0  3  0  0  0  0  0  0
  187.1140  177.5270  145.4300 C   0  0  2  0  0  3  0  0  0  0  0  0
  191.4030  176.5940  145.2050 C   0  0  2  0  0  3  0  0  0  0  0  0
  187.7510  177.1050  144.0770 C   0  0  2  0  0  3  0  0  0  0  0  0
  186.3570  179.1750  147.6020 C   0  0  0  0  0  2  0  0  0  0  0  0
  187.7160  178.3080  140.8400 C   0  0  0  0  0  2  0  0  0  0  0  0
  187.4340  178.2670  147.6920 O   0  0  0  0  0  0  0  0  0  0  0  0
  187.5570  177.2000  141.6770 O   0  0  0  0  0  0  0  0  0  0  0  0
  184.6700  178.0380  141.8170 C   0  0  1  0  0  3  0  0  0  0  0  0
  185.2630  178.6410  146.6640 C   0  0  0  0  0  2  0  0  0  0  0  0
  184.8780  177.8170  144.2840 C   0  0  1  0  0  3  0  0  0  0  0  0
  184.3430  179.9180  140.1530 C   0  0  0  0  0  2  0  0  0  0  0  0
  184.2890  179.3200  138.7510 C   0  0  0  0  0  2  0  0  0  0  0  0
  180.9860  177.8830  139.6230 C   0  0  0  0  0  2  0  0  0  0  0  0
  183.0860  177.0940  138.6980 C   0  0  0  0  0  2  0  0  0  0  0  0
  182.9740  178.5940  138.4750 C   0  0  0  0  0  3  0  0  0  0  0  0
  181.9350  176.7040  139.6080 C   0  0  0  0  0  2  0  0  0  0  0  0
  181.8480  179.0950  139.3590 C   0  0  0  0  0  2  0  0  0  0  0  0
  1 18  1  0  0  0  0
  1 26  1  1  0  0  0
  2 27  1  0  0  0  0
  3  7  1  1  0  0  0
  3 16  1  0  0  0  0
  4 15  1  0  0  0  0
  4 23  1  1  0  0  0
  5 11  1  6  0  0  0
  5 15  1  0  0  0  0
  6 19  1  0  0  0  0
  7 16  1  0  0  0  0
  8 12  1  6  0  0  0
  8 16  1  0  0  0  0
  9 27  1  0  0  0  0
 10 22  1  0  0  0  0
 10 17  1  0  0  0  0
 11 20  1  0  0  0  0
 13  9  1  0  0  0  0
 13 20  1  0  0  0  0
 14  2  1  0  0  0  0
 15 12  1  0  0  0  0
 15  8  1  0  0  0  0
 17 25  1  0  0  0  0
 18  4  1  0  0  0  0
 19  5  1  0  0  0  0
 19  3  1  0  0  0  0
 20 18  1  0  0  0  0
 21 23  1  0  0  0  0
 22 24  1  0  0  0  0
 24 13  1  0  0  0  0
 25 14  1  0  0  0  0
 25  9  1  0  0  0  0
 26 21  1  0  0  0  0
 27  1  1  0  0  0  0
 28 17  1  0  0  0  0
 29 28  1  0  0  0  0
 31 33  1  0  0  0  0
 32 31  1  0  0  0  0
 32 29  1  0  0  0  0
 32 34  1  0  0  0  0
 33 30  1  0  0  0  0
 34 30  1  0  0  0  0
M  END
>  <MODEL>
6

>  <REMARK>
 VINA RESULT:      -8.7      4.508      8.572
  Name = 
  3 active torsions:
  status: ('A' for Active; 'I' for Inactive)
    1  A    between atoms: C_17  and  C_28
    2  A    between atoms: C_28  and  C_29
    3  A    between atoms: C_29  and  C_32
                            x       y       z     vdW  Elec       q    Type
                         _______ _______ _______ _____ _____    ______ ____

>  <TORSDO>
F 3

$$$$
=
 OpenBabel11122412283D

 34 42  0  0  1  0  0  0  0  0999 V2000
  182.1920  177.8900  141.1350 C   0  0  2  0  0  3  0  0  0  0  0  0
  182.5150  178.6810  143.4890 C   0  0  0  0  0  2  0  0  0  0  0  0
  183.7790  176.9000  134.6750 C   0  0  2  0  0  3  0  0  0  0  0  0
  182.0760  176.8840  138.8890 C   0  0  1  0  0  3  0  0  0  0  0  0
  183.9260  177.5770  137.1600 C   0  0  2  0  0  3  0  0  0  0  0  0
  185.7540  177.8480  135.6360 O   0  0  0  0  0  1  0  0  0  0  0  0
  182.6250  177.8900  134.6030 C   0  0  0  0  0  2  0  0  0  0  0  0
  181.8160  176.2600  136.3550 C   0  0  1  0  0  3  0  0  0  0  0  0
  184.2060  179.3010  141.8480 C   0  0  2  0  0  3  0  0  0  0  0  0
  187.1280  178.3560  142.7980 C   0  0  0  0  0  2  0  0  0  0  0  0
  184.8110  177.5850  138.4000 C   0  0  0  0  0  2  0  0  0  0  0  0
  182.7160  175.4500  137.0790 O   0  0  0  0  0  0  0  0  0  0  0  0
  184.8980  178.3820  140.8200 C   0  0  1  0  0  3  0  0  0  0  0  0
  183.6600  179.3520  144.2130 C   0  0  0  0  0  2  0  0  0  0  0  0
  182.6440  176.8030  137.4680 C   0  0  2  0  0  0  0  0  0  0  0  0
  182.3380  176.4270  134.9100 C   0  0  2  0  0  3  0  0  0  0  0  0
  185.8140  178.1730  143.5590 C   0  0  2  0  0  3  0  0  0  0  0  0
  182.6140  178.0910  139.6780 C   0  0  2  0  0  3  0  0  0  0  0  0
  184.6570  177.0380  135.9320 C   0  0  2  0  0  3  0  0  0  0  0  0
  184.1250  178.4050  139.4980 C   0  0  2  0  0  3  0  0  0  0  0  0
  180.2590  176.6150  140.2160 C   0  0  0  0  0  2  0  0  0  0  0  0
  186.9970  177.9030  141.3500 C   0  0  0  0  0  2  0  0  0  0  0  0
  180.6670  176.9190  138.9000 O   0  0  0  0  0  0  0  0  0  0  0  0
  186.2150  178.8080  140.6260 O   0  0  0  0  0  0  0  0  0  0  0  0
  184.8420  179.3350  143.2520 C   0  0  1  0  0  3  0  0  0  0  0  0
  180.6730  177.7300  141.1910 C   0  0  0  0  0  2  0  0  0  0  0  0
  182.7020  179.0240  142.0260 C   0  0  1  0  0  3  0  0  0  0  0  0
  186.1370  178.1050  145.0460 C   0  0  0  0  0  2  0  0  0  0  0  0
  187.5910  177.6960  145.2550 C   0  0  0  0  0  2  0  0  0  0  0  0
  188.3320  178.2080  148.8500 C   0  0  0  0  0  2  0  0  0  0  0  0
  189.3640  177.0910  146.9590 C   0  0  0  0  0  2  0  0  0  0  0  0
  187.8760  177.2570  146.6900 C   0  0  0  0  0  3  0  0  0  0  0  0
  189.6680  177.8850  148.2170 C   0  0  0  0  0  2  0  0  0  0  0  0
  187.3460  178.2510  147.7070 C   0  0  0  0  0  2  0  0  0  0  0  0
  1 26  1  6  0  0  0
  1 27  1  0  0  0  0
  2 14  1  0  0  0  0
  3  7  1  1  0  0  0
  3 16  1  0  0  0  0
  3 19  1  0  0  0  0
  4 23  1  6  0  0  0
  4 18  1  0  0  0  0
  5 15  1  0  0  0  0
  5 11  1  1  0  0  0
  6 19  1  0  0  0  0
  7 16  1  0  0  0  0
  8 12  1  1  0  0  0
  8 15  1  0  0  0  0
  9 27  1  0  0  0  0
  9 25  1  0  0  0  0
 10 17  1  0  0  0  0
 11 20  1  0  0  0  0
 12 15  1  0  0  0  0
 13  9  1  0  0  0  0
 15  4  1  0  0  0  0
 16  8  1  0  0  0  0
 17 28  1  0  0  0  0
 18  1  1  0  0  0  0
 19  5  1  0  0  0  0
 20 18  1  0  0  0  0
 20 13  1  0  0  0  0
 21 26  1  0  0  0  0
 22 10  1  0  0  0  0
 23 21  1  0  0  0  0
 24 13  1  0  0  0  0
 24 22  1  0  0  0  0
 25 17  1  0  0  0  0
 25 14  1  0  0  0  0
 27  2  1  0  0  0  0
 28 29  1  0  0  0  0
 29 32  1  0  0  0  0
 31 33  1  0  0  0  0
 32 31  1  0  0  0  0
 32 34  1  0  0  0  0
 33 30  1  0  0  0  0
 34 30  1  0  0  0  0
M  END
>  <MODEL>
7

>  <REMARK>
 VINA RESULT:      -8.4      4.827      6.661
  Name = 
  3 active torsions:
  status: ('A' for Active; 'I' for Inactive)
    1  A    between atoms: C_17  and  C_28
    2  A    between atoms: C_28  and  C_29
    3  A    between atoms: C_29  and  C_32
                            x       y       z     vdW  Elec       q    Type
                         _______ _______ _______ _____ _____    ______ ____

>  <TORSDO>
F 3

$$$$
=
 OpenBabel11122412283D

 34 42  0  0  1  0  0  0  0  0999 V2000
  189.6770  175.4920  136.9770 C   0  0  2  0  0  3  0  0  0  0  0  0
  187.8180  176.8630  137.9450 C   0  0  0  0  0  2  0  0  0  0  0  0
  196.0300  173.5410  135.9500 C   0  0  2  0  0  3  0  0  0  0  0  0
  191.5220  174.0050  136.3050 C   0  0  1  0  0  3  0  0  0  0  0  0
  193.9660  174.7850  136.8670 C   0  0  2  0  0  3  0  0  0  0  0  0
  196.1880  175.2140  137.6520 O   0  0  0  0  0  1  0  0  0  0  0  0
  195.6180  174.1100  134.5990 C   0  0  0  0  0  2  0  0  0  0  0  0
  193.5800  172.7660  135.2530 C   0  0  1  0  0  3  0  0  0  0  0  0
  190.1040  177.5500  138.4390 C   0  0  2  0  0  3  0  0  0  0  0  0
  190.5850  177.7360  141.6130 C   0  0  0  0  0  2  0  0  0  0  0  0
  193.2960  175.3350  138.1210 C   0  0  0  0  0  2  0  0  0  0  0  0
  193.3130  172.4400  136.5990 O   0  0  0  0  0  0  0  0  0  0  0  0
  191.2680  176.6580  138.9180 C   0  0  1  0  0  3  0  0  0  0  0  0
  187.7720  177.9850  138.9580 C   0  0  0  0  0  2  0  0  0  0  0  0
  193.0340  173.7660  136.2110 C   0  0  2  0  0  0  0  0  0  0  0  0
  195.1080  172.7390  135.0200 C   0  0  2  0  0  3  0  0  0  0  0  0
  189.2820  177.3610  140.9040 C   0  0  2  0  0  3  0  0  0  0  0  0
  191.1700  175.4640  136.6440 C   0  0  2  0  0  3  0  0  0  0  0  0
  195.3510  174.2130  137.1570 C   0  0  2  0  0  3  0  0  0  0  0  0
  192.0650  176.1510  137.7130 C   0  0  2  0  0  3  0  0  0  0  0  0
  189.4790  173.5370  135.4470 C   0  0  0  0  0  2  0  0  0  0  0  0
  191.7620  176.9430  141.0610 C   0  0  0  0  0  2  0  0  0  0  0  0
  190.8490  173.6330  135.1240 O   0  0  0  0  0  0  0  0  0  0  0  0
  192.0920  177.3910  139.7780 O   0  0  0  0  0  0  0  0  0  0  0  0
  189.1740  178.0890  139.5450 C   0  0  1  0  0  3  0  0  0  0  0  0
  188.8970  174.9160  135.7950 C   0  0  0  0  0  2  0  0  0  0  0  0
  189.2150  176.8980  137.3640 C   0  0  1  0  0  3  0  0  0  0  0  0
  188.1240  177.7350  141.8210 C   0  0  0  0  0  2  0  0  0  0  0  0
  188.4620  177.3950  143.2690 C   0  0  0  0  0  2  0  0  0  0  0  0
  185.2950  178.3790  144.9220 C   0  0  0  0  0  2  0  0  0  0  0  0
  187.4590  177.5080  145.5900 C   0  0  0  0  0  2  0  0  0  0  0  0
  187.2170  177.1760  144.1260 C   0  0  0  0  0  3  0  0  0  0  0  0
  186.3430  178.4470  146.0120 C   0  0  0  0  0  2  0  0  0  0  0  0
  186.0490  178.0250  143.6620 C   0  0  0  0  0  2  0  0  0  0  0  0
  1 26  1  6  0  0  0
  1 27  1  0  0  0  0
  2 14  1  0  0  0  0
  3  7  1  6  0  0  0
  3 19  1  0  0  0  0
  4 23  1  6  0  0  0
  4 18  1  0  0  0  0
  5 19  1  0  0  0  0
  5 11  1  1  0  0  0
  7 16  1  0  0  0  0
  8 15  1  0  0  0  0
  8 12  1  1  0  0  0
  9 13  1  0  0  0  0
  9 25  1  0  0  0  0
 13 24  1  0  0  0  0
 14 25  1  0  0  0  0
 15  4  1  0  0  0  0
 15 12  1  0  0  0  0
 15  5  1  0  0  0  0
 16  8  1  0  0  0  0
 16  3  1  0  0  0  0
 17 10  1  0  0  0  0
 17 28  1  0  0  0  0
 18  1  1  0  0  0  0
 18 20  1  0  0  0  0
 19  6  1  0  0  0  0
 20 11  1  0  0  0  0
 20 13  1  0  0  0  0
 21 26  1  0  0  0  0
 22 10  1  0  0  0  0
 23 21  1  0  0  0  0
 24 22  1  0  0  0  0
 25 17  1  0  0  0  0
 27  2  1  0  0  0  0
 27  9  1  0  0  0  0
 28 29  1  0  0  0  0
 29 32  1  0  0  0  0
 30 33  1  0  0  0  0
 31 33  1  0  0  0  0
 32 31  1  0  0  0  0
 34 32  1  0  0  0  0
 34 30  1  0  0  0  0
M  END
>  <MODEL>
8

>  <REMARK>
 VINA RESULT:      -8.4      1.628      2.815
  Name = 
  3 active torsions:
  status: ('A' for Active; 'I' for Inactive)
    1  A    between atoms: C_17  and  C_28
    2  A    between atoms: C_28  and  C_29
    3  A    between atoms: C_29  and  C_32
                            x       y       z     vdW  Elec       q    Type
                         _______ _______ _______ _____ _____    ______ ____

>  <TORSDO>
F 3

$$$$
=
 OpenBabel11122412283D

 34 42  0  0  1  0  0  0  0  0999 V2000
  187.6860  177.5520  139.3570 C   0  0  2  0  0  3  0  0  0  0  0  0
  185.8850  178.1060  137.7070 C   0  0  0  0  0  2  0  0  0  0  0  0
  190.7460  177.3850  145.3430 C   0  0  2  0  0  3  0  0  0  0  0  0
  189.2630  176.7880  141.0880 C   0  0  1  0  0  3  0  0  0  0  0  0
  188.9940  177.8000  143.4960 C   0  0  2  0  0  3  0  0  0  0  0  0
  188.6120  178.3700  145.7910 O   0  0  0  0  0  1  0  0  0  0  0  0
  191.6490  178.2890  144.5150 C   0  0  0  0  0  2  0  0  0  0  0  0
  191.1320  176.4230  142.8910 C   0  0  1  0  0  3  0  0  0  0  0  0
  185.6790  179.0240  139.9550 C   0  0  2  0  0  3  0  0  0  0  0  0
  182.8650  178.2040  141.2750 C   0  0  0  0  0  2  0  0  0  0  0  0
  187.5120  177.7400  143.1460 C   0  0  0  0  0  2  0  0  0  0  0  0
  189.9900  175.6090  143.0440 O   0  0  0  0  0  0  0  0  0  0  0  0
  185.8450  178.2760  141.2930 C   0  0  1  0  0  3  0  0  0  0  0  0
  184.5370  178.7790  137.8260 C   0  0  0  0  0  2  0  0  0  0  0  0
  189.7690  176.9030  142.5300 C   0  0  2  0  0  0  0  0  0  0  0  0
  191.6850  176.7840  144.2890 C   0  0  2  0  0  3  0  0  0  0  0  0
  183.3590  177.8420  139.8740 C   0  0  2  0  0  3  0  0  0  0  0  0
  188.3220  177.9400  140.6930 C   0  0  2  0  0  3  0  0  0  0  0  0
  189.2570  177.4520  144.9600 C   0  0  2  0  0  3  0  0  0  0  0  0
  187.2960  178.3830  141.7730 C   0  0  2  0  0  3  0  0  0  0  0  0
  189.7650  176.2430  138.9470 C   0  0  0  0  0  2  0  0  0  0  0  0
  183.9220  177.9010  142.3290 C   0  0  0  0  0  2  0  0  0  0  0  0
  190.3180  176.7160  140.1570 O   0  0  0  0  0  0  0  0  0  0  0  0
  184.9730  178.8180  142.2420 O   0  0  0  0  0  0  0  0  0  0  0  0
  184.2770  178.9550  139.3170 C   0  0  1  0  0  3  0  0  0  0  0  0
  188.7970  177.2730  138.3440 C   0  0  0  0  0  2  0  0  0  0  0  0
  186.6990  178.6180  138.8760 C   0  0  1  0  0  3  0  0  0  0  0  0
  182.1400  177.6380  138.9830 C   0  0  0  0  0  2  0  0  0  0  0  0
  180.8990  178.2390  139.6370 C   0  0  0  0  0  2  0  0  0  0  0  0
  181.0080  180.9750  137.1410 C   0  0  0  0  0  2  0  0  0  0  0  0
  180.6690  180.7570  139.5340 C   0  0  0  0  0  2  0  0  0  0  0  0
  180.3470  179.4320  138.8610 C   0  0  0  0  0  3  0  0  0  0  0  0
  181.2880  181.6450  138.4680 C   0  0  0  0  0  2  0  0  0  0  0  0
  180.9000  179.5010  137.4500 C   0  0  0  0  0  2  0  0  0  0  0  0
  1 26  1  6  0  0  0
  1 18  1  0  0  0  0
  2 14  1  0  0  0  0
  2 27  1  0  0  0  0
  3  7  1  6  0  0  0
  4 23  1  6  0  0  0
  4 15  1  0  0  0  0
  5 11  1  6  0  0  0
  5 19  1  0  0  0  0
  8 12  1  1  0  0  0
  8 16  1  0  0  0  0
  9 13  1  0  0  0  0
 10 22  1  0  0  0  0
 13 20  1  0  0  0  0
 13 24  1  0  0  0  0
 14 25  1  0  0  0  0
 15  8  1  0  0  0  0
 15 12  1  0  0  0  0
 15  5  1  0  0  0  0
 16  7  1  0  0  0  0
 16  3  1  0  0  0  0
 17 10  1  0  0  0  0
 18  4  1  0  0  0  0
 18 20  1  0  0  0  0
 19  3  1  0  0  0  0
 19  6  1  0  0  0  0
 20 11  1  0  0  0  0
 21 23  1  0  0  0  0
 24 22  1  0  0  0  0
 25 17  1  0  0  0  0
 25  9  1  0  0  0  0
 26 21  1  0  0  0  0
 27  1  1  0  0  0  0
 27  9  1  0  0  0  0
 28 29  1  0  0  0  0
 28 17  1  0  0  0  0
 30 34  1  0  0  0  0
 30 33  1  0  0  0  0
 32 31  1  0  0  0  0
 32 29  1  0  0  0  0
 33 31  1  0  0  0  0
 34 32  1  0  0  0  0
M  END
>  <MODEL>
9

>  <REMARK>
 VINA RESULT:      -8.2      3.603      7.553
  Name = 
  3 active torsions:
  status: ('A' for Active; 'I' for Inactive)
    1  A    between atoms: C_17  and  C_28
    2  A    between atoms: C_28  and  C_29
    3  A    between atoms: C_29  and  C_32
                            x       y       z     vdW  Elec       q    Type
                         _______ _______ _______ _____ _____    ______ ____

>  <TORSDO>
F 3

$$$$
