=
 OpenBabel11122411553D

 28 33  0  0  1  0  0  0  0  0999 V2000
  180.0440  177.9140  141.7610 C   0  0  0  0  0  0  0  0  0  0  0  0
  180.8010  180.9810  139.1770 C   0  0  0  0  0  2  0  0  0  0  0  0
  181.8070  174.0550  137.0490 O   0  0  0  0  0  0  0  0  0  0  0  0
  182.1260  179.0560  143.2520 C   0  0  0  0  0  3  0  0  0  0  0  0
  183.5880  175.5310  137.7620 C   0  0  2  0  0  3  0  0  0  0  0  0
  178.9310  177.2370  141.0310 C   0  0  0  0  0  2  0  0  0  0  0  0
  182.1030  181.3820  138.4900 C   0  0  0  0  0  2  0  0  0  0  0  0
  181.5490  179.9900  138.3190 C   0  0  0  0  0  0  0  0  0  0  0  0
  181.4000  178.7530  136.2770 C   0  0  0  0  0  0  0  0  0  0  0  0
  182.3690  178.8850  138.9750 C   0  0  2  0  0  3  0  0  0  0  0  0
  179.7570  173.6950  140.6030 O   0  0  0  0  0  0  0  0  0  0  0  0
  182.2330  176.5230  139.5610 C   0  0  2  0  0  3  0  0  0  0  0  0
  182.3680  177.8620  136.7600 O   0  0  0  0  0  0  0  0  0  0  0  0
  180.9960  179.7520  136.9950 N   0  0  0  0  0  0  0  0  0  0  0  0
  179.5910  174.9040  140.2940 C   0  0  0  0  0  0  0  0  0  0  0  0
  181.2770  178.1970  141.1380 C   0  0  0  0  0  0  0  0  0  0  0  0
  182.2250  174.9610  137.8170 C   0  0  0  0  0  0  0  0  0  0  0  0
  180.8010  178.5230  134.9370 C   0  0  0  0  0  1  0  0  0  0  0  0
  179.9910  175.3750  138.9340 C   0  0  0  0  0  2  0  0  0  0  0  0
  182.3170  178.7560  141.9020 C   0  0  0  0  0  3  0  0  0  0  0  0
  179.8650  178.2120  143.1170 C   0  0  0  0  0  3  0  0  0  0  0  0
  180.8990  178.7870  143.8590 C   0  0  0  0  0  3  0  0  0  0  0  0
  179.0080  175.7990  141.2440 N   0  0  0  0  0  2  0  0  0  0  0  0
  183.4580  176.7770  138.6650 C   0  0  2  0  0  3  0  0  0  0  0  0
  181.4390  175.5300  138.8460 N   0  0  0  0  0  0  0  0  0  0  0  0
  183.1560  178.0970  137.9380 C   0  0  2  0  0  3  0  0  0  0  0  0
  183.9720  175.8320  136.4670 F   0  0  0  0  0  0  0  0  0  0  0  0
  181.5010  177.8560  139.6890 C   0  0  1  0  0  3  0  0  0  0  0  0
  1 21  1  0  0  0  0
  3 17  2  0  0  0  0
  4 22  1  0  0  0  0
  5 27  1  6  0  0  0
  5 17  1  0  0  0  0
  5 24  1  0  0  0  0
  6 23  1  0  0  0  0
  6  1  1  0  0  0  0
  7  2  1  0  0  0  0
  8  7  1  0  0  0  0
  8  2  1  0  0  0  0
  9 13  1  0  0  0  0
  9 14  2  0  0  0  0
 10  8  1  6  0  0  0
 10 28  1  0  0  0  0
 12 25  1  6  0  0  0
 12 28  1  0  0  0  0
 13 26  1  0  0  0  0
 14  8  1  0  0  0  0
 15 11  2  0  0  0  0
 15 23  1  0  0  0  0
 16  1  2  0  0  0  0
 16 20  1  0  0  0  0
 17 25  1  0  0  0  0
 18  9  1  0  0  0  0
 19 15  1  0  0  0  0
 20  4  2  0  0  0  0
 21 22  2  0  0  0  0
 24 12  1  0  0  0  0
 25 19  1  0  0  0  0
 26 24  1  0  0  0  0
 26 10  1  0  0  0  0
 28 16  1  0  0  0  0
M  END
>  <MODEL>
1

>  <REMARK>
 VINA RESULT:      -6.4      0.000      0.000
  Name = 
  0 active torsions:
  status: ('A' for Active; 'I' for Inactive)
                            x       y       z     vdW  Elec       q    Type
                         _______ _______ _______ _____ _____    ______ ____

>  <TORSDO>
F 0

$$$$
=
 OpenBabel11122411553D

 28 33  0  0  1  0  0  0  0  0999 V2000
  185.7650  177.0970  137.5300 C   0  0  0  0  0  0  0  0  0  0  0  0
  182.8560  177.4920  134.6940 C   0  0  0  0  0  2  0  0  0  0  0  0
  181.4680  179.2840  141.6490 O   0  0  0  0  0  0  0  0  0  0  0  0
  185.5830  174.3700  136.9050 C   0  0  0  0  0  3  0  0  0  0  0  0
  180.7990  177.1970  140.6220 C   0  0  2  0  0  3  0  0  0  0  0  0
  185.9240  178.5280  137.9300 C   0  0  0  0  0  2  0  0  0  0  0  0
  181.4900  176.8190  134.5940 C   0  0  0  0  0  2  0  0  0  0  0  0
  181.8610  177.6120  135.8220 C   0  0  0  0  0  0  0  0  0  0  0  0
  180.4780  179.1880  136.9750 C   0  0  0  0  0  0  0  0  0  0  0  0
  182.0470  176.7870  137.0900 C   0  0  2  0  0  3  0  0  0  0  0  0
  185.5580  178.8050  141.5630 O   0  0  0  0  0  0  0  0  0  0  0  0
  182.9020  176.9810  139.3640 C   0  0  2  0  0  3  0  0  0  0  0  0
  180.4120  178.3120  138.0670 O   0  0  0  0  0  0  0  0  0  0  0  0
  181.1590  178.8830  135.9160 N   0  0  0  0  0  0  0  0  0  0  0  0
  185.2510  178.8940  140.3460 C   0  0  0  0  0  0  0  0  0  0  0  0
  184.5060  176.4620  137.5300 C   0  0  0  0  0  0  0  0  0  0  0  0
  181.7180  178.3280  140.8680 C   0  0  0  0  0  0  0  0  0  0  0  0
  179.7900  180.5020  137.0510 C   0  0  0  0  0  1  0  0  0  0  0  0
  183.8690  179.3140  139.9670 C   0  0  0  0  0  2  0  0  0  0  0  0
  184.4320  175.0900  137.2280 C   0  0  0  0  0  3  0  0  0  0  0  0
  186.9140  176.3650  137.2110 C   0  0  0  0  0  3  0  0  0  0  0  0
  186.8240  175.0090  136.8920 C   0  0  0  0  0  3  0  0  0  0  0  0
  186.2350  178.6080  139.3500 N   0  0  0  0  0  2  0  0  0  0  0  0
  181.4340  176.5210  139.3880 C   0  0  2  0  0  3  0  0  0  0  0  0
  182.9280  178.2130  140.1440 N   0  0  0  0  0  0  0  0  0  0  0  0
  180.8590  176.9470  138.0280 C   0  0  2  0  0  3  0  0  0  0  0  0
  179.5000  177.6220  140.4070 F   0  0  0  0  0  0  0  0  0  0  0  0
  183.2610  177.2240  137.9010 C   0  0  1  0  0  3  0  0  0  0  0  0
  1 16  1  0  0  0  0
  1  6  1  0  0  0  0
  2  8  1  0  0  0  0
  4 20  1  0  0  0  0
  5 27  1  6  0  0  0
  5 17  1  0  0  0  0
  6 23  1  0  0  0  0
  7  2  1  0  0  0  0
  7  8  1  0  0  0  0
  8 14  1  0  0  0  0
  9 18  1  0  0  0  0
  9 13  1  0  0  0  0
 10  8  1  6  0  0  0
 10 28  1  0  0  0  0
 10 26  1  0  0  0  0
 12 24  1  0  0  0  0
 12 25  1  1  0  0  0
 14  9  2  0  0  0  0
 15 11  2  0  0  0  0
 16 28  1  0  0  0  0
 17  3  2  0  0  0  0
 19 25  1  0  0  0  0
 19 15  1  0  0  0  0
 20 16  2  0  0  0  0
 21  1  2  0  0  0  0
 22  4  2  0  0  0  0
 22 21  1  0  0  0  0
 23 15  1  0  0  0  0
 24  5  1  0  0  0  0
 25 17  1  0  0  0  0
 26 13  1  0  0  0  0
 26 24  1  0  0  0  0
 28 12  1  0  0  0  0
M  END
>  <MODEL>
2

>  <REMARK>
 VINA RESULT:      -5.3      2.931      5.701
  Name = 
  0 active torsions:
  status: ('A' for Active; 'I' for Inactive)
                            x       y       z     vdW  Elec       q    Type
                         _______ _______ _______ _____ _____    ______ ____

>  <TORSDO>
F 0

$$$$
=
 OpenBabel11122411553D

 28 33  0  0  1  0  0  0  0  0999 V2000
  182.5680  176.3060  138.4640 C   0  0  0  0  0  0  0  0  0  0  0  0
  184.5170  172.8910  137.3700 C   0  0  0  0  0  2  0  0  0  0  0  0
  187.9090  179.3560  136.9230 O   0  0  0  0  0  0  0  0  0  0  0  0
  180.8680  175.6610  136.3300 C   0  0  0  0  0  3  0  0  0  0  0  0
  186.9110  178.2100  135.0390 C   0  0  2  0  0  3  0  0  0  0  0  0
  183.4250  176.7280  139.6130 C   0  0  0  0  0  2  0  0  0  0  0  0
  185.1030  172.4890  136.0190 C   0  0  0  0  0  2  0  0  0  0  0  0
  185.5400  173.7680  136.6890 C   0  0  0  0  0  0  0  0  0  0  0  0
  187.7810  174.5800  136.8910 C   0  0  0  0  0  0  0  0  0  0  0  0
  185.0970  175.0470  135.9880 C   0  0  2  0  0  3  0  0  0  0  0  0
  184.5080  180.1870  139.0920 O   0  0  0  0  0  0  0  0  0  0  0  0
  184.9710  177.4530  136.3480 C   0  0  2  0  0  3  0  0  0  0  0  0
  187.4660  175.6300  136.0200 O   0  0  0  0  0  0  0  0  0  0  0  0
  186.8900  173.7000  137.2250 N   0  0  0  0  0  0  0  0  0  0  0  0
  184.5840  178.9320  139.1430 C   0  0  0  0  0  0  0  0  0  0  0  0
  183.1140  176.0250  137.1950 C   0  0  0  0  0  0  0  0  0  0  0  0
  186.9790  178.6530  136.4470 C   0  0  0  0  0  0  0  0  0  0  0  0
  189.1460  174.4970  137.4720 C   0  0  0  0  0  1  0  0  0  0  0  0
  185.8260  178.2530  138.6660 C   0  0  0  0  0  2  0  0  0  0  0  0
  182.2480  175.7180  136.1310 C   0  0  0  0  0  3  0  0  0  0  0  0
  181.1830  176.2520  138.6530 C   0  0  0  0  0  3  0  0  0  0  0  0
  180.3350  175.9250  137.5930 C   0  0  0  0  0  3  0  0  0  0  0  0
  183.4880  178.1820  139.6690 N   0  0  0  0  0  2  0  0  0  0  0  0
  185.7900  177.1500  135.0820 C   0  0  2  0  0  3  0  0  0  0  0  0
  185.8690  178.2180  137.2080 N   0  0  0  0  0  0  0  0  0  0  0  0
  186.2570  175.6950  135.2460 C   0  0  2  0  0  3  0  0  0  0  0  0
  188.1230  177.7090  134.5950 F   0  0  0  0  0  0  0  0  0  0  0  0
  184.6000  176.1070  136.9630 C   0  0  1  0  0  3  0  0  0  0  0  0
  1 21  1  0  0  0  0
  1  6  1  0  0  0  0
  4 22  1  0  0  0  0
  5 27  1  1  0  0  0
  5 24  1  0  0  0  0
  5 17  1  0  0  0  0
  6 23  1  0  0  0  0
  7  8  1  0  0  0  0
  7  2  1  0  0  0  0
  8 14  1  0  0  0  0
  8  2  1  0  0  0  0
  9 14  2  0  0  0  0
  9 18  1  0  0  0  0
 10  8  1  1  0  0  0
 10 28  1  0  0  0  0
 11 15  2  0  0  0  0
 12 28  1  0  0  0  0
 12 25  1  1  0  0  0
 13  9  1  0  0  0  0
 15 23  1  0  0  0  0
 16  1  2  0  0  0  0
 17  3  2  0  0  0  0
 17 25  1  0  0  0  0
 19 15  1  0  0  0  0
 20  4  2  0  0  0  0
 20 16  1  0  0  0  0
 22 21  2  0  0  0  0
 24 26  1  0  0  0  0
 24 12  1  0  0  0  0
 25 19  1  0  0  0  0
 26 10  1  0  0  0  0
 26 13  1  0  0  0  0
 28 16  1  0  0  0  0
M  END
>  <MODEL>
3

>  <REMARK>
 VINA RESULT:      -5.3      3.813      6.559
  Name = 
  0 active torsions:
  status: ('A' for Active; 'I' for Inactive)
                            x       y       z     vdW  Elec       q    Type
                         _______ _______ _______ _____ _____    ______ ____

>  <TORSDO>
F 0

$$$$
=
 OpenBabel11122411553D

 28 33  0  0  1  0  0  0  0  0999 V2000
  186.0310  174.9570  136.5090 C   0  0  0  0  0  0  0  0  0  0  0  0
  182.4270  174.9510  134.5940 C   0  0  0  0  0  2  0  0  0  0  0  0
  184.1800  180.4420  139.0970 O   0  0  0  0  0  0  0  0  0  0  0  0
  185.0460  172.6340  137.7300 C   0  0  0  0  0  3  0  0  0  0  0  0
  182.7430  178.5910  139.7040 C   0  0  2  0  0  3  0  0  0  0  0  0
  186.6320  176.1880  135.9120 C   0  0  0  0  0  2  0  0  0  0  0  0
  181.0140  174.9290  135.1690 C   0  0  0  0  0  2  0  0  0  0  0  0
  181.9800  176.0180  135.5640 C   0  0  0  0  0  0  0  0  0  0  0  0
  181.5070  178.3560  135.7310 C   0  0  0  0  0  0  0  0  0  0  0  0
  182.4480  175.9680  137.0140 C   0  0  2  0  0  3  0  0  0  0  0  0
  187.7300  178.4130  138.6060 O   0  0  0  0  0  0  0  0  0  0  0  0
  184.1170  176.9470  138.4960 C   0  0  2  0  0  3  0  0  0  0  0  0
  181.6700  178.2780  137.1200 O   0  0  0  0  0  0  0  0  0  0  0  0
  181.6560  177.3100  134.9820 N   0  0  0  0  0  0  0  0  0  0  0  0
  187.0150  177.9760  137.6670 C   0  0  0  0  0  0  0  0  0  0  0  0
  184.7600  174.9730  137.1190 C   0  0  0  0  0  0  0  0  0  0  0  0
  183.9060  179.2140  139.0380 C   0  0  0  0  0  0  0  0  0  0  0  0
  181.1980  179.6680  135.1050 C   0  0  0  0  0  1  0  0  0  0  0  0
  185.7160  178.6480  137.3610 C   0  0  0  0  0  2  0  0  0  0  0  0
  184.2860  173.8040  137.7400 C   0  0  0  0  0  3  0  0  0  0  0  0
  186.7890  173.7810  136.5090 C   0  0  0  0  0  3  0  0  0  0  0  0
  186.2970  172.6210  137.1110 C   0  0  0  0  0  3  0  0  0  0  0  0
  187.4650  176.8560  136.9020 N   0  0  0  0  0  2  0  0  0  0  0  0
  182.7050  177.1910  139.0550 C   0  0  2  0  0  3  0  0  0  0  0  0
  184.6990  178.2750  138.3380 N   0  0  0  0  0  0  0  0  0  0  0  0
  181.7650  177.0430  137.8470 C   0  0  2  0  0  3  0  0  0  0  0  0
  181.5820  179.3180  139.5060 F   0  0  0  0  0  0  0  0  0  0  0  0
  183.9420  176.2370  137.1570 C   0  0  1  0  0  3  0  0  0  0  0  0
  1 21  2  0  0  0  0
  1 16  1  0  0  0  0
  2  7  1  0  0  0  0
  2  8  1  0  0  0  0
  4 20  1  0  0  0  0
  5 27  1  6  0  0  0
  6  1  1  0  0  0  0
  6 23  1  0  0  0  0
  7  8  1  0  0  0  0
  9 13  1  0  0  0  0
 10  8  1  6  0  0  0
 10 28  1  0  0  0  0
 10 26  1  0  0  0  0
 12 25  1  6  0  0  0
 12 24  1  0  0  0  0
 13 26  1  0  0  0  0
 14  8  1  0  0  0  0
 14  9  2  0  0  0  0
 15 11  2  0  0  0  0
 16 28  1  0  0  0  0
 16 20  2  0  0  0  0
 17  3  2  0  0  0  0
 17  5  1  0  0  0  0
 18  9  1  0  0  0  0
 19 15  1  0  0  0  0
 19 25  1  0  0  0  0
 21 22  1  0  0  0  0
 22  4  2  0  0  0  0
 23 15  1  0  0  0  0
 24  5  1  0  0  0  0
 25 17  1  0  0  0  0
 26 24  1  0  0  0  0
 28 12  1  0  0  0  0
M  END
>  <MODEL>
4

>  <REMARK>
 VINA RESULT:      -5.3      3.317      6.451
  Name = 
  0 active torsions:
  status: ('A' for Active; 'I' for Inactive)
                            x       y       z     vdW  Elec       q    Type
                         _______ _______ _______ _____ _____    ______ ____

>  <TORSDO>
F 0

$$$$
=
 OpenBabel11122411553D

 28 33  0  0  1  0  0  0  0  0999 V2000
  190.6160  174.0230  136.8060 C   0  0  0  0  0  0  0  0  0  0  0  0
  191.3400  176.3070  140.1110 C   0  0  0  0  0  2  0  0  0  0  0  0
  185.4450  177.5970  135.9770 O   0  0  0  0  0  0  0  0  0  0  0  0
  193.0260  175.1250  135.8880 C   0  0  0  0  0  3  0  0  0  0  0  0
  187.4940  178.8800  135.8620 C   0  0  2  0  0  3  0  0  0  0  0  0
  189.3240  173.3930  137.2120 C   0  0  0  0  0  2  0  0  0  0  0  0
  191.5880  177.8080  140.2270 C   0  0  0  0  0  2  0  0  0  0  0  0
  190.3300  177.2920  139.5730 C   0  0  0  0  0  0  0  0  0  0  0  0
  188.1080  178.1090  139.9110 C   0  0  0  0  0  0  0  0  0  0  0  0
  190.2370  177.5400  138.0720 C   0  0  2  0  0  3  0  0  0  0  0  0
  186.8310  173.9740  134.5940 O   0  0  0  0  0  0  0  0  0  0  0  0
  188.9180  176.8910  136.1280 C   0  0  2  0  0  3  0  0  0  0  0  0
  188.0980  178.5920  138.5960 O   0  0  0  0  0  0  0  0  0  0  0  0
  189.1410  177.4880  140.3860 N   0  0  0  0  0  0  0  0  0  0  0  0
  187.4260  174.1100  135.6940 C   0  0  0  0  0  0  0  0  0  0  0  0
  190.8010  175.4210  136.8320 C   0  0  0  0  0  0  0  0  0  0  0  0
  186.7030  177.6400  136.0070 C   0  0  0  0  0  0  0  0  0  0  0  0
  186.8990  178.2750  140.7580 C   0  0  0  0  0  1  0  0  0  0  0  0
  187.0080  175.2030  136.6230 C   0  0  0  0  0  2  0  0  0  0  0  0
  192.0090  175.9600  136.3550 C   0  0  0  0  0  3  0  0  0  0  0  0
  191.6390  173.1950  136.3300 C   0  0  0  0  0  3  0  0  0  0  0  0
  192.8420  173.7420  135.8790 C   0  0  0  0  0  3  0  0  0  0  0  0
  188.4790  173.2090  136.0410 N   0  0  0  0  0  2  0  0  0  0  0  0
  188.9040  178.4210  136.2900 C   0  0  2  0  0  3  0  0  0  0  0  0
  187.5150  176.4930  136.1650 N   0  0  0  0  0  0  0  0  0  0  0  0
  189.2660  178.6710  137.7630 C   0  0  2  0  0  3  0  0  0  0  0  0
  186.9930  179.9090  136.6400 F   0  0  0  0  0  0  0  0  0  0  0  0
  189.7020  176.3320  137.3110 C   0  0  1  0  0  3  0  0  0  0  0  0
  1 16  1  0  0  0  0
  1  6  1  0  0  0  0
  2  7  1  0  0  0  0
  3 17  2  0  0  0  0
  4 20  1  0  0  0  0
  5 17  1  0  0  0  0
  5 24  1  0  0  0  0
  5 27  1  1  0  0  0
  8  2  1  0  0  0  0
  8  7  1  0  0  0  0
  8 14  1  0  0  0  0
  9 14  2  0  0  0  0
  9 18  1  0  0  0  0
 10  8  1  1  0  0  0
 11 15  2  0  0  0  0
 12 25  1  1  0  0  0
 12 24  1  0  0  0  0
 12 28  1  0  0  0  0
 13  9  1  0  0  0  0
 15 23  1  0  0  0  0
 15 19  1  0  0  0  0
 16 28  1  0  0  0  0
 17 25  1  0  0  0  0
 20 16  2  0  0  0  0
 21  1  2  0  0  0  0
 22  4  2  0  0  0  0
 22 21  1  0  0  0  0
 23  6  1  0  0  0  0
 24 26  1  0  0  0  0
 25 19  1  0  0  0  0
 26 10  1  0  0  0  0
 26 13  1  0  0  0  0
 28 10  1  0  0  0  0
M  END
>  <MODEL>
5

>  <REMARK>
 VINA RESULT:      -5.0      6.663      9.489
  Name = 
  0 active torsions:
  status: ('A' for Active; 'I' for Inactive)
                            x       y       z     vdW  Elec       q    Type
                         _______ _______ _______ _____ _____    ______ ____

>  <TORSDO>
F 0

$$$$
=
 OpenBabel11122411553D

 28 33  0  0  1  0  0  0  0  0999 V2000
  180.6800  179.1960  142.5210 C   0  0  0  0  0  0  0  0  0  0  0  0
  179.4120  176.7050  139.5470 C   0  0  0  0  0  2  0  0  0  0  0  0
  186.5140  178.3330  140.1920 O   0  0  0  0  0  0  0  0  0  0  0  0
  179.1000  181.0940  141.1930 C   0  0  0  0  0  3  0  0  0  0  0  0
  185.0180  179.3770  138.6000 C   0  0  2  0  0  3  0  0  0  0  0  0
  181.5480  178.2520  143.2880 C   0  0  0  0  0  2  0  0  0  0  0  0
  179.5130  176.8600  138.0320 C   0  0  0  0  0  2  0  0  0  0  0  0
  180.7540  176.9120  138.8870 C   0  0  0  0  0  0  0  0  0  0  0  0
  182.8400  175.8270  138.4450 C   0  0  0  0  0  0  0  0  0  0  0  0
  181.4320  178.2760  138.9570 C   0  0  2  0  0  3  0  0  0  0  0  0
  184.8690  179.7410  143.6950 O   0  0  0  0  0  0  0  0  0  0  0  0
  183.1540  179.4690  140.2020 C   0  0  2  0  0  3  0  0  0  0  0  0
  183.4320  177.0790  138.2360 O   0  0  0  0  0  0  0  0  0  0  0  0
  181.5870  175.7270  138.7600 N   0  0  0  0  0  0  0  0  0  0  0  0
  183.9750  178.9810  143.2410 C   0  0  0  0  0  0  0  0  0  0  0  0
  180.8450  179.3970  141.1350 C   0  0  0  0  0  0  0  0  0  0  0  0
  185.3780  178.7990  139.9130 C   0  0  0  0  0  0  0  0  0  0  0  0
  183.6710  174.6000  138.3430 C   0  0  0  0  0  1  0  0  0  0  0  0
  184.2890  178.0880  142.0850 C   0  0  0  0  0  2  0  0  0  0  0  0
  180.0560  180.3630  140.4850 C   0  0  0  0  0  3  0  0  0  0  0  0
  179.7230  179.9380  143.2230 C   0  0  0  0  0  3  0  0  0  0  0  0
  178.9310  180.8790  142.5620 C   0  0  0  0  0  3  0  0  0  0  0  0
  182.6810  178.9740  143.8480 N   0  0  0  0  0  2  0  0  0  0  0  0
  183.4820  179.4830  138.6990 C   0  0  2  0  0  3  0  0  0  0  0  0
  184.3090  178.8450  140.8380 N   0  0  0  0  0  0  0  0  0  0  0  0
  182.6930  178.3040  138.1060 C   0  0  2  0  0  3  0  0  0  0  0  0
  185.4460  178.5820  137.5500 F   0  0  0  0  0  0  0  0  0  0  0  0
  181.8890  178.6310  140.3670 C   0  0  1  0  0  3  0  0  0  0  0  0
  1 21  1  0  0  0  0
  1  6  1  0  0  0  0
  4 22  1  0  0  0  0
  5 27  1  6  0  0  0
  5 24  1  0  0  0  0
  5 17  1  0  0  0  0
  6 23  1  0  0  0  0
  7  8  1  0  0  0  0
  7  2  1  0  0  0  0
  8  2  1  0  0  0  0
  9 14  2  0  0  0  0
 10  8  1  1  0  0  0
 10 28  1  0  0  0  0
 12 28  1  0  0  0  0
 12 25  1  1  0  0  0
 13  9  1  0  0  0  0
 14  8  1  0  0  0  0
 15 11  2  0  0  0  0
 15 23  1  0  0  0  0
 16  1  2  0  0  0  0
 17  3  2  0  0  0  0
 17 25  1  0  0  0  0
 18  9  1  0  0  0  0
 19 15  1  0  0  0  0
 20 16  1  0  0  0  0
 20  4  2  0  0  0  0
 22 21  2  0  0  0  0
 24 12  1  0  0  0  0
 25 19  1  0  0  0  0
 26 13  1  0  0  0  0
 26 24  1  0  0  0  0
 26 10  1  0  0  0  0
 28 16  1  0  0  0  0
M  END
>  <MODEL>
6

>  <REMARK>
 VINA RESULT:      -5.0      2.804      4.325
  Name = 
  0 active torsions:
  status: ('A' for Active; 'I' for Inactive)
                            x       y       z     vdW  Elec       q    Type
                         _______ _______ _______ _____ _____    ______ ____

>  <TORSDO>
F 0

$$$$
=
 OpenBabel11122411553D

 28 33  0  0  1  0  0  0  0  0999 V2000
  181.1300  178.2740  137.2170 C   0  0  0  0  0  0  0  0  0  0  0  0
  180.9710  174.3550  136.0860 C   0  0  0  0  0  2  0  0  0  0  0  0
  187.3640  177.3800  137.9530 O   0  0  0  0  0  0  0  0  0  0  0  0
  180.2630  178.7530  134.5940 C   0  0  0  0  0  3  0  0  0  0  0  0
  186.6350  177.0400  135.6700 C   0  0  2  0  0  3  0  0  0  0  0  0
  181.5960  178.1110  138.6270 C   0  0  0  0  0  2  0  0  0  0  0  0
  181.6460  173.6470  134.9160 C   0  0  0  0  0  2  0  0  0  0  0  0
  182.4710  174.4060  135.9250 C   0  0  0  0  0  0  0  0  0  0  0  0
  184.5150  173.6820  136.9340 C   0  0  0  0  0  0  0  0  0  0  0  0
  183.1340  175.6720  135.3940 C   0  0  2  0  0  3  0  0  0  0  0  0
  184.5800  180.1700  139.1460 O   0  0  0  0  0  0  0  0  0  0  0  0
  184.3080  177.6600  136.1730 C   0  0  2  0  0  3  0  0  0  0  0  0
  185.2000  174.6840  136.2360 O   0  0  0  0  0  0  0  0  0  0  0  0
  183.2330  173.5400  136.8100 N   0  0  0  0  0  0  0  0  0  0  0  0
  183.8900  179.1330  138.9660 C   0  0  0  0  0  0  0  0  0  0  0  0
  181.8180  177.6870  136.1340 C   0  0  0  0  0  0  0  0  0  0  0  0
  186.4420  177.3820  137.0940 C   0  0  0  0  0  0  0  0  0  0  0  0
  185.2640  172.7950  137.8620 C   0  0  0  0  0  1  0  0  0  0  0  0
  184.5780  177.8250  138.7500 C   0  0  0  0  0  2  0  0  0  0  0  0
  181.3800  177.9490  134.8240 C   0  0  0  0  0  3  0  0  0  0  0  0
  180.0140  179.0840  136.9760 C   0  0  0  0  0  3  0  0  0  0  0  0
  179.5770  179.3180  135.6700 C   0  0  0  0  0  3  0  0  0  0  0  0
  182.4650  179.2230  138.9870 N   0  0  0  0  0  2  0  0  0  0  0  0
  185.1820  176.8890  135.1690 C   0  0  2  0  0  3  0  0  0  0  0  0
  185.1060  177.7360  137.3920 N   0  0  0  0  0  0  0  0  0  0  0  0
  184.6240  175.4560  135.1700 C   0  0  2  0  0  3  0  0  0  0  0  0
  187.3910  175.8910  135.5110 F   0  0  0  0  0  0  0  0  0  0  0  0
  183.0390  176.8380  136.3710 C   0  0  1  0  0  3  0  0  0  0  0  0
  1  6  1  0  0  0  0
  4 20  2  0  0  0  0
  4 22  1  0  0  0  0
  5 27  1  1  0  0  0
  5 17  1  0  0  0  0
  6 23  1  0  0  0  0
  7  8  1  0  0  0  0
  7  2  1  0  0  0  0
  8  2  1  0  0  0  0
  8 14  1  0  0  0  0
  9 18  1  0  0  0  0
 10  8  1  1  0  0  0
 10 28  1  0  0  0  0
 12 28  1  0  0  0  0
 12 25  1  1  0  0  0
 13  9  1  0  0  0  0
 14  9  2  0  0  0  0
 15 23  1  0  0  0  0
 15 11  2  0  0  0  0
 16 28  1  0  0  0  0
 16  1  2  0  0  0  0
 17 25  1  0  0  0  0
 17  3  2  0  0  0  0
 19 15  1  0  0  0  0
 20 16  1  0  0  0  0
 21  1  1  0  0  0  0
 22 21  2  0  0  0  0
 24 26  1  0  0  0  0
 24  5  1  0  0  0  0
 24 12  1  0  0  0  0
 25 19  1  0  0  0  0
 26 10  1  0  0  0  0
 26 13  1  0  0  0  0
M  END
>  <MODEL>
7

>  <REMARK>
 VINA RESULT:      -4.7      3.397      5.936
  Name = 
  0 active torsions:
  status: ('A' for Active; 'I' for Inactive)
                            x       y       z     vdW  Elec       q    Type
                         _______ _______ _______ _____ _____    ______ ____

>  <TORSDO>
F 0

$$$$
=
 OpenBabel11122411553D

 28 33  0  0  1  0  0  0  0  0999 V2000
  189.3260  178.2440  139.8380 C   0  0  0  0  0  0  0  0  0  0  0  0
  193.3490  177.6710  139.4490 C   0  0  0  0  0  2  0  0  0  0  0  0
  188.7350  174.7300  134.5940 O   0  0  0  0  0  0  0  0  0  0  0  0
  189.6600  176.8230  142.2320 C   0  0  0  0  0  3  0  0  0  0  0  0
  189.7410  173.5100  136.4260 C   0  0  2  0  0  3  0  0  0  0  0  0
  189.0560  179.0030  138.5790 C   0  0  0  0  0  2  0  0  0  0  0  0
  194.1580  176.3780  139.4640 C   0  0  0  0  0  2  0  0  0  0  0  0
  193.0320  176.5600  138.4770 C   0  0  0  0  0  0  0  0  0  0  0  0
  193.0690  176.0030  136.1510 C   0  0  0  0  0  0  0  0  0  0  0  0
  191.8190  175.6680  138.7130 C   0  0  2  0  0  3  0  0  0  0  0  0
  186.3700  177.3380  136.7300 O   0  0  0  0  0  0  0  0  0  0  0  0
  189.5070  175.3930  137.9910 C   0  0  2  0  0  3  0  0  0  0  0  0
  192.1400  174.9830  136.3930 O   0  0  0  0  0  0  0  0  0  0  0  0
  193.4950  176.7590  137.1130 N   0  0  0  0  0  0  0  0  0  0  0  0
  187.5390  177.7020  137.0220 C   0  0  0  0  0  0  0  0  0  0  0  0
  189.9970  177.0030  139.8280 C   0  0  0  0  0  0  0  0  0  0  0  0
  189.1220  174.6920  135.7920 C   0  0  0  0  0  0  0  0  0  0  0  0
  193.5430  176.2450  134.7640 C   0  0  0  0  0  1  0  0  0  0  0  0
  188.6930  177.1440  136.2560 C   0  0  0  0  0  2  0  0  0  0  0  0
  190.1440  176.2960  141.0340 C   0  0  0  0  0  3  0  0  0  0  0  0
  188.8390  178.7620  141.0440 C   0  0  0  0  0  3  0  0  0  0  0  0
  189.0110  178.0590  142.2380 C   0  0  0  0  0  3  0  0  0  0  0  0
  187.7380  178.6530  138.0690 N   0  0  0  0  0  2  0  0  0  0  0  0
  190.2970  174.0970  137.7410 C   0  0  2  0  0  3  0  0  0  0  0  0
  188.9880  175.7810  136.6840 N   0  0  0  0  0  0  0  0  0  0  0  0
  191.7720  174.5280  137.7050 C   0  0  2  0  0  3  0  0  0  0  0  0
  190.7160  172.9420  135.6240 F   0  0  0  0  0  0  0  0  0  0  0  0
  190.5010  176.4140  138.5370 C   0  0  1  0  0  3  0  0  0  0  0  0
  1 21  1  0  0  0  0
  2  7  1  0  0  0  0
  3 17  2  0  0  0  0
  4 22  1  0  0  0  0
  5 27  1  6  0  0  0
  5 24  1  0  0  0  0
  6  1  1  0  0  0  0
  8  2  1  0  0  0  0
  8  7  1  0  0  0  0
  9 13  1  0  0  0  0
  9 14  2  0  0  0  0
 10  8  1  6  0  0  0
 11 15  2  0  0  0  0
 12 25  1  6  0  0  0
 12 28  1  0  0  0  0
 13 26  1  0  0  0  0
 14  8  1  0  0  0  0
 15 23  1  0  0  0  0
 16  1  2  0  0  0  0
 16 20  1  0  0  0  0
 17  5  1  0  0  0  0
 17 25  1  0  0  0  0
 18  9  1  0  0  0  0
 19 25  1  0  0  0  0
 19 15  1  0  0  0  0
 20  4  2  0  0  0  0
 21 22  2  0  0  0  0
 23  6  1  0  0  0  0
 24 12  1  0  0  0  0
 26 24  1  0  0  0  0
 26 10  1  0  0  0  0
 28 10  1  0  0  0  0
 28 16  1  0  0  0  0
M  END
>  <MODEL>
8

>  <REMARK>
 VINA RESULT:      -4.5      7.785      9.660
  Name = 
  0 active torsions:
  status: ('A' for Active; 'I' for Inactive)
                            x       y       z     vdW  Elec       q    Type
                         _______ _______ _______ _____ _____    ______ ____

>  <TORSDO>
F 0

$$$$
=
 OpenBabel11122411553D

 28 33  0  0  1  0  0  0  0  0999 V2000
  185.6870  174.6640  136.8030 C   0  0  0  0  0  0  0  0  0  0  0  0
  183.4310  177.0980  139.1790 C   0  0  0  0  0  2  0  0  0  0  0  0
  180.4080  171.2450  135.9990 O   0  0  0  0  0  0  0  0  0  0  0  0
  185.9210  176.9510  135.1980 C   0  0  0  0  0  3  0  0  0  0  0  0
  180.1900  173.5090  135.1690 C   0  0  2  0  0  3  0  0  0  0  0  0
  185.6110  173.3990  137.5940 C   0  0  0  0  0  2  0  0  0  0  0  0
  182.1940  177.9240  138.8380 C   0  0  0  0  0  2  0  0  0  0  0  0
  182.2090  176.4360  138.5890 C   0  0  0  0  0  0  0  0  0  0  0  0
  180.4590  174.8850  139.0940 C   0  0  0  0  0  0  0  0  0  0  0  0
  182.2010  176.0290  137.1200 C   0  0  2  0  0  3  0  0  0  0  0  0
  184.4480  170.6940  135.4160 O   0  0  0  0  0  0  0  0  0  0  0  0
  182.5240  174.0760  135.6980 C   0  0  2  0  0  3  0  0  0  0  0  0
  180.2490  174.6950  137.7220 O   0  0  0  0  0  0  0  0  0  0  0  0
  181.3790  175.6910  139.5220 N   0  0  0  0  0  0  0  0  0  0  0  0
  184.4020  171.5780  136.3110 C   0  0  0  0  0  0  0  0  0  0  0  0
  184.5280  175.3690  136.4170 C   0  0  0  0  0  0  0  0  0  0  0  0
  180.9150  172.3790  135.7860 C   0  0  0  0  0  0  0  0  0  0  0  0
  179.6410  174.1210  140.0710 C   0  0  0  0  0  1  0  0  0  0  0  0
  183.0980  171.8870  136.9700 C   0  0  0  0  0  2  0  0  0  0  0  0
  184.6600  176.5060  135.5990 C   0  0  0  0  0  3  0  0  0  0  0  0
  186.9460  175.1150  136.3900 C   0  0  0  0  0  3  0  0  0  0  0  0
  187.0640  176.2580  135.5960 C   0  0  0  0  0  3  0  0  0  0  0  0
  185.6010  172.2570  136.6900 N   0  0  0  0  0  2  0  0  0  0  0  0
  181.1400  174.6950  135.4410 C   0  0  2  0  0  3  0  0  0  0  0  0
  182.2570  172.6990  136.0970 N   0  0  0  0  0  0  0  0  0  0  0  0
  180.8300  175.5210  136.7000 C   0  0  2  0  0  3  0  0  0  0  0  0
  178.9310  173.6790  135.7190 F   0  0  0  0  0  0  0  0  0  0  0  0
  183.1620  174.8840  136.8240 C   0  0  1  0  0  3  0  0  0  0  0  0
  1  6  1  0  0  0  0
  4 22  2  0  0  0  0
  4 20  1  0  0  0  0
  5 24  1  0  0  0  0
  5 27  1  1  0  0  0
  5 17  1  0  0  0  0
  7  2  1  0  0  0  0
  8  7  1  0  0  0  0
  8  2  1  0  0  0  0
  8 14  1  0  0  0  0
  9 14  2  0  0  0  0
  9 18  1  0  0  0  0
 10  8  1  1  0  0  0
 11 15  2  0  0  0  0
 12 25  1  1  0  0  0
 12 28  1  0  0  0  0
 13  9  1  0  0  0  0
 15 23  1  0  0  0  0
 15 19  1  0  0  0  0
 16  1  1  0  0  0  0
 16 28  1  0  0  0  0
 17  3  2  0  0  0  0
 17 25  1  0  0  0  0
 20 16  2  0  0  0  0
 21  1  2  0  0  0  0
 22 21  1  0  0  0  0
 23  6  1  0  0  0  0
 24 12  1  0  0  0  0
 24 26  1  0  0  0  0
 25 19  1  0  0  0  0
 26 10  1  0  0  0  0
 26 13  1  0  0  0  0
 28 10  1  0  0  0  0
M  END
>  <MODEL>
9

>  <REMARK>
 VINA RESULT:      -4.3      3.058      6.200
  Name = 
  0 active torsions:
  status: ('A' for Active; 'I' for Inactive)
                            x       y       z     vdW  Elec       q    Type
                         _______ _______ _______ _____ _____    ______ ____

>  <TORSDO>
F 0

$$$$
