=
 OpenBabel11122412123D

 34 41  0  0  1  0  0  0  0  0999 V2000
  182.1470  179.1190  143.4730 C   0  0  1  0  0  3  0  0  0  0  0  0
  183.7290  178.7070  145.4560 C   0  0  0  0  0  3  0  0  0  0  0  0
  180.9980  176.2630  138.9770 C   0  0  0  0  0  0  0  0  0  0  0  0
  180.9070  178.7540  141.2740 C   0  0  0  0  0  0  0  0  0  0  0  0
  182.1560  178.4930  139.1250 C   0  0  2  0  0  3  0  0  0  0  0  0
  182.9680  176.1060  139.3600 C   0  0  0  0  0  2  0  0  0  0  0  0
  181.8410  175.2810  139.6110 O   0  0  0  0  0  0  0  0  0  0  0  0
  179.2800  177.7180  138.2550 C   0  0  0  0  0  2  0  0  0  0  0  0
  184.6170  178.7560  143.3670 C   0  0  0  0  0  0  0  0  0  0  0  0
  187.0850  177.2750  142.6850 C   0  0  0  0  0  2  0  0  0  0  0  0
  183.3230  178.8170  139.8970 O   0  0  0  0  0  0  0  0  0  0  0  0
  179.6320  178.9450  139.1180 C   0  0  0  0  0  2  0  0  0  0  0  0
  184.6410  178.8700  142.0220 C   0  0  0  0  0  0  0  0  0  0  0  0
  185.0490  178.7350  145.6300 C   0  0  0  0  0  3  0  0  0  0  0  0
  180.9040  178.8050  139.8430 N   0  0  0  0  0  0  0  0  0  0  0  0
  179.7280  176.4730  138.8690 N   0  0  0  0  0  0  0  0  0  0  0  0
  186.6550  177.5200  144.1390 C   0  0  2  0  0  3  0  0  0  0  0  0
  182.1810  178.8790  141.9840 C   0  0  0  0  0  0  0  0  0  0  0  0
  182.2070  177.0410  138.5820 C   0  0  1  0  0  3  0  0  0  0  0  0
  183.3410  178.8630  141.3000 C   0  0  0  0  0  0  0  0  0  0  0  0
  179.8330  178.2650  143.3700 C   0  0  0  0  0  3  0  0  0  0  0  0
  187.2240  178.5760  141.9010 C   0  0  0  0  0  2  0  0  0  0  0  0
  179.8240  178.4760  141.9440 N   0  0  0  0  0  0  0  0  0  0  0  0
  185.9140  178.9610  141.2040 C   0  0  0  0  0  2  0  0  0  0  0  0
  185.7710  178.7650  144.3100 C   0  0  1  0  0  3  0  0  0  0  0  0
  180.9290  178.5010  144.1030 C   0  0  0  0  0  3  0  0  0  0  0  0
  183.3950  178.6680  144.0760 N   0  0  0  0  0  0  0  0  0  0  0  0
  187.7900  177.6400  144.9440 O   0  0  0  0  0  0  0  0  0  0  0  0
  188.7050  176.7150  144.4210 C   0  0  0  0  0  2  0  0  0  0  0  0
  191.6780  177.6160  142.9790 C   0  0  0  0  0  2  0  0  0  0  0  0
  190.2170  178.5470  144.6050 C   0  0  0  0  0  2  0  0  0  0  0  0
  190.0870  177.0970  144.7170 N   0  0  0  0  0  0  0  0  0  0  0  0
  191.4870  178.8310  143.8420 C   0  0  0  0  0  2  0  0  0  0  0  0
  190.9790  176.4990  143.7260 C   0  0  0  0  0  2  0  0  0  0  0  0
  1 27  1  0  0  0  0
  1 26  1  1  0  0  0
  2 14  2  0  0  0  0
  3  7  1  0  0  0  0
  4 23  2  0  0  0  0
  4 18  1  0  0  0  0
  5 15  1  0  0  0  0
  5 11  1  1  0  0  0
  6  7  1  0  0  0  0
  8 16  1  0  0  0  0
  8 12  1  0  0  0  0
  9 27  1  0  0  0  0
  9 25  1  0  0  0  0
 10 17  1  0  0  0  0
 11 20  1  0  0  0  0
 12 15  1  0  0  0  0
 13  9  2  0  0  0  0
 15  4  1  0  0  0  0
 16  3  2  0  0  0  0
 17 25  1  0  0  0  0
 17 28  1  1  0  0  0
 18  1  1  0  0  0  0
 19  3  1  0  0  0  0
 19  5  1  0  0  0  0
 19  6  1  1  0  0  0
 20 18  2  0  0  0  0
 20 13  1  0  0  0  0
 21 26  2  0  0  0  0
 22 10  1  0  0  0  0
 23 21  1  0  0  0  0
 24 22  1  0  0  0  0
 24 13  1  0  0  0  0
 25 14  1  1  0  0  0
 27  2  1  0  0  0  0
 29 32  1  0  0  0  0
 29 28  1  0  0  0  0
 30 34  1  0  0  0  0
 30 33  1  0  0  0  0
 31 32  1  0  0  0  0
 33 31  1  0  0  0  0
 34 32  1  0  0  0  0
M  END
>  <MODEL>
1

>  <REMARK>
 VINA RESULT:      -9.2      0.000      0.000
  Name = 
  3 active torsions:
  status: ('A' for Active; 'I' for Inactive)
    1  A    between atoms: C_17  and  O_28
    2  A    between atoms: O_28  and  C_29
    3  A    between atoms: C_29  and  N_32
                            x       y       z     vdW  Elec       q    Type
                         _______ _______ _______ _____ _____    ______ ____

>  <TORSDO>
F 3

$$$$
=
 OpenBabel11122412123D

 34 41  0  0  1  0  0  0  0  0999 V2000
  181.9370  179.1740  143.2850 C   0  0  1  0  0  3  0  0  0  0  0  0
  183.4250  178.8310  145.3520 C   0  0  0  0  0  3  0  0  0  0  0  0
  181.0240  176.1830  138.8230 C   0  0  0  0  0  0  0  0  0  0  0  0
  180.8060  178.7370  141.0420 C   0  0  0  0  0  0  0  0  0  0  0  0
  182.1580  178.4260  138.9620 C   0  0  2  0  0  3  0  0  0  0  0  0
  182.9750  176.0530  139.3040 C   0  0  0  0  0  2  0  0  0  0  0  0
  181.8430  175.2250  139.5250 O   0  0  0  0  0  0  0  0  0  0  0  0
  179.3320  177.6030  137.9790 C   0  0  0  0  0  2  0  0  0  0  0  0
  184.4120  178.8280  143.3070 C   0  0  0  0  0  0  0  0  0  0  0  0
  186.9190  177.3490  142.7860 C   0  0  0  0  0  2  0  0  0  0  0  0
  183.2840  178.7810  139.7790 O   0  0  0  0  0  0  0  0  0  0  0  0
  179.6340  178.8560  138.8230 C   0  0  0  0  0  2  0  0  0  0  0  0
  184.4990  178.9050  141.9630 C   0  0  0  0  0  0  0  0  0  0  0  0
  184.7350  178.8750  145.5880 C   0  0  0  0  0  3  0  0  0  0  0  0
  180.8710  178.7470  139.6100 N   0  0  0  0  0  0  0  0  0  0  0  0
  179.7580  176.3790  138.6490 N   0  0  0  0  0  0  0  0  0  0  0  0
  186.4190  177.6320  144.2110 C   0  0  2  0  0  3  0  0  0  0  0  0
  182.0440  178.8920  141.8070 C   0  0  0  0  0  0  0  0  0  0  0  0
  182.2450  176.9590  138.4650 C   0  0  1  0  0  3  0  0  0  0  0  0
  183.2340  178.8660  141.1800 C   0  0  0  0  0  0  0  0  0  0  0  0
  179.6360  178.2980  143.0970 C   0  0  0  0  0  3  0  0  0  0  0  0
  187.0860  178.6290  141.9730 C   0  0  0  0  0  2  0  0  0  0  0  0
  179.6940  178.4690  141.6660 N   0  0  0  0  0  0  0  0  0  0  0  0
  185.8090  178.9830  141.2040 C   0  0  0  0  0  2  0  0  0  0  0  0
  185.5190  178.8740  144.3030 C   0  0  1  0  0  3  0  0  0  0  0  0
  180.6940  178.5630  143.8740 C   0  0  0  0  0  3  0  0  0  0  0  0
  183.1580  178.7510  143.9600 N   0  0  0  0  0  0  0  0  0  0  0  0
  187.5130  177.7840  145.0650 O   0  0  0  0  0  0  0  0  0  0  0  0
  188.5650  177.1080  144.4300 C   0  0  0  0  0  2  0  0  0  0  0  0
  190.8630  176.6800  146.9330 C   0  0  0  0  0  2  0  0  0  0  0  0
  190.8830  176.5730  144.5600 C   0  0  0  0  0  2  0  0  0  0  0  0
  189.8690  177.5610  144.9180 N   0  0  0  0  0  0  0  0  0  0  0  0
  191.7590  176.3610  145.7700 C   0  0  0  0  0  2  0  0  0  0  0  0
  189.8380  177.6470  146.3770 C   0  0  0  0  0  2  0  0  0  0  0  0
  1 26  1  1  0  0  0
  1 27  1  0  0  0  0
  2 14  2  0  0  0  0
  3  7  1  0  0  0  0
  4 23  2  0  0  0  0
  4 18  1  0  0  0  0
  5 15  1  0  0  0  0
  5 11  1  1  0  0  0
  6  7  1  0  0  0  0
  8 16  1  0  0  0  0
  8 12  1  0  0  0  0
  9 27  1  0  0  0  0
  9 25  1  0  0  0  0
 10 17  1  0  0  0  0
 11 20  1  0  0  0  0
 12 15  1  0  0  0  0
 13  9  2  0  0  0  0
 15  4  1  0  0  0  0
 16  3  2  0  0  0  0
 17 25  1  0  0  0  0
 17 28  1  1  0  0  0
 18  1  1  0  0  0  0
 19  3  1  0  0  0  0
 19  5  1  0  0  0  0
 19  6  1  1  0  0  0
 20 18  2  0  0  0  0
 20 13  1  0  0  0  0
 21 26  2  0  0  0  0
 22 10  1  0  0  0  0
 23 21  1  0  0  0  0
 24 13  1  0  0  0  0
 24 22  1  0  0  0  0
 25 14  1  1  0  0  0
 27  2  1  0  0  0  0
 29 32  1  0  0  0  0
 29 28  1  0  0  0  0
 31 32  1  0  0  0  0
 31 33  1  0  0  0  0
 32 34  1  0  0  0  0
 33 30  1  0  0  0  0
 34 30  1  0  0  0  0
M  END
>  <MODEL>
2

>  <REMARK>
 VINA RESULT:      -8.9      0.788      1.128
  Name = 
  3 active torsions:
  status: ('A' for Active; 'I' for Inactive)
    1  A    between atoms: C_17  and  O_28
    2  A    between atoms: O_28  and  C_29
    3  A    between atoms: C_29  and  N_32
                            x       y       z     vdW  Elec       q    Type
                         _______ _______ _______ _____ _____    ______ ____

>  <TORSDO>
F 3

$$$$
=
 OpenBabel11122412123D

 34 41  0  0  1  0  0  0  0  0999 V2000
  184.1010  179.0450  142.8570 C   0  0  1  0  0  3  0  0  0  0  0  0
  185.4600  178.0540  144.8010 C   0  0  0  0  0  3  0  0  0  0  0  0
  182.7700  177.1750  137.9160 C   0  0  0  0  0  0  0  0  0  0  0  0
  182.9600  179.2540  140.5870 C   0  0  0  0  0  0  0  0  0  0  0  0
  184.2800  179.1110  138.4690 C   0  0  2  0  0  3  0  0  0  0  0  0
  184.6560  176.6100  138.3380 C   0  0  0  0  0  2  0  0  0  0  0  0
  183.3910  175.9700  138.4100 O   0  0  0  0  0  0  0  0  0  0  0  0
  181.3750  179.0080  137.3830 C   0  0  0  0  0  2  0  0  0  0  0  0
  186.4750  178.2670  142.7810 C   0  0  0  0  0  0  0  0  0  0  0  0
  188.6910  176.4930  141.9530 C   0  0  0  0  0  2  0  0  0  0  0  0
  185.4340  179.0970  139.3240 O   0  0  0  0  0  0  0  0  0  0  0  0
  181.8760  180.0030  138.4480 C   0  0  0  0  0  2  0  0  0  0  0  0
  186.6040  178.5830  141.4750 C   0  0  0  0  0  0  0  0  0  0  0  0
  186.7520  177.8180  145.0240 C   0  0  0  0  0  3  0  0  0  0  0  0
  183.0570  179.5260  139.1830 N   0  0  0  0  0  0  0  0  0  0  0  0
  181.5630  177.6220  137.7990 N   0  0  0  0  0  0  0  0  0  0  0  0
  188.2180  176.5820  143.4120 C   0  0  2  0  0  3  0  0  0  0  0  0
  184.1890  179.0380  141.3510 C   0  0  0  0  0  0  0  0  0  0  0  0
  184.1160  177.7750  137.6980 C   0  0  1  0  0  3  0  0  0  0  0  0
  185.3690  178.9200  140.7160 C   0  0  0  0  0  0  0  0  0  0  0  0
  181.6870  178.6460  142.5340 C   0  0  0  0  0  3  0  0  0  0  0  0
  189.1000  177.8540  141.3980 C   0  0  0  0  0  2  0  0  0  0  0  0
  181.8050  179.0740  141.1630 N   0  0  0  0  0  0  0  0  0  0  0  0
  187.9230  178.5700  140.7280 C   0  0  0  0  0  2  0  0  0  0  0  0
  187.5510  177.9230  143.7530 C   0  0  1  0  0  3  0  0  0  0  0  0
  182.7580  178.5650  143.3340 C   0  0  0  0  0  3  0  0  0  0  0  0
  185.2130  178.2900  143.4230 N   0  0  0  0  0  0  0  0  0  0  0  0
  189.3040  176.3710  144.2650 O   0  0  0  0  0  0  0  0  0  0  0  0
  189.9670  177.6050  144.3180 C   0  0  0  0  0  2  0  0  0  0  0  0
  190.4040  176.4270  147.5040 C   0  0  0  0  0  2  0  0  0  0  0  0
  191.7270  176.5570  145.5350 C   0  0  0  0  0  2  0  0  0  0  0  0
  190.8250  177.7040  145.5010 N   0  0  0  0  0  0  0  0  0  0  0  0
  191.7450  176.0350  146.9510 C   0  0  0  0  0  2  0  0  0  0  0  0
  190.0000  177.6480  146.7060 C   0  0  0  0  0  2  0  0  0  0  0  0
  1 26  1  6  0  0  0
  1 27  1  0  0  0  0
  2 14  2  0  0  0  0
  3  7  1  0  0  0  0
  4 23  2  0  0  0  0
  4 18  1  0  0  0  0
  5 15  1  0  0  0  0
  5 11  1  1  0  0  0
  6  7  1  0  0  0  0
  8 16  1  0  0  0  0
  8 12  1  0  0  0  0
  9 27  1  0  0  0  0
  9 25  1  0  0  0  0
 10 17  1  0  0  0  0
 11 20  1  0  0  0  0
 12 15  1  0  0  0  0
 13  9  2  0  0  0  0
 15  4  1  0  0  0  0
 16  3  2  0  0  0  0
 17 25  1  0  0  0  0
 17 28  1  1  0  0  0
 18  1  1  0  0  0  0
 19  3  1  0  0  0  0
 19  6  1  1  0  0  0
 19  5  1  0  0  0  0
 20 18  2  0  0  0  0
 20 13  1  0  0  0  0
 21 26  2  0  0  0  0
 22 10  1  0  0  0  0
 23 21  1  0  0  0  0
 24 22  1  0  0  0  0
 24 13  1  0  0  0  0
 25 14  1  1  0  0  0
 27  2  1  0  0  0  0
 28 29  1  0  0  0  0
 29 32  1  0  0  0  0
 31 33  1  0  0  0  0
 32 31  1  0  0  0  0
 32 34  1  0  0  0  0
 33 30  1  0  0  0  0
 34 30  1  0  0  0  0
M  END
>  <MODEL>
3

>  <REMARK>
 VINA RESULT:      -7.9      1.787      2.382
  Name = 
  3 active torsions:
  status: ('A' for Active; 'I' for Inactive)
    1  A    between atoms: C_17  and  O_28
    2  A    between atoms: O_28  and  C_29
    3  A    between atoms: C_29  and  N_32
                            x       y       z     vdW  Elec       q    Type
                         _______ _______ _______ _____ _____    ______ ____

>  <TORSDO>
F 3

$$$$
=
 OpenBabel11122412123D

 34 41  0  0  1  0  0  0  0  0999 V2000
  184.9260  178.6830  139.7340 C   0  0  1  0  0  3  0  0  0  0  0  0
  186.6340  178.7350  141.6540 C   0  0  0  0  0  3  0  0  0  0  0  0
  183.4670  174.8390  136.1580 C   0  0  0  0  0  0  0  0  0  0  0  0
  183.5420  177.8180  137.7740 C   0  0  0  0  0  0  0  0  0  0  0  0
  184.6450  177.0120  135.6800 C   0  0  2  0  0  3  0  0  0  0  0  0
  185.4580  174.7390  136.4430 C   0  0  0  0  0  2  0  0  0  0  0  0
  184.3460  174.0240  136.9590 O   0  0  0  0  0  0  0  0  0  0  0  0
  181.7130  176.1100  135.2100 C   0  0  0  0  0  2  0  0  0  0  0  0
  187.3820  178.2520  139.5650 C   0  0  0  0  0  0  0  0  0  0  0  0
  189.7910  176.5970  139.1140 C   0  0  0  0  0  2  0  0  0  0  0  0
  185.8620  177.4900  136.2750 O   0  0  0  0  0  0  0  0  0  0  0  0
  182.1280  177.5030  135.7220 C   0  0  0  0  0  2  0  0  0  0  0  0
  187.3180  178.0340  138.2350 C   0  0  0  0  0  0  0  0  0  0  0  0
  187.9620  178.7760  141.7320 C   0  0  0  0  0  3  0  0  0  0  0  0
  183.4450  177.5170  136.3770 N   0  0  0  0  0  0  0  0  0  0  0  0
  182.1940  175.0430  136.0810 N   0  0  0  0  0  0  0  0  0  0  0  0
  189.4600  177.2000  140.4880 C   0  0  2  0  0  3  0  0  0  0  0  0
  184.8610  178.0850  138.3500 C   0  0  0  0  0  0  0  0  0  0  0  0
  184.6520  175.4710  135.5090 C   0  0  1  0  0  3  0  0  0  0  0  0
  185.9720  177.8770  137.6200 C   0  0  0  0  0  0  0  0  0  0  0  0
  182.6060  177.8790  139.9890 C   0  0  0  0  0  3  0  0  0  0  0  0
  189.8850  177.6640  138.0280 C   0  0  0  0  0  2  0  0  0  0  0  0
  182.5040  177.7350  138.5580 N   0  0  0  0  0  0  0  0  0  0  0  0
  188.5340  177.8940  137.3410 C   0  0  0  0  0  2  0  0  0  0  0  0
  188.5960  178.4670  140.4030 C   0  0  1  0  0  3  0  0  0  0  0  0
  183.7490  178.2630  140.5720 C   0  0  0  0  0  3  0  0  0  0  0  0
  186.2090  178.3670  140.3500 N   0  0  0  0  0  0  0  0  0  0  0  0
  190.6460  177.4890  141.1650 O   0  0  0  0  0  0  0  0  0  0  0  0
  190.8730  176.3770  141.9900 C   0  0  0  0  0  2  0  0  0  0  0  0
  190.7310  179.0020  144.1850 C   0  0  0  0  0  2  0  0  0  0  0  0
  189.9610  176.7550  144.1590 C   0  0  0  0  0  2  0  0  0  0  0  0
  191.1850  176.7800  143.3630 N   0  0  0  0  0  0  0  0  0  0  0  0
  189.9330  178.0140  144.9880 C   0  0  0  0  0  2  0  0  0  0  0  0
  191.6800  178.1540  143.3650 C   0  0  0  0  0  2  0  0  0  0  0  0
  1 27  1  0  0  0  0
  1 26  1  1  0  0  0
  2 14  2  0  0  0  0
  3  7  1  0  0  0  0
  4 18  1  0  0  0  0
  4 23  2  0  0  0  0
  5 11  1  1  0  0  0
  5 15  1  0  0  0  0
  6  7  1  0  0  0  0
  8 12  1  0  0  0  0
  8 16  1  0  0  0  0
  9 27  1  0  0  0  0
  9 25  1  0  0  0  0
 10 17  1  0  0  0  0
 11 20  1  0  0  0  0
 12 15  1  0  0  0  0
 13  9  2  0  0  0  0
 15  4  1  0  0  0  0
 16  3  2  0  0  0  0
 17 28  1  6  0  0  0
 18  1  1  0  0  0  0
 19  5  1  0  0  0  0
 19  3  1  0  0  0  0
 19  6  1  1  0  0  0
 20 13  1  0  0  0  0
 20 18  2  0  0  0  0
 21 26  2  0  0  0  0
 22 10  1  0  0  0  0
 23 21  1  0  0  0  0
 24 22  1  0  0  0  0
 24 13  1  0  0  0  0
 25 17  1  0  0  0  0
 25 14  1  1  0  0  0
 27  2  1  0  0  0  0
 28 29  1  0  0  0  0
 29 32  1  0  0  0  0
 30 33  1  0  0  0  0
 31 33  1  0  0  0  0
 32 34  1  0  0  0  0
 32 31  1  0  0  0  0
 34 30  1  0  0  0  0
M  END
>  <MODEL>
4

>  <REMARK>
 VINA RESULT:      -7.7      3.157      4.200
  Name = 
  3 active torsions:
  status: ('A' for Active; 'I' for Inactive)
    1  A    between atoms: C_17  and  O_28
    2  A    between atoms: O_28  and  C_29
    3  A    between atoms: C_29  and  N_32
                            x       y       z     vdW  Elec       q    Type
                         _______ _______ _______ _____ _____    ______ ____

>  <TORSDO>
F 3

$$$$
=
 OpenBabel11122412123D

 34 41  0  0  1  0  0  0  0  0999 V2000
  185.7860  178.9950  141.5190 C   0  0  1  0  0  3  0  0  0  0  0  0
  188.2470  178.2680  141.6590 C   0  0  0  0  0  3  0  0  0  0  0  0
  181.2740  176.5210  139.7280 C   0  0  0  0  0  0  0  0  0  0  0  0
  183.2800  178.9100  141.0550 C   0  0  0  0  0  0  0  0  0  0  0  0
  182.4160  178.5350  138.7390 C   0  0  2  0  0  3  0  0  0  0  0  0
  182.8040  176.0430  138.5090 C   0  0  0  0  0  2  0  0  0  0  0  0
  182.1660  175.3960  139.6000 O   0  0  0  0  0  0  0  0  0  0  0  0
  179.8170  178.2530  140.4120 C   0  0  0  0  0  2  0  0  0  0  0  0
  187.2380  178.2530  139.6250 C   0  0  0  0  0  0  0  0  0  0  0  0
  188.1070  176.4290  137.4650 C   0  0  0  0  0  2  0  0  0  0  0  0
  183.7890  178.6430  138.3330 O   0  0  0  0  0  0  0  0  0  0  0  0
  180.8560  179.3780  140.5920 C   0  0  0  0  0  2  0  0  0  0  0  0
  186.2500  178.4110  138.7200 C   0  0  0  0  0  0  0  0  0  0  0  0
  189.2270  178.0820  140.7770 C   0  0  0  0  0  3  0  0  0  0  0  0
  182.2000  179.0130  140.1190 N   0  0  0  0  0  0  0  0  0  0  0  0
  180.4070  176.9320  140.5930 N   0  0  0  0  0  0  0  0  0  0  0  0
  188.9670  176.6850  138.7130 C   0  0  2  0  0  3  0  0  0  0  0  0
  184.6490  178.8080  140.5460 C   0  0  0  0  0  0  0  0  0  0  0  0
  181.8490  177.1130  138.4870 C   0  0  1  0  0  3  0  0  0  0  0  0
  184.8700  178.6340  139.2300 C   0  0  0  0  0  0  0  0  0  0  0  0
  184.1180  178.5190  143.2750 C   0  0  0  0  0  3  0  0  0  0  0  0
  187.7710  177.7200  136.7260 C   0  0  0  0  0  2  0  0  0  0  0  0
  183.0590  178.7820  142.3330 N   0  0  0  0  0  0  0  0  0  0  0  0
  186.4550  178.3310  137.2210 C   0  0  0  0  0  2  0  0  0  0  0  0
  188.6920  178.0460  139.3700 C   0  0  1  0  0  3  0  0  0  0  0  0
  185.4050  178.5530  142.9050 C   0  0  0  0  0  3  0  0  0  0  0  0
  186.9840  178.3320  141.0160 N   0  0  0  0  0  0  0  0  0  0  0  0
  190.3180  176.5960  138.3710 O   0  0  0  0  0  0  0  0  0  0  0  0
  190.4490  175.3550  137.7330 C   0  0  0  0  0  2  0  0  0  0  0  0
  193.3380  174.4030  136.1600 C   0  0  0  0  0  2  0  0  0  0  0  0
  192.7710  175.8360  137.9690 C   0  0  0  0  0  2  0  0  0  0  0  0
  191.7730  174.7700  137.9590 N   0  0  0  0  0  0  0  0  0  0  0  0
  193.9420  175.3680  137.1410 C   0  0  0  0  0  2  0  0  0  0  0  0
  192.1020  173.8720  136.8540 C   0  0  0  0  0  2  0  0  0  0  0  0
  1 26  1  1  0  0  0
  3 16  2  0  0  0  0
  4 23  2  0  0  0  0
  5 11  1  1  0  0  0
  5 15  1  0  0  0  0
  6  7  1  0  0  0  0
  7  3  1  0  0  0  0
  8 12  1  0  0  0  0
  8 16  1  0  0  0  0
  9 27  1  0  0  0  0
 10 17  1  0  0  0  0
 11 20  1  0  0  0  0
 13 20  1  0  0  0  0
 13  9  2  0  0  0  0
 14  2  2  0  0  0  0
 15 12  1  0  0  0  0
 15  4  1  0  0  0  0
 17 28  1  6  0  0  0
 17 25  1  0  0  0  0
 18  4  1  0  0  0  0
 18  1  1  0  0  0  0
 19  6  1  1  0  0  0
 19  5  1  0  0  0  0
 19  3  1  0  0  0  0
 20 18  2  0  0  0  0
 22 24  1  0  0  0  0
 22 10  1  0  0  0  0
 23 21  1  0  0  0  0
 24 13  1  0  0  0  0
 25  9  1  0  0  0  0
 25 14  1  1  0  0  0
 26 21  2  0  0  0  0
 27  1  1  0  0  0  0
 27  2  1  0  0  0  0
 29 32  1  0  0  0  0
 29 28  1  0  0  0  0
 30 34  1  0  0  0  0
 30 33  1  0  0  0  0
 32 31  1  0  0  0  0
 33 31  1  0  0  0  0
 34 32  1  0  0  0  0
M  END
>  <MODEL>
5

>  <REMARK>
 VINA RESULT:      -7.5      3.762      4.769
  Name = 
  3 active torsions:
  status: ('A' for Active; 'I' for Inactive)
    1  A    between atoms: C_17  and  O_28
    2  A    between atoms: O_28  and  C_29
    3  A    between atoms: C_29  and  N_32
                            x       y       z     vdW  Elec       q    Type
                         _______ _______ _______ _____ _____    ______ ____

>  <TORSDO>
F 3

$$$$
=
 OpenBabel11122412123D

 34 41  0  0  1  0  0  0  0  0999 V2000
  185.0160  178.6530  140.0410 C   0  0  1  0  0  3  0  0  0  0  0  0
  184.4410  178.3040  142.5210 C   0  0  0  0  0  3  0  0  0  0  0  0
  187.8320  175.7050  136.4260 C   0  0  0  0  0  0  0  0  0  0  0  0
  185.9720  178.2290  137.7150 C   0  0  0  0  0  0  0  0  0  0  0  0
  188.4330  177.9600  137.3690 C   0  0  2  0  0  3  0  0  0  0  0  0
  188.7530  175.5940  138.2130 C   0  0  0  0  0  2  0  0  0  0  0  0
  187.8580  174.7500  137.5060 O   0  0  0  0  0  0  0  0  0  0  0  0
  187.3330  177.1140  134.5940 C   0  0  0  0  0  2  0  0  0  0  0  0
  186.6300  178.3380  141.9220 C   0  0  0  0  0  0  0  0  0  0  0  0
  188.6960  176.8970  143.4730 C   0  0  0  0  0  2  0  0  0  0  0  0
  188.5510  178.3190  138.7550 O   0  0  0  0  0  0  0  0  0  0  0  0
  186.8730  178.3610  135.3740 C   0  0  0  0  0  2  0  0  0  0  0  0
  187.7000  178.4320  141.1050 C   0  0  0  0  0  0  0  0  0  0  0  0
  185.1220  178.3610  143.6640 C   0  0  0  0  0  3  0  0  0  0  0  0
  187.0940  178.2580  136.8240 N   0  0  0  0  0  0  0  0  0  0  0  0
  187.1300  175.8880  135.3570 N   0  0  0  0  0  0  0  0  0  0  0  0
  187.2880  177.1560  144.0310 C   0  0  2  0  0  3  0  0  0  0  0  0
  186.2060  178.3910  139.1510 C   0  0  0  0  0  0  0  0  0  0  0  0
  188.8910  176.5010  137.1100 C   0  0  1  0  0  3  0  0  0  0  0  0
  187.4600  178.3870  139.6370 C   0  0  0  0  0  0  0  0  0  0  0  0
  183.6620  177.7510  138.1840 C   0  0  0  0  0  3  0  0  0  0  0  0
  189.3960  178.1880  143.0620 C   0  0  0  0  0  2  0  0  0  0  0  0
  184.7750  177.9400  137.2870 N   0  0  0  0  0  0  0  0  0  0  0  0
  189.1310  178.5360  141.5940 C   0  0  0  0  0  2  0  0  0  0  0  0
  186.6060  178.3850  143.4120 C   0  0  1  0  0  3  0  0  0  0  0  0
  183.7660  178.0200  139.4920 C   0  0  0  0  0  3  0  0  0  0  0  0
  185.3160  178.2370  141.4060 N   0  0  0  0  0  0  0  0  0  0  0  0
  187.3600  177.3110  145.4170 O   0  0  0  0  0  0  0  0  0  0  0  0
  188.6280  176.8270  145.7700 C   0  0  0  0  0  2  0  0  0  0  0  0
  189.6310  178.4940  148.5890 C   0  0  0  0  0  2  0  0  0  0  0  0
  187.6560  177.3820  147.8740 C   0  0  0  0  0  2  0  0  0  0  0  0
  188.7710  176.7010  147.2220 N   0  0  0  0  0  0  0  0  0  0  0  0
  188.2220  178.1890  149.0160 C   0  0  0  0  0  2  0  0  0  0  0  0
  190.0010  177.3660  147.6480 C   0  0  0  0  0  2  0  0  0  0  0  0
  1 26  1  6  0  0  0
  1 27  1  0  0  0  0
  2 14  2  0  0  0  0
  3 19  1  0  0  0  0
  3  7  1  0  0  0  0
  4 18  1  0  0  0  0
  5 11  1  1  0  0  0
  7  6  1  0  0  0  0
  8 16  1  0  0  0  0
  8 12  1  0  0  0  0
  9 25  1  0  0  0  0
 10 17  1  0  0  0  0
 11 20  1  0  0  0  0
 12 15  1  0  0  0  0
 13 24  1  0  0  0  0
 13  9  2  0  0  0  0
 15  5  1  0  0  0  0
 15  4  1  0  0  0  0
 16  3  2  0  0  0  0
 17 28  1  1  0  0  0
 18 20  2  0  0  0  0
 18  1  1  0  0  0  0
 19  5  1  0  0  0  0
 19  6  1  1  0  0  0
 20 13  1  0  0  0  0
 21 26  2  0  0  0  0
 22 10  1  0  0  0  0
 23  4  2  0  0  0  0
 23 21  1  0  0  0  0
 24 22  1  0  0  0  0
 25 14  1  1  0  0  0
 25 17  1  0  0  0  0
 27  9  1  0  0  0  0
 27  2  1  0  0  0  0
 28 29  1  0  0  0  0
 29 32  1  0  0  0  0
 30 33  1  0  0  0  0
 31 33  1  0  0  0  0
 32 34  1  0  0  0  0
 32 31  1  0  0  0  0
 34 30  1  0  0  0  0
M  END
>  <MODEL>
6

>  <REMARK>
 VINA RESULT:      -7.3      3.906      5.185
  Name = 
  3 active torsions:
  status: ('A' for Active; 'I' for Inactive)
    1  A    between atoms: C_17  and  O_28
    2  A    between atoms: O_28  and  C_29
    3  A    between atoms: C_29  and  N_32
                            x       y       z     vdW  Elec       q    Type
                         _______ _______ _______ _____ _____    ______ ____

>  <TORSDO>
F 3

$$$$
=
 OpenBabel11122412123D

 34 41  0  0  1  0  0  0  0  0999 V2000
  188.2710  177.3550  138.2110 C   0  0  1  0  0  3  0  0  0  0  0  0
  186.2380  176.8270  136.7300 C   0  0  0  0  0  3  0  0  0  0  0  0
  189.5990  176.0080  143.3210 C   0  0  0  0  0  0  0  0  0  0  0  0
  189.8270  177.3840  140.2310 C   0  0  0  0  0  0  0  0  0  0  0  0
  189.0610  178.2990  142.4280 C   0  0  2  0  0  3  0  0  0  0  0  0
  187.6220  176.3800  143.2410 C   0  0  0  0  0  2  0  0  0  0  0  0
  188.4100  175.1990  143.2180 O   0  0  0  0  0  0  0  0  0  0  0  0
  191.7540  176.9780  143.2250 C   0  0  0  0  0  2  0  0  0  0  0  0
  185.8780  177.8760  138.7110 C   0  0  0  0  0  0  0  0  0  0  0  0
  183.3240  177.6090  140.1780 C   0  0  0  0  0  2  0  0  0  0  0  0
  187.8780  178.6990  141.7180 O   0  0  0  0  0  0  0  0  0  0  0  0
  191.5520  177.8780  141.9900 C   0  0  0  0  0  2  0  0  0  0  0  0
  186.1830  178.4460  139.8960 C   0  0  0  0  0  0  0  0  0  0  0  0
  184.9660  177.2220  136.6990 C   0  0  0  0  0  3  0  0  0  0  0  0
  190.1590  177.9200  141.5180 N   0  0  0  0  0  0  0  0  0  0  0  0
  190.8720  175.8160  143.2030 N   0  0  0  0  0  0  0  0  0  0  0  0
  183.4700  177.1860  138.7080 C   0  0  2  0  0  3  0  0  0  0  0  0
  188.5050  177.6660  139.6690 C   0  0  0  0  0  0  0  0  0  0  0  0
  188.7540  177.2220  143.5010 C   0  0  1  0  0  3  0  0  0  0  0  0
  187.5630  178.2640  140.4210 C   0  0  0  0  0  0  0  0  0  0  0  0
  190.2450  175.8840  138.3980 C   0  0  0  0  0  3  0  0  0  0  0  0
  183.7070  179.0690  140.3950 C   0  0  0  0  0  2  0  0  0  0  0  0
  190.6240  176.5570  139.6160 N   0  0  0  0  0  0  0  0  0  0  0  0
  185.1920  179.2210  140.7410 C   0  0  0  0  0  2  0  0  0  0  0  0
  184.5880  177.9360  137.9680 C   0  0  1  0  0  3  0  0  0  0  0  0
  189.1140  176.1970  137.7520 C   0  0  0  0  0  3  0  0  0  0  0  0
  186.8460  177.1570  137.9690 N   0  0  0  0  0  0  0  0  0  0  0  0
  182.2570  177.3850  138.0460 O   0  0  0  0  0  0  0  0  0  0  0  0
  181.5440  176.1910  138.2280 C   0  0  0  0  0  2  0  0  0  0  0  0
  179.6810  177.1270  140.9450 C   0  0  0  0  0  2  0  0  0  0  0  0
  179.9380  177.8850  138.7080 C   0  0  0  0  0  2  0  0  0  0  0  0
  180.1760  176.4440  138.6840 N   0  0  0  0  0  0  0  0  0  0  0  0
  179.2330  178.2080  140.0020 C   0  0  0  0  0  2  0  0  0  0  0  0
  180.0220  175.9530  140.0520 C   0  0  0  0  0  2  0  0  0  0  0  0
  1 26  1  1  0  0  0
  1 18  1  0  0  0  0
  2 27  1  0  0  0  0
  3 19  1  0  0  0  0
  4 15  1  0  0  0  0
  5 11  1  6  0  0  0
  5 19  1  0  0  0  0
  7  6  1  0  0  0  0
  7  3  1  0  0  0  0
  9 13  2  0  0  0  0
 10 22  1  0  0  0  0
 12  8  1  0  0  0  0
 13 20  1  0  0  0  0
 13 24  1  0  0  0  0
 14  2  2  0  0  0  0
 15 12  1  0  0  0  0
 15  5  1  0  0  0  0
 16  8  1  0  0  0  0
 16  3  2  0  0  0  0
 17 28  1  6  0  0  0
 17 10  1  0  0  0  0
 18  4  1  0  0  0  0
 18 20  2  0  0  0  0
 19  6  1  6  0  0  0
 20 11  1  0  0  0  0
 21 23  1  0  0  0  0
 22 24  1  0  0  0  0
 23  4  2  0  0  0  0
 25 14  1  6  0  0  0
 25 17  1  0  0  0  0
 25  9  1  0  0  0  0
 26 21  2  0  0  0  0
 27  1  1  0  0  0  0
 27  9  1  0  0  0  0
 28 29  1  0  0  0  0
 29 32  1  0  0  0  0
 31 33  1  0  0  0  0
 32 31  1  0  0  0  0
 32 34  1  0  0  0  0
 33 30  1  0  0  0  0
 34 30  1  0  0  0  0
M  END
>  <MODEL>
7

>  <REMARK>
 VINA RESULT:      -7.2      2.830      9.001
  Name = 
  3 active torsions:
  status: ('A' for Active; 'I' for Inactive)
    1  A    between atoms: C_17  and  O_28
    2  A    between atoms: O_28  and  C_29
    3  A    between atoms: C_29  and  N_32
                            x       y       z     vdW  Elec       q    Type
                         _______ _______ _______ _____ _____    ______ ____

>  <TORSDO>
F 3

$$$$
=
 OpenBabel11122412123D

 34 41  0  0  1  0  0  0  0  0999 V2000
  183.0850  178.6470  140.7110 C   0  0  1  0  0  3  0  0  0  0  0  0
  183.8860  178.6210  143.1530 C   0  0  0  0  0  3  0  0  0  0  0  0
  183.7130  175.1800  136.5550 C   0  0  0  0  0  0  0  0  0  0  0  0
  182.7140  177.9100  138.2980 C   0  0  0  0  0  0  0  0  0  0  0  0
  184.6490  177.5070  136.7670 C   0  0  2  0  0  3  0  0  0  0  0  0
  185.4280  175.2490  137.6070 C   0  0  0  0  0  2  0  0  0  0  0  0
  184.3210  174.3610  137.5740 O   0  0  0  0  0  0  0  0  0  0  0  0
  182.2980  176.3770  135.0870 C   0  0  0  0  0  2  0  0  0  0  0  0
  185.4490  178.4980  141.5110 C   0  0  0  0  0  0  0  0  0  0  0  0
  188.0590  177.1760  141.9360 C   0  0  0  0  0  2  0  0  0  0  0  0
  185.4550  178.0250  137.8370 O   0  0  0  0  0  0  0  0  0  0  0  0
  182.2720  177.7260  135.8320 C   0  0  0  0  0  2  0  0  0  0  0  0
  185.9390  178.4530  140.2540 C   0  0  0  0  0  0  0  0  0  0  0  0
  185.0580  178.7890  143.7630 C   0  0  0  0  0  3  0  0  0  0  0  0
  183.2130  177.7880  136.9600 N   0  0  0  0  0  0  0  0  0  0  0  0
  182.5540  175.2600  135.9890 N   0  0  0  0  0  0  0  0  0  0  0  0
  187.1360  177.5540  143.1040 C   0  0  2  0  0  3  0  0  0  0  0  0
  183.6510  178.2340  139.3750 C   0  0  0  0  0  0  0  0  0  0  0  0
  184.9490  176.0110  136.4900 C   0  0  1  0  0  3  0  0  0  0  0  0
  184.9760  178.2410  139.1390 C   0  0  0  0  0  0  0  0  0  0  0  0
  180.9940  177.5810  139.9460 C   0  0  0  0  0  3  0  0  0  0  0  0
  188.4090  178.3800  141.0680 C   0  0  0  0  0  2  0  0  0  0  0  0
  181.4780  177.6180  138.5890 N   0  0  0  0  0  0  0  0  0  0  0  0
  187.4120  178.5590  139.9170 C   0  0  0  0  0  2  0  0  0  0  0  0
  186.1960  178.7250  142.7800 C   0  0  1  0  0  3  0  0  0  0  0  0
  181.7520  178.0010  140.9680 C   0  0  0  0  0  3  0  0  0  0  0  0
  184.0600  178.3870  141.7640 N   0  0  0  0  0  0  0  0  0  0  0  0
  187.9090  177.8720  144.2220 O   0  0  0  0  0  0  0  0  0  0  0  0
  188.7540  176.7680  144.4040 C   0  0  0  0  0  2  0  0  0  0  0  0
  191.8710  177.3660  143.1170 C   0  0  0  0  0  2  0  0  0  0  0  0
  190.2930  178.5870  144.4070 C   0  0  0  0  0  2  0  0  0  0  0  0
  190.1130  177.1820  144.7590 N   0  0  0  0  0  0  0  0  0  0  0  0
  191.6350  178.7180  143.7300 C   0  0  0  0  0  2  0  0  0  0  0  0
  191.0760  176.4080  143.9780 C   0  0  0  0  0  2  0  0  0  0  0  0
  1 26  1  1  0  0  0
  1 27  1  0  0  0  0
  2 14  2  0  0  0  0
  3  7  1  0  0  0  0
  4 23  2  0  0  0  0
  4 18  1  0  0  0  0
  5 15  1  0  0  0  0
  5 11  1  1  0  0  0
  7  6  1  0  0  0  0
  8 12  1  0  0  0  0
  8 16  1  0  0  0  0
  9 27  1  0  0  0  0
  9 25  1  0  0  0  0
 10 17  1  0  0  0  0
 11 20  1  0  0  0  0
 12 15  1  0  0  0  0
 13  9  2  0  0  0  0
 15  4  1  0  0  0  0
 16  3  2  0  0  0  0
 17 28  1  1  0  0  0
 18  1  1  0  0  0  0
 19  3  1  0  0  0  0
 19  5  1  0  0  0  0
 19  6  1  1  0  0  0
 20 18  2  0  0  0  0
 20 13  1  0  0  0  0
 21 26  2  0  0  0  0
 22 10  1  0  0  0  0
 23 21  1  0  0  0  0
 24 13  1  0  0  0  0
 24 22  1  0  0  0  0
 25 17  1  0  0  0  0
 25 14  1  1  0  0  0
 27  2  1  0  0  0  0
 28 29  1  0  0  0  0
 29 32  1  0  0  0  0
 30 33  1  0  0  0  0
 30 34  1  0  0  0  0
 31 32  1  0  0  0  0
 33 31  1  0  0  0  0
 34 32  1  0  0  0  0
M  END
>  <MODEL>
8

>  <REMARK>
 VINA RESULT:      -7.2      2.104      2.750
  Name = 
  3 active torsions:
  status: ('A' for Active; 'I' for Inactive)
    1  A    between atoms: C_17  and  O_28
    2  A    between atoms: O_28  and  C_29
    3  A    between atoms: C_29  and  N_32
                            x       y       z     vdW  Elec       q    Type
                         _______ _______ _______ _____ _____    ______ ____

>  <TORSDO>
F 3

$$$$
=
 OpenBabel11122412123D

 34 41  0  0  1  0  0  0  0  0999 V2000
  185.5560  175.4090  136.8450 C   0  0  1  0  0  3  0  0  0  0  0  0
  183.1110  174.9370  137.4810 C   0  0  0  0  0  3  0  0  0  0  0  0
  189.9190  176.9380  139.7270 C   0  0  0  0  0  0  0  0  0  0  0  0
  188.0200  176.0220  137.0720 C   0  0  0  0  0  0  0  0  0  0  0  0
  188.7100  178.2560  137.9560 C   0  0  2  0  0  3  0  0  0  0  0  0
  188.3030  177.9090  140.4310 C   0  0  0  0  0  2  0  0  0  0  0  0
  189.0180  176.7530  140.8370 O   0  0  0  0  0  0  0  0  0  0  0  0
  191.4260  176.7540  137.9130 C   0  0  0  0  0  2  0  0  0  0  0  0
  183.9660  176.9860  137.9550 C   0  0  0  0  0  0  0  0  0  0  0  0
  182.9370  178.6280  140.1890 C   0  0  0  0  0  2  0  0  0  0  0  0
  187.3110  178.5770  137.9150 O   0  0  0  0  0  0  0  0  0  0  0  0
  190.4040  176.7490  136.7590 C   0  0  0  0  0  2  0  0  0  0  0  0
  184.8850  177.9720  138.0140 C   0  0  0  0  0  0  0  0  0  0  0  0
  182.0680  175.6850  137.8370 C   0  0  0  0  0  3  0  0  0  0  0  0
  189.0290  177.0330  137.1940 N   0  0  0  0  0  0  0  0  0  0  0  0
  190.8490  176.2470  139.1540 N   0  0  0  0  0  0  0  0  0  0  0  0
  182.1730  177.4080  139.6530 C   0  0  2  0  0  3  0  0  0  0  0  0
  186.6180  176.3970  137.2590 C   0  0  0  0  0  0  0  0  0  0  0  0
  189.2550  178.2330  139.4080 C   0  0  1  0  0  3  0  0  0  0  0  0
  186.3000  177.6240  137.7100 C   0  0  0  0  0  0  0  0  0  0  0  0
  187.3490  173.7160  136.9570 C   0  0  0  0  0  3  0  0  0  0  0  0
  183.2200  179.6530  139.0950 C   0  0  0  0  0  2  0  0  0  0  0  0
  188.3360  174.7660  136.9240 N   0  0  0  0  0  0  0  0  0  0  0  0
  184.5700  179.3990  138.4140 C   0  0  0  0  0  2  0  0  0  0  0  0
  182.4970  177.0850  138.1860 C   0  0  1  0  0  3  0  0  0  0  0  0
  186.0380  173.9910  136.9820 C   0  0  0  0  0  3  0  0  0  0  0  0
  184.3230  175.6680  137.5800 N   0  0  0  0  0  0  0  0  0  0  0  0
  180.8000  177.6240  139.7900 O   0  0  0  0  0  0  0  0  0  0  0  0
  180.5170  177.3160  141.1280 C   0  0  0  0  0  2  0  0  0  0  0  0
  180.0150  180.1310  143.0140 C   0  0  0  0  0  2  0  0  0  0  0  0
  179.3810  179.3910  140.8460 C   0  0  0  0  0  2  0  0  0  0  0  0
  179.4820  178.1950  141.6760 N   0  0  0  0  0  0  0  0  0  0  0  0
  179.2980  180.5800  141.7720 C   0  0  0  0  0  2  0  0  0  0  0  0
  179.8690  178.6230  143.0180 C   0  0  0  0  0  2  0  0  0  0  0  0
  1 26  1  1  0  0  0
  1 18  1  0  0  0  0
  1 27  1  0  0  0  0
  2 27  1  0  0  0  0
  2 14  2  0  0  0  0
  3  7  1  0  0  0  0
  4 15  1  0  0  0  0
  4 18  1  0  0  0  0
  5 11  1  1  0  0  0
  5 19  1  0  0  0  0
  6  7  1  0  0  0  0
  8 16  1  0  0  0  0
  9 13  2  0  0  0  0
  9 25  1  0  0  0  0
 12 15  1  0  0  0  0
 12  8  1  0  0  0  0
 13 24  1  0  0  0  0
 15  5  1  0  0  0  0
 16  3  2  0  0  0  0
 17 28  1  6  0  0  0
 17 10  1  0  0  0  0
 18 20  2  0  0  0  0
 19  3  1  0  0  0  0
 19  6  1  1  0  0  0
 20 11  1  0  0  0  0
 20 13  1  0  0  0  0
 21 26  2  0  0  0  0
 22 10  1  0  0  0  0
 23 21  1  0  0  0  0
 23  4  2  0  0  0  0
 24 22  1  0  0  0  0
 25 14  1  1  0  0  0
 25 17  1  0  0  0  0
 27  9  1  0  0  0  0
 28 29  1  0  0  0  0
 29 32  1  0  0  0  0
 30 34  1  0  0  0  0
 31 32  1  0  0  0  0
 31 33  1  0  0  0  0
 32 34  1  0  0  0  0
 33 30  1  0  0  0  0
M  END
>  <MODEL>
9

>  <REMARK>
 VINA RESULT:      -6.7      3.888      8.658
  Name = 
  3 active torsions:
  status: ('A' for Active; 'I' for Inactive)
    1  A    between atoms: C_17  and  O_28
    2  A    between atoms: O_28  and  C_29
    3  A    between atoms: C_29  and  N_32
                            x       y       z     vdW  Elec       q    Type
                         _______ _______ _______ _____ _____    ______ ____

>  <TORSDO>
F 3

$$$$
