=
 OpenBabel11122412063D

 34 40  0  0  1  0  0  0  0  0999 V2000
  187.7780  177.8380  140.5910 C   0  0  0  0  0  0  0  0  0  0  0  0
  185.7280  178.5900  139.3120 C   0  0  0  0  0  3  0  0  0  0  0  0
  190.8460  177.2720  146.1500 C   0  0  1  0  0  3  0  0  0  0  0  0
  189.3850  176.6810  142.0000 C   0  0  0  0  0  0  0  0  0  0  0  0
  189.0030  176.5510  144.4530 C   0  0  1  0  0  3  0  0  0  0  0  0
  189.9440  178.9320  144.4850 C   0  0  0  0  0  1  0  0  0  0  0  0
  190.3950  177.0620  147.5810 C   0  0  0  0  0  1  0  0  0  0  0  0
  192.0760  176.1640  144.2360 C   0  0  0  0  0  2  0  0  0  0  0  0
  185.8330  179.0560  141.6170 C   0  0  2  0  0  3  0  0  0  0  0  0
  183.1540  179.2790  143.0510 C   0  0  0  0  0  2  0  0  0  0  0  0
  187.6530  176.8960  144.1410 O   0  0  0  0  0  0  0  0  0  0  0  0
  191.0780  175.4580  143.3330 C   0  0  0  0  0  2  0  0  0  0  0  0
  185.8820  177.9930  142.7290 C   0  0  1  0  0  3  0  0  0  0  0  0
  184.5270  179.0510  139.6090 C   0  0  0  0  0  3  0  0  0  0  0  0
  189.7980  176.2310  143.2030 C   0  0  2  0  0  3  0  0  0  0  0  0
  191.6270  176.0430  145.6840 C   0  0  0  0  0  2  0  0  0  0  0  0
  183.3450  178.6730  141.7360 N   0  0  0  0  0  0  0  0  0  0  0  0
  188.1420  177.3420  141.8570 C   0  0  0  0  0  0  0  0  0  0  0  0
  189.6420  177.6750  145.2880 C   0  0  2  0  0  3  0  0  0  0  0  0
  187.2830  177.4340  142.9010 C   0  0  2  0  0  3  0  0  0  0  0  0
  189.8070  176.9330  139.6640 C   0  0  0  0  0  3  0  0  0  0  0  0
  183.8470  178.4450  144.1190 C   0  0  0  0  0  2  0  0  0  0  0  0
  190.1660  176.4880  140.8970 N   0  0  0  0  0  0  0  0  0  0  0  0
  185.3610  178.5790  144.0340 C   0  0  0  0  0  2  0  0  0  0  0  0
  184.4280  179.4090  141.0680 C   0  0  1  0  0  3  0  0  0  0  0  0
  188.6080  177.6230  139.4890 C   0  0  0  0  0  3  0  0  0  0  0  0
  186.5570  178.5700  140.4590 N   0  0  0  0  0  0  0  0  0  0  0  0
  182.1950  178.9020  141.0510 O   0  0  0  0  0  0  0  0  0  0  0  0
  181.1810  178.4050  141.8770 C   0  0  0  0  0  2  0  0  0  0  0  0
  179.5980  181.2350  141.9200 O   0  0  0  0  0  0  0  0  0  0  0  0
  179.9980  179.7230  140.1530 C   0  0  0  0  0  2  0  0  0  0  0  0
  179.8330  178.9330  141.4180 C   0  0  2  0  0  3  0  0  0  0  0  0
  179.5350  181.1110  140.5260 C   0  0  0  0  0  2  0  0  0  0  0  0
  179.3270  179.9510  142.4150 C   0  0  0  0  0  2  0  0  0  0  0  0
  1 18  1  0  0  0  0
  2 14  2  0  0  0  0
  2 27  1  0  0  0  0
  3  7  1  1  0  0  0
  4 15  1  0  0  0  0
  5 11  1  6  0  0  0
  5 19  1  0  0  0  0
  8 16  1  0  0  0  0
  9 27  1  6  0  0  0
  9 13  1  0  0  0  0
 10 22  1  0  0  0  0
 12  8  1  0  0  0  0
 13 20  1  0  0  0  0
 13 24  1  1  0  0  0
 15 12  1  1  0  0  0
 15  5  1  0  0  0  0
 16  3  1  0  0  0  0
 17 10  1  0  0  0  0
 18  4  2  0  0  0  0
 19  6  1  6  0  0  0
 19  3  1  0  0  0  0
 20 18  1  6  0  0  0
 20 11  1  0  0  0  0
 21 23  2  0  0  0  0
 23  4  1  0  0  0  0
 24 22  1  0  0  0  0
 25 14  1  6  0  0  0
 25  9  1  0  0  0  0
 25 17  1  0  0  0  0
 26 21  1  0  0  0  0
 26  1  2  0  0  0  0
 27  1  1  0  0  0  0
 28 17  1  0  0  0  0
 28 29  1  0  0  0  0
 30 34  1  0  0  0  0
 31 33  1  0  0  0  0
 31 32  1  0  0  0  0
 32 29  1  1  0  0  0
 32 34  1  0  0  0  0
 33 30  1  0  0  0  0
M  END
>  <MODEL>
1

>  <REMARK>
 VINA RESULT:      -9.2      0.000      0.000
  Name = 
  3 active torsions:
  status: ('A' for Active; 'I' for Inactive)
    1  A    between atoms: N_17  and  O_28
    2  A    between atoms: O_28  and  C_29
    3  A    between atoms: C_29  and  C_32
                            x       y       z     vdW  Elec       q    Type
                         _______ _______ _______ _____ _____    ______ ____

>  <TORSDO>
F 3

$$$$
=
 OpenBabel11122412063D

 34 40  0  0  1  0  0  0  0  0999 V2000
  187.9550  177.7700  140.4940 C   0  0  0  0  0  0  0  0  0  0  0  0
  185.9800  178.4860  139.0830 C   0  0  0  0  0  3  0  0  0  0  0  0
  190.7040  177.3470  146.2310 C   0  0  1  0  0  3  0  0  0  0  0  0
  189.4790  176.6500  142.0200 C   0  0  0  0  0  0  0  0  0  0  0  0
  188.9590  176.5810  144.4510 C   0  0  1  0  0  3  0  0  0  0  0  0
  189.8980  178.9630  144.4750 C   0  0  0  0  0  1  0  0  0  0  0  0
  190.1720  177.1720  147.6380 C   0  0  0  0  0  1  0  0  0  0  0  0
  192.0390  176.1920  144.4170 C   0  0  0  0  0  2  0  0  0  0  0  0
  185.9550  179.0110  141.3780 C   0  0  2  0  0  3  0  0  0  0  0  0
  183.2000  179.2670  142.6520 C   0  0  0  0  0  2  0  0  0  0  0  0
  187.6290  176.9170  144.0540 O   0  0  0  0  0  0  0  0  0  0  0  0
  191.0930  175.4620  143.4770 C   0  0  0  0  0  2  0  0  0  0  0  0
  185.9410  177.9760  142.5170 C   0  0  1  0  0  3  0  0  0  0  0  0
  184.7650  178.9550  139.3000 C   0  0  0  0  0  3  0  0  0  0  0  0
  189.8240  176.2310  143.2550 C   0  0  2  0  0  3  0  0  0  0  0  0
  191.5090  176.1070  145.8400 C   0  0  0  0  0  2  0  0  0  0  0  0
  183.4650  178.6290  141.3650 N   0  0  0  0  0  0  0  0  0  0  0  0
  188.2460  177.3060  141.7910 C   0  0  0  0  0  0  0  0  0  0  0  0
  189.5510  177.7270  145.2910 C   0  0  2  0  0  3  0  0  0  0  0  0
  187.3300  177.4230  142.7820 C   0  0  2  0  0  3  0  0  0  0  0  0
  190.0320  176.8440  139.7060 C   0  0  0  0  0  3  0  0  0  0  0  0
  183.8310  178.4610  143.7780 C   0  0  0  0  0  2  0  0  0  0  0  0
  190.3210  176.4300  140.9680 N   0  0  0  0  0  0  0  0  0  0  0  0
  185.3470  178.5950  143.7750 C   0  0  0  0  0  2  0  0  0  0  0  0
  184.5840  179.3490  140.7420 C   0  0  1  0  0  3  0  0  0  0  0  0
  188.8450  177.5280  139.4470 C   0  0  0  0  0  3  0  0  0  0  0  0
  186.7440  178.4970  140.2750 N   0  0  0  0  0  0  0  0  0  0  0  0
  182.3550  178.8390  140.6120 O   0  0  0  0  0  0  0  0  0  0  0  0
  181.3320  178.1610  141.2820 C   0  0  0  0  0  2  0  0  0  0  0  0
  181.1350  175.3930  139.6030 O   0  0  0  0  0  0  0  0  0  0  0  0
  179.5410  176.4900  140.9540 C   0  0  0  0  0  2  0  0  0  0  0  0
  180.3810  177.5340  140.2780 C   0  0  2  0  0  3  0  0  0  0  0  0
  179.8980  175.2120  140.2340 C   0  0  0  0  0  2  0  0  0  0  0  0
  181.1750  176.7520  139.2560 C   0  0  0  0  0  2  0  0  0  0  0  0
  1 18  1  0  0  0  0
  2 14  2  0  0  0  0
  2 27  1  0  0  0  0
  3  7  1  1  0  0  0
  4 15  1  0  0  0  0
  5 11  1  6  0  0  0
  5 19  1  0  0  0  0
  8 16  1  0  0  0  0
  9 27  1  6  0  0  0
  9 13  1  0  0  0  0
 10 22  1  0  0  0  0
 12  8  1  0  0  0  0
 13 20  1  0  0  0  0
 13 24  1  1  0  0  0
 15 12  1  1  0  0  0
 15  5  1  0  0  0  0
 16  3  1  0  0  0  0
 17 10  1  0  0  0  0
 18  4  2  0  0  0  0
 19  6  1  6  0  0  0
 19  3  1  0  0  0  0
 20 18  1  6  0  0  0
 20 11  1  0  0  0  0
 21 23  2  0  0  0  0
 23  4  1  0  0  0  0
 24 22  1  0  0  0  0
 25 14  1  6  0  0  0
 25 17  1  0  0  0  0
 25  9  1  0  0  0  0
 26 21  1  0  0  0  0
 26  1  2  0  0  0  0
 27  1  1  0  0  0  0
 28 29  1  0  0  0  0
 28 17  1  0  0  0  0
 30 33  1  0  0  0  0
 32 31  1  0  0  0  0
 32 29  1  1  0  0  0
 33 31  1  0  0  0  0
 34 30  1  0  0  0  0
 34 32  1  0  0  0  0
M  END
>  <MODEL>
2

>  <REMARK>
 VINA RESULT:      -8.9      1.234      1.860
  Name = 
  3 active torsions:
  status: ('A' for Active; 'I' for Inactive)
    1  A    between atoms: N_17  and  O_28
    2  A    between atoms: O_28  and  C_29
    3  A    between atoms: C_29  and  C_32
                            x       y       z     vdW  Elec       q    Type
                         _______ _______ _______ _____ _____    ______ ____

>  <TORSDO>
F 3

$$$$
=
 OpenBabel11122412063D

 34 40  0  0  1  0  0  0  0  0999 V2000
  190.3570  176.8570  140.2520 C   0  0  0  0  0  0  0  0  0  0  0  0
  190.9400  176.8160  142.7140 C   0  0  0  0  0  3  0  0  0  0  0  0
  185.9030  176.9980  135.6930 C   0  0  1  0  0  3  0  0  0  0  0  0
  189.6660  177.4650  138.0030 C   0  0  0  0  0  0  0  0  0  0  0  0
  187.3080  178.1290  137.5760 C   0  0  1  0  0  3  0  0  0  0  0  0
  186.8510  175.6090  137.5690 C   0  0  0  0  0  1  0  0  0  0  0  0
  184.5160  177.5990  135.6010 C   0  0  0  0  0  1  0  0  0  0  0  0
  188.2520  177.1860  134.7730 C   0  0  0  0  0  2  0  0  0  0  0  0
  188.6670  176.7210  142.1080 C   0  0  2  0  0  3  0  0  0  0  0  0
  186.7010  177.8440  144.1470 C   0  0  0  0  0  2  0  0  0  0  0  0
  187.2320  178.3210  138.9890 O   0  0  0  0  0  0  0  0  0  0  0  0
  189.0810  178.0850  135.6760 C   0  0  0  0  0  2  0  0  0  0  0  0
  187.9080  177.8340  141.3640 C   0  0  1  0  0  3  0  0  0  0  0  0
  190.2900  176.9390  143.8570 C   0  0  0  0  0  3  0  0  0  0  0  0
  188.7360  177.8920  137.1240 C   0  0  2  0  0  3  0  0  0  0  0  0
  186.8270  177.7090  134.7040 C   0  0  0  0  0  2  0  0  0  0  0  0
  188.1390  178.1000  144.1500 N   0  0  0  0  0  0  0  0  0  0  0  0
  189.3690  177.3560  139.3820 C   0  0  0  0  0  0  0  0  0  0  0  0
  186.3600  176.9900  137.1590 C   0  0  2  0  0  3  0  0  0  0  0  0
  188.1830  177.7900  139.8710 C   0  0  2  0  0  3  0  0  0  0  0  0
  191.8890  176.6940  138.4030 C   0  0  0  0  0  3  0  0  0  0  0  0
  186.0560  178.4800  142.9240 C   0  0  0  0  0  2  0  0  0  0  0  0
  190.9180  177.1440  137.5650 N   0  0  0  0  0  0  0  0  0  0  0  0
  186.4160  177.7270  141.6500 C   0  0  0  0  0  2  0  0  0  0  0  0
  188.8000  176.8900  143.6420 C   0  0  1  0  0  3  0  0  0  0  0  0
  191.6250  176.5360  139.7620 C   0  0  0  0  0  3  0  0  0  0  0  0
  190.0370  176.6770  141.6340 N   0  0  0  0  0  0  0  0  0  0  0  0
  188.4850  178.2560  145.4530 O   0  0  0  0  0  0  0  0  0  0  0  0
  187.4050  177.7380  146.1750 C   0  0  0  0  0  2  0  0  0  0  0  0
  190.2110  177.5520  147.7920 O   0  0  0  0  0  0  0  0  0  0  0  0
  188.1010  178.3690  148.4620 C   0  0  0  0  0  2  0  0  0  0  0  0
  187.8820  177.2200  147.5210 C   0  0  2  0  0  3  0  0  0  0  0  0
  189.5720  178.2950  148.7930 C   0  0  0  0  0  2  0  0  0  0  0  0
  189.2590  176.6140  147.3660 C   0  0  0  0  0  2  0  0  0  0  0  0
  1 27  1  0  0  0  0
  2 14  2  0  0  0  0
  3  7  1  1  0  0  0
  3 19  1  0  0  0  0
  4 18  1  0  0  0  0
  5 11  1  1  0  0  0
  8 12  1  0  0  0  0
  9 27  1  6  0  0  0
  9 25  1  0  0  0  0
 10 17  1  0  0  0  0
 13 24  1  6  0  0  0
 13  9  1  0  0  0  0
 15 12  1  6  0  0  0
 15  5  1  0  0  0  0
 15  4  1  0  0  0  0
 16  8  1  0  0  0  0
 16  3  1  0  0  0  0
 17 28  1  0  0  0  0
 18 20  1  0  0  0  0
 18  1  2  0  0  0  0
 19  6  1  6  0  0  0
 19  5  1  0  0  0  0
 20 11  1  1  0  0  0
 20 13  1  0  0  0  0
 21 26  2  0  0  0  0
 22 10  1  0  0  0  0
 23  4  2  0  0  0  0
 23 21  1  0  0  0  0
 24 22  1  0  0  0  0
 25 14  1  6  0  0  0
 25 17  1  0  0  0  0
 26  1  1  0  0  0  0
 27  2  1  0  0  0  0
 28 29  1  0  0  0  0
 30 33  1  0  0  0  0
 31 33  1  0  0  0  0
 32 29  1  6  0  0  0
 32 31  1  0  0  0  0
 34 32  1  0  0  0  0
 34 30  1  0  0  0  0
M  END
>  <MODEL>
3

>  <REMARK>
 VINA RESULT:      -8.0      3.614      7.723
  Name = 
  3 active torsions:
  status: ('A' for Active; 'I' for Inactive)
    1  A    between atoms: N_17  and  O_28
    2  A    between atoms: O_28  and  C_29
    3  A    between atoms: C_29  and  C_32
                            x       y       z     vdW  Elec       q    Type
                         _______ _______ _______ _____ _____    ______ ____

>  <TORSDO>
F 3

$$$$
=
 OpenBabel11122412063D

 34 40  0  0  1  0  0  0  0  0999 V2000
  189.8230  177.8670  143.8610 C   0  0  0  0  0  0  0  0  0  0  0  0
  191.9190  177.4920  142.4950 C   0  0  0  0  0  3  0  0  0  0  0  0
  183.6320  179.3770  144.0660 C   0  0  1  0  0  3  0  0  0  0  0  0
  187.6500  177.7030  144.9390 C   0  0  0  0  0  0  0  0  0  0  0  0
  185.5840  177.7250  143.5560 C   0  0  1  0  0  3  0  0  0  0  0  0
  185.9250  180.2630  143.5160 C   0  0  0  0  0  1  0  0  0  0  0  0
  182.4700  179.1710  143.1160 C   0  0  0  0  0  1  0  0  0  0  0  0
  184.5450  178.6820  146.3210 C   0  0  0  0  0  2  0  0  0  0  0  0
  189.9850  178.2400  141.3810 C   0  0  2  0  0  3  0  0  0  0  0  0
  189.7590  177.4580  138.4450 C   0  0  0  0  0  2  0  0  0  0  0  0
  186.4530  177.4110  142.4670 O   0  0  0  0  0  0  0  0  0  0  0  0
  185.4940  177.5080  146.1450 C   0  0  0  0  0  2  0  0  0  0  0  0
  188.6690  177.4500  141.2760 C   0  0  1  0  0  3  0  0  0  0  0  0
  192.2310  177.4220  141.2150 C   0  0  0  0  0  3  0  0  0  0  0  0
  186.3040  177.6290  144.8870 C   0  0  2  0  0  3  0  0  0  0  0  0
  183.3940  178.5600  145.3360 C   0  0  0  0  0  2  0  0  0  0  0  0
  190.6690  176.8370  139.4030 N   0  0  0  0  0  0  0  0  0  0  0  0
  188.4240  177.7380  143.7550 C   0  0  0  0  0  0  0  0  0  0  0  0
  184.9510  179.1100  143.3270 C   0  0  2  0  0  3  0  0  0  0  0  0
  187.8420  177.5780  142.5430 C   0  0  2  0  0  3  0  0  0  0  0  0
  189.6350  177.8210  146.2600 C   0  0  0  0  0  3  0  0  0  0  0  0
  188.3150  177.1450  138.8140 C   0  0  0  0  0  2  0  0  0  0  0  0
  188.2830  177.7320  146.1480 N   0  0  0  0  0  0  0  0  0  0  0  0
  187.8810  177.9100  140.0570 C   0  0  0  0  0  2  0  0  0  0  0  0
  191.0850  177.8800  140.3510 C   0  0  1  0  0  3  0  0  0  0  0  0
  190.4300  177.8970  145.1180 C   0  0  0  0  0  3  0  0  0  0  0  0
  190.6000  177.9760  142.6670 N   0  0  0  0  0  0  0  0  0  0  0  0
  191.7590  176.4590  138.6860 O   0  0  0  0  0  0  0  0  0  0  0  0
  191.3460  175.3280  137.9750 C   0  0  0  0  0  2  0  0  0  0  0  0
  194.5410  175.6200  137.5000 O   0  0  0  0  0  0  0  0  0  0  0  0
  193.1040  173.7720  137.2000 C   0  0  0  0  0  2  0  0  0  0  0  0
  192.3390  175.0200  136.8680 C   0  0  2  0  0  3  0  0  0  0  0  0
  194.5380  174.2350  137.2870 C   0  0  0  0  0  2  0  0  0  0  0  0
  193.4020  176.0960  136.8340 C   0  0  0  0  0  2  0  0  0  0  0  0
  1 26  1  0  0  0  0
  2 27  1  0  0  0  0
  3  7  1  6  0  0  0
  3 16  1  0  0  0  0
  4 23  2  0  0  0  0
  5 11  1  6  0  0  0
  5 15  1  0  0  0  0
  9 27  1  1  0  0  0
 10 22  1  0  0  0  0
 10 17  1  0  0  0  0
 12  8  1  0  0  0  0
 13 24  1  6  0  0  0
 13  9  1  0  0  0  0
 13 20  1  0  0  0  0
 14  2  2  0  0  0  0
 15  4  1  0  0  0  0
 15 12  1  1  0  0  0
 16  8  1  0  0  0  0
 17 25  1  0  0  0  0
 18  1  2  0  0  0  0
 18  4  1  0  0  0  0
 19  6  1  1  0  0  0
 19  5  1  0  0  0  0
 19  3  1  0  0  0  0
 20 11  1  1  0  0  0
 20 18  1  0  0  0  0
 22 24  1  0  0  0  0
 23 21  1  0  0  0  0
 25 14  1  1  0  0  0
 25  9  1  0  0  0  0
 26 21  2  0  0  0  0
 27  1  1  0  0  0  0
 28 17  1  0  0  0  0
 29 28  1  0  0  0  0
 31 33  1  0  0  0  0
 32 31  1  0  0  0  0
 32 29  1  1  0  0  0
 33 30  1  0  0  0  0
 34 32  1  0  0  0  0
 34 30  1  0  0  0  0
M  END
>  <MODEL>
4

>  <REMARK>
 VINA RESULT:      -7.9      3.203      8.426
  Name = 
  3 active torsions:
  status: ('A' for Active; 'I' for Inactive)
    1  A    between atoms: N_17  and  O_28
    2  A    between atoms: O_28  and  C_29
    3  A    between atoms: C_29  and  C_32
                            x       y       z     vdW  Elec       q    Type
                         _______ _______ _______ _____ _____    ______ ____

>  <TORSDO>
F 3

$$$$
=
 OpenBabel11122412063D

 34 40  0  0  1  0  0  0  0  0999 V2000
  182.2110  178.7620  143.0930 C   0  0  0  0  0  0  0  0  0  0  0  0
  183.9020  178.7570  144.9760 C   0  0  0  0  0  3  0  0  0  0  0  0
  180.9700  179.3470  136.8670 C   0  0  1  0  0  3  0  0  0  0  0  0
  180.8300  178.2380  141.1640 C   0  0  0  0  0  0  0  0  0  0  0  0
  181.8780  178.0200  138.9200 C   0  0  1  0  0  3  0  0  0  0  0  0
  181.8010  180.5800  138.9010 C   0  0  0  0  0  1  0  0  0  0  0  0
  181.7440  179.0160  135.6080 C   0  0  0  0  0  1  0  0  0  0  0  0
  178.9310  178.6940  138.2150 C   0  0  0  0  0  2  0  0  0  0  0  0
  184.6570  179.2640  142.8050 C   0  0  2  0  0  3  0  0  0  0  0  0
  187.5700  178.5870  142.2220 C   0  0  0  0  0  2  0  0  0  0  0  0
  183.1050  177.8830  139.6390 O   0  0  0  0  0  0  0  0  0  0  0  0
  179.3260  177.6780  139.2760 C   0  0  0  0  0  2  0  0  0  0  0  0
  184.6130  178.2960  141.6100 C   0  0  1  0  0  3  0  0  0  0  0  0
  185.2160  178.7900  145.0860 C   0  0  0  0  0  3  0  0  0  0  0  0
  180.6810  177.9710  139.8500 C   0  0  2  0  0  3  0  0  0  0  0  0
  179.7350  178.4490  136.9500 C   0  0  0  0  0  2  0  0  0  0  0  0
  186.8050  178.0640  143.3500 N   0  0  0  0  0  0  0  0  0  0  0  0
  182.1120  178.4360  141.7270 C   0  0  0  0  0  0  0  0  0  0  0  0
  181.9170  179.3070  138.0750 C   0  0  2  0  0  3  0  0  0  0  0  0
  183.2300  178.2470  140.9860 C   0  0  2  0  0  3  0  0  0  0  0  0
  179.8200  178.5850  143.2990 C   0  0  0  0  0  3  0  0  0  0  0  0
  187.0080  178.0520  140.9120 C   0  0  0  0  0  2  0  0  0  0  0  0
  179.7310  178.3050  141.9720 N   0  0  0  0  0  0  0  0  0  0  0  0
  185.6660  178.6900  140.5820 C   0  0  0  0  0  2  0  0  0  0  0  0
  185.8640  179.1130  143.7660 C   0  0  1  0  0  3  0  0  0  0  0  0
  181.0620  178.8250  143.8840 C   0  0  0  0  0  3  0  0  0  0  0  0
  183.5000  179.0360  143.6480 N   0  0  0  0  0  0  0  0  0  0  0  0
  187.7020  177.8800  144.3530 O   0  0  0  0  0  0  0  0  0  0  0  0
  188.4110  176.7290  143.9930 C   0  0  0  0  0  2  0  0  0  0  0  0
  191.2470  177.8060  142.8460 O   0  0  0  0  0  0  0  0  0  0  0  0
  190.1490  178.2420  144.8890 C   0  0  0  0  0  2  0  0  0  0  0  0
  189.8450  176.8290  144.4850 C   0  0  2  0  0  3  0  0  0  0  0  0
  191.2650  178.6550  143.9610 C   0  0  0  0  0  2  0  0  0  0  0  0
  190.7890  176.5730  143.3320 C   0  0  0  0  0  2  0  0  0  0  0  0
  1 27  1  0  0  0  0
  1 26  1  0  0  0  0
  2 14  2  0  0  0  0
  3  7  1  6  0  0  0
  3 16  1  0  0  0  0
  3 19  1  0  0  0  0
  4 18  1  0  0  0  0
  4 23  2  0  0  0  0
  5 11  1  1  0  0  0
  5 15  1  0  0  0  0
  8 12  1  0  0  0  0
  9 27  1  1  0  0  0
  9 25  1  0  0  0  0
 10 17  1  0  0  0  0
 13 24  1  6  0  0  0
 13  9  1  0  0  0  0
 15 12  1  6  0  0  0
 15  4  1  0  0  0  0
 16  8  1  0  0  0  0
 17 25  1  0  0  0  0
 17 28  1  0  0  0  0
 18  1  2  0  0  0  0
 19  6  1  1  0  0  0
 19  5  1  0  0  0  0
 20 11  1  1  0  0  0
 20 13  1  0  0  0  0
 20 18  1  0  0  0  0
 21 26  2  0  0  0  0
 22 10  1  0  0  0  0
 23 21  1  0  0  0  0
 24 22  1  0  0  0  0
 25 14  1  1  0  0  0
 27  2  1  0  0  0  0
 29 28  1  0  0  0  0
 30 34  1  0  0  0  0
 30 33  1  0  0  0  0
 32 29  1  6  0  0  0
 32 31  1  0  0  0  0
 33 31  1  0  0  0  0
 34 32  1  0  0  0  0
M  END
>  <MODEL>
5

>  <REMARK>
 VINA RESULT:      -7.9      2.159      9.212
  Name = 
  3 active torsions:
  status: ('A' for Active; 'I' for Inactive)
    1  A    between atoms: N_17  and  O_28
    2  A    between atoms: O_28  and  C_29
    3  A    between atoms: C_29  and  C_32
                            x       y       z     vdW  Elec       q    Type
                         _______ _______ _______ _____ _____    ______ ____

>  <TORSDO>
F 3

$$$$
=
 OpenBabel11122412063D

 34 40  0  0  1  0  0  0  0  0999 V2000
  188.8580  176.7920  137.0590 C   0  0  0  0  0  0  0  0  0  0  0  0
  187.1030  178.0030  138.4220 C   0  0  0  0  0  3  0  0  0  0  0  0
  194.8160  174.5790  136.5530 C   0  0  1  0  0  3  0  0  0  0  0  0
  190.4380  175.1900  136.1390 C   0  0  0  0  0  0  0  0  0  0  0  0
  192.3880  174.4630  137.4980 C   0  0  1  0  0  3  0  0  0  0  0  0
  193.4340  176.6760  136.7460 C   0  0  0  0  0  1  0  0  0  0  0  0
  195.8230  174.0430  137.5490 C   0  0  0  0  0  1  0  0  0  0  0  0
  193.3530  173.9090  134.6000 C   0  0  0  0  0  2  0  0  0  0  0  0
  189.2820  177.8500  139.2990 C   0  0  2  0  0  3  0  0  0  0  0  0
  189.4960  177.9030  142.3380 C   0  0  0  0  0  2  0  0  0  0  0  0
  191.6550  174.9800  138.6090 O   0  0  0  0  0  0  0  0  0  0  0  0
  191.9680  173.5380  135.1060 C   0  0  0  0  0  2  0  0  0  0  0  0
  189.9900  176.5370  139.6750 C   0  0  1  0  0  3  0  0  0  0  0  0
  186.9930  178.4640  139.6530 C   0  0  0  0  0  3  0  0  0  0  0  0
  191.5370  174.4160  136.2440 C   0  0  2  0  0  3  0  0  0  0  0  0
  194.4010  173.4550  135.6030 C   0  0  0  0  0  2  0  0  0  0  0  0
  188.2660  177.6440  141.5960 N   0  0  0  0  0  0  0  0  0  0  0  0
  189.9800  175.9600  137.2350 C   0  0  0  0  0  0  0  0  0  0  0  0
  193.6770  175.2830  137.3050 C   0  0  2  0  0  3  0  0  0  0  0  0
  190.5640  175.8460  138.4510 C   0  0  2  0  0  3  0  0  0  0  0  0
  188.6380  176.0020  134.7960 C   0  0  0  0  0  3  0  0  0  0  0  0
  190.4910  176.7720  142.1190 C   0  0  0  0  0  2  0  0  0  0  0  0
  189.7430  175.2280  134.9640 N   0  0  0  0  0  0  0  0  0  0  0  0
  191.0710  176.8060  140.7130 C   0  0  0  0  0  2  0  0  0  0  0  0
  188.3220  178.4410  140.3620 C   0  0  1  0  0  3  0  0  0  0  0  0
  188.1780  176.8040  135.8400 C   0  0  0  0  0  3  0  0  0  0  0  0
  188.4380  177.6250  138.1420 N   0  0  0  0  0  0  0  0  0  0  0  0
  187.2590  178.1290  142.3660 O   0  0  0  0  0  0  0  0  0  0  0  0
  187.6200  177.8010  143.6770 C   0  0  0  0  0  2  0  0  0  0  0  0
  185.9550  179.0400  146.1690 O   0  0  0  0  0  0  0  0  0  0  0  0
  185.2260  178.2930  144.0530 C   0  0  0  0  0  2  0  0  0  0  0  0
  186.3830  177.4370  144.4800 C   0  0  2  0  0  3  0  0  0  0  0  0
  184.8550  179.0550  145.3020 C   0  0  0  0  0  2  0  0  0  0  0  0
  186.5960  177.8160  145.9280 C   0  0  0  0  0  2  0  0  0  0  0  0
  1 18  1  0  0  0  0
  1 27  1  0  0  0  0
  2 14  2  0  0  0  0
  3 19  1  0  0  0  0
  3  7  1  1  0  0  0
  4 15  1  0  0  0  0
  4 18  2  0  0  0  0
  5 11  1  1  0  0  0
  8 12  1  0  0  0  0
  8 16  1  0  0  0  0
  9 27  1  6  0  0  0
  9 13  1  0  0  0  0
  9 25  1  0  0  0  0
 13 24  1  1  0  0  0
 15 12  1  6  0  0  0
 15  5  1  0  0  0  0
 16  3  1  0  0  0  0
 17 10  1  0  0  0  0
 17 28  1  0  0  0  0
 19  6  1  6  0  0  0
 19  5  1  0  0  0  0
 20 18  1  1  0  0  0
 20 11  1  0  0  0  0
 20 13  1  0  0  0  0
 21 23  2  0  0  0  0
 21 26  1  0  0  0  0
 22 10  1  0  0  0  0
 23  4  1  0  0  0  0
 24 22  1  0  0  0  0
 25 14  1  6  0  0  0
 25 17  1  0  0  0  0
 26  1  2  0  0  0  0
 27  2  1  0  0  0  0
 28 29  1  0  0  0  0
 31 32  1  0  0  0  0
 31 33  1  0  0  0  0
 32 29  1  6  0  0  0
 32 34  1  0  0  0  0
 33 30  1  0  0  0  0
 34 30  1  0  0  0  0
M  END
>  <MODEL>
6

>  <REMARK>
 VINA RESULT:      -7.7      3.911      7.014
  Name = 
  3 active torsions:
  status: ('A' for Active; 'I' for Inactive)
    1  A    between atoms: N_17  and  O_28
    2  A    between atoms: O_28  and  C_29
    3  A    between atoms: C_29  and  C_32
                            x       y       z     vdW  Elec       q    Type
                         _______ _______ _______ _____ _____    ______ ____

>  <TORSDO>
F 3

$$$$
=
 OpenBabel11122412063D

 34 40  0  0  1  0  0  0  0  0999 V2000
  182.0160  178.8630  143.0510 C   0  0  0  0  0  0  0  0  0  0  0  0
  183.6280  178.8710  145.0020 C   0  0  0  0  0  3  0  0  0  0  0  0
  181.0500  179.2660  136.7620 C   0  0  1  0  0  3  0  0  0  0  0  0
  180.6970  178.3160  141.0840 C   0  0  0  0  0  0  0  0  0  0  0  0
  181.8280  177.9850  138.8950 C   0  0  1  0  0  3  0  0  0  0  0  0
  181.8390  180.5430  138.7850 C   0  0  0  0  0  1  0  0  0  0  0  0
  181.8620  178.8660  135.5480 C   0  0  0  0  0  1  0  0  0  0  0  0
  178.9360  178.7280  138.0450 C   0  0  0  0  0  2  0  0  0  0  0  0
  184.4880  179.2750  142.8480 C   0  0  2  0  0  3  0  0  0  0  0  0
  187.3970  178.4840  142.4100 C   0  0  0  0  0  2  0  0  0  0  0  0
  183.0190  177.8340  139.6680 O   0  0  0  0  0  0  0  0  0  0  0  0
  179.2540  177.7390  139.1550 C   0  0  0  0  0  2  0  0  0  0  0  0
  184.4600  178.2670  141.6850 C   0  0  1  0  0  3  0  0  0  0  0  0
  184.9370  178.8640  145.1650 C   0  0  0  0  0  3  0  0  0  0  0  0
  180.5940  178.0080  139.7750 C   0  0  2  0  0  3  0  0  0  0  0  0
  179.7830  178.4120  136.8230 C   0  0  0  0  0  2  0  0  0  0  0  0
  186.5700  178.0260  143.5230 N   0  0  0  0  0  0  0  0  0  0  0  0
  181.9620  178.4930  141.6930 C   0  0  0  0  0  0  0  0  0  0  0  0
  181.9440  179.2380  138.0090 C   0  0  2  0  0  3  0  0  0  0  0  0
  183.1020  178.2410  141.0070 C   0  0  2  0  0  3  0  0  0  0  0  0
  179.6140  178.7710  143.1620 C   0  0  0  0  0  3  0  0  0  0  0  0
  186.8710  177.9210  141.0970 C   0  0  0  0  0  2  0  0  0  0  0  0
  179.5700  178.4470  141.8430 N   0  0  0  0  0  0  0  0  0  0  0  0
  185.5660  178.5900  140.6900 C   0  0  0  0  0  2  0  0  0  0  0  0
  185.6480  179.1200  143.8620 C   0  0  1  0  0  3  0  0  0  0  0  0
  180.8390  178.9920  143.7900 C   0  0  0  0  0  3  0  0  0  0  0  0
  183.2900  179.1150  143.6490 N   0  0  0  0  0  0  0  0  0  0  0  0
  187.4180  177.8490  144.5680 O   0  0  0  0  0  0  0  0  0  0  0  0
  188.6860  177.7470  143.9870 C   0  0  0  0  0  2  0  0  0  0  0  0
  189.8760  176.7410  146.8310 O   0  0  0  0  0  0  0  0  0  0  0  0
  190.9750  177.3520  144.8340 C   0  0  0  0  0  2  0  0  0  0  0  0
  189.7470  178.2040  144.9730 C   0  0  2  0  0  3  0  0  0  0  0  0
  191.1180  176.6940  146.1850 C   0  0  0  0  0  2  0  0  0  0  0  0
  189.2740  177.9260  146.3820 C   0  0  0  0  0  2  0  0  0  0  0  0
  1 27  1  0  0  0  0
  1 26  1  0  0  0  0
  2 14  2  0  0  0  0
  3  7  1  6  0  0  0
  3 16  1  0  0  0  0
  3 19  1  0  0  0  0
  4 18  1  0  0  0  0
  4 23  2  0  0  0  0
  5 11  1  1  0  0  0
  5 15  1  0  0  0  0
  8 12  1  0  0  0  0
  9 27  1  1  0  0  0
  9 25  1  0  0  0  0
 10 17  1  0  0  0  0
 13 24  1  6  0  0  0
 13  9  1  0  0  0  0
 15 12  1  6  0  0  0
 15  4  1  0  0  0  0
 16  8  1  0  0  0  0
 17 25  1  0  0  0  0
 17 28  1  0  0  0  0
 18  1  2  0  0  0  0
 19  6  1  1  0  0  0
 19  5  1  0  0  0  0
 20 11  1  1  0  0  0
 20 13  1  0  0  0  0
 20 18  1  0  0  0  0
 21 26  2  0  0  0  0
 22 10  1  0  0  0  0
 23 21  1  0  0  0  0
 24 22  1  0  0  0  0
 25 14  1  1  0  0  0
 27  2  1  0  0  0  0
 29 28  1  0  0  0  0
 31 32  1  0  0  0  0
 31 33  1  0  0  0  0
 32 29  1  6  0  0  0
 32 34  1  0  0  0  0
 33 30  1  0  0  0  0
 34 30  1  0  0  0  0
M  END
>  <MODEL>
7

>  <REMARK>
 VINA RESULT:      -7.7      2.171      9.294
  Name = 
  3 active torsions:
  status: ('A' for Active; 'I' for Inactive)
    1  A    between atoms: N_17  and  O_28
    2  A    between atoms: O_28  and  C_29
    3  A    between atoms: C_29  and  C_32
                            x       y       z     vdW  Elec       q    Type
                         _______ _______ _______ _____ _____    ______ ____

>  <TORSDO>
F 3

$$$$
=
 OpenBabel11122412063D

 34 40  0  0  1  0  0  0  0  0999 V2000
  184.6980  178.2800  144.2950 C   0  0  0  0  0  0  0  0  0  0  0  0
  182.4210  178.8300  143.3380 C   0  0  0  0  0  3  0  0  0  0  0  0
  190.6980  176.3440  143.3500 C   0  0  1  0  0  3  0  0  0  0  0  0
  187.0360  178.2680  144.9600 C   0  0  0  0  0  0  0  0  0  0  0  0
  188.8100  178.1370  143.2240 C   0  0  1  0  0  3  0  0  0  0  0  0
  188.2860  175.6310  143.2190 C   0  0  0  0  0  1  0  0  0  0  0  0
  191.6810  176.4920  142.2070 C   0  0  0  0  0  1  0  0  0  0  0  0
  190.2610  177.0450  145.7420 C   0  0  0  0  0  2  0  0  0  0  0  0
  184.0630  177.9790  141.8810 C   0  0  2  0  0  3  0  0  0  0  0  0
  183.8100  178.8140  138.9620 C   0  0  0  0  0  2  0  0  0  0  0  0
  187.7840  178.5370  142.3150 O   0  0  0  0  0  0  0  0  0  0  0  0
  189.3820  178.2860  145.7550 C   0  0  0  0  0  2  0  0  0  0  0  0
  185.3910  178.6790  141.5470 C   0  0  1  0  0  3  0  0  0  0  0  0
  181.8880  178.9520  142.1360 C   0  0  0  0  0  3  0  0  0  0  0  0
  188.3520  178.2510  144.6640 C   0  0  2  0  0  3  0  0  0  0  0  0
  191.2200  177.1120  144.5650 C   0  0  0  0  0  2  0  0  0  0  0  0
  183.1340  179.4720  140.0770 N   0  0  0  0  0  0  0  0  0  0  0  0
  186.0590  178.3150  143.9370 C   0  0  0  0  0  0  0  0  0  0  0  0
  189.2900  176.7190  142.8670 C   0  0  2  0  0  3  0  0  0  0  0  0
  186.4220  178.4640  142.6410 C   0  0  2  0  0  3  0  0  0  0  0  0
  185.3200  178.2550  146.6200 C   0  0  0  0  0  3  0  0  0  0  0  0
  185.3150  179.0170  139.0650 C   0  0  0  0  0  2  0  0  0  0  0  0
  186.6310  178.2540  146.2640 N   0  0  0  0  0  0  0  0  0  0  0  0
  185.9100  178.1960  140.2000 C   0  0  0  0  0  2  0  0  0  0  0  0
  182.8230  178.4380  141.0730 C   0  0  1  0  0  3  0  0  0  0  0  0
  184.3280  178.2610  145.6410 C   0  0  0  0  0  3  0  0  0  0  0  0
  183.7110  178.2530  143.2610 N   0  0  0  0  0  0  0  0  0  0  0  0
  181.9630  179.9410  139.5750 O   0  0  0  0  0  0  0  0  0  0  0  0
  182.3310  180.9840  138.7190 C   0  0  0  0  0  2  0  0  0  0  0  0
  179.3650  182.2710  138.9700 O   0  0  0  0  0  0  0  0  0  0  0  0
  181.1510  182.7960  137.5200 C   0  0  0  0  0  2  0  0  0  0  0  0
  181.1810  181.3190  137.7850 C   0  0  2  0  0  3  0  0  0  0  0  0
  179.8130  183.2370  138.0600 C   0  0  0  0  0  2  0  0  0  0  0  0
  179.8700  181.0530  138.4900 C   0  0  0  0  0  2  0  0  0  0  0  0
  1 26  1  0  0  0  0
  3  7  1  6  0  0  0
  3 16  1  0  0  0  0
  4 23  2  0  0  0  0
  5 11  1  6  0  0  0
  5 15  1  0  0  0  0
  8 12  1  0  0  0  0
  9 27  1  1  0  0  0
 10 22  1  0  0  0  0
 10 17  1  0  0  0  0
 13 24  1  6  0  0  0
 13  9  1  0  0  0  0
 13 20  1  0  0  0  0
 14  2  2  0  0  0  0
 15  4  1  0  0  0  0
 15 12  1  1  0  0  0
 16  8  1  0  0  0  0
 17 25  1  0  0  0  0
 18  1  2  0  0  0  0
 18  4  1  0  0  0  0
 19  6  1  1  0  0  0
 19  5  1  0  0  0  0
 19  3  1  0  0  0  0
 20 11  1  1  0  0  0
 20 18  1  0  0  0  0
 22 24  1  0  0  0  0
 23 21  1  0  0  0  0
 25  9  1  0  0  0  0
 25 14  1  1  0  0  0
 26 21  2  0  0  0  0
 27  2  1  0  0  0  0
 27  1  1  0  0  0  0
 28 17  1  0  0  0  0
 29 28  1  0  0  0  0
 31 32  1  0  0  0  0
 31 33  1  0  0  0  0
 32 34  1  0  0  0  0
 32 29  1  1  0  0  0
 33 30  1  0  0  0  0
 34 30  1  0  0  0  0
M  END
>  <MODEL>
8

>  <REMARK>
 VINA RESULT:      -7.6      2.099      4.045
  Name = 
  3 active torsions:
  status: ('A' for Active; 'I' for Inactive)
    1  A    between atoms: N_17  and  O_28
    2  A    between atoms: O_28  and  C_29
    3  A    between atoms: C_29  and  C_32
                            x       y       z     vdW  Elec       q    Type
                         _______ _______ _______ _____ _____    ______ ____

>  <TORSDO>
F 3

$$$$
=
 OpenBabel11122412063D

 34 40  0  0  1  0  0  0  0  0999 V2000
  187.1330  178.1890  140.2950 C   0  0  0  0  0  0  0  0  0  0  0  0
  189.2720  177.9810  141.6310 C   0  0  0  0  0  3  0  0  0  0  0  0
  180.7670  177.9010  140.0920 C   0  0  1  0  0  3  0  0  0  0  0  0
  185.0240  178.8960  139.3150 C   0  0  0  0  0  0  0  0  0  0  0  0
  183.0000  179.0780  140.7470 C   0  0  1  0  0  3  0  0  0  0  0  0
  182.8550  176.5380  140.4510 C   0  0  0  0  0  1  0  0  0  0  0  0
  179.6720  178.1930  141.0960 C   0  0  0  0  0  1  0  0  0  0  0  0
  181.7810  178.7050  137.9170 C   0  0  0  0  0  2  0  0  0  0  0  0
  187.2380  177.4680  142.7000 C   0  0  2  0  0  3  0  0  0  0  0  0
  187.1830  177.8840  145.7180 C   0  0  0  0  0  2  0  0  0  0  0  0
  183.9200  179.0780  141.8400 O   0  0  0  0  0  0  0  0  0  0  0  0
  182.9370  179.6470  138.2120 C   0  0  0  0  0  2  0  0  0  0  0  0
  186.0960  178.4690  142.9470 C   0  0  1  0  0  3  0  0  0  0  0  0
  189.5990  177.8220  142.9000 C   0  0  0  0  0  3  0  0  0  0  0  0
  183.7170  179.2120  139.4180 C   0  0  2  0  0  3  0  0  0  0  0  0
  180.6810  178.9090  138.9450 C   0  0  0  0  0  2  0  0  0  0  0  0
  188.1880  178.4450  144.8200 N   0  0  0  0  0  0  0  0  0  0  0  0
  185.7850  178.5610  140.4600 C   0  0  0  0  0  0  0  0  0  0  0  0
  182.1180  177.8180  140.8170 C   0  0  2  0  0  3  0  0  0  0  0  0
  185.2520  178.6650  141.7010 C   0  0  2  0  0  3  0  0  0  0  0  0
  186.9420  178.5850  137.9280 C   0  0  0  0  0  3  0  0  0  0  0  0
  185.8220  178.5070  145.4380 C   0  0  0  0  0  2  0  0  0  0  0  0
  185.6320  178.9090  138.0930 N   0  0  0  0  0  0  0  0  0  0  0  0
  185.2430  178.0080  144.1210 C   0  0  0  0  0  2  0  0  0  0  0  0
  188.3930  177.4770  143.7330 C   0  0  1  0  0  3  0  0  0  0  0  0
  187.7160  178.2120  139.0260 C   0  0  0  0  0  3  0  0  0  0  0  0
  187.8840  177.7800  141.4400 N   0  0  0  0  0  0  0  0  0  0  0  0
  189.3340  178.5150  145.5440 O   0  0  0  0  0  0  0  0  0  0  0  0
  189.6930  177.1840  145.7780 C   0  0  0  0  0  2  0  0  0  0  0  0
  191.6400  175.3340  147.5970 O   0  0  0  0  0  0  0  0  0  0  0  0
  191.7840  175.9460  145.3230 C   0  0  0  0  0  2  0  0  0  0  0  0
  191.1790  177.0920  146.0790 C   0  0  2  0  0  3  0  0  0  0  0  0
  192.3060  175.0300  146.4030 C   0  0  0  0  0  2  0  0  0  0  0  0
  191.3740  176.7100  147.5290 C   0  0  0  0  0  2  0  0  0  0  0  0
  1 18  1  0  0  0  0
  1 27  1  0  0  0  0
  2 14  2  0  0  0  0
  3 19  1  0  0  0  0
  3  7  1  1  0  0  0
  4 15  1  0  0  0  0
  4 18  2  0  0  0  0
  5 19  1  0  0  0  0
  5 11  1  1  0  0  0
  8 12  1  0  0  0  0
  8 16  1  0  0  0  0
  9 27  1  6  0  0  0
  9 13  1  0  0  0  0
  9 25  1  0  0  0  0
 13 24  1  1  0  0  0
 15 12  1  6  0  0  0
 15  5  1  0  0  0  0
 16  3  1  0  0  0  0
 17 28  1  0  0  0  0
 17 10  1  0  0  0  0
 19  6  1  6  0  0  0
 20 18  1  6  0  0  0
 20 11  1  0  0  0  0
 20 13  1  0  0  0  0
 21 23  2  0  0  0  0
 21 26  1  0  0  0  0
 22 10  1  0  0  0  0
 23  4  1  0  0  0  0
 24 22  1  0  0  0  0
 25 14  1  6  0  0  0
 25 17  1  0  0  0  0
 26  1  2  0  0  0  0
 27  2  1  0  0  0  0
 28 29  1  0  0  0  0
 31 32  1  0  0  0  0
 31 33  1  0  0  0  0
 32 29  1  6  0  0  0
 32 34  1  0  0  0  0
 33 30  1  0  0  0  0
 34 30  1  0  0  0  0
M  END
>  <MODEL>
9

>  <REMARK>
 VINA RESULT:      -7.5      1.983      8.399
  Name = 
  3 active torsions:
  status: ('A' for Active; 'I' for Inactive)
    1  A    between atoms: N_17  and  O_28
    2  A    between atoms: O_28  and  C_29
    3  A    between atoms: C_29  and  C_32
                            x       y       z     vdW  Elec       q    Type
                         _______ _______ _______ _____ _____    ______ ____

>  <TORSDO>
F 3

$$$$
