=
 OpenBabel11122410343D

 30 35  0  0  1  0  0  0  0  0999 V2000
  189.1410  177.2790  143.0900 C   0  0  0  0  0  0  0  0  0  0  0  0
  191.1520  176.6500  144.2910 C   0  0  0  0  0  0  0  0  0  0  0  0
  187.0730  177.7870  146.6060 N   0  0  0  0  0  0  0  0  0  0  0  0
  187.7950  177.7570  143.0730 C   0  0  0  0  0  0  0  0  0  0  0  0
  189.7360  176.8930  141.7590 C   0  0  0  0  0  2  0  0  0  0  0  0
  187.4000  178.3420  139.4900 O   0  0  0  0  0  0  0  0  0  0  0  0
  184.7640  178.0240  142.4300 C   0  0  1  0  0  3  0  0  0  0  0  0
  187.9460  178.1160  140.6050 C   0  0  0  0  0  0  0  0  0  0  0  0
  184.7390  178.3260  143.8480 N   0  0  0  0  0  0  0  0  0  0  0  0
  185.8580  178.1120  146.1050 C   0  0  0  0  0  0  0  0  0  0  0  0
  189.4290  177.9160  140.6810 C   0  0  2  0  0  3  0  0  0  0  0  0
  187.1660  178.1380  141.8150 N   0  0  0  0  0  0  0  0  0  0  0  0
  191.8290  176.4150  145.4900 C   0  0  0  0  0  3  0  0  0  0  0  0
  183.4510  178.8670  144.2450 C   0  0  0  0  0  2  0  0  0  0  0  0
  183.4220  178.4660  141.9550 C   0  0  0  0  0  3  0  0  0  0  0  0
  191.8730  176.4950  143.1520 F   0  0  0  0  0  0  0  0  0  0  0  0
  187.8650  177.6330  145.5270 C   0  0  0  0  0  0  0  0  0  0  0  0
  191.1780  176.5850  146.7030 C   0  0  0  0  0  3  0  0  0  0  0  0
  189.8280  177.0520  144.2840 N   0  0  0  0  0  0  0  0  0  0  0  0
  187.1590  177.8740  144.3110 C   0  0  0  0  0  0  0  0  0  0  0  0
  184.6690  178.3170  146.9780 C   0  0  0  0  0  1  0  0  0  0  0  0
  185.8690  178.1600  144.7100 C   0  0  0  0  0  0  0  0  0  0  0  0
  182.6910  178.9300  142.9660 C   0  0  0  0  0  3  0  0  0  0  0  0
  185.9630  180.1240  142.2020 O   0  0  0  0  0  1  0  0  0  0  0  0
  189.8550  176.9960  146.7130 C   0  0  0  0  0  3  0  0  0  0  0  0
  189.1910  177.2340  145.5040 C   0  0  0  0  0  0  0  0  0  0  0  0
  185.8670  178.8100  141.7310 C   0  0  2  0  0  3  0  0  0  0  0  0
  189.9300  177.4640  139.4580 O   0  0  0  0  0  0  0  0  0  0  0  0
  191.8650  176.4630  138.5080 C   0  0  0  0  0  1  0  0  0  0  0  0
  191.2720  177.1700  139.7080 C   0  0  0  0  0  2  0  0  0  0  0  0
  1 19  1  0  0  0  0
  2 13  2  0  0  0  0
  4  1  2  0  0  0  0
  4 20  1  0  0  0  0
  5  1  1  0  0  0  0
  6  8  2  0  0  0  0
  7 15  1  6  0  0  0
  7  9  1  0  0  0  0
  8 11  1  0  0  0  0
  8 12  1  0  0  0  0
  9 14  1  0  0  0  0
  9 22  1  0  0  0  0
 10  3  2  0  0  0  0
 10 21  1  0  0  0  0
 11 28  1  6  0  0  0
 11  5  1  0  0  0  0
 12  4  1  0  0  0  0
 13 18  1  0  0  0  0
 15 23  2  0  0  0  0
 16  2  1  0  0  0  0
 17  3  1  0  0  0  0
 18 25  2  0  0  0  0
 19  2  1  0  0  0  0
 19 26  1  0  0  0  0
 20 22  2  0  0  0  0
 20 17  1  0  0  0  0
 22 10  1  0  0  0  0
 23 14  1  0  0  0  0
 26 17  2  0  0  0  0
 26 25  1  0  0  0  0
 27 12  1  0  0  0  0
 27 24  1  1  0  0  0
 27  7  1  0  0  0  0
 28 30  1  0  0  0  0
 29 30  1  0  0  0  0
M  END
>  <MODEL>
1

>  <REMARK>
 VINA RESULT:     -11.0      0.000      0.000
  Name = 
  2 active torsions:
  status: ('A' for Active; 'I' for Inactive)
    1  A    between atoms: C_11  and  O_28
    2  A    between atoms: O_28  and  C_30
                            x       y       z     vdW  Elec       q    Type
                         _______ _______ _______ _____ _____    ______ ____

>  <TORSDO>
F 2

$$$$
=
 OpenBabel11122410343D

 30 35  0  0  1  0  0  0  0  0999 V2000
  186.0780  178.4670  142.1950 C   0  0  0  0  0  0  0  0  0  0  0  0
  183.6980  178.9350  142.1440 C   0  0  0  0  0  0  0  0  0  0  0  0
  185.9790  177.8640  146.2610 N   0  0  0  0  0  0  0  0  0  0  0  0
  187.2540  178.0540  142.8930 C   0  0  0  0  0  0  0  0  0  0  0  0
  186.2600  178.8970  140.7620 C   0  0  0  0  0  2  0  0  0  0  0  0
  189.5390  177.6850  140.0690 O   0  0  0  0  0  0  0  0  0  0  0  0
  190.1690  177.9640  143.9700 C   0  0  1  0  0  3  0  0  0  0  0  0
  188.4690  177.8230  140.7220 C   0  0  0  0  0  0  0  0  0  0  0  0
  189.4550  177.5860  145.1730 N   0  0  0  0  0  0  0  0  0  0  0  0
  187.2920  177.6240  146.4830 C   0  0  0  0  0  0  0  0  0  0  0  0
  187.1640  177.9500  139.9960 C   0  0  2  0  0  3  0  0  0  0  0  0
  188.4810  177.7720  142.1600 N   0  0  0  0  0  0  0  0  0  0  0  0
  182.4720  179.0720  142.7980 C   0  0  0  0  0  3  0  0  0  0  0  0
  190.3650  177.0850  146.1870 C   0  0  0  0  0  2  0  0  0  0  0  0
  191.5850  177.6120  144.2790 C   0  0  0  0  0  3  0  0  0  0  0  0
  183.6880  179.1180  140.8000 F   0  0  0  0  0  0  0  0  0  0  0  0
  185.8760  178.0400  144.9290 C   0  0  0  0  0  0  0  0  0  0  0  0
  182.3840  178.8670  144.1670 C   0  0  0  0  0  3  0  0  0  0  0  0
  184.8450  178.5960  142.8390 N   0  0  0  0  0  0  0  0  0  0  0  0
  187.1370  177.8990  144.2760 C   0  0  0  0  0  0  0  0  0  0  0  0
  187.8430  177.4280  147.8520 C   0  0  0  0  0  1  0  0  0  0  0  0
  188.0300  177.6520  145.2990 C   0  0  0  0  0  0  0  0  0  0  0  0
  191.6940  177.1270  145.5140 C   0  0  0  0  0  3  0  0  0  0  0  0
  189.4250  175.8260  143.0900 O   0  0  0  0  0  1  0  0  0  0  0  0
  183.5220  178.5180  144.8760 C   0  0  0  0  0  3  0  0  0  0  0  0
  184.7440  178.3780  144.2070 C   0  0  0  0  0  0  0  0  0  0  0  0
  189.6670  177.1660  142.7720 C   0  0  2  0  0  3  0  0  0  0  0  0
  187.3640  178.4440  138.7040 O   0  0  0  0  0  0  0  0  0  0  0  0
  186.4680  176.9730  137.0660 C   0  0  0  0  0  1  0  0  0  0  0  0
  186.1950  178.1230  138.0130 C   0  0  0  0  0  2  0  0  0  0  0  0
  1 19  1  0  0  0  0
  1  4  2  0  0  0  0
  2 13  2  0  0  0  0
  2 19  1  0  0  0  0
  3 10  2  0  0  0  0
  4 20  1  0  0  0  0
  5  1  1  0  0  0  0
  6  8  2  0  0  0  0
  7 15  1  1  0  0  0
  7  9  1  0  0  0  0
  8 12  1  0  0  0  0
  9 22  1  0  0  0  0
  9 14  1  0  0  0  0
 10 21  1  0  0  0  0
 11 28  1  6  0  0  0
 11  8  1  0  0  0  0
 11  5  1  0  0  0  0
 12 27  1  0  0  0  0
 12  4  1  0  0  0  0
 13 18  1  0  0  0  0
 15 23  2  0  0  0  0
 16  2  1  0  0  0  0
 17  3  1  0  0  0  0
 18 25  2  0  0  0  0
 19 26  1  0  0  0  0
 20 17  1  0  0  0  0
 20 22  2  0  0  0  0
 22 10  1  0  0  0  0
 23 14  1  0  0  0  0
 26 25  1  0  0  0  0
 26 17  2  0  0  0  0
 27 24  1  1  0  0  0
 27  7  1  0  0  0  0
 29 30  1  0  0  0  0
 30 28  1  0  0  0  0
M  END
>  <MODEL>
2

>  <REMARK>
 VINA RESULT:     -10.3      2.233      5.459
  Name = 
  2 active torsions:
  status: ('A' for Active; 'I' for Inactive)
    1  A    between atoms: C_11  and  O_28
    2  A    between atoms: O_28  and  C_30
                            x       y       z     vdW  Elec       q    Type
                         _______ _______ _______ _____ _____    ______ ____

>  <TORSDO>
F 2

$$$$
=
 OpenBabel11122410343D

 30 35  0  0  1  0  0  0  0  0999 V2000
  186.4010  178.1380  142.8540 C   0  0  0  0  0  0  0  0  0  0  0  0
  187.0760  178.0970  145.1850 C   0  0  0  0  0  0  0  0  0  0  0  0
  182.4910  178.8720  143.8910 N   0  0  0  0  0  0  0  0  0  0  0  0
  185.4160  178.3570  141.8440 C   0  0  0  0  0  0  0  0  0  0  0  0
  187.7450  177.6390  142.3880 C   0  0  0  0  0  2  0  0  0  0  0  0
  187.5440  178.2310  138.8790 O   0  0  0  0  0  0  0  0  0  0  0  0
  183.6180  177.9620  139.3380 C   0  0  1  0  0  3  0  0  0  0  0  0
  187.1930  178.3030  140.0890 C   0  0  0  0  0  0  0  0  0  0  0  0
  182.6350  178.4980  140.2600 N   0  0  0  0  0  0  0  0  0  0  0  0
  181.9320  178.8820  142.6580 C   0  0  0  0  0  0  0  0  0  0  0  0
  188.2350  178.3880  141.1620 C   0  0  2  0  0  3  0  0  0  0  0  0
  185.8000  178.3950  140.4390 N   0  0  0  0  0  0  0  0  0  0  0  0
  186.7650  178.1990  146.5420 C   0  0  0  0  0  3  0  0  0  0  0  0
  181.4110  178.8610  139.5680 C   0  0  0  0  0  2  0  0  0  0  0  0
  182.9460  178.0680  138.0110 C   0  0  0  0  0  3  0  0  0  0  0  0
  188.3790  177.8780  144.8790 F   0  0  0  0  0  0  0  0  0  0  0  0
  183.8070  178.6760  143.6750 C   0  0  0  0  0  0  0  0  0  0  0  0
  185.4620  178.4580  146.9420 C   0  0  0  0  0  3  0  0  0  0  0  0
  186.1010  178.2490  144.2140 N   0  0  0  0  0  0  0  0  0  0  0  0
  184.1080  178.5720  142.2850 C   0  0  0  0  0  0  0  0  0  0  0  0
  180.4630  179.0200  142.4540 C   0  0  0  0  0  1  0  0  0  0  0  0
  182.8840  178.6880  141.6560 C   0  0  0  0  0  0  0  0  0  0  0  0
  181.7170  178.5630  138.1400 C   0  0  0  0  0  3  0  0  0  0  0  0
  184.6250  180.1710  139.4360 O   0  0  0  0  0  1  0  0  0  0  0  0
  184.4760  178.6210  145.9820 C   0  0  0  0  0  3  0  0  0  0  0  0
  184.8030  178.5230  144.6250 C   0  0  0  0  0  0  0  0  0  0  0  0
  184.8910  178.8000  139.3630 C   0  0  2  0  0  3  0  0  0  0  0  0
  189.4380  177.8270  140.7280 O   0  0  0  0  0  0  0  0  0  0  0  0
  191.4170  177.4860  142.0000 C   0  0  0  0  0  1  0  0  0  0  0  0
  189.9470  177.1610  141.8450 C   0  0  0  0  0  2  0  0  0  0  0  0
  1 19  1  0  0  0  0
  2 13  2  0  0  0  0
  4 20  1  0  0  0  0
  4  1  2  0  0  0  0
  5  1  1  0  0  0  0
  6  8  2  0  0  0  0
  7 15  1  6  0  0  0
  7 27  1  0  0  0  0
  7  9  1  0  0  0  0
  8 12  1  0  0  0  0
  8 11  1  0  0  0  0
  9 22  1  0  0  0  0
 10  3  2  0  0  0  0
 11 28  1  6  0  0  0
 11  5  1  0  0  0  0
 12  4  1  0  0  0  0
 13 18  1  0  0  0  0
 14  9  1  0  0  0  0
 15 23  2  0  0  0  0
 16  2  1  0  0  0  0
 17  3  1  0  0  0  0
 17 26  2  0  0  0  0
 19 26  1  0  0  0  0
 19  2  1  0  0  0  0
 20 17  1  0  0  0  0
 21 10  1  0  0  0  0
 22 20  2  0  0  0  0
 22 10  1  0  0  0  0
 23 14  1  0  0  0  0
 25 18  2  0  0  0  0
 26 25  1  0  0  0  0
 27 24  1  1  0  0  0
 27 12  1  0  0  0  0
 28 30  1  0  0  0  0
 30 29  1  0  0  0  0
M  END
>  <MODEL>
3

>  <REMARK>
 VINA RESULT:     -10.0      2.204      4.006
  Name = 
  2 active torsions:
  status: ('A' for Active; 'I' for Inactive)
    1  A    between atoms: C_11  and  O_28
    2  A    between atoms: O_28  and  C_30
                            x       y       z     vdW  Elec       q    Type
                         _______ _______ _______ _____ _____    ______ ____

>  <TORSDO>
F 2

$$$$
=
 OpenBabel11122410343D

 30 35  0  0  1  0  0  0  0  0999 V2000
  187.4300  178.1600  140.7280 C   0  0  0  0  0  0  0  0  0  0  0  0
  185.2990  178.7210  139.7110 C   0  0  0  0  0  0  0  0  0  0  0  0
  185.7280  178.0220  144.4670 N   0  0  0  0  0  0  0  0  0  0  0  0
  188.2090  177.7780  141.8610 C   0  0  0  0  0  0  0  0  0  0  0  0
  188.1830  178.4190  139.4470 C   0  0  0  0  0  2  0  0  0  0  0  0
  191.3640  176.9980  140.1970 O   0  0  0  0  0  0  0  0  0  0  0  0
  190.4700  177.6860  143.9950 C   0  0  1  0  0  3  0  0  0  0  0  0
  190.1400  177.2550  140.3660 C   0  0  0  0  0  0  0  0  0  0  0  0
  189.3190  177.4760  144.8510 N   0  0  0  0  0  0  0  0  0  0  0  0
  186.8300  177.7530  145.2040 C   0  0  0  0  0  0  0  0  0  0  0  0
  189.2310  177.3540  139.1800 C   0  0  2  0  0  3  0  0  0  0  0  0
  189.5960  177.3640  141.6940 N   0  0  0  0  0  0  0  0  0  0  0  0
  183.9320  178.9830  139.8190 C   0  0  0  0  0  3  0  0  0  0  0  0
  189.7250  177.0530  146.1800 C   0  0  0  0  0  2  0  0  0  0  0  0
  191.6230  177.3100  144.8610 C   0  0  0  0  0  3  0  0  0  0  0  0
  185.8210  178.7520  138.4590 F   0  0  0  0  0  0  0  0  0  0  0  0
  186.1600  178.0520  143.1910 C   0  0  0  0  0  0  0  0  0  0  0  0
  183.3090  178.9360  141.0580 C   0  0  0  0  0  3  0  0  0  0  0  0
  186.0590  178.4130  140.8250 N   0  0  0  0  0  0  0  0  0  0  0  0
  187.5580  177.7850  143.0970 C   0  0  0  0  0  0  0  0  0  0  0  0
  186.7950  177.6880  146.6910 C   0  0  0  0  0  1  0  0  0  0  0  0
  187.9670  177.6160  144.4040 C   0  0  0  0  0  0  0  0  0  0  0  0
  191.2090  176.9630  146.0780 C   0  0  0  0  0  3  0  0  0  0  0  0
  189.9450  175.4970  143.0830 O   0  0  0  0  0  1  0  0  0  0  0  0
  184.0550  178.6200  142.1820 C   0  0  0  0  0  3  0  0  0  0  0  0
  185.4230  178.3540  142.0580 C   0  0  0  0  0  0  0  0  0  0  0  0
  190.4020  176.7810  142.7700 C   0  0  2  0  0  3  0  0  0  0  0  0
  189.9510  177.6920  138.0310 O   0  0  0  0  0  0  0  0  0  0  0  0
  188.8830  177.9200  135.9200 C   0  0  0  0  0  1  0  0  0  0  0  0
  189.0910  178.5110  137.2980 C   0  0  0  0  0  2  0  0  0  0  0  0
  1 19  1  0  0  0  0
  1  4  2  0  0  0  0
  2 13  2  0  0  0  0
  2 19  1  0  0  0  0
  3 10  2  0  0  0  0
  4 20  1  0  0  0  0
  5  1  1  0  0  0  0
  6  8  2  0  0  0  0
  7  9  1  0  0  0  0
  7 15  1  1  0  0  0
  8 12  1  0  0  0  0
  9 14  1  0  0  0  0
 10 21  1  0  0  0  0
 11 28  1  6  0  0  0
 11  5  1  0  0  0  0
 11  8  1  0  0  0  0
 12  4  1  0  0  0  0
 12 27  1  0  0  0  0
 13 18  1  0  0  0  0
 15 23  2  0  0  0  0
 16  2  1  0  0  0  0
 17  3  1  0  0  0  0
 18 25  2  0  0  0  0
 19 26  1  0  0  0  0
 20 17  1  0  0  0  0
 20 22  2  0  0  0  0
 22  9  1  0  0  0  0
 22 10  1  0  0  0  0
 23 14  1  0  0  0  0
 26 25  1  0  0  0  0
 26 17  2  0  0  0  0
 27 24  1  1  0  0  0
 27  7  1  0  0  0  0
 29 30  1  0  0  0  0
 30 28  1  0  0  0  0
M  END
>  <MODEL>
4

>  <REMARK>
 VINA RESULT:      -9.9      2.307      5.420
  Name = 
  2 active torsions:
  status: ('A' for Active; 'I' for Inactive)
    1  A    between atoms: C_11  and  O_28
    2  A    between atoms: O_28  and  C_30
                            x       y       z     vdW  Elec       q    Type
                         _______ _______ _______ _____ _____    ______ ____

>  <TORSDO>
F 2

$$$$
=
 OpenBabel11122410343D

 30 35  0  0  1  0  0  0  0  0999 V2000
  188.0520  177.4850  144.2990 C   0  0  0  0  0  0  0  0  0  0  0  0
  189.1270  177.3300  146.4690 C   0  0  0  0  0  0  0  0  0  0  0  0
  184.5600  178.8240  146.0070 N   0  0  0  0  0  0  0  0  0  0  0  0
  186.9450  177.8600  143.4780 C   0  0  0  0  0  0  0  0  0  0  0  0
  189.1940  176.7810  143.6100 C   0  0  0  0  0  2  0  0  0  0  0  0
  188.4500  177.4090  140.1820 O   0  0  0  0  0  0  0  0  0  0  0  0
  184.6810  177.7630  141.3500 C   0  0  1  0  0  3  0  0  0  0  0  0
  188.3410  177.5320  141.4330 C   0  0  0  0  0  0  0  0  0  0  0  0
  183.9780  178.4440  142.4200 N   0  0  0  0  0  0  0  0  0  0  0  0
  183.7950  178.9270  144.8960 C   0  0  0  0  0  0  0  0  0  0  0  0
  189.5620  177.4470  142.2970 C   0  0  2  0  0  3  0  0  0  0  0  0
  187.0680  177.8420  142.0270 N   0  0  0  0  0  0  0  0  0  0  0  0
  189.0890  177.4750  147.8570 C   0  0  0  0  0  3  0  0  0  0  0  0
  182.7200  178.9980  141.9520 C   0  0  0  0  0  2  0  0  0  0  0  0
  183.8030  177.9780  140.1640 C   0  0  0  0  0  3  0  0  0  0  0  0
  190.3020  176.9080  145.9390 F   0  0  0  0  0  0  0  0  0  0  0  0
  185.7680  178.4230  145.5620 C   0  0  0  0  0  0  0  0  0  0  0  0
  187.9380  177.9350  148.4790 C   0  0  0  0  0  3  0  0  0  0  0  0
  188.0270  177.6370  145.6870 N   0  0  0  0  0  0  0  0  0  0  0  0
  185.7900  178.2780  144.1430 C   0  0  0  0  0  0  0  0  0  0  0  0
  182.3530  179.2950  144.9570 C   0  0  0  0  0  1  0  0  0  0  0  0
  184.5060  178.5880  143.7430 C   0  0  0  0  0  0  0  0  0  0  0  0
  182.7100  178.6610  140.5010 C   0  0  0  0  0  3  0  0  0  0  0  0
  186.0200  179.7840  141.2080 O   0  0  0  0  0  1  0  0  0  0  0  0
  186.8310  178.2560  147.7100 C   0  0  0  0  0  3  0  0  0  0  0  0
  186.8840  178.1110  146.3190 C   0  0  0  0  0  0  0  0  0  0  0  0
  186.0520  178.3890  141.1220 C   0  0  2  0  0  3  0  0  0  0  0  0
  190.5630  176.7040  141.6670 O   0  0  0  0  0  0  0  0  0  0  0  0
  192.3670  177.5030  140.3410 C   0  0  0  0  0  1  0  0  0  0  0  0
  191.6910  177.5270  141.6950 C   0  0  0  0  0  2  0  0  0  0  0  0
  1 19  1  0  0  0  0
  2 13  2  0  0  0  0
  4 20  1  0  0  0  0
  4  1  2  0  0  0  0
  5  1  1  0  0  0  0
  6  8  2  0  0  0  0
  7 15  1  6  0  0  0
  7  9  1  0  0  0  0
  8 12  1  0  0  0  0
  8 11  1  0  0  0  0
  9 22  1  0  0  0  0
 10 21  1  0  0  0  0
 10  3  2  0  0  0  0
 11 28  1  6  0  0  0
 11  5  1  0  0  0  0
 12  4  1  0  0  0  0
 13 18  1  0  0  0  0
 14  9  1  0  0  0  0
 15 23  2  0  0  0  0
 16  2  1  0  0  0  0
 17  3  1  0  0  0  0
 17 26  2  0  0  0  0
 19 26  1  0  0  0  0
 19  2  1  0  0  0  0
 20 17  1  0  0  0  0
 22 20  2  0  0  0  0
 22 10  1  0  0  0  0
 23 14  1  0  0  0  0
 25 18  2  0  0  0  0
 26 25  1  0  0  0  0
 27 24  1  1  0  0  0
 27  7  1  0  0  0  0
 27 12  1  0  0  0  0
 28 30  1  0  0  0  0
 29 30  1  0  0  0  0
M  END
>  <MODEL>
5

>  <REMARK>
 VINA RESULT:      -9.7      1.513      2.294
  Name = 
  2 active torsions:
  status: ('A' for Active; 'I' for Inactive)
    1  A    between atoms: C_11  and  O_28
    2  A    between atoms: O_28  and  C_30
                            x       y       z     vdW  Elec       q    Type
                         _______ _______ _______ _____ _____    ______ ____

>  <TORSDO>
F 2

$$$$
=
 OpenBabel11122410343D

 30 35  0  0  1  0  0  0  0  0999 V2000
  189.8680  177.6410  143.2780 C   0  0  0  0  0  0  0  0  0  0  0  0
  191.4060  177.3920  141.4190 C   0  0  0  0  0  0  0  0  0  0  0  0
  186.7090  178.2520  140.7190 N   0  0  0  0  0  0  0  0  0  0  0  0
  188.5440  177.7950  143.7910 C   0  0  0  0  0  0  0  0  0  0  0  0
  190.9880  177.6660  144.2870 C   0  0  0  0  0  2  0  0  0  0  0  0
  189.1990  177.2660  147.3440 O   0  0  0  0  0  0  0  0  0  0  0  0
  186.1120  178.8390  145.4230 C   0  0  1  0  0  3  0  0  0  0  0  0
  189.3680  177.2870  146.0930 C   0  0  0  0  0  0  0  0  0  0  0  0
  185.4750  178.6470  144.1350 N   0  0  0  0  0  0  0  0  0  0  0  0
  185.7260  178.4630  141.6250 C   0  0  0  0  0  0  0  0  0  0  0  0
  190.6690  176.8260  145.5110 C   0  0  2  0  0  3  0  0  0  0  0  0
  188.2890  177.6640  145.2190 N   0  0  0  0  0  0  0  0  0  0  0  0
  191.6600  177.3680  140.0460 C   0  0  0  0  0  3  0  0  0  0  0  0
  184.0300  178.7380  144.2460 C   0  0  0  0  0  2  0  0  0  0  0  0
  184.9640  179.0010  146.3600 C   0  0  0  0  0  3  0  0  0  0  0  0
  192.4680  177.1630  142.2320 F   0  0  0  0  0  0  0  0  0  0  0  0
  187.8100  177.9950  141.4530 C   0  0  0  0  0  0  0  0  0  0  0  0
  190.6250  177.5560  139.1420 C   0  0  0  0  0  3  0  0  0  0  0  0
  190.1290  177.6050  141.9070 N   0  0  0  0  0  0  0  0  0  0  0  0
  187.5350  178.0260  142.8520 C   0  0  0  0  0  0  0  0  0  0  0  0
  184.3420  178.8380  141.2230 C   0  0  0  0  0  1  0  0  0  0  0  0
  186.1950  178.3470  142.9350 C   0  0  0  0  0  0  0  0  0  0  0  0
  183.8060  178.9500  145.7040 C   0  0  0  0  0  3  0  0  0  0  0  0
  186.3070  176.4190  145.4690 O   0  0  0  0  0  1  0  0  0  0  0  0
  189.3390  177.7610  139.6150 C   0  0  0  0  0  3  0  0  0  0  0  0
  189.0980  177.7770  140.9930 C   0  0  0  0  0  0  0  0  0  0  0  0
  186.9440  177.6190  145.8000 C   0  0  2  0  0  3  0  0  0  0  0  0
  191.7020  176.9560  146.4430 O   0  0  0  0  0  0  0  0  0  0  0  0
  192.7790  175.6270  148.0930 C   0  0  0  0  0  1  0  0  0  0  0  0
  192.0690  175.6460  146.7560 C   0  0  0  0  0  2  0  0  0  0  0  0
  1  4  2  0  0  0  0
  1  5  1  0  0  0  0
  2 19  1  0  0  0  0
  2 16  1  0  0  0  0
  3 17  1  0  0  0  0
  3 10  2  0  0  0  0
  4 12  1  0  0  0  0
  5 11  1  0  0  0  0
  7 27  1  0  0  0  0
  7 15  1  1  0  0  0
  8  6  2  0  0  0  0
  9 14  1  0  0  0  0
  9  7  1  0  0  0  0
 10 22  1  0  0  0  0
 11  8  1  0  0  0  0
 11 28  1  1  0  0  0
 12 27  1  0  0  0  0
 12  8  1  0  0  0  0
 13  2  2  0  0  0  0
 14 23  1  0  0  0  0
 17 20  1  0  0  0  0
 18 25  2  0  0  0  0
 18 13  1  0  0  0  0
 19  1  1  0  0  0  0
 20 22  2  0  0  0  0
 20  4  1  0  0  0  0
 21 10  1  0  0  0  0
 22  9  1  0  0  0  0
 23 15  2  0  0  0  0
 25 26  1  0  0  0  0
 26 17  2  0  0  0  0
 26 19  1  0  0  0  0
 27 24  1  6  0  0  0
 28 30  1  0  0  0  0
 30 29  1  0  0  0  0
M  END
>  <MODEL>
6

>  <REMARK>
 VINA RESULT:      -9.7      2.326      4.906
  Name = 
  2 active torsions:
  status: ('A' for Active; 'I' for Inactive)
    1  A    between atoms: C_11  and  O_28
    2  A    between atoms: O_28  and  C_30
                            x       y       z     vdW  Elec       q    Type
                         _______ _______ _______ _____ _____    ______ ____

>  <TORSDO>
F 2

$$$$
=
 OpenBabel11122410343D

 30 35  0  0  1  0  0  0  0  0999 V2000
  187.5710  177.8330  143.2300 C   0  0  0  0  0  0  0  0  0  0  0  0
  186.4580  178.1520  145.3620 C   0  0  0  0  0  0  0  0  0  0  0  0
  184.2590  179.1550  141.1840 N   0  0  0  0  0  0  0  0  0  0  0  0
  187.6060  177.9660  141.8090 C   0  0  0  0  0  0  0  0  0  0  0  0
  188.7340  177.1180  143.8700 C   0  0  0  0  0  2  0  0  0  0  0  0
  191.0930  177.0700  141.1990 O   0  0  0  0  0  0  0  0  0  0  0  0
  187.9570  177.3070  138.7900 C   0  0  1  0  0  3  0  0  0  0  0  0
  190.0390  177.4010  141.8090 C   0  0  0  0  0  0  0  0  0  0  0  0
  186.7480  178.1040  138.7250 N   0  0  0  0  0  0  0  0  0  0  0  0
  184.7030  178.9970  139.9160 C   0  0  0  0  0  0  0  0  0  0  0  0
  190.0640  177.5710  143.2970 C   0  0  2  0  0  3  0  0  0  0  0  0
  188.8380  177.7030  141.0770 N   0  0  0  0  0  0  0  0  0  0  0  0
  185.3380  178.5350  146.1040 C   0  0  0  0  0  3  0  0  0  0  0  0
  186.4280  178.4610  137.3550 C   0  0  0  0  0  2  0  0  0  0  0  0
  188.4050  177.2370  137.3700 C   0  0  0  0  0  3  0  0  0  0  0  0
  187.5400  177.7440  146.0720 F   0  0  0  0  0  0  0  0  0  0  0  0
  185.2940  178.7850  141.9650 C   0  0  0  0  0  0  0  0  0  0  0  0
  184.2010  179.0000  145.4600 C   0  0  0  0  0  3  0  0  0  0  0  0
  186.4590  178.2240  143.9810 N   0  0  0  0  0  0  0  0  0  0  0  0
  186.4280  178.3950  141.1930 C   0  0  0  0  0  0  0  0  0  0  0  0
  183.8340  179.2490  138.7330 C   0  0  0  0  0  1  0  0  0  0  0  0
  186.0150  178.5220  139.8820 C   0  0  0  0  0  0  0  0  0  0  0  0
  187.5510  177.8750  136.5710 C   0  0  0  0  0  3  0  0  0  0  0  0
  189.0530  179.3770  139.4360 O   0  0  0  0  0  1  0  0  0  0  0  0
  184.1900  179.0870  144.0770 C   0  0  0  0  0  3  0  0  0  0  0  0
  185.3210  178.7050  143.3470 C   0  0  0  0  0  0  0  0  0  0  0  0
  189.0100  177.9960  139.6510 C   0  0  2  0  0  3  0  0  0  0  0  0
  191.0930  176.8160  143.8650 O   0  0  0  0  0  0  0  0  0  0  0  0
  191.6810  176.3750  146.1260 C   0  0  0  0  0  1  0  0  0  0  0  0
  191.3560  177.4310  145.0900 C   0  0  0  0  0  2  0  0  0  0  0  0
  1  5  1  0  0  0  0
  1 19  1  0  0  0  0
  2 16  1  0  0  0  0
  2 13  2  0  0  0  0
  3 17  1  0  0  0  0
  4  1  2  0  0  0  0
  6  8  2  0  0  0  0
  7 15  1  6  0  0  0
  7 27  1  0  0  0  0
  8 11  1  0  0  0  0
  9  7  1  0  0  0  0
  9 22  1  0  0  0  0
 10  3  2  0  0  0  0
 11 28  1  1  0  0  0
 11  5  1  0  0  0  0
 12  8  1  0  0  0  0
 12  4  1  0  0  0  0
 14  9  1  0  0  0  0
 17 26  2  0  0  0  0
 18 13  1  0  0  0  0
 19  2  1  0  0  0  0
 20  4  1  0  0  0  0
 20 17  1  0  0  0  0
 21 10  1  0  0  0  0
 22 10  1  0  0  0  0
 22 20  2  0  0  0  0
 23 14  1  0  0  0  0
 23 15  2  0  0  0  0
 25 18  2  0  0  0  0
 26 19  1  0  0  0  0
 26 25  1  0  0  0  0
 27 24  1  1  0  0  0
 27 12  1  0  0  0  0
 28 30  1  0  0  0  0
 30 29  1  0  0  0  0
M  END
>  <MODEL>
7

>  <REMARK>
 VINA RESULT:      -9.7      2.312      5.321
  Name = 
  2 active torsions:
  status: ('A' for Active; 'I' for Inactive)
    1  A    between atoms: C_11  and  O_28
    2  A    between atoms: O_28  and  C_30
                            x       y       z     vdW  Elec       q    Type
                         _______ _______ _______ _____ _____    ______ ____

>  <TORSDO>
F 2

$$$$
=
 OpenBabel11122410343D

 30 35  0  0  1  0  0  0  0  0999 V2000
  187.1460  177.7350  144.4370 C   0  0  0  0  0  0  0  0  0  0  0  0
  184.9710  178.3140  145.3430 C   0  0  0  0  0  0  0  0  0  0  0  0
  185.9340  178.7080  140.6300 N   0  0  0  0  0  0  0  0  0  0  0  0
  188.0690  177.6770  143.3490 C   0  0  0  0  0  0  0  0  0  0  0  0
  187.6030  177.1340  145.7420 C   0  0  0  0  0  2  0  0  0  0  0  0
  191.1020  176.7760  145.1710 O   0  0  0  0  0  0  0  0  0  0  0  0
  190.1800  176.6290  141.3210 C   0  0  1  0  0  3  0  0  0  0  0  0
  189.9240  177.1650  144.9410 C   0  0  0  0  0  0  0  0  0  0  0  0
  189.3340  177.3870  140.4200 N   0  0  0  0  0  0  0  0  0  0  0  0
  187.0600  178.3910  139.9510 C   0  0  0  0  0  0  0  0  0  0  0  0
  189.0260  177.5330  146.0830 C   0  0  2  0  0  3  0  0  0  0  0  0
  189.4670  177.3430  143.5880 N   0  0  0  0  0  0  0  0  0  0  0  0
  183.6630  178.7710  145.1680 C   0  0  0  0  0  3  0  0  0  0  0  0
  189.9640  177.5510  139.1220 C   0  0  0  0  0  2  0  0  0  0  0  0
  191.4100  176.3790  140.5160 C   0  0  0  0  0  3  0  0  0  0  0  0
  185.3420  178.0250  146.6160 F   0  0  0  0  0  0  0  0  0  0  0  0
  186.2270  178.4650  141.9240 C   0  0  0  0  0  0  0  0  0  0  0  0
  183.2110  179.1230  143.9050 C   0  0  0  0  0  3  0  0  0  0  0  0
  185.8390  178.2010  144.2720 N   0  0  0  0  0  0  0  0  0  0  0  0
  187.5650  177.9980  142.0860 C   0  0  0  0  0  0  0  0  0  0  0  0
  187.1390  178.4660  138.4650 C   0  0  0  0  0  1  0  0  0  0  0  0
  188.0700  177.9410  140.8030 C   0  0  0  0  0  0  0  0  0  0  0  0
  191.2870  176.8880  139.2920 C   0  0  0  0  0  3  0  0  0  0  0  0
  190.7720  178.7870  142.2650 O   0  0  0  0  0  1  0  0  0  0  0  0
  184.0710  179.0240  142.8230 C   0  0  0  0  0  3  0  0  0  0  0  0
  185.3810  178.5710  143.0140 C   0  0  0  0  0  0  0  0  0  0  0  0
  190.5100  177.4460  142.5650 C   0  0  2  0  0  3  0  0  0  0  0  0
  189.4220  176.8800  147.2530 O   0  0  0  0  0  0  0  0  0  0  0  0
  188.3100  178.2530  148.8440 C   0  0  0  0  0  1  0  0  0  0  0  0
  188.3070  176.9390  148.0910 C   0  0  0  0  0  2  0  0  0  0  0  0
  1  5  1  0  0  0  0
  2 16  1  0  0  0  0
  3 17  1  0  0  0  0
  4 12  1  0  0  0  0
  4  1  2  0  0  0  0
  5 11  1  0  0  0  0
  7 15  1  6  0  0  0
  7 27  1  0  0  0  0
  8  6  2  0  0  0  0
  8 11  1  0  0  0  0
  9 22  1  0  0  0  0
  9  7  1  0  0  0  0
 10  3  2  0  0  0  0
 10 22  1  0  0  0  0
 11 28  1  1  0  0  0
 12  8  1  0  0  0  0
 13  2  2  0  0  0  0
 14 23  1  0  0  0  0
 14  9  1  0  0  0  0
 17 20  1  0  0  0  0
 17 26  2  0  0  0  0
 18 13  1  0  0  0  0
 19  1  1  0  0  0  0
 19  2  1  0  0  0  0
 20  4  1  0  0  0  0
 21 10  1  0  0  0  0
 22 20  2  0  0  0  0
 23 15  2  0  0  0  0
 25 26  1  0  0  0  0
 25 18  2  0  0  0  0
 26 19  1  0  0  0  0
 27 24  1  6  0  0  0
 27 12  1  0  0  0  0
 28 30  1  0  0  0  0
 30 29  1  0  0  0  0
M  END
>  <MODEL>
8

>  <REMARK>
 VINA RESULT:      -9.2      2.554      6.550
  Name = 
  2 active torsions:
  status: ('A' for Active; 'I' for Inactive)
    1  A    between atoms: C_11  and  O_28
    2  A    between atoms: O_28  and  C_30
                            x       y       z     vdW  Elec       q    Type
                         _______ _______ _______ _____ _____    ______ ____

>  <TORSDO>
F 2

$$$$
=
 OpenBabel11122410343D

 30 35  0  0  1  0  0  0  0  0999 V2000
  186.2050  178.5970  142.7980 C   0  0  0  0  0  0  0  0  0  0  0  0
  184.3910  178.8500  144.3890 C   0  0  0  0  0  0  0  0  0  0  0  0
  188.7170  177.1810  145.7290 N   0  0  0  0  0  0  0  0  0  0  0  0
  187.5240  178.1590  142.4680 C   0  0  0  0  0  0  0  0  0  0  0  0
  185.4450  179.3220  141.7160 C   0  0  0  0  0  2  0  0  0  0  0  0
  187.4150  178.5730  138.8420 O   0  0  0  0  0  0  0  0  0  0  0  0
  190.4320  178.1160  141.3690 C   0  0  1  0  0  3  0  0  0  0  0  0
  187.0320  178.4800  140.0410 C   0  0  0  0  0  0  0  0  0  0  0  0
  190.6410  177.4410  142.6340 N   0  0  0  0  0  0  0  0  0  0  0  0
  189.8440  177.0200  144.9970 C   0  0  0  0  0  0  0  0  0  0  0  0
  185.5780  178.6330  140.3700 C   0  0  2  0  0  3  0  0  0  0  0  0
  187.9670  178.1420  141.0800 N   0  0  0  0  0  0  0  0  0  0  0  0
  183.8890  178.7430  145.6870 C   0  0  0  0  0  3  0  0  0  0  0  0
  191.9570  176.8290  142.6910 C   0  0  0  0  0  2  0  0  0  0  0  0
  191.6860  177.8370  140.6130 C   0  0  0  0  0  3  0  0  0  0  0  0
  183.5270  179.2990  143.4440 F   0  0  0  0  0  0  0  0  0  0  0  0
  187.7900  177.6120  144.8500 C   0  0  0  0  0  0  0  0  0  0  0  0
  184.6930  178.2590  146.7080 C   0  0  0  0  0  3  0  0  0  0  0  0
  185.6910  178.4830  144.0920 N   0  0  0  0  0  0  0  0  0  0  0  0
  188.3180  177.7190  143.5300 C   0  0  0  0  0  0  0  0  0  0  0  0
  191.1350  176.6020  145.6100 C   0  0  0  0  0  1  0  0  0  0  0  0
  189.6430  177.3520  143.6560 C   0  0  0  0  0  0  0  0  0  0  0  0
  192.5360  177.1250  141.3500 C   0  0  0  0  0  3  0  0  0  0  0  0
  189.1610  176.1410  140.7480 O   0  0  0  0  0  1  0  0  0  0  0  0
  185.9950  177.8770  146.4250 C   0  0  0  0  0  3  0  0  0  0  0  0
  186.4840  177.9850  145.1180 C   0  0  0  0  0  0  0  0  0  0  0  0
  189.2260  177.5340  140.6410 C   0  0  2  0  0  3  0  0  0  0  0  0
  184.9270  179.3940  139.3960 O   0  0  0  0  0  0  0  0  0  0  0  0
  182.7440  180.0470  138.7180 C   0  0  0  0  0  1  0  0  0  0  0  0
  183.5730  179.0930  139.5520 C   0  0  0  0  0  2  0  0  0  0  0  0
  1 19  1  0  0  0  0
  2 13  2  0  0  0  0
  4  1  2  0  0  0  0
  4 20  1  0  0  0  0
  5  1  1  0  0  0  0
  6  8  2  0  0  0  0
  7 15  1  6  0  0  0
  7  9  1  0  0  0  0
  8 11  1  0  0  0  0
  8 12  1  0  0  0  0
  9 14  1  0  0  0  0
  9 22  1  0  0  0  0
 10 21  1  0  0  0  0
 10  3  2  0  0  0  0
 11 28  1  6  0  0  0
 11  5  1  0  0  0  0
 12  4  1  0  0  0  0
 13 18  1  0  0  0  0
 15 23  2  0  0  0  0
 16  2  1  0  0  0  0
 17 26  2  0  0  0  0
 17  3  1  0  0  0  0
 19  2  1  0  0  0  0
 19 26  1  0  0  0  0
 20 22  2  0  0  0  0
 20 17  1  0  0  0  0
 22 10  1  0  0  0  0
 23 14  1  0  0  0  0
 25 18  2  0  0  0  0
 26 25  1  0  0  0  0
 27 24  1  1  0  0  0
 27 12  1  0  0  0  0
 27  7  1  0  0  0  0
 28 30  1  0  0  0  0
 29 30  1  0  0  0  0
M  END
>  <MODEL>
9

>  <REMARK>
 VINA RESULT:      -8.5      2.168      5.710
  Name = 
  2 active torsions:
  status: ('A' for Active; 'I' for Inactive)
    1  A    between atoms: C_11  and  O_28
    2  A    between atoms: O_28  and  C_30
                            x       y       z     vdW  Elec       q    Type
                         _______ _______ _______ _____ _____    ______ ____

>  <TORSDO>
F 2

$$$$
