=
 OpenBabel11122410373D

 32 38  0  0  1  0  0  0  0  0999 V2000
  181.0700  179.3840  141.2720 C   0  0  2  0  0  3  0  0  0  0  0  0
  186.0760  178.0170  143.0150 C   0  0  1  0  0  3  0  0  0  0  0  0
  186.3160  179.1720  147.8950 C   0  0  0  0  0  2  0  0  0  0  0  0
  186.9260  177.7890  148.0790 C   0  0  0  0  0  2  0  0  0  0  0  0
  188.4090  177.6230  141.8860 C   0  0  2  0  0  3  0  0  0  0  0  0
  189.9410  177.7380  142.0730 C   0  0  2  0  0  3  0  0  0  0  0  0
  183.9110  178.4330  141.7840 C   0  0  1  0  0  3  0  0  0  0  0  0
  184.0670  178.4530  144.2330 O   0  0  0  0  0  0  0  0  0  0  0  0
  190.7180  175.9900  143.4510 C   0  0  1  0  0  3  0  0  0  0  0  0
  181.8820  178.9710  143.4240 C   0  0  0  0  0  2  0  0  0  0  0  0
  185.6740  179.3050  146.5410 C   0  0  0  0  0  3  0  0  0  0  0  0
  185.4200  178.8190  144.1460 C   0  0  1  0  0  3  0  0  0  0  0  0
  186.1050  178.6180  145.4690 C   0  0  0  0  0  0  0  0  0  0  0  0
  188.1240  177.4800  144.3540 C   0  0  2  0  0  3  0  0  0  0  0  0
  190.7950  175.5870  142.0480 N   0  0  0  0  0  2  0  0  0  0  0  0
  181.9260  178.8000  140.1740 C   0  0  0  0  0  2  0  0  0  0  0  0
  183.4050  179.0510  143.1440 C   0  0  2  0  0  3  0  0  0  0  0  0
  190.5880  176.7310  141.2450 N   0  0  0  0  0  2  0  0  0  0  0  0
  183.3810  179.1410  140.5180 C   0  0  0  0  0  2  0  0  0  0  0  0
  181.1540  178.2790  142.3000 C   0  0  1  0  0  3  0  0  0  0  0  0
  187.9130  177.5340  146.9480 C   0  0  0  0  0  2  0  0  0  0  0  0
  187.1950  177.5680  145.5900 C   0  0  1  0  0  3  0  0  0  0  0  0
  189.5560  177.9220  144.6080 C   0  0  0  0  0  2  0  0  0  0  0  0
  185.4380  178.5070  141.7190 C   0  0  0  0  0  2  0  0  0  0  0  0
  188.0790  178.3470  140.5910 C   0  0  0  0  0  1  0  0  0  0  0  0
  192.0300  175.6830  144.1450 C   0  0  0  0  0  1  0  0  0  0  0  0
  187.6110  178.1850  143.0860 C   0  0  2  0  0  3  0  0  0  0  0  0
  190.4630  177.4690  143.4670 C   0  0  2  0  0  3  0  0  0  0  0  0
  179.7980  178.7570  141.8340 C   0  0  2  0  0  3  0  0  0  0  0  0
  179.1880  177.7860  140.8740 C   0  0  0  0  0  0  0  0  0  0  0  0
  178.9380  178.1630  139.5600 O   0  0  0  0  0  0  0  0  0  0  0  0
  178.9360  176.6090  141.2430 O   0  0  0  0  0  1  0  0  0  0  0  0
  1 16  1  6  0  0  0
  1 29  1  0  0  0  0
  1 20  1  0  0  0  0
  2 24  1  6  0  0  0
  2 27  1  0  0  0  0
  2 12  1  0  0  0  0
  3  4  1  0  0  0  0
  5 25  1  6  0  0  0
  5  6  1  0  0  0  0
  5 27  1  0  0  0  0
  6 18  1  6  0  0  0
  6 28  1  0  0  0  0
  7 19  1  6  0  0  0
  7 17  1  0  0  0  0
  9 28  1  0  0  0  0
  9 26  1  1  0  0  0
 11  3  1  0  0  0  0
 12  8  1  1  0  0  0
 12 13  1  0  0  0  0
 13 22  1  0  0  0  0
 13 11  2  0  0  0  0
 14 23  1  1  0  0  0
 14 22  1  0  0  0  0
 15  9  1  0  0  0  0
 16 19  1  0  0  0  0
 17 10  1  1  0  0  0
 17  8  1  0  0  0  0
 18 15  1  0  0  0  0
 20 10  1  1  0  0  0
 21  4  1  0  0  0  0
 22 21  1  1  0  0  0
 24  7  1  0  0  0  0
 27 14  1  0  0  0  0
 28 23  1  0  0  0  0
 29 20  1  0  0  0  0
 30 32  1  0  0  0  0
 30 29  1  0  0  0  0
 31 30  2  0  0  0  0
M  END
>  <MODEL>
1

>  <REMARK>
 VINA RESULT:     -10.5      0.000      0.000
  Name = 
  1 active torsions:
  status: ('A' for Active; 'I' for Inactive)
    1  A    between atoms: C_29  and  C_30
                            x       y       z     vdW  Elec       q    Type
                         _______ _______ _______ _____ _____    ______ ____

>  <TORSDO>
F 1

$$$$
=
 OpenBabel11122410373D

 32 38  0  0  1  0  0  0  0  0999 V2000
  191.0260  176.6500  136.9340 C   0  0  2  0  0  3  0  0  0  0  0  0
  189.3350  177.1910  142.1120 C   0  0  1  0  0  3  0  0  0  0  0  0
  184.7730  179.2820  141.9730 C   0  0  0  0  0  2  0  0  0  0  0  0
  184.3700  178.2050  142.9720 C   0  0  0  0  0  2  0  0  0  0  0  0
  190.4970  177.2980  144.4600 C   0  0  2  0  0  3  0  0  0  0  0  0
  190.4180  177.8960  145.8850 C   0  0  2  0  0  3  0  0  0  0  0  0
  190.5020  176.7020  139.9270 C   0  0  1  0  0  3  0  0  0  0  0  0
  188.1110  177.2380  140.0600 O   0  0  0  0  0  0  0  0  0  0  0  0
  188.7860  176.7560  147.1470 C   0  0  1  0  0  3  0  0  0  0  0  0
  188.8810  176.9190  137.8240 C   0  0  0  0  0  2  0  0  0  0  0  0
  186.0910  178.9560  141.3270 C   0  0  0  0  0  3  0  0  0  0  0  0
  188.3370  177.9650  141.2400 C   0  0  1  0  0  3  0  0  0  0  0  0
  187.0390  178.2340  141.9490 C   0  0  0  0  0  0  0  0  0  0  0  0
  188.0330  177.5540  144.2220 C   0  0  2  0  0  3  0  0  0  0  0  0
  190.0920  176.1320  147.3480 N   0  0  0  0  0  2  0  0  0  0  0  0
  192.0420  176.1460  137.9310 C   0  0  0  0  0  2  0  0  0  0  0  0
  189.2550  177.3910  139.2540 C   0  0  2  0  0  3  0  0  0  0  0  0
  191.0800  176.9860  146.8080 N   0  0  0  0  0  2  0  0  0  0  0  0
  191.8460  176.9630  139.2130 C   0  0  0  0  0  2  0  0  0  0  0  0
  189.8170  175.8390  137.3430 C   0  0  1  0  0  3  0  0  0  0  0  0
  185.4860  178.0420  143.9940 C   0  0  0  0  0  2  0  0  0  0  0  0
  186.7860  177.6000  143.3040 C   0  0  1  0  0  3  0  0  0  0  0  0
  187.9430  178.4420  145.4520 C   0  0  0  0  0  2  0  0  0  0  0  0
  190.6620  177.2110  141.3610 C   0  0  0  0  0  2  0  0  0  0  0  0
  191.8840  177.6280  143.9310 C   0  0  0  0  0  1  0  0  0  0  0  0
  188.1190  176.9920  148.4880 C   0  0  0  0  0  1  0  0  0  0  0  0
  189.3790  177.8180  143.5250 C   0  0  2  0  0  3  0  0  0  0  0  0
  189.0290  178.0670  146.4590 C   0  0  2  0  0  3  0  0  0  0  0  0
  190.2890  175.7940  135.9080 C   0  0  2  0  0  3  0  0  0  0  0  0
  191.0190  174.5200  135.6230 C   0  0  0  0  0  0  0  0  0  0  0  0
  190.6980  173.3580  136.3130 O   0  0  0  0  0  1  0  0  0  0  0  0
  191.9000  174.4870  134.7250 O   0  0  0  0  0  0  0  0  0  0  0  0
  1 20  1  0  0  0  0
  1 16  1  1  0  0  0
  2 24  1  6  0  0  0
  2 27  1  0  0  0  0
  3  4  1  0  0  0  0
  4 21  1  0  0  0  0
  5 25  1  6  0  0  0
  5  6  1  0  0  0  0
  6 28  1  0  0  0  0
  6 18  1  1  0  0  0
  7 19  1  6  0  0  0
  7 24  1  0  0  0  0
  9 15  1  0  0  0  0
  9 26  1  1  0  0  0
 11 13  2  0  0  0  0
 11  3  1  0  0  0  0
 12  8  1  6  0  0  0
 12 13  1  0  0  0  0
 12  2  1  0  0  0  0
 13 22  1  0  0  0  0
 14 23  1  1  0  0  0
 16 19  1  0  0  0  0
 17 10  1  6  0  0  0
 17  7  1  0  0  0  0
 17  8  1  0  0  0  0
 18 15  1  0  0  0  0
 20 10  1  6  0  0  0
 22 21  1  1  0  0  0
 22 14  1  0  0  0  0
 23 28  1  0  0  0  0
 27 14  1  0  0  0  0
 27  5  1  0  0  0  0
 28  9  1  0  0  0  0
 29  1  1  0  0  0  0
 29 20  1  0  0  0  0
 30 29  1  0  0  0  0
 30 31  1  0  0  0  0
 32 30  2  0  0  0  0
M  END
>  <MODEL>
2

>  <REMARK>
 VINA RESULT:     -10.2      4.311      7.372
  Name = 
  1 active torsions:
  status: ('A' for Active; 'I' for Inactive)
    1  A    between atoms: C_29  and  C_30
                            x       y       z     vdW  Elec       q    Type
                         _______ _______ _______ _____ _____    ______ ____

>  <TORSDO>
F 1

$$$$
=
 OpenBabel11122410373D

 32 38  0  0  1  0  0  0  0  0999 V2000
  182.8750  178.7010  138.6700 C   0  0  2  0  0  3  0  0  0  0  0  0
  186.8200  177.8320  142.3650 C   0  0  1  0  0  3  0  0  0  0  0  0
  184.9310  179.0260  146.8610 C   0  0  0  0  0  2  0  0  0  0  0  0
  185.5300  177.7080  147.3390 C   0  0  0  0  0  2  0  0  0  0  0  0
  189.4360  177.6620  142.3070 C   0  0  2  0  0  3  0  0  0  0  0  0
  190.7390  177.9250  143.0990 C   0  0  2  0  0  3  0  0  0  0  0  0
  185.3250  178.0320  140.3400 C   0  0  1  0  0  3  0  0  0  0  0  0
  184.4580  178.0770  142.6360 O   0  0  0  0  0  0  0  0  0  0  0  0
  191.0290  176.2670  144.7480 C   0  0  1  0  0  3  0  0  0  0  0  0
  182.7630  178.3770  140.9830 C   0  0  0  0  0  2  0  0  0  0  0  0
  184.8940  179.0900  145.3590 C   0  0  0  0  0  3  0  0  0  0  0  0
  185.6900  178.5720  143.0930 C   0  0  1  0  0  3  0  0  0  0  0  0
  185.7860  178.4430  144.5880 C   0  0  0  0  0  0  0  0  0  0  0  0
  188.1750  177.5020  144.4470 C   0  0  2  0  0  3  0  0  0  0  0  0
  191.7100  175.8670  143.5180 N   0  0  0  0  0  2  0  0  0  0  0  0
  184.1540  178.1980  138.0450 C   0  0  0  0  0  2  0  0  0  0  0  0
  184.2540  178.6030  141.3460 C   0  0  2  0  0  3  0  0  0  0  0  0
  191.7530  176.9820  142.6520 N   0  0  0  0  0  2  0  0  0  0  0  0
  185.3030  178.6800  138.9380 C   0  0  0  0  0  2  0  0  0  0  0  0
  182.6240  177.6140  139.6900 C   0  0  1  0  0  3  0  0  0  0  0  0
  186.9120  177.5460  146.7230 C   0  0  0  0  0  2  0  0  0  0  0  0
  186.8160  177.5050  145.1900 C   0  0  1  0  0  3  0  0  0  0  0  0
  189.3310  178.0820  145.2440 C   0  0  0  0  0  2  0  0  0  0  0  0
  186.7310  178.2530  140.9020 C   0  0  0  0  0  2  0  0  0  0  0  0
  189.6050  178.3450  140.9600 C   0  0  0  0  0  1  0  0  0  0  0  0
  191.9610  176.0910  145.9310 C   0  0  0  0  0  1  0  0  0  0  0  0
  188.1690  178.1490  143.0510 C   0  0  2  0  0  3  0  0  0  0  0  0
  190.6630  177.7140  144.5940 C   0  0  2  0  0  3  0  0  0  0  0  0
  181.5440  177.9550  138.6900 C   0  0  2  0  0  3  0  0  0  0  0  0
  181.4690  176.9260  137.6080 C   0  0  0  0  0  0  0  0  0  0  0  0
  181.7530  175.5950  137.8850 O   0  0  0  0  0  1  0  0  0  0  0  0
  181.1080  177.2580  136.4490 O   0  0  0  0  0  0  0  0  0  0  0  0
  1 16  1  6  0  0  0
  1 29  1  0  0  0  0
  1 20  1  0  0  0  0
  2 24  1  6  0  0  0
  2 27  1  0  0  0  0
  2 12  1  0  0  0  0
  3  4  1  0  0  0  0
  5 25  1  6  0  0  0
  5 27  1  0  0  0  0
  5  6  1  0  0  0  0
  6 18  1  6  0  0  0
  6 28  1  0  0  0  0
  7 19  1  6  0  0  0
  7 24  1  0  0  0  0
  7 17  1  0  0  0  0
  9 26  1  1  0  0  0
 11  3  1  0  0  0  0
 12  8  1  6  0  0  0
 12 13  1  0  0  0  0
 13 22  1  0  0  0  0
 13 11  2  0  0  0  0
 14 22  1  0  0  0  0
 14 23  1  1  0  0  0
 15  9  1  0  0  0  0
 16 19  1  0  0  0  0
 17 10  1  6  0  0  0
 17  8  1  0  0  0  0
 18 15  1  0  0  0  0
 20 10  1  1  0  0  0
 21  4  1  0  0  0  0
 22 21  1  1  0  0  0
 27 14  1  0  0  0  0
 28  9  1  0  0  0  0
 28 23  1  0  0  0  0
 29 20  1  0  0  0  0
 30 31  1  0  0  0  0
 30 29  1  0  0  0  0
 32 30  2  0  0  0  0
M  END
>  <MODEL>
3

>  <REMARK>
 VINA RESULT:      -9.3      1.820      2.263
  Name = 
  1 active torsions:
  status: ('A' for Active; 'I' for Inactive)
    1  A    between atoms: C_29  and  C_30
                            x       y       z     vdW  Elec       q    Type
                         _______ _______ _______ _____ _____    ______ ____

>  <TORSDO>
F 1

$$$$
=
 OpenBabel11122410373D

 32 38  0  0  1  0  0  0  0  0999 V2000
  190.8560  177.6550  145.2790 C   0  0  2  0  0  3  0  0  0  0  0  0
  186.8970  177.9180  141.5080 C   0  0  1  0  0  3  0  0  0  0  0  0
  189.0780  179.1110  137.1470 C   0  0  0  0  0  2  0  0  0  0  0  0
  188.2420  177.9860  136.5480 C   0  0  0  0  0  2  0  0  0  0  0  0
  184.2980  178.2650  141.5430 C   0  0  2  0  0  3  0  0  0  0  0  0
  183.0890  178.8500  140.7750 C   0  0  2  0  0  3  0  0  0  0  0  0
  188.3580  177.6360  143.5480 C   0  0  1  0  0  3  0  0  0  0  0  0
  189.2660  177.7130  141.2690 O   0  0  0  0  0  0  0  0  0  0  0  0
  182.5130  177.4360  138.9790 C   0  0  1  0  0  3  0  0  0  0  0  0
  190.9510  177.5230  142.9470 C   0  0  0  0  0  2  0  0  0  0  0  0
  189.0950  179.0320  138.6490 C   0  0  0  0  0  3  0  0  0  0  0  0
  188.1650  178.4810  140.8550 C   0  0  1  0  0  3  0  0  0  0  0  0
  188.0780  178.5080  139.3540 C   0  0  0  0  0  0  0  0  0  0  0  0
  185.5480  178.0500  139.4010 C   0  0  2  0  0  3  0  0  0  0  0  0
  181.7400  177.0710  140.1650 N   0  0  0  0  0  2  0  0  0  0  0  0
  189.4900  177.3610  145.8520 C   0  0  0  0  0  2  0  0  0  0  0  0
  189.5420  178.0710  142.6020 C   0  0  2  0  0  3  0  0  0  0  0  0
  181.9000  178.0910  141.1300 N   0  0  0  0  0  2  0  0  0  0  0  0
  188.4780  178.1390  145.0030 C   0  0  0  0  0  2  0  0  0  0  0  0
  190.9100  176.6350  144.1650 C   0  0  1  0  0  3  0  0  0  0  0  0
  186.8420  178.0470  137.1430 C   0  0  0  0  0  2  0  0  0  0  0  0
  186.8960  177.8510  138.6660 C   0  0  1  0  0  3  0  0  0  0  0  0
  184.5450  178.9160  138.6570 C   0  0  0  0  0  2  0  0  0  0  0  0
  187.0360  178.1800  143.0040 C   0  0  0  0  0  2  0  0  0  0  0  0
  184.2380  178.8450  142.9470 C   0  0  0  0  0  1  0  0  0  0  0  0
  181.5900  177.5550  137.7830 C   0  0  0  0  0  1  0  0  0  0  0  0
  185.6510  178.5550  140.8510 C   0  0  2  0  0  3  0  0  0  0  0  0
  183.1530  178.7630  139.2660 C   0  0  2  0  0  3  0  0  0  0  0  0
  192.0150  176.6650  145.1950 C   0  0  2  0  0  3  0  0  0  0  0  0
  191.8630  175.5490  146.1780 C   0  0  0  0  0  0  0  0  0  0  0  0
  191.5490  175.8210  147.5040 O   0  0  0  0  0  1  0  0  0  0  0  0
  191.9780  174.3550  145.7980 O   0  0  0  0  0  0  0  0  0  0  0  0
  1 16  1  1  0  0  0
  2 24  1  1  0  0  0
  3 11  1  0  0  0  0
  4 21  1  0  0  0  0
  4  3  1  0  0  0  0
  5 25  1  1  0  0  0
  6 18  1  1  0  0  0
  6  5  1  0  0  0  0
  7 24  1  6  0  0  0
  7 19  1  0  0  0  0
  8 17  1  0  0  0  0
  9 26  1  6  0  0  0
  9 28  1  0  0  0  0
  9 15  1  0  0  0  0
 11 13  2  0  0  0  0
 12 13  1  6  0  0  0
 12  8  1  0  0  0  0
 12  2  1  0  0  0  0
 14 23  1  6  0  0  0
 14 27  1  0  0  0  0
 15 18  1  0  0  0  0
 17 10  1  1  0  0  0
 17  7  1  0  0  0  0
 19 16  1  0  0  0  0
 20 10  1  6  0  0  0
 20 29  1  0  0  0  0
 20  1  1  0  0  0  0
 22 21  1  6  0  0  0
 22 13  1  0  0  0  0
 22 14  1  0  0  0  0
 23 28  1  0  0  0  0
 27  2  1  0  0  0  0
 27  5  1  0  0  0  0
 28  6  1  0  0  0  0
 29  1  1  0  0  0  0
 29 30  1  0  0  0  0
 30 31  1  0  0  0  0
 32 30  2  0  0  0  0
M  END
>  <MODEL>
4

>  <REMARK>
 VINA RESULT:      -8.3      4.057      8.901
  Name = 
  1 active torsions:
  status: ('A' for Active; 'I' for Inactive)
    1  A    between atoms: C_29  and  C_30
                            x       y       z     vdW  Elec       q    Type
                         _______ _______ _______ _____ _____    ______ ____

>  <TORSDO>
F 1

$$$$
=
 OpenBabel11122410373D

 32 38  0  0  1  0  0  0  0  0999 V2000
  194.7080  174.7870  135.7430 C   0  0  2  0  0  3  0  0  0  0  0  0
  190.6850  176.5560  139.0070 C   0  0  1  0  0  3  0  0  0  0  0  0
  187.1860  178.6280  136.0630 C   0  0  0  0  0  2  0  0  0  0  0  0
  186.1820  177.8210  136.8770 C   0  0  0  0  0  2  0  0  0  0  0  0
  190.4740  177.1920  141.5420 C   0  0  2  0  0  3  0  0  0  0  0  0
  189.7550  178.1080  142.5610 C   0  0  2  0  0  3  0  0  0  0  0  0
  192.7300  175.5490  137.9220 C   0  0  1  0  0  3  0  0  0  0  0  0
  190.7130  176.1390  136.6540 O   0  0  0  0  0  0  0  0  0  0  0  0
  187.5670  177.3230  142.9480 C   0  0  1  0  0  3  0  0  0  0  0  0
  192.4720  175.2920  135.2830 C   0  0  0  0  0  2  0  0  0  0  0  0
  188.5890  178.1380  136.2950 C   0  0  0  0  0  3  0  0  0  0  0  0
  190.3970  177.1190  137.6100 C   0  0  1  0  0  3  0  0  0  0  0  0
  188.9710  177.5680  137.4510 C   0  0  0  0  0  0  0  0  0  0  0  0
  188.5470  177.4240  139.9840 C   0  0  2  0  0  3  0  0  0  0  0  0
  188.4830  176.7420  143.9290 N   0  0  0  0  0  2  0  0  0  0  0  0
  194.9840  174.5160  137.2020 C   0  0  0  0  0  2  0  0  0  0  0  0
  192.1170  176.0810  136.5700 C   0  0  2  0  0  3  0  0  0  0  0  0
  189.7140  177.4300  143.8480 N   0  0  0  0  0  2  0  0  0  0  0  0
  194.2710  175.6140  138.0000 C   0  0  0  0  0  2  0  0  0  0  0  0
  193.3630  174.1150  135.5900 C   0  0  1  0  0  3  0  0  0  0  0  0
  186.5780  177.8860  138.3460 C   0  0  0  0  0  2  0  0  0  0  0  0
  187.9710  177.2730  138.5540 C   0  0  1  0  0  3  0  0  0  0  0  0
  187.9600  178.5770  140.7820 C   0  0  0  0  0  2  0  0  0  0  0  0
  192.1970  176.3770  139.0920 C   0  0  0  0  0  2  0  0  0  0  0  0
  191.9650  177.3660  141.7830 C   0  0  0  0  0  1  0  0  0  0  0  0
  186.3450  177.8770  143.6540 C   0  0  0  0  0  1  0  0  0  0  0  0
  190.0820  177.4950  140.0770 C   0  0  2  0  0  3  0  0  0  0  0  0
  188.3090  178.4320  142.2610 C   0  0  2  0  0  3  0  0  0  0  0  0
  194.4940  173.7260  134.6670 C   0  0  2  0  0  3  0  0  0  0  0  0
  195.0830  172.4100  135.0630 C   0  0  0  0  0  0  0  0  0  0  0  0
  194.2830  171.4290  135.6370 O   0  0  0  0  0  1  0  0  0  0  0  0
  196.2980  172.1710  134.8390 O   0  0  0  0  0  0  0  0  0  0  0  0
  1 16  1  1  0  0  0
  2 24  1  1  0  0  0
  2 27  1  0  0  0  0
  3 11  1  0  0  0  0
  3  4  1  0  0  0  0
  4 21  1  0  0  0  0
  5 25  1  6  0  0  0
  5  6  1  0  0  0  0
  6 18  1  1  0  0  0
  7 19  1  6  0  0  0
  7 24  1  0  0  0  0
  9 26  1  1  0  0  0
  9 15  1  0  0  0  0
 11 13  2  0  0  0  0
 12  8  1  6  0  0  0
 12  2  1  0  0  0  0
 13 12  1  0  0  0  0
 13 22  1  0  0  0  0
 14 27  1  0  0  0  0
 14 23  1  6  0  0  0
 16 19  1  0  0  0  0
 17 10  1  6  0  0  0
 17  8  1  0  0  0  0
 17  7  1  0  0  0  0
 18 15  1  0  0  0  0
 20 10  1  6  0  0  0
 20  1  1  0  0  0  0
 22 21  1  1  0  0  0
 22 14  1  0  0  0  0
 23 28  1  0  0  0  0
 27  5  1  0  0  0  0
 28  6  1  0  0  0  0
 28  9  1  0  0  0  0
 29 30  1  0  0  0  0
 29 20  1  0  0  0  0
 29  1  1  0  0  0  0
 30 31  1  0  0  0  0
 32 30  2  0  0  0  0
M  END
>  <MODEL>
5

>  <REMARK>
 VINA RESULT:      -8.0      6.429     10.423
  Name = 
  1 active torsions:
  status: ('A' for Active; 'I' for Inactive)
    1  A    between atoms: C_29  and  C_30
                            x       y       z     vdW  Elec       q    Type
                         _______ _______ _______ _____ _____    ______ ____

>  <TORSDO>
F 1

$$$$
=
 OpenBabel11122410373D

 32 38  0  0  1  0  0  0  0  0999 V2000
  182.8530  179.4750  140.3820 C   0  0  2  0  0  3  0  0  0  0  0  0
  187.9170  177.5480  139.6000 C   0  0  1  0  0  3  0  0  0  0  0  0
  190.4760  178.3330  143.8460 C   0  0  0  0  0  2  0  0  0  0  0  0
  190.9450  176.8900  143.7000 C   0  0  0  0  0  2  0  0  0  0  0  0
  189.4210  177.0290  137.5160 C   0  0  2  0  0  3  0  0  0  0  0  0
  190.8720  176.9930  136.9810 C   0  0  2  0  0  3  0  0  0  0  0  0
  185.4900  178.2410  139.5100 C   0  0  1  0  0  3  0  0  0  0  0  0
  186.7440  178.0750  141.6140 O   0  0  0  0  0  0  0  0  0  0  0  0
  191.9900  175.0910  137.8090 C   0  0  1  0  0  3  0  0  0  0  0  0
  184.5030  178.8410  141.9110 C   0  0  0  0  0  2  0  0  0  0  0  0
  189.3080  178.6170  142.9420 C   0  0  0  0  0  3  0  0  0  0  0  0
  187.9410  178.3250  140.9230 C   0  0  1  0  0  3  0  0  0  0  0  0
  189.1260  177.9700  141.7780 C   0  0  0  0  0  0  0  0  0  0  0  0
  190.2760  176.7380  139.8350 C   0  0  2  0  0  3  0  0  0  0  0  0
  191.3750  174.7820  136.5190 N   0  0  0  0  0  2  0  0  0  0  0  0
  183.0450  178.8960  139.0010 C   0  0  0  0  0  2  0  0  0  0  0  0
  185.7300  178.8050  140.9630 C   0  0  2  0  0  3  0  0  0  0  0  0
  190.9550  175.9930  135.9260 N   0  0  0  0  0  2  0  0  0  0  0  0
  184.5250  179.0810  138.6460 C   0  0  0  0  0  2  0  0  0  0  0  0
  183.2710  178.2980  141.2330 C   0  0  1  0  0  3  0  0  0  0  0  0
  191.2750  176.6290  142.2360 C   0  0  0  0  0  2  0  0  0  0  0  0
  190.0270  176.8230  141.3610 C   0  0  1  0  0  3  0  0  0  0  0  0
  191.7050  177.0320  139.4120 C   0  0  0  0  0  2  0  0  0  0  0  0
  186.8180  178.1830  138.7530 C   0  0  0  0  0  2  0  0  0  0  0  0
  188.6200  177.8690  136.5340 C   0  0  0  0  0  1  0  0  0  0  0  0
  193.4310  174.6200  137.8150 C   0  0  0  0  0  1  0  0  0  0  0  0
  189.3240  177.5740  138.9610 C   0  0  2  0  0  3  0  0  0  0  0  0
  191.9380  176.5820  137.9720 C   0  0  2  0  0  3  0  0  0  0  0  0
  181.9150  178.9250  141.4530 C   0  0  2  0  0  3  0  0  0  0  0  0
  180.8310  178.0830  140.8600 C   0  0  0  0  0  0  0  0  0  0  0  0
  181.0400  176.7280  140.6340 O   0  0  0  0  0  1  0  0  0  0  0  0
  179.7090  178.5910  140.6010 O   0  0  0  0  0  0  0  0  0  0  0  0
  1 16  1  6  0  0  0
  1 20  1  0  0  0  0
  1 29  1  0  0  0  0
  2 24  1  6  0  0  0
  2 12  1  0  0  0  0
  4  3  1  0  0  0  0
  5 25  1  6  0  0  0
  5 27  1  0  0  0  0
  6 18  1  6  0  0  0
  6  5  1  0  0  0  0
  6 28  1  0  0  0  0
  7 19  1  6  0  0  0
  7 17  1  0  0  0  0
  9 26  1  6  0  0  0
  9 28  1  0  0  0  0
 11  3  1  0  0  0  0
 12  8  1  1  0  0  0
 12 13  1  0  0  0  0
 13 11  2  0  0  0  0
 14 23  1  1  0  0  0
 14 22  1  0  0  0  0
 15  9  1  0  0  0  0
 17  8  1  0  0  0  0
 17 10  1  1  0  0  0
 18 15  1  0  0  0  0
 19 16  1  0  0  0  0
 20 29  1  0  0  0  0
 20 10  1  1  0  0  0
 21  4  1  0  0  0  0
 22 13  1  0  0  0  0
 22 21  1  1  0  0  0
 24  7  1  0  0  0  0
 27  2  1  0  0  0  0
 27 14  1  0  0  0  0
 28 23  1  0  0  0  0
 30 29  1  0  0  0  0
 31 30  1  0  0  0  0
 32 30  2  0  0  0  0
M  END
>  <MODEL>
6

>  <REMARK>
 VINA RESULT:      -7.9      2.928      4.390
  Name = 
  1 active torsions:
  status: ('A' for Active; 'I' for Inactive)
    1  A    between atoms: C_29  and  C_30
                            x       y       z     vdW  Elec       q    Type
                         _______ _______ _______ _____ _____    ______ ____

>  <TORSDO>
F 1

$$$$
=
 OpenBabel11122410373D

 32 38  0  0  1  0  0  0  0  0999 V2000
  190.6790  177.5630  144.1690 C   0  0  2  0  0  3  0  0  0  0  0  0
  185.4870  177.9750  142.4840 C   0  0  1  0  0  3  0  0  0  0  0  0
  185.5920  178.7440  137.5240 C   0  0  0  0  0  2  0  0  0  0  0  0
  184.5170  177.6670  137.4460 C   0  0  0  0  0  2  0  0  0  0  0  0
  183.1910  178.5490  143.6140 C   0  0  2  0  0  3  0  0  0  0  0  0
  181.8030  179.1970  143.4000 C   0  0  2  0  0  3  0  0  0  0  0  0
  187.6780  177.6730  143.7030 C   0  0  1  0  0  3  0  0  0  0  0  0
  187.4940  177.5520  141.2580 O   0  0  0  0  0  0  0  0  0  0  0  0
  180.4190  177.7470  142.1610 C   0  0  1  0  0  3  0  0  0  0  0  0
  189.7320  177.3030  142.0470 C   0  0  0  0  0  2  0  0  0  0  0  0
  186.2630  178.7420  138.8700 C   0  0  0  0  0  3  0  0  0  0  0  0
  186.3680  178.3910  141.2990 C   0  0  1  0  0  3  0  0  0  0  0  0
  185.6320  178.3470  139.9890 C   0  0  0  0  0  0  0  0  0  0  0  0
  183.3590  178.1140  141.1690 C   0  0  2  0  0  3  0  0  0  0  0  0
  180.2270  177.5140  143.5910 N   0  0  0  0  0  2  0  0  0  0  0  0
  189.6900  177.4210  145.3010 C   0  0  0  0  0  2  0  0  0  0  0  0
  188.3470  177.9530  142.3030 C   0  0  2  0  0  3  0  0  0  0  0  0
  180.8500  178.5640  144.3000 N   0  0  0  0  0  2  0  0  0  0  0  0
  188.4520  178.2390  144.9130 C   0  0  0  0  0  2  0  0  0  0  0  0
  190.1800  176.4860  143.2330 C   0  0  1  0  0  3  0  0  0  0  0  0
  183.5260  177.8810  138.5820 C   0  0  0  0  0  2  0  0  0  0  0  0
  184.2330  177.7600  139.9410 C   0  0  1  0  0  3  0  0  0  0  0  0
  182.1810  179.0250  140.8630 C   0  0  0  0  0  2  0  0  0  0  0  0
  186.2830  178.3020  143.7430 C   0  0  0  0  0  2  0  0  0  0  0  0
  183.7870  179.2050  144.8500 C   0  0  0  0  0  1  0  0  0  0  0  0
  179.0720  177.8840  141.4790 C   0  0  0  0  0  1  0  0  0  0  0  0
  184.1160  178.6840  142.3810 C   0  0  2  0  0  3  0  0  0  0  0  0
  181.1920  179.0260  142.0270 C   0  0  2  0  0  3  0  0  0  0  0  0
  191.6250  176.4730  143.6740 C   0  0  2  0  0  3  0  0  0  0  0  0
  191.8590  175.4280  144.7170 C   0  0  0  0  0  0  0  0  0  0  0  0
  192.0190  175.7900  146.0490 O   0  0  0  0  0  1  0  0  0  0  0  0
  191.8700  174.2110  144.3970 O   0  0  0  0  0  0  0  0  0  0  0  0
  1 16  1  1  0  0  0
  2 24  1  1  0  0  0
  3 11  1  0  0  0  0
  4  3  1  0  0  0  0
  4 21  1  0  0  0  0
  5 25  1  1  0  0  0
  6  5  1  0  0  0  0
  6 18  1  1  0  0  0
  7 24  1  6  0  0  0
  7 19  1  0  0  0  0
  8 12  1  0  0  0  0
  8 17  1  0  0  0  0
  9 26  1  6  0  0  0
  9 15  1  0  0  0  0
 11 13  2  0  0  0  0
 12 13  1  6  0  0  0
 12  2  1  0  0  0  0
 14 23  1  6  0  0  0
 14 27  1  0  0  0  0
 15 18  1  0  0  0  0
 17 10  1  1  0  0  0
 17  7  1  0  0  0  0
 19 16  1  0  0  0  0
 20 10  1  6  0  0  0
 20 29  1  0  0  0  0
 20  1  1  0  0  0  0
 22 21  1  6  0  0  0
 22 13  1  0  0  0  0
 22 14  1  0  0  0  0
 23 28  1  0  0  0  0
 27  2  1  0  0  0  0
 27  5  1  0  0  0  0
 28  9  1  0  0  0  0
 28  6  1  0  0  0  0
 29  1  1  0  0  0  0
 29 30  1  0  0  0  0
 30 31  1  0  0  0  0
 32 30  2  0  0  0  0
M  END
>  <MODEL>
7

>  <REMARK>
 VINA RESULT:      -7.6      3.770      8.857
  Name = 
  1 active torsions:
  status: ('A' for Active; 'I' for Inactive)
    1  A    between atoms: C_29  and  C_30
                            x       y       z     vdW  Elec       q    Type
                         _______ _______ _______ _____ _____    ______ ____

>  <TORSDO>
F 1

$$$$
