=
 OpenBabel11122412033D

 34 40  0  0  1  0  0  0  0  0999 V2000
  182.4290  178.8300  143.6330 C   0  0  0  0  0  0  0  0  0  0  0  0
  183.9000  178.6280  145.6880 C   0  0  0  0  0  2  0  0  0  0  0  0
  181.2830  176.3550  138.4610 C   0  0  0  0  0  0  0  0  0  0  0  0
  181.1560  178.6280  141.5990 C   0  0  0  0  0  0  0  0  0  0  0  0
  182.3090  178.4950  139.3360 C   0  0  2  0  0  3  0  0  0  0  0  0
  181.7790  178.2030  136.9550 N   0  0  0  0  0  1  0  0  0  0  0  0
  181.7560  175.1910  138.5110 O   0  0  0  0  0  0  0  0  0  0  0  0
  179.2720  177.8730  138.5520 C   0  0  0  0  0  2  0  0  0  0  0  0
  184.9120  179.2660  143.5780 C   0  0  2  0  0  3  0  0  0  0  0  0
  187.8670  178.0490  143.0620 C   0  0  0  0  0  2  0  0  0  0  0  0
  183.5330  178.0850  140.1600 C   0  0  0  0  0  2  0  0  0  0  0  0
  179.7910  178.9170  139.5490 C   0  0  0  0  0  2  0  0  0  0  0  0
  184.9110  178.5470  142.2150 C   0  0  1  0  0  3  0  0  0  0  0  0
  185.3950  178.7600  145.9210 C   0  0  0  0  0  2  0  0  0  0  0  0
  181.0790  178.5700  140.1610 N   0  0  0  0  0  0  0  0  0  0  0  0
  179.8940  176.5660  138.7270 N   0  0  0  0  0  2  0  0  0  0  0  0
  186.8810  177.6840  144.1660 C   0  0  2  0  0  3  0  0  0  0  0  0
  182.3960  178.7750  142.2350 C   0  0  0  0  0  0  0  0  0  0  0  0
  182.1930  177.5120  138.1650 C   0  0  2  0  0  3  0  0  0  0  0  0
  183.6530  178.9360  141.4180 C   0  0  2  0  0  3  0  0  0  0  0  0
  180.0830  178.5610  143.7130 C   0  0  0  0  0  3  0  0  0  0  0  0
  187.2520  177.8830  141.6810 C   0  0  0  0  0  2  0  0  0  0  0  0
  180.0280  178.5230  142.3550 N   0  0  0  0  0  0  0  0  0  0  0  0
  186.1610  178.9100  141.4260 C   0  0  0  0  0  2  0  0  0  0  0  0
  186.0570  178.9260  144.5490 C   0  0  1  0  0  3  0  0  0  0  0  0
  181.2760  178.7110  144.3430 N   0  0  0  0  0  0  0  0  0  0  0  0
  183.6880  178.9750  144.3000 N   0  0  0  0  0  0  0  0  0  0  0  0
  187.6060  177.2180  145.2670 O   0  0  0  0  0  0  0  0  0  0  0  0
  188.9140  177.0700  144.7960 C   0  0  0  0  0  2  0  0  0  0  0  0
  190.5140  176.0070  147.4390 O   0  0  0  0  0  0  0  0  0  0  0  0
  191.2800  177.1280  145.5100 C   0  0  0  0  0  2  0  0  0  0  0  0
  189.8950  177.6200  145.8150 C   0  0  2  0  0  3  0  0  0  0  0  0
  191.6800  176.3780  146.7560 C   0  0  0  0  0  2  0  0  0  0  0  0
  189.5920  177.0320  147.1750 C   0  0  0  0  0  2  0  0  0  0  0  0
  1 27  1  0  0  0  0
  1 26  1  0  0  0  0
  2 14  1  0  0  0  0
  3  7  2  0  0  0  0
  3 16  1  0  0  0  0
  4 18  1  0  0  0  0
  4 23  2  0  0  0  0
  5 11  1  1  0  0  0
  5 15  1  0  0  0  0
  8 16  1  0  0  0  0
  8 12  1  0  0  0  0
  9 27  1  1  0  0  0
  9 25  1  0  0  0  0
 10 17  1  0  0  0  0
 12 15  1  0  0  0  0
 13 24  1  6  0  0  0
 13  9  1  0  0  0  0
 15  4  1  0  0  0  0
 17 25  1  0  0  0  0
 17 28  1  1  0  0  0
 18  1  2  0  0  0  0
 19  6  1  6  0  0  0
 19  3  1  0  0  0  0
 19  5  1  0  0  0  0
 20 11  1  6  0  0  0
 20 13  1  0  0  0  0
 20 18  1  0  0  0  0
 21 26  2  0  0  0  0
 22 10  1  0  0  0  0
 23 21  1  0  0  0  0
 24 22  1  0  0  0  0
 25 14  1  1  0  0  0
 27  2  1  0  0  0  0
 29 28  1  0  0  0  0
 31 32  1  0  0  0  0
 31 33  1  0  0  0  0
 32 29  1  6  0  0  0
 32 34  1  0  0  0  0
 33 30  1  0  0  0  0
 34 30  1  0  0  0  0
M  END
>  <MODEL>
1

>  <REMARK>
 VINA RESULT:      -9.1      0.000      0.000
  Name = 
  3 active torsions:
  status: ('A' for Active; 'I' for Inactive)
    1  A    between atoms: C_17  and  O_28
    2  A    between atoms: O_28  and  C_29
    3  A    between atoms: C_29  and  C_32
                            x       y       z     vdW  Elec       q    Type
                         _______ _______ _______ _____ _____    ______ ____

>  <TORSDO>
F 3

$$$$
=
 OpenBabel11122412033D

 34 40  0  0  1  0  0  0  0  0999 V2000
  187.0300  178.2480  139.2040 C   0  0  0  0  0  0  0  0  0  0  0  0
  185.6410  178.5940  141.2960 C   0  0  0  0  0  2  0  0  0  0  0  0
  190.6290  174.4640  136.5730 C   0  0  0  0  0  0  0  0  0  0  0  0
  188.3620  177.5150  137.3360 C   0  0  0  0  0  0  0  0  0  0  0  0
  190.7640  176.7430  137.6600 C   0  0  2  0  0  3  0  0  0  0  0  0
  192.6440  175.8160  136.3780 N   0  0  0  0  0  1  0  0  0  0  0  0
  190.4410  173.3500  137.1270 O   0  0  0  0  0  0  0  0  0  0  0  0
  190.2470  175.9830  134.5970 C   0  0  0  0  0  2  0  0  0  0  0  0
  188.0600  178.6080  141.4770 C   0  0  2  0  0  3  0  0  0  0  0  0
  189.2320  177.2450  144.1690 C   0  0  0  0  0  2  0  0  0  0  0  0
  190.3410  176.5550  139.1200 C   0  0  0  0  0  2  0  0  0  0  0  0
  189.8070  177.2510  135.3380 C   0  0  0  0  0  2  0  0  0  0  0  0
  189.0950  177.5420  141.0710 C   0  0  1  0  0  3  0  0  0  0  0  0
  185.9870  178.7590  142.7650 C   0  0  0  0  0  2  0  0  0  0  0  0
  189.6140  177.0650  136.7810 N   0  0  0  0  0  0  0  0  0  0  0  0
  189.9610  174.7630  135.3440 N   0  0  0  0  0  2  0  0  0  0  0  0
  187.7990  177.2160  143.6490 C   0  0  2  0  0  3  0  0  0  0  0  0
  188.2610  177.8100  138.7020 C   0  0  0  0  0  0  0  0  0  0  0  0
  191.5170  175.4780  137.2320 C   0  0  2  0  0  3  0  0  0  0  0  0
  189.4760  177.7180  139.5910 C   0  0  2  0  0  3  0  0  0  0  0  0
  186.0690  178.0520  137.0540 C   0  0  0  0  0  3  0  0  0  0  0  0
  190.2160  176.7160  143.1370 C   0  0  0  0  0  2  0  0  0  0  0  0
  187.2610  177.6420  136.5440 N   0  0  0  0  0  0  0  0  0  0  0  0
  190.3360  177.6520  141.9460 C   0  0  0  0  0  2  0  0  0  0  0  0
  187.4950  178.5290  142.9060 C   0  0  1  0  0  3  0  0  0  0  0  0
  185.9580  178.3480  138.3740 N   0  0  0  0  0  0  0  0  0  0  0  0
  186.9070  178.5480  140.5980 N   0  0  0  0  0  0  0  0  0  0  0  0
  186.9380  177.0590  144.7400 O   0  0  0  0  0  0  0  0  0  0  0  0
  187.3580  178.0170  145.6660 C   0  0  0  0  0  2  0  0  0  0  0  0
  189.5060  177.5130  148.0770 O   0  0  0  0  0  0  0  0  0  0  0  0
  187.3680  178.5120  148.0890 C   0  0  0  0  0  2  0  0  0  0  0  0
  187.3660  177.4180  147.0610 C   0  0  2  0  0  3  0  0  0  0  0  0
  188.6340  178.2680  148.8740 C   0  0  0  0  0  2  0  0  0  0  0  0
  188.6740  176.6970  147.2940 C   0  0  0  0  0  2  0  0  0  0  0  0
  1 27  1  0  0  0  0
  2 14  1  0  0  0  0
  3  7  2  0  0  0  0
  3 19  1  0  0  0  0
  4 18  2  0  0  0  0
  5 11  1  1  0  0  0
  8 12  1  0  0  0  0
  8 16  1  0  0  0  0
  9 27  1  6  0  0  0
  9 25  1  0  0  0  0
 12 15  1  0  0  0  0
 13  9  1  0  0  0  0
 13 24  1  1  0  0  0
 15  4  1  0  0  0  0
 15  5  1  0  0  0  0
 16  3  1  0  0  0  0
 17 10  1  0  0  0  0
 17 28  1  1  0  0  0
 18  1  1  0  0  0  0
 18 20  1  0  0  0  0
 19  6  1  6  0  0  0
 19  5  1  0  0  0  0
 20 11  1  6  0  0  0
 20 13  1  0  0  0  0
 21 26  1  0  0  0  0
 22 10  1  0  0  0  0
 23 21  2  0  0  0  0
 23  4  1  0  0  0  0
 24 22  1  0  0  0  0
 25 14  1  6  0  0  0
 25 17  1  0  0  0  0
 26  1  2  0  0  0  0
 27  2  1  0  0  0  0
 28 29  1  0  0  0  0
 30 33  1  0  0  0  0
 31 33  1  0  0  0  0
 32 29  1  6  0  0  0
 32 34  1  0  0  0  0
 32 31  1  0  0  0  0
 34 30  1  0  0  0  0
M  END
>  <MODEL>
2

>  <REMARK>
 VINA RESULT:      -8.5      4.799      6.854
  Name = 
  3 active torsions:
  status: ('A' for Active; 'I' for Inactive)
    1  A    between atoms: C_17  and  O_28
    2  A    between atoms: O_28  and  C_29
    3  A    between atoms: C_29  and  C_32
                            x       y       z     vdW  Elec       q    Type
                         _______ _______ _______ _____ _____    ______ ____

>  <TORSDO>
F 3

$$$$
=
 OpenBabel11122412033D

 34 40  0  0  1  0  0  0  0  0999 V2000
  182.2640  178.8680  142.1860 C   0  0  0  0  0  0  0  0  0  0  0  0
  182.8390  178.8730  144.6550 C   0  0  0  0  0  2  0  0  0  0  0  0
  183.0010  175.8450  137.2350 C   0  0  0  0  0  0  0  0  0  0  0  0
  181.8390  178.4600  139.8500 C   0  0  0  0  0  0  0  0  0  0  0  0
  183.7490  178.0500  138.2210 C   0  0  2  0  0  3  0  0  0  0  0  0
  184.1360  177.5000  135.8580 N   0  0  0  0  0  1  0  0  0  0  0  0
  183.3490  174.6850  137.5750 O   0  0  0  0  0  0  0  0  0  0  0  0
  181.1980  177.4000  136.4060 C   0  0  0  0  0  2  0  0  0  0  0  0
  184.6070  179.2490  143.0360 C   0  0  2  0  0  3  0  0  0  0  0  0
  187.4600  177.9280  143.8050 C   0  0  0  0  0  2  0  0  0  0  0  0
  184.5460  177.7140  139.4850 C   0  0  0  0  0  2  0  0  0  0  0  0
  181.3660  178.5400  137.4180 C   0  0  0  0  0  2  0  0  0  0  0  0
  185.0740  178.3810  141.8530 C   0  0  1  0  0  3  0  0  0  0  0  0
  184.1410  179.0030  145.4240 C   0  0  0  0  0  2  0  0  0  0  0  0
  182.3050  178.2410  138.5040 N   0  0  0  0  0  0  0  0  0  0  0  0
  181.6290  176.1090  136.9300 N   0  0  0  0  0  2  0  0  0  0  0  0
  186.1120  177.7080  144.4810 C   0  0  2  0  0  3  0  0  0  0  0  0
  182.7560  178.6550  140.8920 C   0  0  0  0  0  0  0  0  0  0  0  0
  184.0230  176.9430  137.1960 C   0  0  2  0  0  3  0  0  0  0  0  0
  184.2350  178.7000  140.6040 C   0  0  2  0  0  3  0  0  0  0  0  0
  180.0480  178.6530  141.3930 C   0  0  0  0  0  3  0  0  0  0  0  0
  187.4000  177.6170  142.3170 C   0  0  0  0  0  2  0  0  0  0  0  0
  180.5050  178.4620  140.1270 N   0  0  0  0  0  0  0  0  0  0  0  0
  186.5490  178.6290  141.5670 C   0  0  0  0  0  2  0  0  0  0  0  0
  185.2790  179.0000  144.3980 C   0  0  1  0  0  3  0  0  0  0  0  0
  180.9240  178.8510  142.4120 N   0  0  0  0  0  0  0  0  0  0  0  0
  183.1850  179.0640  143.2630 N   0  0  0  0  0  0  0  0  0  0  0  0
  186.3400  177.3570  145.8150 O   0  0  0  0  0  0  0  0  0  0  0  0
  187.6980  177.6100  146.0230 C   0  0  0  0  0  2  0  0  0  0  0  0
  190.3780  177.6030  147.8930 O   0  0  0  0  0  0  0  0  0  0  0  0
  188.1590  178.2530  148.3650 C   0  0  0  0  0  2  0  0  0  0  0  0
  188.1130  177.1090  147.3940 C   0  0  2  0  0  3  0  0  0  0  0  0
  189.5890  178.2600  148.8470 C   0  0  0  0  0  2  0  0  0  0  0  0
  189.5430  176.6190  147.3410 C   0  0  0  0  0  2  0  0  0  0  0  0
  1 26  1  0  0  0  0
  1 27  1  0  0  0  0
  2 14  1  0  0  0  0
  3  7  2  0  0  0  0
  4 23  2  0  0  0  0
  4 18  1  0  0  0  0
  5 15  1  0  0  0  0
  5 11  1  1  0  0  0
  8 16  1  0  0  0  0
  8 12  1  0  0  0  0
  9 27  1  1  0  0  0
  9 25  1  0  0  0  0
 10 17  1  0  0  0  0
 12 15  1  0  0  0  0
 13 24  1  6  0  0  0
 13  9  1  0  0  0  0
 15  4  1  0  0  0  0
 16  3  1  0  0  0  0
 17 28  1  1  0  0  0
 18  1  2  0  0  0  0
 19  6  1  6  0  0  0
 19  3  1  0  0  0  0
 19  5  1  0  0  0  0
 20 11  1  6  0  0  0
 20 18  1  0  0  0  0
 20 13  1  0  0  0  0
 21 26  2  0  0  0  0
 22 10  1  0  0  0  0
 23 21  1  0  0  0  0
 24 22  1  0  0  0  0
 25 17  1  0  0  0  0
 25 14  1  1  0  0  0
 27  2  1  0  0  0  0
 28 29  1  0  0  0  0
 30 33  1  0  0  0  0
 31 33  1  0  0  0  0
 32 29  1  6  0  0  0
 32 31  1  0  0  0  0
 34 32  1  0  0  0  0
 34 30  1  0  0  0  0
M  END
>  <MODEL>
3

>  <REMARK>
 VINA RESULT:      -8.5      1.480      1.951
  Name = 
  3 active torsions:
  status: ('A' for Active; 'I' for Inactive)
    1  A    between atoms: C_17  and  O_28
    2  A    between atoms: O_28  and  C_29
    3  A    between atoms: C_29  and  C_32
                            x       y       z     vdW  Elec       q    Type
                         _______ _______ _______ _____ _____    ______ ____

>  <TORSDO>
F 3

$$$$
=
 OpenBabel11122412033D

 34 40  0  0  1  0  0  0  0  0999 V2000
  184.1710  178.6070  143.8080 C   0  0  0  0  0  0  0  0  0  0  0  0
  186.1400  177.8280  145.2020 C   0  0  0  0  0  2  0  0  0  0  0  0
  181.0530  177.3370  139.0270 C   0  0  0  0  0  0  0  0  0  0  0  0
  182.3180  178.9630  142.3110 C   0  0  0  0  0  0  0  0  0  0  0  0
  182.6730  179.1190  139.7970 C   0  0  2  0  0  3  0  0  0  0  0  0
  181.3910  179.3600  137.7160 N   0  0  0  0  0  1  0  0  0  0  0  0
  181.2960  176.1330  138.7530 O   0  0  0  0  0  0  0  0  0  0  0  0
  179.4820  179.0540  139.9980 C   0  0  0  0  0  2  0  0  0  0  0  0
  186.5510  178.7240  142.9850 C   0  0  2  0  0  3  0  0  0  0  0  0
  188.9280  177.2610  141.3450 C   0  0  0  0  0  2  0  0  0  0  0  0
  183.9940  178.4060  140.0980 C   0  0  0  0  0  2  0  0  0  0  0  0
  180.4650  179.8120  140.8980 C   0  0  0  0  0  2  0  0  0  0  0  0
  185.9980  178.2860  141.6160 C   0  0  1  0  0  3  0  0  0  0  0  0
  187.6310  177.7210  144.9360 C   0  0  0  0  0  2  0  0  0  0  0  0
  181.7930  179.1920  140.9890 N   0  0  0  0  0  0  0  0  0  0  0  0
  179.8760  177.6690  139.7700 N   0  0  0  0  0  2  0  0  0  0  0  0
  188.2810  176.8200  142.6530 C   0  0  2  0  0  3  0  0  0  0  0  0
  183.6980  178.8260  142.5080 C   0  0  0  0  0  0  0  0  0  0  0  0
  182.0230  178.4020  138.6080 C   0  0  2  0  0  3  0  0  0  0  0  0
  184.6500  178.9780  141.3490 C   0  0  2  0  0  3  0  0  0  0  0  0
  181.9560  178.6300  144.6310 C   0  0  0  0  0  3  0  0  0  0  0  0
  187.8970  177.4420  140.2410 C   0  0  0  0  0  2  0  0  0  0  0  0
  181.4790  178.8610  143.3790 N   0  0  0  0  0  0  0  0  0  0  0  0
  186.9890  178.6310  140.5120 C   0  0  0  0  0  2  0  0  0  0  0  0
  187.8560  178.0610  143.4600 C   0  0  1  0  0  3  0  0  0  0  0  0
  183.2910  178.5020  144.8390 N   0  0  0  0  0  0  0  0  0  0  0  0
  185.5770  178.4590  144.0280 N   0  0  0  0  0  0  0  0  0  0  0  0
  189.2110  176.0630  143.3710 O   0  0  0  0  0  0  0  0  0  0  0  0
  190.3710  176.0930  142.5930 C   0  0  0  0  0  2  0  0  0  0  0  0
  191.1780  178.7300  144.3450 O   0  0  0  0  0  0  0  0  0  0  0  0
  191.2200  176.4350  144.8900 C   0  0  0  0  0  2  0  0  0  0  0  0
  191.5430  176.5730  143.4310 C   0  0  2  0  0  3  0  0  0  0  0  0
  191.3310  177.8430  145.4200 C   0  0  0  0  0  2  0  0  0  0  0  0
  191.7230  178.0620  143.2380 C   0  0  0  0  0  2  0  0  0  0  0  0
  1 27  1  0  0  0  0
  1 26  1  0  0  0  0
  3 16  1  0  0  0  0
  4 18  1  0  0  0  0
  4 23  2  0  0  0  0
  5 11  1  1  0  0  0
  5 15  1  0  0  0  0
  7  3  2  0  0  0  0
  8 12  1  0  0  0  0
  9 25  1  0  0  0  0
  9 27  1  1  0  0  0
 10 17  1  0  0  0  0
 12 15  1  0  0  0  0
 13 24  1  6  0  0  0
 13  9  1  0  0  0  0
 14  2  1  0  0  0  0
 15  4  1  0  0  0  0
 16  8  1  0  0  0  0
 17 28  1  1  0  0  0
 17 25  1  0  0  0  0
 18  1  2  0  0  0  0
 19  6  1  6  0  0  0
 19  3  1  0  0  0  0
 19  5  1  0  0  0  0
 20 11  1  6  0  0  0
 20 13  1  0  0  0  0
 20 18  1  0  0  0  0
 21 26  2  0  0  0  0
 22 24  1  0  0  0  0
 22 10  1  0  0  0  0
 23 21  1  0  0  0  0
 25 14  1  1  0  0  0
 27  2  1  0  0  0  0
 29 28  1  0  0  0  0
 30 33  1  0  0  0  0
 31 33  1  0  0  0  0
 32 29  1  6  0  0  0
 32 31  1  0  0  0  0
 34 32  1  0  0  0  0
 34 30  1  0  0  0  0
M  END
>  <MODEL>
4

>  <REMARK>
 VINA RESULT:      -8.0      1.549      2.074
  Name = 
  3 active torsions:
  status: ('A' for Active; 'I' for Inactive)
    1  A    between atoms: C_17  and  O_28
    2  A    between atoms: O_28  and  C_29
    3  A    between atoms: C_29  and  C_32
                            x       y       z     vdW  Elec       q    Type
                         _______ _______ _______ _____ _____    ______ ____

>  <TORSDO>
F 3

$$$$
=
 OpenBabel11122412033D

 34 40  0  0  1  0  0  0  0  0999 V2000
  189.3510  177.2880  137.4720 C   0  0  0  0  0  0  0  0  0  0  0  0
  187.3450  177.8080  138.9340 C   0  0  0  0  0  2  0  0  0  0  0  0
  193.8220  173.5710  136.8470 C   0  0  0  0  0  0  0  0  0  0  0  0
  191.2530  176.4180  136.2780 C   0  0  0  0  0  0  0  0  0  0  0  0
  193.4650  175.9990  137.4610 C   0  0  2  0  0  3  0  0  0  0  0  0
  195.7080  175.1000  137.0170 N   0  0  0  0  0  1  0  0  0  0  0  0
  193.5320  172.5500  137.5220 O   0  0  0  0  0  0  0  0  0  0  0  0
  194.0050  174.6880  134.5950 C   0  0  0  0  0  2  0  0  0  0  0  0
  189.5730  178.1360  139.8360 C   0  0  2  0  0  3  0  0  0  0  0  0
  189.8970  177.3840  142.9680 C   0  0  0  0  0  2  0  0  0  0  0  0
  192.6080  176.0060  138.7300 C   0  0  0  0  0  2  0  0  0  0  0  0
  193.2760  176.0010  134.9060 C   0  0  0  0  0  2  0  0  0  0  0  0
  190.7450  177.1470  139.9790 C   0  0  1  0  0  3  0  0  0  0  0  0
  187.1910  178.2530  140.3770 C   0  0  0  0  0  2  0  0  0  0  0  0
  192.6410  176.0330  136.2280 N   0  0  0  0  0  0  0  0  0  0  0  0
  193.5670  173.5840  135.4400 N   0  0  0  0  0  2  0  0  0  0  0  0
  188.7120  177.1010  142.0520 C   0  0  2  0  0  3  0  0  0  0  0  0
  190.7020  176.9210  137.4640 C   0  0  0  0  0  0  0  0  0  0  0  0
  194.3890  174.7780  137.5370 C   0  0  2  0  0  3  0  0  0  0  0  0
  191.5700  177.1210  138.6810 C   0  0  2  0  0  3  0  0  0  0  0  0
  189.1450  176.6290  135.2120 C   0  0  0  0  0  3  0  0  0  0  0  0
  191.1900  176.8100  142.4070 C   0  0  0  0  0  2  0  0  0  0  0  0
  190.4590  176.2830  135.1790 N   0  0  0  0  0  0  0  0  0  0  0  0
  191.6310  177.5450  141.1520 C   0  0  0  0  0  2  0  0  0  0  0  0
  188.5850  178.2290  141.0130 C   0  0  1  0  0  3  0  0  0  0  0  0
  188.5980  177.1240  136.3520 N   0  0  0  0  0  0  0  0  0  0  0  0
  188.7690  177.7980  138.6770 N   0  0  0  0  0  0  0  0  0  0  0  0
  187.5580  177.0260  142.8380 O   0  0  0  0  0  0  0  0  0  0  0  0
  187.9580  177.4650  144.1020 C   0  0  0  0  0  2  0  0  0  0  0  0
  186.8990  178.7570  146.9110 O   0  0  0  0  0  0  0  0  0  0  0  0
  185.7500  178.2190  144.9210 C   0  0  0  0  0  2  0  0  0  0  0  0
  186.8500  177.2150  145.1100 C   0  0  2  0  0  3  0  0  0  0  0  0
  185.6730  178.9250  146.2530 C   0  0  0  0  0  2  0  0  0  0  0  0
  187.3640  177.4960  146.5040 C   0  0  0  0  0  2  0  0  0  0  0  0
  1 27  1  0  0  0  0
  2 14  1  0  0  0  0
  3  7  2  0  0  0  0
  3 19  1  0  0  0  0
  4 18  2  0  0  0  0
  5 19  1  0  0  0  0
  5 11  1  1  0  0  0
  8 12  1  0  0  0  0
  8 16  1  0  0  0  0
  9 27  1  6  0  0  0
  9 13  1  0  0  0  0
  9 25  1  0  0  0  0
 12 15  1  0  0  0  0
 13 24  1  1  0  0  0
 15  4  1  0  0  0  0
 15  5  1  0  0  0  0
 16  3  1  0  0  0  0
 17 28  1  1  0  0  0
 17 10  1  0  0  0  0
 18  1  1  0  0  0  0
 18 20  1  0  0  0  0
 19  6  1  6  0  0  0
 20 11  1  1  0  0  0
 20 13  1  0  0  0  0
 21 26  1  0  0  0  0
 22 10  1  0  0  0  0
 23 21  2  0  0  0  0
 23  4  1  0  0  0  0
 24 22  1  0  0  0  0
 25 14  1  6  0  0  0
 25 17  1  0  0  0  0
 26  1  2  0  0  0  0
 27  2  1  0  0  0  0
 28 29  1  0  0  0  0
 31 32  1  0  0  0  0
 31 33  1  0  0  0  0
 32 29  1  6  0  0  0
 32 34  1  0  0  0  0
 33 30  1  0  0  0  0
 34 30  1  0  0  0  0
M  END
>  <MODEL>
5

>  <REMARK>
 VINA RESULT:      -7.8      6.667      9.361
  Name = 
  3 active torsions:
  status: ('A' for Active; 'I' for Inactive)
    1  A    between atoms: C_17  and  O_28
    2  A    between atoms: O_28  and  C_29
    3  A    between atoms: C_29  and  C_32
                            x       y       z     vdW  Elec       q    Type
                         _______ _______ _______ _____ _____    ______ ____

>  <TORSDO>
F 3

$$$$
=
 OpenBabel11122412033D

 34 40  0  0  1  0  0  0  0  0999 V2000
  185.4940  178.5390  142.5200 C   0  0  0  0  0  0  0  0  0  0  0  0
  187.9010  177.8740  142.0870 C   0  0  0  0  0  2  0  0  0  0  0  0
  179.9670  177.1390  141.2200 C   0  0  0  0  0  0  0  0  0  0  0  0
  183.1120  178.7920  142.7710 C   0  0  0  0  0  0  0  0  0  0  0  0
  181.5940  179.0150  140.7430 C   0  0  2  0  0  3  0  0  0  0  0  0
  179.2120  179.2020  140.1730 N   0  0  0  0  0  1  0  0  0  0  0  0
  179.9920  175.9600  140.7820 O   0  0  0  0  0  0  0  0  0  0  0  0
  179.4680  178.7270  143.1140 C   0  0  0  0  0  2  0  0  0  0  0  0
  186.6050  178.8330  140.2760 C   0  0  2  0  0  3  0  0  0  0  0  0
  187.1980  177.5650  137.3570 C   0  0  0  0  0  2  0  0  0  0  0  0
  182.7710  178.3900  139.9890 C   0  0  0  0  0  2  0  0  0  0  0  0
  180.7710  179.5350  143.1130 C   0  0  0  0  0  2  0  0  0  0  0  0
  185.2660  178.3820  139.6610 C   0  0  1  0  0  3  0  0  0  0  0  0
  188.7790  177.8740  140.8490 C   0  0  0  0  0  2  0  0  0  0  0  0
  181.8010  179.0070  142.2110 N   0  0  0  0  0  0  0  0  0  0  0  0
  179.6390  177.3760  142.5920 N   0  0  0  0  0  2  0  0  0  0  0  0
  187.6720  177.0590  138.7140 C   0  0  2  0  0  3  0  0  0  0  0  0
  184.2370  178.7470  141.9380 C   0  0  0  0  0  0  0  0  0  0  0  0
  180.3230  178.2760  140.3070 C   0  0  2  0  0  3  0  0  0  0  0  0
  184.0950  178.9840  140.4560 C   0  0  2  0  0  3  0  0  0  0  0  0
  184.4950  178.3960  144.6570 C   0  0  0  0  0  3  0  0  0  0  0  0
  185.6830  177.6950  137.3030 C   0  0  0  0  0  2  0  0  0  0  0  0
  183.2680  178.6140  144.1130 N   0  0  0  0  0  0  0  0  0  0  0  0
  185.1830  178.8130  138.2030 C   0  0  0  0  0  2  0  0  0  0  0  0
  187.8910  178.2530  139.6600 C   0  0  1  0  0  3  0  0  0  0  0  0
  185.5960  178.3560  143.8630 N   0  0  0  0  0  0  0  0  0  0  0  0
  186.6540  178.4840  141.6830 N   0  0  0  0  0  0  0  0  0  0  0  0
  188.8660  176.3560  138.5290 O   0  0  0  0  0  0  0  0  0  0  0  0
  189.3610  176.8110  137.3040 C   0  0  0  0  0  2  0  0  0  0  0  0
  191.7130  174.7920  138.3380 O   0  0  0  0  0  0  0  0  0  0  0  0
  191.3610  175.8170  136.2430 C   0  0  0  0  0  2  0  0  0  0  0  0
  190.8780  176.7580  137.3080 C   0  0  2  0  0  3  0  0  0  0  0  0
  192.1470  174.7790  137.0060 C   0  0  0  0  0  2  0  0  0  0  0  0
  191.3570  176.1250  138.5960 C   0  0  0  0  0  2  0  0  0  0  0  0
  1 26  1  0  0  0  0
  3 16  1  0  0  0  0
  4 23  2  0  0  0  0
  5 11  1  6  0  0  0
  5 15  1  0  0  0  0
  7  3  2  0  0  0  0
  9 27  1  1  0  0  0
 10 17  1  0  0  0  0
 12  8  1  0  0  0  0
 13 24  1  6  0  0  0
 13  9  1  0  0  0  0
 13 20  1  0  0  0  0
 14  2  1  0  0  0  0
 15  4  1  0  0  0  0
 15 12  1  0  0  0  0
 16  8  1  0  0  0  0
 17 28  1  6  0  0  0
 17 25  1  0  0  0  0
 18  1  2  0  0  0  0
 18  4  1  0  0  0  0
 19  6  1  1  0  0  0
 19  5  1  0  0  0  0
 19  3  1  0  0  0  0
 20 11  1  6  0  0  0
 20 18  1  0  0  0  0
 22 10  1  0  0  0  0
 22 24  1  0  0  0  0
 23 21  1  0  0  0  0
 25  9  1  0  0  0  0
 25 14  1  1  0  0  0
 26 21  2  0  0  0  0
 27  2  1  0  0  0  0
 27  1  1  0  0  0  0
 29 28  1  0  0  0  0
 30 34  1  0  0  0  0
 31 33  1  0  0  0  0
 31 32  1  0  0  0  0
 32 29  1  1  0  0  0
 32 34  1  0  0  0  0
 33 30  1  0  0  0  0
M  END
>  <MODEL>
6

>  <REMARK>
 VINA RESULT:      -7.5      3.539      5.242
  Name = 
  3 active torsions:
  status: ('A' for Active; 'I' for Inactive)
    1  A    between atoms: C_17  and  O_28
    2  A    between atoms: O_28  and  C_29
    3  A    between atoms: C_29  and  C_32
                            x       y       z     vdW  Elec       q    Type
                         _______ _______ _______ _____ _____    ______ ____

>  <TORSDO>
F 3

$$$$
=
 OpenBabel11122412033D

 34 40  0  0  1  0  0  0  0  0999 V2000
  188.3370  178.0990  139.7280 C   0  0  0  0  0  0  0  0  0  0  0  0
  190.7000  177.2040  139.9330 C   0  0  0  0  0  2  0  0  0  0  0  0
  182.8330  176.5040  138.5630 C   0  0  0  0  0  0  0  0  0  0  0  0
  185.9760  178.5450  139.5540 C   0  0  0  0  0  0  0  0  0  0  0  0
  184.6630  177.8740  137.4820 C   0  0  2  0  0  3  0  0  0  0  0  0
  182.3660  177.8820  136.6120 N   0  0  0  0  0  1  0  0  0  0  0  0
  182.7850  175.2560  138.7140 O   0  0  0  0  0  0  0  0  0  0  0  0
  182.3260  178.8070  139.4550 C   0  0  0  0  0  2  0  0  0  0  0  0
  189.6570  177.2750  137.7450 C   0  0  2  0  0  3  0  0  0  0  0  0
  190.3730  174.7790  135.8130 C   0  0  0  0  0  2  0  0  0  0  0  0
  185.8370  176.9200  137.2400 C   0  0  0  0  0  2  0  0  0  0  0  0
  183.6950  179.4650  139.2410 C   0  0  0  0  0  2  0  0  0  0  0  0
  188.3390  176.6510  137.2490 C   0  0  1  0  0  3  0  0  0  0  0  0
  191.6750  176.5940  138.9440 C   0  0  0  0  0  2  0  0  0  0  0  0
  184.7440  178.5360  138.8070 N   0  0  0  0  0  0  0  0  0  0  0  0
  182.4140  177.3620  139.6280 N   0  0  0  0  0  2  0  0  0  0  0  0
  190.6820  174.9350  137.2980 C   0  0  2  0  0  3  0  0  0  0  0  0
  187.1590  178.0710  138.9720 C   0  0  0  0  0  0  0  0  0  0  0  0
  183.3700  177.0740  137.2830 C   0  0  2  0  0  3  0  0  0  0  0  0
  187.1650  177.6040  137.5380 C   0  0  2  0  0  3  0  0  0  0  0  0
  187.1520  179.0030  141.5630 C   0  0  0  0  0  3  0  0  0  0  0  0
  188.8870  174.9350  135.5270 C   0  0  0  0  0  2  0  0  0  0  0  0
  186.0010  179.0000  140.8380 N   0  0  0  0  0  0  0  0  0  0  0  0
  188.4200  176.3630  135.7560 C   0  0  0  0  0  2  0  0  0  0  0  0
  190.9300  176.4210  137.6160 C   0  0  1  0  0  3  0  0  0  0  0  0
  188.3080  178.5530  141.0100 N   0  0  0  0  0  0  0  0  0  0  0  0
  189.5530  177.6140  139.1520 N   0  0  0  0  0  0  0  0  0  0  0  0
  191.8160  174.1740  137.5940 O   0  0  0  0  0  0  0  0  0  0  0  0
  192.3500  173.8310  136.3500 C   0  0  0  0  0  2  0  0  0  0  0  0
  194.7270  175.6290  137.6890 O   0  0  0  0  0  0  0  0  0  0  0  0
  194.3080  173.3080  137.7660 C   0  0  0  0  0  2  0  0  0  0  0  0
  193.8660  173.8170  136.4250 C   0  0  2  0  0  3  0  0  0  0  0  0
  195.1150  174.4480  138.3380 C   0  0  0  0  0  2  0  0  0  0  0  0
  194.3860  175.2360  136.3860 C   0  0  0  0  0  2  0  0  0  0  0  0
  1 26  1  0  0  0  0
  3  7  2  0  0  0  0
  3 16  1  0  0  0  0
  4 23  2  0  0  0  0
  5 11  1  1  0  0  0
  5 15  1  0  0  0  0
  8 16  1  0  0  0  0
  9 27  1  1  0  0  0
 10 17  1  0  0  0  0
 12  8  1  0  0  0  0
 13 24  1  6  0  0  0
 13 20  1  0  0  0  0
 13  9  1  0  0  0  0
 14  2  1  0  0  0  0
 15 12  1  0  0  0  0
 15  4  1  0  0  0  0
 17 28  1  6  0  0  0
 17 25  1  0  0  0  0
 18  4  1  0  0  0  0
 18  1  2  0  0  0  0
 19  6  1  1  0  0  0
 19  5  1  0  0  0  0
 19  3  1  0  0  0  0
 20 11  1  1  0  0  0
 20 18  1  0  0  0  0
 22 24  1  0  0  0  0
 22 10  1  0  0  0  0
 23 21  1  0  0  0  0
 25  9  1  0  0  0  0
 25 14  1  1  0  0  0
 26 21  2  0  0  0  0
 27  1  1  0  0  0  0
 27  2  1  0  0  0  0
 29 28  1  0  0  0  0
 30 33  1  0  0  0  0
 31 33  1  0  0  0  0
 32 29  1  1  0  0  0
 32 31  1  0  0  0  0
 34 32  1  0  0  0  0
 34 30  1  0  0  0  0
M  END
>  <MODEL>
7

>  <REMARK>
 VINA RESULT:      -7.4      5.668      7.167
  Name = 
  3 active torsions:
  status: ('A' for Active; 'I' for Inactive)
    1  A    between atoms: C_17  and  O_28
    2  A    between atoms: O_28  and  C_29
    3  A    between atoms: C_29  and  C_32
                            x       y       z     vdW  Elec       q    Type
                         _______ _______ _______ _____ _____    ______ ____

>  <TORSDO>
F 3

$$$$
=
 OpenBabel11122412033D

 34 40  0  0  1  0  0  0  0  0999 V2000
  186.6190  178.3280  141.4930 C   0  0  0  0  0  0  0  0  0  0  0  0
  189.0350  177.6100  141.7680 C   0  0  0  0  0  2  0  0  0  0  0  0
  181.5950  176.8720  138.8790 C   0  0  0  0  0  0  0  0  0  0  0  0
  184.2640  178.6200  141.0810 C   0  0  0  0  0  0  0  0  0  0  0  0
  183.3440  178.6910  138.7110 C   0  0  2  0  0  3  0  0  0  0  0  0
  181.2050  178.8500  137.5150 N   0  0  0  0  0  1  0  0  0  0  0  0
  181.7000  175.6610  138.5540 O   0  0  0  0  0  0  0  0  0  0  0  0
  180.6590  178.6120  140.4450 C   0  0  0  0  0  2  0  0  0  0  0  0
  188.2930  178.4300  139.6100 C   0  0  2  0  0  3  0  0  0  0  0  0
  189.5990  176.9260  137.0590 C   0  0  0  0  0  2  0  0  0  0  0  0
  184.6600  177.9960  138.3480 C   0  0  0  0  0  2  0  0  0  0  0  0
  181.9390  179.4070  140.7300 C   0  0  0  0  0  2  0  0  0  0  0  0
  187.1520  177.9420  138.6970 C   0  0  1  0  0  3  0  0  0  0  0  0
  190.2090  177.5030  140.8120 C   0  0  0  0  0  2  0  0  0  0  0  0
  183.1550  178.8000  140.1780 N   0  0  0  0  0  0  0  0  0  0  0  0
  180.9230  177.2220  140.0920 N   0  0  0  0  0  2  0  0  0  0  0  0
  189.6830  176.5270  138.5280 C   0  0  2  0  0  3  0  0  0  0  0  0
  185.5680  178.4980  140.5830 C   0  0  0  0  0  0  0  0  0  0  0  0
  182.2130  177.9280  138.0110 C   0  0  2  0  0  3  0  0  0  0  0  0
  185.8300  178.6160  139.1030 C   0  0  2  0  0  3  0  0  0  0  0  0
  185.0870  178.3660  143.2910 C   0  0  0  0  0  3  0  0  0  0  0  0
  188.1570  177.0620  136.5940 C   0  0  0  0  0  2  0  0  0  0  0  0
  184.0550  178.5500  142.4260 N   0  0  0  0  0  0  0  0  0  0  0  0
  187.4700  178.2540  137.2410 C   0  0  0  0  0  2  0  0  0  0  0  0
  189.6780  177.7920  139.4040 C   0  0  1  0  0  3  0  0  0  0  0  0
  186.3570  178.2540  142.8240 N   0  0  0  0  0  0  0  0  0  0  0  0
  187.9570  178.1960  141.0020 N   0  0  0  0  0  0  0  0  0  0  0  0
  190.8620  175.8010  138.7200 O   0  0  0  0  0  0  0  0  0  0  0  0
  190.9650  174.9820  137.5930 C   0  0  0  0  0  2  0  0  0  0  0  0
  193.1640  175.9460  135.3770 O   0  0  0  0  0  0  0  0  0  0  0  0
  193.2620  175.8860  137.7340 C   0  0  0  0  0  2  0  0  0  0  0  0
  192.4270  174.7270  137.2720 C   0  0  2  0  0  3  0  0  0  0  0  0
  193.9260  176.3780  136.4710 C   0  0  0  0  0  2  0  0  0  0  0  0
  192.6190  174.7150  135.7720 C   0  0  0  0  0  2  0  0  0  0  0  0
  1 26  1  0  0  0  0
  3 16  1  0  0  0  0
  4 23  2  0  0  0  0
  5 11  1  1  0  0  0
  5 15  1  0  0  0  0
  7  3  2  0  0  0  0
  8 12  1  0  0  0  0
  9 27  1  1  0  0  0
 10 17  1  0  0  0  0
 13 24  1  6  0  0  0
 13 20  1  0  0  0  0
 13  9  1  0  0  0  0
 14  2  1  0  0  0  0
 15 12  1  0  0  0  0
 15  4  1  0  0  0  0
 16  8  1  0  0  0  0
 17 28  1  6  0  0  0
 17 25  1  0  0  0  0
 18  4  1  0  0  0  0
 18  1  2  0  0  0  0
 19  6  1  1  0  0  0
 19  5  1  0  0  0  0
 19  3  1  0  0  0  0
 20 11  1  6  0  0  0
 20 18  1  0  0  0  0
 22 10  1  0  0  0  0
 22 24  1  0  0  0  0
 23 21  1  0  0  0  0
 25  9  1  0  0  0  0
 25 14  1  1  0  0  0
 26 21  2  0  0  0  0
 27  1  1  0  0  0  0
 27  2  1  0  0  0  0
 29 28  1  0  0  0  0
 30 34  1  0  0  0  0
 30 33  1  0  0  0  0
 32 29  1  6  0  0  0
 32 31  1  0  0  0  0
 33 31  1  0  0  0  0
 34 32  1  0  0  0  0
M  END
>  <MODEL>
8

>  <REMARK>
 VINA RESULT:      -7.4      4.490      5.864
  Name = 
  3 active torsions:
  status: ('A' for Active; 'I' for Inactive)
    1  A    between atoms: C_17  and  O_28
    2  A    between atoms: O_28  and  C_29
    3  A    between atoms: C_29  and  C_32
                            x       y       z     vdW  Elec       q    Type
                         _______ _______ _______ _____ _____    ______ ____

>  <TORSDO>
F 3

$$$$
=
 OpenBabel11122412033D

 34 40  0  0  1  0  0  0  0  0999 V2000
  189.0220  176.2760  137.0550 C   0  0  0  0  0  0  0  0  0  0  0  0
  187.5540  175.5810  135.1080 C   0  0  0  0  0  2  0  0  0  0  0  0
  189.2530  176.4240  142.8960 C   0  0  0  0  0  0  0  0  0  0  0  0
  190.1590  176.6950  139.1370 C   0  0  0  0  0  0  0  0  0  0  0  0
  189.0620  178.0620  140.9790 C   0  0  2  0  0  3  0  0  0  0  0  0
  189.4790  178.8180  143.2790 N   0  0  0  0  0  1  0  0  0  0  0  0
  188.3900  175.6070  143.3070 O   0  0  0  0  0  0  0  0  0  0  0  0
  191.6760  176.9640  142.4570 C   0  0  0  0  0  2  0  0  0  0  0  0
  186.8670  177.4550  136.4870 C   0  0  2  0  0  3  0  0  0  0  0  0
  183.6780  177.6700  137.0000 C   0  0  0  0  0  2  0  0  0  0  0  0
  187.7640  177.7220  140.2420 C   0  0  0  0  0  2  0  0  0  0  0  0
  191.5600  177.4910  141.0220 C   0  0  0  0  0  2  0  0  0  0  0  0
  186.6240  177.5360  138.0060 C   0  0  1  0  0  3  0  0  0  0  0  0
  186.2070  176.0560  134.5940 C   0  0  0  0  0  2  0  0  0  0  0  0
  190.2270  177.3250  140.4310 N   0  0  0  0  0  0  0  0  0  0  0  0
  190.6210  176.0180  142.8000 N   0  0  0  0  0  2  0  0  0  0  0  0
  184.4520  176.5180  136.3700 C   0  0  2  0  0  3  0  0  0  0  0  0
  189.0500  176.9030  138.3060 C   0  0  0  0  0  0  0  0  0  0  0  0
  188.8280  177.7990  142.4710 C   0  0  2  0  0  3  0  0  0  0  0  0
  187.9460  177.8370  138.7340 C   0  0  2  0  0  3  0  0  0  0  0  0
  191.1100  175.2630  137.5020 C   0  0  0  0  0  3  0  0  0  0  0  0
  184.2080  178.0120  138.3850 C   0  0  0  0  0  2  0  0  0  0  0  0
  191.1640  175.8780  138.7140 N   0  0  0  0  0  0  0  0  0  0  0  0
  185.5990  178.6190  138.3190 C   0  0  0  0  0  2  0  0  0  0  0  0
  185.6660  177.0730  135.6040 C   0  0  1  0  0  3  0  0  0  0  0  0
  190.0450  175.4610  136.6830 N   0  0  0  0  0  0  0  0  0  0  0  0
  187.8940  176.4720  136.1960 N   0  0  0  0  0  0  0  0  0  0  0  0
  183.5940  175.8360  135.5010 O   0  0  0  0  0  0  0  0  0  0  0  0
  183.1630  174.7230  136.2270 C   0  0  0  0  0  2  0  0  0  0  0  0
  183.4690  171.6190  137.2020 O   0  0  0  0  0  0  0  0  0  0  0  0
  183.5180  172.5790  135.0470 C   0  0  0  0  0  2  0  0  0  0  0  0
  184.1180  173.5630  136.0100 C   0  0  2  0  0  3  0  0  0  0  0  0
  183.4490  171.2960  135.8380 C   0  0  0  0  0  2  0  0  0  0  0  0
  184.2570  172.7770  137.2940 C   0  0  0  0  0  2  0  0  0  0  0  0
  1 18  1  0  0  0  0
  2 27  1  0  0  0  0
  3  7  2  0  0  0  0
  4 15  1  0  0  0  0
  5 11  1  6  0  0  0
  5 19  1  0  0  0  0
  8 16  1  0  0  0  0
  9 27  1  1  0  0  0
  9 13  1  0  0  0  0
 10 22  1  0  0  0  0
 12  8  1  0  0  0  0
 13 24  1  6  0  0  0
 13 20  1  0  0  0  0
 14  2  1  0  0  0  0
 15  5  1  0  0  0  0
 15 12  1  0  0  0  0
 16  3  1  0  0  0  0
 17 28  1  6  0  0  0
 17 10  1  0  0  0  0
 18 20  1  0  0  0  0
 18  4  2  0  0  0  0
 19  3  1  0  0  0  0
 19  6  1  1  0  0  0
 20 11  1  1  0  0  0
 21 23  2  0  0  0  0
 23  4  1  0  0  0  0
 24 22  1  0  0  0  0
 25 14  1  6  0  0  0
 25 17  1  0  0  0  0
 25  9  1  0  0  0  0
 26  1  2  0  0  0  0
 26 21  1  0  0  0  0
 27  1  1  0  0  0  0
 28 29  1  0  0  0  0
 30 34  1  0  0  0  0
 31 33  1  0  0  0  0
 31 32  1  0  0  0  0
 32 29  1  1  0  0  0
 32 34  1  0  0  0  0
 33 30  1  0  0  0  0
M  END
>  <MODEL>
9

>  <REMARK>
 VINA RESULT:      -7.0      4.941     10.019
  Name = 
  3 active torsions:
  status: ('A' for Active; 'I' for Inactive)
    1  A    between atoms: C_17  and  O_28
    2  A    between atoms: O_28  and  C_29
    3  A    between atoms: C_29  and  C_32
                            x       y       z     vdW  Elec       q    Type
                         _______ _______ _______ _____ _____    ______ ____

>  <TORSDO>
F 3

$$$$
