=
 OpenBabel11122410383D

 32 37  0  0  1  0  0  0  0  0999 V2000
  185.7910  179.6840  145.0550 C   0  0  0  0  0  2  0  0  0  0  0  0
  186.5860  177.9300  140.4950 C   0  0  1  0  0  3  0  0  0  0  0  0
  191.6120  177.5820  140.9710 C   0  0  0  0  0  2  0  0  0  0  0  0
  191.6190  176.9360  139.5920 C   0  0  0  0  0  2  0  0  0  0  0  0
  185.7310  178.7490  138.1900 C   0  0  1  0  0  3  0  0  0  0  0  0
  185.5100  177.3980  137.5880 C   0  0  0  0  0  0  0  0  0  0  0  0
  185.2060  177.9040  142.5620 C   0  0  1  0  0  3  0  0  0  0  0  0
  187.6190  177.3950  142.7240 C   0  0  0  0  0  3  0  0  0  0  0  0
  185.9920  175.3120  136.8600 C   0  0  0  0  0  0  0  0  0  0  0  0
  186.3970  177.2110  144.8180 C   0  0  0  0  0  2  0  0  0  0  0  0
  190.2530  177.4100  141.6620 C   0  0  0  0  0  2  0  0  0  0  0  0
  187.7890  177.6740  141.3190 N   0  0  0  0  0  0  0  0  0  0  0  0
  189.0600  177.2760  140.6880 C   0  0  1  0  0  3  0  0  0  0  0  0
  188.1250  178.0550  138.4720 C   0  0  1  0  0  3  0  0  0  0  0  0
  184.7800  175.2920  137.3100 N   0  0  0  0  0  0  0  0  0  0  0  0
  184.6310  179.9040  144.0780 C   0  0  0  0  0  2  0  0  0  0  0  0
  186.4460  177.5310  143.3480 C   0  0  0  0  0  0  0  0  0  0  0  0
  184.4830  176.5910  137.8060 C   0  0  0  0  0  3  0  0  0  0  0  0
  184.1350  178.6260  143.3840 C   0  0  0  0  0  2  0  0  0  0  0  0
  185.7540  178.2940  145.6990 C   0  0  1  0  0  3  0  0  0  0  0  0
  190.6000  177.6140  138.6710 C   0  0  0  0  0  2  0  0  0  0  0  0
  189.3270  178.0730  139.4030 C   0  0  2  0  0  3  0  0  0  0  0  0
  187.8080  176.6300  137.9580 C   0  0  0  0  0  2  0  0  0  0  0  0
  185.5580  178.7040  141.3150 C   0  0  0  0  0  2  0  0  0  0  0  0
  184.5650  179.2710  138.7590 O   0  0  0  0  0  1  0  0  0  0  0  0
  186.6360  174.1180  136.2500 C   0  0  0  0  0  1  0  0  0  0  0  0
  186.9140  178.6890  139.1870 C   0  0  2  0  0  3  0  0  0  0  0  0
  186.6380  176.6520  136.9710 C   0  0  2  0  0  3  0  0  0  0  0  0
  186.4520  178.3130  147.0490 C   0  0  0  0  0  2  0  0  0  0  0  0
  187.8220  177.7340  146.9440 C   0  0  0  0  0  0  0  0  0  0  0  0
  188.7310  178.2570  146.0340 O   0  0  0  0  0  0  0  0  0  0  0  0
  188.1480  176.7530  147.6630 O   0  0  0  0  0  1  0  0  0  0  0  0
  1 20  1  0  0  0  0
  2 24  1  1  0  0  0
  2 12  1  0  0  0  0
  3 11  1  0  0  0  0
  4  3  1  0  0  0  0
  5 25  1  1  0  0  0
  5 27  1  0  0  0  0
  6 18  2  0  0  0  0
  6  5  1  0  0  0  0
  7 24  1  6  0  0  0
  7 17  1  0  0  0  0
  7 19  1  0  0  0  0
  8 17  2  0  0  0  0
  9 28  1  0  0  0  0
  9 15  2  0  0  0  0
 10 20  1  0  0  0  0
 12  8  1  0  0  0  0
 13 12  1  0  0  0  0
 13 11  1  1  0  0  0
 14 23  1  1  0  0  0
 14 27  1  0  0  0  0
 14 22  1  0  0  0  0
 15 18  1  0  0  0  0
 16  1  1  0  0  0  0
 17 10  1  0  0  0  0
 19 16  1  0  0  0  0
 20 29  1  1  0  0  0
 21  4  1  0  0  0  0
 22 21  1  6  0  0  0
 22 13  1  0  0  0  0
 26  9  1  0  0  0  0
 27  2  1  0  0  0  0
 28  6  1  0  0  0  0
 28 23  1  0  0  0  0
 30 29  1  0  0  0  0
 30 32  1  0  0  0  0
 31 30  2  0  0  0  0
M  END
>  <MODEL>
1

>  <REMARK>
 VINA RESULT:      -7.9      0.000      0.000
  Name = 
  2 active torsions:
  status: ('A' for Active; 'I' for Inactive)
    1  A    between atoms: C_20  and  C_29
    2  A    between atoms: C_29  and  C_30
                            x       y       z     vdW  Elec       q    Type
                         _______ _______ _______ _____ _____    ______ ____

>  <TORSDO>
F 2

$$$$
=
 OpenBabel11122410383D

 32 37  0  0  1  0  0  0  0  0999 V2000
  190.3830  178.5950  143.4180 C   0  0  0  0  0  2  0  0  0  0  0  0
  188.7850  177.1340  138.9670 C   0  0  1  0  0  3  0  0  0  0  0  0
  193.3800  176.1330  137.0980 C   0  0  0  0  0  2  0  0  0  0  0  0
  192.6730  175.6060  135.8570 C   0  0  0  0  0  2  0  0  0  0  0  0
  187.1180  178.2370  137.3180 C   0  0  1  0  0  3  0  0  0  0  0  0
  186.4560  176.9770  136.8600 C   0  0  0  0  0  0  0  0  0  0  0  0
  188.4900  177.1090  141.4350 C   0  0  1  0  0  3  0  0  0  0  0  0
  190.6160  176.2960  140.4730 C   0  0  0  0  0  3  0  0  0  0  0  0
  186.2480  174.9150  135.9570 C   0  0  0  0  0  0  0  0  0  0  0  0
  190.4490  176.0950  142.8900 C   0  0  0  0  0  2  0  0  0  0  0  0
  192.4650  176.0730  138.3290 C   0  0  0  0  0  2  0  0  0  0  0  0
  190.1770  176.6660  139.1490 N   0  0  0  0  0  0  0  0  0  0  0  0
  190.9570  176.1670  138.0030 C   0  0  1  0  0  3  0  0  0  0  0  0
  189.2540  177.2340  136.4680 C   0  0  1  0  0  3  0  0  0  0  0  0
  185.3790  175.0060  136.9090 N   0  0  0  0  0  0  0  0  0  0  0  0
  188.9540  179.0350  143.0800 C   0  0  0  0  0  2  0  0  0  0  0  0
  189.8800  176.5250  141.5640 C   0  0  0  0  0  0  0  0  0  0  0  0
  185.5290  176.2870  137.5070 C   0  0  0  0  0  3  0  0  0  0  0  0
  188.0190  177.8890  142.6660 C   0  0  0  0  0  2  0  0  0  0  0  0
  190.4350  177.1720  143.9860 C   0  0  1  0  0  3  0  0  0  0  0  0
  191.4610  176.4760  135.5120 C   0  0  0  0  0  2  0  0  0  0  0  0
  190.7350  177.0280  136.7510 C   0  0  2  0  0  3  0  0  0  0  0  0
  188.5350  175.9040  136.1310 C   0  0  0  0  0  2  0  0  0  0  0  0
  188.3590  177.9590  140.1780 C   0  0  0  0  0  2  0  0  0  0  0  0
  186.4210  178.8500  138.3630 O   0  0  0  0  0  1  0  0  0  0  0  0
  186.3690  173.7040  135.1010 C   0  0  0  0  0  1  0  0  0  0  0  0
  188.5990  177.9510  137.6660 C   0  0  2  0  0  3  0  0  0  0  0  0
  187.0650  176.1510  135.7850 C   0  0  2  0  0  3  0  0  0  0  0  0
  191.6590  176.9950  144.8700 C   0  0  0  0  0  2  0  0  0  0  0  0
  191.2570  176.7670  146.2870 C   0  0  0  0  0  0  0  0  0  0  0  0
  189.9430  176.9770  146.6810 O   0  0  0  0  0  0  0  0  0  0  0  0
  192.1160  176.4060  147.1340 O   0  0  0  0  0  1  0  0  0  0  0  0
  1 20  1  0  0  0  0
  2 12  1  0  0  0  0
  2 24  1  1  0  0  0
  3 11  1  0  0  0  0
  4  3  1  0  0  0  0
  5 27  1  0  0  0  0
  5 25  1  1  0  0  0
  6  5  1  0  0  0  0
  6 18  2  0  0  0  0
  7 24  1  6  0  0  0
  7 17  1  0  0  0  0
  7 19  1  0  0  0  0
  8 17  2  0  0  0  0
  9 15  2  0  0  0  0
 10 20  1  0  0  0  0
 12  8  1  0  0  0  0
 13 11  1  1  0  0  0
 13 12  1  0  0  0  0
 14 23  1  1  0  0  0
 14 22  1  0  0  0  0
 14 27  1  0  0  0  0
 15 18  1  0  0  0  0
 16  1  1  0  0  0  0
 17 10  1  0  0  0  0
 19 16  1  0  0  0  0
 20 29  1  6  0  0  0
 21  4  1  0  0  0  0
 22 21  1  6  0  0  0
 22 13  1  0  0  0  0
 26  9  1  0  0  0  0
 27  2  1  0  0  0  0
 28  9  1  0  0  0  0
 28 23  1  0  0  0  0
 28  6  1  0  0  0  0
 29 30  1  0  0  0  0
 30 31  2  0  0  0  0
 30 32  1  0  0  0  0
M  END
>  <MODEL>
2

>  <REMARK>
 VINA RESULT:      -7.6      2.350      3.391
  Name = 
  2 active torsions:
  status: ('A' for Active; 'I' for Inactive)
    1  A    between atoms: C_20  and  C_29
    2  A    between atoms: C_29  and  C_30
                            x       y       z     vdW  Elec       q    Type
                         _______ _______ _______ _____ _____    ______ ____

>  <TORSDO>
F 2

$$$$
=
 OpenBabel11122410383D

 32 37  0  0  1  0  0  0  0  0999 V2000
  188.4370  175.7670  137.2700 C   0  0  0  0  0  2  0  0  0  0  0  0
  184.1410  177.8950  138.5030 C   0  0  1  0  0  3  0  0  0  0  0  0
  185.3460  178.6590  143.3580 C   0  0  0  0  0  2  0  0  0  0  0  0
  184.0200  179.3960  143.4890 C   0  0  0  0  0  2  0  0  0  0  0  0
  181.6960  177.1630  138.0550 C   0  0  1  0  0  3  0  0  0  0  0  0
  181.1450  178.5270  137.7860 C   0  0  0  0  0  0  0  0  0  0  0  0
  185.9890  177.6550  136.8580 C   0  0  1  0  0  3  0  0  0  0  0  0
  186.5210  178.3660  139.1640 C   0  0  0  0  0  3  0  0  0  0  0  0
  180.6090  180.6920  138.1550 C   0  0  0  0  0  0  0  0  0  0  0  0
  188.4260  178.2950  137.6560 C   0  0  0  0  0  2  0  0  0  0  0  0
  185.8450  178.6610  141.9070 C   0  0  0  0  0  2  0  0  0  0  0  0
  185.1400  178.2010  139.5510 N   0  0  0  0  0  0  0  0  0  0  0  0
  184.7200  178.7540  140.8510 C   0  0  1  0  0  3  0  0  0  0  0  0
  182.3540  178.0480  140.3080 C   0  0  1  0  0  3  0  0  0  0  0  0
  180.8830  180.5730  136.8970 N   0  0  0  0  0  0  0  0  0  0  0  0
  187.2940  175.5120  136.2810 C   0  0  0  0  0  2  0  0  0  0  0  0
  186.9620  178.0830  137.9360 C   0  0  0  0  0  0  0  0  0  0  0  0
  181.2590  179.2220  136.6650 C   0  0  0  0  0  3  0  0  0  0  0  0
  186.6090  176.7850  135.7610 C   0  0  0  0  0  2  0  0  0  0  0  0
  189.1460  177.1010  137.0090 C   0  0  1  0  0  3  0  0  0  0  0  0
  182.9270  178.6950  142.6770 C   0  0  0  0  0  2  0  0  0  0  0  0
  183.4450  178.0730  141.3680 C   0  0  2  0  0  3  0  0  0  0  0  0
  181.8800  179.4710  139.9250 C   0  0  0  0  0  2  0  0  0  0  0  0
  184.7620  176.9770  137.4540 C   0  0  0  0  0  2  0  0  0  0  0  0
  182.0630  176.5010  136.8790 O   0  0  0  0  0  1  0  0  0  0  0  0
  180.1650  181.9790  138.7560 C   0  0  0  0  0  1  0  0  0  0  0  0
  182.8530  177.2600  139.0790 C   0  0  2  0  0  3  0  0  0  0  0  0
  180.7370  179.4110  138.9090 C   0  0  2  0  0  3  0  0  0  0  0  0
  190.5780  177.0520  137.5150 C   0  0  0  0  0  2  0  0  0  0  0  0
  190.7430  175.9740  138.5310 C   0  0  0  0  0  0  0  0  0  0  0  0
  190.3990  176.2080  139.8550 O   0  0  0  0  0  1  0  0  0  0  0  0
  191.2170  174.8580  138.1930 O   0  0  0  0  0  0  0  0  0  0  0  0
  2 24  1  6  0  0  0
  2 27  1  0  0  0  0
  2 12  1  0  0  0  0
  3  4  1  0  0  0  0
  5 25  1  6  0  0  0
  5 27  1  0  0  0  0
  6  5  1  0  0  0  0
  6 28  1  0  0  0  0
  7 19  1  6  0  0  0
  7 24  1  0  0  0  0
  7 17  1  0  0  0  0
  8 12  1  0  0  0  0
  9 26  1  0  0  0  0
  9 28  1  0  0  0  0
 10 17  1  0  0  0  0
 11  3  1  0  0  0  0
 12 13  1  0  0  0  0
 13 22  1  0  0  0  0
 13 11  1  1  0  0  0
 14 23  1  6  0  0  0
 14 22  1  0  0  0  0
 15  9  2  0  0  0  0
 16  1  1  0  0  0  0
 17  8  2  0  0  0  0
 18 15  1  0  0  0  0
 18  6  2  0  0  0  0
 19 16  1  0  0  0  0
 20  1  1  0  0  0  0
 20 29  1  1  0  0  0
 20 10  1  0  0  0  0
 21  4  1  0  0  0  0
 22 21  1  1  0  0  0
 27 14  1  0  0  0  0
 28 23  1  0  0  0  0
 29 30  1  0  0  0  0
 30 31  1  0  0  0  0
 32 30  2  0  0  0  0
M  END
>  <MODEL>
3

>  <REMARK>
 VINA RESULT:      -7.6      3.434      6.977
  Name = 
  2 active torsions:
  status: ('A' for Active; 'I' for Inactive)
    1  A    between atoms: C_20  and  C_29
    2  A    between atoms: C_29  and  C_30
                            x       y       z     vdW  Elec       q    Type
                         _______ _______ _______ _____ _____    ______ ____

>  <TORSDO>
F 2

$$$$
=
 OpenBabel11122410383D

 32 37  0  0  1  0  0  0  0  0999 V2000
  189.9600  178.2190  144.4200 C   0  0  0  0  0  2  0  0  0  0  0  0
  186.7240  177.8070  140.6980 C   0  0  1  0  0  3  0  0  0  0  0  0
  190.2090  177.6330  137.0330 C   0  0  0  0  0  2  0  0  0  0  0  0
  189.0620  177.3840  136.0630 C   0  0  0  0  0  2  0  0  0  0  0  0
  184.5860  179.1660  140.1510 C   0  0  1  0  0  3  0  0  0  0  0  0
  183.7590  178.0160  139.6710 C   0  0  0  0  0  0  0  0  0  0  0  0
  187.4020  177.1460  142.9960 C   0  0  1  0  0  3  0  0  0  0  0  0
  188.9660  176.7510  141.1240 C   0  0  0  0  0  3  0  0  0  0  0  0
  183.1540  176.2360  138.4160 C   0  0  0  0  0  0  0  0  0  0  0  0
  189.7370  175.9410  143.2820 C   0  0  0  0  0  2  0  0  0  0  0  0
  189.8380  177.2030  138.4580 C   0  0  0  0  0  2  0  0  0  0  0  0
  188.0620  177.4080  140.2100 N   0  0  0  0  0  0  0  0  0  0  0  0
  188.3250  177.2680  138.7660 C   0  0  1  0  0  3  0  0  0  0  0  0
  186.1970  178.5600  138.3250 C   0  0  1  0  0  3  0  0  0  0  0  0
  182.7210  176.0250  139.6160 N   0  0  0  0  0  0  0  0  0  0  0  0
  188.5250  178.6270  144.7770 C   0  0  0  0  0  2  0  0  0  0  0  0
  188.7150  176.6470  142.4320 C   0  0  0  0  0  0  0  0  0  0  0  0
  183.1320  177.1230  140.4210 C   0  0  0  0  0  3  0  0  0  0  0  0
  187.4670  177.5570  144.4690 C   0  0  0  0  0  2  0  0  0  0  0  0
  190.1810  176.7070  144.5380 C   0  0  1  0  0  3  0  0  0  0  0  0
  187.8390  178.2240  136.4410 C   0  0  0  0  0  2  0  0  0  0  0  0
  187.6640  178.3960  137.9600 C   0  0  2  0  0  3  0  0  0  0  0  0
  185.3610  177.3100  137.9570 C   0  0  0  0  0  2  0  0  0  0  0  0
  186.8240  178.2710  142.1480 C   0  0  0  0  0  2  0  0  0  0  0  0
  184.3660  179.4470  141.5030 O   0  0  0  0  0  1  0  0  0  0  0  0
  182.8960  175.2880  137.2980 C   0  0  0  0  0  1  0  0  0  0  0  0
  186.0770  178.9080  139.8230 C   0  0  2  0  0  3  0  0  0  0  0  0
  183.8800  177.5310  138.2720 C   0  0  2  0  0  3  0  0  0  0  0  0
  191.6450  176.4020  144.8130 C   0  0  0  0  0  2  0  0  0  0  0  0
  191.8870  176.2550  146.2770 C   0  0  0  0  0  0  0  0  0  0  0  0
  192.3670  175.0560  146.7860 O   0  0  0  0  0  0  0  0  0  0  0  0
  191.6340  177.2110  147.0550 O   0  0  0  0  0  1  0  0  0  0  0  0
  1 20  1  0  0  0  0
  1 16  1  0  0  0  0
  2 24  1  1  0  0  0
  3 11  1  0  0  0  0
  4 21  1  0  0  0  0
  4  3  1  0  0  0  0
  5 25  1  1  0  0  0
  6  5  1  0  0  0  0
  6 18  2  0  0  0  0
  7 24  1  6  0  0  0
  7 19  1  0  0  0  0
  8 17  2  0  0  0  0
  9 15  2  0  0  0  0
 10 20  1  0  0  0  0
 12  2  1  0  0  0  0
 12  8  1  0  0  0  0
 13 11  1  1  0  0  0
 13 12  1  0  0  0  0
 14 23  1  1  0  0  0
 14 27  1  0  0  0  0
 15 18  1  0  0  0  0
 17  7  1  0  0  0  0
 17 10  1  0  0  0  0
 19 16  1  0  0  0  0
 20 29  1  6  0  0  0
 22 21  1  6  0  0  0
 22 14  1  0  0  0  0
 22 13  1  0  0  0  0
 23 28  1  0  0  0  0
 26  9  1  0  0  0  0
 27  5  1  0  0  0  0
 27  2  1  0  0  0  0
 28  9  1  0  0  0  0
 28  6  1  0  0  0  0
 29 30  1  0  0  0  0
 30 31  2  0  0  0  0
 30 32  1  0  0  0  0
M  END
>  <MODEL>
4

>  <REMARK>
 VINA RESULT:      -7.1      2.230      3.356
  Name = 
  2 active torsions:
  status: ('A' for Active; 'I' for Inactive)
    1  A    between atoms: C_20  and  C_29
    2  A    between atoms: C_29  and  C_30
                            x       y       z     vdW  Elec       q    Type
                         _______ _______ _______ _____ _____    ______ ____

>  <TORSDO>
F 2

$$$$
=
 OpenBabel11122410383D

 32 37  0  0  1  0  0  0  0  0999 V2000
  186.7950  175.7550  137.1500 C   0  0  0  0  0  2  0  0  0  0  0  0
  182.8290  177.9170  139.1760 C   0  0  1  0  0  3  0  0  0  0  0  0
  185.0390  178.9410  143.6110 C   0  0  0  0  0  2  0  0  0  0  0  0
  183.7600  179.6760  143.9890 C   0  0  0  0  0  2  0  0  0  0  0  0
  180.3590  177.1470  139.3030 C   0  0  1  0  0  3  0  0  0  0  0  0
  179.7390  178.4920  139.0930 C   0  0  0  0  0  0  0  0  0  0  0  0
  184.2830  177.6040  137.1840 C   0  0  1  0  0  3  0  0  0  0  0  0
  185.2880  178.4370  139.2820 C   0  0  0  0  0  3  0  0  0  0  0  0
  179.2570  180.6700  139.4610 C   0  0  0  0  0  0  0  0  0  0  0  0
  186.8240  178.2990  137.4030 C   0  0  0  0  0  2  0  0  0  0  0  0
  185.2140  178.8710  142.0890 C   0  0  0  0  0  2  0  0  0  0  0  0
  184.0260  178.2840  139.9660 N   0  0  0  0  0  0  0  0  0  0  0  0
  183.8860  178.9010  141.2970 C   0  0  1  0  0  3  0  0  0  0  0  0
  181.4710  178.1520  141.3140 C   0  0  1  0  0  3  0  0  0  0  0  0
  179.2560  180.4870  138.1820 N   0  0  0  0  0  0  0  0  0  0  0  0
  185.4700  175.4410  136.4450 C   0  0  0  0  0  2  0  0  0  0  0  0
  185.4590  178.0930  138.0030 C   0  0  0  0  0  0  0  0  0  0  0  0
  179.5960  179.1280  137.9410 C   0  0  0  0  0  3  0  0  0  0  0  0
  184.6670  176.6810  136.0240 C   0  0  0  0  0  2  0  0  0  0  0  0
  187.4080  177.0780  136.6760 C   0  0  1  0  0  3  0  0  0  0  0  0
  182.5300  178.9260  143.4680 C   0  0  0  0  0  2  0  0  0  0  0  0
  182.7640  178.2400  142.1110 C   0  0  2  0  0  3  0  0  0  0  0  0
  180.9010  179.5510  140.9730 C   0  0  0  0  0  2  0  0  0  0  0  0
  183.2260  176.9500  138.0640 C   0  0  0  0  0  2  0  0  0  0  0  0
  180.4750  176.4270  138.1110 O   0  0  0  0  0  1  0  0  0  0  0  0
  178.9310  181.9830  140.0790 C   0  0  0  0  0  1  0  0  0  0  0  0
  181.7070  177.3050  140.0470 C   0  0  2  0  0  3  0  0  0  0  0  0
  179.5670  179.4310  140.2320 C   0  0  2  0  0  3  0  0  0  0  0  0
  188.9160  177.0650  136.8620 C   0  0  0  0  0  2  0  0  0  0  0  0
  189.2800  177.4660  138.2500 C   0  0  0  0  0  0  0  0  0  0  0  0
  189.4170  178.8090  138.5740 O   0  0  0  0  0  0  0  0  0  0  0  0
  189.4890  176.5850  139.1260 O   0  0  0  0  0  1  0  0  0  0  0  0
  2 24  1  6  0  0  0
  2 12  1  0  0  0  0
  2 27  1  0  0  0  0
  3  4  1  0  0  0  0
  5 25  1  6  0  0  0
  5 27  1  0  0  0  0
  6  5  1  0  0  0  0
  6 28  1  0  0  0  0
  7 19  1  6  0  0  0
  7 17  1  0  0  0  0
  7 24  1  0  0  0  0
  8 12  1  0  0  0  0
  9 26  1  0  0  0  0
  9 28  1  0  0  0  0
 10 17  1  0  0  0  0
 11  3  1  0  0  0  0
 12 13  1  0  0  0  0
 13 11  1  1  0  0  0
 13 22  1  0  0  0  0
 14 23  1  6  0  0  0
 14 22  1  0  0  0  0
 15  9  2  0  0  0  0
 16  1  1  0  0  0  0
 17  8  2  0  0  0  0
 18 15  1  0  0  0  0
 18  6  2  0  0  0  0
 19 16  1  0  0  0  0
 20 29  1  1  0  0  0
 20  1  1  0  0  0  0
 20 10  1  0  0  0  0
 21  4  1  0  0  0  0
 22 21  1  1  0  0  0
 27 14  1  0  0  0  0
 28 23  1  0  0  0  0
 29 30  1  0  0  0  0
 30 31  2  0  0  0  0
 30 32  1  0  0  0  0
M  END
>  <MODEL>
5

>  <REMARK>
 VINA RESULT:      -6.9      3.683      7.420
  Name = 
  2 active torsions:
  status: ('A' for Active; 'I' for Inactive)
    1  A    between atoms: C_20  and  C_29
    2  A    between atoms: C_29  and  C_30
                            x       y       z     vdW  Elec       q    Type
                         _______ _______ _______ _____ _____    ______ ____

>  <TORSDO>
F 2

$$$$
=
 OpenBabel11122410383D

 32 37  0  0  1  0  0  0  0  0999 V2000
  186.9400  176.7810  145.1180 C   0  0  0  0  0  2  0  0  0  0  0  0
  183.8540  178.5780  141.6910 C   0  0  1  0  0  3  0  0  0  0  0  0
  179.6740  178.1250  144.5070 C   0  0  0  0  0  2  0  0  0  0  0  0
  178.9310  178.8180  143.3730 C   0  0  0  0  0  2  0  0  0  0  0  0
  183.5850  177.9960  139.1800 C   0  0  1  0  0  3  0  0  0  0  0  0
  183.3300  179.3890  138.6980 C   0  0  0  0  0  0  0  0  0  0  0  0
  186.0440  178.7320  142.8560 C   0  0  1  0  0  3  0  0  0  0  0  0
  183.9660  178.8550  144.1880 C   0  0  0  0  0  3  0  0  0  0  0  0
  182.3200  181.4030  138.5150 C   0  0  0  0  0  0  0  0  0  0  0  0
  186.0130  179.1380  145.4670 C   0  0  0  0  0  2  0  0  0  0  0  0
  181.1670  178.4770  144.4930 C   0  0  0  0  0  2  0  0  0  0  0  0
  183.1750  178.6110  143.0050 N   0  0  0  0  0  0  0  0  0  0  0  0
  181.7210  178.8340  143.0940 C   0  0  1  0  0  3  0  0  0  0  0  0
  181.5590  178.3000  140.6280 C   0  0  1  0  0  3  0  0  0  0  0  0
  183.5870  181.5920  138.3430 N   0  0  0  0  0  0  0  0  0  0  0  0
  187.5050  176.7840  143.6930 C   0  0  0  0  0  2  0  0  0  0  0  0
  185.3010  178.8760  144.1670 C   0  0  0  0  0  0  0  0  0  0  0  0
  184.2340  180.3360  138.4950 C   0  0  0  0  0  3  0  0  0  0  0  0
  187.4540  178.1500  142.9930 C   0  0  0  0  0  2  0  0  0  0  0  0
  187.1210  178.1330  145.8190 C   0  0  1  0  0  3  0  0  0  0  0  0
  179.4520  178.3450  142.0130 C   0  0  0  0  0  2  0  0  0  0  0  0
  180.9640  178.0580  142.0070 C   0  0  2  0  0  3  0  0  0  0  0  0
  181.4220  179.7770  140.1860 C   0  0  0  0  0  2  0  0  0  0  0  0
  185.2320  177.9390  141.8410 C   0  0  0  0  0  2  0  0  0  0  0  0
  184.9320  177.6380  139.0730 O   0  0  0  0  0  1  0  0  0  0  0  0
  181.3280  182.5080  138.4160 C   0  0  0  0  0  1  0  0  0  0  0  0
  183.0290  177.8320  140.6150 C   0  0  2  0  0  3  0  0  0  0  0  0
  181.9670  179.9760  138.7690 C   0  0  2  0  0  3  0  0  0  0  0  0
  187.1660  177.9510  147.3270 C   0  0  0  0  0  2  0  0  0  0  0  0
  188.5680  177.7630  147.7950 C   0  0  0  0  0  0  0  0  0  0  0  0
  189.2830  176.6350  147.4160 O   0  0  0  0  0  0  0  0  0  0  0  0
  189.0970  178.6160  148.5560 O   0  0  0  0  0  1  0  0  0  0  0  0
  1 20  1  0  0  0  0
  2 24  1  1  0  0  0
  2 12  1  0  0  0  0
  4  3  1  0  0  0  0
  5 25  1  1  0  0  0
  5 27  1  0  0  0  0
  6 28  1  0  0  0  0
  6  5  1  0  0  0  0
  7 24  1  6  0  0  0
  7 19  1  0  0  0  0
  7 17  1  0  0  0  0
  9 28  1  0  0  0  0
 10 20  1  0  0  0  0
 11  3  1  0  0  0  0
 12 13  1  0  0  0  0
 12  8  1  0  0  0  0
 13 11  1  1  0  0  0
 14 23  1  1  0  0  0
 14 22  1  0  0  0  0
 15 18  1  0  0  0  0
 15  9  2  0  0  0  0
 16  1  1  0  0  0  0
 17  8  2  0  0  0  0
 17 10  1  0  0  0  0
 18  6  2  0  0  0  0
 19 16  1  0  0  0  0
 20 29  1  1  0  0  0
 21  4  1  0  0  0  0
 22 21  1  6  0  0  0
 22 13  1  0  0  0  0
 26  9  1  0  0  0  0
 27 14  1  0  0  0  0
 27  2  1  0  0  0  0
 28 23  1  0  0  0  0
 29 30  1  0  0  0  0
 30 32  1  0  0  0  0
 31 30  2  0  0  0  0
M  END
>  <MODEL>
6

>  <REMARK>
 VINA RESULT:      -6.7      3.260      6.139
  Name = 
  2 active torsions:
  status: ('A' for Active; 'I' for Inactive)
    1  A    between atoms: C_20  and  C_29
    2  A    between atoms: C_29  and  C_30
                            x       y       z     vdW  Elec       q    Type
                         _______ _______ _______ _____ _____    ______ ____

>  <TORSDO>
F 2

$$$$
=
 OpenBabel11122410383D

 32 37  0  0  1  0  0  0  0  0999 V2000
  185.6250  179.8870  145.1050 C   0  0  0  0  0  2  0  0  0  0  0  0
  184.6590  178.2840  140.5220 C   0  0  1  0  0  3  0  0  0  0  0  0
  189.4310  178.6100  138.8700 C   0  0  0  0  0  2  0  0  0  0  0  0
  188.9410  177.9800  137.5740 C   0  0  0  0  0  2  0  0  0  0  0  0
  182.8330  178.9960  138.8270 C   0  0  1  0  0  3  0  0  0  0  0  0
  182.5450  177.6310  138.2870 C   0  0  0  0  0  0  0  0  0  0  0  0
  184.2750  178.0600  142.9680 C   0  0  1  0  0  3  0  0  0  0  0  0
  186.5790  177.8780  142.0940 C   0  0  0  0  0  3  0  0  0  0  0  0
  182.9260  175.6340  137.2980 C   0  0  0  0  0  0  0  0  0  0  0  0
  186.3680  177.5190  144.4890 C   0  0  0  0  0  2  0  0  0  0  0  0
  188.5130  178.2530  140.0460 C   0  0  0  0  0  2  0  0  0  0  0  0
  186.1150  178.1860  140.7620 N   0  0  0  0  0  0  0  0  0  0  0  0
  187.0480  177.9660  139.6420 C   0  0  1  0  0  3  0  0  0  0  0  0
  185.1920  178.6280  138.0580 C   0  0  1  0  0  3  0  0  0  0  0  0
  182.0220  175.4480  138.2040 N   0  0  0  0  0  0  0  0  0  0  0  0
  184.1460  179.9550  144.7060 C   0  0  0  0  0  2  0  0  0  0  0  0
  185.7640  177.8520  143.1510 C   0  0  0  0  0  0  0  0  0  0  0  0
  181.8050  176.6930  138.8570 C   0  0  0  0  0  3  0  0  0  0  0  0
  183.5640  178.6270  144.2000 C   0  0  0  0  0  2  0  0  0  0  0  0
  186.0250  178.5000  145.6210 C   0  0  1  0  0  3  0  0  0  0  0  0
  187.5590  178.5210  137.1950 C   0  0  0  0  0  2  0  0  0  0  0  0
  186.6610  178.8010  138.4130 C   0  0  2  0  0  3  0  0  0  0  0  0
  184.8620  177.1760  137.6330 C   0  0  0  0  0  2  0  0  0  0  0  0
  183.9790  178.9080  141.7380 C   0  0  0  0  0  2  0  0  0  0  0  0
  181.9550  179.3530  139.8550 O   0  0  0  0  0  1  0  0  0  0  0  0
  183.3960  174.5410  136.4060 C   0  0  0  0  0  1  0  0  0  0  0  0
  184.3200  179.0890  139.2440 C   0  0  2  0  0  3  0  0  0  0  0  0
  183.3950  177.0480  137.2170 C   0  0  2  0  0  3  0  0  0  0  0  0
  187.2130  178.6040  146.5640 C   0  0  0  0  0  2  0  0  0  0  0  0
  188.3820  177.8510  146.0250 C   0  0  0  0  0  0  0  0  0  0  0  0
  188.8480  176.7230  146.6870 O   0  0  0  0  0  1  0  0  0  0  0  0
  188.9620  178.2530  144.9830 O   0  0  0  0  0  0  0  0  0  0  0  0
  1 20  1  0  0  0  0
  2 12  1  0  0  0  0
  2 24  1  1  0  0  0
  3 11  1  0  0  0  0
  4  3  1  0  0  0  0
  5 27  1  0  0  0  0
  5 25  1  1  0  0  0
  6  5  1  0  0  0  0
  6 18  2  0  0  0  0
  7 24  1  6  0  0  0
  7 17  1  0  0  0  0
  7 19  1  0  0  0  0
  8 17  2  0  0  0  0
  9 15  2  0  0  0  0
 10 20  1  0  0  0  0
 12  8  1  0  0  0  0
 13 11  1  1  0  0  0
 13 12  1  0  0  0  0
 14 23  1  1  0  0  0
 14 22  1  0  0  0  0
 14 27  1  0  0  0  0
 15 18  1  0  0  0  0
 16  1  1  0  0  0  0
 17 10  1  0  0  0  0
 19 16  1  0  0  0  0
 20 29  1  1  0  0  0
 21  4  1  0  0  0  0
 22 21  1  6  0  0  0
 22 13  1  0  0  0  0
 26  9  1  0  0  0  0
 27  2  1  0  0  0  0
 28  9  1  0  0  0  0
 28 23  1  0  0  0  0
 28  6  1  0  0  0  0
 30 29  1  0  0  0  0
 30 31  1  0  0  0  0
 32 30  2  0  0  0  0
M  END
>  <MODEL>
7

>  <REMARK>
 VINA RESULT:      -6.5      1.654      2.403
  Name = 
  2 active torsions:
  status: ('A' for Active; 'I' for Inactive)
    1  A    between atoms: C_20  and  C_29
    2  A    between atoms: C_29  and  C_30
                            x       y       z     vdW  Elec       q    Type
                         _______ _______ _______ _____ _____    ______ ____

>  <TORSDO>
F 2

$$$$
=
 OpenBabel11122410383D

 32 37  0  0  1  0  0  0  0  0999 V2000
  183.9440  174.2030  134.5940 C   0  0  0  0  0  2  0  0  0  0  0  0
  183.8050  176.9190  138.7310 C   0  0  1  0  0  3  0  0  0  0  0  0
  178.9310  176.0160  139.7480 C   0  0  0  0  0  2  0  0  0  0  0  0
  179.1400  176.7870  141.0440 C   0  0  0  0  0  2  0  0  0  0  0  0
  184.6220  179.3330  139.2020 C   0  0  1  0  0  3  0  0  0  0  0  0
  185.1460  179.0800  140.5800 C   0  0  0  0  0  0  0  0  0  0  0  0
  185.0300  175.2890  137.3090 C   0  0  1  0  0  3  0  0  0  0  0  0
  182.7620  174.7170  138.1090 C   0  0  0  0  0  3  0  0  0  0  0  0
  185.1390  178.4740  142.7580 C   0  0  0  0  0  0  0  0  0  0  0  0
  183.8630  172.9660  136.8300 C   0  0  0  0  0  2  0  0  0  0  0  0
  180.2510  175.4350  139.2240 C   0  0  0  0  0  2  0  0  0  0  0  0
  182.6290  176.0210  138.7120 N   0  0  0  0  0  0  0  0  0  0  0  0
  181.5050  176.2360  139.6410 C   0  0  1  0  0  3  0  0  0  0  0  0
  182.4030  178.5590  140.0790 C   0  0  1  0  0  3  0  0  0  0  0  0
  186.2990  178.1670  142.2780 N   0  0  0  0  0  0  0  0  0  0  0  0
  185.0970  175.2050  134.7370 C   0  0  0  0  0  2  0  0  0  0  0  0
  183.8430  174.3540  137.4130 C   0  0  0  0  0  0  0  0  0  0  0  0
  186.2980  178.5100  140.8980 C   0  0  0  0  0  3  0  0  0  0  0  0
  185.8800  175.0860  136.0520 C   0  0  0  0  0  2  0  0  0  0  0  0
  184.2190  172.8910  135.3370 C   0  0  1  0  0  3  0  0  0  0  0  0
  180.0590  177.9910  140.8170 C   0  0  0  0  0  2  0  0  0  0  0  0
  181.1650  177.7270  139.7800 C   0  0  2  0  0  3  0  0  0  0  0  0
  183.0310  178.1980  141.4470 C   0  0  0  0  0  2  0  0  0  0  0  0
  184.6040  176.7450  137.4420 C   0  0  0  0  0  2  0  0  0  0  0  0
  185.6220  179.2320  138.2300 O   0  0  0  0  0  1  0  0  0  0  0  0
  184.7870  178.2620  144.1880 C   0  0  0  0  0  1  0  0  0  0  0  0
  183.4150  178.4040  138.9250 C   0  0  2  0  0  3  0  0  0  0  0  0
  184.2320  179.0970  141.7510 C   0  0  2  0  0  3  0  0  0  0  0  0
  183.4480  171.7460  134.7010 C   0  0  0  0  0  2  0  0  0  0  0  0
  183.8050  170.4480  135.3410 C   0  0  0  0  0  0  0  0  0  0  0  0
  185.1310  170.0380  135.3900 O   0  0  0  0  0  0  0  0  0  0  0  0
  182.9020  169.7110  135.8160 O   0  0  0  0  0  1  0  0  0  0  0  0
  1 16  1  0  0  0  0
  1 20  1  0  0  0  0
  2 24  1  6  0  0  0
  2 27  1  0  0  0  0
  3  4  1  0  0  0  0
  5 25  1  6  0  0  0
  5  6  1  0  0  0  0
  6 18  2  0  0  0  0
  6 28  1  0  0  0  0
  7 19  1  6  0  0  0
  7 17  1  0  0  0  0
  7 24  1  0  0  0  0
  8 12  1  0  0  0  0
  9 26  1  0  0  0  0
 10 17  1  0  0  0  0
 11  3  1  0  0  0  0
 12  2  1  0  0  0  0
 12 13  1  0  0  0  0
 13 11  1  6  0  0  0
 13 22  1  0  0  0  0
 14 23  1  1  0  0  0
 15  9  2  0  0  0  0
 16 19  1  0  0  0  0
 17  8  2  0  0  0  0
 18 15  1  0  0  0  0
 20 29  1  6  0  0  0
 20 10  1  0  0  0  0
 21  4  1  0  0  0  0
 22 14  1  0  0  0  0
 22 21  1  1  0  0  0
 23 28  1  0  0  0  0
 27  5  1  0  0  0  0
 27 14  1  0  0  0  0
 28  9  1  0  0  0  0
 29 30  1  0  0  0  0
 30 31  2  0  0  0  0
 30 32  1  0  0  0  0
M  END
>  <MODEL>
8

>  <REMARK>
 VINA RESULT:      -6.3      3.844      8.955
  Name = 
  2 active torsions:
  status: ('A' for Active; 'I' for Inactive)
    1  A    between atoms: C_20  and  C_29
    2  A    between atoms: C_29  and  C_30
                            x       y       z     vdW  Elec       q    Type
                         _______ _______ _______ _____ _____    ______ ____

>  <TORSDO>
F 2

$$$$
=
 OpenBabel11122410383D

 32 37  0  0  1  0  0  0  0  0999 V2000
  188.5250  177.1160  135.3880 C   0  0  0  0  0  2  0  0  0  0  0  0
  184.0040  175.6490  136.7700 C   0  0  1  0  0  3  0  0  0  0  0  0
  184.6500  170.7960  135.4920 C   0  0  0  0  0  2  0  0  0  0  0  0
  183.2750  170.5360  136.0950 C   0  0  0  0  0  2  0  0  0  0  0  0
  181.6670  176.6450  136.2550 C   0  0  1  0  0  3  0  0  0  0  0  0
  181.0660  176.4000  137.6030 C   0  0  0  0  0  0  0  0  0  0  0  0
  186.0240  177.0170  137.2480 C   0  0  1  0  0  3  0  0  0  0  0  0
  186.2700  174.5750  136.9580 C   0  0  0  0  0  3  0  0  0  0  0  0
  180.3650  175.2520  139.4200 C   0  0  0  0  0  0  0  0  0  0  0  0
  188.3220  175.7430  137.5350 C   0  0  0  0  0  2  0  0  0  0  0  0
  185.2960  172.0500  136.0950 C   0  0  0  0  0  2  0  0  0  0  0  0
  184.8690  174.4560  136.6320 N   0  0  0  0  0  0  0  0  0  0  0  0
  184.2830  173.1040  136.5990 C   0  0  1  0  0  3  0  0  0  0  0  0
  182.0330  174.1650  136.1470 C   0  0  1  0  0  3  0  0  0  0  0  0
  180.7750  176.4080  139.8300 N   0  0  0  0  0  0  0  0  0  0  0  0
  187.5080  178.2530  135.5460 C   0  0  0  0  0  2  0  0  0  0  0  0
  186.8520  175.7500  137.2080 C   0  0  0  0  0  0  0  0  0  0  0  0
  181.2530  177.1220  138.6970 C   0  0  0  0  0  3  0  0  0  0  0  0
  186.8050  178.2890  136.9110 C   0  0  0  0  0  2  0  0  0  0  0  0
  189.1750  176.7280  136.7210 C   0  0  1  0  0  3  0  0  0  0  0  0
  182.3170  171.6870  135.7740 C   0  0  0  0  0  2  0  0  0  0  0  0
  183.0040  173.0640  135.7500 C   0  0  2  0  0  3  0  0  0  0  0  0
  181.5170  173.9920  137.5970 C   0  0  0  0  0  2  0  0  0  0  0  0
  184.7850  176.8980  136.3700 C   0  0  0  0  0  2  0  0  0  0  0  0
  182.1940  177.9340  136.1370 O   0  0  0  0  0  1  0  0  0  0  0  0
  179.7840  174.2400  140.3420 C   0  0  0  0  0  1  0  0  0  0  0  0
  182.7030  175.5390  135.9390 C   0  0  2  0  0  3  0  0  0  0  0  0
  180.4910  175.0740  137.9440 C   0  0  2  0  0  3  0  0  0  0  0  0
  190.5480  176.1180  136.4860 C   0  0  0  0  0  2  0  0  0  0  0  0
  191.1700  175.7070  137.7770 C   0  0  0  0  0  0  0  0  0  0  0  0
  191.4290  176.6540  138.7580 O   0  0  0  0  0  1  0  0  0  0  0  0
  191.4850  174.5030  137.9690 O   0  0  0  0  0  0  0  0  0  0  0  0
  1 16  1  0  0  0  0
  1 20  1  0  0  0  0
  2 24  1  6  0  0  0
  3  4  1  0  0  0  0
  3 11  1  0  0  0  0
  5 25  1  1  0  0  0
  5  6  1  0  0  0  0
  6 28  1  0  0  0  0
  6 18  2  0  0  0  0
  7 24  1  6  0  0  0
  8 17  2  0  0  0  0
  9 15  2  0  0  0  0
  9 26  1  0  0  0  0
 12  2  1  0  0  0  0
 12  8  1  0  0  0  0
 13 11  1  6  0  0  0
 13 12  1  0  0  0  0
 14 23  1  1  0  0  0
 16 19  1  0  0  0  0
 17  7  1  0  0  0  0
 17 10  1  0  0  0  0
 18 15  1  0  0  0  0
 19  7  1  0  0  0  0
 20 29  1  6  0  0  0
 20 10  1  0  0  0  0
 21  4  1  0  0  0  0
 22 21  1  1  0  0  0
 22 14  1  0  0  0  0
 22 13  1  0  0  0  0
 23 28  1  0  0  0  0
 27 14  1  0  0  0  0
 27  5  1  0  0  0  0
 27  2  1  0  0  0  0
 28  9  1  0  0  0  0
 29 30  1  0  0  0  0
 30 32  2  0  0  0  0
 30 31  1  0  0  0  0
M  END
>  <MODEL>
9

>  <REMARK>
 VINA RESULT:      -6.0      5.268      7.842
  Name = 
  2 active torsions:
  status: ('A' for Active; 'I' for Inactive)
    1  A    between atoms: C_20  and  C_29
    2  A    between atoms: C_29  and  C_30
                            x       y       z     vdW  Elec       q    Type
                         _______ _______ _______ _____ _____    ______ ____

>  <TORSDO>
F 2

$$$$
