=
 OpenBabel11122411573D

 28 32  0  0  1  0  0  0  0  0999 V2000
  185.1570  175.9780  135.9020 C   0  0  0  0  0  0  0  0  0  0  0  0
  181.9430  179.3180  137.7640 F   0  0  0  0  0  0  0  0  0  0  0  0
  188.0260  177.9750  139.7360 O   0  0  0  0  0  0  0  0  0  0  0  0
  184.8840  173.6830  137.5480 C   0  0  0  0  0  3  0  0  0  0  0  0
  185.8240  178.6840  140.1500 N   0  0  0  0  0  0  0  0  0  0  0  0
  185.4420  177.1620  135.2200 O   0  0  0  0  0  0  0  0  0  0  0  0
  180.7340  177.3470  137.3020 C   0  0  0  0  0  1  0  0  0  0  0  0
  181.5900  178.0910  138.3070 C   0  0  1  0  0  0  0  0  0  0  0  0
  181.5830  179.0460  140.6140 C   0  0  1  0  0  3  0  0  0  0  0  0
  182.8450  177.2440  138.6300 C   0  0  2  0  0  3  0  0  0  0  0  0
  188.4410  176.5050  136.2940 C   0  0  0  0  0  1  0  0  0  0  0  0
  184.9320  178.3870  137.9600 C   0  0  1  0  0  3  0  0  0  0  0  0
  182.7270  178.1430  141.0500 C   0  0  0  0  0  2  0  0  0  0  0  0
  180.7530  178.3320  139.5590 C   0  0  0  0  0  2  0  0  0  0  0  0
  187.7480  177.7600  135.7870 C   0  0  2  0  0  3  0  0  0  0  0  0
  184.4020  176.0270  137.0160 C   0  0  0  0  0  0  0  0  0  0  0  0
  186.8530  178.1820  139.3250 C   0  0  0  0  0  0  0  0  0  0  0  0
  180.7130  179.3680  141.8100 C   0  0  0  0  0  1  0  0  0  0  0  0
  187.2180  178.6520  136.9210 C   0  0  0  0  0  2  0  0  0  0  0  0
  184.1700  174.7840  137.7900 C   0  0  0  0  0  3  0  0  0  0  0  0
  185.6820  174.6580  135.3910 C   0  0  0  0  0  2  0  0  0  0  0  0
  186.0040  173.7100  136.5490 C   0  0  0  0  0  2  0  0  0  0  0  0
  186.7290  177.4460  134.6850 C   0  0  0  0  0  2  0  0  0  0  0  0
  184.5820  178.7820  139.4080 C   0  0  1  0  0  3  0  0  0  0  0  0
  186.3910  177.8830  137.9540 C   0  0  2  0  0  3  0  0  0  0  0  0
  183.6060  177.7160  139.8720 C   0  0  2  0  0  3  0  0  0  0  0  0
  185.9970  179.1120  141.5280 C   0  0  0  0  0  1  0  0  0  0  0  0
  183.8690  177.3610  137.5010 C   0  0  1  0  0  3  0  0  0  0  0  0
  1 16  2  0  0  0  0
  2  8  1  0  0  0  0
  4 20  2  0  0  0  0
  5 27  1  0  0  0  0
  6  1  1  0  0  0  0
  8  7  1  6  0  0  0
  8 10  1  0  0  0  0
  8 14  1  0  0  0  0
  9 13  1  0  0  0  0
  9 18  1  1  0  0  0
 10 26  1  0  0  0  0
 12 24  1  0  0  0  0
 14  9  1  0  0  0  0
 15 11  1  0  0  0  0
 15 19  1  0  0  0  0
 16 28  1  0  0  0  0
 16 20  1  0  0  0  0
 17  3  2  0  0  0  0
 17  5  1  0  0  0  0
 19 25  1  0  0  0  0
 21  1  1  0  0  0  0
 21 22  1  0  0  0  0
 22  4  1  0  0  0  0
 23  6  1  0  0  0  0
 23 15  1  0  0  0  0
 24 26  1  0  0  0  0
 24  5  1  0  0  0  0
 25 12  1  0  0  0  0
 25 17  1  0  0  0  0
 26 13  1  0  0  0  0
 28 12  1  0  0  0  0
 28 10  1  0  0  0  0
M  END
>  <MODEL>
1

>  <REMARK>
 VINA RESULT:      -6.1      0.000      0.000
  Name = 
  0 active torsions:
  status: ('A' for Active; 'I' for Inactive)
                            x       y       z     vdW  Elec       q    Type
                         _______ _______ _______ _____ _____    ______ ____

>  <TORSDO>
F 0

$$$$
=
 OpenBabel11122411573D

 28 32  0  0  1  0  0  0  0  0999 V2000
  189.5170  178.0550  137.9390 C   0  0  0  0  0  0  0  0  0  0  0  0
  192.6010  175.9940  134.5940 F   0  0  0  0  0  0  0  0  0  0  0  0
  186.7660  173.8610  136.6170 O   0  0  0  0  0  0  0  0  0  0  0  0
  190.0560  176.7080  140.3780 C   0  0  0  0  0  3  0  0  0  0  0  0
  188.9340  173.4890  135.7910 N   0  0  0  0  0  0  0  0  0  0  0  0
  189.1070  178.5780  136.7120 O   0  0  0  0  0  0  0  0  0  0  0  0
  193.9140  176.7510  136.4010 C   0  0  0  0  0  1  0  0  0  0  0  0
  193.0730  175.6190  135.8430 C   0  0  1  0  0  0  0  0  0  0  0  0
  193.1600  173.2200  135.1570 C   0  0  1  0  0  3  0  0  0  0  0  0
  191.9040  175.3290  136.8150 C   0  0  2  0  0  3  0  0  0  0  0  0
  186.2360  177.4240  137.7150 C   0  0  0  0  0  1  0  0  0  0  0  0
  189.7040  175.7440  135.7680 C   0  0  1  0  0  3  0  0  0  0  0  0
  192.1130  172.8310  136.1890 C   0  0  0  0  0  2  0  0  0  0  0  0
  193.9690  174.3960  135.6820 C   0  0  0  0  0  2  0  0  0  0  0  0
  186.8050  177.8180  136.3610 C   0  0  2  0  0  3  0  0  0  0  0  0
  190.3370  176.9870  137.9590 C   0  0  0  0  0  0  0  0  0  0  0  0
  187.8930  174.3090  136.2750 C   0  0  0  0  0  0  0  0  0  0  0  0
  194.0790  172.0450  134.9070 C   0  0  0  0  0  1  0  0  0  0  0  0
  187.3430  176.6180  135.5650 C   0  0  0  0  0  2  0  0  0  0  0  0
  190.7050  176.3780  139.2590 C   0  0  0  0  0  3  0  0  0  0  0  0
  189.0550  178.6880  139.2300 C   0  0  0  0  0  2  0  0  0  0  0  0
  188.8750  177.6340  140.3250 C   0  0  0  0  0  2  0  0  0  0  0  0
  187.7720  179.0030  136.4690 C   0  0  0  0  0  2  0  0  0  0  0  0
  190.1160  174.2820  135.5140 C   0  0  1  0  0  3  0  0  0  0  0  0
  188.2860  175.7290  136.3800 C   0  0  2  0  0  3  0  0  0  0  0  0
  191.1930  174.0010  136.5470 C   0  0  2  0  0  3  0  0  0  0  0  0
  188.8200  172.0630  135.5360 C   0  0  0  0  0  1  0  0  0  0  0  0
  190.8050  176.3780  136.6510 C   0  0  1  0  0  3  0  0  0  0  0  0
  1 16  2  0  0  0  0
  1 21  1  0  0  0  0
  2  8  1  0  0  0  0
  5 17  1  0  0  0  0
  6  1  1  0  0  0  0
  8  7  1  1  0  0  0
  8 10  1  0  0  0  0
  9 18  1  1  0  0  0
  9 14  1  0  0  0  0
  9 13  1  0  0  0  0
 12 25  1  0  0  0  0
 12 28  1  0  0  0  0
 13 26  1  0  0  0  0
 14  8  1  0  0  0  0
 15 23  1  0  0  0  0
 15 11  1  0  0  0  0
 16 20  1  0  0  0  0
 17 25  1  0  0  0  0
 17  3  2  0  0  0  0
 19 15  1  0  0  0  0
 19 25  1  0  0  0  0
 20  4  2  0  0  0  0
 21 22  1  0  0  0  0
 22  4  1  0  0  0  0
 23  6  1  0  0  0  0
 24 12  1  0  0  0  0
 24  5  1  0  0  0  0
 24 26  1  0  0  0  0
 26 10  1  0  0  0  0
 27  5  1  0  0  0  0
 28 10  1  0  0  0  0
 28 16  1  0  0  0  0
M  END
>  <MODEL>
2

>  <REMARK>
 VINA RESULT:      -5.9      4.364      8.634
  Name = 
  0 active torsions:
  status: ('A' for Active; 'I' for Inactive)
                            x       y       z     vdW  Elec       q    Type
                         _______ _______ _______ _____ _____    ______ ____

>  <TORSDO>
F 0

$$$$
=
 OpenBabel11122411573D

 28 32  0  0  1  0  0  0  0  0999 V2000
  186.8410  174.8630  135.5940 C   0  0  0  0  0  0  0  0  0  0  0  0
  182.7140  177.6770  135.5760 F   0  0  0  0  0  0  0  0  0  0  0  0
  187.8890  178.0560  139.5470 O   0  0  0  0  0  0  0  0  0  0  0  0
  186.3770  172.8730  137.5640 C   0  0  0  0  0  3  0  0  0  0  0  0
  185.5970  178.3220  139.1010 N   0  0  0  0  0  0  0  0  0  0  0  0
  187.1570  175.9490  134.7760 O   0  0  0  0  0  0  0  0  0  0  0  0
  182.0510  175.4390  135.2370 C   0  0  0  0  0  1  0  0  0  0  0  0
  182.3890  176.5120  136.2550 C   0  0  1  0  0  0  0  0  0  0  0  0
  181.4500  177.8150  138.1660 C   0  0  1  0  0  3  0  0  0  0  0  0
  183.5720  176.0280  137.1270 C   0  0  2  0  0  3  0  0  0  0  0  0
  189.6730  176.1580  136.8270 C   0  0  0  0  0  1  0  0  0  0  0  0
  185.5610  177.4740  136.8750 C   0  0  1  0  0  3  0  0  0  0  0  0
  182.5000  177.2720  139.1230 C   0  0  0  0  0  2  0  0  0  0  0  0
  181.1490  176.7680  137.1040 C   0  0  0  0  0  2  0  0  0  0  0  0
  189.0110  177.1270  135.8590 C   0  0  2  0  0  3  0  0  0  0  0  0
  185.7540  174.9300  136.3850 C   0  0  0  0  0  0  0  0  0  0  0  0
  186.9100  177.9280  138.7640 C   0  0  0  0  0  0  0  0  0  0  0  0
  180.1860  178.1330  138.9350 C   0  0  0  0  0  1  0  0  0  0  0  0
  187.9960  178.0570  136.5420 C   0  0  0  0  0  2  0  0  0  0  0  0
  185.4640  173.8150  137.3180 C   0  0  0  0  0  3  0  0  0  0  0  0
  187.7040  173.6250  135.5850 C   0  0  0  0  0  2  0  0  0  0  0  0
  187.7540  172.9780  136.9720 C   0  0  0  0  0  2  0  0  0  0  0  0
  188.4890  176.4160  134.6050 C   0  0  0  0  0  2  0  0  0  0  0  0
  184.6830  178.0180  138.0170 C   0  0  1  0  0  3  0  0  0  0  0  0
  186.9940  177.3100  137.4260 C   0  0  2  0  0  3  0  0  0  0  0  0
  183.7830  176.8580  138.3970 C   0  0  2  0  0  3  0  0  0  0  0  0
  185.2220  179.0030  140.3290 C   0  0  0  0  0  1  0  0  0  0  0  0
  184.8890  176.1770  136.3660 C   0  0  1  0  0  3  0  0  0  0  0  0
  1 16  2  0  0  0  0
  2  8  1  0  0  0  0
  5 27  1  0  0  0  0
  6  1  1  0  0  0  0
  8  7  1  6  0  0  0
  8 14  1  0  0  0  0
  8 10  1  0  0  0  0
  9 18  1  1  0  0  0
  9 13  1  0  0  0  0
 10 26  1  0  0  0  0
 12 25  1  0  0  0  0
 12 24  1  0  0  0  0
 14  9  1  0  0  0  0
 15 19  1  0  0  0  0
 15 11  1  0  0  0  0
 16 20  1  0  0  0  0
 17  5  1  0  0  0  0
 17  3  2  0  0  0  0
 19 25  1  0  0  0  0
 20  4  2  0  0  0  0
 21  1  1  0  0  0  0
 21 22  1  0  0  0  0
 22  4  1  0  0  0  0
 23  6  1  0  0  0  0
 23 15  1  0  0  0  0
 24 26  1  0  0  0  0
 24  5  1  0  0  0  0
 25 17  1  0  0  0  0
 26 13  1  0  0  0  0
 28 16  1  0  0  0  0
 28 12  1  0  0  0  0
 28 10  1  0  0  0  0
M  END
>  <MODEL>
3

>  <REMARK>
 VINA RESULT:      -5.3      1.421      2.005
  Name = 
  0 active torsions:
  status: ('A' for Active; 'I' for Inactive)
                            x       y       z     vdW  Elec       q    Type
                         _______ _______ _______ _____ _____    ______ ____

>  <TORSDO>
F 0

$$$$
=
 OpenBabel11122411573D

 28 32  0  0  1  0  0  0  0  0999 V2000
  179.9740  179.3160  139.4060 C   0  0  0  0  0  0  0  0  0  0  0  0
  183.3170  175.9970  137.7480 F   0  0  0  0  0  0  0  0  0  0  0  0
  183.5520  179.6690  143.1460 O   0  0  0  0  0  0  0  0  0  0  0  0
  180.9220  181.8380  138.5140 C   0  0  0  0  0  3  0  0  0  0  0  0
  184.5870  178.5180  141.3790 N   0  0  0  0  0  0  0  0  0  0  0  0
  179.6120  178.1150  140.0170 O   0  0  0  0  0  0  0  0  0  0  0  0
  182.5700  177.2440  135.8900 C   0  0  0  0  0  1  0  0  0  0  0  0
  183.5510  177.1700  137.0450 C   0  0  1  0  0  0  0  0  0  0  0  0
  185.9850  177.0860  137.5940 C   0  0  1  0  0  3  0  0  0  0  0  0
  183.3590  178.4090  137.9520 C   0  0  2  0  0  3  0  0  0  0  0  0
  179.8240  179.9550  142.6900 C   0  0  0  0  0  1  0  0  0  0  0  0
  182.6320  177.7840  140.2310 C   0  0  1  0  0  3  0  0  0  0  0  0
  185.9050  178.3800  138.3890 C   0  0  0  0  0  2  0  0  0  0  0  0
  184.9620  177.1250  136.4690 C   0  0  0  0  0  2  0  0  0  0  0  0
  179.8450  178.4570  142.4300 C   0  0  2  0  0  3  0  0  0  0  0  0
  181.1840  179.4210  138.8260 C   0  0  0  0  0  0  0  0  0  0  0  0
  183.4630  178.9970  142.0840 C   0  0  0  0  0  0  0  0  0  0  0  0
  187.3730  176.9400  137.0100 C   0  0  0  0  0  1  0  0  0  0  0  0
  181.2680  177.8810  142.3540 C   0  0  0  0  0  2  0  0  0  0  0  0
  181.6060  180.7210  138.2530 C   0  0  0  0  0  3  0  0  0  0  0  0
  179.0150  180.4820  139.3880 C   0  0  0  0  0  2  0  0  0  0  0  0
  179.7650  181.8130  139.4720 C   0  0  0  0  0  2  0  0  0  0  0  0
  178.9310  178.0650  141.2630 C   0  0  0  0  0  2  0  0  0  0  0  0
  184.1710  177.8120  140.1820 C   0  0  1  0  0  3  0  0  0  0  0  0
  182.1870  178.6680  141.4170 C   0  0  2  0  0  3  0  0  0  0  0  0
  184.5020  178.6290  138.9470 C   0  0  2  0  0  3  0  0  0  0  0  0
  185.9650  178.6480  141.8220 C   0  0  0  0  0  1  0  0  0  0  0  0
  182.1260  178.2310  138.8390 C   0  0  1  0  0  3  0  0  0  0  0  0
  1  6  1  0  0  0  0
  4 22  1  0  0  0  0
  5 27  1  0  0  0  0
  5 17  1  0  0  0  0
  6 23  1  0  0  0  0
  8  7  1  6  0  0  0
  8  2  1  0  0  0  0
  8 10  1  0  0  0  0
  9 18  1  6  0  0  0
  9 13  1  0  0  0  0
 10 28  1  0  0  0  0
 10 26  1  0  0  0  0
 12 25  1  0  0  0  0
 13 26  1  0  0  0  0
 14  8  1  0  0  0  0
 14  9  1  0  0  0  0
 15 11  1  0  0  0  0
 16 28  1  0  0  0  0
 16  1  2  0  0  0  0
 17  3  2  0  0  0  0
 19 15  1  0  0  0  0
 20  4  2  0  0  0  0
 20 16  1  0  0  0  0
 21  1  1  0  0  0  0
 21 22  1  0  0  0  0
 23 15  1  0  0  0  0
 24 12  1  0  0  0  0
 24  5  1  0  0  0  0
 25 17  1  0  0  0  0
 25 19  1  0  0  0  0
 26 24  1  0  0  0  0
 28 12  1  0  0  0  0
M  END
>  <MODEL>
4

>  <REMARK>
 VINA RESULT:      -5.2      2.552      6.428
  Name = 
  0 active torsions:
  status: ('A' for Active; 'I' for Inactive)
                            x       y       z     vdW  Elec       q    Type
                         _______ _______ _______ _____ _____    ______ ____

>  <TORSDO>
F 0

$$$$
=
 OpenBabel11122411573D

 28 32  0  0  1  0  0  0  0  0999 V2000
  179.9850  178.6270  137.1260 C   0  0  0  0  0  0  0  0  0  0  0  0
  182.5370  174.3450  137.4470 F   0  0  0  0  0  0  0  0  0  0  0  0
  184.4580  180.3690  139.0940 O   0  0  0  0  0  0  0  0  0  0  0  0
  180.8130  179.8060  134.6810 C   0  0  0  0  0  3  0  0  0  0  0  0
  184.9000  178.1900  138.3330 N   0  0  0  0  0  0  0  0  0  0  0  0
  179.7270  178.1580  138.4140 O   0  0  0  0  0  0  0  0  0  0  0  0
  181.3940  174.3400  135.3830 C   0  0  0  0  0  1  0  0  0  0  0  0
  182.6440  174.7660  136.1290 C   0  0  1  0  0  0  0  0  0  0  0  0
  185.1260  174.4950  136.1820 C   0  0  1  0  0  3  0  0  0  0  0  0
  182.7840  176.3050  136.0470 C   0  0  2  0  0  3  0  0  0  0  0  0
  180.7720  181.1360  139.2000 C   0  0  0  0  0  1  0  0  0  0  0  0
  182.6650  177.3670  138.2760 C   0  0  1  0  0  3  0  0  0  0  0  0
  185.3470  175.9840  135.9610 C   0  0  0  0  0  2  0  0  0  0  0  0
  183.8400  174.0700  135.4880 C   0  0  0  0  0  2  0  0  0  0  0  0
  180.6280  179.8280  139.9620 C   0  0  2  0  0  3  0  0  0  0  0  0
  180.9970  178.0890  136.4200 C   0  0  0  0  0  0  0  0  0  0  0  0
  184.0420  179.2320  138.7440 C   0  0  0  0  0  0  0  0  0  0  0  0
  186.2910  173.7230  135.6040 C   0  0  0  0  0  1  0  0  0  0  0  0
  181.9380  179.0270  140.0340 C   0  0  0  0  0  2  0  0  0  0  0  0
  181.3280  178.6430  135.0860 C   0  0  0  0  0  3  0  0  0  0  0  0
  179.1330  179.7200  136.5270 C   0  0  0  0  0  2  0  0  0  0  0  0
  179.9600  180.6230  135.6090 C   0  0  0  0  0  2  0  0  0  0  0  0
  179.4080  179.0250  139.4950 C   0  0  0  0  0  2  0  0  0  0  0  0
  184.1310  177.0180  137.9610 C   0  0  1  0  0  3  0  0  0  0  0  0
  182.6150  178.8580  138.6720 C   0  0  2  0  0  3  0  0  0  0  0  0
  184.1660  176.8220  136.4560 C   0  0  2  0  0  3  0  0  0  0  0  0
  186.3520  178.2530  138.3490 C   0  0  0  0  0  1  0  0  0  0  0  0
  181.8300  176.9780  137.0330 C   0  0  1  0  0  3  0  0  0  0  0  0
  1  6  1  0  0  0  0
  4 20  2  0  0  0  0
  4 22  1  0  0  0  0
  5 27  1  0  0  0  0
  5 17  1  0  0  0  0
  6 23  1  0  0  0  0
  8  7  1  6  0  0  0
  8  2  1  0  0  0  0
  9 18  1  6  0  0  0
 10  8  1  0  0  0  0
 10 26  1  0  0  0  0
 10 28  1  0  0  0  0
 11 15  1  0  0  0  0
 12 25  1  0  0  0  0
 13  9  1  0  0  0  0
 13 26  1  0  0  0  0
 14  8  1  0  0  0  0
 14  9  1  0  0  0  0
 15 19  1  0  0  0  0
 16 28  1  0  0  0  0
 16  1  2  0  0  0  0
 17  3  2  0  0  0  0
 20 16  1  0  0  0  0
 21  1  1  0  0  0  0
 22 21  1  0  0  0  0
 23 15  1  0  0  0  0
 24 12  1  0  0  0  0
 24  5  1  0  0  0  0
 25 17  1  0  0  0  0
 25 19  1  0  0  0  0
 26 24  1  0  0  0  0
 28 12  1  0  0  0  0
M  END
>  <MODEL>
5

>  <REMARK>
 VINA RESULT:      -5.1      2.564      6.000
  Name = 
  0 active torsions:
  status: ('A' for Active; 'I' for Inactive)
                            x       y       z     vdW  Elec       q    Type
                         _______ _______ _______ _____ _____    ______ ____

>  <TORSDO>
F 0

$$$$
=
 OpenBabel11122411573D

 28 32  0  0  1  0  0  0  0  0999 V2000
  185.1340  179.2670  140.0550 C   0  0  0  0  0  0  0  0  0  0  0  0
  187.5200  178.6830  135.7060 F   0  0  0  0  0  0  0  0  0  0  0  0
  183.0760  174.7740  138.4740 O   0  0  0  0  0  0  0  0  0  0  0  0
  186.6060  177.7240  141.9270 C   0  0  0  0  0  3  0  0  0  0  0  0
  184.9540  175.1330  137.1080 N   0  0  0  0  0  0  0  0  0  0  0  0
  184.2950  179.8590  139.1090 O   0  0  0  0  0  0  0  0  0  0  0  0
  189.0960  179.4490  137.2860 C   0  0  0  0  0  1  0  0  0  0  0  0
  188.3920  178.2440  136.6920 C   0  0  1  0  0  0  0  0  0  0  0  0
  188.7900  176.1020  135.4720 C   0  0  1  0  0  3  0  0  0  0  0  0
  187.6320  177.4970  137.8150 C   0  0  2  0  0  3  0  0  0  0  0  0
  182.1320  177.8360  140.4550 C   0  0  0  0  0  1  0  0  0  0  0  0
  185.1900  177.4820  137.4280 C   0  0  1  0  0  3  0  0  0  0  0  0
  188.1810  175.2840  136.6000 C   0  0  0  0  0  2  0  0  0  0  0  0
  189.4450  177.3470  136.0520 C   0  0  0  0  0  2  0  0  0  0  0  0
  182.2030  178.5850  139.1340 C   0  0  2  0  0  3  0  0  0  0  0  0
  186.1320  178.4660  139.6390 C   0  0  0  0  0  0  0  0  0  0  0  0
  183.9400  175.5560  137.9940 C   0  0  0  0  0  0  0  0  0  0  0  0
  189.8300  175.2710  134.7530 C   0  0  0  0  0  1  0  0  0  0  0  0
  182.7380  177.7210  137.9810 C   0  0  0  0  0  2  0  0  0  0  0  0
  186.9700  177.7690  140.6430 C   0  0  0  0  0  3  0  0  0  0  0  0
  184.9280  179.5310  141.5270 C   0  0  0  0  0  2  0  0  0  0  0  0
  185.2890  178.3000  142.3620 C   0  0  0  0  0  2  0  0  0  0  0  0
  182.8870  179.9490  139.2850 C   0  0  0  0  0  2  0  0  0  0  0  0
  185.8150  176.2450  136.7560 C   0  0  1  0  0  3  0  0  0  0  0  0
  184.0370  176.9910  138.3290 C   0  0  2  0  0  3  0  0  0  0  0  0
  187.1720  176.0920  137.4190 C   0  0  2  0  0  3  0  0  0  0  0  0
  185.0780  173.7910  136.5660 C   0  0  0  0  0  1  0  0  0  0  0  0
  186.3340  178.2300  138.1540 C   0  0  1  0  0  3  0  0  0  0  0  0
  1 21  1  0  0  0  0
  2  8  1  0  0  0  0
  4 22  1  0  0  0  0
  5 17  1  0  0  0  0
  6 23  1  0  0  0  0
  6  1  1  0  0  0  0
  8  7  1  1  0  0  0
  8 10  1  0  0  0  0
  9 18  1  1  0  0  0
  9 14  1  0  0  0  0
  9 13  1  0  0  0  0
 10 28  1  0  0  0  0
 12 28  1  0  0  0  0
 12 25  1  0  0  0  0
 13 26  1  0  0  0  0
 14  8  1  0  0  0  0
 15 23  1  0  0  0  0
 15 11  1  0  0  0  0
 16  1  2  0  0  0  0
 16 20  1  0  0  0  0
 17 25  1  0  0  0  0
 17  3  2  0  0  0  0
 19 25  1  0  0  0  0
 19 15  1  0  0  0  0
 20  4  2  0  0  0  0
 21 22  1  0  0  0  0
 24  5  1  0  0  0  0
 24 26  1  0  0  0  0
 24 12  1  0  0  0  0
 26 10  1  0  0  0  0
 27  5  1  0  0  0  0
 28 16  1  0  0  0  0
M  END
>  <MODEL>
6

>  <REMARK>
 VINA RESULT:      -4.8      2.250      6.440
  Name = 
  0 active torsions:
  status: ('A' for Active; 'I' for Inactive)
                            x       y       z     vdW  Elec       q    Type
                         _______ _______ _______ _____ _____    ______ ____

>  <TORSDO>
F 0

$$$$
=
 OpenBabel11122411573D

 28 32  0  0  1  0  0  0  0  0999 V2000
  186.1760  175.0060  136.8620 C   0  0  0  0  0  0  0  0  0  0  0  0
  183.1910  177.3370  140.1190 F   0  0  0  0  0  0  0  0  0  0  0  0
  181.5710  174.2410  134.5980 O   0  0  0  0  0  0  0  0  0  0  0  0
  186.6650  176.9030  134.8090 C   0  0  0  0  0  3  0  0  0  0  0  0
  181.2170  175.9050  136.2190 N   0  0  0  0  0  0  0  0  0  0  0  0
  185.7800  174.0090  137.7550 O   0  0  0  0  0  0  0  0  0  0  0  0
  185.1070  178.6800  139.8220 C   0  0  0  0  0  1  0  0  0  0  0  0
  183.7270  178.3240  139.3050 C   0  0  1  0  0  0  0  0  0  0  0  0
  181.4600  179.2700  138.8550 C   0  0  1  0  0  3  0  0  0  0  0  0
  183.8450  177.8350  137.8410 C   0  0  2  0  0  3  0  0  0  0  0  0
  184.9060  172.5360  134.9890 C   0  0  0  0  0  1  0  0  0  0  0  0
  183.1210  175.4840  137.5890 C   0  0  1  0  0  3  0  0  0  0  0  0
  181.5590  178.9460  137.3730 C   0  0  0  0  0  2  0  0  0  0  0  0
  182.8490  179.5680  139.3980 C   0  0  0  0  0  2  0  0  0  0  0  0
  184.5270  172.3580  136.4510 C   0  0  2  0  0  3  0  0  0  0  0  0
  185.5110  176.1770  136.8460 C   0  0  0  0  0  0  0  0  0  0  0  0
  181.9410  174.8390  135.6440 C   0  0  0  0  0  0  0  0  0  0  0  0
  180.5720  180.4800  139.0470 C   0  0  0  0  0  1  0  0  0  0  0  0
  183.2230  173.0800  136.8250 C   0  0  0  0  0  2  0  0  0  0  0  0
  185.8730  177.2040  135.8410 C   0  0  0  0  0  3  0  0  0  0  0  0
  187.3420  174.7770  135.9310 C   0  0  0  0  0  2  0  0  0  0  0  0
  187.1270  175.4910  134.5940 C   0  0  0  0  0  2  0  0  0  0  0  0
  185.7080  172.6370  137.3880 C   0  0  0  0  0  2  0  0  0  0  0  0
  181.9060  176.4110  137.3900 C   0  0  1  0  0  3  0  0  0  0  0  0
  183.1920  174.5400  136.3700 C   0  0  2  0  0  3  0  0  0  0  0  0
  182.5060  177.7740  137.1000 C   0  0  2  0  0  3  0  0  0  0  0  0
  179.9270  176.3830  135.7510 C   0  0  0  0  0  1  0  0  0  0  0  0
  184.3540  176.3940  137.8030 C   0  0  1  0  0  3  0  0  0  0  0  0
  1  6  1  0  0  0  0
  3 17  2  0  0  0  0
  4 20  2  0  0  0  0
  5 24  1  0  0  0  0
  8 14  1  0  0  0  0
  8  7  1  1  0  0  0
  8  2  1  0  0  0  0
  9 18  1  6  0  0  0
  9 14  1  0  0  0  0
 10  8  1  0  0  0  0
 11 15  1  0  0  0  0
 12 28  1  0  0  0  0
 13  9  1  0  0  0  0
 15 19  1  0  0  0  0
 15 23  1  0  0  0  0
 16  1  2  0  0  0  0
 16 28  1  0  0  0  0
 17  5  1  0  0  0  0
 17 25  1  0  0  0  0
 20 16  1  0  0  0  0
 21  1  1  0  0  0  0
 22  4  1  0  0  0  0
 22 21  1  0  0  0  0
 23  6  1  0  0  0  0
 24 12  1  0  0  0  0
 25 19  1  0  0  0  0
 25 12  1  0  0  0  0
 26 13  1  0  0  0  0
 26 24  1  0  0  0  0
 26 10  1  0  0  0  0
 27  5  1  0  0  0  0
 28 10  1  0  0  0  0
M  END
>  <MODEL>
7

>  <REMARK>
 VINA RESULT:      -4.7      2.375      4.664
  Name = 
  0 active torsions:
  status: ('A' for Active; 'I' for Inactive)
                            x       y       z     vdW  Elec       q    Type
                         _______ _______ _______ _____ _____    ______ ____

>  <TORSDO>
F 0

$$$$
=
 OpenBabel11122411573D

 28 32  0  0  1  0  0  0  0  0999 V2000
  182.2200  178.8400  138.1600 C   0  0  0  0  0  0  0  0  0  0  0  0
  185.2010  176.0360  135.2950 F   0  0  0  0  0  0  0  0  0  0  0  0
  179.4210  174.4790  137.9130 O   0  0  0  0  0  0  0  0  0  0  0  0
  182.8240  178.0850  140.8280 C   0  0  0  0  0  3  0  0  0  0  0  0
  181.5630  173.9080  137.1370 N   0  0  0  0  0  0  0  0  0  0  0  0
  181.7760  179.0690  136.8570 O   0  0  0  0  0  0  0  0  0  0  0  0
  186.5670  177.1770  136.8430 C   0  0  0  0  0  1  0  0  0  0  0  0
  185.7080  175.9540  136.5840 C   0  0  1  0  0  0  0  0  0  0  0  0
  185.7690  173.4610  136.4670 C   0  0  1  0  0  3  0  0  0  0  0  0
  184.5670  175.9070  137.6290 C   0  0  2  0  0  3  0  0  0  0  0  0
  178.9320  178.2040  138.1770 C   0  0  0  0  0  1  0  0  0  0  0  0
  182.3380  176.0900  136.5750 C   0  0  1  0  0  3  0  0  0  0  0  0
  184.7500  173.3300  137.5890 C   0  0  0  0  0  2  0  0  0  0  0  0
  186.5960  174.7190  136.6840 C   0  0  0  0  0  2  0  0  0  0  0  0
  179.4630  178.2700  136.7540 C   0  0  2  0  0  3  0  0  0  0  0  0
  183.0370  177.7980  138.4020 C   0  0  0  0  0  0  0  0  0  0  0  0
  180.5380  174.8260  137.4470 C   0  0  0  0  0  0  0  0  0  0  0  0
  186.6780  172.2520  136.4680 C   0  0  0  0  0  1  0  0  0  0  0  0
  179.9750  176.9150  136.2410 C   0  0  0  0  0  2  0  0  0  0  0  0
  183.4400  177.5000  139.7970 C   0  0  0  0  0  3  0  0  0  0  0  0
  181.7970  179.7560  139.2820 C   0  0  0  0  0  2  0  0  0  0  0  0
  181.6450  178.9840  140.5950 C   0  0  0  0  0  2  0  0  0  0  0  0
  180.4360  179.4400  136.5590 C   0  0  0  0  0  2  0  0  0  0  0  0
  182.7390  174.6050  136.6530 C   0  0  1  0  0  3  0  0  0  0  0  0
  180.9380  176.2290  137.2120 C   0  0  2  0  0  3  0  0  0  0  0  0
  183.8440  174.5590  137.6920 C   0  0  2  0  0  3  0  0  0  0  0  0
  181.4380  172.4620  137.2200 C   0  0  0  0  0  1  0  0  0  0  0  0
  183.4660  176.9000  137.2570 C   0  0  1  0  0  3  0  0  0  0  0  0
  1 16  2  0  0  0  0
  1 21  1  0  0  0  0
  2  8  1  0  0  0  0
  5 27  1  0  0  0  0
  5 17  1  0  0  0  0
  6  1  1  0  0  0  0
  8 14  1  0  0  0  0
  8  7  1  1  0  0  0
  8 10  1  0  0  0  0
  9 18  1  1  0  0  0
  9 14  1  0  0  0  0
  9 13  1  0  0  0  0
 10 26  1  0  0  0  0
 12 24  1  0  0  0  0
 12 25  1  0  0  0  0
 12 28  1  0  0  0  0
 13 26  1  0  0  0  0
 15 11  1  0  0  0  0
 16 20  1  0  0  0  0
 17  3  2  0  0  0  0
 19 15  1  0  0  0  0
 19 25  1  0  0  0  0
 20  4  2  0  0  0  0
 21 22  1  0  0  0  0
 22  4  1  0  0  0  0
 23 15  1  0  0  0  0
 23  6  1  0  0  0  0
 24  5  1  0  0  0  0
 24 26  1  0  0  0  0
 25 17  1  0  0  0  0
 28 10  1  0  0  0  0
 28 16  1  0  0  0  0
M  END
>  <MODEL>
8

>  <REMARK>
 VINA RESULT:      -4.6      2.691      6.600
  Name = 
  0 active torsions:
  status: ('A' for Active; 'I' for Inactive)
                            x       y       z     vdW  Elec       q    Type
                         _______ _______ _______ _____ _____    ______ ____

>  <TORSDO>
F 0

$$$$
=
 OpenBabel11122411573D

 28 32  0  0  1  0  0  0  0  0999 V2000
  180.2880  175.0320  137.5790 C   0  0  0  0  0  0  0  0  0  0  0  0
  183.9710  171.6580  137.5690 F   0  0  0  0  0  0  0  0  0  0  0  0
  184.4110  178.1730  137.8170 O   0  0  0  0  0  0  0  0  0  0  0  0
  180.0360  175.8690  134.8790 C   0  0  0  0  0  3  0  0  0  0  0  0
  185.2490  176.0620  137.2130 N   0  0  0  0  0  0  0  0  0  0  0  0
  180.5390  174.7790  138.9290 O   0  0  0  0  0  0  0  0  0  0  0  0
  182.3650  170.9640  135.9870 C   0  0  0  0  0  1  0  0  0  0  0  0
  183.5880  171.8220  136.2460 C   0  0  1  0  0  0  0  0  0  0  0  0
  185.9560  172.1840  135.5410 C   0  0  1  0  0  3  0  0  0  0  0  0
  183.2420  173.3010  135.9460 C   0  0  2  0  0  3  0  0  0  0  0  0
  180.8360  178.0180  138.9950 C   0  0  0  0  0  1  0  0  0  0  0  0
  183.4260  174.7220  137.9600 C   0  0  1  0  0  3  0  0  0  0  0  0
  185.6610  173.6070  135.0920 C   0  0  0  0  0  2  0  0  0  0  0  0
  184.7140  171.3280  135.3440 C   0  0  0  0  0  2  0  0  0  0  0  0
  181.2950  176.8920  139.9090 C   0  0  2  0  0  3  0  0  0  0  0  0
  181.1820  174.6290  136.6570 C   0  0  0  0  0  0  0  0  0  0  0  0
  184.2680  176.9220  137.7510 C   0  0  0  0  0  0  0  0  0  0  0  0
  187.0940  171.6220  134.7170 C   0  0  0  0  0  1  0  0  0  0  0  0
  182.7500  176.4680  139.6540 C   0  0  0  0  0  2  0  0  0  0  0  0
  180.9600  174.9720  135.2320 C   0  0  0  0  0  3  0  0  0  0  0  0
  179.0230  175.7410  137.1590 C   0  0  0  0  0  2  0  0  0  0  0  0
  179.2670  176.6190  135.9290 C   0  0  0  0  0  2  0  0  0  0  0  0
  180.2860  175.7380  139.9470 C   0  0  0  0  0  2  0  0  0  0  0  0
  184.7870  174.6880  137.2400 C   0  0  1  0  0  3  0  0  0  0  0  0
  183.0500  176.2030  138.1780 C   0  0  2  0  0  3  0  0  0  0  0  0
  184.4670  174.2110  135.8350 C   0  0  2  0  0  3  0  0  0  0  0  0
  186.5650  176.4810  136.7610 C   0  0  0  0  0  1  0  0  0  0  0  0
  182.4370  173.9010  137.0980 C   0  0  1  0  0  3  0  0  0  0  0  0
  1  6  1  0  0  0  0
  4 20  2  0  0  0  0
  4 22  1  0  0  0  0
  5 24  1  0  0  0  0
  5 17  1  0  0  0  0
  6 23  1  0  0  0  0
  8  7  1  6  0  0  0
  8  2  1  0  0  0  0
  9 18  1  6  0  0  0
 10  8  1  0  0  0  0
 10 28  1  0  0  0  0
 11 15  1  0  0  0  0
 12 25  1  0  0  0  0
 13  9  1  0  0  0  0
 13 26  1  0  0  0  0
 14  9  1  0  0  0  0
 14  8  1  0  0  0  0
 15 23  1  0  0  0  0
 16 28  1  0  0  0  0
 16  1  2  0  0  0  0
 17  3  2  0  0  0  0
 17 25  1  0  0  0  0
 19 15  1  0  0  0  0
 20 16  1  0  0  0  0
 21  1  1  0  0  0  0
 22 21  1  0  0  0  0
 24 12  1  0  0  0  0
 25 19  1  0  0  0  0
 26 10  1  0  0  0  0
 26 24  1  0  0  0  0
 27  5  1  0  0  0  0
 28 12  1  0  0  0  0
M  END
>  <MODEL>
9

>  <REMARK>
 VINA RESULT:      -4.6      2.974      6.564
  Name = 
  0 active torsions:
  status: ('A' for Active; 'I' for Inactive)
                            x       y       z     vdW  Elec       q    Type
                         _______ _______ _______ _____ _____    ______ ____

>  <TORSDO>
F 0

$$$$
