=
 OpenBabel11122411203D

 31 35  0  0  1  0  0  0  0  0999 V2000
  194.0780  175.9920  135.9270 C   0  0  2  0  0  3  0  0  0  0  0  0
  190.2440  175.9440  136.3800 C   0  0  2  0  0  3  0  0  0  0  0  0
  189.2540  174.7970  136.3830 C   0  0  0  0  0  0  0  0  0  0  0  0
  188.6710  172.5930  135.7040 C   0  0  0  0  0  0  0  0  0  0  0  0
  191.6960  175.4490  136.3750 C   0  0  1  0  0  3  0  0  0  0  0  0
  194.3920  175.7760  137.2820 O   0  0  0  0  0  0  0  0  0  0  0  0
  189.5490  173.6300  135.7430 N   0  0  0  0  0  0  0  0  0  0  0  0
  190.4240  176.3990  138.8810 C   0  0  2  0  0  3  0  0  0  0  0  0
  195.0300  177.0170  135.3470 C   0  0  0  0  0  1  0  0  0  0  0  0
  187.6540  176.1800  137.6420 N   0  0  0  0  0  2  0  0  0  0  0  0
  189.0410  171.3350  135.0050 C   0  0  0  0  0  1  0  0  0  0  0  0
  191.9010  176.0210  138.8390 C   0  0  0  0  0  2  0  0  0  0  0  0
  189.9850  176.9570  137.5190 C   0  0  2  0  0  3  0  0  0  0  0  0
  192.6430  176.5000  135.7960 C   0  0  0  0  0  2  0  0  0  0  0  0
  187.4220  172.7070  136.3190 C   0  0  0  0  0  3  0  0  0  0  0  0
  192.1620  174.9680  137.7630 C   0  0  2  0  0  3  0  0  0  0  0  0
  193.6580  174.6460  137.6980 C   0  0  0  0  0  2  0  0  0  0  0  0
  188.5070  177.3590  137.5290 C   0  0  0  0  0  2  0  0  0  0  0  0
  187.9930  174.9570  136.9840 C   0  0  0  0  0  0  0  0  0  0  0  0
  187.0850  173.8990  136.9630 C   0  0  0  0  0  3  0  0  0  0  0  0
  190.1430  175.8440  141.6650 O   0  0  0  0  0  0  0  0  0  0  0  0
  190.0870  177.0500  141.3020 C   0  0  0  0  0  0  0  0  0  0  0  0
  190.2100  177.3960  139.9220 N   0  0  0  0  0  2  0  0  0  0  0  0
  190.5070  177.1820  145.0140 C   0  0  0  0  0  0  0  0  0  0  0  0
  191.2110  178.4890  143.0210 C   0  0  0  0  0  2  0  0  0  0  0  0
  187.6070  177.9260  142.9640 O   0  0  0  0  0  0  0  0  0  0  0  0
  190.7750  176.6900  146.1770 N   0  0  0  0  0  2  0  0  0  0  0  0
  191.6160  177.4220  144.0400 C   0  0  0  0  0  2  0  0  0  0  0  0
  188.8150  177.8030  143.2950 C   0  0  0  0  0  0  0  0  0  0  0  0
  189.8980  178.1400  142.3110 C   0  0  2  0  0  3  0  0  0  0  0  0
  189.1450  177.3130  144.5980 N   0  0  0  0  0  2  0  0  0  0  0  0
  1  9  1  1  0  0  0
  1  6  1  0  0  0  0
  2  3  1  1  0  0  0
  2 13  1  0  0  0  0
  3 19  1  0  0  0  0
  4  7  1  0  0  0  0
  4 15  2  0  0  0  0
  5 14  1  1  0  0  0
  5  2  1  0  0  0  0
  5 16  1  0  0  0  0
  6 17  1  0  0  0  0
  7  3  2  0  0  0  0
  8 23  1  1  0  0  0
 11  4  1  0  0  0  0
 12  8  1  0  0  0  0
 13 18  1  1  0  0  0
 13  8  1  0  0  0  0
 14  1  1  0  0  0  0
 15 20  1  0  0  0  0
 16 17  1  6  0  0  0
 16 12  1  0  0  0  0
 18 10  1  0  0  0  0
 19 10  1  0  0  0  0
 20 19  2  0  0  0  0
 22 21  2  0  0  0  0
 23 22  1  0  0  0  0
 24 27  2  0  0  0  0
 25 28  1  0  0  0  0
 26 29  2  0  0  0  0
 28 24  1  0  0  0  0
 29 31  1  0  0  0  0
 30 22  1  6  0  0  0
 30 25  1  0  0  0  0
 30 29  1  0  0  0  0
 31 24  1  0  0  0  0
M  END
>  <MODEL>
1

>  <REMARK>
 VINA RESULT:      -7.1      0.000      0.000
  Name = 
  2 active torsions:
  status: ('A' for Active; 'I' for Inactive)
    1  A    between atoms: C_5  and  C_30
    2  A    between atoms: C_10  and  N_16
                            x       y       z     vdW  Elec       q    Type
                         _______ _______ _______ _____ _____    ______ ____

>  <TORSDO>
F 2

$$$$
=
 OpenBabel11122411203D

 31 35  0  0  1  0  0  0  0  0999 V2000
  187.3500  178.0350  136.7340 C   0  0  2  0  0  3  0  0  0  0  0  0
  189.9230  177.8720  139.6090 C   0  0  2  0  0  3  0  0  0  0  0  0
  189.7930  177.3860  141.0380 C   0  0  0  0  0  0  0  0  0  0  0  0
  188.4300  176.9630  142.9420 C   0  0  0  0  0  0  0  0  0  0  0  0
  188.6780  177.5410  138.7740 C   0  0  1  0  0  3  0  0  0  0  0  0
  187.5640  176.7240  136.2680 O   0  0  0  0  0  0  0  0  0  0  0  0
  188.5760  177.3680  141.6520 N   0  0  0  0  0  0  0  0  0  0  0  0
  191.1330  175.8890  138.5600 C   0  0  2  0  0  3  0  0  0  0  0  0
  187.1880  178.9700  135.5540 C   0  0  0  0  0  1  0  0  0  0  0  0
  192.2290  177.0540  141.1480 N   0  0  0  0  0  2  0  0  0  0  0  0
  187.0810  176.9480  143.5650 C   0  0  0  0  0  1  0  0  0  0  0  0
  189.9340  175.6450  137.6490 C   0  0  0  0  0  2  0  0  0  0  0  0
  191.2200  177.3780  138.9280 C   0  0  2  0  0  3  0  0  0  0  0  0
  188.5370  178.4880  137.5820 C   0  0  0  0  0  2  0  0  0  0  0  0
  189.5450  176.5630  143.6820 C   0  0  0  0  0  3  0  0  0  0  0  0
  188.6350  176.0660  138.3350 C   0  0  2  0  0  3  0  0  0  0  0  0
  187.4520  175.8680  137.3820 C   0  0  0  0  0  2  0  0  0  0  0  0
  192.4220  177.6610  139.8340 C   0  0  0  0  0  2  0  0  0  0  0  0
  190.9390  177.0210  141.7650 C   0  0  0  0  0  0  0  0  0  0  0  0
  190.8070  176.5930  143.0860 C   0  0  0  0  0  3  0  0  0  0  0  0
  191.5040  173.3920  137.2310 O   0  0  0  0  0  0  0  0  0  0  0  0
  192.4670  174.2060  137.2240 C   0  0  0  0  0  0  0  0  0  0  0  0
  192.3500  175.4700  137.8790 N   0  0  0  0  0  2  0  0  0  0  0  0
  196.0620  174.4320  138.2250 C   0  0  0  0  0  0  0  0  0  0  0  0
  194.5120  172.7540  137.2460 C   0  0  0  0  0  2  0  0  0  0  0  0
  194.3310  175.8890  135.3880 O   0  0  0  0  0  0  0  0  0  0  0  0
  197.0360  174.7190  139.0210 N   0  0  0  0  0  2  0  0  0  0  0  0
  195.1850  173.2580  138.5240 C   0  0  0  0  0  2  0  0  0  0  0  0
  194.6030  175.0800  136.3130 C   0  0  0  0  0  0  0  0  0  0  0  0
  193.7440  173.8660  136.5210 C   0  0  2  0  0  3  0  0  0  0  0  0
  195.7120  175.3410  137.1780 N   0  0  0  0  0  2  0  0  0  0  0  0
  1  9  1  6  0  0  0
  1 14  1  0  0  0  0
  2  3  1  1  0  0  0
  3  7  2  0  0  0  0
  3 19  1  0  0  0  0
  4 11  1  0  0  0  0
  4 15  2  0  0  0  0
  5 14  1  6  0  0  0
  5  2  1  0  0  0  0
  6  1  1  0  0  0  0
  6 17  1  0  0  0  0
  7  4  1  0  0  0  0
  8 23  1  6  0  0  0
  8 13  1  0  0  0  0
 10 19  1  0  0  0  0
 12 16  1  0  0  0  0
 12  8  1  0  0  0  0
 13  2  1  0  0  0  0
 13 18  1  1  0  0  0
 16 17  1  6  0  0  0
 16  5  1  0  0  0  0
 18 10  1  0  0  0  0
 19 20  2  0  0  0  0
 20 15  1  0  0  0  0
 22 21  2  0  0  0  0
 22 23  1  0  0  0  0
 24 28  1  0  0  0  0
 24 27  2  0  0  0  0
 25 28  1  0  0  0  0
 26 29  2  0  0  0  0
 29 30  1  0  0  0  0
 29 31  1  0  0  0  0
 30 22  1  1  0  0  0
 30 25  1  0  0  0  0
 31 24  1  0  0  0  0
M  END
>  <MODEL>
2

>  <REMARK>
 VINA RESULT:      -6.6      2.827      7.000
  Name = 
  2 active torsions:
  status: ('A' for Active; 'I' for Inactive)
    1  A    between atoms: C_5  and  C_30
    2  A    between atoms: C_10  and  N_16
                            x       y       z     vdW  Elec       q    Type
                         _______ _______ _______ _____ _____    ______ ____

>  <TORSDO>
F 2

$$$$
=
 OpenBabel11122411203D

 31 35  0  0  1  0  0  0  0  0999 V2000
  191.2010  176.1940  144.3670 C   0  0  2  0  0  3  0  0  0  0  0  0
  187.6400  177.1670  143.2320 C   0  0  2  0  0  3  0  0  0  0  0  0
  186.5830  178.0270  143.8920 C   0  0  0  0  0  0  0  0  0  0  0  0
  185.6330  178.9480  145.8690 C   0  0  0  0  0  0  0  0  0  0  0  0
  188.9850  177.2430  143.9680 C   0  0  1  0  0  3  0  0  0  0  0  0
  191.8430  177.3270  143.8320 O   0  0  0  0  0  0  0  0  0  0  0  0
  186.5830  178.2040  145.2430 N   0  0  0  0  0  0  0  0  0  0  0  0
  188.5250  178.7930  141.4800 C   0  0  2  0  0  3  0  0  0  0  0  0
  192.0550  174.9680  144.1250 C   0  0  0  0  0  1  0  0  0  0  0  0
  185.5170  178.3980  141.7050 N   0  0  0  0  0  2  0  0  0  0  0  0
  185.6810  179.1240  147.3440 C   0  0  0  0  0  1  0  0  0  0  0  0
  189.8940  178.7650  142.1520 C   0  0  0  0  0  2  0  0  0  0  0  0
  187.7930  177.4650  141.7220 C   0  0  2  0  0  3  0  0  0  0  0  0
  189.8380  176.0030  143.7030 C   0  0  0  0  0  2  0  0  0  0  0  0
  184.6100  179.5470  145.1290 C   0  0  0  0  0  3  0  0  0  0  0  0
  189.7570  178.5400  143.6570 C   0  0  2  0  0  3  0  0  0  0  0  0
  191.1430  178.4570  144.3020 C   0  0  0  0  0  2  0  0  0  0  0  0
  186.4170  177.4530  141.0500 C   0  0  0  0  0  2  0  0  0  0  0  0
  185.5500  178.5890  143.1220 C   0  0  0  0  0  0  0  0  0  0  0  0
  184.5720  179.3630  143.7450 C   0  0  0  0  0  3  0  0  0  0  0  0
  189.7810  176.9890  139.6620 O   0  0  0  0  0  0  0  0  0  0  0  0
  189.3250  178.0670  139.1930 C   0  0  0  0  0  0  0  0  0  0  0  0
  188.6930  179.0180  140.0510 N   0  0  0  0  0  2  0  0  0  0  0  0
  187.4540  176.8280  136.2030 C   0  0  0  0  0  0  0  0  0  0  0  0
  188.1480  179.0030  137.1860 C   0  0  0  0  0  2  0  0  0  0  0  0
  191.0080  176.7530  136.9310 O   0  0  0  0  0  0  0  0  0  0  0  0
  186.5710  176.1110  135.5920 N   0  0  0  0  0  2  0  0  0  0  0  0
  187.0140  177.9860  137.0410 C   0  0  0  0  0  2  0  0  0  0  0  0
  189.8120  177.1420  136.9420 C   0  0  0  0  0  0  0  0  0  0  0  0
  189.4300  178.3640  137.7300 C   0  0  2  0  0  3  0  0  0  0  0  0
  188.8180  176.4010  136.2290 N   0  0  0  0  0  2  0  0  0  0  0  0
  1  9  1  6  0  0  0
  2  3  1  1  0  0  0
  2  5  1  0  0  0  0
  3  7  1  0  0  0  0
  4 11  1  0  0  0  0
  5 14  1  6  0  0  0
  6 17  1  0  0  0  0
  6  1  1  0  0  0  0
  7  4  2  0  0  0  0
  8 23  1  6  0  0  0
  8 13  1  0  0  0  0
  8 12  1  0  0  0  0
 10 19  1  0  0  0  0
 13 18  1  1  0  0  0
 13  2  1  0  0  0  0
 14  1  1  0  0  0  0
 15  4  1  0  0  0  0
 16 12  1  6  0  0  0
 16  5  1  0  0  0  0
 16 17  1  0  0  0  0
 18 10  1  0  0  0  0
 19 20  1  0  0  0  0
 19  3  2  0  0  0  0
 20 15  2  0  0  0  0
 22 21  2  0  0  0  0
 22 23  1  0  0  0  0
 24 31  1  0  0  0  0
 24 28  1  0  0  0  0
 25 30  1  0  0  0  0
 26 29  2  0  0  0  0
 27 24  2  0  0  0  0
 28 25  1  0  0  0  0
 29 30  1  0  0  0  0
 30 22  1  1  0  0  0
 31 29  1  0  0  0  0
M  END
>  <MODEL>
3

>  <REMARK>
 VINA RESULT:      -6.1      3.096      8.054
  Name = 
  2 active torsions:
  status: ('A' for Active; 'I' for Inactive)
    1  A    between atoms: C_5  and  C_30
    2  A    between atoms: C_10  and  N_16
                            x       y       z     vdW  Elec       q    Type
                         _______ _______ _______ _____ _____    ______ ____

>  <TORSDO>
F 2

$$$$
=
 OpenBabel11122411203D

 31 35  0  0  1  0  0  0  0  0999 V2000
  191.3290  177.7310  142.9770 C   0  0  2  0  0  3  0  0  0  0  0  0
  190.7150  177.8200  139.1660 C   0  0  2  0  0  3  0  0  0  0  0  0
  190.9380  176.7720  138.0950 C   0  0  0  0  0  0  0  0  0  0  0  0
  192.0950  174.8390  137.3300 C   0  0  0  0  0  0  0  0  0  0  0  0
  190.9080  177.2490  140.5770 C   0  0  1  0  0  3  0  0  0  0  0  0
  190.0810  177.1740  143.3170 O   0  0  0  0  0  0  0  0  0  0  0  0
  191.8520  175.7790  138.2830 N   0  0  0  0  0  0  0  0  0  0  0  0
  188.1890  177.6440  139.4580 C   0  0  2  0  0  3  0  0  0  0  0  0
  191.6920  178.8040  143.9830 C   0  0  0  0  0  1  0  0  0  0  0  0
  189.3080  177.9080  136.6420 N   0  0  0  0  0  2  0  0  0  0  0  0
  193.0920  173.7680  137.5840 C   0  0  0  0  0  1  0  0  0  0  0  0
  188.3920  177.1930  140.9020 C   0  0  0  0  0  2  0  0  0  0  0  0
  189.3550  178.5420  139.0190 C   0  0  2  0  0  3  0  0  0  0  0  0
  191.2640  178.3470  141.5800 C   0  0  0  0  0  2  0  0  0  0  0  0
  191.4110  174.8810  136.1130 C   0  0  0  0  0  3  0  0  0  0  0  0
  189.7000  176.4180  141.0510 C   0  0  2  0  0  3  0  0  0  0  0  0
  189.9130  176.0260  142.5160 C   0  0  0  0  0  2  0  0  0  0  0  0
  189.1770  179.0230  137.5760 C   0  0  0  0  0  2  0  0  0  0  0  0
  190.2560  176.8620  136.8690 C   0  0  0  0  0  0  0  0  0  0  0  0
  190.4850  175.9000  135.8850 C   0  0  0  0  0  3  0  0  0  0  0  0
  186.0480  176.9850  137.6920 O   0  0  0  0  0  0  0  0  0  0  0  0
  185.8940  177.9800  138.4500 C   0  0  0  0  0  0  0  0  0  0  0  0
  186.9300  178.3700  139.3520 N   0  0  0  0  0  2  0  0  0  0  0  0
  182.5030  177.3760  139.9050 C   0  0  0  0  0  0  0  0  0  0  0  0
  184.1910  179.1990  139.8320 C   0  0  0  0  0  2  0  0  0  0  0  0
  183.4970  177.9720  136.4660 O   0  0  0  0  0  0  0  0  0  0  0  0
  181.6160  176.7040  140.5580 N   0  0  0  0  0  2  0  0  0  0  0  0
  183.6240  178.0350  140.6460 C   0  0  0  0  0  2  0  0  0  0  0  0
  183.5210  178.0170  137.7240 C   0  0  0  0  0  0  0  0  0  0  0  0
  184.6190  178.7650  138.4250 C   0  0  2  0  0  3  0  0  0  0  0  0
  182.5180  177.3280  138.4760 N   0  0  0  0  0  2  0  0  0  0  0  0
  1  6  1  0  0  0  0
  1  9  1  1  0  0  0
  2  3  1  6  0  0  0
  2  5  1  0  0  0  0
  3  7  1  0  0  0  0
  4 11  1  0  0  0  0
  4  7  2  0  0  0  0
  5 16  1  0  0  0  0
  5 14  1  1  0  0  0
  8 23  1  1  0  0  0
  8 12  1  0  0  0  0
 10 19  1  0  0  0  0
 10 18  1  0  0  0  0
 13 18  1  6  0  0  0
 13  2  1  0  0  0  0
 13  8  1  0  0  0  0
 14  1  1  0  0  0  0
 15  4  1  0  0  0  0
 16 12  1  1  0  0  0
 16 17  1  0  0  0  0
 17  6  1  0  0  0  0
 19  3  2  0  0  0  0
 20 15  2  0  0  0  0
 20 19  1  0  0  0  0
 21 22  2  0  0  0  0
 22 23  1  0  0  0  0
 24 27  2  0  0  0  0
 24 28  1  0  0  0  0
 25 28  1  0  0  0  0
 26 29  2  0  0  0  0
 29 30  1  0  0  0  0
 29 31  1  0  0  0  0
 30 22  1  1  0  0  0
 30 25  1  0  0  0  0
 31 24  1  0  0  0  0
M  END
>  <MODEL>
4

>  <REMARK>
 VINA RESULT:      -6.0      3.475      6.100
  Name = 
  2 active torsions:
  status: ('A' for Active; 'I' for Inactive)
    1  A    between atoms: C_5  and  C_30
    2  A    between atoms: C_10  and  N_16
                            x       y       z     vdW  Elec       q    Type
                         _______ _______ _______ _____ _____    ______ ____

>  <TORSDO>
F 2

$$$$
=
 OpenBabel11122411203D

 31 35  0  0  1  0  0  0  0  0999 V2000
  181.9510  179.7680  139.6620 C   0  0  2  0  0  3  0  0  0  0  0  0
  185.2000  178.4720  138.0260 C   0  0  2  0  0  3  0  0  0  0  0  0
  186.5300  178.0710  138.6310 C   0  0  0  0  0  0  0  0  0  0  0  0
  188.1160  178.2530  140.3950 C   0  0  0  0  0  0  0  0  0  0  0  0
  184.1330  178.7220  139.1000 C   0  0  1  0  0  3  0  0  0  0  0  0
  181.4030  178.4990  139.9300 O   0  0  0  0  0  0  0  0  0  0  0  0
  186.9180  178.5710  139.8380 N   0  0  0  0  0  0  0  0  0  0  0  0
  184.1890  176.1750  137.5810 C   0  0  2  0  0  3  0  0  0  0  0  0
  180.8580  180.6970  139.1760 C   0  0  0  0  0  1  0  0  0  0  0  0
  187.0300  176.7170  136.6370 N   0  0  0  0  0  2  0  0  0  0  0  0
  188.4910  178.8130  141.7180 C   0  0  0  0  0  1  0  0  0  0  0  0
  183.0640  176.4850  138.5630 C   0  0  0  0  0  2  0  0  0  0  0  0
  184.7110  177.4750  136.9500 C   0  0  2  0  0  3  0  0  0  0  0  0
  183.0330  179.6530  138.5890 C   0  0  0  0  0  2  0  0  0  0  0  0
  188.9970  177.4010  139.7240 C   0  0  0  0  0  3  0  0  0  0  0  0
  183.5500  177.4160  139.6720 C   0  0  2  0  0  3  0  0  0  0  0  0
  182.3910  177.7610  140.6120 C   0  0  0  0  0  2  0  0  0  0  0  0
  185.8360  177.1990  135.9490 C   0  0  0  0  0  2  0  0  0  0  0  0
  187.4060  177.2370  137.9150 C   0  0  0  0  0  0  0  0  0  0  0  0
  188.6360  176.8910  138.4750 C   0  0  0  0  0  3  0  0  0  0  0  0
  184.4470  173.3330  137.5910 O   0  0  0  0  0  0  0  0  0  0  0  0
  183.8480  173.8620  136.6160 C   0  0  0  0  0  0  0  0  0  0  0  0
  183.6930  175.2800  136.5440 N   0  0  0  0  0  2  0  0  0  0  0  0
  180.8140  171.6890  136.3900 C   0  0  0  0  0  0  0  0  0  0  0  0
  181.8980  173.5020  135.0800 C   0  0  0  0  0  2  0  0  0  0  0  0
  184.3120  170.8800  135.8610 O   0  0  0  0  0  0  0  0  0  0  0  0
  179.7440  171.1280  136.8430 N   0  0  0  0  0  2  0  0  0  0  0  0
  180.8130  173.1570  136.1010 C   0  0  0  0  0  2  0  0  0  0  0  0
  183.2530  171.5600  135.9050 C   0  0  0  0  0  0  0  0  0  0  0  0
  183.2820  173.0120  135.5210 C   0  0  2  0  0  3  0  0  0  0  0  0
  182.0380  170.9510  136.3490 N   0  0  0  0  0  2  0  0  0  0  0  0
  1  9  1  6  0  0  0
  1  6  1  0  0  0  0
  2  3  1  1  0  0  0
  2  5  1  0  0  0  0
  3  7  1  0  0  0  0
  4 11  1  0  0  0  0
  5 14  1  6  0  0  0
  5 16  1  0  0  0  0
  6 17  1  0  0  0  0
  7  4  2  0  0  0  0
  8 23  1  6  0  0  0
  8 12  1  0  0  0  0
 10 19  1  0  0  0  0
 13 18  1  6  0  0  0
 13  8  1  0  0  0  0
 13  2  1  0  0  0  0
 14  1  1  0  0  0  0
 15  4  1  0  0  0  0
 16 12  1  6  0  0  0
 16 17  1  0  0  0  0
 18 10  1  0  0  0  0
 19 20  1  0  0  0  0
 19  3  2  0  0  0  0
 20 15  2  0  0  0  0
 22 21  2  0  0  0  0
 23 22  1  0  0  0  0
 24 27  2  0  0  0  0
 25 30  1  0  0  0  0
 25 28  1  0  0  0  0
 26 29  2  0  0  0  0
 28 24  1  0  0  0  0
 29 31  1  0  0  0  0
 30 29  1  0  0  0  0
 30 22  1  1  0  0  0
 31 24  1  0  0  0  0
M  END
>  <MODEL>
5

>  <REMARK>
 VINA RESULT:      -6.0      5.378      9.812
  Name = 
  2 active torsions:
  status: ('A' for Active; 'I' for Inactive)
    1  A    between atoms: C_5  and  C_30
    2  A    between atoms: C_10  and  N_16
                            x       y       z     vdW  Elec       q    Type
                         _______ _______ _______ _____ _____    ______ ____

>  <TORSDO>
F 2

$$$$
=
 OpenBabel11122411203D

 31 35  0  0  1  0  0  0  0  0999 V2000
  180.9550  179.1400  139.3710 C   0  0  2  0  0  3  0  0  0  0  0  0
  184.8120  179.0400  139.5340 C   0  0  2  0  0  3  0  0  0  0  0  0
  185.7530  178.6110  140.6400 C   0  0  0  0  0  0  0  0  0  0  0  0
  186.1740  178.2840  142.9590 C   0  0  0  0  0  0  0  0  0  0  0  0
  183.3510  178.7000  139.8580 C   0  0  1  0  0  3  0  0  0  0  0  0
  180.7890  177.8090  138.9430 O   0  0  0  0  0  0  0  0  0  0  0  0
  185.3450  178.6370  141.9410 N   0  0  0  0  0  0  0  0  0  0  0  0
  184.9320  176.9980  138.0130 C   0  0  2  0  0  3  0  0  0  0  0  0
  179.9830  180.0330  138.6290 C   0  0  0  0  0  1  0  0  0  0  0  0
  187.5350  178.2390  138.9830 N   0  0  0  0  0  2  0  0  0  0  0  0
  185.6810  178.3160  144.3600 C   0  0  0  0  0  1  0  0  0  0  0  0
  183.4470  176.7410  138.2480 C   0  0  0  0  0  2  0  0  0  0  0  0
  185.2350  178.4980  138.1480 C   0  0  2  0  0  3  0  0  0  0  0  0
  182.3840  179.6040  139.0920 C   0  0  0  0  0  2  0  0  0  0  0  0
  187.4880  177.8920  142.6900 C   0  0  0  0  0  3  0  0  0  0  0  0
  183.0270  177.2100  139.6400 C   0  0  2  0  0  3  0  0  0  0  0  0
  181.5220  176.9970  139.8320 C   0  0  0  0  0  2  0  0  0  0  0  0
  186.7180  178.7930  137.9070 C   0  0  0  0  0  2  0  0  0  0  0  0
  187.0780  178.2530  140.3390 C   0  0  0  0  0  0  0  0  0  0  0  0
  187.9390  177.8780  141.3700 C   0  0  0  0  0  3  0  0  0  0  0  0
  187.0550  175.1840  137.4260 O   0  0  0  0  0  0  0  0  0  0  0  0
  186.3690  175.6140  136.4590 C   0  0  0  0  0  0  0  0  0  0  0  0
  185.2990  176.5320  136.6830 N   0  0  0  0  0  2  0  0  0  0  0  0
  187.3700  172.3180  135.0040 C   0  0  0  0  0  0  0  0  0  0  0  0
  185.6730  174.0870  134.5950 C   0  0  0  0  0  2  0  0  0  0  0  0
  189.0080  175.5500  134.8120 O   0  0  0  0  0  0  0  0  0  0  0  0
  187.6870  171.0680  135.0540 N   0  0  0  0  0  2  0  0  0  0  0  0
  185.9510  172.7290  135.2410 C   0  0  0  0  0  2  0  0  0  0  0  0
  188.0830  174.7020  134.9120 C   0  0  0  0  0  0  0  0  0  0  0  0
  186.6610  175.1620  135.0610 C   0  0  2  0  0  3  0  0  0  0  0  0
  188.3980  173.3070  134.9140 N   0  0  0  0  0  2  0  0  0  0  0  0
  1  9  1  6  0  0  0
  2  5  1  0  0  0  0
  2  3  1  1  0  0  0
  3  7  1  0  0  0  0
  4 11  1  0  0  0  0
  5 14  1  6  0  0  0
  6  1  1  0  0  0  0
  6 17  1  0  0  0  0
  7  4  2  0  0  0  0
  8 23  1  6  0  0  0
  8 13  1  0  0  0  0
  8 12  1  0  0  0  0
 10 19  1  0  0  0  0
 13 18  1  1  0  0  0
 13  2  1  0  0  0  0
 14  1  1  0  0  0  0
 15  4  1  0  0  0  0
 16 12  1  6  0  0  0
 16 17  1  0  0  0  0
 16  5  1  0  0  0  0
 18 10  1  0  0  0  0
 19  3  2  0  0  0  0
 19 20  1  0  0  0  0
 20 15  2  0  0  0  0
 22 23  1  0  0  0  0
 22 21  2  0  0  0  0
 24 27  2  0  0  0  0
 24 28  1  0  0  0  0
 25 30  1  0  0  0  0
 25 28  1  0  0  0  0
 26 29  2  0  0  0  0
 29 31  1  0  0  0  0
 29 30  1  0  0  0  0
 30 22  1  1  0  0  0
 31 24  1  0  0  0  0
M  END
>  <MODEL>
6

>  <REMARK>
 VINA RESULT:      -5.9      4.520      9.454
  Name = 
  2 active torsions:
  status: ('A' for Active; 'I' for Inactive)
    1  A    between atoms: C_5  and  C_30
    2  A    between atoms: C_10  and  N_16
                            x       y       z     vdW  Elec       q    Type
                         _______ _______ _______ _____ _____    ______ ____

>  <TORSDO>
F 2

$$$$
=
 OpenBabel11122411203D

 31 35  0  0  1  0  0  0  0  0999 V2000
  184.0630  178.9000  142.1310 C   0  0  2  0  0  3  0  0  0  0  0  0
  181.7150  178.3760  139.1100 C   0  0  2  0  0  3  0  0  0  0  0  0
  181.2840  179.3190  138.0060 C   0  0  0  0  0  0  0  0  0  0  0  0
  180.9050  181.5400  137.2420 C   0  0  0  0  0  0  0  0  0  0  0  0
  182.8330  178.9750  139.9740 C   0  0  1  0  0  3  0  0  0  0  0  0
  185.2550  178.5870  141.4490 O   0  0  0  0  0  0  0  0  0  0  0  0
  181.3110  180.6680  138.2020 N   0  0  0  0  0  0  0  0  0  0  0  0
  183.4480  176.9800  137.8660 C   0  0  2  0  0  3  0  0  0  0  0  0
  184.1010  178.2940  143.5170 C   0  0  0  0  0  1  0  0  0  0  0  0
  180.7230  177.3950  136.5780 N   0  0  0  0  0  2  0  0  0  0  0  0
  180.9640  183.0030  137.4960 C   0  0  0  0  0  1  0  0  0  0  0  0
  184.5310  177.4910  138.8110 C   0  0  0  0  0  2  0  0  0  0  0  0
  182.0880  176.9710  138.5800 C   0  0  2  0  0  3  0  0  0  0  0  0
  182.8630  178.3440  141.3660 C   0  0  0  0  0  2  0  0  0  0  0  0
  180.4300  181.0640  136.0170 C   0  0  0  0  0  3  0  0  0  0  0  0
  184.2120  178.9060  139.2900 C   0  0  2  0  0  3  0  0  0  0  0  0
  185.2800  179.3770  140.2820 C   0  0  0  0  0  2  0  0  0  0  0  0
  180.9770  176.4510  137.6630 C   0  0  0  0  0  2  0  0  0  0  0  0
  180.7810  178.8070  136.7970 C   0  0  0  0  0  0  0  0  0  0  0  0
  180.3700  179.6870  135.7970 C   0  0  0  0  0  3  0  0  0  0  0  0
  185.0610  176.3470  135.5990 O   0  0  0  0  0  0  0  0  0  0  0  0
  184.6110  175.3880  136.2820 C   0  0  0  0  0  0  0  0  0  0  0  0
  183.7890  175.6350  137.4230 N   0  0  0  0  0  2  0  0  0  0  0  0
  182.5940  172.2400  136.2220 C   0  0  0  0  0  0  0  0  0  0  0  0
  184.1150  173.4970  134.7100 C   0  0  0  0  0  2  0  0  0  0  0  0
  185.6820  173.0030  137.9690 O   0  0  0  0  0  0  0  0  0  0  0  0
  181.5280  171.5330  136.3940 N   0  0  0  0  0  2  0  0  0  0  0  0
  182.6600  173.2110  135.0850 C   0  0  0  0  0  2  0  0  0  0  0  0
  184.7870  173.0460  137.0840 C   0  0  0  0  0  0  0  0  0  0  0  0
  184.9370  173.9740  135.9130 C   0  0  2  0  0  3  0  0  0  0  0  0
  183.6190  172.2320  137.2180 N   0  0  0  0  0  2  0  0  0  0  0  0
  1  9  1  1  0  0  0
  2  3  1  6  0  0  0
  2  5  1  0  0  0  0
  3  7  1  0  0  0  0
  4 11  1  0  0  0  0
  4  7  2  0  0  0  0
  5 14  1  1  0  0  0
  6  1  1  0  0  0  0
  8 23  1  1  0  0  0
  8 13  1  0  0  0  0
  8 12  1  0  0  0  0
 10 19  1  0  0  0  0
 10 18  1  0  0  0  0
 13 18  1  6  0  0  0
 13  2  1  0  0  0  0
 14  1  1  0  0  0  0
 15  4  1  0  0  0  0
 16 12  1  1  0  0  0
 16  5  1  0  0  0  0
 16 17  1  0  0  0  0
 17  6  1  0  0  0  0
 19  3  2  0  0  0  0
 20 15  2  0  0  0  0
 20 19  1  0  0  0  0
 21 22  2  0  0  0  0
 22 23  1  0  0  0  0
 24 27  2  0  0  0  0
 24 31  1  0  0  0  0
 25 28  1  0  0  0  0
 25 30  1  0  0  0  0
 28 24  1  0  0  0  0
 29 31  1  0  0  0  0
 29 26  2  0  0  0  0
 30 22  1  1  0  0  0
 30 29  1  0  0  0  0
M  END
>  <MODEL>
7

>  <REMARK>
 VINA RESULT:      -5.3      6.650     10.221
  Name = 
  2 active torsions:
  status: ('A' for Active; 'I' for Inactive)
    1  A    between atoms: C_5  and  C_30
    2  A    between atoms: C_10  and  N_16
                            x       y       z     vdW  Elec       q    Type
                         _______ _______ _______ _____ _____    ______ ____

>  <TORSDO>
F 2

$$$$
=
 OpenBabel11122411203D

 31 35  0  0  1  0  0  0  0  0999 V2000
  181.4190  179.0390  141.2770 C   0  0  2  0  0  3  0  0  0  0  0  0
  180.2310  179.8000  137.6820 C   0  0  2  0  0  3  0  0  0  0  0  0
  180.4460  181.0090  136.7960 C   0  0  0  0  0  0  0  0  0  0  0  0
  180.8830  183.3380  136.5780 C   0  0  0  0  0  0  0  0  0  0  0  0
  181.0790  179.8660  138.9590 C   0  0  1  0  0  3  0  0  0  0  0  0
  182.6680  178.5010  140.9100 O   0  0  0  0  0  0  0  0  0  0  0  0
  180.7130  182.2280  137.3440 N   0  0  0  0  0  0  0  0  0  0  0  0
  181.9180  178.1820  136.6650 C   0  0  2  0  0  3  0  0  0  0  0  0
  180.8250  178.2160  142.4000 C   0  0  0  0  0  1  0  0  0  0  0  0
  179.9960  179.6320  134.8060 N   0  0  0  0  0  2  0  0  0  0  0  0
  181.1850  184.6430  137.2200 C   0  0  0  0  0  1  0  0  0  0  0  0
  182.6860  178.1620  137.9820 C   0  0  0  0  0  2  0  0  0  0  0  0
  180.4310  178.4650  136.9270 C   0  0  2  0  0  3  0  0  0  0  0  0
  180.4710  179.0210  140.0780 C   0  0  0  0  0  2  0  0  0  0  0  0
  180.7740  183.2530  135.1880 C   0  0  0  0  0  3  0  0  0  0  0  0
  182.5550  179.4990  138.7100 C   0  0  2  0  0  3  0  0  0  0  0  0
  183.2840  179.4370  140.0550 C   0  0  0  0  0  2  0  0  0  0  0  0
  179.6260  178.4810  135.6240 C   0  0  0  0  0  2  0  0  0  0  0  0
  180.2970  180.8960  135.4020 C   0  0  0  0  0  0  0  0  0  0  0  0
  180.4790  182.0220  134.5990 C   0  0  0  0  0  3  0  0  0  0  0  0
  181.5470  175.6310  137.8860 O   0  0  0  0  0  0  0  0  0  0  0  0
  181.8620  175.6540  136.6660 C   0  0  0  0  0  0  0  0  0  0  0  0
  182.0720  176.8970  135.9960 N   0  0  0  0  0  2  0  0  0  0  0  0
  180.0480  172.3860  136.7720 C   0  0  0  0  0  0  0  0  0  0  0  0
  180.7580  174.0590  135.0760 C   0  0  0  0  0  2  0  0  0  0  0  0
  183.5800  173.1120  137.1860 O   0  0  0  0  0  0  0  0  0  0  0  0
  179.1680  171.5540  137.2170 N   0  0  0  0  0  2  0  0  0  0  0  0
  179.6090  173.5580  135.9530 C   0  0  0  0  0  2  0  0  0  0  0  0
  182.3910  173.2320  136.7900 C   0  0  0  0  0  0  0  0  0  0  0  0
  182.0130  174.3780  135.8960 C   0  0  2  0  0  3  0  0  0  0  0  0
  181.4030  172.2920  137.2210 N   0  0  0  0  0  2  0  0  0  0  0  0
  1  9  1  1  0  0  0
  2  3  1  6  0  0  0
  2  5  1  0  0  0  0
  3  7  1  0  0  0  0
  4 11  1  0  0  0  0
  4  7  2  0  0  0  0
  5 14  1  1  0  0  0
  6  1  1  0  0  0  0
  8 23  1  1  0  0  0
  8 13  1  0  0  0  0
  8 12  1  0  0  0  0
 10 19  1  0  0  0  0
 10 18  1  0  0  0  0
 13 18  1  6  0  0  0
 13  2  1  0  0  0  0
 14  1  1  0  0  0  0
 15  4  1  0  0  0  0
 16 12  1  1  0  0  0
 16  5  1  0  0  0  0
 16 17  1  0  0  0  0
 17  6  1  0  0  0  0
 19  3  2  0  0  0  0
 20 15  2  0  0  0  0
 20 19  1  0  0  0  0
 22 21  2  0  0  0  0
 23 22  1  0  0  0  0
 24 27  2  0  0  0  0
 24 31  1  0  0  0  0
 25 30  1  0  0  0  0
 25 28  1  0  0  0  0
 28 24  1  0  0  0  0
 29 26  2  0  0  0  0
 29 31  1  0  0  0  0
 30 22  1  1  0  0  0
 30 29  1  0  0  0  0
M  END
>  <MODEL>
8

>  <REMARK>
 VINA RESULT:      -4.8      8.704     11.817
  Name = 
  2 active torsions:
  status: ('A' for Active; 'I' for Inactive)
    1  A    between atoms: C_5  and  C_30
    2  A    between atoms: C_10  and  N_16
                            x       y       z     vdW  Elec       q    Type
                         _______ _______ _______ _____ _____    ______ ____

>  <TORSDO>
F 2

$$$$
=
 OpenBabel11122411203D

 31 35  0  0  1  0  0  0  0  0999 V2000
  188.7730  176.3450  135.2300 C   0  0  2  0  0  3  0  0  0  0  0  0
  185.0610  175.3000  135.0390 C   0  0  2  0  0  3  0  0  0  0  0  0
  184.4010  173.9410  135.1440 C   0  0  0  0  0  0  0  0  0  0  0  0
  184.5300  171.5770  134.9100 C   0  0  0  0  0  0  0  0  0  0  0  0
  186.5530  175.2430  135.3910 C   0  0  1  0  0  3  0  0  0  0  0  0
  188.8200  176.4740  136.6310 O   0  0  0  0  0  0  0  0  0  0  0  0
  185.1010  172.8100  134.8510 N   0  0  0  0  0  0  0  0  0  0  0  0
  184.5660  176.2300  137.3600 C   0  0  2  0  0  3  0  0  0  0  0  0
  189.5550  177.4750  134.5940 C   0  0  0  0  0  1  0  0  0  0  0  0
  182.2760  175.0200  135.7640 N   0  0  0  0  0  2  0  0  0  0  0  0
  185.3370  170.3700  134.5940 C   0  0  0  0  0  1  0  0  0  0  0  0
  186.0620  176.2820  137.6530 C   0  0  0  0  0  2  0  0  0  0  0  0
  184.3190  176.3870  135.8520 C   0  0  2  0  0  3  0  0  0  0  0  0
  187.3240  176.3960  134.7490 C   0  0  0  0  0  2  0  0  0  0  0  0
  183.1860  171.4430  135.2660 C   0  0  0  0  0  3  0  0  0  0  0  0
  186.8010  175.1710  136.9100 C   0  0  2  0  0  3  0  0  0  0  0  0
  188.3060  175.2770  137.1710 C   0  0  0  0  0  2  0  0  0  0  0  0
  182.8240  176.3510  135.5220 C   0  0  0  0  0  2  0  0  0  0  0  0
  183.0370  173.8440  135.4730 C   0  0  0  0  0  0  0  0  0  0  0  0
  182.4370  172.5870  135.5490 C   0  0  0  0  0  3  0  0  0  0  0  0
  182.6720  175.8530  139.4600 O   0  0  0  0  0  0  0  0  0  0  0  0
  182.9600  177.0370  139.1390 C   0  0  0  0  0  0  0  0  0  0  0  0
  183.8930  177.2970  138.0900 N   0  0  0  0  0  2  0  0  0  0  0  0
  181.3510  180.2010  137.9650 C   0  0  0  0  0  0  0  0  0  0  0  0
  180.8470  178.3320  139.5240 C   0  0  0  0  0  2  0  0  0  0  0  0
  184.1580  179.7020  140.2090 O   0  0  0  0  0  0  0  0  0  0  0  0
  180.9540  181.0500  137.0760 N   0  0  0  0  0  2  0  0  0  0  0  0
  180.6230  178.9030  138.1230 C   0  0  0  0  0  2  0  0  0  0  0  0
  183.0790  179.4730  139.6040 C   0  0  0  0  0  0  0  0  0  0  0  0
  182.3360  178.1920  139.8590 C   0  0  2  0  0  3  0  0  0  0  0  0
  182.5840  180.4210  138.6530 N   0  0  0  0  0  2  0  0  0  0  0  0
  1  9  1  6  0  0  0
  1  6  1  0  0  0  0
  2  3  1  1  0  0  0
  2  5  1  0  0  0  0
  2 13  1  0  0  0  0
  3 19  1  0  0  0  0
  4 15  2  0  0  0  0
  5 14  1  1  0  0  0
  5 16  1  0  0  0  0
  6 17  1  0  0  0  0
  7  4  1  0  0  0  0
  7  3  2  0  0  0  0
  8 12  1  0  0  0  0
  8 23  1  1  0  0  0
 11  4  1  0  0  0  0
 13 18  1  1  0  0  0
 13  8  1  0  0  0  0
 14  1  1  0  0  0  0
 15 20  1  0  0  0  0
 16 17  1  6  0  0  0
 16 12  1  0  0  0  0
 18 10  1  0  0  0  0
 19 20  2  0  0  0  0
 19 10  1  0  0  0  0
 22 21  2  0  0  0  0
 23 22  1  0  0  0  0
 24 28  1  0  0  0  0
 24 31  1  0  0  0  0
 25 30  1  0  0  0  0
 27 24  2  0  0  0  0
 28 25  1  0  0  0  0
 29 30  1  0  0  0  0
 29 26  2  0  0  0  0
 30 22  1  6  0  0  0
 31 29  1  0  0  0  0
M  END
>  <MODEL>
9

>  <REMARK>
 VINA RESULT:      -4.7      5.172      7.118
  Name = 
  2 active torsions:
  status: ('A' for Active; 'I' for Inactive)
    1  A    between atoms: C_5  and  C_30
    2  A    between atoms: C_10  and  N_16
                            x       y       z     vdW  Elec       q    Type
                         _______ _______ _______ _____ _____    ______ ____

>  <TORSDO>
F 2

$$$$
