=
 OpenBabel11122411013D

 31 35  0  0  1  0  0  0  0  0999 V2000
  187.4760  177.3520  135.8950 C   0  0  0  0  0  0  0  0  0  0  0  0
  187.1990  178.4680  139.4750 N   0  0  0  0  0  0  0  0  0  0  0  0
  185.7980  178.4860  139.8460 C   0  0  0  0  0  0  0  0  0  0  0  0
  183.4400  178.1940  139.3090 C   0  0  0  0  0  0  0  0  0  0  0  0
  187.6530  177.8140  138.2730 C   0  0  0  0  0  0  0  0  0  0  0  0
  188.5780  176.4960  135.9760 C   0  0  0  0  0  3  0  0  0  0  0  0
  184.7780  178.2450  138.9100 C   0  0  0  0  0  3  0  0  0  0  0  0
  188.7800  177.2750  140.8130 N   0  0  0  0  0  0  0  0  0  0  0  0
  186.7930  177.5620  134.5940 C   0  0  0  0  0  1  0  0  0  0  0  0
  186.4360  178.9180  142.1400 O   0  0  0  0  0  0  0  0  0  0  0  0
  182.4450  177.9600  138.3710 O   0  0  0  0  0  1  0  0  0  0  0  0
  189.5340  176.8100  139.6390 C   0  0  0  0  0  2  0  0  0  0  0  0
  188.2360  178.6080  140.5100 C   0  0  2  0  0  3  0  0  0  0  0  0
  187.0180  178.0130  137.0380 C   0  0  0  0  0  3  0  0  0  0  0  0
  183.1060  178.3690  140.6540 C   0  0  0  0  0  3  0  0  0  0  0  0
  188.7660  176.9530  138.3480 C   0  0  0  0  0  0  0  0  0  0  0  0
  189.2270  176.3030  137.2000 C   0  0  0  0  0  3  0  0  0  0  0  0
  187.7240  179.3720  141.7440 C   0  0  0  0  0  2  0  0  0  0  0  0
  185.4450  178.6760  141.1940 C   0  0  0  0  0  0  0  0  0  0  0  0
  184.1080  178.6080  141.5960 C   0  0  0  0  0  3  0  0  0  0  0  0
  189.7520  177.3670  141.8990 C   0  0  0  0  0  2  0  0  0  0  0  0
  190.4610  175.3450  143.1890 C   0  0  0  0  0  1  0  0  0  0  0  0
  189.3790  176.3950  143.0120 C   0  0  1  0  0  3  0  0  0  0  0  0
  188.8220  177.6470  147.0350 C   0  0  0  0  0  0  0  0  0  0  0  0
  190.2470  177.6820  144.9830 C   0  0  0  0  0  2  0  0  0  0  0  0
  186.7730  176.8760  144.2280 O   0  0  0  0  0  0  0  0  0  0  0  0
  188.7090  178.0340  148.4660 C   0  0  0  0  0  1  0  0  0  0  0  0
  190.1740  177.3100  146.4650 C   0  0  0  0  0  2  0  0  0  0  0  0
  187.8140  177.1550  144.8800 C   0  0  0  0  0  0  0  0  0  0  0  0
  189.1160  177.0980  144.2660 N   0  0  0  0  0  0  0  0  0  0  0  0
  187.7130  177.5260  146.2990 C   0  0  0  0  0  3  0  0  0  0  0  0
  1  6  2  0  0  0  0
  1 14  1  0  0  0  0
  2  3  1  0  0  0  0
  2 13  1  0  0  0  0
  3 19  1  0  0  0  0
  4 15  2  0  0  0  0
  5 16  1  0  0  0  0
  5  2  1  0  0  0  0
  6 17  1  0  0  0  0
  7  4  1  0  0  0  0
  7  3  2  0  0  0  0
  8 21  1  0  0  0  0
  9  1  1  0  0  0  0
 11  4  1  0  0  0  0
 12  8  1  0  0  0  0
 13  8  1  0  0  0  0
 13 18  1  1  0  0  0
 14  5  2  0  0  0  0
 15 20  1  0  0  0  0
 16 12  1  0  0  0  0
 17 16  2  0  0  0  0
 18 10  1  0  0  0  0
 19 20  2  0  0  0  0
 19 10  1  0  0  0  0
 21 23  1  0  0  0  0
 23 22  1  1  0  0  0
 23 30  1  0  0  0  0
 24 27  1  0  0  0  0
 25 28  1  0  0  0  0
 26 29  2  0  0  0  0
 28 24  1  0  0  0  0
 29 31  1  0  0  0  0
 30 29  1  0  0  0  0
 30 25  1  0  0  0  0
 31 24  2  0  0  0  0
M  END
>  <MODEL>
1

>  <REMARK>
 VINA RESULT:      -8.3      0.000      0.000
  Name = 
  3 active torsions:
  status: ('A' for Active; 'I' for Inactive)
    1  A    between atoms: C_5  and  C_16
    2  A    between atoms: C_5  and  N_30
    3  A    between atoms: N_10  and  C_16
                            x       y       z     vdW  Elec       q    Type
                         _______ _______ _______ _____ _____    ______ ____

>  <TORSDO>
F 3

$$$$
=
 OpenBabel11122411013D

 31 35  0  0  1  0  0  0  0  0999 V2000
  185.1130  178.5900  144.4220 C   0  0  0  0  0  0  0  0  0  0  0  0
  188.8310  178.2660  143.9680 N   0  0  0  0  0  0  0  0  0  0  0  0
  189.3920  177.6680  145.1640 C   0  0  0  0  0  0  0  0  0  0  0  0
  189.1600  176.7710  147.4160 C   0  0  0  0  0  0  0  0  0  0  0  0
  187.4120  178.2570  143.7140 C   0  0  0  0  0  0  0  0  0  0  0  0
  184.6630  178.1970  143.1590 C   0  0  0  0  0  3  0  0  0  0  0  0
  188.6120  177.4160  146.3050 C   0  0  0  0  0  3  0  0  0  0  0  0
  189.3000  177.3250  141.8220 N   0  0  0  0  0  0  0  0  0  0  0  0
  184.1350  178.9720  145.4730 C   0  0  0  0  0  1  0  0  0  0  0  0
  191.5310  177.4990  144.0450 O   0  0  0  0  0  0  0  0  0  0  0  0
  188.3780  176.5340  148.5370 O   0  0  0  0  0  1  0  0  0  0  0  0
  187.9350  177.5750  141.3330 C   0  0  0  0  0  2  0  0  0  0  0  0
  189.6560  178.4030  142.7570 C   0  0  2  0  0  3  0  0  0  0  0  0
  186.4820  178.6240  144.6980 C   0  0  0  0  0  3  0  0  0  0  0  0
  190.4930  176.3560  147.3950 C   0  0  0  0  0  3  0  0  0  0  0  0
  186.9530  177.8660  142.4410 C   0  0  0  0  0  0  0  0  0  0  0  0
  185.5830  177.8440  142.1660 C   0  0  0  0  0  3  0  0  0  0  0  0
  191.1580  178.4790  143.0850 C   0  0  0  0  0  2  0  0  0  0  0  0
  190.7370  177.2600  145.1620 C   0  0  0  0  0  0  0  0  0  0  0  0
  191.2810  176.5980  146.2680 C   0  0  0  0  0  3  0  0  0  0  0  0
  190.1610  177.3800  140.6440 C   0  0  0  0  0  2  0  0  0  0  0  0
  189.2390  178.6950  138.7270 C   0  0  0  0  0  1  0  0  0  0  0  0
  189.3120  177.3270  139.3800 C   0  0  1  0  0  3  0  0  0  0  0  0
  190.9630  175.1220  136.1430 C   0  0  0  0  0  0  0  0  0  0  0  0
  191.2440  176.0160  138.4590 C   0  0  0  0  0  2  0  0  0  0  0  0
  187.7350  175.7400  137.5090 O   0  0  0  0  0  0  0  0  0  0  0  0
  191.6120  174.4200  135.0040 C   0  0  0  0  0  1  0  0  0  0  0  0
  191.7920  176.0120  137.0310 C   0  0  0  0  0  2  0  0  0  0  0  0
  188.9920  175.6970  137.4410 C   0  0  0  0  0  0  0  0  0  0  0  0
  189.8150  176.3220  138.4440 N   0  0  0  0  0  0  0  0  0  0  0  0
  189.6420  175.0160  136.3120 C   0  0  0  0  0  3  0  0  0  0  0  0
  1 14  1  0  0  0  0
  1  9  1  0  0  0  0
  2  3  1  0  0  0  0
  3  7  1  0  0  0  0
  4 11  1  0  0  0  0
  5  2  1  0  0  0  0
  5 14  2  0  0  0  0
  6  1  2  0  0  0  0
  7  4  2  0  0  0  0
  8 13  1  0  0  0  0
 10 19  1  0  0  0  0
 12  8  1  0  0  0  0
 12 16  1  0  0  0  0
 13 18  1  1  0  0  0
 13  2  1  0  0  0  0
 15  4  1  0  0  0  0
 16  5  1  0  0  0  0
 17 16  2  0  0  0  0
 17  6  1  0  0  0  0
 18 10  1  0  0  0  0
 19  3  2  0  0  0  0
 19 20  1  0  0  0  0
 20 15  2  0  0  0  0
 21  8  1  0  0  0  0
 23 22  1  6  0  0  0
 23 21  1  0  0  0  0
 24 31  2  0  0  0  0
 24 28  1  0  0  0  0
 27 24  1  0  0  0  0
 28 25  1  0  0  0  0
 29 26  2  0  0  0  0
 29 30  1  0  0  0  0
 30 25  1  0  0  0  0
 30 23  1  0  0  0  0
 31 29  1  0  0  0  0
M  END
>  <MODEL>
2

>  <REMARK>
 VINA RESULT:      -8.3      2.621      7.751
  Name = 
  3 active torsions:
  status: ('A' for Active; 'I' for Inactive)
    1  A    between atoms: C_5  and  C_16
    2  A    between atoms: C_5  and  N_30
    3  A    between atoms: N_10  and  C_16
                            x       y       z     vdW  Elec       q    Type
                         _______ _______ _______ _____ _____    ______ ____

>  <TORSDO>
F 3

$$$$
=
 OpenBabel11122411013D

 31 35  0  0  1  0  0  0  0  0999 V2000
  190.8130  176.3780  136.0670 C   0  0  0  0  0  0  0  0  0  0  0  0
  188.5370  177.9820  138.5940 N   0  0  0  0  0  0  0  0  0  0  0  0
  187.1660  177.8050  138.1580 C   0  0  0  0  0  0  0  0  0  0  0  0
  185.5190  177.0090  136.5490 C   0  0  0  0  0  0  0  0  0  0  0  0
  189.6190  177.2380  138.0000 C   0  0  0  0  0  0  0  0  0  0  0  0
  191.7400  175.7590  136.9100 C   0  0  0  0  0  3  0  0  0  0  0  0
  186.8490  177.2370  136.9130 C   0  0  0  0  0  3  0  0  0  0  0  0
  189.1910  177.3240  140.7960 N   0  0  0  0  0  0  0  0  0  0  0  0
  190.9480  176.2500  134.5940 C   0  0  0  0  0  1  0  0  0  0  0  0
  186.4050  178.7060  140.2710 O   0  0  0  0  0  0  0  0  0  0  0  0
  185.2230  176.4530  135.3130 O   0  0  0  0  0  1  0  0  0  0  0  0
  190.4960  176.8220  140.3380 C   0  0  0  0  0  2  0  0  0  0  0  0
  188.8200  178.4710  139.9530 C   0  0  2  0  0  3  0  0  0  0  0  0
  189.7590  177.1190  136.6090 C   0  0  0  0  0  3  0  0  0  0  0  0
  184.4890  177.3340  137.4340 C   0  0  0  0  0  3  0  0  0  0  0  0
  190.5590  176.6150  138.8450 C   0  0  0  0  0  0  0  0  0  0  0  0
  191.6180  175.8850  138.2970 C   0  0  0  0  0  3  0  0  0  0  0  0
  187.6650  179.3170  140.5170 C   0  0  0  0  0  2  0  0  0  0  0  0
  186.1180  178.1410  139.0320 C   0  0  0  0  0  0  0  0  0  0  0  0
  184.7870  177.8970  138.6760 C   0  0  0  0  0  3  0  0  0  0  0  0
  189.3960  177.7630  142.1740 C   0  0  0  0  0  2  0  0  0  0  0  0
  189.3390  175.5010  143.2410 C   0  0  0  0  0  1  0  0  0  0  0  0
  188.6410  176.8440  143.1270 C   0  0  1  0  0  3  0  0  0  0  0  0
  188.2390  177.8000  147.2490 C   0  0  0  0  0  0  0  0  0  0  0  0
  189.6710  177.8080  145.2020 C   0  0  0  0  0  2  0  0  0  0  0  0
  186.1240  177.5930  144.3940 O   0  0  0  0  0  0  0  0  0  0  0  0
  188.1720  178.0690  148.7090 C   0  0  0  0  0  1  0  0  0  0  0  0
  189.5320  177.3200  146.6450 C   0  0  0  0  0  2  0  0  0  0  0  0
  187.1890  177.6560  145.0630 C   0  0  0  0  0  0  0  0  0  0  0  0
  188.4730  177.4640  144.4410 N   0  0  0  0  0  0  0  0  0  0  0  0
  187.1310  177.9090  146.5100 C   0  0  0  0  0  3  0  0  0  0  0  0
  1 14  2  0  0  0  0
  1  6  1  0  0  0  0
  2 13  1  0  0  0  0
  3  2  1  0  0  0  0
  3 19  1  0  0  0  0
  4  7  1  0  0  0  0
  4 15  2  0  0  0  0
  5  2  1  0  0  0  0
  5 16  2  0  0  0  0
  6 17  2  0  0  0  0
  7  3  2  0  0  0  0
  8 21  1  0  0  0  0
  9  1  1  0  0  0  0
 10 18  1  0  0  0  0
 11  4  1  0  0  0  0
 12  8  1  0  0  0  0
 13 18  1  1  0  0  0
 13  8  1  0  0  0  0
 14  5  1  0  0  0  0
 15 20  1  0  0  0  0
 16 12  1  0  0  0  0
 17 16  1  0  0  0  0
 19 10  1  0  0  0  0
 20 19  2  0  0  0  0
 21 23  1  0  0  0  0
 23 22  1  1  0  0  0
 23 30  1  0  0  0  0
 24 27  1  0  0  0  0
 25 28  1  0  0  0  0
 26 29  2  0  0  0  0
 28 24  1  0  0  0  0
 29 31  1  0  0  0  0
 30 29  1  0  0  0  0
 30 25  1  0  0  0  0
 31 24  2  0  0  0  0
M  END
>  <MODEL>
3

>  <REMARK>
 VINA RESULT:      -7.7      1.542      2.259
  Name = 
  3 active torsions:
  status: ('A' for Active; 'I' for Inactive)
    1  A    between atoms: C_5  and  C_16
    2  A    between atoms: C_5  and  N_30
    3  A    between atoms: N_10  and  C_16
                            x       y       z     vdW  Elec       q    Type
                         _______ _______ _______ _____ _____    ______ ____

>  <TORSDO>
F 3

$$$$
=
 OpenBabel11122411013D

 31 35  0  0  1  0  0  0  0  0999 V2000
  188.8980  178.1700  139.4440 C   0  0  0  0  0  0  0  0  0  0  0  0
  186.1400  178.6440  141.9550 N   0  0  0  0  0  0  0  0  0  0  0  0
  184.8690  178.6090  141.2580 C   0  0  0  0  0  0  0  0  0  0  0  0
  183.5560  178.4380  139.2140 C   0  0  0  0  0  0  0  0  0  0  0  0
  187.3590  178.2070  141.3230 C   0  0  0  0  0  0  0  0  0  0  0  0
  189.7390  177.3030  140.1460 C   0  0  0  0  0  3  0  0  0  0  0  0
  184.7920  178.5450  139.8570 C   0  0  0  0  0  3  0  0  0  0  0  0
  186.5140  177.2200  143.8380 N   0  0  0  0  0  0  0  0  0  0  0  0
  189.2610  178.6110  138.0740 C   0  0  0  0  0  1  0  0  0  0  0  0
  183.7260  178.6270  143.3910 O   0  0  0  0  0  0  0  0  0  0  0  0
  183.4970  178.3820  137.8290 O   0  0  0  0  0  1  0  0  0  0  0  0
  187.9110  176.9610  143.4580 C   0  0  0  0  0  2  0  0  0  0  0  0
  186.1730  178.5900  143.4260 C   0  0  2  0  0  3  0  0  0  0  0  0
  187.7140  178.6250  140.0320 C   0  0  0  0  0  3  0  0  0  0  0  0
  182.3810  178.3780  139.9660 C   0  0  0  0  0  3  0  0  0  0  0  0
  188.2140  177.3350  142.0270 C   0  0  0  0  0  0  0  0  0  0  0  0
  189.4020  176.8930  141.4390 C   0  0  0  0  0  3  0  0  0  0  0  0
  184.8770  179.1310  144.0550 C   0  0  0  0  0  2  0  0  0  0  0  0
  183.6770  178.5640  142.0020 C   0  0  0  0  0  0  0  0  0  0  0  0
  182.4410  178.4380  141.3590 C   0  0  0  0  0  3  0  0  0  0  0  0
  186.4720  177.1110  145.2940 C   0  0  0  0  0  2  0  0  0  0  0  0
  186.3850  178.8890  147.0510 C   0  0  0  0  0  1  0  0  0  0  0  0
  187.2050  178.2900  145.9230 C   0  0  1  0  0  3  0  0  0  0  0  0
  190.9610  176.4620  146.7090 C   0  0  0  0  0  0  0  0  0  0  0  0
  189.6910  178.2970  145.5840 C   0  0  0  0  0  2  0  0  0  0  0  0
  187.8490  176.8700  148.3870 O   0  0  0  0  0  0  0  0  0  0  0  0
  192.2830  175.8060  146.8860 C   0  0  0  0  0  1  0  0  0  0  0  0
  190.6250  177.1010  145.3880 C   0  0  0  0  0  2  0  0  0  0  0  0
  188.7570  177.0610  147.5360 C   0  0  0  0  0  0  0  0  0  0  0  0
  188.5360  177.9010  146.3860 N   0  0  0  0  0  0  0  0  0  0  0  0
  190.0620  176.4050  147.6960 C   0  0  0  0  0  3  0  0  0  0  0  0
  1 14  2  0  0  0  0
  1  6  1  0  0  0  0
  2 13  1  0  0  0  0
  3  2  1  0  0  0  0
  3 19  1  0  0  0  0
  4  7  1  0  0  0  0
  4 15  2  0  0  0  0
  5  2  1  0  0  0  0
  5 16  2  0  0  0  0
  6 17  2  0  0  0  0
  7  3  2  0  0  0  0
  8 21  1  0  0  0  0
  9  1  1  0  0  0  0
 10 18  1  0  0  0  0
 11  4  1  0  0  0  0
 12  8  1  0  0  0  0
 13  8  1  0  0  0  0
 13 18  1  1  0  0  0
 14  5  1  0  0  0  0
 15 20  1  0  0  0  0
 16 12  1  0  0  0  0
 17 16  1  0  0  0  0
 19 10  1  0  0  0  0
 20 19  2  0  0  0  0
 21 23  1  0  0  0  0
 23 30  1  0  0  0  0
 23 22  1  1  0  0  0
 24 27  1  0  0  0  0
 24 31  2  0  0  0  0
 25 30  1  0  0  0  0
 28 25  1  0  0  0  0
 28 24  1  0  0  0  0
 29 31  1  0  0  0  0
 29 26  2  0  0  0  0
 30 29  1  0  0  0  0
M  END
>  <MODEL>
4

>  <REMARK>
 VINA RESULT:      -7.5      2.021      3.339
  Name = 
  3 active torsions:
  status: ('A' for Active; 'I' for Inactive)
    1  A    between atoms: C_5  and  C_16
    2  A    between atoms: C_5  and  N_30
    3  A    between atoms: N_10  and  C_16
                            x       y       z     vdW  Elec       q    Type
                         _______ _______ _______ _____ _____    ______ ____

>  <TORSDO>
F 3

$$$$
=
 OpenBabel11122411013D

 31 35  0  0  1  0  0  0  0  0999 V2000
  184.2080  179.0830  142.8550 C   0  0  0  0  0  0  0  0  0  0  0  0
  187.2850  178.5420  140.7640 N   0  0  0  0  0  0  0  0  0  0  0  0
  188.2740  177.8500  141.5670 C   0  0  0  0  0  0  0  0  0  0  0  0
  189.0100  176.8600  143.6670 C   0  0  0  0  0  0  0  0  0  0  0  0
  185.9080  178.6360  141.1790 C   0  0  0  0  0  0  0  0  0  0  0  0
  183.2080  178.7830  141.9260 C   0  0  0  0  0  3  0  0  0  0  0  0
  188.0740  177.5940  142.9340 C   0  0  0  0  0  3  0  0  0  0  0  0
  186.6610  177.6780  138.6240 N   0  0  0  0  0  0  0  0  0  0  0  0
  183.8410  179.4760  144.2400 C   0  0  0  0  0  1  0  0  0  0  0  0
  189.6600  177.5980  139.6000 O   0  0  0  0  0  0  0  0  0  0  0  0
  188.7990  176.6210  145.0170 O   0  0  0  0  0  1  0  0  0  0  0  0
  185.2470  178.0400  138.8090 C   0  0  0  0  0  2  0  0  0  0  0  0
  187.4850  178.6830  139.3120 C   0  0  2  0  0  3  0  0  0  0  0  0
  185.5530  179.0150  142.4820 C   0  0  0  0  0  3  0  0  0  0  0  0
  190.1530  176.3620  143.0390 C   0  0  0  0  0  3  0  0  0  0  0  0
  184.8950  178.3390  140.2450 C   0  0  0  0  0  0  0  0  0  0  0  0
  183.5510  178.4200  140.6200 C   0  0  0  0  0  3  0  0  0  0  0  0
  188.9740  178.6450  138.9260 C   0  0  0  0  0  2  0  0  0  0  0  0
  189.4370  177.3560  140.9510 C   0  0  0  0  0  0  0  0  0  0  0  0
  190.3650  176.6070  141.6820 C   0  0  0  0  0  3  0  0  0  0  0  0
  186.9010  177.7340  137.1850 C   0  0  0  0  0  2  0  0  0  0  0  0
  185.9100  177.0370  134.9970 C   0  0  0  0  0  1  0  0  0  0  0  0
  186.0300  176.7070  136.4740 C   0  0  1  0  0  3  0  0  0  0  0  0
  187.2850  172.6570  136.1790 C   0  0  0  0  0  0  0  0  0  0  0  0
  187.9230  175.0700  136.2970 C   0  0  0  0  0  2  0  0  0  0  0  0
  184.5980  174.4610  137.6600 O   0  0  0  0  0  0  0  0  0  0  0  0
  187.7630  171.2620  135.9870 C   0  0  0  0  0  1  0  0  0  0  0  0
  187.9900  173.7830  135.4720 C   0  0  0  0  0  2  0  0  0  0  0  0
  185.7160  174.2560  137.1170 C   0  0  0  0  0  0  0  0  0  0  0  0
  186.5390  175.3510  136.6710 N   0  0  0  0  0  0  0  0  0  0  0  0
  186.1900  172.8800  136.9110 C   0  0  0  0  0  3  0  0  0  0  0  0
  1  9  1  0  0  0  0
  2  5  1  0  0  0  0
  2  3  1  0  0  0  0
  3  7  1  0  0  0  0
  4 11  1  0  0  0  0
  5 14  2  0  0  0  0
  6  1  2  0  0  0  0
  7  4  2  0  0  0  0
  8 12  1  0  0  0  0
  8 13  1  0  0  0  0
 10 19  1  0  0  0  0
 12 16  1  0  0  0  0
 13 18  1  1  0  0  0
 13  2  1  0  0  0  0
 14  1  1  0  0  0  0
 15  4  1  0  0  0  0
 16 17  2  0  0  0  0
 16  5  1  0  0  0  0
 17  6  1  0  0  0  0
 18 10  1  0  0  0  0
 19  3  2  0  0  0  0
 19 20  1  0  0  0  0
 20 15  2  0  0  0  0
 21  8  1  0  0  0  0
 23 22  1  6  0  0  0
 23 30  1  0  0  0  0
 23 21  1  0  0  0  0
 24 31  2  0  0  0  0
 25 30  1  0  0  0  0
 27 24  1  0  0  0  0
 28 24  1  0  0  0  0
 28 25  1  0  0  0  0
 29 26  2  0  0  0  0
 30 29  1  0  0  0  0
 31 29  1  0  0  0  0
M  END
>  <MODEL>
5

>  <REMARK>
 VINA RESULT:      -7.4      2.424      7.542
  Name = 
  3 active torsions:
  status: ('A' for Active; 'I' for Inactive)
    1  A    between atoms: C_5  and  C_16
    2  A    between atoms: C_5  and  N_30
    3  A    between atoms: N_10  and  C_16
                            x       y       z     vdW  Elec       q    Type
                         _______ _______ _______ _____ _____    ______ ____

>  <TORSDO>
F 3

$$$$
=
 OpenBabel11122411013D

 31 35  0  0  1  0  0  0  0  0999 V2000
  193.1830  176.0750  136.8370 C   0  0  0  0  0  0  0  0  0  0  0  0
  189.7470  177.0480  138.0130 N   0  0  0  0  0  0  0  0  0  0  0  0
  188.7710  176.2440  137.3040 C   0  0  0  0  0  0  0  0  0  0  0  0
  188.1890  174.5530  135.6500 C   0  0  0  0  0  0  0  0  0  0  0  0
  191.1500  176.7170  138.0000 C   0  0  0  0  0  0  0  0  0  0  0  0
  193.8770  176.0630  138.0490 C   0  0  0  0  0  3  0  0  0  0  0  0
  189.1400  175.3720  136.2660 C   0  0  0  0  0  3  0  0  0  0  0  0
  189.7130  177.1480  140.4000 N   0  0  0  0  0  0  0  0  0  0  0  0
  193.8880  175.7370  135.5740 C   0  0  0  0  0  1  0  0  0  0  0  0
  187.0340  177.1360  138.7340 O   0  0  0  0  0  0  0  0  0  0  0  0
  188.5690  173.7010  134.6230 O   0  0  0  0  0  1  0  0  0  0  0  0
  191.1810  177.1490  140.4950 C   0  0  0  0  0  2  0  0  0  0  0  0
  189.3320  177.8580  139.1700 C   0  0  2  0  0  3  0  0  0  0  0  0
  191.8250  176.4050  136.8110 C   0  0  0  0  0  3  0  0  0  0  0  0
  186.8600  174.5870  136.0740 C   0  0  0  0  0  3  0  0  0  0  0  0
  191.8560  176.7080  139.2190 C   0  0  0  0  0  0  0  0  0  0  0  0
  193.2170  176.3880  139.2380 C   0  0  0  0  0  3  0  0  0  0  0  0
  187.8440  178.2450  139.1030 C   0  0  0  0  0  2  0  0  0  0  0  0
  187.4260  176.2790  137.7100 C   0  0  0  0  0  0  0  0  0  0  0  0
  186.4780  175.4470  137.1050 C   0  0  0  0  0  3  0  0  0  0  0  0
  189.2390  177.8840  141.5690 C   0  0  0  0  0  2  0  0  0  0  0  0
  189.5370  175.9810  143.1640 C   0  0  0  0  0  1  0  0  0  0  0  0
  188.5390  176.9330  142.5320 C   0  0  1  0  0  3  0  0  0  0  0  0
  186.1230  178.2370  145.7760 C   0  0  0  0  0  0  0  0  0  0  0  0
  188.4170  177.8770  144.8530 C   0  0  0  0  0  2  0  0  0  0  0  0
  185.9060  178.1490  142.2250 O   0  0  0  0  0  0  0  0  0  0  0  0
  185.3180  178.6200  146.9660 C   0  0  0  0  0  1  0  0  0  0  0  0
  187.4340  177.5220  145.9700 C   0  0  0  0  0  2  0  0  0  0  0  0
  186.4270  178.0970  143.3700 C   0  0  0  0  0  0  0  0  0  0  0  0
  187.7890  177.6650  143.5510 N   0  0  0  0  0  0  0  0  0  0  0  0
  185.6340  178.4610  144.5530 C   0  0  0  0  0  3  0  0  0  0  0  0
  1  6  1  0  0  0  0
  2 13  1  0  0  0  0
  3 19  1  0  0  0  0
  3  2  1  0  0  0  0
  4 15  2  0  0  0  0
  4  7  1  0  0  0  0
  5  2  1  0  0  0  0
  5 16  2  0  0  0  0
  6 17  2  0  0  0  0
  7  3  2  0  0  0  0
  8 12  1  0  0  0  0
  8 21  1  0  0  0  0
  9  1  1  0  0  0  0
 10 18  1  0  0  0  0
 11  4  1  0  0  0  0
 13 18  1  1  0  0  0
 13  8  1  0  0  0  0
 14  1  2  0  0  0  0
 14  5  1  0  0  0  0
 15 20  1  0  0  0  0
 16 17  1  0  0  0  0
 16 12  1  0  0  0  0
 19 10  1  0  0  0  0
 20 19  2  0  0  0  0
 21 23  1  0  0  0  0
 23 22  1  1  0  0  0
 23 30  1  0  0  0  0
 24 28  1  0  0  0  0
 24 27  1  0  0  0  0
 25 28  1  0  0  0  0
 26 29  2  0  0  0  0
 29 30  1  0  0  0  0
 29 31  1  0  0  0  0
 30 25  1  0  0  0  0
 31 24  2  0  0  0  0
M  END
>  <MODEL>
6

>  <REMARK>
 VINA RESULT:      -7.4      2.806      4.305
  Name = 
  3 active torsions:
  status: ('A' for Active; 'I' for Inactive)
    1  A    between atoms: C_5  and  C_16
    2  A    between atoms: C_5  and  N_30
    3  A    between atoms: N_10  and  C_16
                            x       y       z     vdW  Elec       q    Type
                         _______ _______ _______ _____ _____    ______ ____

>  <TORSDO>
F 3

$$$$
=
 OpenBabel11122411013D

 31 35  0  0  1  0  0  0  0  0999 V2000
  184.8570  179.0960  145.0360 C   0  0  0  0  0  0  0  0  0  0  0  0
  185.0950  179.1600  141.2850 N   0  0  0  0  0  0  0  0  0  0  0  0
  186.3870  178.6280  140.8950 C   0  0  0  0  0  0  0  0  0  0  0  0
  188.5780  177.7190  141.4430 C   0  0  0  0  0  0  0  0  0  0  0  0
  184.5880  179.0020  142.6240 C   0  0  0  0  0  0  0  0  0  0  0  0
  183.5420  178.6550  145.2040 C   0  0  0  0  0  3  0  0  0  0  0  0
  187.3710  178.3000  141.8410 C   0  0  0  0  0  3  0  0  0  0  0  0
  183.0920  178.2650  140.3360 N   0  0  0  0  0  0  0  0  0  0  0  0
  185.7020  179.3780  146.2240 C   0  0  0  0  0  1  0  0  0  0  0  0
  185.6810  178.6780  138.5810 O   0  0  0  0  0  0  0  0  0  0  0  0
  189.5430  177.4060  142.3900 O   0  0  0  0  0  1  0  0  0  0  0  0
  182.3570  178.3710  141.6060 C   0  0  0  0  0  2  0  0  0  0  0  0
  184.0520  179.3780  140.2690 C   0  0  2  0  0  3  0  0  0  0  0  0
  185.3770  179.2740  143.7520 C   0  0  0  0  0  3  0  0  0  0  0  0
  188.8090  177.4450  140.0940 C   0  0  0  0  0  3  0  0  0  0  0  0
  183.2610  178.5610  142.7990 C   0  0  0  0  0  0  0  0  0  0  0  0
  182.7420  178.3960  144.0870 C   0  0  0  0  0  3  0  0  0  0  0  0
  184.6460  179.6100  138.8690 C   0  0  0  0  0  2  0  0  0  0  0  0
  186.6390  178.3620  139.5380 C   0  0  0  0  0  0  0  0  0  0  0  0
  187.8400  177.7640  139.1420 C   0  0  0  0  0  3  0  0  0  0  0  0
  182.0900  178.4050  139.2840 C   0  0  0  0  0  2  0  0  0  0  0  0
  179.5980  178.4990  139.0880 C   0  0  0  0  0  1  0  0  0  0  0  0
  180.7720  177.7900  139.7380 C   0  0  1  0  0  3  0  0  0  0  0  0
  180.0430  173.8420  138.3420 C   0  0  0  0  0  0  0  0  0  0  0  0
  181.5510  175.8340  138.3720 C   0  0  0  0  0  2  0  0  0  0  0  0
  179.3060  175.7680  141.2430 O   0  0  0  0  0  0  0  0  0  0  0  0
  179.7850  172.4980  137.7610 C   0  0  0  0  0  1  0  0  0  0  0  0
  180.7160  174.8940  137.5010 C   0  0  0  0  0  2  0  0  0  0  0  0
  179.8600  175.4430  140.1600 C   0  0  0  0  0  0  0  0  0  0  0  0
  180.7360  176.3530  139.4680 N   0  0  0  0  0  0  0  0  0  0  0  0
  179.6010  174.1210  139.5720 C   0  0  0  0  0  3  0  0  0  0  0  0
  1  6  1  0  0  0  0
  1  9  1  0  0  0  0
  2  5  1  0  0  0  0
  3  2  1  0  0  0  0
  3  7  1  0  0  0  0
  4  7  2  0  0  0  0
  4 11  1  0  0  0  0
  5 16  2  0  0  0  0
  5 14  1  0  0  0  0
  8 12  1  0  0  0  0
 10 18  1  0  0  0  0
 10 19  1  0  0  0  0
 12 16  1  0  0  0  0
 13 18  1  6  0  0  0
 13  8  1  0  0  0  0
 13  2  1  0  0  0  0
 14  1  2  0  0  0  0
 15  4  1  0  0  0  0
 16 17  1  0  0  0  0
 17  6  2  0  0  0  0
 19  3  2  0  0  0  0
 20 19  1  0  0  0  0
 20 15  2  0  0  0  0
 21 23  1  0  0  0  0
 21  8  1  0  0  0  0
 23 22  1  6  0  0  0
 24 31  2  0  0  0  0
 25 30  1  0  0  0  0
 27 24  1  0  0  0  0
 28 24  1  0  0  0  0
 28 25  1  0  0  0  0
 29 26  2  0  0  0  0
 30 23  1  0  0  0  0
 30 29  1  0  0  0  0
 31 29  1  0  0  0  0
M  END
>  <MODEL>
7

>  <REMARK>
 VINA RESULT:      -7.3      3.437      8.530
  Name = 
  3 active torsions:
  status: ('A' for Active; 'I' for Inactive)
    1  A    between atoms: C_5  and  C_16
    2  A    between atoms: C_5  and  N_30
    3  A    between atoms: N_10  and  C_16
                            x       y       z     vdW  Elec       q    Type
                         _______ _______ _______ _____ _____    ______ ____

>  <TORSDO>
F 3

$$$$
=
 OpenBabel11122411013D

 31 35  0  0  1  0  0  0  0  0999 V2000
  188.5610  177.8690  144.0840 C   0  0  0  0  0  0  0  0  0  0  0  0
  186.7120  178.6160  140.8970 N   0  0  0  0  0  0  0  0  0  0  0  0
  187.4330  178.0140  139.7920 C   0  0  0  0  0  0  0  0  0  0  0  0
  189.3190  176.7560  138.9030 C   0  0  0  0  0  0  0  0  0  0  0  0
  187.0010  178.2690  142.2650 C   0  0  0  0  0  0  0  0  0  0  0  0
  187.4960  177.5680  144.9360 C   0  0  0  0  0  3  0  0  0  0  0  0
  188.6810  177.3940  139.9700 C   0  0  0  0  0  3  0  0  0  0  0  0
  184.3830  178.1690  141.1950 N   0  0  0  0  0  0  0  0  0  0  0  0
  189.9560  177.8150  144.5910 C   0  0  0  0  0  1  0  0  0  0  0  0
  185.6030  178.5890  138.3170 O   0  0  0  0  0  0  0  0  0  0  0  0
  190.5540  176.1540  139.0940 O   0  0  0  0  0  1  0  0  0  0  0  0
  184.5050  178.1200  142.6610 C   0  0  0  0  0  2  0  0  0  0  0  0
  185.3550  179.1480  140.6870 C   0  0  2  0  0  3  0  0  0  0  0  0
  188.3150  178.2230  142.7540 C   0  0  0  0  0  3  0  0  0  0  0  0
  188.7100  176.7180  137.6470 C   0  0  0  0  0  3  0  0  0  0  0  0
  185.9310  177.9680  143.1310 C   0  0  0  0  0  0  0  0  0  0  0  0
  186.1820  177.6260  144.4630 C   0  0  0  0  0  3  0  0  0  0  0  0
  185.1170  179.5680  139.2260 C   0  0  0  0  0  2  0  0  0  0  0  0
  186.8380  177.9810  138.5190 C   0  0  0  0  0  0  0  0  0  0  0  0
  187.4690  177.3280  137.4560 C   0  0  0  0  0  3  0  0  0  0  0  0
  183.0230  178.6280  140.9250 C   0  0  0  0  0  2  0  0  0  0  0  0
  180.6860  177.7370  140.9520 C   0  0  0  0  0  1  0  0  0  0  0  0
  182.1310  177.4380  140.5940 C   0  0  1  0  0  3  0  0  0  0  0  0
  183.3700  176.5280  136.6320 C   0  0  0  0  0  0  0  0  0  0  0  0
  182.6810  175.6880  138.8820 C   0  0  0  0  0  2  0  0  0  0  0  0
  181.5180  179.0880  138.2700 O   0  0  0  0  0  0  0  0  0  0  0  0
  183.8850  176.1670  135.2850 C   0  0  0  0  0  1  0  0  0  0  0  0
  183.7870  175.7100  137.8250 C   0  0  0  0  0  2  0  0  0  0  0  0
  182.0880  177.9780  138.0990 C   0  0  0  0  0  0  0  0  0  0  0  0
  182.2580  177.0520  139.1900 N   0  0  0  0  0  0  0  0  0  0  0  0
  182.6120  177.6190  136.7740 C   0  0  0  0  0  3  0  0  0  0  0  0
  1  9  1  0  0  0  0
  1  6  1  0  0  0  0
  2  5  1  0  0  0  0
  3  7  1  0  0  0  0
  3  2  1  0  0  0  0
  4 11  1  0  0  0  0
  4  7  2  0  0  0  0
  5 14  1  0  0  0  0
  5 16  2  0  0  0  0
  8 12  1  0  0  0  0
 10 19  1  0  0  0  0
 10 18  1  0  0  0  0
 12 16  1  0  0  0  0
 13 18  1  6  0  0  0
 13  2  1  0  0  0  0
 13  8  1  0  0  0  0
 14  1  2  0  0  0  0
 15  4  1  0  0  0  0
 16 17  1  0  0  0  0
 17  6  2  0  0  0  0
 19  3  2  0  0  0  0
 20 15  2  0  0  0  0
 20 19  1  0  0  0  0
 21  8  1  0  0  0  0
 23 21  1  0  0  0  0
 23 22  1  6  0  0  0
 24 31  2  0  0  0  0
 24 28  1  0  0  0  0
 25 30  1  0  0  0  0
 27 24  1  0  0  0  0
 28 25  1  0  0  0  0
 29 26  2  0  0  0  0
 29 30  1  0  0  0  0
 30 23  1  0  0  0  0
 31 29  1  0  0  0  0
M  END
>  <MODEL>
8

>  <REMARK>
 VINA RESULT:      -7.2      2.311      7.661
  Name = 
  3 active torsions:
  status: ('A' for Active; 'I' for Inactive)
    1  A    between atoms: C_5  and  C_16
    2  A    between atoms: C_5  and  N_30
    3  A    between atoms: N_10  and  C_16
                            x       y       z     vdW  Elec       q    Type
                         _______ _______ _______ _____ _____    ______ ____

>  <TORSDO>
F 3

$$$$
=
 OpenBabel11122411013D

 31 35  0  0  1  0  0  0  0  0999 V2000
  185.1990  178.6310  139.1540 C   0  0  0  0  0  0  0  0  0  0  0  0
  188.7980  177.8580  139.9210 N   0  0  0  0  0  0  0  0  0  0  0  0
  188.8950  177.4380  141.3050 C   0  0  0  0  0  0  0  0  0  0  0  0
  187.8950  177.0010  143.4830 C   0  0  0  0  0  0  0  0  0  0  0  0
  187.5270  177.9440  139.2460 C   0  0  0  0  0  0  0  0  0  0  0  0
  185.0770  178.0590  137.8850 C   0  0  0  0  0  3  0  0  0  0  0  0
  187.7930  177.4810  142.1740 C   0  0  0  0  0  3  0  0  0  0  0  0
  189.7140  176.4930  138.1860 N   0  0  0  0  0  0  0  0  0  0  0  0
  184.0310  179.2970  139.7840 C   0  0  0  0  0  1  0  0  0  0  0  0
  191.2140  176.8510  140.9380 O   0  0  0  0  0  0  0  0  0  0  0  0
  186.7980  177.0560  144.3290 O   0  0  0  0  0  1  0  0  0  0  0  0
  188.6010  176.7840  137.2680 C   0  0  0  0  0  2  0  0  0  0  0  0
  189.9470  177.6840  139.0170 C   0  0  2  0  0  3  0  0  0  0  0  0
  186.4210  178.5780  139.8310 C   0  0  0  0  0  3  0  0  0  0  0  0
  189.1000  176.4580  143.9340 C   0  0  0  0  0  3  0  0  0  0  0  0
  187.3990  177.3720  137.9650 C   0  0  0  0  0  0  0  0  0  0  0  0
  186.1780  177.4380  137.2880 C   0  0  0  0  0  3  0  0  0  0  0  0
  191.2850  177.6680  139.7770 C   0  0  0  0  0  2  0  0  0  0  0  0
  190.1070  176.9040  141.7780 C   0  0  0  0  0  0  0  0  0  0  0  0
  190.2040  176.4070  143.0820 C   0  0  0  0  0  3  0  0  0  0  0  0
  190.8750  176.2420  137.3360 C   0  0  0  0  0  2  0  0  0  0  0  0
  190.4130  173.7960  137.0950 C   0  0  0  0  0  1  0  0  0  0  0  0
  191.4050  174.8350  137.5850 C   0  0  1  0  0  3  0  0  0  0  0  0
  195.2040  173.4930  136.2320 C   0  0  0  0  0  0  0  0  0  0  0  0
  192.7920  173.8940  135.7180 C   0  0  0  0  0  2  0  0  0  0  0  0
  193.9480  175.9030  138.5310 O   0  0  0  0  0  0  0  0  0  0  0  0
  196.4920  172.9330  135.7460 C   0  0  0  0  0  1  0  0  0  0  0  0
  193.9110  172.8540  135.8000 C   0  0  0  0  0  2  0  0  0  0  0  0
  193.9470  175.0710  137.5850 C   0  0  0  0  0  0  0  0  0  0  0  0
  192.7170  174.6450  136.9690 N   0  0  0  0  0  0  0  0  0  0  0  0
  195.2150  174.5030  137.1070 C   0  0  0  0  0  3  0  0  0  0  0  0
  1  9  1  0  0  0  0
  1 14  1  0  0  0  0
  2  3  1  0  0  0  0
  3 19  2  0  0  0  0
  3  7  1  0  0  0  0
  4 15  1  0  0  0  0
  4 11  1  0  0  0  0
  5 14  2  0  0  0  0
  5  2  1  0  0  0  0
  6  1  2  0  0  0  0
  7  4  2  0  0  0  0
  8 13  1  0  0  0  0
 10 19  1  0  0  0  0
 12 16  1  0  0  0  0
 12  8  1  0  0  0  0
 13 18  1  1  0  0  0
 13  2  1  0  0  0  0
 16  5  1  0  0  0  0
 17  6  1  0  0  0  0
 17 16  2  0  0  0  0
 18 10  1  0  0  0  0
 19 20  1  0  0  0  0
 20 15  2  0  0  0  0
 21 23  1  0  0  0  0
 21  8  1  0  0  0  0
 23 22  1  6  0  0  0
 24 31  2  0  0  0  0
 25 28  1  0  0  0  0
 25 30  1  0  0  0  0
 27 24  1  0  0  0  0
 28 24  1  0  0  0  0
 29 26  2  0  0  0  0
 30 29  1  0  0  0  0
 30 23  1  0  0  0  0
 31 29  1  0  0  0  0
M  END
>  <MODEL>
9

>  <REMARK>
 VINA RESULT:      -6.9      3.692      7.168
  Name = 
  3 active torsions:
  status: ('A' for Active; 'I' for Inactive)
    1  A    between atoms: C_5  and  C_16
    2  A    between atoms: C_5  and  N_30
    3  A    between atoms: N_10  and  C_16
                            x       y       z     vdW  Elec       q    Type
                         _______ _______ _______ _____ _____    ______ ____

>  <TORSDO>
F 3

$$$$
