=
 OpenBabel11122412153D

 34 40  0  0  1  0  0  0  0  0999 V2000
  188.9790  177.4960  143.1690 C   0  0  0  0  0  0  0  0  0  0  0  0
  187.2620  177.6220  145.0360 C   0  0  0  0  0  3  0  0  0  0  0  0
  188.3030  176.2150  136.8160 C   0  0  0  0  0  2  0  0  0  0  0  0
  190.3240  177.4620  141.1490 C   0  0  0  0  0  0  0  0  0  0  0  0
  189.3420  178.3530  139.0220 C   0  0  0  0  0  0  0  0  0  0  0  0
  188.4010  178.7280  136.7180 C   0  0  0  0  0  2  0  0  0  0  0  0
  188.4730  177.4330  135.9170 C   0  0  0  0  0  2  0  0  0  0  0  0
  190.7050  176.0470  137.6150 C   0  0  0  0  0  2  0  0  0  0  0  0
  186.6620  178.2120  142.9470 C   0  0  0  0  0  0  0  0  0  0  0  0
  183.7560  178.1180  142.1260 C   0  0  0  0  0  3  0  0  0  0  0  0
  188.2190  178.5760  139.6440 N   0  0  0  0  0  0  0  0  0  0  0  0
  190.3890  176.0990  139.1040 C   0  0  0  0  0  2  0  0  0  0  0  0
  186.7820  178.4500  141.6110 N   0  0  0  0  0  0  0  0  0  0  0  0
  185.9500  177.9820  145.0520 N   0  0  0  0  0  0  0  0  0  0  0  0
  190.4450  177.5280  139.6500 C   0  0  2  0  0  3  0  0  0  0  0  0
  189.5760  175.3700  136.8450 C   0  0  0  0  0  2  0  0  0  0  0  0
  184.2090  178.8000  143.3920 C   0  0  2  0  0  3  0  0  0  0  0  0
  189.0970  177.7180  141.7760 C   0  0  0  0  0  0  0  0  0  0  0  0
  189.5000  178.7820  137.6700 N   0  0  0  0  0  2  0  0  0  0  0  0
  188.0030  178.2190  141.0180 C   0  0  0  0  0  0  0  0  0  0  0  0
  191.2870  176.8260  143.2340 C   0  0  0  0  0  3  0  0  0  0  0  0
  184.4230  178.2250  140.9690 C   0  0  0  0  0  3  0  0  0  0  0  0
  191.3800  177.0230  141.8910 N   0  0  0  0  0  0  0  0  0  0  0  0
  185.6830  179.0340  140.8380 C   0  0  0  0  0  2  0  0  0  0  0  0
  185.5810  178.3240  143.7900 C   0  0  0  0  0  0  0  0  0  0  0  0
  190.0810  177.0530  143.9020 C   0  0  0  0  0  3  0  0  0  0  0  0
  187.7430  177.7420  143.7480 C   0  0  0  0  0  0  0  0  0  0  0  0
  183.1920  178.5550  144.4980 C   0  0  0  0  0  2  0  0  0  0  0  0
  182.0630  179.4580  144.3460 N   0  0  0  0  0  2  0  0  0  0  0  0
  178.9350  178.9210  144.3010 O   0  0  0  0  0  0  0  0  0  0  0  0
  180.3640  179.8860  142.6860 C   0  0  0  0  0  2  0  0  0  0  0  0
  181.1310  178.8280  143.4260 C   0  0  2  0  0  3  0  0  0  0  0  0
  178.9310  179.6670  143.1140 C   0  0  0  0  0  2  0  0  0  0  0  0
  180.0660  178.0990  144.2120 C   0  0  0  0  0  2  0  0  0  0  0  0
  1 27  2  0  0  0  0
  1 26  1  0  0  0  0
  2 14  2  0  0  0  0
  3 16  1  0  0  0  0
  4 18  1  0  0  0  0
  4 23  2  0  0  0  0
  5 11  2  0  0  0  0
  5 15  1  0  0  0  0
  6 19  1  0  0  0  0
  7  6  1  0  0  0  0
  7  3  1  0  0  0  0
  8 12  1  0  0  0  0
  9 27  1  0  0  0  0
  9 25  2  0  0  0  0
 10 17  1  0  0  0  0
 11 20  1  0  0  0  0
 13  9  1  0  0  0  0
 15 12  1  6  0  0  0
 15  4  1  0  0  0  0
 16  8  1  0  0  0  0
 17 25  1  0  0  0  0
 17 28  1  1  0  0  0
 18  1  1  0  0  0  0
 19  5  1  0  0  0  0
 20 13  1  0  0  0  0
 20 18  2  0  0  0  0
 21 26  2  0  0  0  0
 22 10  2  0  0  0  0
 23 21  1  0  0  0  0
 24 22  1  0  0  0  0
 24 13  1  0  0  0  0
 25 14  1  0  0  0  0
 27  2  1  0  0  0  0
 29 28  1  0  0  0  0
 31 33  1  0  0  0  0
 31 32  1  0  0  0  0
 32 34  1  0  0  0  0
 32 29  1  1  0  0  0
 33 30  1  0  0  0  0
 34 30  1  0  0  0  0
M  END
>  <MODEL>
1

>  <REMARK>
 VINA RESULT:      -9.7      0.000      0.000
  Name = 
  3 active torsions:
  status: ('A' for Active; 'I' for Inactive)
    1  A    between atoms: C_17  and  C_28
    2  A    between atoms: C_28  and  N_29
    3  A    between atoms: N_29  and  C_32
                            x       y       z     vdW  Elec       q    Type
                         _______ _______ _______ _____ _____    ______ ____

>  <TORSDO>
F 3

$$$$
=
 OpenBabel11122412153D

 34 40  0  0  1  0  0  0  0  0999 V2000
  189.2820  177.7470  138.8050 C   0  0  0  0  0  0  0  0  0  0  0  0
  191.3250  177.2390  140.2260 C   0  0  0  0  0  3  0  0  0  0  0  0
  182.9580  176.5580  139.8310 C   0  0  0  0  0  2  0  0  0  0  0  0
  187.1330  178.2270  137.7830 C   0  0  0  0  0  0  0  0  0  0  0  0
  185.1980  178.8320  139.2560 C   0  0  0  0  0  0  0  0  0  0  0  0
  183.0420  178.9680  140.5480 C   0  0  0  0  0  2  0  0  0  0  0  0
  182.1420  177.7990  140.1700 C   0  0  0  0  0  2  0  0  0  0  0  0
  183.4820  177.1470  137.4190 C   0  0  0  0  0  2  0  0  0  0  0  0
  189.3630  177.6810  141.2380 C   0  0  0  0  0  0  0  0  0  0  0  0
  188.8520  176.6830  144.0430 C   0  0  0  0  0  3  0  0  0  0  0  0
  185.9510  178.6550  140.3040 N   0  0  0  0  0  0  0  0  0  0  0  0
  184.9960  177.0370  137.5470 C   0  0  0  0  0  2  0  0  0  0  0  0
  188.0440  177.9960  141.3690 N   0  0  0  0  0  0  0  0  0  0  0  0
  191.5080  177.1540  141.5710 N   0  0  0  0  0  0  0  0  0  0  0  0
  185.6390  178.3850  137.8790 C   0  0  2  0  0  3  0  0  0  0  0  0
  182.7870  176.1700  138.3630 C   0  0  0  0  0  2  0  0  0  0  0  0
  190.1100  177.4250  143.6750 C   0  0  2  0  0  3  0  0  0  0  0  0
  187.9060  178.0480  138.9390 C   0  0  0  0  0  0  0  0  0  0  0  0
  183.8720  179.3390  139.4130 N   0  0  0  0  0  2  0  0  0  0  0  0
  187.3090  178.1950  140.2220 C   0  0  0  0  0  0  0  0  0  0  0  0
  189.0500  177.8590  136.4140 C   0  0  0  0  0  3  0  0  0  0  0  0
  187.6410  177.0430  143.5950 C   0  0  0  0  0  3  0  0  0  0  0  0
  187.7230  178.1260  136.5590 N   0  0  0  0  0  0  0  0  0  0  0  0
  187.4390  178.2220  142.6840 C   0  0  0  0  0  2  0  0  0  0  0  0
  190.3230  177.4060  142.1850 C   0  0  0  0  0  0  0  0  0  0  0  0
  189.8570  177.6570  137.5370 C   0  0  0  0  0  3  0  0  0  0  0  0
  190.0060  177.5570  139.9720 C   0  0  0  0  0  0  0  0  0  0  0  0
  191.2970  176.8230  144.4140 C   0  0  0  0  0  2  0  0  0  0  0  0
  191.4670  177.4780  145.7010 N   0  0  0  0  0  2  0  0  0  0  0  0
  193.1790  175.3590  147.3290 O   0  0  0  0  0  0  0  0  0  0  0  0
  191.6490  177.0030  148.0610 C   0  0  0  0  0  2  0  0  0  0  0  0
  191.1890  176.4870  146.7270 C   0  0  2  0  0  3  0  0  0  0  0  0
  192.7350  176.0370  148.4730 C   0  0  0  0  0  2  0  0  0  0  0  0
  192.0550  175.2700  146.4970 C   0  0  0  0  0  2  0  0  0  0  0  0
  1 18  1  0  0  0  0
  1 27  2  0  0  0  0
  2 14  2  0  0  0  0
  3  7  1  0  0  0  0
  4 15  1  0  0  0  0
  4 18  1  0  0  0  0
  5 19  1  0  0  0  0
  5 11  2  0  0  0  0
  7  6  1  0  0  0  0
  8 12  1  0  0  0  0
  8 16  1  0  0  0  0
  9 13  1  0  0  0  0
  9 25  2  0  0  0  0
 13 24  1  0  0  0  0
 14 25  1  0  0  0  0
 15 12  1  1  0  0  0
 15  5  1  0  0  0  0
 16  3  1  0  0  0  0
 17 10  1  0  0  0  0
 17 28  1  1  0  0  0
 18 20  2  0  0  0  0
 19  6  1  0  0  0  0
 20 11  1  0  0  0  0
 20 13  1  0  0  0  0
 21 23  1  0  0  0  0
 21 26  2  0  0  0  0
 22 10  2  0  0  0  0
 23  4  2  0  0  0  0
 24 22  1  0  0  0  0
 25 17  1  0  0  0  0
 26  1  1  0  0  0  0
 27  2  1  0  0  0  0
 27  9  1  0  0  0  0
 28 29  1  0  0  0  0
 30 33  1  0  0  0  0
 31 33  1  0  0  0  0
 32 29  1  6  0  0  0
 32 31  1  0  0  0  0
 34 32  1  0  0  0  0
 34 30  1  0  0  0  0
M  END
>  <MODEL>
2

>  <REMARK>
 VINA RESULT:      -9.6      3.513      7.362
  Name = 
  3 active torsions:
  status: ('A' for Active; 'I' for Inactive)
    1  A    between atoms: C_17  and  C_28
    2  A    between atoms: C_28  and  N_29
    3  A    between atoms: N_29  and  C_32
                            x       y       z     vdW  Elec       q    Type
                         _______ _______ _______ _____ _____    ______ ____

>  <TORSDO>
F 3

$$$$
=
 OpenBabel11122412153D

 34 40  0  0  1  0  0  0  0  0999 V2000
  188.8790  177.5410  137.9040 C   0  0  0  0  0  0  0  0  0  0  0  0
  191.0760  177.1110  139.1030 C   0  0  0  0  0  3  0  0  0  0  0  0
  182.7180  176.5550  139.7830 C   0  0  0  0  0  2  0  0  0  0  0  0
  186.6250  177.9770  137.1140 C   0  0  0  0  0  0  0  0  0  0  0  0
  184.8900  178.7340  138.7560 C   0  0  0  0  0  0  0  0  0  0  0  0
  182.9100  179.0130  140.2840 C   0  0  0  0  0  2  0  0  0  0  0  0
  181.9600  177.8330  140.1160 C   0  0  0  0  0  2  0  0  0  0  0  0
  182.9480  176.9380  137.2860 C   0  0  0  0  0  2  0  0  0  0  0  0
  189.2570  177.6700  140.3070 C   0  0  0  0  0  0  0  0  0  0  0  0
  189.0840  176.9090  143.2250 C   0  0  0  0  0  3  0  0  0  0  0  0
  185.7640  178.6280  139.7170 N   0  0  0  0  0  0  0  0  0  0  0  0
  184.4650  176.8110  137.2370 C   0  0  0  0  0  2  0  0  0  0  0  0
  187.9660  178.0190  140.5700 N   0  0  0  0  0  0  0  0  0  0  0  0
  191.4210  177.1320  140.4190 N   0  0  0  0  0  0  0  0  0  0  0  0
  185.1560  178.1690  137.3770 C   0  0  2  0  0  3  0  0  0  0  0  0
  182.3660  176.0530  138.3840 C   0  0  0  0  0  2  0  0  0  0  0  0
  190.2940  177.5970  142.6480 C   0  0  2  0  0  3  0  0  0  0  0  0
  187.5320  177.8770  138.1790 C   0  0  0  0  0  0  0  0  0  0  0  0
  183.5980  179.2760  139.0310 N   0  0  0  0  0  2  0  0  0  0  0  0
  187.0980  178.1380  139.5080 C   0  0  0  0  0  0  0  0  0  0  0  0
  188.3570  177.4640  135.5580 C   0  0  0  0  0  3  0  0  0  0  0  0
  187.8310  177.2550  142.9000 C   0  0  0  0  0  3  0  0  0  0  0  0
  187.0600  177.7670  135.8400 N   0  0  0  0  0  0  0  0  0  0  0  0
  187.5290  178.3600  141.9260 C   0  0  0  0  0  2  0  0  0  0  0  0
  190.3220  177.4540  141.1490 C   0  0  0  0  0  0  0  0  0  0  0  0
  189.2940  177.3390  136.5870 C   0  0  0  0  0  3  0  0  0  0  0  0
  189.7390  177.4320  138.9870 C   0  0  0  0  0  0  0  0  0  0  0  0
  191.5570  177.0350  143.2850 C   0  0  0  0  0  2  0  0  0  0  0  0
  191.2080  176.1340  144.3720 N   0  0  0  0  0  2  0  0  0  0  0  0
  190.1220  176.3780  147.3450 O   0  0  0  0  0  0  0  0  0  0  0  0
  192.2220  175.6830  146.5150 C   0  0  0  0  0  2  0  0  0  0  0  0
  191.6810  176.7460  145.6030 C   0  0  2  0  0  3  0  0  0  0  0  0
  191.3090  175.7320  147.7180 C   0  0  0  0  0  2  0  0  0  0  0  0
  190.5040  177.3070  146.3680 C   0  0  0  0  0  2  0  0  0  0  0  0
  1 18  1  0  0  0  0
  1 27  2  0  0  0  0
  2 14  2  0  0  0  0
  3  7  1  0  0  0  0
  4 15  1  0  0  0  0
  4 18  1  0  0  0  0
  5 19  1  0  0  0  0
  5 11  2  0  0  0  0
  7  6  1  0  0  0  0
  8 16  1  0  0  0  0
  9 13  1  0  0  0  0
  9 25  2  0  0  0  0
 12  8  1  0  0  0  0
 13 24  1  0  0  0  0
 14 25  1  0  0  0  0
 15 12  1  1  0  0  0
 15  5  1  0  0  0  0
 16  3  1  0  0  0  0
 17 10  1  0  0  0  0
 17 28  1  1  0  0  0
 18 20  2  0  0  0  0
 19  6  1  0  0  0  0
 20 11  1  0  0  0  0
 20 13  1  0  0  0  0
 21 23  1  0  0  0  0
 21 26  2  0  0  0  0
 22 10  2  0  0  0  0
 23  4  2  0  0  0  0
 24 22  1  0  0  0  0
 25 17  1  0  0  0  0
 26  1  1  0  0  0  0
 27  2  1  0  0  0  0
 27  9  1  0  0  0  0
 28 29  1  0  0  0  0
 30 33  1  0  0  0  0
 31 33  1  0  0  0  0
 32 29  1  6  0  0  0
 32 34  1  0  0  0  0
 32 31  1  0  0  0  0
 34 30  1  0  0  0  0
M  END
>  <MODEL>
3

>  <REMARK>
 VINA RESULT:      -9.3      3.244      7.323
  Name = 
  3 active torsions:
  status: ('A' for Active; 'I' for Inactive)
    1  A    between atoms: C_17  and  C_28
    2  A    between atoms: C_28  and  N_29
    3  A    between atoms: N_29  and  C_32
                            x       y       z     vdW  Elec       q    Type
                         _______ _______ _______ _____ _____    ______ ____

>  <TORSDO>
F 3

$$$$
=
 OpenBabel11122412153D

 34 40  0  0  1  0  0  0  0  0999 V2000
  189.0440  177.6730  138.9580 C   0  0  0  0  0  0  0  0  0  0  0  0
  190.8570  177.1930  140.6700 C   0  0  0  0  0  3  0  0  0  0  0  0
  182.6040  176.7040  139.1640 C   0  0  0  0  0  2  0  0  0  0  0  0
  187.0710  178.1510  137.6270 C   0  0  0  0  0  0  0  0  0  0  0  0
  184.9740  178.8850  138.7870 C   0  0  0  0  0  0  0  0  0  0  0  0
  182.6690  179.1470  139.7620 C   0  0  0  0  0  2  0  0  0  0  0  0
  181.7900  177.9820  139.3240 C   0  0  0  0  0  2  0  0  0  0  0  0
  183.4690  177.1450  136.8210 C   0  0  0  0  0  2  0  0  0  0  0  0
  188.7920  177.7400  141.3800 C   0  0  0  0  0  0  0  0  0  0  0  0
  187.8710  176.9110  144.1350 C   0  0  0  0  0  3  0  0  0  0  0  0
  185.5710  178.7470  139.9370 N   0  0  0  0  0  0  0  0  0  0  0  0
  184.9480  177.0040  137.1610 C   0  0  0  0  0  2  0  0  0  0  0  0
  187.4780  178.0950  141.3110 N   0  0  0  0  0  0  0  0  0  0  0  0
  190.8530  177.1780  142.0300 N   0  0  0  0  0  0  0  0  0  0  0  0
  185.5840  178.3520  137.5080 C   0  0  2  0  0  3  0  0  0  0  0  0
  182.6210  176.2400  137.7090 C   0  0  0  0  0  2  0  0  0  0  0  0
  189.1910  177.6000  143.9060 C   0  0  2  0  0  3  0  0  0  0  0  0
  187.6730  178.0160  138.8860 C   0  0  0  0  0  0  0  0  0  0  0  0
  183.6570  179.4340  138.7340 N   0  0  0  0  0  2  0  0  0  0  0  0
  186.9130  178.2490  140.0660 C   0  0  0  0  0  0  0  0  0  0  0  0
  189.1430  177.6590  136.5560 C   0  0  0  0  0  3  0  0  0  0  0  0
  186.7450  177.2770  143.5070 C   0  0  0  0  0  3  0  0  0  0  0  0
  187.8180  177.9670  136.5020 N   0  0  0  0  0  0  0  0  0  0  0  0
  186.7080  178.4080  142.5180 C   0  0  0  0  0  2  0  0  0  0  0  0
  189.6040  177.4930  142.4620 C   0  0  0  0  0  0  0  0  0  0  0  0
  189.7830  177.4990  137.7870 C   0  0  0  0  0  3  0  0  0  0  0  0
  189.5960  177.5300  140.2220 C   0  0  0  0  0  0  0  0  0  0  0  0
  190.2460  177.0100  144.8310 C   0  0  0  0  0  2  0  0  0  0  0  0
  190.4370  177.8740  145.9850 N   0  0  0  0  0  2  0  0  0  0  0  0
  189.3550  178.6150  148.8750 O   0  0  0  0  0  0  0  0  0  0  0  0
  188.5100  177.1380  147.2370 C   0  0  0  0  0  2  0  0  0  0  0  0
  190.0090  177.1270  147.1560 C   0  0  2  0  0  3  0  0  0  0  0  0
  188.2170  177.8760  148.5220 C   0  0  0  0  0  2  0  0  0  0  0  0
  190.4400  177.8630  148.4040 C   0  0  0  0  0  2  0  0  0  0  0  0
  1 27  2  0  0  0  0
  2 14  2  0  0  0  0
  3  7  1  0  0  0  0
  4 18  1  0  0  0  0
  5 11  2  0  0  0  0
  7  6  1  0  0  0  0
  8 12  1  0  0  0  0
  8 16  1  0  0  0  0
  9 25  2  0  0  0  0
 11 20  1  0  0  0  0
 13  9  1  0  0  0  0
 13 24  1  0  0  0  0
 14 25  1  0  0  0  0
 15 12  1  1  0  0  0
 15  4  1  0  0  0  0
 15  5  1  0  0  0  0
 16  3  1  0  0  0  0
 17 10  1  0  0  0  0
 17 28  1  1  0  0  0
 18  1  1  0  0  0  0
 18 20  2  0  0  0  0
 19  5  1  0  0  0  0
 19  6  1  0  0  0  0
 20 13  1  0  0  0  0
 21 26  2  0  0  0  0
 22 10  2  0  0  0  0
 23 21  1  0  0  0  0
 23  4  2  0  0  0  0
 24 22  1  0  0  0  0
 25 17  1  0  0  0  0
 26  1  1  0  0  0  0
 27  2  1  0  0  0  0
 27  9  1  0  0  0  0
 28 29  1  0  0  0  0
 31 33  1  0  0  0  0
 32 29  1  6  0  0  0
 32 31  1  0  0  0  0
 32 34  1  0  0  0  0
 33 30  1  0  0  0  0
 34 30  1  0  0  0  0
M  END
>  <MODEL>
4

>  <REMARK>
 VINA RESULT:      -8.9      3.163      6.454
  Name = 
  3 active torsions:
  status: ('A' for Active; 'I' for Inactive)
    1  A    between atoms: C_17  and  C_28
    2  A    between atoms: C_28  and  N_29
    3  A    between atoms: N_29  and  C_32
                            x       y       z     vdW  Elec       q    Type
                         _______ _______ _______ _____ _____    ______ ____

>  <TORSDO>
F 3

$$$$
=
 OpenBabel11122412153D

 34 40  0  0  1  0  0  0  0  0999 V2000
  187.2950  177.5530  137.7600 C   0  0  0  0  0  0  0  0  0  0  0  0
  189.5490  177.3960  138.9180 C   0  0  0  0  0  3  0  0  0  0  0  0
  181.2520  176.6510  140.0240 C   0  0  0  0  0  2  0  0  0  0  0  0
  184.9980  177.7790  137.0060 C   0  0  0  0  0  0  0  0  0  0  0  0
  183.2920  178.7190  138.5830 C   0  0  0  0  0  0  0  0  0  0  0  0
  181.3570  179.1620  140.1300 C   0  0  0  0  0  2  0  0  0  0  0  0
  180.4530  177.9370  140.1860 C   0  0  0  0  0  2  0  0  0  0  0  0
  181.3760  176.6470  137.4900 C   0  0  0  0  0  2  0  0  0  0  0  0
  187.7520  178.0690  140.0950 C   0  0  0  0  0  0  0  0  0  0  0  0
  187.7160  177.7680  143.1010 C   0  0  0  0  0  3  0  0  0  0  0  0
  184.2030  178.7970  139.5100 N   0  0  0  0  0  0  0  0  0  0  0  0
  182.8950  176.5690  137.3980 C   0  0  0  0  0  2  0  0  0  0  0  0
  186.4580  178.4080  140.3550 N   0  0  0  0  0  0  0  0  0  0  0  0
  189.9400  177.6340  140.1990 N   0  0  0  0  0  0  0  0  0  0  0  0
  183.5320  177.9560  137.2970 C   0  0  2  0  0  3  0  0  0  0  0  0
  180.8710  175.9240  138.7350 C   0  0  0  0  0  2  0  0  0  0  0  0
  188.8740  178.4000  142.3740 C   0  0  2  0  0  3  0  0  0  0  0  0
  185.9460  177.8790  138.0350 C   0  0  0  0  0  0  0  0  0  0  0  0
  181.9890  179.2510  138.8240 N   0  0  0  0  0  2  0  0  0  0  0  0
  185.5490  178.3280  139.3250 C   0  0  0  0  0  0  0  0  0  0  0  0
  186.6940  177.0920  135.4780 C   0  0  0  0  0  3  0  0  0  0  0  0
  186.4380  178.0130  142.7780 C   0  0  0  0  0  3  0  0  0  0  0  0
  185.3960  177.3880  135.7630 N   0  0  0  0  0  0  0  0  0  0  0  0
  186.0550  178.9410  141.6590 C   0  0  0  0  0  2  0  0  0  0  0  0
  188.8550  178.0260  140.9160 C   0  0  0  0  0  0  0  0  0  0  0  0
  187.6710  177.1630  136.4730 C   0  0  0  0  0  3  0  0  0  0  0  0
  188.1960  177.6460  138.8090 C   0  0  0  0  0  0  0  0  0  0  0  0
  190.1810  177.9900  143.0370 C   0  0  0  0  0  2  0  0  0  0  0  0
  189.9160  177.0900  144.1470 N   0  0  0  0  0  2  0  0  0  0  0  0
  189.6540  176.6020  147.2730 O   0  0  0  0  0  0  0  0  0  0  0  0
  191.5600  176.8650  145.9010 C   0  0  0  0  0  2  0  0  0  0  0  0
  190.4540  177.7150  145.3450 C   0  0  2  0  0  3  0  0  0  0  0  0
  191.0460  176.4370  147.2560 C   0  0  0  0  0  2  0  0  0  0  0  0
  189.4060  177.6960  146.4340 C   0  0  0  0  0  2  0  0  0  0  0  0
  1 18  1  0  0  0  0
  1 27  2  0  0  0  0
  2 14  2  0  0  0  0
  3  7  1  0  0  0  0
  4 15  1  0  0  0  0
  4 18  1  0  0  0  0
  5 19  1  0  0  0  0
  5 11  2  0  0  0  0
  6  7  1  0  0  0  0
  8 16  1  0  0  0  0
  9 13  1  0  0  0  0
  9 25  2  0  0  0  0
 12  8  1  0  0  0  0
 13 24  1  0  0  0  0
 14 25  1  0  0  0  0
 15 12  1  1  0  0  0
 15  5  1  0  0  0  0
 16  3  1  0  0  0  0
 17 28  1  1  0  0  0
 17 10  1  0  0  0  0
 18 20  2  0  0  0  0
 19  6  1  0  0  0  0
 20 11  1  0  0  0  0
 20 13  1  0  0  0  0
 21 23  1  0  0  0  0
 21 26  2  0  0  0  0
 22 10  2  0  0  0  0
 23  4  2  0  0  0  0
 24 22  1  0  0  0  0
 25 17  1  0  0  0  0
 26  1  1  0  0  0  0
 27  2  1  0  0  0  0
 27  9  1  0  0  0  0
 28 29  1  0  0  0  0
 31 33  1  0  0  0  0
 32 29  1  6  0  0  0
 32 31  1  0  0  0  0
 32 34  1  0  0  0  0
 33 30  1  0  0  0  0
 34 30  1  0  0  0  0
M  END
>  <MODEL>
5

>  <REMARK>
 VINA RESULT:      -8.6      3.395      7.392
  Name = 
  3 active torsions:
  status: ('A' for Active; 'I' for Inactive)
    1  A    between atoms: C_17  and  C_28
    2  A    between atoms: C_28  and  N_29
    3  A    between atoms: N_29  and  C_32
                            x       y       z     vdW  Elec       q    Type
                         _______ _______ _______ _____ _____    ______ ____

>  <TORSDO>
F 3

$$$$
=
 OpenBabel11122412153D

 34 40  0  0  1  0  0  0  0  0999 V2000
  187.2680  178.1020  142.5640 C   0  0  0  0  0  0  0  0  0  0  0  0
  185.0540  178.2560  143.8000 C   0  0  0  0  0  3  0  0  0  0  0  0
  188.6780  175.9880  136.5650 C   0  0  0  0  0  2  0  0  0  0  0  0
  189.1690  177.9780  141.0610 C   0  0  0  0  0  0  0  0  0  0  0  0
  188.8280  178.4840  138.6300 C   0  0  0  0  0  0  0  0  0  0  0  0
  188.6190  178.4650  136.1220 C   0  0  0  0  0  2  0  0  0  0  0  0
  189.0280  177.0990  135.5830 C   0  0  0  0  0  2  0  0  0  0  0  0
  190.7220  176.1960  138.0530 C   0  0  0  0  0  2  0  0  0  0  0  0
  185.0860  178.5150  141.5640 C   0  0  0  0  0  0  0  0  0  0  0  0
  182.5900  177.9890  139.9460 C   0  0  0  0  0  3  0  0  0  0  0  0
  187.5550  178.6500  138.8510 N   0  0  0  0  0  0  0  0  0  0  0  0
  189.9590  176.3920  139.3560 C   0  0  0  0  0  2  0  0  0  0  0  0
  185.5950  178.6010  140.3020 N   0  0  0  0  0  0  0  0  0  0  0  0
  183.7790  178.4630  143.3740 N   0  0  0  0  0  0  0  0  0  0  0  0
  189.7400  177.8730  139.6720 C   0  0  2  0  0  3  0  0  0  0  0  0
  189.9370  175.3050  137.0950 C   0  0  0  0  0  2  0  0  0  0  0  0
  182.5800  178.8670  141.1700 C   0  0  2  0  0  3  0  0  0  0  0  0
  187.7930  178.1660  141.2520 C   0  0  0  0  0  0  0  0  0  0  0  0
  189.3640  178.7600  137.3360 N   0  0  0  0  0  2  0  0  0  0  0  0
  186.9520  178.4410  140.1380 C   0  0  0  0  0  0  0  0  0  0  0  0
  189.4860  177.7150  143.4090 C   0  0  0  0  0  3  0  0  0  0  0  0
  183.5710  178.0290  139.0340 C   0  0  0  0  0  3  0  0  0  0  0  0
  189.9730  177.7560  142.1380 N   0  0  0  0  0  0  0  0  0  0  0  0
  184.7480  178.9570  139.1610 C   0  0  0  0  0  2  0  0  0  0  0  0
  183.7930  178.6040  142.0230 C   0  0  0  0  0  0  0  0  0  0  0  0
  188.1200  177.8820  143.6480 C   0  0  0  0  0  3  0  0  0  0  0  0
  185.9000  178.2730  142.7090 C   0  0  0  0  0  0  0  0  0  0  0  0
  181.2920  178.6440  141.9510 C   0  0  0  0  0  2  0  0  0  0  0  0
  180.2250  178.2430  141.0490 N   0  0  0  0  0  2  0  0  0  0  0  0
  179.7200  181.0280  142.4850 O   0  0  0  0  0  0  0  0  0  0  0  0
  178.9420  180.1870  140.4180 C   0  0  0  0  0  2  0  0  0  0  0  0
  179.0580  179.0420  141.3820 C   0  0  2  0  0  3  0  0  0  0  0  0
  179.1060  181.4140  141.2850 C   0  0  0  0  0  2  0  0  0  0  0  0
  179.2780  179.7180  142.7160 C   0  0  0  0  0  2  0  0  0  0  0  0
  1 27  2  0  0  0  0
  1 26  1  0  0  0  0
  3 16  1  0  0  0  0
  4 18  1  0  0  0  0
  4 23  2  0  0  0  0
  5 11  2  0  0  0  0
  5 15  1  0  0  0  0
  6 19  1  0  0  0  0
  7  6  1  0  0  0  0
  7  3  1  0  0  0  0
  8 12  1  0  0  0  0
  9 25  2  0  0  0  0
  9 27  1  0  0  0  0
 10 17  1  0  0  0  0
 11 20  1  0  0  0  0
 13  9  1  0  0  0  0
 14  2  2  0  0  0  0
 15 12  1  6  0  0  0
 15  4  1  0  0  0  0
 16  8  1  0  0  0  0
 17 28  1  1  0  0  0
 17 25  1  0  0  0  0
 18  1  1  0  0  0  0
 19  5  1  0  0  0  0
 20 13  1  0  0  0  0
 20 18  2  0  0  0  0
 21 26  2  0  0  0  0
 22 24  1  0  0  0  0
 22 10  2  0  0  0  0
 23 21  1  0  0  0  0
 24 13  1  0  0  0  0
 25 14  1  0  0  0  0
 27  2  1  0  0  0  0
 29 28  1  0  0  0  0
 30 34  1  0  0  0  0
 31 33  1  0  0  0  0
 31 32  1  0  0  0  0
 32 29  1  6  0  0  0
 32 34  1  0  0  0  0
 33 30  1  0  0  0  0
M  END
>  <MODEL>
6

>  <REMARK>
 VINA RESULT:      -8.6      1.527      2.044
  Name = 
  3 active torsions:
  status: ('A' for Active; 'I' for Inactive)
    1  A    between atoms: C_17  and  C_28
    2  A    between atoms: C_28  and  N_29
    3  A    between atoms: N_29  and  C_32
                            x       y       z     vdW  Elec       q    Type
                         _______ _______ _______ _____ _____    ______ ____

>  <TORSDO>
F 3

$$$$
=
 OpenBabel11122412153D

 34 40  0  0  1  0  0  0  0  0999 V2000
  191.1630  176.7940  138.9220 C   0  0  0  0  0  0  0  0  0  0  0  0
  192.2050  177.1290  141.2140 C   0  0  0  0  0  3  0  0  0  0  0  0
  185.1390  175.0260  137.1800 C   0  0  0  0  0  2  0  0  0  0  0  0
  189.8300  176.5520  136.9080 C   0  0  0  0  0  0  0  0  0  0  0  0
  187.4380  177.3000  136.9390 C   0  0  0  0  0  0  0  0  0  0  0  0
  184.9320  177.5180  136.8960 C   0  0  0  0  0  2  0  0  0  0  0  0
  184.3030  176.1610  136.6020 C   0  0  0  0  0  2  0  0  0  0  0  0
  186.8160  174.8430  135.2860 C   0  0  0  0  0  2  0  0  0  0  0  0
  190.0150  177.5670  140.9260 C   0  0  0  0  0  0  0  0  0  0  0  0
  188.1380  177.5050  143.2920 C   0  0  0  0  0  3  0  0  0  0  0  0
  187.5600  177.6100  138.1990 N   0  0  0  0  0  0  0  0  0  0  0  0
  188.0590  175.0260  136.1470 C   0  0  0  0  0  2  0  0  0  0  0  0
  188.8180  177.6930  140.2860 N   0  0  0  0  0  0  0  0  0  0  0  0
  191.6880  177.5330  142.4050 N   0  0  0  0  0  0  0  0  0  0  0  0
  188.4940  176.4920  136.2160 C   0  0  2  0  0  3  0  0  0  0  0  0
  185.7110  174.1440  136.0720 C   0  0  0  0  0  2  0  0  0  0  0  0
  189.4350  178.2710  143.3200 C   0  0  2  0  0  3  0  0  0  0  0  0
  189.9150  176.8990  138.2630 C   0  0  0  0  0  0  0  0  0  0  0  0
  186.2290  177.6120  136.2470 N   0  0  0  0  0  2  0  0  0  0  0  0
  188.7620  177.3730  138.9490 C   0  0  0  0  0  0  0  0  0  0  0  0
  192.1610  176.0550  136.8630 C   0  0  0  0  0  3  0  0  0  0  0  0
  187.3260  177.4950  142.2260 C   0  0  0  0  0  3  0  0  0  0  0  0
  190.9490  176.1390  136.2480 N   0  0  0  0  0  0  0  0  0  0  0  0
  187.6450  178.2490  140.9650 C   0  0  0  0  0  2  0  0  0  0  0  0
  190.3640  177.7840  142.2390 C   0  0  0  0  0  0  0  0  0  0  0  0
  192.2920  176.3760  138.2160 C   0  0  0  0  0  3  0  0  0  0  0  0
  191.2000  177.1280  140.2670 C   0  0  0  0  0  0  0  0  0  0  0  0
  190.0730  178.1510  144.6960 C   0  0  0  0  0  2  0  0  0  0  0  0
  189.1490  178.6200  145.7160 N   0  0  0  0  0  2  0  0  0  0  0  0
  189.2810  178.2150  148.8620 O   0  0  0  0  0  0  0  0  0  0  0  0
  187.5890  177.6820  147.3010 C   0  0  0  0  0  2  0  0  0  0  0  0
  188.9220  177.5140  146.6310 C   0  0  2  0  0  3  0  0  0  0  0  0
  187.9320  177.8460  148.7630 C   0  0  0  0  0  2  0  0  0  0  0  0
  189.9090  177.5960  147.7730 C   0  0  0  0  0  2  0  0  0  0  0  0
  1 27  2  0  0  0  0
  2 14  2  0  0  0  0
  4 18  1  0  0  0  0
  5 11  2  0  0  0  0
  7  6  1  0  0  0  0
  7  3  1  0  0  0  0
  8 16  1  0  0  0  0
  8 12  1  0  0  0  0
  9 25  2  0  0  0  0
 10 17  1  0  0  0  0
 11 20  1  0  0  0  0
 13  9  1  0  0  0  0
 13 24  1  0  0  0  0
 15 12  1  1  0  0  0
 15  4  1  0  0  0  0
 15  5  1  0  0  0  0
 16  3  1  0  0  0  0
 17 28  1  1  0  0  0
 18  1  1  0  0  0  0
 18 20  2  0  0  0  0
 19  6  1  0  0  0  0
 19  5  1  0  0  0  0
 20 13  1  0  0  0  0
 21 26  2  0  0  0  0
 22 10  2  0  0  0  0
 23 21  1  0  0  0  0
 23  4  2  0  0  0  0
 24 22  1  0  0  0  0
 25 14  1  0  0  0  0
 25 17  1  0  0  0  0
 26  1  1  0  0  0  0
 27  9  1  0  0  0  0
 27  2  1  0  0  0  0
 28 29  1  0  0  0  0
 31 33  1  0  0  0  0
 32 29  1  6  0  0  0
 32 31  1  0  0  0  0
 32 34  1  0  0  0  0
 33 30  1  0  0  0  0
 34 30  1  0  0  0  0
M  END
>  <MODEL>
7

>  <REMARK>
 VINA RESULT:      -8.6      3.946      5.784
  Name = 
  3 active torsions:
  status: ('A' for Active; 'I' for Inactive)
    1  A    between atoms: C_17  and  C_28
    2  A    between atoms: C_28  and  N_29
    3  A    between atoms: N_29  and  C_32
                            x       y       z     vdW  Elec       q    Type
                         _______ _______ _______ _____ _____    ______ ____

>  <TORSDO>
F 3

$$$$
=
 OpenBabel11122412153D

 34 40  0  0  1  0  0  0  0  0999 V2000
  191.3270  177.1630  140.0870 C   0  0  0  0  0  0  0  0  0  0  0  0
  191.8200  177.2980  142.5750 C   0  0  0  0  0  3  0  0  0  0  0  0
  185.8840  175.5510  136.8880 C   0  0  0  0  0  2  0  0  0  0  0  0
  190.4860  177.0960  137.8110 C   0  0  0  0  0  0  0  0  0  0  0  0
  188.1340  177.8380  137.3650 C   0  0  0  0  0  0  0  0  0  0  0  0
  185.6980  178.0580  136.7750 C   0  0  0  0  0  2  0  0  0  0  0  0
  185.1780  176.7320  136.2340 C   0  0  0  0  0  2  0  0  0  0  0  0
  187.9480  175.5330  135.4130 C   0  0  0  0  0  2  0  0  0  0  0  0
  189.7430  177.7590  141.8380 C   0  0  0  0  0  0  0  0  0  0  0  0
  187.3840  177.4920  143.7060 C   0  0  0  0  0  3  0  0  0  0  0  0
  187.9640  178.0380  138.6410 N   0  0  0  0  0  0  0  0  0  0  0  0
  188.9620  175.6410  136.5450 C   0  0  0  0  0  2  0  0  0  0  0  0
  188.7180  177.9390  140.9580 N   0  0  0  0  0  0  0  0  0  0  0  0
  191.0410  177.5980  143.6490 N   0  0  0  0  0  0  0  0  0  0  0  0
  189.3410  177.0950  136.8340 C   0  0  2  0  0  3  0  0  0  0  0  0
  186.7090  174.7680  135.8680 C   0  0  0  0  0  2  0  0  0  0  0  0
  188.6260  178.2530  144.0900 C   0  0  2  0  0  3  0  0  0  0  0  0
  190.2570  177.3240  139.1750 C   0  0  0  0  0  0  0  0  0  0  0  0
  187.1060  178.2080  136.4460 N   0  0  0  0  0  2  0  0  0  0  0  0
  188.9710  177.7360  139.6200 C   0  0  0  0  0  0  0  0  0  0  0  0
  192.7770  176.6040  138.2520 C   0  0  0  0  0  3  0  0  0  0  0  0
  186.8320  177.5740  142.4870 C   0  0  0  0  0  3  0  0  0  0  0  0
  191.7320  176.7420  137.3890 N   0  0  0  0  0  0  0  0  0  0  0  0
  187.4120  178.4340  141.3990 C   0  0  0  0  0  2  0  0  0  0  0  0
  189.7830  177.8620  143.2090 C   0  0  0  0  0  0  0  0  0  0  0  0
  192.5940  176.8070  139.6220 C   0  0  0  0  0  3  0  0  0  0  0  0
  191.0540  177.3790  141.4290 C   0  0  0  0  0  0  0  0  0  0  0  0
  188.9400  178.0150  145.5600 C   0  0  0  0  0  2  0  0  0  0  0  0
  187.7930  177.4170  146.2240 N   0  0  0  0  0  2  0  0  0  0  0  0
  190.3290  177.8760  148.0780 O   0  0  0  0  0  0  0  0  0  0  0  0
  188.0200  177.8930  148.5800 C   0  0  0  0  0  2  0  0  0  0  0  0
  188.2620  176.8850  147.4930 C   0  0  2  0  0  3  0  0  0  0  0  0
  189.4060  178.2470  149.0660 C   0  0  0  0  0  2  0  0  0  0  0  0
  189.7670  176.7530  147.4560 C   0  0  0  0  0  2  0  0  0  0  0  0
  1 27  2  0  0  0  0
  2 14  2  0  0  0  0
  4 18  1  0  0  0  0
  5 11  2  0  0  0  0
  7  6  1  0  0  0  0
  7  3  1  0  0  0  0
  8 16  1  0  0  0  0
  8 12  1  0  0  0  0
  9 25  2  0  0  0  0
 10 17  1  0  0  0  0
 11 20  1  0  0  0  0
 13 24  1  0  0  0  0
 13  9  1  0  0  0  0
 15 12  1  1  0  0  0
 15  5  1  0  0  0  0
 15  4  1  0  0  0  0
 16  3  1  0  0  0  0
 17 28  1  1  0  0  0
 18 20  2  0  0  0  0
 18  1  1  0  0  0  0
 19  6  1  0  0  0  0
 19  5  1  0  0  0  0
 20 13  1  0  0  0  0
 21 26  2  0  0  0  0
 22 10  2  0  0  0  0
 23  4  2  0  0  0  0
 23 21  1  0  0  0  0
 24 22  1  0  0  0  0
 25 14  1  0  0  0  0
 25 17  1  0  0  0  0
 26  1  1  0  0  0  0
 27  9  1  0  0  0  0
 27  2  1  0  0  0  0
 28 29  1  0  0  0  0
 30 33  1  0  0  0  0
 31 33  1  0  0  0  0
 32 29  1  6  0  0  0
 32 31  1  0  0  0  0
 34 32  1  0  0  0  0
 34 30  1  0  0  0  0
M  END
>  <MODEL>
8

>  <REMARK>
 VINA RESULT:      -8.5      3.723      5.383
  Name = 
  3 active torsions:
  status: ('A' for Active; 'I' for Inactive)
    1  A    between atoms: C_17  and  C_28
    2  A    between atoms: C_28  and  N_29
    3  A    between atoms: N_29  and  C_32
                            x       y       z     vdW  Elec       q    Type
                         _______ _______ _______ _____ _____    ______ ____

>  <TORSDO>
F 3

$$$$
=
 OpenBabel11122412153D

 34 40  0  0  1  0  0  0  0  0999 V2000
  181.5040  179.0580  143.4000 C   0  0  0  0  0  0  0  0  0  0  0  0
  183.4880  178.6180  144.9220 C   0  0  0  0  0  3  0  0  0  0  0  0
  181.1840  181.6630  137.4360 C   0  0  0  0  0  2  0  0  0  0  0  0
  179.8640  179.4550  141.6540 C   0  0  0  0  0  0  0  0  0  0  0  0
  180.5180  179.0700  139.2660 C   0  0  0  0  0  0  0  0  0  0  0  0
  181.0970  179.2240  136.8220 C   0  0  0  0  0  2  0  0  0  0  0  0
  180.8900  180.6530  136.3340 C   0  0  0  0  0  2  0  0  0  0  0  0
  178.9320  181.5590  138.5990 C   0  0  0  0  0  2  0  0  0  0  0  0
  183.7660  178.5020  142.6910 C   0  0  0  0  0  0  0  0  0  0  0  0
  186.5110  178.8870  141.4890 C   0  0  0  0  0  3  0  0  0  0  0  0
  181.7250  178.7700  139.6530 N   0  0  0  0  0  0  0  0  0  0  0  0
  179.4740  181.2110  139.9790 C   0  0  0  0  0  2  0  0  0  0  0  0
  183.4450  178.5430  141.3670 N   0  0  0  0  0  0  0  0  0  0  0  0
  184.7900  178.3170  144.6670 N   0  0  0  0  0  0  0  0  0  0  0  0
  179.5160  179.6990  140.2100 C   0  0  2  0  0  3  0  0  0  0  0  0
  179.9230  182.4290  137.8320 C   0  0  0  0  0  2  0  0  0  0  0  0
  186.2640  177.9390  142.6330 C   0  0  2  0  0  3  0  0  0  0  0  0
  181.1750  179.1260  142.0250 C   0  0  0  0  0  0  0  0  0  0  0  0
  180.1580  178.9270  137.8910 N   0  0  0  0  0  2  0  0  0  0  0  0
  182.1460  178.8410  141.0250 C   0  0  0  0  0  0  0  0  0  0  0  0
  179.2260  179.6010  143.9470 C   0  0  0  0  0  3  0  0  0  0  0  0
  185.6760  178.9970  140.4460 C   0  0  0  0  0  3  0  0  0  0  0  0
  178.9310  179.6850  142.6200 N   0  0  0  0  0  0  0  0  0  0  0  0
  184.4180  178.1800  140.3340 C   0  0  0  0  0  2  0  0  0  0  0  0
  184.9650  178.2620  143.3210 C   0  0  0  0  0  0  0  0  0  0  0  0
  180.5220  179.2910  144.3650 C   0  0  0  0  0  3  0  0  0  0  0  0
  182.8160  178.7490  143.7240 C   0  0  0  0  0  0  0  0  0  0  0  0
  187.4360  177.9890  143.6030 C   0  0  0  0  0  2  0  0  0  0  0  0
  188.6680  177.6410  142.9150 N   0  0  0  0  0  2  0  0  0  0  0  0
  191.6870  176.9510  143.6160 O   0  0  0  0  0  0  0  0  0  0  0  0
  189.8060  177.2630  145.0100 C   0  0  0  0  0  2  0  0  0  0  0  0
  189.3440  176.6410  143.7240 C   0  0  2  0  0  3  0  0  0  0  0  0
  191.3110  177.1530  144.9510 C   0  0  0  0  0  2  0  0  0  0  0  0
  190.6300  176.2300  143.0440 C   0  0  0  0  0  2  0  0  0  0  0  0
  1 27  2  0  0  0  0
  1 26  1  0  0  0  0
  3 16  1  0  0  0  0
  4 18  1  0  0  0  0
  4 23  2  0  0  0  0
  5 11  2  0  0  0  0
  5 15  1  0  0  0  0
  6 19  1  0  0  0  0
  7  6  1  0  0  0  0
  7  3  1  0  0  0  0
  8 12  1  0  0  0  0
  9 25  2  0  0  0  0
  9 27  1  0  0  0  0
 10 17  1  0  0  0  0
 11 20  1  0  0  0  0
 13  9  1  0  0  0  0
 14  2  2  0  0  0  0
 15 12  1  1  0  0  0
 15  4  1  0  0  0  0
 16  8  1  0  0  0  0
 17 25  1  0  0  0  0
 17 28  1  1  0  0  0
 18  1  1  0  0  0  0
 19  5  1  0  0  0  0
 20 13  1  0  0  0  0
 20 18  2  0  0  0  0
 21 26  2  0  0  0  0
 22 10  2  0  0  0  0
 23 21  1  0  0  0  0
 24 22  1  0  0  0  0
 24 13  1  0  0  0  0
 25 14  1  0  0  0  0
 27  2  1  0  0  0  0
 29 28  1  0  0  0  0
 30 33  1  0  0  0  0
 32 29  1  6  0  0  0
 32 31  1  0  0  0  0
 33 31  1  0  0  0  0
 34 30  1  0  0  0  0
 34 32  1  0  0  0  0
M  END
>  <MODEL>
9

>  <REMARK>
 VINA RESULT:      -8.5      3.710      8.487
  Name = 
  3 active torsions:
  status: ('A' for Active; 'I' for Inactive)
    1  A    between atoms: C_17  and  C_28
    2  A    between atoms: C_28  and  N_29
    3  A    between atoms: N_29  and  C_32
                            x       y       z     vdW  Elec       q    Type
                         _______ _______ _______ _____ _____    ______ ____

>  <TORSDO>
F 3

$$$$
