=
 OpenBabel11122412093D

 34 41  0  0  1  0  0  0  0  0999 V2000
  186.0450  178.3380  139.2330 C   0  0  0  0  0  0  0  0  0  0  0  0
  188.1990  177.2400  138.5970 C   0  0  0  0  0  2  0  0  0  0  0  0
  180.7300  180.3050  138.4320 C   0  0  2  0  0  0  0  0  0  0  0  0
  183.7360  178.2740  140.0110 C   0  0  0  0  0  0  0  0  0  0  0  0
  181.8580  178.0540  138.3470 N   0  0  1  0  0  0  0  0  0  0  0  0
  182.1970  180.5670  138.7140 C   0  0  0  0  0  2  0  0  0  0  0  0
  180.0970  181.3100  137.4940 C   0  0  0  0  0  1  0  0  0  0  0  0
  180.6590  179.4850  140.8570 C   0  0  0  0  0  2  0  0  0  0  0  0
  186.6240  177.5650  136.8420 C   0  0  2  0  0  3  0  0  0  0  0  0
  186.6290  174.9670  134.8450 C   0  0  0  0  0  2  0  0  0  0  0  0
  182.7810  177.2740  137.5150 C   0  0  0  0  0  2  0  0  0  0  0  0
  181.2380  178.0830  140.8210 C   0  0  0  0  0  2  0  0  0  0  0  0
  185.2210  176.9320  136.8530 C   0  0  1  0  0  3  0  0  0  0  0  0
  188.7600  176.6300  137.4640 O   0  0  0  0  0  0  0  0  0  0  0  0
  182.3060  177.8880  139.7430 C   0  0  2  0  0  3  0  0  0  0  0  0
  179.8720  179.7630  139.5830 C   0  0  0  0  0  2  0  0  0  0  0  0
  187.3430  175.1170  136.1900 C   0  0  1  0  0  3  0  0  0  0  0  0
  184.6780  178.1250  138.9720 C   0  0  0  0  0  0  0  0  0  0  0  0
  181.7890  179.4250  137.7770 C   0  0  2  0  0  3  0  0  0  0  0  0
  184.2200  177.8430  137.5600 C   0  0  2  0  0  3  0  0  0  0  0  0
  185.5110  178.8860  141.5410 C   0  0  0  0  0  3  0  0  0  0  0  0
  185.3930  175.8060  134.5980 C   0  0  0  0  0  3  0  0  0  0  0  0
  184.1610  178.6390  141.2930 C   0  0  0  0  0  3  0  0  0  0  0  0
  184.7830  176.6520  135.4440 C   0  0  0  0  0  3  0  0  0  0  0  0
  187.7450  176.5760  136.4920 C   0  0  1  0  0  3  0  0  0  0  0  0
  186.4460  178.7380  140.5160 C   0  0  0  0  0  3  0  0  0  0  0  0
  187.0900  178.1670  138.1560 C   0  0  1  0  0  3  0  0  0  0  0  0
  186.5880  174.4030  137.3100 C   0  0  0  0  0  2  0  0  0  0  0  0
  186.4190  172.9180  137.0100 C   0  0  0  0  0  2  0  0  0  0  0  0
  183.3990  172.9390  135.3510 N   0  0  0  0  0  2  0  0  0  0  0  0
  184.0630  173.5940  137.5550 C   0  0  0  0  0  2  0  0  0  0  0  0
  184.9620  172.4620  137.1170 C   0  0  1  0  0  3  0  0  0  0  0  0
  182.9240  173.5920  136.5620 C   0  0  0  0  0  2  0  0  0  0  0  0
  184.4100  171.9850  135.7860 C   0  0  0  0  0  2  0  0  0  0  0  0
  1 26  1  0  0  0  0
  3  7  1  6  0  0  0
  3  6  1  0  0  0  0
  3 16  1  0  0  0  0
  4 23  2  0  0  0  0
  5 11  1  6  0  0  0
  5 15  1  0  0  0  0
  9 13  1  0  0  0  0
  9 27  1  0  0  0  0
 10 17  1  0  0  0  0
 11 20  1  0  0  0  0
 12  8  1  0  0  0  0
 13 20  1  0  0  0  0
 14  2  1  0  0  0  0
 15  4  1  0  0  0  0
 15 12  1  0  0  0  0
 16  8  1  0  0  0  0
 17 25  1  0  0  0  0
 17 28  1  0  0  0  0
 18  1  2  0  0  0  0
 18  4  1  0  0  0  0
 19  5  1  0  0  0  0
 19  3  1  0  0  0  0
 19  6  1  0  0  0  0
 20 18  1  0  0  0  0
 22 10  1  0  0  0  0
 22 24  2  0  0  0  0
 23 21  1  0  0  0  0
 24 13  1  0  0  0  0
 25  9  1  0  0  0  0
 25 14  1  0  0  0  0
 26 21  2  0  0  0  0
 27  2  1  0  0  0  0
 27  1  1  0  0  0  0
 29 32  1  0  0  0  0
 29 28  1  0  0  0  0
 30 34  1  0  0  0  0
 30 33  1  0  0  0  0
 32 31  1  0  0  0  0
 33 31  1  0  0  0  0
 34 32  1  0  0  0  0
M  END
>  <MODEL>
1

>  <REMARK>
 VINA RESULT:      -6.1      0.000      0.000
  Name = 
  3 active torsions:
  status: ('A' for Active; 'I' for Inactive)
    1  A    between atoms: C_17  and  C_28
    2  A    between atoms: C_28  and  C_29
    3  A    between atoms: C_29  and  C_32
                            x       y       z     vdW  Elec       q    Type
                         _______ _______ _______ _____ _____    ______ ____

>  <TORSDO>
F 3

$$$$
=
 OpenBabel11122412093D

 34 41  0  0  1  0  0  0  0  0999 V2000
  188.0840  177.2720  138.1840 C   0  0  0  0  0  0  0  0  0  0  0  0
  187.0640  178.6150  140.0300 C   0  0  0  0  0  2  0  0  0  0  0  0
  192.3060  174.7530  135.2530 C   0  0  2  0  0  0  0  0  0  0  0  0
  188.9070  175.1860  137.2330 C   0  0  0  0  0  0  0  0  0  0  0  0
  191.3150  174.5220  137.5580 N   0  0  1  0  0  0  0  0  0  0  0  0
  191.2220  175.8100  135.3450 C   0  0  0  0  0  2  0  0  0  0  0  0
  193.5800  175.2360  134.5940 C   0  0  0  0  0  1  0  0  0  0  0  0
  190.3560  173.1260  134.9280 C   0  0  0  0  0  2  0  0  0  0  0  0
  189.4400  178.4790  140.0160 C   0  0  2  0  0  3  0  0  0  0  0  0
  190.5590  178.1920  143.0830 C   0  0  0  0  0  2  0  0  0  0  0  0
  191.2580  175.2180  138.8480 C   0  0  0  0  0  2  0  0  0  0  0  0
  189.8020  172.8830  136.3190 C   0  0  0  0  0  2  0  0  0  0  0  0
  190.2010  177.1470  140.1400 C   0  0  1  0  0  3  0  0  0  0  0  0
  187.4900  179.2770  141.1920 O   0  0  0  0  0  0  0  0  0  0  0  0
  189.9370  174.0890  137.2520 C   0  0  2  0  0  3  0  0  0  0  0  0
  191.8680  173.3070  134.9870 C   0  0  0  0  0  2  0  0  0  0  0  0
  189.1070  178.1300  142.6040 C   0  0  1  0  0  3  0  0  0  0  0  0
  189.0980  176.3030  138.0710 C   0  0  0  0  0  0  0  0  0  0  0  0
  192.0140  175.4140  136.5970 C   0  0  2  0  0  3  0  0  0  0  0  0
  190.4220  176.5180  138.7670 C   0  0  2  0  0  3  0  0  0  0  0  0
  186.7290  176.0300  136.5930 C   0  0  0  0  0  3  0  0  0  0  0  0
  191.6480  177.8210  142.0980 C   0  0  0  0  0  3  0  0  0  0  0  0
  187.7160  175.0490  136.5100 C   0  0  0  0  0  3  0  0  0  0  0  0
  191.5100  177.3780  140.8380 C   0  0  0  0  0  3  0  0  0  0  0  0
  188.8580  178.9850  141.3430 C   0  0  1  0  0  3  0  0  0  0  0  0
  186.9130  177.1360  137.4250 C   0  0  0  0  0  3  0  0  0  0  0  0
  188.2380  178.4720  139.0890 C   0  0  1  0  0  3  0  0  0  0  0  0
  188.6000  176.6910  142.5290 C   0  0  0  0  0  2  0  0  0  0  0  0
  187.5380  176.4170  143.5860 C   0  0  0  0  0  2  0  0  0  0  0  0
  186.0420  177.4800  146.5020 N   0  0  0  0  0  2  0  0  0  0  0  0
  185.7240  178.0420  144.1990 C   0  0  0  0  0  2  0  0  0  0  0  0
  187.1750  177.6690  144.3890 C   0  0  1  0  0  3  0  0  0  0  0  0
  185.1850  178.2300  145.5970 C   0  0  0  0  0  2  0  0  0  0  0  0
  187.3590  177.4670  145.8820 C   0  0  0  0  0  2  0  0  0  0  0  0
  1 27  1  0  0  0  0
  2 14  1  0  0  0  0
  3  7  1  6  0  0  0
  3  6  1  0  0  0  0
  3 19  1  0  0  0  0
  4 15  1  0  0  0  0
  4 18  2  0  0  0  0
  5 11  1  1  0  0  0
  6 19  1  0  0  0  0
  8 16  1  0  0  0  0
  8 12  1  0  0  0  0
  9 13  1  0  0  0  0
  9 25  1  0  0  0  0
 12 15  1  0  0  0  0
 13 24  1  0  0  0  0
 14 25  1  0  0  0  0
 15  5  1  0  0  0  0
 16  3  1  0  0  0  0
 17 10  1  0  0  0  0
 18  1  1  0  0  0  0
 18 20  1  0  0  0  0
 19  5  1  0  0  0  0
 20 11  1  0  0  0  0
 20 13  1  0  0  0  0
 21 26  1  0  0  0  0
 22 10  1  0  0  0  0
 23 21  2  0  0  0  0
 23  4  1  0  0  0  0
 24 22  2  0  0  0  0
 25 17  1  0  0  0  0
 26  1  2  0  0  0  0
 27  9  1  0  0  0  0
 27  2  1  0  0  0  0
 28 17  1  0  0  0  0
 28 29  1  0  0  0  0
 29 32  1  0  0  0  0
 31 32  1  0  0  0  0
 31 33  1  0  0  0  0
 32 34  1  0  0  0  0
 33 30  1  0  0  0  0
 34 30  1  0  0  0  0
M  END
>  <MODEL>
2

>  <REMARK>
 VINA RESULT:      -6.1      4.385      8.892
  Name = 
  3 active torsions:
  status: ('A' for Active; 'I' for Inactive)
    1  A    between atoms: C_17  and  C_28
    2  A    between atoms: C_28  and  C_29
    3  A    between atoms: C_29  and  C_32
                            x       y       z     vdW  Elec       q    Type
                         _______ _______ _______ _____ _____    ______ ____

>  <TORSDO>
F 3

$$$$
=
 OpenBabel11122412093D

 34 41  0  0  1  0  0  0  0  0999 V2000
  186.3820  176.2000  135.0740 C   0  0  0  0  0  0  0  0  0  0  0  0
  188.3860  177.6760  134.8370 C   0  0  0  0  0  2  0  0  0  0  0  0
  183.5510  171.3350  136.1100 C   0  0  2  0  0  0  0  0  0  0  0  0
  184.6320  175.1310  136.3890 C   0  0  0  0  0  0  0  0  0  0  0  0
  185.0460  172.8740  137.4300 N   0  0  1  0  0  0  0  0  0  0  0  0
  183.9800  172.4230  135.1440 C   0  0  0  0  0  2  0  0  0  0  0  0
  183.5730  169.9430  135.5150 C   0  0  0  0  0  1  0  0  0  0  0  0
  181.9530  173.1130  137.0270 C   0  0  0  0  0  2  0  0  0  0  0  0
  188.8180  175.3720  135.2490 C   0  0  2  0  0  3  0  0  0  0  0  0
  191.3510  175.0630  137.3050 C   0  0  0  0  0  2  0  0  0  0  0  0
  186.4540  173.2670  137.5490 C   0  0  0  0  0  2  0  0  0  0  0  0
  182.8080  173.9980  137.9140 C   0  0  0  0  0  2  0  0  0  0  0  0
  188.3360  174.6480  136.5190 C   0  0  1  0  0  3  0  0  0  0  0  0
  189.7780  177.5690  134.9780 O   0  0  0  0  0  0  0  0  0  0  0  0
  184.2580  174.1220  137.4420 C   0  0  2  0  0  3  0  0  0  0  0  0
  182.4320  171.6690  137.1040 C   0  0  0  0  0  2  0  0  0  0  0  0
  190.6170  176.3460  136.9070 C   0  0  1  0  0  3  0  0  0  0  0  0
  185.9690  175.1760  135.9470 C   0  0  0  0  0  0  0  0  0  0  0  0
  184.9310  171.9680  136.2570 C   0  0  2  0  0  3  0  0  0  0  0  0
  186.9350  174.0750  136.3200 C   0  0  2  0  0  3  0  0  0  0  0  0
  184.1180  177.0890  135.0600 C   0  0  0  0  0  3  0  0  0  0  0  0
  190.5940  173.7550  137.2170 C   0  0  0  0  0  3  0  0  0  0  0  0
  183.7170  176.0970  135.9540 C   0  0  0  0  0  3  0  0  0  0  0  0
  189.3090  173.5620  136.8790 C   0  0  0  0  0  3  0  0  0  0  0  0
  190.0340  176.2800  135.4790 C   0  0  1  0  0  3  0  0  0  0  0  0
  185.4420  177.1380  134.6210 C   0  0  0  0  0  3  0  0  0  0  0  0
  187.8100  176.3000  134.5940 C   0  0  1  0  0  3  0  0  0  0  0  0
  189.6400  176.7940  137.9920 C   0  0  0  0  0  2  0  0  0  0  0  0
  190.2300  176.6130  139.3840 C   0  0  0  0  0  2  0  0  0  0  0  0
  188.3360  177.2650  142.1870 N   0  0  0  0  0  2  0  0  0  0  0  0
  188.4370  178.2560  140.0120 C   0  0  0  0  0  2  0  0  0  0  0  0
  189.8130  177.7280  140.3460 C   0  0  1  0  0  3  0  0  0  0  0  0
  187.6860  178.2380  141.3220 C   0  0  0  0  0  2  0  0  0  0  0  0
  189.7350  177.2480  141.7840 C   0  0  0  0  0  2  0  0  0  0  0  0
  1 18  1  0  0  0  0
  2 14  1  0  0  0  0
  3  7  1  6  0  0  0
  3 19  1  0  0  0  0
  3 16  1  0  0  0  0
  4 15  1  0  0  0  0
  5 15  1  0  0  0  0
  5 11  1  6  0  0  0
  6  3  1  0  0  0  0
  6 19  1  0  0  0  0
  8 16  1  0  0  0  0
  8 12  1  0  0  0  0
  9 25  1  0  0  0  0
  9 13  1  0  0  0  0
 13 24  1  0  0  0  0
 14 25  1  0  0  0  0
 15 12  1  0  0  0  0
 17 10  1  0  0  0  0
 17 28  1  0  0  0  0
 18 20  1  0  0  0  0
 18  4  2  0  0  0  0
 19  5  1  0  0  0  0
 20 13  1  0  0  0  0
 20 11  1  0  0  0  0
 21 23  2  0  0  0  0
 22 10  1  0  0  0  0
 23  4  1  0  0  0  0
 24 22  2  0  0  0  0
 25 17  1  0  0  0  0
 26 21  1  0  0  0  0
 26  1  2  0  0  0  0
 27  2  1  0  0  0  0
 27  1  1  0  0  0  0
 27  9  1  0  0  0  0
 28 29  1  0  0  0  0
 29 32  1  0  0  0  0
 31 32  1  0  0  0  0
 31 33  1  0  0  0  0
 32 34  1  0  0  0  0
 33 30  1  0  0  0  0
 34 30  1  0  0  0  0
M  END
>  <MODEL>
3

>  <REMARK>
 VINA RESULT:      -5.5      3.442      6.513
  Name = 
  3 active torsions:
  status: ('A' for Active; 'I' for Inactive)
    1  A    between atoms: C_17  and  C_28
    2  A    between atoms: C_28  and  C_29
    3  A    between atoms: C_29  and  C_32
                            x       y       z     vdW  Elec       q    Type
                         _______ _______ _______ _____ _____    ______ ____

>  <TORSDO>
F 3

$$$$
=
 OpenBabel11122412093D

 34 41  0  0  1  0  0  0  0  0999 V2000
  187.4790  178.4230  140.3400 C   0  0  0  0  0  0  0  0  0  0  0  0
  185.5080  178.9770  138.9030 C   0  0  0  0  0  2  0  0  0  0  0  0
  190.3580  177.7060  145.2340 C   0  0  2  0  0  0  0  0  0  0  0  0
  188.8020  176.8860  141.6900 C   0  0  0  0  0  0  0  0  0  0  0  0
  188.3360  176.6610  144.1550 N   0  0  1  0  0  0  0  0  0  0  0  0
  190.1510  178.4560  143.9310 C   0  0  0  0  0  2  0  0  0  0  0  0
  190.7030  178.5990  146.4070 C   0  0  0  0  0  1  0  0  0  0  0  0
  191.3330  175.8690  143.7410 C   0  0  0  0  0  2  0  0  0  0  0  0
  185.2410  179.3350  141.2410 C   0  0  2  0  0  3  0  0  0  0  0  0
  182.2220  178.4580  142.1660 C   0  0  0  0  0  2  0  0  0  0  0  0
  186.9330  176.9530  143.8440 C   0  0  0  0  0  2  0  0  0  0  0  0
  190.1320  175.1500  143.1570 C   0  0  0  0  0  2  0  0  0  0  0  0
  185.3530  178.2020  142.2770 C   0  0  1  0  0  3  0  0  0  0  0  0
  184.1720  179.3700  139.0780 O   0  0  0  0  0  0  0  0  0  0  0  0
  188.9200  176.0570  142.9410 C   0  0  2  0  0  3  0  0  0  0  0  0
  191.0320  176.3300  145.1620 C   0  0  0  0  0  2  0  0  0  0  0  0
  182.8890  178.2350  140.8060 C   0  0  1  0  0  3  0  0  0  0  0  0
  187.6940  177.7470  141.5550 C   0  0  0  0  0  0  0  0  0  0  0  0
  188.9440  177.9040  144.6990 C   0  0  2  0  0  3  0  0  0  0  0  0
  186.7980  178.0290  142.7390 C   0  0  2  0  0  3  0  0  0  0  0  0
  189.4940  177.4120  139.4290 C   0  0  0  0  0  3  0  0  0  0  0  0
  183.1150  178.5970  143.3800 C   0  0  0  0  0  3  0  0  0  0  0  0
  189.6870  176.7120  140.6200 C   0  0  0  0  0  3  0  0  0  0  0  0
  184.4520  178.4950  143.4430 C   0  0  0  0  0  3  0  0  0  0  0  0
  183.9190  179.3320  140.4610 C   0  0  1  0  0  3  0  0  0  0  0  0
  188.3970  178.2630  139.2910 C   0  0  0  0  0  3  0  0  0  0  0  0
  186.2920  179.3370  140.1450 C   0  0  1  0  0  3  0  0  0  0  0  0
  183.3870  176.7990  140.6530 C   0  0  0  0  0  2  0  0  0  0  0  0
  182.6100  176.0520  139.5750 C   0  0  0  0  0  2  0  0  0  0  0  0
  182.1380  175.8170  136.1700 N   0  0  0  0  0  2  0  0  0  0  0  0
  183.4950  174.6050  137.7240 C   0  0  0  0  0  2  0  0  0  0  0  0
  183.3520  176.0180  138.2370 C   0  0  1  0  0  3  0  0  0  0  0  0
  183.0130  174.6610  136.2940 C   0  0  0  0  0  2  0  0  0  0  0  0
  182.6160  176.7810  137.1520 C   0  0  0  0  0  2  0  0  0  0  0  0
  1 18  1  0  0  0  0
  2 14  1  0  0  0  0
  2 27  1  0  0  0  0
  3  7  1  1  0  0  0
  4 15  1  0  0  0  0
  5 11  1  6  0  0  0
  5 19  1  0  0  0  0
  6 19  1  0  0  0  0
  6  3  1  0  0  0  0
  8 16  1  0  0  0  0
  9 13  1  0  0  0  0
 10 22  1  0  0  0  0
 12  8  1  0  0  0  0
 13 20  1  0  0  0  0
 13 24  1  0  0  0  0
 14 25  1  0  0  0  0
 15 12  1  0  0  0  0
 15  5  1  0  0  0  0
 16  3  1  0  0  0  0
 17 10  1  0  0  0  0
 18  4  2  0  0  0  0
 18 20  1  0  0  0  0
 19  3  1  0  0  0  0
 20 11  1  0  0  0  0
 21 23  2  0  0  0  0
 22 24  2  0  0  0  0
 23  4  1  0  0  0  0
 25 17  1  0  0  0  0
 25  9  1  0  0  0  0
 26 21  1  0  0  0  0
 26  1  2  0  0  0  0
 27  1  1  0  0  0  0
 27  9  1  0  0  0  0
 28 17  1  0  0  0  0
 29 28  1  0  0  0  0
 30 33  1  0  0  0  0
 30 34  1  0  0  0  0
 31 32  1  0  0  0  0
 32 29  1  0  0  0  0
 33 31  1  0  0  0  0
 34 32  1  0  0  0  0
M  END
>  <MODEL>
4

>  <REMARK>
 VINA RESULT:      -5.0      3.683      7.328
  Name = 
  3 active torsions:
  status: ('A' for Active; 'I' for Inactive)
    1  A    between atoms: C_17  and  C_28
    2  A    between atoms: C_28  and  C_29
    3  A    between atoms: C_29  and  C_32
                            x       y       z     vdW  Elec       q    Type
                         _______ _______ _______ _____ _____    ______ ____

>  <TORSDO>
F 3

$$$$
=
 OpenBabel11122412093D

 34 41  0  0  1  0  0  0  0  0999 V2000
  183.6170  178.1250  139.1470 C   0  0  0  0  0  0  0  0  0  0  0  0
  181.6130  179.3920  139.9410 C   0  0  0  0  0  2  0  0  0  0  0  0
  186.5330  174.4530  135.8640 C   0  0  2  0  0  0  0  0  0  0  0  0
  185.5410  177.8250  137.6820 C   0  0  0  0  0  0  0  0  0  0  0  0
  185.2740  176.6040  135.4950 N   0  0  1  0  0  0  0  0  0  0  0  0
  185.9690  174.8400  137.2190 C   0  0  0  0  0  2  0  0  0  0  0  0
  186.4070  172.9790  135.5460 C   0  0  0  0  0  1  0  0  0  0  0  0
  188.2680  176.2750  136.3360 C   0  0  0  0  0  2  0  0  0  0  0  0
  181.2310  177.7790  138.2330 C   0  0  2  0  0  3  0  0  0  0  0  0
  179.0440  178.9310  136.0810 C   0  0  0  0  0  2  0  0  0  0  0  0
  183.9050  177.1280  135.4510 C   0  0  0  0  0  2  0  0  0  0  0  0
  187.5690  177.5840  136.0200 C   0  0  0  0  0  2  0  0  0  0  0  0
  181.8970  177.8570  136.8480 C   0  0  1  0  0  3  0  0  0  0  0  0
  180.2580  179.5170  139.5950 O   0  0  0  0  0  0  0  0  0  0  0  0
  186.0650  177.5580  136.2970 C   0  0  2  0  0  3  0  0  0  0  0  0
  187.7950  175.1820  135.3870 C   0  0  0  0  0  2  0  0  0  0  0  0
  179.7190  179.6860  137.2290 C   0  0  1  0  0  3  0  0  0  0  0  0
  184.1510  177.7400  137.9040 C   0  0  0  0  0  0  0  0  0  0  0  0
  185.1980  175.1870  135.9400 C   0  0  2  0  0  3  0  0  0  0  0  0
  183.2460  177.1410  136.8520 C   0  0  2  0  0  3  0  0  0  0  0  0
  185.8590  178.6280  139.9450 C   0  0  0  0  0  3  0  0  0  0  0  0
  179.7670  177.7360  135.4950 C   0  0  0  0  0  3  0  0  0  0  0  0
  186.3850  178.2830  138.7010 C   0  0  0  0  0  3  0  0  0  0  0  0
  180.9820  177.2640  135.8150 C   0  0  0  0  0  3  0  0  0  0  0  0
  180.0730  178.7690  138.4190 C   0  0  1  0  0  3  0  0  0  0  0  0
  184.4830  178.5470  140.1670 C   0  0  0  0  0  3  0  0  0  0  0  0
  182.1320  178.0720  139.4190 C   0  0  1  0  0  3  0  0  0  0  0  0
  180.8560  180.5730  136.7260 C   0  0  0  0  0  2  0  0  0  0  0  0
  180.3700  181.5590  135.6710 C   0  0  0  0  0  2  0  0  0  0  0  0
  181.1800  184.9060  135.7840 N   0  0  0  0  0  2  0  0  0  0  0  0
  180.7950  183.2560  137.4730 C   0  0  0  0  0  2  0  0  0  0  0  0
  179.9470  182.9000  136.2750 C   0  0  1  0  0  3  0  0  0  0  0  0
  181.2520  184.6730  137.2190 C   0  0  0  0  0  2  0  0  0  0  0  0
  180.1100  184.0480  135.2960 C   0  0  0  0  0  2  0  0  0  0  0  0
  1 27  1  0  0  0  0
  1 26  1  0  0  0  0
  3  7  1  6  0  0  0
  3 19  1  0  0  0  0
  3  6  1  0  0  0  0
  4 18  1  0  0  0  0
  4 23  2  0  0  0  0
  5 11  1  1  0  0  0
  5 19  1  0  0  0  0
  5 15  1  0  0  0  0
  9 25  1  0  0  0  0
  9 27  1  0  0  0  0
 10 17  1  0  0  0  0
 11 20  1  0  0  0  0
 12 15  1  0  0  0  0
 12  8  1  0  0  0  0
 13 20  1  0  0  0  0
 13  9  1  0  0  0  0
 14  2  1  0  0  0  0
 15  4  1  0  0  0  0
 16  3  1  0  0  0  0
 16  8  1  0  0  0  0
 17 25  1  0  0  0  0
 18  1  2  0  0  0  0
 19  6  1  0  0  0  0
 20 18  1  0  0  0  0
 21 26  2  0  0  0  0
 22 24  2  0  0  0  0
 22 10  1  0  0  0  0
 23 21  1  0  0  0  0
 24 13  1  0  0  0  0
 25 14  1  0  0  0  0
 27  2  1  0  0  0  0
 28 17  1  0  0  0  0
 29 32  1  0  0  0  0
 29 28  1  0  0  0  0
 30 33  1  0  0  0  0
 32 31  1  0  0  0  0
 33 31  1  0  0  0  0
 34 30  1  0  0  0  0
 34 32  1  0  0  0  0
M  END
>  <MODEL>
5

>  <REMARK>
 VINA RESULT:      -4.9      2.704      7.579
  Name = 
  3 active torsions:
  status: ('A' for Active; 'I' for Inactive)
    1  A    between atoms: C_17  and  C_28
    2  A    between atoms: C_28  and  C_29
    3  A    between atoms: C_29  and  C_32
                            x       y       z     vdW  Elec       q    Type
                         _______ _______ _______ _____ _____    ______ ____

>  <TORSDO>
F 3

$$$$
=
 OpenBabel11122412093D

 34 41  0  0  1  0  0  0  0  0999 V2000
  186.1480  176.7660  135.8360 C   0  0  0  0  0  0  0  0  0  0  0  0
  187.1680  178.9870  136.3600 C   0  0  0  0  0  2  0  0  0  0  0  0
  185.9670  171.0650  135.3580 C   0  0  2  0  0  0  0  0  0  0  0  0
  184.9680  174.7300  136.4670 C   0  0  0  0  0  0  0  0  0  0  0  0
  186.2670  172.7140  137.2380 N   0  0  1  0  0  0  0  0  0  0  0  0
  185.9530  172.4370  134.7110 C   0  0  0  0  0  2  0  0  0  0  0  0
  186.7700  170.0350  134.5930 C   0  0  0  0  0  1  0  0  0  0  0  0
  183.5740  171.6390  136.0650 C   0  0  0  0  0  2  0  0  0  0  0  0
  188.6090  177.1000  136.5320 C   0  0  2  0  0  3  0  0  0  0  0  0
  190.5890  177.4410  139.1210 C   0  0  0  0  0  2  0  0  0  0  0  0
  187.2550  173.6500  137.7850 C   0  0  0  0  0  2  0  0  0  0  0  0
  183.7210  172.5520  137.2670 C   0  0  0  0  0  2  0  0  0  0  0  0
  188.3480  175.9380  137.5070 C   0  0  1  0  0  3  0  0  0  0  0  0
  188.3870  179.4820  136.8500 O   0  0  0  0  0  0  0  0  0  0  0  0
  184.9750  173.4280  137.2230 C   0  0  2  0  0  3  0  0  0  0  0  0
  184.6840  170.5960  136.0560 C   0  0  0  0  0  2  0  0  0  0  0  0
  189.3930  178.3140  138.7330 C   0  0  1  0  0  3  0  0  0  0  0  0
  186.1590  175.4800  136.4080 C   0  0  0  0  0  0  0  0  0  0  0  0
  186.8080  172.1870  135.9580 C   0  0  2  0  0  3  0  0  0  0  0  0
  187.4670  174.8730  136.8600 C   0  0  2  0  0  3  0  0  0  0  0  0
  183.7790  176.5190  135.3490 C   0  0  0  0  0  3  0  0  0  0  0  0
  190.6040  176.0040  138.6440 C   0  0  0  0  0  3  0  0  0  0  0  0
  183.7800  175.2600  135.9490 C   0  0  0  0  0  3  0  0  0  0  0  0
  189.6570  175.3500  137.9510 C   0  0  0  0  0  3  0  0  0  0  0  0
  189.1610  178.3630  137.2080 C   0  0  1  0  0  3  0  0  0  0  0  0
  184.9560  177.2660  135.2910 C   0  0  0  0  0  3  0  0  0  0  0  0
  187.3970  177.6130  135.7740 C   0  0  1  0  0  3  0  0  0  0  0  0
  188.1600  177.9830  139.5710 C   0  0  0  0  0  2  0  0  0  0  0  0
  188.2790  178.5410  140.9840 C   0  0  0  0  0  2  0  0  0  0  0  0
  188.0420  177.7310  144.3240 N   0  0  0  0  0  2  0  0  0  0  0  0
  189.8750  177.8400  142.7910 C   0  0  0  0  0  2  0  0  0  0  0  0
  188.6390  177.4630  142.0100 C   0  0  1  0  0  3  0  0  0  0  0  0
  189.4920  177.6490  144.2400 C   0  0  0  0  0  2  0  0  0  0  0  0
  187.5420  177.2610  143.0390 C   0  0  0  0  0  2  0  0  0  0  0  0
  1 18  1  0  0  0  0
  2 14  1  0  0  0  0
  3  7  1  6  0  0  0
  3 19  1  0  0  0  0
  3 16  1  0  0  0  0
  4 15  1  0  0  0  0
  5 11  1  6  0  0  0
  6  3  1  0  0  0  0
  6 19  1  0  0  0  0
  8 12  1  0  0  0  0
  9 25  1  0  0  0  0
  9 13  1  0  0  0  0
 13 24  1  0  0  0  0
 14 25  1  0  0  0  0
 15  5  1  0  0  0  0
 15 12  1  0  0  0  0
 16  8  1  0  0  0  0
 17 10  1  0  0  0  0
 17 28  1  0  0  0  0
 18  4  2  0  0  0  0
 18 20  1  0  0  0  0
 19  5  1  0  0  0  0
 20 13  1  0  0  0  0
 20 11  1  0  0  0  0
 21 23  2  0  0  0  0
 22 10  1  0  0  0  0
 23  4  1  0  0  0  0
 24 22  2  0  0  0  0
 25 17  1  0  0  0  0
 26 21  1  0  0  0  0
 26  1  2  0  0  0  0
 27  1  1  0  0  0  0
 27  2  1  0  0  0  0
 27  9  1  0  0  0  0
 28 29  1  0  0  0  0
 29 32  1  0  0  0  0
 31 33  1  0  0  0  0
 32 31  1  0  0  0  0
 32 34  1  0  0  0  0
 33 30  1  0  0  0  0
 34 30  1  0  0  0  0
M  END
>  <MODEL>
6

>  <REMARK>
 VINA RESULT:      -4.9      3.630      7.236
  Name = 
  3 active torsions:
  status: ('A' for Active; 'I' for Inactive)
    1  A    between atoms: C_17  and  C_28
    2  A    between atoms: C_28  and  C_29
    3  A    between atoms: C_29  and  C_32
                            x       y       z     vdW  Elec       q    Type
                         _______ _______ _______ _____ _____    ______ ____

>  <TORSDO>
F 3

$$$$
=
 OpenBabel11122412093D

 34 41  0  0  1  0  0  0  0  0999 V2000
  185.8580  178.2550  137.3240 C   0  0  0  0  0  0  0  0  0  0  0  0
  188.2360  179.0170  137.2020 C   0  0  0  0  0  2  0  0  0  0  0  0
  181.3120  175.0360  136.0050 C   0  0  2  0  0  0  0  0  0  0  0  0
  184.0940  176.8130  138.1870 C   0  0  0  0  0  0  0  0  0  0  0  0
  183.5770  174.6350  137.0330 N   0  0  1  0  0  0  0  0  0  0  0  0
  182.0150  176.3810  135.9970 C   0  0  0  0  0  2  0  0  0  0  0  0
  180.5590  174.7300  134.7280 C   0  0  0  0  0  1  0  0  0  0  0  0
  180.9540  175.5100  138.4950 C   0  0  0  0  0  2  0  0  0  0  0  0
  187.5930  177.3190  135.6620 C   0  0  2  0  0  3  0  0  0  0  0  0
  190.0140  175.1340  135.3370 C   0  0  0  0  0  2  0  0  0  0  0  0
  184.9970  174.5720  136.6710 C   0  0  0  0  0  2  0  0  0  0  0  0
  182.2760  175.1750  139.1600 C   0  0  0  0  0  2  0  0  0  0  0  0
  187.0750  175.9400  136.1090 C   0  0  1  0  0  3  0  0  0  0  0  0
  189.4100  178.6550  136.5220 O   0  0  0  0  0  0  0  0  0  0  0  0
  183.4930  175.4360  138.2700 C   0  0  2  0  0  3  0  0  0  0  0  0
  180.6960  174.5660  137.3280 C   0  0  0  0  0  2  0  0  0  0  0  0
  189.9150  176.2820  136.3450 C   0  0  1  0  0  3  0  0  0  0  0  0
  185.1820  177.0210  137.3160 C   0  0  0  0  0  0  0  0  0  0  0  0
  182.8270  175.0910  135.8340 C   0  0  2  0  0  3  0  0  0  0  0  0
  185.5610  175.9650  136.3030 C   0  0  2  0  0  3  0  0  0  0  0  0
  184.3290  179.0720  139.0290 C   0  0  0  0  0  3  0  0  0  0  0  0
  188.7270  174.5660  134.7790 C   0  0  0  0  0  3  0  0  0  0  0  0
  183.6830  177.8360  139.0500 C   0  0  0  0  0  3  0  0  0  0  0  0
  187.4660  174.9030  135.0950 C   0  0  0  0  0  3  0  0  0  0  0  0
  189.1130  177.4840  135.8020 C   0  0  1  0  0  3  0  0  0  0  0  0
  185.4090  179.2800  138.1700 C   0  0  0  0  0  3  0  0  0  0  0  0
  187.0430  178.5120  136.4230 C   0  0  1  0  0  3  0  0  0  0  0  0
  189.4920  175.7830  137.7250 C   0  0  0  0  0  2  0  0  0  0  0  0
  190.5770  176.0310  138.7650 C   0  0  0  0  0  2  0  0  0  0  0  0
  189.9340  176.9090  142.0340 N   0  0  0  0  0  2  0  0  0  0  0  0
  188.7800  177.3010  139.9760 C   0  0  0  0  0  2  0  0  0  0  0  0
  190.2570  177.2220  139.6720 C   0  0  1  0  0  3  0  0  0  0  0  0
  188.7000  177.4410  141.4770 C   0  0  0  0  0  2  0  0  0  0  0  0
  190.9530  177.1240  141.0170 C   0  0  0  0  0  2  0  0  0  0  0  0
  1 26  1  0  0  0  0
  3  7  1  6  0  0  0
  3 16  1  0  0  0  0
  4 15  1  0  0  0  0
  4 23  2  0  0  0  0
  5 11  1  6  0  0  0
  5 15  1  0  0  0  0
  6  3  1  0  0  0  0
  8 12  1  0  0  0  0
  9 25  1  0  0  0  0
  9 13  1  0  0  0  0
  9 27  1  0  0  0  0
 10 17  1  0  0  0  0
 13 20  1  0  0  0  0
 14  2  1  0  0  0  0
 15 12  1  0  0  0  0
 16  8  1  0  0  0  0
 17 28  1  0  0  0  0
 18  1  2  0  0  0  0
 18  4  1  0  0  0  0
 19  6  1  0  0  0  0
 19  3  1  0  0  0  0
 19  5  1  0  0  0  0
 20 11  1  0  0  0  0
 20 18  1  0  0  0  0
 21 23  1  0  0  0  0
 22 24  2  0  0  0  0
 22 10  1  0  0  0  0
 24 13  1  0  0  0  0
 25 17  1  0  0  0  0
 25 14  1  0  0  0  0
 26 21  2  0  0  0  0
 27  2  1  0  0  0  0
 27  1  1  0  0  0  0
 28 29  1  0  0  0  0
 29 32  1  0  0  0  0
 31 33  1  0  0  0  0
 32 31  1  0  0  0  0
 32 34  1  0  0  0  0
 33 30  1  0  0  0  0
 34 30  1  0  0  0  0
M  END
>  <MODEL>
7

>  <REMARK>
 VINA RESULT:      -4.7      2.529      4.724
  Name = 
  3 active torsions:
  status: ('A' for Active; 'I' for Inactive)
    1  A    between atoms: C_17  and  C_28
    2  A    between atoms: C_28  and  C_29
    3  A    between atoms: C_29  and  C_32
                            x       y       z     vdW  Elec       q    Type
                         _______ _______ _______ _____ _____    ______ ____

>  <TORSDO>
F 3

$$$$
=
 OpenBabel11122412093D

 34 41  0  0  1  0  0  0  0  0999 V2000
  179.7340  179.0970  136.7450 C   0  0  0  0  0  0  0  0  0  0  0  0
  180.2250  176.6790  137.1530 C   0  0  0  0  0  2  0  0  0  0  0  0
  179.6780  184.7010  137.9080 C   0  0  2  0  0  0  0  0  0  0  0  0
  180.3440  181.3210  135.9610 C   0  0  0  0  0  0  0  0  0  0  0  0
  181.4490  182.9480  137.5350 N   0  0  1  0  0  0  0  0  0  0  0  0
  178.9320  183.3970  137.6930 C   0  0  0  0  0  2  0  0  0  0  0  0
  179.1200  185.5490  139.0300 C   0  0  0  0  0  1  0  0  0  0  0  0
  179.9870  184.6630  135.3670 C   0  0  0  0  0  2  0  0  0  0  0  0
  180.7490  178.1740  138.9290 C   0  0  2  0  0  3  0  0  0  0  0  0
  183.5620  177.2750  140.3510 C   0  0  0  0  0  2  0  0  0  0  0  0
  182.0580  181.7870  138.1930 C   0  0  0  0  0  2  0  0  0  0  0  0
  181.1240  183.6910  135.1160 C   0  0  0  0  0  2  0  0  0  0  0  0
  181.7640  179.3220  138.7820 C   0  0  1  0  0  3  0  0  0  0  0  0
  180.8460  175.8960  138.1390 O   0  0  0  0  0  0  0  0  0  0  0  0
  181.1920  182.5520  136.1360 C   0  0  2  0  0  3  0  0  0  0  0  0
  180.2180  185.4230  136.6670 C   0  0  0  0  0  2  0  0  0  0  0  0
  182.9390  176.7190  139.0680 C   0  0  1  0  0  3  0  0  0  0  0  0
  180.4000  180.3190  136.9500 C   0  0  0  0  0  0  0  0  0  0  0  0
  180.3050  183.3900  138.3740 C   0  0  2  0  0  3  0  0  0  0  0  0
  181.0810  180.5890  138.2720 C   0  0  2  0  0  3  0  0  0  0  0  0
  178.9310  179.9040  134.5970 C   0  0  0  0  0  3  0  0  0  0  0  0
  183.2050  178.6890  140.7580 C   0  0  0  0  0  3  0  0  0  0  0  0
  179.6220  181.1010  134.7820 C   0  0  0  0  0  3  0  0  0  0  0  0
  182.4360  179.5730  140.1020 C   0  0  0  0  0  3  0  0  0  0  0  0
  181.3970  176.7900  139.0750 C   0  0  1  0  0  3  0  0  0  0  0  0
  178.9860  178.9090  135.5730 C   0  0  0  0  0  3  0  0  0  0  0  0
  179.7870  177.9870  137.7690 C   0  0  1  0  0  3  0  0  0  0  0  0
  183.6140  177.2890  137.8220 C   0  0  0  0  0  2  0  0  0  0  0  0
  184.7320  176.3800  137.3280 C   0  0  0  0  0  2  0  0  0  0  0  0
  188.1500  176.5130  137.7410 N   0  0  0  0  0  2  0  0  0  0  0  0
  186.4050  178.1280  138.0020 C   0  0  0  0  0  2  0  0  0  0  0  0
  185.9840  177.1610  136.9210 C   0  0  1  0  0  3  0  0  0  0  0  0
  187.8770  177.8640  138.2080 C   0  0  0  0  0  2  0  0  0  0  0  0
  187.1780  176.2530  136.6890 C   0  0  0  0  0  2  0  0  0  0  0  0
  1 18  1  0  0  0  0
  1 27  1  0  0  0  0
  2 27  1  0  0  0  0
  2 14  1  0  0  0  0
  3 19  1  0  0  0  0
  3  7  1  1  0  0  0
  4 15  1  0  0  0  0
  4 18  2  0  0  0  0
  5 11  1  1  0  0  0
  5 19  1  0  0  0  0
  6  3  1  0  0  0  0
  6 19  1  0  0  0  0
  8 16  1  0  0  0  0
  9 25  1  0  0  0  0
 10 22  1  0  0  0  0
 11 20  1  0  0  0  0
 12  8  1  0  0  0  0
 12 15  1  0  0  0  0
 13  9  1  0  0  0  0
 13 24  1  0  0  0  0
 14 25  1  0  0  0  0
 15  5  1  0  0  0  0
 16  3  1  0  0  0  0
 17 25  1  0  0  0  0
 17 10  1  0  0  0  0
 18 20  1  0  0  0  0
 20 13  1  0  0  0  0
 21 23  2  0  0  0  0
 21 26  1  0  0  0  0
 23  4  1  0  0  0  0
 24 22  2  0  0  0  0
 26  1  2  0  0  0  0
 27  9  1  0  0  0  0
 28 17  1  0  0  0  0
 29 28  1  0  0  0  0
 30 33  1  0  0  0  0
 31 33  1  0  0  0  0
 32 29  1  0  0  0  0
 32 31  1  0  0  0  0
 34 32  1  0  0  0  0
 34 30  1  0  0  0  0
M  END
>  <MODEL>
8

>  <REMARK>
 VINA RESULT:      -4.6      2.949      6.284
  Name = 
  3 active torsions:
  status: ('A' for Active; 'I' for Inactive)
    1  A    between atoms: C_17  and  C_28
    2  A    between atoms: C_28  and  C_29
    3  A    between atoms: C_29  and  C_32
                            x       y       z     vdW  Elec       q    Type
                         _______ _______ _______ _____ _____    ______ ____

>  <TORSDO>
F 3

$$$$
=
 OpenBabel11122412093D

 34 41  0  0  1  0  0  0  0  0999 V2000
  186.8380  178.5620  140.4330 C   0  0  0  0  0  0  0  0  0  0  0  0
  189.2850  178.0650  140.3060 C   0  0  0  0  0  2  0  0  0  0  0  0
  181.6400  179.8450  138.4110 C   0  0  2  0  0  0  0  0  0  0  0  0
  184.4940  177.9030  140.3440 C   0  0  0  0  0  0  0  0  0  0  0  0
  183.2640  177.9370  138.1460 N   0  0  1  0  0  0  0  0  0  0  0  0
  182.8610  180.2250  139.2270 C   0  0  0  0  0  2  0  0  0  0  0  0
  181.0650  180.9860  137.5990 C   0  0  0  0  0  1  0  0  0  0  0  0
  181.1040  178.2990  140.3800 C   0  0  0  0  0  2  0  0  0  0  0  0
  188.2280  178.6840  138.2650 C   0  0  2  0  0  3  0  0  0  0  0  0
  189.4240  176.8850  135.8000 C   0  0  0  0  0  2  0  0  0  0  0  0
  184.5430  177.6110  137.5070 C   0  0  0  0  0  2  0  0  0  0  0  0
  181.9950  177.0860  140.1890 C   0  0  0  0  0  2  0  0  0  0  0  0
  187.0770  177.8740  137.6430 C   0  0  1  0  0  3  0  0  0  0  0  0
  190.2700  177.9390  139.3130 O   0  0  0  0  0  0  0  0  0  0  0  0
  183.3340  177.4080  139.5220 C   0  0  2  0  0  3  0  0  0  0  0  0
  180.6570  178.8420  139.0290 C   0  0  0  0  0  2  0  0  0  0  0  0
  189.6770  176.7090  137.2990 C   0  0  1  0  0  3  0  0  0  0  0  0
  185.6930  178.2370  139.6820 C   0  0  0  0  0  0  0  0  0  0  0  0
  183.0210  179.3910  137.9510 C   0  0  2  0  0  3  0  0  0  0  0  0
  185.7280  178.3490  138.1760 C   0  0  2  0  0  3  0  0  0  0  0  0
  185.5680  178.2630  142.4850 C   0  0  0  0  0  3  0  0  0  0  0  0
  188.1390  177.5600  135.3710 C   0  0  0  0  0  3  0  0  0  0  0  0
  184.4430  177.9040  141.7430 C   0  0  0  0  0  3  0  0  0  0  0  0
  187.1300  177.9910  136.1460 C   0  0  0  0  0  3  0  0  0  0  0  0
  189.6090  178.0410  138.0750 C   0  0  1  0  0  3  0  0  0  0  0  0
  186.7570  178.5910  141.8330 C   0  0  0  0  0  3  0  0  0  0  0  0
  188.1490  178.9030  139.7650 C   0  0  1  0  0  3  0  0  0  0  0  0
  188.8410  175.5700  137.8800 C   0  0  0  0  0  2  0  0  0  0  0  0
  189.0740  174.2660  137.1280 C   0  0  0  0  0  2  0  0  0  0  0  0
  187.2970  171.5720  135.9220 N   0  0  0  0  0  2  0  0  0  0  0  0
  188.3440  173.4480  134.8690 C   0  0  0  0  0  2  0  0  0  0  0  0
  187.8870  173.8820  136.2420 C   0  0  1  0  0  3  0  0  0  0  0  0
  187.6430  172.1320  134.6250 C   0  0  0  0  0  2  0  0  0  0  0  0
  187.1030  172.7120  136.8070 C   0  0  0  0  0  2  0  0  0  0  0  0
  1 26  1  0  0  0  0
  3  7  1  6  0  0  0
  3 16  1  0  0  0  0
  3  6  1  0  0  0  0
  4 23  2  0  0  0  0
  5 11  1  1  0  0  0
  5 15  1  0  0  0  0
  9 27  1  0  0  0  0
 10 17  1  0  0  0  0
 11 20  1  0  0  0  0
 12  8  1  0  0  0  0
 13 20  1  0  0  0  0
 13  9  1  0  0  0  0
 14  2  1  0  0  0  0
 15 12  1  0  0  0  0
 15  4  1  0  0  0  0
 16  8  1  0  0  0  0
 17 28  1  0  0  0  0
 17 25  1  0  0  0  0
 18  4  1  0  0  0  0
 18  1  2  0  0  0  0
 19  5  1  0  0  0  0
 19  3  1  0  0  0  0
 19  6  1  0  0  0  0
 20 18  1  0  0  0  0
 22 10  1  0  0  0  0
 22 24  2  0  0  0  0
 23 21  1  0  0  0  0
 24 13  1  0  0  0  0
 25  9  1  0  0  0  0
 25 14  1  0  0  0  0
 26 21  2  0  0  0  0
 27  2  1  0  0  0  0
 27  1  1  0  0  0  0
 29 28  1  0  0  0  0
 30 34  1  0  0  0  0
 31 32  1  0  0  0  0
 32 34  1  0  0  0  0
 32 29  1  0  0  0  0
 33 31  1  0  0  0  0
 33 30  1  0  0  0  0
M  END
>  <MODEL>
9

>  <REMARK>
 VINA RESULT:      -4.5      1.869      2.490
  Name = 
  3 active torsions:
  status: ('A' for Active; 'I' for Inactive)
    1  A    between atoms: C_17  and  C_28
    2  A    between atoms: C_28  and  C_29
    3  A    between atoms: C_29  and  C_32
                            x       y       z     vdW  Elec       q    Type
                         _______ _______ _______ _____ _____    ______ ____

>  <TORSDO>
F 3

$$$$
