=
 OpenBabel11122411193D

 31 35  0  0  1  0  0  0  0  0999 V2000
  191.4450  176.7480  145.2360 C   0  0  0  0  0  0  0  0  0  0  0  0
  187.8210  177.0100  144.1000 C   0  0  2  0  0  3  0  0  0  0  0  0
  187.0510  177.7920  145.1470 C   0  0  0  0  0  0  0  0  0  0  0  0
  186.8070  178.6650  147.4020 C   0  0  0  0  0  0  0  0  0  0  0  0
  189.3130  177.2290  144.1810 C   0  0  0  0  0  0  0  0  0  0  0  0
  192.0790  177.6430  144.3710 C   0  0  0  0  0  3  0  0  0  0  0  0
  187.5460  177.9590  146.4500 C   0  0  0  0  0  3  0  0  0  0  0  0
  187.7650  178.6770  142.1760 C   0  0  2  0  0  3  0  0  0  0  0  0
  192.1660  176.0830  146.1700 F   0  0  0  0  0  0  0  0  0  0  0  0
  185.2530  178.1040  143.5150 N   0  0  0  0  0  2  0  0  0  0  0  0
  187.2990  178.8320  148.6530 F   0  0  0  0  0  0  0  0  0  0  0  0
  189.2180  178.7840  142.2750 N   0  0  0  0  0  2  0  0  0  0  0  0
  187.2970  177.3000  142.6740 C   0  0  2  0  0  3  0  0  0  0  0  0
  190.0660  176.5400  145.1410 C   0  0  0  0  0  3  0  0  0  0  0  0
  185.5620  179.2030  147.0630 C   0  0  0  0  0  3  0  0  0  0  0  0
  189.9570  178.1290  143.3090 C   0  0  0  0  0  0  0  0  0  0  0  0
  191.3370  178.3270  143.4040 C   0  0  0  0  0  3  0  0  0  0  0  0
  185.8350  177.1810  142.6240 N   0  0  0  0  0  2  0  0  0  0  0  0
  185.7810  178.3010  144.8290 C   0  0  0  0  0  0  0  0  0  0  0  0
  185.0490  179.0200  145.7770 C   0  0  0  0  0  3  0  0  0  0  0  0
  188.7890  177.2510  139.9300 O   0  0  0  0  0  0  0  0  0  0  0  0
  187.9000  178.1220  139.7140 C   0  0  0  0  0  0  0  0  0  0  0  0
  187.3530  178.8780  140.7940 N   0  0  0  0  0  2  0  0  0  0  0  0
  188.5150  176.2420  136.7530 C   0  0  0  0  0  0  0  0  0  0  0  0
  186.5530  177.2150  137.8080 C   0  0  0  0  0  2  0  0  0  0  0  0
  189.0380  179.7840  137.2720 O   0  0  0  0  0  0  0  0  0  0  0  0
  189.2470  175.0550  136.2400 C   0  0  0  0  0  1  0  0  0  0  0  0
  187.3680  176.0860  137.3450 N   0  0  0  0  0  0  0  0  0  0  0  0
  188.5490  178.6310  137.3840 C   0  0  0  0  0  0  0  0  0  0  0  0
  187.4100  178.3780  138.3240 C   0  0  2  0  0  3  0  0  0  0  0  0
  189.1080  177.5400  136.6510 N   0  0  0  0  0  2  0  0  0  0  0  0
  1  9  1  0  0  0  0
  2  5  1  6  0  0  0
  2  3  1  0  0  0  0
  3  7  1  0  0  0  0
  4 11  1  0  0  0  0
  5 14  2  0  0  0  0
  6  1  2  0  0  0  0
  7  4  2  0  0  0  0
  8 23  1  6  0  0  0
  8 12  1  0  0  0  0
  8 13  1  0  0  0  0
 10 19  1  0  0  0  0
 12 16  1  0  0  0  0
 13 18  1  1  0  0  0
 13  2  1  0  0  0  0
 14  1  1  0  0  0  0
 15  4  1  0  0  0  0
 16 17  2  0  0  0  0
 16  5  1  0  0  0  0
 17  6  1  0  0  0  0
 18 10  1  0  0  0  0
 19  3  2  0  0  0  0
 19 20  1  0  0  0  0
 20 15  2  0  0  0  0
 22 21  2  0  0  0  0
 22 23  1  0  0  0  0
 24 28  2  0  0  0  0
 25 30  1  0  0  0  0
 26 29  2  0  0  0  0
 27 24  1  0  0  0  0
 28 25  1  0  0  0  0
 29 30  1  0  0  0  0
 30 22  1  1  0  0  0
 31 24  1  0  0  0  0
 31 29  1  0  0  0  0
M  END
>  <MODEL>
1

>  <REMARK>
 VINA RESULT:      -9.1      0.000      0.000
  Name = 
  2 active torsions:
  status: ('A' for Active; 'I' for Inactive)
    1  A    between atoms: C_5  and  C_30
    2  A    between atoms: C_10  and  N_16
                            x       y       z     vdW  Elec       q    Type
                         _______ _______ _______ _____ _____    ______ ____

>  <TORSDO>
F 2

$$$$
=
 OpenBabel11122411193D

 31 35  0  0  1  0  0  0  0  0999 V2000
  191.3360  176.1160  143.6140 C   0  0  0  0  0  0  0  0  0  0  0  0
  187.6140  176.8660  143.8830 C   0  0  2  0  0  3  0  0  0  0  0  0
  187.3700  177.5980  145.1890 C   0  0  0  0  0  0  0  0  0  0  0  0
  188.0500  178.2310  147.4350 C   0  0  0  0  0  0  0  0  0  0  0  0
  189.0550  176.9230  143.4350 C   0  0  0  0  0  0  0  0  0  0  0  0
  191.7410  177.0340  142.6430 C   0  0  0  0  0  3  0  0  0  0  0  0
  188.3070  177.5660  146.2340 C   0  0  0  0  0  3  0  0  0  0  0  0
  187.1120  178.7370  142.2300 C   0  0  2  0  0  3  0  0  0  0  0  0
  192.2420  175.2800  144.1760 F   0  0  0  0  0  0  0  0  0  0  0  0
  185.1750  178.2710  144.3420 N   0  0  0  0  0  2  0  0  0  0  0  0
  188.9660  178.2050  148.4330 F   0  0  0  0  0  0  0  0  0  0  0  0
  188.5080  178.6860  141.8060 N   0  0  0  0  0  2  0  0  0  0  0  0
  186.6680  177.3670  142.7660 C   0  0  2  0  0  3  0  0  0  0  0  0
  189.9970  176.0590  144.0080 C   0  0  0  0  0  3  0  0  0  0  0  0
  186.8490  178.9260  147.6070 C   0  0  0  0  0  3  0  0  0  0  0  0
  189.4680  177.8470  142.4550 C   0  0  0  0  0  0  0  0  0  0  0  0
  190.8080  177.8950  142.0590 C   0  0  0  0  0  3  0  0  0  0  0  0
  185.2790  177.4010  143.2380 N   0  0  0  0  0  2  0  0  0  0  0  0
  186.1500  178.2640  145.3870 C   0  0  0  0  0  0  0  0  0  0  0  0
  185.8990  178.9420  146.5830 C   0  0  0  0  0  3  0  0  0  0  0  0
  187.2910  177.6790  139.5890 O   0  0  0  0  0  0  0  0  0  0  0  0
  186.4100  178.5560  139.8090 C   0  0  0  0  0  0  0  0  0  0  0  0
  186.2740  179.1330  141.1080 N   0  0  0  0  0  2  0  0  0  0  0  0
  183.2970  177.1610  138.7870 C   0  0  0  0  0  0  0  0  0  0  0  0
  184.1180  179.4000  139.2570 C   0  0  0  0  0  2  0  0  0  0  0  0
  186.1900  177.8560  136.7290 O   0  0  0  0  0  0  0  0  0  0  0  0
  182.3530  176.0490  139.0700 C   0  0  0  0  0  1  0  0  0  0  0  0
  183.2710  178.2330  139.5230 N   0  0  0  0  0  0  0  0  0  0  0  0
  185.3490  177.9500  137.6600 C   0  0  0  0  0  0  0  0  0  0  0  0
  185.4970  179.0060  138.7130 C   0  0  2  0  0  3  0  0  0  0  0  0
  184.2710  177.0170  137.7500 N   0  0  0  0  0  2  0  0  0  0  0  0
  1 14  1  0  0  0  0
  1  9  1  0  0  0  0
  2  5  1  6  0  0  0
  2  3  1  0  0  0  0
  3 19  2  0  0  0  0
  3  7  1  0  0  0  0
  4 15  1  0  0  0  0
  4 11  1  0  0  0  0
  5 14  2  0  0  0  0
  6  1  2  0  0  0  0
  7  4  2  0  0  0  0
  8 23  1  6  0  0  0
  8 13  1  0  0  0  0
 10 19  1  0  0  0  0
 12  8  1  0  0  0  0
 12 16  1  0  0  0  0
 13 18  1  1  0  0  0
 13  2  1  0  0  0  0
 16  5  1  0  0  0  0
 17 16  2  0  0  0  0
 17  6  1  0  0  0  0
 18 10  1  0  0  0  0
 19 20  1  0  0  0  0
 20 15  2  0  0  0  0
 21 22  2  0  0  0  0
 22 23  1  0  0  0  0
 24 27  1  0  0  0  0
 24 28  2  0  0  0  0
 25 28  1  0  0  0  0
 26 29  2  0  0  0  0
 29 31  1  0  0  0  0
 29 30  1  0  0  0  0
 30 25  1  0  0  0  0
 30 22  1  1  0  0  0
 31 24  1  0  0  0  0
M  END
>  <MODEL>
2

>  <REMARK>
 VINA RESULT:      -8.6      2.088      2.637
  Name = 
  2 active torsions:
  status: ('A' for Active; 'I' for Inactive)
    1  A    between atoms: C_5  and  C_30
    2  A    between atoms: C_10  and  N_16
                            x       y       z     vdW  Elec       q    Type
                         _______ _______ _______ _____ _____    ______ ____

>  <TORSDO>
F 2

$$$$
=
 OpenBabel11122411193D

 31 35  0  0  1  0  0  0  0  0999 V2000
  190.0910  176.0680  142.7840 C   0  0  0  0  0  0  0  0  0  0  0  0
  186.5180  177.1350  143.5510 C   0  0  2  0  0  3  0  0  0  0  0  0
  186.5190  177.8800  144.8720 C   0  0  0  0  0  0  0  0  0  0  0  0
  187.5500  178.4430  147.0000 C   0  0  0  0  0  0  0  0  0  0  0  0
  187.8850  177.0700  142.9110 C   0  0  0  0  0  0  0  0  0  0  0  0
  190.4380  176.9520  141.7600 C   0  0  0  0  0  3  0  0  0  0  0  0
  187.5830  177.7630  145.7800 C   0  0  0  0  0  3  0  0  0  0  0  0
  185.9590  179.0490  141.9670 C   0  0  2  0  0  3  0  0  0  0  0  0
  190.9900  175.1550  143.2240 F   0  0  0  0  0  0  0  0  0  0  0  0
  184.2940  178.7430  144.3260 N   0  0  0  0  0  2  0  0  0  0  0  0
  188.5870  178.3340  147.8640 F   0  0  0  0  0  0  0  0  0  0  0  0
  187.2750  178.8800  141.3570 N   0  0  0  0  0  2  0  0  0  0  0  0
  185.4760  177.7200  142.5690 C   0  0  2  0  0  3  0  0  0  0  0  0
  188.8180  176.1250  143.3570 C   0  0  0  0  0  3  0  0  0  0  0  0
  186.4470  179.2380  147.3280 C   0  0  0  0  0  3  0  0  0  0  0  0
  188.2380  177.9590  141.8760 C   0  0  0  0  0  0  0  0  0  0  0  0
  189.5110  177.8920  141.3020 C   0  0  0  0  0  3  0  0  0  0  0  0
  184.1720  177.8720  143.2250 N   0  0  0  0  0  2  0  0  0  0  0  0
  185.3980  178.6480  145.2290 C   0  0  0  0  0  0  0  0  0  0  0  0
  185.3720  179.3400  146.4430 C   0  0  0  0  0  3  0  0  0  0  0  0
  185.5630  177.8800  139.3980 O   0  0  0  0  0  0  0  0  0  0  0  0
  184.8570  178.8820  139.6990 C   0  0  0  0  0  0  0  0  0  0  0  0
  185.0130  179.5200  140.9660 N   0  0  0  0  0  2  0  0  0  0  0  0
  181.3520  178.2720  139.5640 C   0  0  0  0  0  0  0  0  0  0  0  0
  182.7700  180.2410  139.4460 C   0  0  0  0  0  2  0  0  0  0  0  0
  183.7690  177.8770  136.9010 O   0  0  0  0  0  0  0  0  0  0  0  0
  180.2620  177.5060  140.2220 C   0  0  0  0  0  1  0  0  0  0  0  0
  181.7540  179.3950  140.0790 N   0  0  0  0  0  0  0  0  0  0  0  0
  183.2140  178.3160  137.9410 C   0  0  0  0  0  0  0  0  0  0  0  0
  183.8500  179.4190  138.7320 C   0  0  2  0  0  3  0  0  0  0  0  0
  181.9960  177.7340  138.4050 N   0  0  0  0  0  2  0  0  0  0  0  0
  1  9  1  0  0  0  0
  1 14  1  0  0  0  0
  2  5  1  6  0  0  0
  2  3  1  0  0  0  0
  3 19  2  0  0  0  0
  3  7  1  0  0  0  0
  4 15  1  0  0  0  0
  4 11  1  0  0  0  0
  5 14  2  0  0  0  0
  6  1  2  0  0  0  0
  7  4  2  0  0  0  0
  8 23  1  6  0  0  0
  8 13  1  0  0  0  0
 10 19  1  0  0  0  0
 12 16  1  0  0  0  0
 12  8  1  0  0  0  0
 13 18  1  1  0  0  0
 13  2  1  0  0  0  0
 16  5  1  0  0  0  0
 17  6  1  0  0  0  0
 17 16  2  0  0  0  0
 18 10  1  0  0  0  0
 19 20  1  0  0  0  0
 20 15  2  0  0  0  0
 21 22  2  0  0  0  0
 22 23  1  0  0  0  0
 24 28  2  0  0  0  0
 24 27  1  0  0  0  0
 25 28  1  0  0  0  0
 26 29  2  0  0  0  0
 29 31  1  0  0  0  0
 29 30  1  0  0  0  0
 30 25  1  0  0  0  0
 30 22  1  1  0  0  0
 31 24  1  0  0  0  0
M  END
>  <MODEL>
3

>  <REMARK>
 VINA RESULT:      -8.6      3.046      3.906
  Name = 
  2 active torsions:
  status: ('A' for Active; 'I' for Inactive)
    1  A    between atoms: C_5  and  C_30
    2  A    between atoms: C_10  and  N_16
                            x       y       z     vdW  Elec       q    Type
                         _______ _______ _______ _____ _____    ______ ____

>  <TORSDO>
F 2

$$$$
=
 OpenBabel11122411193D

 31 35  0  0  1  0  0  0  0  0999 V2000
  192.4410  175.1620  135.7900 C   0  0  0  0  0  0  0  0  0  0  0  0
  189.5950  177.3450  137.0630 C   0  0  2  0  0  3  0  0  0  0  0  0
  188.2880  176.6180  136.8060 C   0  0  0  0  0  0  0  0  0  0  0  0
  186.9820  174.9290  135.6440 C   0  0  0  0  0  0  0  0  0  0  0  0
  190.7930  176.4260  137.0440 C   0  0  0  0  0  0  0  0  0  0  0  0
  192.9970  174.6950  136.9830 C   0  0  0  0  0  3  0  0  0  0  0  0
  188.2020  175.5680  135.8790 C   0  0  0  0  0  3  0  0  0  0  0  0
  189.6620  177.2420  139.6070 C   0  0  2  0  0  3  0  0  0  0  0  0
  192.9650  174.7750  134.6020 F   0  0  0  0  0  0  0  0  0  0  0  0
  187.1920  178.1450  138.3750 N   0  0  0  0  0  2  0  0  0  0  0  0
  186.9120  173.9080  134.7570 F   0  0  0  0  0  0  0  0  0  0  0  0
  190.8570  176.4100  139.5050 N   0  0  0  0  0  2  0  0  0  0  0  0
  189.5440  178.1580  138.3780 C   0  0  2  0  0  3  0  0  0  0  0  0
  191.3440  176.0260  135.8190 C   0  0  0  0  0  3  0  0  0  0  0  0
  185.8340  175.3420  136.3270 C   0  0  0  0  0  3  0  0  0  0  0  0
  191.3580  175.9540  138.2460 C   0  0  0  0  0  0  0  0  0  0  0  0
  192.4610  175.0960  138.2100 C   0  0  0  0  0  3  0  0  0  0  0  0
  188.3270  178.9770  138.4350 N   0  0  0  0  0  2  0  0  0  0  0  0
  187.1210  177.0520  137.4560 C   0  0  0  0  0  0  0  0  0  0  0  0
  185.9040  176.4030  137.2330 C   0  0  0  0  0  3  0  0  0  0  0  0
  189.1400  176.2740  142.2360 O   0  0  0  0  0  0  0  0  0  0  0  0
  189.4580  177.4890  142.1130 C   0  0  0  0  0  0  0  0  0  0  0  0
  189.7230  178.0400  140.8230 N   0  0  0  0  0  2  0  0  0  0  0  0
  191.1250  176.8730  145.1990 C   0  0  0  0  0  0  0  0  0  0  0  0
  191.0170  178.7270  143.6320 C   0  0  0  0  0  2  0  0  0  0  0  0
  187.6780  177.8530  144.7060 O   0  0  0  0  0  0  0  0  0  0  0  0
  191.9140  175.8470  145.9280 C   0  0  0  0  0  1  0  0  0  0  0  0
  191.7130  177.6440  144.3330 N   0  0  0  0  0  0  0  0  0  0  0  0
  188.9150  177.7380  144.5120 C   0  0  0  0  0  0  0  0  0  0  0  0
  189.5580  178.3730  143.3170 C   0  0  2  0  0  3  0  0  0  0  0  0
  189.7120  176.9590  145.4050 N   0  0  0  0  0  2  0  0  0  0  0  0
  1 14  2  0  0  0  0
  1  6  1  0  0  0  0
  2  3  1  1  0  0  0
  2 13  1  0  0  0  0
  3 19  1  0  0  0  0
  4  7  1  0  0  0  0
  4 15  2  0  0  0  0
  5  2  1  0  0  0  0
  5 16  2  0  0  0  0
  6 17  2  0  0  0  0
  7  3  2  0  0  0  0
  8 23  1  1  0  0  0
  9  1  1  0  0  0  0
 10 18  1  0  0  0  0
 11  4  1  0  0  0  0
 12  8  1  0  0  0  0
 13 18  1  1  0  0  0
 13  8  1  0  0  0  0
 14  5  1  0  0  0  0
 15 20  1  0  0  0  0
 16 12  1  0  0  0  0
 17 16  1  0  0  0  0
 19 10  1  0  0  0  0
 20 19  2  0  0  0  0
 22 21  2  0  0  0  0
 23 22  1  0  0  0  0
 24 31  1  0  0  0  0
 24 27  1  0  0  0  0
 25 28  1  0  0  0  0
 28 24  2  0  0  0  0
 29 26  2  0  0  0  0
 29 31  1  0  0  0  0
 30 22  1  6  0  0  0
 30 25  1  0  0  0  0
 30 29  1  0  0  0  0
M  END
>  <MODEL>
4

>  <REMARK>
 VINA RESULT:      -8.5      4.248      8.122
  Name = 
  2 active torsions:
  status: ('A' for Active; 'I' for Inactive)
    1  A    between atoms: C_5  and  C_30
    2  A    between atoms: C_10  and  N_16
                            x       y       z     vdW  Elec       q    Type
                         _______ _______ _______ _____ _____    ______ ____

>  <TORSDO>
F 2

$$$$
=
 OpenBabel11122411193D

 31 35  0  0  1  0  0  0  0  0999 V2000
  186.5210  178.3390  146.8610 C   0  0  0  0  0  0  0  0  0  0  0  0
  189.7020  178.2720  144.7710 C   0  0  2  0  0  3  0  0  0  0  0  0
  190.5500  177.1020  145.2340 C   0  0  0  0  0  0  0  0  0  0  0  0
  191.1480  175.4300  146.8940 C   0  0  0  0  0  0  0  0  0  0  0  0
  188.2520  178.1430  145.1710 C   0  0  0  0  0  0  0  0  0  0  0  0
  185.5710  177.8820  145.9450 C   0  0  0  0  0  3  0  0  0  0  0  0
  190.3410  176.4920  146.4820 C   0  0  0  0  0  3  0  0  0  0  0  0
  189.0490  177.4510  142.4510 C   0  0  2  0  0  3  0  0  0  0  0  0
  186.1490  178.6540  148.1250 F   0  0  0  0  0  0  0  0  0  0  0  0
  191.8570  177.3020  143.1750 N   0  0  0  0  0  2  0  0  0  0  0  0
  190.9310  174.8400  148.0940 F   0  0  0  0  0  0  0  0  0  0  0  0
  187.6580  177.4160  142.8950 N   0  0  0  0  0  2  0  0  0  0  0  0
  189.8360  178.5030  143.2480 C   0  0  2  0  0  3  0  0  0  0  0  0
  187.8580  178.4720  146.4750 C   0  0  0  0  0  3  0  0  0  0  0  0
  192.1800  174.9740  146.0680 C   0  0  0  0  0  3  0  0  0  0  0  0
  187.2890  177.6840  144.2510 C   0  0  0  0  0  0  0  0  0  0  0  0
  185.9520  177.5610  144.6400 C   0  0  0  0  0  3  0  0  0  0  0  0
  191.2490  178.5300  142.8490 N   0  0  0  0  0  2  0  0  0  0  0  0
  191.6140  176.6630  144.4300 C   0  0  0  0  0  0  0  0  0  0  0  0
  192.4120  175.5900  144.8360 C   0  0  0  0  0  3  0  0  0  0  0  0
  190.5550  176.0030  140.5130 O   0  0  0  0  0  0  0  0  0  0  0  0
  189.8700  176.9830  140.1080 C   0  0  0  0  0  0  0  0  0  0  0  0
  189.1010  177.7560  141.0280 N   0  0  0  0  0  2  0  0  0  0  0  0
  187.0740  177.6020  137.9910 C   0  0  0  0  0  0  0  0  0  0  0  0
  189.1900  178.7150  138.4320 C   0  0  0  0  0  2  0  0  0  0  0  0
  189.8050  175.2980  137.4280 O   0  0  0  0  0  0  0  0  0  0  0  0
  185.5890  177.6190  137.9740 C   0  0  0  0  0  1  0  0  0  0  0  0
  187.7260  178.6280  138.4530 N   0  0  0  0  0  0  0  0  0  0  0  0
  189.1700  176.3040  137.8360 C   0  0  0  0  0  0  0  0  0  0  0  0
  189.8570  177.3520  138.6580 C   0  0  2  0  0  3  0  0  0  0  0  0
  187.7750  176.4320  137.5600 N   0  0  0  0  0  2  0  0  0  0  0  0
  1  9  1  0  0  0  0
  2  5  1  6  0  0  0
  2  3  1  0  0  0  0
  3  7  1  0  0  0  0
  4 11  1  0  0  0  0
  5 14  2  0  0  0  0
  6  1  2  0  0  0  0
  7  4  2  0  0  0  0
  8 23  1  6  0  0  0
  8 12  1  0  0  0  0
  8 13  1  0  0  0  0
 10 19  1  0  0  0  0
 12 16  1  0  0  0  0
 13 18  1  6  0  0  0
 13  2  1  0  0  0  0
 14  1  1  0  0  0  0
 15  4  1  0  0  0  0
 16 17  2  0  0  0  0
 16  5  1  0  0  0  0
 17  6  1  0  0  0  0
 18 10  1  0  0  0  0
 19 20  1  0  0  0  0
 19  3  2  0  0  0  0
 20 15  2  0  0  0  0
 22 21  2  0  0  0  0
 22 23  1  0  0  0  0
 24 28  2  0  0  0  0
 25 28  1  0  0  0  0
 25 30  1  0  0  0  0
 26 29  2  0  0  0  0
 27 24  1  0  0  0  0
 29 30  1  0  0  0  0
 30 22  1  1  0  0  0
 31 29  1  0  0  0  0
 31 24  1  0  0  0  0
M  END
>  <MODEL>
5

>  <REMARK>
 VINA RESULT:      -8.2      1.700      4.462
  Name = 
  2 active torsions:
  status: ('A' for Active; 'I' for Inactive)
    1  A    between atoms: C_5  and  C_30
    2  A    between atoms: C_10  and  N_16
                            x       y       z     vdW  Elec       q    Type
                         _______ _______ _______ _____ _____    ______ ____

>  <TORSDO>
F 2

$$$$
=
 OpenBabel11122411193D

 31 35  0  0  1  0  0  0  0  0999 V2000
  189.2770  178.0220  143.8940 C   0  0  0  0  0  0  0  0  0  0  0  0
  186.9570  179.0060  141.0420 C   0  0  2  0  0  3  0  0  0  0  0  0
  187.3340  178.1900  139.8200 C   0  0  0  0  0  0  0  0  0  0  0  0
  188.9140  176.8270  138.5740 C   0  0  0  0  0  0  0  0  0  0  0  0
  187.4610  178.4040  142.3310 C   0  0  0  0  0  0  0  0  0  0  0  0
  188.4260  177.2670  144.7050 C   0  0  0  0  0  3  0  0  0  0  0  0
  188.5820  177.5550  139.7180 C   0  0  0  0  0  3  0  0  0  0  0  0
  184.6770  177.9970  141.5580 C   0  0  2  0  0  3  0  0  0  0  0  0
  190.5710  178.2030  144.2530 F   0  0  0  0  0  0  0  0  0  0  0  0
  185.1880  178.8010  138.8150 N   0  0  0  0  0  2  0  0  0  0  0  0
  190.1150  176.2070  138.4900 F   0  0  0  0  0  0  0  0  0  0  0  0
  185.2220  177.5030  142.8190 N   0  0  0  0  0  2  0  0  0  0  0  0
  185.4320  179.2580  141.1090 C   0  0  2  0  0  3  0  0  0  0  0  0
  188.7960  178.5910  142.7120 C   0  0  0  0  0  3  0  0  0  0  0  0
  188.0050  176.7350  137.5150 C   0  0  0  0  0  3  0  0  0  0  0  0
  186.6050  177.6420  143.1530 C   0  0  0  0  0  0  0  0  0  0  0  0
  187.0910  177.0830  144.3380 C   0  0  0  0  0  3  0  0  0  0  0  0
  184.9310  179.7530  139.8210 N   0  0  0  0  0  2  0  0  0  0  0  0
  186.4450  178.1260  138.7350 C   0  0  0  0  0  0  0  0  0  0  0  0
  186.7710  177.3850  137.5960 C   0  0  0  0  0  3  0  0  0  0  0  0
  182.5780  176.9010  139.9720 O   0  0  0  0  0  0  0  0  0  0  0  0
  182.2570  177.7000  140.8950 C   0  0  0  0  0  0  0  0  0  0  0  0
  183.2600  178.2920  141.7190 N   0  0  0  0  0  2  0  0  0  0  0  0
  180.3650  180.4210  139.5930 C   0  0  0  0  0  0  0  0  0  0  0  0
  180.0140  178.0280  139.8320 C   0  0  0  0  0  2  0  0  0  0  0  0
  180.7700  179.4680  143.0590 O   0  0  0  0  0  0  0  0  0  0  0  0
  180.4730  181.6280  138.7330 C   0  0  0  0  0  1  0  0  0  0  0  0
  180.2040  179.2520  139.0470 N   0  0  0  0  0  0  0  0  0  0  0  0
  180.6840  179.3750  141.8080 C   0  0  0  0  0  0  0  0  0  0  0  0
  180.8200  178.0420  141.1360 C   0  0  2  0  0  3  0  0  0  0  0  0
  180.5050  180.5460  141.0110 N   0  0  0  0  0  2  0  0  0  0  0  0
  1  9  1  0  0  0  0
  1  6  1  0  0  0  0
  2  3  1  6  0  0  0
  2 13  1  0  0  0  0
  2  5  1  0  0  0  0
  4  7  2  0  0  0  0
  5 14  1  0  0  0  0
  5 16  2  0  0  0  0
  7  3  1  0  0  0  0
  8 23  1  1  0  0  0
  8 12  1  0  0  0  0
 10 18  1  0  0  0  0
 11  4  1  0  0  0  0
 12 16  1  0  0  0  0
 13 18  1  6  0  0  0
 13  8  1  0  0  0  0
 14  1  2  0  0  0  0
 15 20  2  0  0  0  0
 15  4  1  0  0  0  0
 16 17  1  0  0  0  0
 17  6  2  0  0  0  0
 19 10  1  0  0  0  0
 19  3  2  0  0  0  0
 20 19  1  0  0  0  0
 21 22  2  0  0  0  0
 22 23  1  0  0  0  0
 24 31  1  0  0  0  0
 25 30  1  0  0  0  0
 27 24  1  0  0  0  0
 28 24  2  0  0  0  0
 28 25  1  0  0  0  0
 29 26  2  0  0  0  0
 30 22  1  6  0  0  0
 30 29  1  0  0  0  0
 31 29  1  0  0  0  0
M  END
>  <MODEL>
6

>  <REMARK>
 VINA RESULT:      -8.2      4.342      6.779
  Name = 
  2 active torsions:
  status: ('A' for Active; 'I' for Inactive)
    1  A    between atoms: C_5  and  C_30
    2  A    between atoms: C_10  and  N_16
                            x       y       z     vdW  Elec       q    Type
                         _______ _______ _______ _____ _____    ______ ____

>  <TORSDO>
F 2

$$$$
=
 OpenBabel11122411193D

 31 35  0  0  1  0  0  0  0  0999 V2000
  185.8340  178.2530  138.3500 C   0  0  0  0  0  0  0  0  0  0  0  0
  189.3610  178.0540  139.7680 C   0  0  2  0  0  3  0  0  0  0  0  0
  189.2800  177.4540  141.1590 C   0  0  0  0  0  0  0  0  0  0  0  0
  188.0300  176.8840  143.1640 C   0  0  0  0  0  0  0  0  0  0  0  0
  188.1390  177.7640  138.9290 C   0  0  0  0  0  0  0  0  0  0  0  0
  185.8490  177.2230  137.4070 C   0  0  0  0  0  3  0  0  0  0  0  0
  188.0740  177.4240  141.8760 C   0  0  0  0  0  3  0  0  0  0  0  0
  190.5480  176.1650  138.5410 C   0  0  2  0  0  3  0  0  0  0  0  0
  184.7110  178.9890  138.5320 F   0  0  0  0  0  0  0  0  0  0  0  0
  191.6910  177.0410  141.0630 N   0  0  0  0  0  2  0  0  0  0  0  0
  186.8590  176.8480  143.8440 F   0  0  0  0  0  0  0  0  0  0  0  0
  189.3500  175.9900  137.7260 N   0  0  0  0  0  2  0  0  0  0  0  0
  190.6500  177.6170  139.0340 C   0  0  2  0  0  3  0  0  0  0  0  0
  186.9760  178.5250  139.1080 C   0  0  0  0  0  3  0  0  0  0  0  0
  189.1950  176.3790  143.7510 C   0  0  0  0  0  3  0  0  0  0  0  0
  188.1500  176.7270  137.9750 C   0  0  0  0  0  0  0  0  0  0  0  0
  187.0070  176.4650  137.2140 C   0  0  0  0  0  3  0  0  0  0  0  0
  191.8260  177.8110  139.8900 N   0  0  0  0  0  2  0  0  0  0  0  0
  190.4520  176.9810  141.7720 C   0  0  0  0  0  0  0  0  0  0  0  0
  190.4050  176.4280  143.0550 C   0  0  0  0  0  3  0  0  0  0  0  0
  191.0190  173.6360  137.3150 O   0  0  0  0  0  0  0  0  0  0  0  0
  191.8960  174.5300  137.1640 C   0  0  0  0  0  0  0  0  0  0  0  0
  191.7270  175.8160  137.7600 N   0  0  0  0  0  2  0  0  0  0  0  0
  195.2780  174.3540  138.2640 C   0  0  0  0  0  0  0  0  0  0  0  0
  193.8460  172.9920  136.8500 C   0  0  0  0  0  2  0  0  0  0  0  0
  193.9270  176.3780  135.5870 O   0  0  0  0  0  0  0  0  0  0  0  0
  196.1350  174.5010  139.4690 C   0  0  0  0  0  1  0  0  0  0  0  0
  194.6480  173.2360  138.0530 N   0  0  0  0  0  0  0  0  0  0  0  0
  194.0690  175.4230  136.3940 C   0  0  0  0  0  0  0  0  0  0  0  0
  193.1290  174.2570  136.3610 C   0  0  2  0  0  3  0  0  0  0  0  0
  195.0990  175.4650  137.3820 N   0  0  0  0  0  2  0  0  0  0  0  0
  1  9  1  0  0  0  0
  1 14  1  0  0  0  0
  2  5  1  6  0  0  0
  2  3  1  0  0  0  0
  3 19  2  0  0  0  0
  3  7  1  0  0  0  0
  4 15  1  0  0  0  0
  4 11  1  0  0  0  0
  5 14  2  0  0  0  0
  6  1  2  0  0  0  0
  7  4  2  0  0  0  0
  8 23  1  6  0  0  0
  8 13  1  0  0  0  0
 10 19  1  0  0  0  0
 12 16  1  0  0  0  0
 12  8  1  0  0  0  0
 13  2  1  0  0  0  0
 13 18  1  1  0  0  0
 16  5  1  0  0  0  0
 17  6  1  0  0  0  0
 17 16  2  0  0  0  0
 18 10  1  0  0  0  0
 19 20  1  0  0  0  0
 20 15  2  0  0  0  0
 22 21  2  0  0  0  0
 22 23  1  0  0  0  0
 24 27  1  0  0  0  0
 25 28  1  0  0  0  0
 26 29  2  0  0  0  0
 28 24  2  0  0  0  0
 29 31  1  0  0  0  0
 30 29  1  0  0  0  0
 30 25  1  0  0  0  0
 30 22  1  1  0  0  0
 31 24  1  0  0  0  0
M  END
>  <MODEL>
7

>  <REMARK>
 VINA RESULT:      -8.1      4.151      6.661
  Name = 
  2 active torsions:
  status: ('A' for Active; 'I' for Inactive)
    1  A    between atoms: C_5  and  C_30
    2  A    between atoms: C_10  and  N_16
                            x       y       z     vdW  Elec       q    Type
                         _______ _______ _______ _____ _____    ______ ____

>  <TORSDO>
F 2

$$$$
=
 OpenBabel11122411193D

 31 35  0  0  1  0  0  0  0  0999 V2000
  186.9610  178.6020  146.8650 C   0  0  0  0  0  0  0  0  0  0  0  0
  189.8050  178.0240  144.4030 C   0  0  2  0  0  3  0  0  0  0  0  0
  190.6820  176.9100  144.9430 C   0  0  0  0  0  0  0  0  0  0  0  0
  191.4720  175.5180  146.7720 C   0  0  0  0  0  0  0  0  0  0  0  0
  188.4250  178.0370  145.0140 C   0  0  0  0  0  0  0  0  0  0  0  0
  185.8770  178.0430  146.1830 C   0  0  0  0  0  3  0  0  0  0  0  0
  190.6390  176.5330  146.2940 C   0  0  0  0  0  3  0  0  0  0  0  0
  188.8050  176.8540  142.3750 C   0  0  2  0  0  3  0  0  0  0  0  0
  186.7810  179.1450  148.0930 F   0  0  0  0  0  0  0  0  0  0  0  0
  191.6840  176.6920  142.7200 N   0  0  0  0  0  2  0  0  0  0  0  0
  191.4150  175.1520  148.0750 F   0  0  0  0  0  0  0  0  0  0  0  0
  187.4930  176.9620  143.0050 N   0  0  0  0  0  2  0  0  0  0  0  0
  189.7240  177.9860  142.8590 C   0  0  2  0  0  3  0  0  0  0  0  0
  188.2310  178.6010  146.2820 C   0  0  0  0  0  3  0  0  0  0  0  0
  192.3630  174.8780  145.9050 C   0  0  0  0  0  3  0  0  0  0  0  0
  187.3280  177.4760  144.3300 C   0  0  0  0  0  0  0  0  0  0  0  0
  186.0590  177.4860  144.9150 C   0  0  0  0  0  3  0  0  0  0  0  0
  191.0650  177.8760  142.2710 N   0  0  0  0  0  2  0  0  0  0  0  0
  191.6080  176.2890  144.0890 C   0  0  0  0  0  0  0  0  0  0  0  0
  192.4310  175.2640  144.5640 C   0  0  0  0  0  3  0  0  0  0  0  0
  187.4140  178.8850  140.9380 O   0  0  0  0  0  0  0  0  0  0  0  0
  187.9550  177.9620  140.2690 C   0  0  0  0  0  0  0  0  0  0  0  0
  188.6590  176.9090  140.9270 N   0  0  0  0  0  2  0  0  0  0  0  0
  190.1450  176.4370  137.9100 C   0  0  0  0  0  0  0  0  0  0  0  0
  187.7370  176.5270  138.2280 C   0  0  0  0  0  2  0  0  0  0  0  0
  189.0550  179.8860  138.0080 O   0  0  0  0  0  0  0  0  0  0  0  0
  191.4020  175.6530  137.8040 C   0  0  0  0  0  1  0  0  0  0  0  0
  189.0270  175.8310  138.1820 N   0  0  0  0  0  0  0  0  0  0  0  0
  189.0470  178.6370  138.1550 C   0  0  0  0  0  0  0  0  0  0  0  0
  187.8650  177.9550  138.7750 C   0  0  2  0  0  3  0  0  0  0  0  0
  190.1850  177.8610  137.7780 N   0  0  0  0  0  2  0  0  0  0  0  0
  1  9  1  0  0  0  0
  2  3  1  1  0  0  0
  2  5  1  0  0  0  0
  3  7  1  0  0  0  0
  4 11  1  0  0  0  0
  5 14  2  0  0  0  0
  6  1  2  0  0  0  0
  7  4  2  0  0  0  0
  8 23  1  6  0  0  0
  8 13  1  0  0  0  0
  8 12  1  0  0  0  0
 10 19  1  0  0  0  0
 12 16  1  0  0  0  0
 13 18  1  6  0  0  0
 13  2  1  0  0  0  0
 14  1  1  0  0  0  0
 15  4  1  0  0  0  0
 16 17  2  0  0  0  0
 16  5  1  0  0  0  0
 17  6  1  0  0  0  0
 18 10  1  0  0  0  0
 19 20  1  0  0  0  0
 19  3  2  0  0  0  0
 20 15  2  0  0  0  0
 22 23  1  0  0  0  0
 22 21  2  0  0  0  0
 24 28  2  0  0  0  0
 25 30  1  0  0  0  0
 26 29  2  0  0  0  0
 27 24  1  0  0  0  0
 28 25  1  0  0  0  0
 29 30  1  0  0  0  0
 30 22  1  1  0  0  0
 31 24  1  0  0  0  0
 31 29  1  0  0  0  0
M  END
>  <MODEL>
8

>  <REMARK>
 VINA RESULT:      -7.8      1.634      4.218
  Name = 
  2 active torsions:
  status: ('A' for Active; 'I' for Inactive)
    1  A    between atoms: C_5  and  C_30
    2  A    between atoms: C_10  and  N_16
                            x       y       z     vdW  Elec       q    Type
                         _______ _______ _______ _____ _____    ______ ____

>  <TORSDO>
F 2

$$$$
=
 OpenBabel11122411193D

 31 35  0  0  1  0  0  0  0  0999 V2000
  179.7270  178.8280  142.4450 C   0  0  0  0  0  0  0  0  0  0  0  0
  183.2170  179.2730  140.9930 C   0  0  2  0  0  3  0  0  0  0  0  0
  184.2260  178.8420  142.0410 C   0  0  0  0  0  0  0  0  0  0  0  0
  184.8300  178.3630  144.3460 C   0  0  0  0  0  0  0  0  0  0  0  0
  181.8340  178.7230  141.2460 C   0  0  0  0  0  0  0  0  0  0  0  0
  179.2740  177.7010  141.7550 C   0  0  0  0  0  3  0  0  0  0  0  0
  183.8780  178.7420  143.3970 C   0  0  0  0  0  3  0  0  0  0  0  0
  183.5490  177.4210  139.2760 C   0  0  2  0  0  3  0  0  0  0  0  0
  178.9310  179.4260  143.3630 F   0  0  0  0  0  0  0  0  0  0  0  0
  185.9290  178.7430  140.2860 N   0  0  0  0  0  2  0  0  0  0  0  0
  184.4810  178.2570  145.6510 F   0  0  0  0  0  0  0  0  0  0  0  0
  182.1770  176.9900  139.5310 N   0  0  0  0  0  2  0  0  0  0  0  0
  183.6980  178.9230  139.5650 C   0  0  2  0  0  3  0  0  0  0  0  0
  181.0020  179.3390  142.1900 C   0  0  0  0  0  3  0  0  0  0  0  0
  186.1430  178.0920  143.9500 C   0  0  0  0  0  3  0  0  0  0  0  0
  181.3720  177.5870  140.5510 C   0  0  0  0  0  0  0  0  0  0  0  0
  180.0930  177.0850  140.8040 C   0  0  0  0  0  3  0  0  0  0  0  0
  185.0790  179.3750  139.3560 N   0  0  0  0  0  2  0  0  0  0  0  0
  185.5570  178.6080  141.6590 C   0  0  0  0  0  0  0  0  0  0  0  0
  186.5060  178.2150  142.6060 C   0  0  0  0  0  3  0  0  0  0  0  0
  183.8060  174.8180  138.1450 O   0  0  0  0  0  0  0  0  0  0  0  0
  184.0060  175.8070  137.3860 C   0  0  0  0  0  0  0  0  0  0  0  0
  183.9020  177.1380  137.8930 N   0  0  0  0  0  2  0  0  0  0  0  0
  186.9410  176.8180  135.6430 C   0  0  0  0  0  0  0  0  0  0  0  0
  185.6390  174.7720  135.7960 C   0  0  0  0  0  2  0  0  0  0  0  0
  183.5000  177.4930  134.7540 O   0  0  0  0  0  0  0  0  0  0  0  0
  188.2250  177.5450  135.8180 C   0  0  0  0  0  1  0  0  0  0  0  0
  186.8490  175.5740  136.0080 N   0  0  0  0  0  0  0  0  0  0  0  0
  184.5070  176.9090  135.2310 C   0  0  0  0  0  0  0  0  0  0  0  0
  184.3580  175.6010  135.9470 C   0  0  2  0  0  3  0  0  0  0  0  0
  185.7980  177.5130  135.1370 N   0  0  0  0  0  2  0  0  0  0  0  0
  1  9  1  0  0  0  0
  2  5  1  1  0  0  0
  2  3  1  0  0  0  0
  3  7  1  0  0  0  0
  4 11  1  0  0  0  0
  5 14  2  0  0  0  0
  6  1  2  0  0  0  0
  7  4  2  0  0  0  0
  8 23  1  6  0  0  0
  8 12  1  0  0  0  0
  8 13  1  0  0  0  0
 10 19  1  0  0  0  0
 12 16  1  0  0  0  0
 13 18  1  1  0  0  0
 13  2  1  0  0  0  0
 14  1  1  0  0  0  0
 15  4  1  0  0  0  0
 16 17  2  0  0  0  0
 16  5  1  0  0  0  0
 17  6  1  0  0  0  0
 18 10  1  0  0  0  0
 19  3  2  0  0  0  0
 19 20  1  0  0  0  0
 20 15  2  0  0  0  0
 22 23  1  0  0  0  0
 22 21  2  0  0  0  0
 24 27  1  0  0  0  0
 24 28  2  0  0  0  0
 25 30  1  0  0  0  0
 25 28  1  0  0  0  0
 26 29  2  0  0  0  0
 29 30  1  0  0  0  0
 30 22  1  1  0  0  0
 31 29  1  0  0  0  0
 31 24  1  0  0  0  0
M  END
>  <MODEL>
9

>  <REMARK>
 VINA RESULT:      -7.7      4.413      6.696
  Name = 
  2 active torsions:
  status: ('A' for Active; 'I' for Inactive)
    1  A    between atoms: C_5  and  C_30
    2  A    between atoms: C_10  and  N_16
                            x       y       z     vdW  Elec       q    Type
                         _______ _______ _______ _____ _____    ______ ____

>  <TORSDO>
F 2

$$$$
