=
 OpenBabel11122411563D

 28 32  0  0  1  0  0  0  0  0999 V2000
  189.5040  177.9900  138.1290 C   0  0  0  0  0  0  0  0  0  0  0  0
  192.5300  175.8120  134.5940 F   0  0  0  0  0  0  0  0  0  0  0  0
  186.8470  174.4020  137.2190 O   0  0  0  0  0  0  0  0  0  0  0  0
  189.9940  176.5830  140.4560 N   0  0  0  0  0  0  0  0  0  0  0  0
  189.0420  173.4830  136.8050 C   0  0  2  0  0  3  0  0  0  0  0  0
  189.1850  178.6600  136.9090 N   0  0  0  0  0  2  0  0  0  0  0  0
  193.9480  176.7980  136.1880 C   0  0  0  0  0  1  0  0  0  0  0  0
  193.1110  175.5820  135.8370 C   0  0  1  0  0  0  0  0  0  0  0  0
  193.2030  173.3560  135.3920 C   0  0  1  0  0  3  0  0  0  0  0  0
  192.0390  175.3920  136.9460 C   0  0  2  0  0  3  0  0  0  0  0  0
  186.5320  177.2520  137.5940 O   0  0  0  0  0  1  0  0  0  0  0  0
  189.8920  175.6090  135.8890 C   0  0  1  0  0  3  0  0  0  0  0  0
  192.2980  172.9580  136.5470 C   0  0  0  0  0  2  0  0  0  0  0  0
  193.9710  174.4680  135.7710 O   0  0  0  0  0  0  0  0  0  0  0  0
  186.9560  177.7500  136.3600 C   0  0  2  0  0  3  0  0  0  0  0  0
  190.3330  176.8590  138.0970 C   0  0  0  0  0  0  0  0  0  0  0  0
  188.0260  174.5590  136.8020 C   0  0  0  0  0  0  0  0  0  0  0  0
  194.1200  172.2010  135.0500 C   0  0  0  0  0  1  0  0  0  0  0  0
  187.6100  176.6610  135.4970 C   0  0  0  0  0  2  0  0  0  0  0  0
  190.5550  176.1600  139.2940 C   0  0  0  0  0  3  0  0  0  0  0  0
  188.9230  178.3970  139.3350 C   0  0  0  0  0  3  0  0  0  0  0  0
  189.1900  177.6790  140.5000 C   0  0  0  0  0  3  0  0  0  0  0  0
  187.8190  179.0030  136.5410 C   0  0  0  0  0  2  0  0  0  0  0  0
  190.2350  174.1250  136.0960 C   0  0  1  0  0  3  0  0  0  0  0  0
  188.4950  175.7830  136.2650 N   0  0  0  0  0  0  0  0  0  0  0  0
  191.4150  174.0570  136.9550 N   0  0  2  0  0  0  0  0  0  0  0  0
  188.5560  172.2980  135.9940 C   0  0  0  0  0  1  0  0  0  0  0  0
  190.8910  176.3780  136.7690 C   0  0  1  0  0  3  0  0  0  0  0  0
  1 21  1  0  0  0  0
  2  8  1  0  0  0  0
  4 22  1  0  0  0  0
  5 27  1  6  0  0  0
  6  1  1  0  0  0  0
  8  7  1  1  0  0  0
  8 10  1  0  0  0  0
  9 18  1  1  0  0  0
  9 14  1  0  0  0  0
  9 13  1  0  0  0  0
 10 26  1  0  0  0  0
 12 24  1  0  0  0  0
 12 25  1  0  0  0  0
 12 28  1  0  0  0  0
 13 26  1  0  0  0  0
 14  8  1  0  0  0  0
 15 23  1  0  0  0  0
 15 11  1  0  0  0  0
 16  1  2  0  0  0  0
 16 20  1  0  0  0  0
 17  5  1  0  0  0  0
 17  3  2  0  0  0  0
 19 25  1  0  0  0  0
 19 15  1  0  0  0  0
 20  4  2  0  0  0  0
 21 22  2  0  0  0  0
 23  6  1  0  0  0  0
 24  5  1  0  0  0  0
 24 26  1  0  0  0  0
 25 17  1  0  0  0  0
 28 10  1  0  0  0  0
 28 16  1  0  0  0  0
M  END
>  <MODEL>
1

>  <REMARK>
 VINA RESULT:      -5.8      0.000      0.000
  Name = 
  0 active torsions:
  status: ('A' for Active; 'I' for Inactive)
                            x       y       z     vdW  Elec       q    Type
                         _______ _______ _______ _____ _____    ______ ____

>  <TORSDO>
F 0

$$$$
=
 OpenBabel11122411563D

 28 32  0  0  1  0  0  0  0  0999 V2000
  181.1470  179.2810  137.7310 C   0  0  0  0  0  0  0  0  0  0  0  0
  185.5470  176.8820  138.8670 F   0  0  0  0  0  0  0  0  0  0  0  0
  180.4180  178.8150  142.2050 O   0  0  0  0  0  0  0  0  0  0  0  0
  181.5670  181.9190  138.4390 N   0  0  0  0  0  0  0  0  0  0  0  0
  182.8260  178.9840  142.1330 C   0  0  2  0  0  3  0  0  0  0  0  0
  180.8980  177.9040  137.4480 N   0  0  0  0  0  2  0  0  0  0  0  0
  186.0300  178.4090  137.1480 C   0  0  0  0  0  1  0  0  0  0  0  0
  185.8490  178.2210  138.6430 C   0  0  1  0  0  0  0  0  0  0  0  0
  186.9120  178.3260  140.6480 C   0  0  1  0  0  3  0  0  0  0  0  0
  184.7030  179.1570  139.1170 C   0  0  2  0  0  3  0  0  0  0  0  0
  178.9310  178.4620  139.7510 O   0  0  0  0  0  1  0  0  0  0  0  0
  182.9700  177.7480  140.0040 C   0  0  1  0  0  3  0  0  0  0  0  0
  185.9840  179.3810  141.2290 C   0  0  0  0  0  2  0  0  0  0  0  0
  187.0650  178.5550  139.2710 O   0  0  0  0  0  0  0  0  0  0  0  0
  179.4110  177.2310  139.3000 C   0  0  2  0  0  3  0  0  0  0  0  0
  182.3340  179.6460  138.3840 C   0  0  0  0  0  0  0  0  0  0  0  0
  181.5040  178.5670  141.6150 C   0  0  0  0  0  0  0  0  0  0  0  0
  188.2620  178.4130  141.3290 C   0  0  0  0  0  1  0  0  0  0  0  0
  180.6280  176.7600  140.1100 C   0  0  0  0  0  2  0  0  0  0  0  0
  182.5140  180.9920  138.7390 C   0  0  0  0  0  3  0  0  0  0  0  0
  180.1790  180.2500  137.4480 C   0  0  0  0  0  3  0  0  0  0  0  0
  180.4140  181.5780  137.8050 C   0  0  0  0  0  3  0  0  0  0  0  0
  179.6420  177.2520  137.7860 C   0  0  0  0  0  2  0  0  0  0  0  0
  183.8060  178.3460  141.1470 C   0  0  1  0  0  3  0  0  0  0  0  0
  181.5710  177.8430  140.4000 N   0  0  0  0  0  0  0  0  0  0  0  0
  184.6700  179.3750  140.5740 N   0  0  2  0  0  0  0  0  0  0  0  0
  183.0570  178.4020  143.5140 C   0  0  0  0  0  1  0  0  0  0  0  0
  183.3410  178.5740  138.7610 C   0  0  1  0  0  3  0  0  0  0  0  0
  1 16  1  0  0  0  0
  4 20  1  0  0  0  0
  5 27  1  1  0  0  0
  6  1  1  0  0  0  0
  6 23  1  0  0  0  0
  8  7  1  6  0  0  0
  8  2  1  0  0  0  0
  8 10  1  0  0  0  0
  8 14  1  0  0  0  0
  9 13  1  0  0  0  0
  9 18  1  1  0  0  0
 10 26  1  0  0  0  0
 12 25  1  0  0  0  0
 12 24  1  0  0  0  0
 14  9  1  0  0  0  0
 15 11  1  0  0  0  0
 15 19  1  0  0  0  0
 16 20  2  0  0  0  0
 16 28  1  0  0  0  0
 17  5  1  0  0  0  0
 17  3  2  0  0  0  0
 19 25  1  0  0  0  0
 21  1  2  0  0  0  0
 21 22  1  0  0  0  0
 22  4  2  0  0  0  0
 23 15  1  0  0  0  0
 24  5  1  0  0  0  0
 25 17  1  0  0  0  0
 26 24  1  0  0  0  0
 26 13  1  0  0  0  0
 28 10  1  0  0  0  0
 28 12  1  0  0  0  0
M  END
>  <MODEL>
2

>  <REMARK>
 VINA RESULT:      -5.5      6.271      9.029
  Name = 
  0 active torsions:
  status: ('A' for Active; 'I' for Inactive)
                            x       y       z     vdW  Elec       q    Type
                         _______ _______ _______ _____ _____    ______ ____

>  <TORSDO>
F 0

$$$$
=
 OpenBabel11122411563D

 28 32  0  0  1  0  0  0  0  0999 V2000
  179.7570  179.1660  137.1550 C   0  0  0  0  0  0  0  0  0  0  0  0
  181.5370  174.6730  138.9000 F   0  0  0  0  0  0  0  0  0  0  0  0
  183.6190  180.7420  138.9890 O   0  0  0  0  0  0  0  0  0  0  0  0
  181.1200  179.6080  134.7930 N   0  0  0  0  0  0  0  0  0  0  0  0
  184.2740  178.5060  138.3540 C   0  0  2  0  0  3  0  0  0  0  0  0
  179.1160  178.9830  138.4190 N   0  0  0  0  0  2  0  0  0  0  0  0
  180.4090  174.2230  136.8880 C   0  0  0  0  0  1  0  0  0  0  0  0
  181.7100  174.6810  137.5200 C   0  0  1  0  0  0  0  0  0  0  0  0
  183.9060  174.1620  137.7830 C   0  0  1  0  0  3  0  0  0  0  0  0
  182.0330  176.1060  136.9890 C   0  0  2  0  0  3  0  0  0  0  0  0
  180.8280  181.4960  138.9130 O   0  0  0  0  0  1  0  0  0  0  0  0
  182.0560  177.5730  138.8920 C   0  0  1  0  0  3  0  0  0  0  0  0
  184.4180  175.4370  137.1290 C   0  0  0  0  0  2  0  0  0  0  0  0
  182.7170  173.7660  137.1520 O   0  0  0  0  0  0  0  0  0  0  0  0
  180.2730  180.6270  139.8540 C   0  0  2  0  0  3  0  0  0  0  0  0
  180.7840  178.2920  136.7710 C   0  0  0  0  0  0  0  0  0  0  0  0
  183.3230  179.5250  138.8510 C   0  0  0  0  0  0  0  0  0  0  0  0
  184.9440  173.0700  137.6370 C   0  0  0  0  0  1  0  0  0  0  0  0
  181.2700  179.5450  140.2940 C   0  0  0  0  0  2  0  0  0  0  0  0
  181.4650  178.5480  135.5700 C   0  0  0  0  0  3  0  0  0  0  0  0
  179.4320  180.2610  136.3470 C   0  0  0  0  0  3  0  0  0  0  0  0
  180.1250  180.4610  135.1540 C   0  0  0  0  0  3  0  0  0  0  0  0
  178.9310  180.0730  139.3650 C   0  0  0  0  0  2  0  0  0  0  0  0
  183.4920  177.1990  138.4920 C   0  0  1  0  0  3  0  0  0  0  0  0
  182.0480  179.0020  139.1780 N   0  0  0  0  0  0  0  0  0  0  0  0
  183.4310  176.5220  137.1990 N   0  0  2  0  0  0  0  0  0  0  0  0
  185.5000  178.4520  139.2450 C   0  0  0  0  0  1  0  0  0  0  0  0
  181.1850  177.1570  137.6950 C   0  0  1  0  0  3  0  0  0  0  0  0
  1  6  1  0  0  0  0
  4 22  2  0  0  0  0
  4 20  1  0  0  0  0
  5 24  1  0  0  0  0
  5 17  1  0  0  0  0
  5 27  1  1  0  0  0
  6 23  1  0  0  0  0
  8  7  1  6  0  0  0
  8  2  1  0  0  0  0
  9 18  1  6  0  0  0
 10 26  1  0  0  0  0
 10  8  1  0  0  0  0
 10 28  1  0  0  0  0
 11 15  1  0  0  0  0
 12 25  1  0  0  0  0
 13 26  1  0  0  0  0
 13  9  1  0  0  0  0
 14  8  1  0  0  0  0
 14  9  1  0  0  0  0
 15 19  1  0  0  0  0
 16  1  1  0  0  0  0
 16 28  1  0  0  0  0
 17  3  2  0  0  0  0
 17 25  1  0  0  0  0
 20 16  2  0  0  0  0
 21  1  2  0  0  0  0
 22 21  1  0  0  0  0
 23 15  1  0  0  0  0
 24 12  1  0  0  0  0
 25 19  1  0  0  0  0
 26 24  1  0  0  0  0
 28 12  1  0  0  0  0
M  END
>  <MODEL>
3

>  <REMARK>
 VINA RESULT:      -4.9      6.613      9.520
  Name = 
  0 active torsions:
  status: ('A' for Active; 'I' for Inactive)
                            x       y       z     vdW  Elec       q    Type
                         _______ _______ _______ _____ _____    ______ ____

>  <TORSDO>
F 0

$$$$
=
 OpenBabel11122411563D

 28 32  0  0  1  0  0  0  0  0999 V2000
  180.6010  177.8350  138.0450 C   0  0  0  0  0  0  0  0  0  0  0  0
  183.5730  173.7000  137.3580 F   0  0  0  0  0  0  0  0  0  0  0  0
  184.5560  179.7530  139.2490 O   0  0  0  0  0  0  0  0  0  0  0  0
  180.9640  179.3640  135.7720 N   0  0  0  0  0  0  0  0  0  0  0  0
  185.2960  178.1080  137.6430 C   0  0  2  0  0  3  0  0  0  0  0  0
  180.4810  177.0900  139.2580 N   0  0  0  0  0  2  0  0  0  0  0  0
  181.9010  173.6170  135.7090 C   0  0  0  0  0  1  0  0  0  0  0  0
  183.2500  174.1930  136.0980 C   0  0  1  0  0  0  0  0  0  0  0  0
  185.4520  174.2480  135.5440 C   0  0  1  0  0  3  0  0  0  0  0  0
  183.1350  175.7440  136.1000 C   0  0  2  0  0  3  0  0  0  0  0  0
  181.8320  179.6870  140.2180 O   0  0  0  0  0  1  0  0  0  0  0  0
  183.5850  176.4760  138.3430 C   0  0  1  0  0  3  0  0  0  0  0  0
  185.4920  175.7530  135.3280 C   0  0  0  0  0  2  0  0  0  0  0  0
  184.1970  173.7590  135.1500 O   0  0  0  0  0  0  0  0  0  0  0  0
  181.7860  178.4460  140.8560 C   0  0  2  0  0  3  0  0  0  0  0  0
  181.5550  177.4490  137.0920 C   0  0  0  0  0  0  0  0  0  0  0  0
  184.4290  178.6110  138.7310 C   0  0  0  0  0  0  0  0  0  0  0  0
  186.5350  173.5920  134.7140 C   0  0  0  0  0  1  0  0  0  0  0  0
  183.0340  177.6020  140.5570 C   0  0  0  0  0  2  0  0  0  0  0  0
  181.7230  178.2510  135.9520 C   0  0  0  0  0  3  0  0  0  0  0  0
  179.8440  178.9940  137.8460 C   0  0  0  0  0  3  0  0  0  0  0  0
  180.0350  179.7460  136.6880 C   0  0  0  0  0  3  0  0  0  0  0  0
  180.4650  177.7270  140.5660 C   0  0  0  0  0  2  0  0  0  0  0  0
  184.8320  176.6620  137.4630 C   0  0  1  0  0  3  0  0  0  0  0  0
  183.4500  177.6790  139.1550 N   0  0  0  0  0  0  0  0  0  0  0  0
  184.4320  176.4420  136.0750 N   0  0  2  0  0  0  0  0  0  0  0  0
  186.7480  178.1160  138.0820 C   0  0  0  0  0  1  0  0  0  0  0  0
  182.4300  176.2370  137.3580 C   0  0  1  0  0  3  0  0  0  0  0  0
  1  6  1  0  0  0  0
  4 20  2  0  0  0  0
  4 22  1  0  0  0  0
  5 27  1  1  0  0  0
  5 17  1  0  0  0  0
  6 23  1  0  0  0  0
  8  7  1  6  0  0  0
  8 10  1  0  0  0  0
  8  2  1  0  0  0  0
  9 18  1  6  0  0  0
 10 28  1  0  0  0  0
 11 15  1  0  0  0  0
 12 25  1  0  0  0  0
 13  9  1  0  0  0  0
 13 26  1  0  0  0  0
 14  9  1  0  0  0  0
 14  8  1  0  0  0  0
 16 28  1  0  0  0  0
 16  1  2  0  0  0  0
 17 25  1  0  0  0  0
 17  3  2  0  0  0  0
 19 15  1  0  0  0  0
 20 16  1  0  0  0  0
 21  1  1  0  0  0  0
 22 21  2  0  0  0  0
 23 15  1  0  0  0  0
 24  5  1  0  0  0  0
 24 12  1  0  0  0  0
 25 19  1  0  0  0  0
 26 10  1  0  0  0  0
 26 24  1  0  0  0  0
 28 12  1  0  0  0  0
M  END
>  <MODEL>
4

>  <REMARK>
 VINA RESULT:      -4.8      5.570      8.308
  Name = 
  0 active torsions:
  status: ('A' for Active; 'I' for Inactive)
                            x       y       z     vdW  Elec       q    Type
                         _______ _______ _______ _____ _____    ______ ____

>  <TORSDO>
F 0

$$$$
=
 OpenBabel11122411563D

 28 32  0  0  1  0  0  0  0  0999 V2000
  182.7980  177.4630  136.1460 C   0  0  0  0  0  0  0  0  0  0  0  0
  184.1550  177.2420  141.0970 F   0  0  0  0  0  0  0  0  0  0  0  0
  179.1550  175.1760  137.6470 O   0  0  0  0  0  0  0  0  0  0  0  0
  180.9840  179.5410  135.9920 N   0  0  0  0  0  0  0  0  0  0  0  0
  179.7220  176.4910  139.5910 C   0  0  2  0  0  3  0  0  0  0  0  0
  183.6680  176.3340  136.2380 N   0  0  0  0  0  2  0  0  0  0  0  0
  184.9240  179.3040  140.2720 C   0  0  0  0  0  1  0  0  0  0  0  0
  183.7390  178.5440  140.8370 C   0  0  1  0  0  0  0  0  0  0  0  0
  182.2890  178.4380  142.5830 C   0  0  1  0  0  3  0  0  0  0  0  0
  182.5910  178.5820  139.7900 C   0  0  2  0  0  3  0  0  0  0  0  0
  180.9960  175.0360  135.4220 O   0  0  0  0  0  1  0  0  0  0  0  0
  182.1430  176.3080  139.1580 C   0  0  1  0  0  3  0  0  0  0  0  0
  181.0470  178.6400  141.7300 C   0  0  0  0  0  2  0  0  0  0  0  0
  183.3500  179.1760  142.0350 O   0  0  0  0  0  0  0  0  0  0  0  0
  182.1090  174.4320  136.0100 C   0  0  2  0  0  3  0  0  0  0  0  0
  182.3670  178.0980  137.3200 C   0  0  0  0  0  0  0  0  0  0  0  0
  180.0350  175.7030  138.3790 C   0  0  0  0  0  0  0  0  0  0  0  0
  182.0150  178.9170  143.9930 C   0  0  0  0  0  1  0  0  0  0  0  0
  181.9770  174.3540  137.5380 C   0  0  0  0  0  2  0  0  0  0  0  0
  181.4370  179.1440  137.2100 C   0  0  0  0  0  3  0  0  0  0  0  0
  182.3050  177.8780  134.9040 C   0  0  0  0  0  3  0  0  0  0  0  0
  181.3970  178.9350  134.8470 C   0  0  0  0  0  3  0  0  0  0  0  0
  183.4080  175.0890  135.5310 C   0  0  0  0  0  2  0  0  0  0  0  0
  181.1010  176.7910  140.1800 C   0  0  1  0  0  3  0  0  0  0  0  0
  181.4220  175.5760  138.1240 N   0  0  0  0  0  0  0  0  0  0  0  0
  181.2680  178.2340  140.3360 N   0  0  2  0  0  0  0  0  0  0  0  0
  178.9310  175.6510  140.5750 C   0  0  0  0  0  1  0  0  0  0  0  0
  182.8440  177.5850  138.6660 C   0  0  1  0  0  3  0  0  0  0  0  0
  1  6  1  0  0  0  0
  1 16  1  0  0  0  0
  3 17  2  0  0  0  0
  4 20  1  0  0  0  0
  5 24  1  0  0  0  0
  5 27  1  1  0  0  0
  8  7  1  6  0  0  0
  8  2  1  0  0  0  0
  8 14  1  0  0  0  0
  9 18  1  1  0  0  0
 10 26  1  0  0  0  0
 10  8  1  0  0  0  0
 11 15  1  0  0  0  0
 12 24  1  0  0  0  0
 13  9  1  0  0  0  0
 14  9  1  0  0  0  0
 15 19  1  0  0  0  0
 16 28  1  0  0  0  0
 17  5  1  0  0  0  0
 19 25  1  0  0  0  0
 20 16  2  0  0  0  0
 21  1  2  0  0  0  0
 22 21  1  0  0  0  0
 22  4  2  0  0  0  0
 23 15  1  0  0  0  0
 23  6  1  0  0  0  0
 24 26  1  0  0  0  0
 25 17  1  0  0  0  0
 25 12  1  0  0  0  0
 26 13  1  0  0  0  0
 28 12  1  0  0  0  0
 28 10  1  0  0  0  0
M  END
>  <MODEL>
5

>  <REMARK>
 VINA RESULT:      -4.7      7.486      9.880
  Name = 
  0 active torsions:
  status: ('A' for Active; 'I' for Inactive)
                            x       y       z     vdW  Elec       q    Type
                         _______ _______ _______ _____ _____    ______ ____

>  <TORSDO>
F 0

$$$$
=
 OpenBabel11122411563D

 28 32  0  0  1  0  0  0  0  0999 V2000
  182.9730  177.3440  138.0620 C   0  0  0  0  0  0  0  0  0  0  0  0
  186.0410  173.2250  137.9150 F   0  0  0  0  0  0  0  0  0  0  0  0
  186.7950  179.5080  136.8480 O   0  0  0  0  0  0  0  0  0  0  0  0
  182.2910  177.8240  135.4280 N   0  0  0  0  0  0  0  0  0  0  0  0
  187.1340  177.3430  135.8330 C   0  0  2  0  0  3  0  0  0  0  0  0
  183.3950  177.1520  139.4140 N   0  0  0  0  0  2  0  0  0  0  0  0
  183.9200  172.5190  137.1920 C   0  0  0  0  0  1  0  0  0  0  0  0
  185.2270  173.1770  136.7890 C   0  0  1  0  0  0  0  0  0  0  0  0
  187.0580  172.9620  135.4620 C   0  0  1  0  0  3  0  0  0  0  0  0
  184.9090  174.5990  136.2480 C   0  0  2  0  0  3  0  0  0  0  0  0
  184.6310  179.8890  138.7280 O   0  0  0  0  0  1  0  0  0  0  0  0
  186.0240  176.1630  137.6920 C   0  0  1  0  0  3  0  0  0  0  0  0
  186.8130  174.2530  134.6960 C   0  0  0  0  0  2  0  0  0  0  0  0
  185.8240  172.3800  135.7920 O   0  0  0  0  0  0  0  0  0  0  0  0
  184.9850  179.0100  139.7530 C   0  0  2  0  0  3  0  0  0  0  0  0
  183.5690  176.5890  137.0410 C   0  0  0  0  0  0  0  0  0  0  0  0
  186.6500  178.2570  136.8910 C   0  0  0  0  0  0  0  0  0  0  0  0
  187.8530  172.0070  134.5980 C   0  0  0  0  0  1  0  0  0  0  0  0
  186.1480  178.0930  139.3450 C   0  0  0  0  0  2  0  0  0  0  0  0
  183.2090  176.8630  135.7120 C   0  0  0  0  0  3  0  0  0  0  0  0
  182.0430  178.3400  137.7450 C   0  0  0  0  0  3  0  0  0  0  0  0
  181.7050  178.5600  136.4100 C   0  0  0  0  0  3  0  0  0  0  0  0
  183.7590  178.2610  140.2830 C   0  0  0  0  0  2  0  0  0  0  0  0
  186.8380  175.9550  136.4050 C   0  0  1  0  0  3  0  0  0  0  0  0
  186.0230  177.5930  137.9740 N   0  0  0  0  0  0  0  0  0  0  0  0
  186.0050  175.2040  135.4690 N   0  0  2  0  0  0  0  0  0  0  0  0
  188.6310  177.4980  135.6480 C   0  0  0  0  0  1  0  0  0  0  0  0
  184.6380  175.5700  137.3910 C   0  0  1  0  0  3  0  0  0  0  0  0
  1  6  1  0  0  0  0
  3 17  2  0  0  0  0
  4 20  2  0  0  0  0
  4 22  1  0  0  0  0
  5 27  1  1  0  0  0
  5 24  1  0  0  0  0
  5 17  1  0  0  0  0
  6 23  1  0  0  0  0
  8  7  1  1  0  0  0
  8  2  1  0  0  0  0
  9 18  1  6  0  0  0
  9 14  1  0  0  0  0
 10  8  1  0  0  0  0
 10 28  1  0  0  0  0
 11 15  1  0  0  0  0
 12 25  1  0  0  0  0
 13  9  1  0  0  0  0
 13 26  1  0  0  0  0
 14  8  1  0  0  0  0
 15 23  1  0  0  0  0
 16 28  1  0  0  0  0
 16  1  2  0  0  0  0
 17 25  1  0  0  0  0
 19 15  1  0  0  0  0
 20 16  1  0  0  0  0
 21  1  1  0  0  0  0
 22 21  2  0  0  0  0
 24 12  1  0  0  0  0
 25 19  1  0  0  0  0
 26 10  1  0  0  0  0
 26 24  1  0  0  0  0
 28 12  1  0  0  0  0
M  END
>  <MODEL>
6

>  <REMARK>
 VINA RESULT:      -4.6      4.132      6.489
  Name = 
  0 active torsions:
  status: ('A' for Active; 'I' for Inactive)
                            x       y       z     vdW  Elec       q    Type
                         _______ _______ _______ _____ _____    ______ ____

>  <TORSDO>
F 0

$$$$
=
 OpenBabel11122411563D

 28 32  0  0  1  0  0  0  0  0999 V2000
  180.4500  176.7130  136.5810 C   0  0  0  0  0  0  0  0  0  0  0  0
  185.3400  175.2610  137.2030 F   0  0  0  0  0  0  0  0  0  0  0  0
  180.8570  177.8980  140.9620 O   0  0  0  0  0  0  0  0  0  0  0  0
  180.5580  179.4480  136.2030 N   0  0  0  0  0  0  0  0  0  0  0  0
  183.1180  178.2140  140.1740 C   0  0  2  0  0  3  0  0  0  0  0  0
  180.3850  175.3140  136.8630 N   0  0  0  0  0  2  0  0  0  0  0  0
  185.1440  176.0670  135.0040 C   0  0  0  0  0  1  0  0  0  0  0  0
  185.3470  176.4380  136.4610 C   0  0  1  0  0  0  0  0  0  0  0  0
  186.8060  177.3670  137.9340 C   0  0  1  0  0  3  0  0  0  0  0  0
  184.1950  177.3910  136.8860 C   0  0  2  0  0  3  0  0  0  0  0  0
  178.9310  176.5390  139.2870 O   0  0  0  0  0  1  0  0  0  0  0  0
  182.9820  176.2870  138.6410 C   0  0  1  0  0  3  0  0  0  0  0  0
  185.8670  178.4880  138.3540 C   0  0  0  0  0  2  0  0  0  0  0  0
  186.5980  177.0760  136.5770 O   0  0  0  0  0  0  0  0  0  0  0  0
  179.5010  175.2700  139.1680 C   0  0  2  0  0  3  0  0  0  0  0  0
  181.6740  177.3860  136.7150 C   0  0  0  0  0  0  0  0  0  0  0  0
  181.8050  177.5330  140.2160 C   0  0  0  0  0  0  0  0  0  0  0  0
  188.2390  177.8060  138.1430 C   0  0  0  0  0  1  0  0  0  0  0  0
  180.9340  175.2320  139.7200 C   0  0  0  0  0  2  0  0  0  0  0  0
  181.6950  178.7770  136.5260 C   0  0  0  0  0  3  0  0  0  0  0  0
  179.2900  177.4280  136.2640 C   0  0  0  0  0  3  0  0  0  0  0  0
  179.3670  178.8060  136.0680 C   0  0  0  0  0  3  0  0  0  0  0  0
  179.3720  174.7410  137.7370 C   0  0  0  0  0  2  0  0  0  0  0  0
  183.9420  177.3310  139.2340 C   0  0  1  0  0  3  0  0  0  0  0  0
  181.7160  176.4140  139.3510 N   0  0  0  0  0  0  0  0  0  0  0  0
  184.4590  178.1360  138.1300 N   0  0  2  0  0  0  0  0  0  0  0  0
  183.7560  178.2110  141.5490 C   0  0  0  0  0  1  0  0  0  0  0  0
  182.9090  176.6140  137.1410 C   0  0  1  0  0  3  0  0  0  0  0  0
  1 16  1  0  0  0  0
  1  6  1  0  0  0  0
  4 20  1  0  0  0  0
  5 17  1  0  0  0  0
  5 27  1  1  0  0  0
  6 23  1  0  0  0  0
  8  7  1  6  0  0  0
  8 14  1  0  0  0  0
  8 10  1  0  0  0  0
  8  2  1  0  0  0  0
  9 18  1  6  0  0  0
  9 13  1  0  0  0  0
 10 28  1  0  0  0  0
 10 26  1  0  0  0  0
 12 24  1  0  0  0  0
 12 25  1  0  0  0  0
 14  9  1  0  0  0  0
 15 11  1  0  0  0  0
 15 19  1  0  0  0  0
 16 28  1  0  0  0  0
 17  3  2  0  0  0  0
 20 16  2  0  0  0  0
 21  1  2  0  0  0  0
 22  4  2  0  0  0  0
 22 21  1  0  0  0  0
 23 15  1  0  0  0  0
 24  5  1  0  0  0  0
 25 19  1  0  0  0  0
 25 17  1  0  0  0  0
 26 13  1  0  0  0  0
 26 24  1  0  0  0  0
 28 12  1  0  0  0  0
M  END
>  <MODEL>
7

>  <REMARK>
 VINA RESULT:      -4.3      5.936      8.637
  Name = 
  0 active torsions:
  status: ('A' for Active; 'I' for Inactive)
                            x       y       z     vdW  Elec       q    Type
                         _______ _______ _______ _____ _____    ______ ____

>  <TORSDO>
F 0

$$$$
=
 OpenBabel11122411563D

 28 32  0  0  1  0  0  0  0  0999 V2000
  184.0980  176.4220  138.1530 C   0  0  0  0  0  0  0  0  0  0  0  0
  179.9400  178.0500  140.6960 F   0  0  0  0  0  0  0  0  0  0  0  0
  181.9150  178.2470  134.5940 O   0  0  0  0  0  0  0  0  0  0  0  0
  185.6880  178.6630  137.8700 N   0  0  0  0  0  0  0  0  0  0  0  0
  181.1380  179.6530  136.3970 C   0  0  2  0  0  3  0  0  0  0  0  0
  183.2380  175.2820  138.2200 N   0  0  0  0  0  2  0  0  0  0  0  0
  181.7650  178.2840  142.1570 C   0  0  0  0  0  1  0  0  0  0  0  0
  180.9850  178.9090  141.0150 C   0  0  1  0  0  0  0  0  0  0  0  0
  179.7110  180.6940  140.4240 C   0  0  1  0  0  3  0  0  0  0  0  0
  181.9530  179.1070  139.8150 C   0  0  2  0  0  3  0  0  0  0  0  0
  183.3720  175.8210  135.1900 O   0  0  0  0  0  1  0  0  0  0  0  0
  181.1030  177.7810  138.0020 C   0  0  1  0  0  3  0  0  0  0  0  0
  180.6370  181.1470  139.3060 C   0  0  0  0  0  2  0  0  0  0  0  0
  180.4780  180.1450  141.4630 O   0  0  0  0  0  0  0  0  0  0  0  0
  182.4200  175.0850  135.8990 C   0  0  2  0  0  3  0  0  0  0  0  0
  183.6140  177.6740  138.5620 C   0  0  0  0  0  0  0  0  0  0  0  0
  181.5700  178.3700  135.8000 C   0  0  0  0  0  0  0  0  0  0  0  0
  178.9310  181.8830  140.9440 C   0  0  0  0  0  1  0  0  0  0  0  0
  181.1910  175.9320  136.2570 C   0  0  0  0  0  2  0  0  0  0  0  0
  184.4420  178.7950  138.3970 C   0  0  0  0  0  3  0  0  0  0  0  0
  185.3770  176.3140  137.5980 C   0  0  0  0  0  3  0  0  0  0  0  0
  186.1680  177.4550  137.4730 C   0  0  0  0  0  3  0  0  0  0  0  0
  183.0570  174.3740  137.0980 C   0  0  0  0  0  2  0  0  0  0  0  0
  180.7110  179.2550  137.8110 C   0  0  1  0  0  3  0  0  0  0  0  0
  181.5410  177.2820  136.7050 N   0  0  0  0  0  0  0  0  0  0  0  0
  181.4560  180.0430  138.7910 N   0  0  2  0  0  0  0  0  0  0  0  0
  179.9390  180.2040  135.6500 C   0  0  0  0  0  1  0  0  0  0  0  0
  182.1940  177.7920  139.0850 C   0  0  1  0  0  3  0  0  0  0  0  0
  1  6  1  0  0  0  0
  1 16  1  0  0  0  0
  2  8  1  0  0  0  0
  3 17  2  0  0  0  0
  4 20  1  0  0  0  0
  5 27  1  6  0  0  0
  5 24  1  0  0  0  0
  8 14  1  0  0  0  0
  8  7  1  1  0  0  0
  9 18  1  1  0  0  0
  9 14  1  0  0  0  0
 10  8  1  0  0  0  0
 11 15  1  0  0  0  0
 12 28  1  0  0  0  0
 13  9  1  0  0  0  0
 15 19  1  0  0  0  0
 15 23  1  0  0  0  0
 16 28  1  0  0  0  0
 17  5  1  0  0  0  0
 17 25  1  0  0  0  0
 19 25  1  0  0  0  0
 20 16  2  0  0  0  0
 21  1  2  0  0  0  0
 22 21  1  0  0  0  0
 22  4  2  0  0  0  0
 23  6  1  0  0  0  0
 24 12  1  0  0  0  0
 24 26  1  0  0  0  0
 25 12  1  0  0  0  0
 26 13  1  0  0  0  0
 26 10  1  0  0  0  0
 28 10  1  0  0  0  0
M  END
>  <MODEL>
8

>  <REMARK>
 VINA RESULT:      -4.3      6.650     10.289
  Name = 
  0 active torsions:
  status: ('A' for Active; 'I' for Inactive)
                            x       y       z     vdW  Elec       q    Type
                         _______ _______ _______ _____ _____    ______ ____

>  <TORSDO>
F 0

$$$$
=
 OpenBabel11122411563D

 28 32  0  0  1  0  0  0  0  0999 V2000
  187.4880  177.2900  137.3750 C   0  0  0  0  0  0  0  0  0  0  0  0
  186.6430  172.2590  137.9860 F   0  0  0  0  0  0  0  0  0  0  0  0
  191.4090  175.8180  135.5800 O   0  0  0  0  0  0  0  0  0  0  0  0
  186.8830  177.8020  134.7280 N   0  0  0  0  0  0  0  0  0  0  0  0
  189.9240  173.9930  135.0350 C   0  0  2  0  0  3  0  0  0  0  0  0
  187.8850  177.0120  138.7190 N   0  0  0  0  0  2  0  0  0  0  0  0
  184.5630  173.2450  137.5130 C   0  0  0  0  0  1  0  0  0  0  0  0
  185.8480  172.6890  136.9290 C   0  0  1  0  0  0  0  0  0  0  0  0
  186.7060  171.0520  135.6070 C   0  0  1  0  0  3  0  0  0  0  0  0
  186.5390  173.8150  136.1110 C   0  0  2  0  0  3  0  0  0  0  0  0
  190.5410  177.8740  137.4190 O   0  0  0  0  0  1  0  0  0  0  0  0
  188.6690  174.2260  137.1450 C   0  0  1  0  0  3  0  0  0  0  0  0
  187.3120  172.0110  134.5940 C   0  0  0  0  0  2  0  0  0  0  0  0
  185.5110  171.5990  136.1010 O   0  0  0  0  0  0  0  0  0  0  0  0
  190.3470  177.1440  138.5930 C   0  0  2  0  0  3  0  0  0  0  0  0
  187.1750  176.2270  136.5150 C   0  0  0  0  0  0  0  0  0  0  0  0
  190.4320  175.0860  135.8930 C   0  0  0  0  0  0  0  0  0  0  0  0
  186.4160  169.7270  134.9350 C   0  0  0  0  0  1  0  0  0  0  0  0
  190.4190  175.6300  138.3430 C   0  0  0  0  0  2  0  0  0  0  0  0
  186.8820  176.5180  135.1730 C   0  0  0  0  0  3  0  0  0  0  0  0
  187.5000  178.6020  136.8900 C   0  0  0  0  0  3  0  0  0  0  0  0
  187.1820  178.8400  135.5530 C   0  0  0  0  0  3  0  0  0  0  0  0
  189.0760  177.5950  139.3180 C   0  0  0  0  0  2  0  0  0  0  0  0
  188.8440  173.3410  135.9000 C   0  0  1  0  0  3  0  0  0  0  0  0
  189.7300  175.2230  137.1160 N   0  0  0  0  0  0  0  0  0  0  0  0
  187.5730  173.3320  135.1790 N   0  0  2  0  0  0  0  0  0  0  0  0
  191.0230  172.9840  134.7630 C   0  0  0  0  0  1  0  0  0  0  0  0
  187.2480  174.8010  137.0310 C   0  0  1  0  0  3  0  0  0  0  0  0
  1  6  1  0  0  0  0
  3 17  2  0  0  0  0
  4 20  2  0  0  0  0
  4 22  1  0  0  0  0
  5 27  1  1  0  0  0
  5 17  1  0  0  0  0
  5 24  1  0  0  0  0
  6 23  1  0  0  0  0
  8  7  1  1  0  0  0
  8  2  1  0  0  0  0
  9 18  1  6  0  0  0
  9 14  1  0  0  0  0
 10  8  1  0  0  0  0
 10 28  1  0  0  0  0
 11 15  1  0  0  0  0
 13 26  1  0  0  0  0
 13  9  1  0  0  0  0
 14  8  1  0  0  0  0
 15 23  1  0  0  0  0
 16 28  1  0  0  0  0
 16  1  2  0  0  0  0
 17 25  1  0  0  0  0
 19 15  1  0  0  0  0
 20 16  1  0  0  0  0
 21  1  1  0  0  0  0
 22 21  2  0  0  0  0
 24 12  1  0  0  0  0
 25 12  1  0  0  0  0
 25 19  1  0  0  0  0
 26 24  1  0  0  0  0
 26 10  1  0  0  0  0
 28 12  1  0  0  0  0
M  END
>  <MODEL>
9

>  <REMARK>
 VINA RESULT:      -4.3      2.563      5.239
  Name = 
  0 active torsions:
  status: ('A' for Active; 'I' for Inactive)
                            x       y       z     vdW  Elec       q    Type
                         _______ _______ _______ _____ _____    ______ ____

>  <TORSDO>
F 0

$$$$
