=
 OpenBabel11122412153D

 34 41  0  0  1  0  0  0  0  0999 V2000
  184.4440  178.1350  144.5340 C   0  0  1  0  0  3  0  0  0  0  0  0
  182.3100  179.0600  143.4780 C   0  0  0  0  0  3  0  0  0  0  0  0
  191.0300  178.0420  144.3390 C   0  0  2  0  0  3  0  0  0  0  0  0
  186.8440  177.9510  145.4530 C   0  0  0  0  0  0  0  0  0  0  0  0
  188.6960  177.6270  143.8450 C   0  0  0  0  0  0  0  0  0  0  0  0
  190.7800  177.6520  142.2640 C   0  0  0  0  0  2  0  0  0  0  0  0
  191.9000  178.2430  143.1180 C   0  0  0  0  0  2  0  0  0  0  0  0
  190.3290  176.6630  146.2960 C   0  0  0  0  0  2  0  0  0  0  0  0
  184.1850  178.7010  142.1210 C   0  0  0  0  0  0  0  0  0  0  0  0
  184.3400  178.7620  139.0030 C   0  0  0  0  0  3  0  0  0  0  0  0
  187.8600  177.8160  142.8650 N   0  0  0  0  0  0  0  0  0  0  0  0
  189.1590  177.6660  146.3900 C   0  0  0  0  0  2  0  0  0  0  0  0
  185.5980  178.3450  141.8630 C   0  0  0  0  0  0  0  0  0  0  0  0
  181.8940  179.0430  142.0120 C   0  0  0  0  0  3  0  0  0  0  0  0
  188.2370  177.6480  145.2280 N   0  0  0  0  0  0  0  0  0  0  0  0
  191.5360  177.2130  145.5030 C   0  0  0  0  0  2  0  0  0  0  0  0
  183.2050  178.5670  139.8520 N   0  0  0  0  0  0  0  0  0  0  0  0
  185.9390  178.0930  144.2930 C   0  0  0  0  0  0  0  0  0  0  0  0
  190.0890  177.1940  143.5350 C   0  0  1  0  0  3  0  0  0  0  0  0
  186.4560  178.0770  143.0500 C   0  0  0  0  0  0  0  0  0  0  0  0
  184.9840  178.6620  146.8960 C   0  0  0  0  0  3  0  0  0  0  0  0
  185.6170  178.6840  139.3560 C   0  0  0  0  0  3  0  0  0  0  0  0
  186.3750  178.2190  146.6810 C   0  0  0  0  0  3  0  0  0  0  0  0
  186.1870  178.3790  140.6680 C   0  0  0  0  0  3  0  0  0  0  0  0
  183.1730  178.8040  141.2710 C   0  0  0  0  0  0  0  0  0  0  0  0
  184.0980  178.6760  145.8960 C   0  0  0  0  0  3  0  0  0  0  0  0
  183.7480  178.8460  143.4650 N   0  0  0  0  0  0  0  0  0  0  0  0
  181.9400  178.3740  139.1550 C   0  0  0  0  0  2  0  0  0  0  0  0
  181.9400  179.1290  137.9120 N   0  0  0  0  0  2  0  0  0  0  0  0
  180.9590  182.3300  137.8130 N   0  0  0  0  0  0  0  0  0  0  0  0
  180.4710  180.4850  136.5210 C   0  0  0  0  0  2  0  0  0  0  0  0
  180.7660  179.9850  137.9310 C   0  0  2  0  0  3  0  0  0  0  0  0
  180.6440  181.9550  136.6350 C   0  0  0  0  0  3  0  0  0  0  0  0
  181.0680  181.2400  138.7410 C   0  0  0  0  0  2  0  0  0  0  0  0
  1 26  1  1  0  0  0
  3  7  1  6  0  0  0
  3 16  1  0  0  0  0
  4 23  2  0  0  0  0
  5 15  1  0  0  0  0
  6  7  1  0  0  0  0
  8 12  1  0  0  0  0
  9 27  1  0  0  0  0
 10 22  2  0  0  0  0
 10 17  1  0  0  0  0
 11 20  1  0  0  0  0
 11  5  2  0  0  0  0
 13  9  1  0  0  0  0
 13 20  1  0  0  0  0
 14  2  2  0  0  0  0
 15  4  1  0  0  0  0
 15 12  1  0  0  0  0
 16  8  1  0  0  0  0
 17 25  1  0  0  0  0
 18  1  1  0  0  0  0
 18  4  1  0  0  0  0
 19  6  1  6  0  0  0
 19  5  1  0  0  0  0
 19  3  1  0  0  0  0
 20 18  2  0  0  0  0
 22 24  1  0  0  0  0
 23 21  1  0  0  0  0
 24 13  2  0  0  0  0
 25 14  1  0  0  0  0
 25  9  2  0  0  0  0
 26 21  2  0  0  0  0
 27  2  1  0  0  0  0
 27  1  1  0  0  0  0
 28 17  1  0  0  0  0
 29 28  1  0  0  0  0
 30 34  1  0  0  0  0
 31 33  1  0  0  0  0
 31 32  1  0  0  0  0
 32 29  1  6  0  0  0
 32 34  1  0  0  0  0
 33 30  2  0  0  0  0
M  END
>  <MODEL>
1

>  <REMARK>
 VINA RESULT:      -9.8      0.000      0.000
  Name = 
  3 active torsions:
  status: ('A' for Active; 'I' for Inactive)
    1  A    between atoms: N_17  and  C_28
    2  A    between atoms: C_28  and  N_29
    3  A    between atoms: N_29  and  C_32
                            x       y       z     vdW  Elec       q    Type
                         _______ _______ _______ _____ _____    ______ ____

>  <TORSDO>
F 3

$$$$
=
 OpenBabel11122412153D

 34 41  0  0  1  0  0  0  0  0999 V2000
  184.6070  178.3330  142.5740 C   0  0  1  0  0  3  0  0  0  0  0  0
  183.5950  179.2120  140.3990 C   0  0  0  0  0  3  0  0  0  0  0  0
  190.0650  177.7940  146.2250 C   0  0  2  0  0  3  0  0  0  0  0  0
  186.0170  178.1450  144.7220 C   0  0  0  0  0  0  0  0  0  0  0  0
  188.3830  177.4550  144.5160 C   0  0  0  0  0  0  0  0  0  0  0  0
  190.9740  177.0970  144.4330 C   0  0  0  0  0  2  0  0  0  0  0  0
  191.4900  177.7440  145.7170 C   0  0  0  0  0  2  0  0  0  0  0  0
  188.1960  176.7900  147.5370 C   0  0  0  0  0  2  0  0  0  0  0  0
  185.8340  178.5250  140.4140 C   0  0  0  0  0  0  0  0  0  0  0  0
  187.7230  178.0800  137.9670 C   0  0  0  0  0  3  0  0  0  0  0  0
  188.2810  177.5380  143.2210 N   0  0  0  0  0  0  0  0  0  0  0  0
  187.3340  177.8670  146.8450 C   0  0  0  0  0  2  0  0  0  0  0  0
  187.0780  178.0430  141.0530 C   0  0  0  0  0  0  0  0  0  0  0  0
  184.0780  178.9890  138.9710 C   0  0  0  0  0  3  0  0  0  0  0  0
  187.2340  177.7240  145.3710 N   0  0  0  0  0  0  0  0  0  0  0  0
  189.7030  177.1300  147.5390 C   0  0  0  0  0  2  0  0  0  0  0  0
  186.2930  178.0950  138.0200 N   0  0  0  0  0  0  0  0  0  0  0  0
  185.9530  178.1590  143.2450 C   0  0  0  0  0  0  0  0  0  0  0  0
  189.6310  176.8910  145.1080 C   0  0  1  0  0  3  0  0  0  0  0  0
  187.0710  177.9130  142.5360 C   0  0  0  0  0  0  0  0  0  0  0  0
  183.7920  179.1930  144.7520 C   0  0  0  0  0  3  0  0  0  0  0  0
  188.5540  177.9790  138.9980 C   0  0  0  0  0  3  0  0  0  0  0  0
  184.9820  178.6340  145.4220 C   0  0  0  0  0  3  0  0  0  0  0  0
  188.2360  177.8510  140.4200 C   0  0  0  0  0  3  0  0  0  0  0  0
  185.5030  178.5550  139.1300 C   0  0  0  0  0  0  0  0  0  0  0  0
  183.6350  179.1040  143.4280 C   0  0  0  0  0  3  0  0  0  0  0  0
  184.7420  178.9080  141.2380 N   0  0  0  0  0  0  0  0  0  0  0  0
  185.6280  177.8740  136.7430 C   0  0  0  0  0  2  0  0  0  0  0  0
  186.2090  176.7200  136.0750 N   0  0  0  0  0  2  0  0  0  0  0  0
  184.3860  174.3890  137.6450 N   0  0  0  0  0  0  0  0  0  0  0  0
  183.8440  176.2970  136.4720 C   0  0  0  0  0  2  0  0  0  0  0  0
  185.1400  175.7550  135.8800 C   0  0  2  0  0  3  0  0  0  0  0  0
  183.5290  175.3290  137.5530 C   0  0  0  0  0  3  0  0  0  0  0  0
  185.4440  174.4940  136.6810 C   0  0  0  0  0  2  0  0  0  0  0  0
  1 18  1  0  0  0  0
  1 26  1  1  0  0  0
  2 27  1  0  0  0  0
  3  7  1  1  0  0  0
  3 16  1  0  0  0  0
  4 15  1  0  0  0  0
  4 23  2  0  0  0  0
  5 19  1  0  0  0  0
  5 15  1  0  0  0  0
  6  7  1  0  0  0  0
  8 16  1  0  0  0  0
  9 13  1  0  0  0  0
  9 27  1  0  0  0  0
 10 17  1  0  0  0  0
 10 22  2  0  0  0  0
 11  5  2  0  0  0  0
 12  8  1  0  0  0  0
 13 20  1  0  0  0  0
 14 25  1  0  0  0  0
 14  2  2  0  0  0  0
 15 12  1  0  0  0  0
 17 25  1  0  0  0  0
 18  4  1  0  0  0  0
 19  6  1  6  0  0  0
 19  3  1  0  0  0  0
 20 11  1  0  0  0  0
 20 18  2  0  0  0  0
 21 23  1  0  0  0  0
 22 24  1  0  0  0  0
 24 13  2  0  0  0  0
 25  9  2  0  0  0  0
 26 21  2  0  0  0  0
 27  1  1  0  0  0  0
 28 17  1  0  0  0  0
 29 28  1  0  0  0  0
 31 33  1  0  0  0  0
 32 29  1  1  0  0  0
 32 31  1  0  0  0  0
 32 34  1  0  0  0  0
 33 30  2  0  0  0  0
 34 30  1  0  0  0  0
M  END
>  <MODEL>
2

>  <REMARK>
 VINA RESULT:      -9.7      2.346      3.702
  Name = 
  3 active torsions:
  status: ('A' for Active; 'I' for Inactive)
    1  A    between atoms: N_17  and  C_28
    2  A    between atoms: C_28  and  N_29
    3  A    between atoms: N_29  and  C_32
                            x       y       z     vdW  Elec       q    Type
                         _______ _______ _______ _____ _____    ______ ____

>  <TORSDO>
F 3

$$$$
=
 OpenBabel11122412153D

 34 41  0  0  1  0  0  0  0  0999 V2000
  184.5690  178.0880  144.6710 C   0  0  1  0  0  3  0  0  0  0  0  0
  182.4100  179.0100  143.6660 C   0  0  0  0  0  3  0  0  0  0  0  0
  191.1490  177.9980  144.3170 C   0  0  2  0  0  3  0  0  0  0  0  0
  186.9910  177.9060  145.5330 C   0  0  0  0  0  0  0  0  0  0  0  0
  188.8030  177.5810  143.8800 C   0  0  0  0  0  0  0  0  0  0  0  0
  190.8490  177.6050  142.2490 C   0  0  0  0  0  2  0  0  0  0  0  0
  191.9890  178.1980  143.0750 C   0  0  0  0  0  2  0  0  0  0  0  0
  190.4960  176.6220  146.2930 C   0  0  0  0  0  2  0  0  0  0  0  0
  184.2520  178.6500  142.2650 C   0  0  0  0  0  0  0  0  0  0  0  0
  184.3310  178.7060  139.1440 C   0  0  0  0  0  3  0  0  0  0  0  0
  187.9440  177.7680  142.9210 N   0  0  0  0  0  0  0  0  0  0  0  0
  189.3280  177.6240  146.4140 C   0  0  0  0  0  2  0  0  0  0  0  0
  185.6580  178.2940  141.9730 C   0  0  0  0  0  0  0  0  0  0  0  0
  181.9580  178.9910  142.2100 C   0  0  0  0  0  3  0  0  0  0  0  0
  188.3780  177.6040  145.2740 N   0  0  0  0  0  0  0  0  0  0  0  0
  191.6830  177.1710  145.4700 C   0  0  0  0  0  2  0  0  0  0  0  0
  183.2170  178.5130  140.0200 N   0  0  0  0  0  0  0  0  0  0  0  0
  186.0580  178.0460  144.3950 C   0  0  0  0  0  0  0  0  0  0  0  0
  190.1890  177.1490  143.5370 C   0  0  1  0  0  3  0  0  0  0  0  0
  186.5450  178.0280  143.1390 C   0  0  0  0  0  0  0  0  0  0  0  0
  185.1650  178.6190  147.0190 C   0  0  0  0  0  3  0  0  0  0  0  0
  185.6160  178.6300  139.4650 C   0  0  0  0  0  3  0  0  0  0  0  0
  186.5510  178.1760  146.7710 C   0  0  0  0  0  3  0  0  0  0  0  0
  186.2180  178.3270  140.7640 C   0  0  0  0  0  3  0  0  0  0  0  0
  183.2190  178.7520  141.4390 C   0  0  0  0  0  0  0  0  0  0  0  0
  184.2550  178.6310  146.0400 C   0  0  0  0  0  3  0  0  0  0  0  0
  183.8470  178.7970  143.6180 N   0  0  0  0  0  0  0  0  0  0  0  0
  181.9360  178.3180  139.3540 C   0  0  0  0  0  2  0  0  0  0  0  0
  181.7230  176.9030  139.0960 N   0  0  0  0  0  2  0  0  0  0  0  0
  179.1480  176.2200  141.1270 N   0  0  0  0  0  0  0  0  0  0  0  0
  179.5760  177.9210  139.6320 C   0  0  0  0  0  2  0  0  0  0  0  0
  180.2880  176.6750  139.1160 C   0  0  2  0  0  3  0  0  0  0  0  0
  178.9310  177.4540  140.8840 C   0  0  0  0  0  3  0  0  0  0  0  0
  179.9630  175.5850  140.1310 C   0  0  0  0  0  2  0  0  0  0  0  0
  1 26  1  1  0  0  0
  3  7  1  6  0  0  0
  3 16  1  0  0  0  0
  4 23  2  0  0  0  0
  5 15  1  0  0  0  0
  6  7  1  0  0  0  0
  8 12  1  0  0  0  0
  9 27  1  0  0  0  0
 10 22  2  0  0  0  0
 10 17  1  0  0  0  0
 11 20  1  0  0  0  0
 11  5  2  0  0  0  0
 13  9  1  0  0  0  0
 13 20  1  0  0  0  0
 14  2  2  0  0  0  0
 15  4  1  0  0  0  0
 15 12  1  0  0  0  0
 16  8  1  0  0  0  0
 17 25  1  0  0  0  0
 18  1  1  0  0  0  0
 18  4  1  0  0  0  0
 19  6  1  6  0  0  0
 19  5  1  0  0  0  0
 19  3  1  0  0  0  0
 20 18  2  0  0  0  0
 22 24  1  0  0  0  0
 23 21  1  0  0  0  0
 24 13  2  0  0  0  0
 25 14  1  0  0  0  0
 25  9  2  0  0  0  0
 26 21  2  0  0  0  0
 27  2  1  0  0  0  0
 27  1  1  0  0  0  0
 28 17  1  0  0  0  0
 29 28  1  0  0  0  0
 31 33  1  0  0  0  0
 32 29  1  1  0  0  0
 32 31  1  0  0  0  0
 32 34  1  0  0  0  0
 33 30  2  0  0  0  0
 34 30  1  0  0  0  0
M  END
>  <MODEL>
3

>  <REMARK>
 VINA RESULT:      -9.7      1.578      2.201
  Name = 
  3 active torsions:
  status: ('A' for Active; 'I' for Inactive)
    1  A    between atoms: N_17  and  C_28
    2  A    between atoms: C_28  and  N_29
    3  A    between atoms: N_29  and  C_32
                            x       y       z     vdW  Elec       q    Type
                         _______ _______ _______ _____ _____    ______ ____

>  <TORSDO>
F 3

$$$$
=
 OpenBabel11122412153D

 34 41  0  0  1  0  0  0  0  0999 V2000
  185.1330  178.8550  144.4820 C   0  0  1  0  0  3  0  0  0  0  0  0
  186.6090  178.0110  146.3880 C   0  0  0  0  0  3  0  0  0  0  0  0
  183.3130  178.0090  138.2060 C   0  0  2  0  0  3  0  0  0  0  0  0
  183.5700  178.9180  142.4340 C   0  0  0  0  0  0  0  0  0  0  0  0
  184.5640  178.6120  140.1900 C   0  0  0  0  0  0  0  0  0  0  0  0
  185.4000  177.9460  137.8010 C   0  0  0  0  0  2  0  0  0  0  0  0
  184.1530  177.4190  137.0940 C   0  0  0  0  0  2  0  0  0  0  0  0
  181.9430  179.8800  139.1270 C   0  0  0  0  0  2  0  0  0  0  0  0
  187.3670  177.7950  144.1830 C   0  0  0  0  0  0  0  0  0  0  0  0
  190.2250  177.0040  143.2030 C   0  0  0  0  0  3  0  0  0  0  0  0
  185.7030  178.3200  140.7490 N   0  0  0  0  0  0  0  0  0  0  0  0
  182.0350  179.0920  140.4510 C   0  0  0  0  0  2  0  0  0  0  0  0
  187.2390  177.8880  142.7120 C   0  0  0  0  0  0  0  0  0  0  0  0
  188.1110  177.7500  146.3790 C   0  0  0  0  0  3  0  0  0  0  0  0
  183.4080  178.9690  141.0010 N   0  0  0  0  0  0  0  0  0  0  0  0
  182.2170  179.0060  137.8820 C   0  0  0  0  0  2  0  0  0  0  0  0
  189.8130  177.5390  144.4650 N   0  0  0  0  0  0  0  0  0  0  0  0
  184.9070  178.6390  143.0000 C   0  0  0  0  0  0  0  0  0  0  0  0
  184.5050  178.7700  138.7070 C   0  0  1  0  0  3  0  0  0  0  0  0
  185.9140  178.3010  142.1720 C   0  0  0  0  0  0  0  0  0  0  0  0
  182.6640  178.8120  144.7180 C   0  0  0  0  0  3  0  0  0  0  0  0
  189.5170  176.9860  142.0800 C   0  0  0  0  0  3  0  0  0  0  0  0
  182.5180  179.0020  143.2620 C   0  0  0  0  0  3  0  0  0  0  0  0
  188.1700  177.5020  141.8390 C   0  0  0  0  0  3  0  0  0  0  0  0
  188.4540  177.6380  144.9260 C   0  0  0  0  0  0  0  0  0  0  0  0
  183.8690  178.6910  145.2850 C   0  0  0  0  0  3  0  0  0  0  0  0
  186.2190  178.0210  144.9880 N   0  0  0  0  0  0  0  0  0  0  0  0
  190.8870  177.7370  145.4290 C   0  0  0  0  0  2  0  0  0  0  0  0
  191.6810  176.5240  145.5420 N   0  0  0  0  0  2  0  0  0  0  0  0
  193.1740  175.9890  148.4920 N   0  0  0  0  0  0  0  0  0  0  0  0
  191.2780  177.1380  147.8650 C   0  0  0  0  0  2  0  0  0  0  0  0
  191.4610  175.9920  146.8760 C   0  0  2  0  0  3  0  0  0  0  0  0
  192.4310  176.9840  148.7870 C   0  0  0  0  0  3  0  0  0  0  0  0
  192.7150  175.2630  147.3440 C   0  0  0  0  0  2  0  0  0  0  0  0
  1 27  1  0  0  0  0
  1 26  1  1  0  0  0
  3  7  1  6  0  0  0
  3 19  1  0  0  0  0
  4 18  1  0  0  0  0
  4 23  2  0  0  0  0
  5 11  2  0  0  0  0
  5 15  1  0  0  0  0
  7  6  1  0  0  0  0
  8 12  1  0  0  0  0
  9 25  2  0  0  0  0
  9 27  1  0  0  0  0
 10 17  1  0  0  0  0
 11 20  1  0  0  0  0
 12 15  1  0  0  0  0
 13  9  1  0  0  0  0
 14  2  2  0  0  0  0
 15  4  1  0  0  0  0
 16  3  1  0  0  0  0
 16  8  1  0  0  0  0
 17 25  1  0  0  0  0
 17 28  1  0  0  0  0
 18  1  1  0  0  0  0
 19  6  1  6  0  0  0
 19  5  1  0  0  0  0
 20 13  1  0  0  0  0
 20 18  2  0  0  0  0
 21 26  2  0  0  0  0
 22 10  2  0  0  0  0
 23 21  1  0  0  0  0
 24 22  1  0  0  0  0
 24 13  2  0  0  0  0
 25 14  1  0  0  0  0
 27  2  1  0  0  0  0
 28 29  1  0  0  0  0
 30 33  2  0  0  0  0
 31 33  1  0  0  0  0
 32 29  1  6  0  0  0
 32 34  1  0  0  0  0
 32 31  1  0  0  0  0
 34 30  1  0  0  0  0
M  END
>  <MODEL>
4

>  <REMARK>
 VINA RESULT:      -9.5      1.943      8.966
  Name = 
  3 active torsions:
  status: ('A' for Active; 'I' for Inactive)
    1  A    between atoms: N_17  and  C_28
    2  A    between atoms: C_28  and  N_29
    3  A    between atoms: N_29  and  C_32
                            x       y       z     vdW  Elec       q    Type
                         _______ _______ _______ _____ _____    ______ ____

>  <TORSDO>
F 3

$$$$
=
 OpenBabel11122412153D

 34 41  0  0  1  0  0  0  0  0999 V2000
  184.5700  178.3240  142.5600 C   0  0  1  0  0  3  0  0  0  0  0  0
  183.5570  179.1890  140.3810 C   0  0  0  0  0  3  0  0  0  0  0  0
  190.0240  177.8280  146.2240 C   0  0  2  0  0  3  0  0  0  0  0  0
  185.9770  178.1510  144.7120 C   0  0  0  0  0  0  0  0  0  0  0  0
  188.3480  177.4730  144.5130 C   0  0  0  0  0  0  0  0  0  0  0  0
  190.9400  177.1300  144.4360 C   0  0  0  0  0  2  0  0  0  0  0  0
  191.4500  177.7850  145.7190 C   0  0  0  0  0  2  0  0  0  0  0  0
  188.1580  176.8180  147.5360 C   0  0  0  0  0  2  0  0  0  0  0  0
  185.8000  178.5150  140.4020 C   0  0  0  0  0  0  0  0  0  0  0  0
  187.6960  178.0730  137.9610 C   0  0  0  0  0  3  0  0  0  0  0  0
  188.2470  177.5520  143.2170 N   0  0  0  0  0  0  0  0  0  0  0  0
  187.2910  177.8870  146.8380 C   0  0  0  0  0  2  0  0  0  0  0  0
  187.0460  178.0430  141.0460 C   0  0  0  0  0  0  0  0  0  0  0  0
  184.0450  178.9650  138.9540 C   0  0  0  0  0  3  0  0  0  0  0  0
  187.1950  177.7390  145.3650 N   0  0  0  0  0  0  0  0  0  0  0  0
  189.6630  177.1660  147.5390 C   0  0  0  0  0  2  0  0  0  0  0  0
  186.2660  178.0800  138.0100 N   0  0  0  0  0  0  0  0  0  0  0  0
  185.9160  178.1590  143.2350 C   0  0  0  0  0  0  0  0  0  0  0  0
  189.5970  176.9190  145.1100 C   0  0  1  0  0  3  0  0  0  0  0  0
  187.0370  177.9180  142.5290 C   0  0  0  0  0  0  0  0  0  0  0  0
  183.7450  179.1860  144.7340 C   0  0  0  0  0  3  0  0  0  0  0  0
  188.5260  177.9810  138.9940 C   0  0  0  0  0  3  0  0  0  0  0  0
  184.9380  178.6360  145.4090 C   0  0  0  0  0  3  0  0  0  0  0  0
  188.2060  177.8550  140.4160 C   0  0  0  0  0  3  0  0  0  0  0  0
  185.4710  178.5400  139.1180 C   0  0  0  0  0  0  0  0  0  0  0  0
  183.5920  179.0910  143.4100 C   0  0  0  0  0  3  0  0  0  0  0  0
  184.7040  178.8940  141.2230 N   0  0  0  0  0  0  0  0  0  0  0  0
  185.6050  177.8510  136.7330 C   0  0  0  0  0  2  0  0  0  0  0  0
  185.4750  176.4230  136.4920 N   0  0  0  0  0  2  0  0  0  0  0  0
  182.7100  176.4640  134.6020 N   0  0  0  0  0  0  0  0  0  0  0  0
  183.8080  174.8040  135.7640 C   0  0  0  0  0  2  0  0  0  0  0  0
  184.0550  176.1140  136.5030 C   0  0  2  0  0  3  0  0  0  0  0  0
  182.9640  175.2140  134.6130 C   0  0  0  0  0  3  0  0  0  0  0  0
  183.3010  177.1690  135.7030 C   0  0  0  0  0  2  0  0  0  0  0  0
  1 18  1  0  0  0  0
  1 26  1  1  0  0  0
  2 27  1  0  0  0  0
  3  7  1  1  0  0  0
  3 16  1  0  0  0  0
  4 15  1  0  0  0  0
  4 23  2  0  0  0  0
  5 19  1  0  0  0  0
  5 15  1  0  0  0  0
  6  7  1  0  0  0  0
  8 16  1  0  0  0  0
  9 13  1  0  0  0  0
  9 27  1  0  0  0  0
 10 17  1  0  0  0  0
 10 22  2  0  0  0  0
 11  5  2  0  0  0  0
 12  8  1  0  0  0  0
 13 20  1  0  0  0  0
 14 25  1  0  0  0  0
 14  2  2  0  0  0  0
 15 12  1  0  0  0  0
 17 25  1  0  0  0  0
 18  4  1  0  0  0  0
 19  6  1  6  0  0  0
 19  3  1  0  0  0  0
 20 11  1  0  0  0  0
 20 18  2  0  0  0  0
 21 23  1  0  0  0  0
 22 24  1  0  0  0  0
 24 13  2  0  0  0  0
 25  9  2  0  0  0  0
 26 21  2  0  0  0  0
 27  1  1  0  0  0  0
 28 17  1  0  0  0  0
 29 28  1  0  0  0  0
 30 33  2  0  0  0  0
 30 34  1  0  0  0  0
 31 32  1  0  0  0  0
 32 29  1  6  0  0  0
 33 31  1  0  0  0  0
 34 32  1  0  0  0  0
M  END
>  <MODEL>
5

>  <REMARK>
 VINA RESULT:      -9.5      2.366      3.425
  Name = 
  3 active torsions:
  status: ('A' for Active; 'I' for Inactive)
    1  A    between atoms: N_17  and  C_28
    2  A    between atoms: C_28  and  N_29
    3  A    between atoms: N_29  and  C_32
                            x       y       z     vdW  Elec       q    Type
                         _______ _______ _______ _____ _____    ______ ____

>  <TORSDO>
F 3

$$$$
=
 OpenBabel11122412153D

 34 41  0  0  1  0  0  0  0  0999 V2000
  185.7140  177.8640  145.3350 C   0  0  1  0  0  3  0  0  0  0  0  0
  183.4300  179.0030  145.4460 C   0  0  0  0  0  3  0  0  0  0  0  0
  191.4340  177.4140  142.0950 C   0  0  2  0  0  3  0  0  0  0  0  0
  188.2390  177.4590  145.0220 C   0  0  0  0  0  0  0  0  0  0  0  0
  189.1060  177.1800  142.7220 C   0  0  0  0  0  0  0  0  0  0  0  0
  190.2240  177.2320  140.3570 C   0  0  0  0  0  2  0  0  0  0  0  0
  191.6610  177.6770  140.6230 C   0  0  0  0  0  2  0  0  0  0  0  0
  191.5850  175.9020  144.0750 C   0  0  0  0  0  2  0  0  0  0  0  0
  184.4300  178.6640  143.3560 C   0  0  0  0  0  0  0  0  0  0  0  0
  183.1410  179.0030  140.5320 C   0  0  0  0  0  3  0  0  0  0  0  0
  187.9360  177.5060  142.2550 N   0  0  0  0  0  0  0  0  0  0  0  0
  190.6880  176.9580  144.7570 C   0  0  0  0  0  2  0  0  0  0  0  0
  185.5270  178.2530  142.4510 C   0  0  0  0  0  0  0  0  0  0  0  0
  182.3870  179.1450  144.3440 C   0  0  0  0  0  3  0  0  0  0  0  0
  189.3380  177.1000  144.1580 N   0  0  0  0  0  0  0  0  0  0  0  0
  192.3380  176.4530  142.8430 C   0  0  0  0  0  2  0  0  0  0  0  0
  182.5100  178.7960  141.8000 N   0  0  0  0  0  0  0  0  0  0  0  0
  186.9200  177.7590  144.4260 C   0  0  0  0  0  0  0  0  0  0  0  0
  190.1550  176.6990  141.7750 C   0  0  1  0  0  3  0  0  0  0  0  0
  186.8050  177.8280  143.0860 C   0  0  0  0  0  0  0  0  0  0  0  0
  187.3240  178.1400  147.2010 C   0  0  0  0  0  3  0  0  0  0  0  0
  184.4240  178.8200  140.2450 C   0  0  0  0  0  3  0  0  0  0  0  0
  188.4140  177.6390  146.3400 C   0  0  0  0  0  3  0  0  0  0  0  0
  185.5020  178.3640  141.1230 C   0  0  0  0  0  3  0  0  0  0  0  0
  183.1550  178.9030  143.0810 C   0  0  0  0  0  0  0  0  0  0  0  0
  186.0840  178.2960  146.7300 C   0  0  0  0  0  3  0  0  0  0  0  0
  184.6740  178.7090  144.7540 N   0  0  0  0  0  0  0  0  0  0  0  0
  181.0550  178.7400  141.7610 C   0  0  0  0  0  2  0  0  0  0  0  0
  180.5100  180.0860  141.6830 N   0  0  0  0  0  2  0  0  0  0  0  0
  179.7240  180.7550  138.4970 N   0  0  0  0  0  0  0  0  0  0  0  0
  179.5890  178.8560  139.7940 C   0  0  0  0  0  2  0  0  0  0  0  0
  179.4190  180.0520  140.7240 C   0  0  2  0  0  3  0  0  0  0  0  0
  179.7720  179.4810  138.4600 C   0  0  0  0  0  3  0  0  0  0  0  0
  179.5030  181.2730  139.8170 C   0  0  0  0  0  2  0  0  0  0  0  0
  1 26  1  1  0  0  0
  3  7  1  6  0  0  0
  3 16  1  0  0  0  0
  4 23  2  0  0  0  0
  5 15  1  0  0  0  0
  6  7  1  0  0  0  0
  8 12  1  0  0  0  0
  9 27  1  0  0  0  0
 10 17  1  0  0  0  0
 11  5  2  0  0  0  0
 11 20  1  0  0  0  0
 13 20  1  0  0  0  0
 13  9  1  0  0  0  0
 14  2  2  0  0  0  0
 15 12  1  0  0  0  0
 15  4  1  0  0  0  0
 16  8  1  0  0  0  0
 17 25  1  0  0  0  0
 18  4  1  0  0  0  0
 18  1  1  0  0  0  0
 19  6  1  6  0  0  0
 19  3  1  0  0  0  0
 19  5  1  0  0  0  0
 20 18  2  0  0  0  0
 22 10  2  0  0  0  0
 22 24  1  0  0  0  0
 23 21  1  0  0  0  0
 24 13  2  0  0  0  0
 25  9  2  0  0  0  0
 25 14  1  0  0  0  0
 26 21  2  0  0  0  0
 27  1  1  0  0  0  0
 27  2  1  0  0  0  0
 28 17  1  0  0  0  0
 29 28  1  0  0  0  0
 30 34  1  0  0  0  0
 31 32  1  0  0  0  0
 32 29  1  1  0  0  0
 33 30  2  0  0  0  0
 33 31  1  0  0  0  0
 34 32  1  0  0  0  0
M  END
>  <MODEL>
6

>  <REMARK>
 VINA RESULT:      -9.4      1.537      2.190
  Name = 
  3 active torsions:
  status: ('A' for Active; 'I' for Inactive)
    1  A    between atoms: N_17  and  C_28
    2  A    between atoms: C_28  and  N_29
    3  A    between atoms: N_29  and  C_32
                            x       y       z     vdW  Elec       q    Type
                         _______ _______ _______ _____ _____    ______ ____

>  <TORSDO>
F 3

$$$$
=
 OpenBabel11122412153D

 34 41  0  0  1  0  0  0  0  0999 V2000
  188.4010  178.2130  139.9170 C   0  0  1  0  0  3  0  0  0  0  0  0
  186.7080  178.1190  138.0070 C   0  0  0  0  0  3  0  0  0  0  0  0
  189.5900  176.7530  146.2320 C   0  0  2  0  0  3  0  0  0  0  0  0
  189.8030  177.5800  141.9840 C   0  0  0  0  0  0  0  0  0  0  0  0
  188.7750  177.8280  144.2200 C   0  0  0  0  0  0  0  0  0  0  0  0
  187.7170  177.6860  146.6090 C   0  0  0  0  0  2  0  0  0  0  0  0
  188.5680  176.6510  147.3430 C   0  0  0  0  0  2  0  0  0  0  0  0
  191.6810  177.7380  145.2950 C   0  0  0  0  0  2  0  0  0  0  0  0
  185.9300  178.3340  140.2060 C   0  0  0  0  0  0  0  0  0  0  0  0
  183.0330  179.0020  141.1620 C   0  0  0  0  0  3  0  0  0  0  0  0
  187.6350  178.0930  143.6520 N   0  0  0  0  0  0  0  0  0  0  0  0
  191.2340  177.0570  143.9840 C   0  0  0  0  0  2  0  0  0  0  0  0
  186.0820  178.3890  141.6770 C   0  0  0  0  0  0  0  0  0  0  0  0
  185.2590  178.5950  138.0010 C   0  0  0  0  0  3  0  0  0  0  0  0
  189.9660  177.5810  143.4180 N   0  0  0  0  0  0  0  0  0  0  0  0
  191.0250  177.1240  146.5510 C   0  0  0  0  0  2  0  0  0  0  0  0
  183.6520  179.2520  139.8960 N   0  0  0  0  0  0  0  0  0  0  0  0
  188.4940  177.9490  141.4060 C   0  0  0  0  0  0  0  0  0  0  0  0
  188.8980  177.9730  145.7000 C   0  0  1  0  0  3  0  0  0  0  0  0
  187.4440  178.1430  142.2260 C   0  0  0  0  0  0  0  0  0  0  0  0
  190.5600  177.0100  139.7140 C   0  0  0  0  0  3  0  0  0  0  0  0
  183.6450  178.6790  142.2950 C   0  0  0  0  0  3  0  0  0  0  0  0
  190.7740  177.1410  141.1690 C   0  0  0  0  0  3  0  0  0  0  0  0
  185.0770  178.5060  142.5440 C   0  0  0  0  0  3  0  0  0  0  0  0
  184.8990  178.6900  139.4510 C   0  0  0  0  0  0  0  0  0  0  0  0
  189.4420  177.4560  139.1350 C   0  0  0  0  0  3  0  0  0  0  0  0
  187.0520  177.9760  139.4120 N   0  0  0  0  0  0  0  0  0  0  0  0
  182.8000  179.9100  138.9140 C   0  0  0  0  0  2  0  0  0  0  0  0
  181.4020  179.6550  139.2210 N   0  0  0  0  0  2  0  0  0  0  0  0
  180.8040  182.2300  137.1650 N   0  0  0  0  0  0  0  0  0  0  0  0
  179.4380  180.7530  138.2890 C   0  0  0  0  0  2  0  0  0  0  0  0
  180.7030  180.9250  139.1230 C   0  0  2  0  0  3  0  0  0  0  0  0
  179.6800  181.6290  137.1150 C   0  0  0  0  0  3  0  0  0  0  0  0
  181.5600  181.9150  138.3430 C   0  0  0  0  0  2  0  0  0  0  0  0
  1 26  1  6  0  0  0
  1 18  1  0  0  0  0
  2 27  1  0  0  0  0
  3 16  1  1  0  0  0
  3  7  1  0  0  0  0
  4 15  1  0  0  0  0
  5 19  1  0  0  0  0
  6  7  1  0  0  0  0
  8 16  1  0  0  0  0
  9 13  1  0  0  0  0
 10 22  2  0  0  0  0
 11  5  2  0  0  0  0
 12  8  1  0  0  0  0
 13 20  1  0  0  0  0
 13 24  2  0  0  0  0
 14  2  2  0  0  0  0
 14 25  1  0  0  0  0
 15 12  1  0  0  0  0
 15  5  1  0  0  0  0
 17 10  1  0  0  0  0
 18  4  1  0  0  0  0
 18 20  2  0  0  0  0
 19  3  1  0  0  0  0
 19  6  1  1  0  0  0
 20 11  1  0  0  0  0
 21 23  1  0  0  0  0
 22 24  1  0  0  0  0
 23  4  2  0  0  0  0
 25 17  1  0  0  0  0
 25  9  2  0  0  0  0
 26 21  2  0  0  0  0
 27  1  1  0  0  0  0
 27  9  1  0  0  0  0
 28 29  1  0  0  0  0
 28 17  1  0  0  0  0
 30 34  1  0  0  0  0
 31 32  1  0  0  0  0
 32 29  1  6  0  0  0
 33 30  2  0  0  0  0
 33 31  1  0  0  0  0
 34 32  1  0  0  0  0
M  END
>  <MODEL>
7

>  <REMARK>
 VINA RESULT:      -9.2      1.534      3.991
  Name = 
  3 active torsions:
  status: ('A' for Active; 'I' for Inactive)
    1  A    between atoms: N_17  and  C_28
    2  A    between atoms: C_28  and  N_29
    3  A    between atoms: N_29  and  C_32
                            x       y       z     vdW  Elec       q    Type
                         _______ _______ _______ _____ _____    ______ ____

>  <TORSDO>
F 3

$$$$
=
 OpenBabel11122412153D

 34 41  0  0  1  0  0  0  0  0999 V2000
  185.7650  178.2330  142.2480 C   0  0  1  0  0  3  0  0  0  0  0  0
  185.7010  178.8240  139.7640 C   0  0  0  0  0  3  0  0  0  0  0  0
  189.4830  177.8770  147.6770 C   0  0  2  0  0  3  0  0  0  0  0  0
  186.2970  178.2880  144.7690 C   0  0  0  0  0  0  0  0  0  0  0  0
  188.4760  177.3950  145.5280 C   0  0  0  0  0  0  0  0  0  0  0  0
  190.8630  176.8330  146.4420 C   0  0  0  0  0  2  0  0  0  0  0  0
  190.9760  177.6380  147.7350 C   0  0  0  0  0  2  0  0  0  0  0  0
  187.1590  177.2430  148.3290 C   0  0  0  0  0  2  0  0  0  0  0  0
  187.6840  177.9790  140.6800 C   0  0  0  0  0  0  0  0  0  0  0  0
  190.2360  177.0040  139.1670 C   0  0  0  0  0  3  0  0  0  0  0  0
  188.8450  177.2760  144.2850 N   0  0  0  0  0  0  0  0  0  0  0  0
  186.7410  178.2570  147.2430 C   0  0  0  0  0  2  0  0  0  0  0  0
  188.5530  177.5140  141.7840 C   0  0  0  0  0  0  0  0  0  0  0  0
  186.6210  178.3370  138.6500 C   0  0  0  0  0  3  0  0  0  0  0  0
  187.1460  177.8850  145.8640 N   0  0  0  0  0  0  0  0  0  0  0  0
  188.6010  177.4630  148.8390 C   0  0  0  0  0  2  0  0  0  0  0  0
  188.8930  177.1350  138.6910 N   0  0  0  0  0  0  0  0  0  0  0  0
  186.7570  178.0680  143.3810 C   0  0  0  0  0  0  0  0  0  0  0  0
  189.3540  176.8410  146.6000 C   0  0  1  0  0  3  0  0  0  0  0  0
  188.0110  177.6260  143.1660 C   0  0  0  0  0  0  0  0  0  0  0  0
  184.3580  179.4930  143.8550 C   0  0  0  0  0  3  0  0  0  0  0  0
  190.6330  177.0070  140.4340 C   0  0  0  0  0  3  0  0  0  0  0  0
  185.1560  178.9610  144.9770 C   0  0  0  0  0  3  0  0  0  0  0  0
  189.8240  177.1350  141.6460 C   0  0  0  0  0  3  0  0  0  0  0  0
  187.8300  177.8280  139.3700 C   0  0  0  0  0  0  0  0  0  0  0  0
  184.6640  179.2030  142.5870 C   0  0  0  0  0  3  0  0  0  0  0  0
  186.4330  178.5720  140.9940 N   0  0  0  0  0  0  0  0  0  0  0  0
  188.6940  176.7620  137.2970 C   0  0  0  0  0  2  0  0  0  0  0  0
  189.2190  175.4260  137.0630 N   0  0  0  0  0  2  0  0  0  0  0  0
  187.3260  172.6660  136.9550 N   0  0  0  0  0  0  0  0  0  0  0  0
  186.8480  174.9170  136.8370 C   0  0  0  0  0  2  0  0  0  0  0  0
  188.2430  174.7180  136.2530 C   0  0  2  0  0  3  0  0  0  0  0  0
  186.4400  173.5430  137.2240 C   0  0  0  0  0  3  0  0  0  0  0  0
  188.5000  173.2190  136.3440 C   0  0  0  0  0  2  0  0  0  0  0  0
  1 26  1  1  0  0  0
  1 18  1  0  0  0  0
  2 27  1  0  0  0  0
  3  7  1  1  0  0  0
  3 16  1  0  0  0  0
  4 23  2  0  0  0  0
  4 15  1  0  0  0  0
  5 15  1  0  0  0  0
  5 19  1  0  0  0  0
  6  7  1  0  0  0  0
  8 16  1  0  0  0  0
  9 27  1  0  0  0  0
  9 13  1  0  0  0  0
 10 22  2  0  0  0  0
 11  5  2  0  0  0  0
 12  8  1  0  0  0  0
 13 20  1  0  0  0  0
 14 25  1  0  0  0  0
 14  2  2  0  0  0  0
 15 12  1  0  0  0  0
 17 10  1  0  0  0  0
 17 25  1  0  0  0  0
 18  4  1  0  0  0  0
 19  6  1  6  0  0  0
 19  3  1  0  0  0  0
 20 18  2  0  0  0  0
 20 11  1  0  0  0  0
 21 23  1  0  0  0  0
 22 24  1  0  0  0  0
 24 13  2  0  0  0  0
 25  9  2  0  0  0  0
 26 21  2  0  0  0  0
 27  1  1  0  0  0  0
 28 17  1  0  0  0  0
 29 28  1  0  0  0  0
 30 33  2  0  0  0  0
 31 33  1  0  0  0  0
 32 34  1  0  0  0  0
 32 31  1  0  0  0  0
 32 29  1  1  0  0  0
 34 30  1  0  0  0  0
M  END
>  <MODEL>
8

>  <REMARK>
 VINA RESULT:      -9.1      3.133      5.520
  Name = 
  3 active torsions:
  status: ('A' for Active; 'I' for Inactive)
    1  A    between atoms: N_17  and  C_28
    2  A    between atoms: C_28  and  N_29
    3  A    between atoms: N_29  and  C_32
                            x       y       z     vdW  Elec       q    Type
                         _______ _______ _______ _____ _____    ______ ____

>  <TORSDO>
F 3

$$$$
=
 OpenBabel11122412153D

 34 41  0  0  1  0  0  0  0  0999 V2000
  186.8560  177.9090  141.6820 C   0  0  1  0  0  3  0  0  0  0  0  0
  187.3740  178.4290  139.2360 C   0  0  0  0  0  3  0  0  0  0  0  0
  189.0640  178.0990  147.8870 C   0  0  2  0  0  3  0  0  0  0  0  0
  186.7120  178.0830  144.2490 C   0  0  0  0  0  0  0  0  0  0  0  0
  188.7000  177.4570  145.5810 C   0  0  0  0  0  0  0  0  0  0  0  0
  190.8150  177.1860  147.0980 C   0  0  0  0  0  2  0  0  0  0  0  0
  190.5080  178.0290  148.3350 C   0  0  0  0  0  2  0  0  0  0  0  0
  186.7280  177.2260  147.9610 C   0  0  0  0  0  2  0  0  0  0  0  0
  189.1300  177.8340  140.6670 C   0  0  0  0  0  0  0  0  0  0  0  0
  192.0700  177.1120  139.9040 C   0  0  0  0  0  3  0  0  0  0  0  0
  189.3870  177.3500  144.4800 N   0  0  0  0  0  0  0  0  0  0  0  0
  186.5030  178.1610  146.7530 C   0  0  0  0  0  2  0  0  0  0  0  0
  189.7270  177.4950  141.9780 C   0  0  0  0  0  0  0  0  0  0  0  0
  188.5950  178.0220  138.4180 C   0  0  0  0  0  3  0  0  0  0  0  0
  187.2850  177.8040  145.5430 N   0  0  0  0  0  0  0  0  0  0  0  0
  187.9600  177.6180  148.8080 C   0  0  0  0  0  2  0  0  0  0  0  0
  190.8900  177.0820  139.0970 N   0  0  0  0  0  0  0  0  0  0  0  0
  187.5330  177.8820  143.0370 C   0  0  0  0  0  0  0  0  0  0  0  0
  189.3230  177.0300  146.8680 C   0  0  1  0  0  3  0  0  0  0  0  0
  188.8390  177.5780  143.1690 C   0  0  0  0  0  0  0  0  0  0  0  0
  184.9610  179.0420  142.8120 C   0  0  0  0  0  3  0  0  0  0  0  0
  192.1250  177.1910  141.2280 C   0  0  0  0  0  3  0  0  0  0  0  0
  185.4930  178.6290  144.1250 C   0  0  0  0  0  3  0  0  0  0  0  0
  191.0220  177.2560  142.1870 C   0  0  0  0  0  3  0  0  0  0  0  0
  189.6230  177.6680  139.4480 C   0  0  0  0  0  0  0  0  0  0  0  0
  185.6120  178.7580  141.6800 C   0  0  0  0  0  3  0  0  0  0  0  0
  187.7860  178.2910  140.6230 N   0  0  0  0  0  0  0  0  0  0  0  0
  191.0960  176.6560  137.7190 C   0  0  0  0  0  2  0  0  0  0  0  0
  192.5120  176.7040  137.3930 N   0  0  0  0  0  2  0  0  0  0  0  0
  194.8660  174.4010  136.7780 N   0  0  0  0  0  0  0  0  0  0  0  0
  192.6620  174.2730  137.4410 C   0  0  0  0  0  2  0  0  0  0  0  0
  192.8070  175.5300  136.5900 C   0  0  2  0  0  3  0  0  0  0  0  0
  194.0350  173.7070  137.4540 C   0  0  0  0  0  3  0  0  0  0  0  0
  194.2720  175.5570  136.1700 C   0  0  0  0  0  2  0  0  0  0  0  0
  1 26  1  1  0  0  0
  1 18  1  0  0  0  0
  2 27  1  0  0  0  0
  3  7  1  1  0  0  0
  3 16  1  0  0  0  0
  4 15  1  0  0  0  0
  5 19  1  0  0  0  0
  6  7  1  0  0  0  0
  8 16  1  0  0  0  0
  9 13  1  0  0  0  0
 10 22  2  0  0  0  0
 11  5  2  0  0  0  0
 12  8  1  0  0  0  0
 13 24  2  0  0  0  0
 13 20  1  0  0  0  0
 14  2  2  0  0  0  0
 14 25  1  0  0  0  0
 15  5  1  0  0  0  0
 15 12  1  0  0  0  0
 17 25  1  0  0  0  0
 17 10  1  0  0  0  0
 18 20  2  0  0  0  0
 18  4  1  0  0  0  0
 19  6  1  6  0  0  0
 19  3  1  0  0  0  0
 20 11  1  0  0  0  0
 21 23  1  0  0  0  0
 22 24  1  0  0  0  0
 23  4  2  0  0  0  0
 25  9  2  0  0  0  0
 26 21  2  0  0  0  0
 27  9  1  0  0  0  0
 27  1  1  0  0  0  0
 28 17  1  0  0  0  0
 29 28  1  0  0  0  0
 30 33  2  0  0  0  0
 31 33  1  0  0  0  0
 32 29  1  1  0  0  0
 32 31  1  0  0  0  0
 34 32  1  0  0  0  0
 34 30  1  0  0  0  0
M  END
>  <MODEL>
9

>  <REMARK>
 VINA RESULT:      -9.0      3.652      7.488
  Name = 
  3 active torsions:
  status: ('A' for Active; 'I' for Inactive)
    1  A    between atoms: N_17  and  C_28
    2  A    between atoms: C_28  and  N_29
    3  A    between atoms: N_29  and  C_32
                            x       y       z     vdW  Elec       q    Type
                         _______ _______ _______ _____ _____    ______ ____

>  <TORSDO>
F 3

$$$$
