=
 OpenBabel11122410303D

 30 35  0  0  1  0  0  0  0  0999 V2000
  189.0550  177.4200  143.2830 C   0  0  0  0  0  0  0  0  0  0  0  0
  191.1130  176.5080  144.3730 C   0  0  0  0  0  0  0  0  0  0  0  0
  187.2000  178.0060  146.9920 N   0  0  0  0  0  2  0  0  0  0  0  0
  187.7370  177.9510  143.4120 C   0  0  0  0  0  0  0  0  0  0  0  0
  189.5990  177.2970  142.0420 N   0  0  0  0  0  0  0  0  0  0  0  0
  187.0170  178.6540  139.8410 O   0  0  0  0  0  1  0  0  0  0  0  0
  184.6580  178.1420  142.9050 C   0  0  1  0  0  3  0  0  0  0  0  0
  187.6740  178.2420  140.9970 C   0  0  0  0  0  0  0  0  0  0  0  0
  184.6570  178.0460  144.4350 C   0  0  2  0  0  3  0  0  0  0  0  0
  185.9150  178.5640  146.5670 C   0  0  1  0  0  3  0  0  0  0  0  0
  188.9520  177.6820  140.9130 C   0  0  0  0  0  0  0  0  0  0  0  0
  187.0620  178.3920  142.2510 C   0  0  0  0  0  0  0  0  0  0  0  0
  191.8010  176.1820  145.5450 C   0  0  0  0  0  3  0  0  0  0  0  0
  183.4550  178.8500  144.8910 C   0  0  0  0  0  2  0  0  0  0  0  0
  183.2770  178.6280  142.4990 C   0  0  0  0  0  2  0  0  0  0  0  0
  191.7540  176.2890  143.1580 O   0  0  0  0  0  1  0  0  0  0  0  0
  187.9250  177.7370  145.8080 C   0  0  0  0  0  0  0  0  0  0  0  0
  191.2140  176.3760  146.7940 C   0  0  0  0  0  3  0  0  0  0  0  0
  189.8000  177.0420  144.4400 C   0  0  0  0  0  0  0  0  0  0  0  0
  187.1890  178.0460  144.7060 C   0  0  0  0  0  0  0  0  0  0  0  0
  185.8240  180.0120  147.0140 C   0  0  0  0  0  1  0  0  0  0  0  0
  185.8890  178.4960  145.0960 N   0  0  0  0  0  0  0  0  0  0  0  0
  182.4560  178.7260  143.7670 C   0  0  0  0  0  2  0  0  0  0  0  0
  185.7860  180.2990  142.9370 O   0  0  0  0  0  1  0  0  0  0  0  0
  189.9250  176.8970  146.8850 C   0  0  0  0  0  3  0  0  0  0  0  0
  189.2170  177.2270  145.7250 C   0  0  0  0  0  0  0  0  0  0  0  0
  185.7190  179.0560  142.3000 C   0  0  2  0  0  3  0  0  0  0  0  0
  189.6160  177.4890  139.5920 C   0  0  0  0  0  2  0  0  0  0  0  0
  191.5990  176.4130  138.5770 C   0  0  0  0  0  1  0  0  0  0  0  0
  191.0800  177.1500  139.7930 C   0  0  0  0  0  2  0  0  0  0  0  0
  1  4  1  0  0  0  0
  1 19  1  0  0  0  0
  2 19  2  0  0  0  0
  2 13  1  0  0  0  0
  4 20  1  0  0  0  0
  5  1  2  0  0  0  0
  6  8  1  0  0  0  0
  7 15  1  1  0  0  0
  7  9  1  0  0  0  0
  8 12  1  0  0  0  0
  9 14  1  1  0  0  0
  9 22  1  0  0  0  0
 10  3  1  0  0  0  0
 10 21  1  6  0  0  0
 11  8  2  0  0  0  0
 11  5  1  0  0  0  0
 12 27  1  0  0  0  0
 12  4  2  0  0  0  0
 13 18  2  0  0  0  0
 15 23  1  0  0  0  0
 16  2  1  0  0  0  0
 17  3  1  0  0  0  0
 18 25  1  0  0  0  0
 19 26  1  0  0  0  0
 20 22  1  0  0  0  0
 20 17  2  0  0  0  0
 22 10  1  0  0  0  0
 23 14  1  0  0  0  0
 26 17  1  0  0  0  0
 26 25  2  0  0  0  0
 27  7  1  0  0  0  0
 27 24  1  1  0  0  0
 28 30  1  0  0  0  0
 28 11  1  0  0  0  0
 29 30  1  0  0  0  0
M  END
>  <MODEL>
1

>  <REMARK>
 VINA RESULT:     -10.3      0.000      0.000
  Name = 
  2 active torsions:
  status: ('A' for Active; 'I' for Inactive)
    1  A    between atoms: C_11  and  C_28
    2  A    between atoms: C_28  and  C_30
                            x       y       z     vdW  Elec       q    Type
                         _______ _______ _______ _____ _____    ______ ____

>  <TORSDO>
F 2

$$$$
=
 OpenBabel11122410303D

 30 35  0  0  1  0  0  0  0  0999 V2000
  187.2280  178.0990  144.9670 C   0  0  0  0  0  0  0  0  0  0  0  0
  186.7010  178.4610  147.3850 C   0  0  0  0  0  0  0  0  0  0  0  0
  191.1360  176.8910  145.8700 N   0  0  0  0  0  2  0  0  0  0  0  0
  188.1710  177.7230  143.9650 C   0  0  0  0  0  0  0  0  0  0  0  0
  185.9660  178.4420  144.5910 N   0  0  0  0  0  0  0  0  0  0  0  0
  186.0010  177.9800  140.9670 O   0  0  0  0  0  1  0  0  0  0  0  0
  189.8810  178.0470  141.3680 C   0  0  1  0  0  3  0  0  0  0  0  0
  186.4320  178.0210  142.2900 C   0  0  0  0  0  0  0  0  0  0  0  0
  191.0020  177.7780  142.3770 C   0  0  2  0  0  3  0  0  0  0  0  0
  191.6510  176.6170  144.5280 C   0  0  1  0  0  3  0  0  0  0  0  0
  185.5510  178.4190  143.2990 C   0  0  0  0  0  0  0  0  0  0  0  0
  187.7470  177.6570  142.6180 C   0  0  0  0  0  0  0  0  0  0  0  0
  187.1150  178.4110  148.7200 C   0  0  0  0  0  3  0  0  0  0  0  0
  192.0800  177.0480  141.6010 C   0  0  0  0  0  2  0  0  0  0  0  0
  190.4810  177.8490  139.9870 C   0  0  0  0  0  2  0  0  0  0  0  0
  185.4020  178.8770  147.1210 O   0  0  0  0  0  1  0  0  0  0  0  0
  189.8050  177.3390  145.6980 C   0  0  0  0  0  0  0  0  0  0  0  0
  188.4050  178.0020  149.0520 C   0  0  0  0  0  3  0  0  0  0  0  0
  187.5960  178.0950  146.3460 C   0  0  0  0  0  0  0  0  0  0  0  0
  189.4760  177.3940  144.3800 C   0  0  0  0  0  0  0  0  0  0  0  0
  191.9090  175.1280  144.3850 C   0  0  0  0  0  1  0  0  0  0  0  0
  190.6050  177.0330  143.5790 N   0  0  0  0  0  0  0  0  0  0  0  0
  191.9540  177.5590  140.1860 C   0  0  0  0  0  2  0  0  0  0  0  0
  188.9440  175.8190  141.6580 O   0  0  0  0  0  1  0  0  0  0  0  0
  189.3020  177.6420  148.0480 C   0  0  0  0  0  3  0  0  0  0  0  0
  188.9110  177.6870  146.7070 C   0  0  0  0  0  0  0  0  0  0  0  0
  188.6370  177.1750  141.5120 C   0  0  2  0  0  3  0  0  0  0  0  0
  184.1560  178.8340  142.9760 C   0  0  0  0  0  2  0  0  0  0  0  0
  181.8630  178.8320  143.9050 C   0  0  0  0  0  1  0  0  0  0  0  0
  183.3340  178.9230  144.2480 C   0  0  0  0  0  2  0  0  0  0  0  0
  1 19  1  0  0  0  0
  2 13  1  0  0  0  0
  4 20  1  0  0  0  0
  4  1  2  0  0  0  0
  5  1  1  0  0  0  0
  6  8  1  0  0  0  0
  7 15  1  6  0  0  0
  7 27  1  0  0  0  0
  7  9  1  0  0  0  0
  8 12  2  0  0  0  0
  8 11  1  0  0  0  0
  9 14  1  6  0  0  0
  9 22  1  0  0  0  0
 10 21  1  1  0  0  0
 10  3  1  0  0  0  0
 11  5  2  0  0  0  0
 12  4  1  0  0  0  0
 13 18  2  0  0  0  0
 15 23  1  0  0  0  0
 16  2  1  0  0  0  0
 17  3  1  0  0  0  0
 17 26  1  0  0  0  0
 19 26  1  0  0  0  0
 19  2  2  0  0  0  0
 20 17  2  0  0  0  0
 22 20  1  0  0  0  0
 22 10  1  0  0  0  0
 23 14  1  0  0  0  0
 25 18  1  0  0  0  0
 26 25  2  0  0  0  0
 27 24  1  1  0  0  0
 27 12  1  0  0  0  0
 28 11  1  0  0  0  0
 28 30  1  0  0  0  0
 29 30  1  0  0  0  0
M  END
>  <MODEL>
2

>  <REMARK>
 VINA RESULT:      -9.2      1.771      5.780
  Name = 
  2 active torsions:
  status: ('A' for Active; 'I' for Inactive)
    1  A    between atoms: C_11  and  C_28
    2  A    between atoms: C_28  and  C_30
                            x       y       z     vdW  Elec       q    Type
                         _______ _______ _______ _____ _____    ______ ____

>  <TORSDO>
F 2

$$$$
=
 OpenBabel11122410303D

 30 35  0  0  1  0  0  0  0  0999 V2000
  187.8700  177.8170  142.3930 C   0  0  0  0  0  0  0  0  0  0  0  0
  189.3050  177.3730  144.3930 C   0  0  0  0  0  0  0  0  0  0  0  0
  184.4630  178.2820  144.7850 N   0  0  0  0  0  2  0  0  0  0  0  0
  186.5800  178.1020  141.8530 C   0  0  0  0  0  0  0  0  0  0  0  0
  188.9330  177.7190  141.5490 N   0  0  0  0  0  0  0  0  0  0  0  0
  187.4850  178.4330  138.2710 O   0  0  0  0  0  1  0  0  0  0  0  0
  184.0810  177.6870  140.0230 C   0  0  1  0  0  3  0  0  0  0  0  0
  187.5900  178.2240  139.6430 C   0  0  0  0  0  0  0  0  0  0  0  0
  183.3930  177.6890  141.3920 C   0  0  2  0  0  3  0  0  0  0  0  0
  183.4520  178.5640  143.7650 C   0  0  1  0  0  3  0  0  0  0  0  0
  188.8270  177.9060  140.2090 C   0  0  0  0  0  0  0  0  0  0  0  0
  186.4580  178.3370  140.4650 C   0  0  0  0  0  0  0  0  0  0  0  0
  189.4180  177.2540  145.7810 C   0  0  0  0  0  3  0  0  0  0  0  0
  182.0190  178.2820  141.1560 C   0  0  0  0  0  2  0  0  0  0  0  0
  182.9870  177.8820  138.9860 C   0  0  0  0  0  2  0  0  0  0  0  0
  190.4530  177.2010  143.6280 O   0  0  0  0  0  1  0  0  0  0  0  0
  185.6790  178.0780  144.0910 C   0  0  0  0  0  0  0  0  0  0  0  0
  188.3040  177.4150  146.6030 C   0  0  0  0  0  3  0  0  0  0  0  0
  188.0470  177.6580  143.8010 C   0  0  0  0  0  0  0  0  0  0  0  0
  185.4950  178.1750  142.7470 C   0  0  0  0  0  0  0  0  0  0  0  0
  182.9700  179.9950  143.9180 C   0  0  0  0  0  1  0  0  0  0  0  0
  184.1120  178.3990  142.4580 N   0  0  0  0  0  0  0  0  0  0  0  0
  181.6710  177.9050  139.7370 C   0  0  0  0  0  2  0  0  0  0  0  0
  184.7620  180.0130  140.2450 O   0  0  0  0  0  1  0  0  0  0  0  0
  187.0590  177.6920  146.0440 C   0  0  0  0  0  3  0  0  0  0  0  0
  186.9220  177.8120  144.6580 C   0  0  0  0  0  0  0  0  0  0  0  0
  185.1650  178.7420  139.8240 C   0  0  2  0  0  3  0  0  0  0  0  0
  190.0420  177.7570  139.3570 C   0  0  0  0  0  2  0  0  0  0  0  0
  192.3370  177.4440  140.2250 C   0  0  0  0  0  1  0  0  0  0  0  0
  191.0020  176.7700  139.9910 C   0  0  0  0  0  2  0  0  0  0  0  0
  1 19  1  0  0  0  0
  2 13  1  0  0  0  0
  4  1  1  0  0  0  0
  4 20  1  0  0  0  0
  5  1  2  0  0  0  0
  6  8  1  0  0  0  0
  7 15  1  6  0  0  0
  7  9  1  0  0  0  0
  8 11  2  0  0  0  0
  8 12  1  0  0  0  0
  9 14  1  6  0  0  0
  9 22  1  0  0  0  0
 10 21  1  1  0  0  0
 10  3  1  0  0  0  0
 11  5  1  0  0  0  0
 12  4  2  0  0  0  0
 13 18  2  0  0  0  0
 15 23  1  0  0  0  0
 16  2  1  0  0  0  0
 17 26  1  0  0  0  0
 17  3  1  0  0  0  0
 19  2  2  0  0  0  0
 19 26  1  0  0  0  0
 20 17  2  0  0  0  0
 22 20  1  0  0  0  0
 22 10  1  0  0  0  0
 23 14  1  0  0  0  0
 25 18  1  0  0  0  0
 26 25  2  0  0  0  0
 27  7  1  0  0  0  0
 27 24  1  1  0  0  0
 27 12  1  0  0  0  0
 28 30  1  0  0  0  0
 28 11  1  0  0  0  0
 30 29  1  0  0  0  0
M  END
>  <MODEL>
3

>  <REMARK>
 VINA RESULT:      -9.0      1.680      2.674
  Name = 
  2 active torsions:
  status: ('A' for Active; 'I' for Inactive)
    1  A    between atoms: C_11  and  C_28
    2  A    between atoms: C_28  and  C_30
                            x       y       z     vdW  Elec       q    Type
                         _______ _______ _______ _____ _____    ______ ____

>  <TORSDO>
F 2

$$$$
=
 OpenBabel11122410303D

 30 35  0  0  1  0  0  0  0  0999 V2000
  185.7000  178.4280  142.4820 C   0  0  0  0  0  0  0  0  0  0  0  0
  186.6180  178.2640  144.8030 C   0  0  0  0  0  0  0  0  0  0  0  0
  181.7840  178.7940  143.9230 N   0  0  0  0  0  2  0  0  0  0  0  0
  184.5700  178.5610  141.6220 C   0  0  0  0  0  0  0  0  0  0  0  0
  186.9430  178.3530  141.9340 N   0  0  0  0  0  0  0  0  0  0  0  0
  186.3140  178.6830  138.3490 O   0  0  0  0  0  1  0  0  0  0  0  0
  182.6340  177.7950  139.2900 C   0  0  1  0  0  3  0  0  0  0  0  0
  186.0870  178.5910  139.7200 C   0  0  0  0  0  0  0  0  0  0  0  0
  181.6290  177.8480  140.4460 C   0  0  2  0  0  3  0  0  0  0  0  0
  181.0430  178.9090  142.6650 C   0  0  1  0  0  3  0  0  0  0  0  0
  187.1630  178.4240  140.5970 C   0  0  0  0  0  0  0  0  0  0  0  0
  184.7820  178.6740  140.2290 C   0  0  0  0  0  0  0  0  0  0  0  0
  186.3890  178.2650  146.1830 C   0  0  0  0  0  3  0  0  0  0  0  0
  180.3230  178.3040  139.8270 C   0  0  0  0  0  2  0  0  0  0  0  0
  181.8220  177.8160  138.0060 C   0  0  0  0  0  2  0  0  0  0  0  0
  187.9280  178.1290  144.3600 O   0  0  0  0  0  1  0  0  0  0  0  0
  183.1440  178.6380  143.5660 C   0  0  0  0  0  0  0  0  0  0  0  0
  185.0990  178.3970  146.6910 C   0  0  0  0  0  3  0  0  0  0  0  0
  185.5320  178.3950  143.8990 C   0  0  0  0  0  0  0  0  0  0  0  0
  183.2940  178.6130  142.2150 C   0  0  0  0  0  0  0  0  0  0  0  0
  180.4510  180.3030  142.5580 C   0  0  0  0  0  1  0  0  0  0  0  0
  182.0160  178.6980  141.5790 N   0  0  0  0  0  0  0  0  0  0  0  0
  180.3620  177.7890  138.4100 C   0  0  0  0  0  2  0  0  0  0  0  0
  183.0940  180.1800  139.4440 O   0  0  0  0  0  1  0  0  0  0  0  0
  184.0170  178.5240  145.8230 C   0  0  0  0  0  3  0  0  0  0  0  0
  184.2220  178.5220  144.4400 C   0  0  0  0  0  0  0  0  0  0  0  0
  183.6660  178.9180  139.2580 C   0  0  2  0  0  3  0  0  0  0  0  0
  188.5570  178.3100  140.0820 C   0  0  0  0  0  2  0  0  0  0  0  0
  190.6950  177.0940  140.3550 C   0  0  0  0  0  1  0  0  0  0  0  0
  189.3920  177.4690  141.0290 C   0  0  0  0  0  2  0  0  0  0  0  0
  1 19  1  0  0  0  0
  2 13  1  0  0  0  0
  4 20  1  0  0  0  0
  4  1  2  0  0  0  0
  5  1  1  0  0  0  0
  6  8  1  0  0  0  0
  7 15  1  6  0  0  0
  7  9  1  0  0  0  0
  8 12  2  0  0  0  0
  8 11  1  0  0  0  0
  9 14  1  6  0  0  0
  9 22  1  0  0  0  0
 10 21  1  6  0  0  0
 10  3  1  0  0  0  0
 11  5  2  0  0  0  0
 12  4  1  0  0  0  0
 13 18  2  0  0  0  0
 15 23  1  0  0  0  0
 16  2  1  0  0  0  0
 17  3  1  0  0  0  0
 17 26  1  0  0  0  0
 19 26  1  0  0  0  0
 19  2  2  0  0  0  0
 20 17  2  0  0  0  0
 22 20  1  0  0  0  0
 22 10  1  0  0  0  0
 23 14  1  0  0  0  0
 25 18  1  0  0  0  0
 26 25  2  0  0  0  0
 27  7  1  0  0  0  0
 27 24  1  1  0  0  0
 27 12  1  0  0  0  0
 28 11  1  0  0  0  0
 28 30  1  0  0  0  0
 29 30  1  0  0  0  0
M  END
>  <MODEL>
4

>  <REMARK>
 VINA RESULT:      -8.8      2.661      4.636
  Name = 
  2 active torsions:
  status: ('A' for Active; 'I' for Inactive)
    1  A    between atoms: C_11  and  C_28
    2  A    between atoms: C_28  and  C_30
                            x       y       z     vdW  Elec       q    Type
                         _______ _______ _______ _____ _____    ______ ____

>  <TORSDO>
F 2

$$$$
=
 OpenBabel11122410303D

 30 35  0  0  1  0  0  0  0  0999 V2000
  187.8860  177.9270  142.7060 C   0  0  0  0  0  0  0  0  0  0  0  0
  186.7570  178.0630  144.9330 C   0  0  0  0  0  0  0  0  0  0  0  0
  184.3030  178.7630  140.7010 N   0  0  0  0  0  2  0  0  0  0  0  0
  187.7950  177.9990  141.2830 C   0  0  0  0  0  0  0  0  0  0  0  0
  189.0950  177.6890  143.2790 N   0  0  0  0  0  0  0  0  0  0  0  0
  191.3700  177.5030  140.4250 O   0  0  0  0  0  1  0  0  0  0  0  0
  188.1130  177.0110  138.3350 C   0  0  1  0  0  3  0  0  0  0  0  0
  190.1980  177.6390  141.1640 C   0  0  0  0  0  0  0  0  0  0  0  0
  186.6090  177.3060  138.3420 C   0  0  2  0  0  3  0  0  0  0  0  0
  184.7580  178.7310  139.3100 C   0  0  1  0  0  3  0  0  0  0  0  0
  190.2350  177.5390  142.5580 C   0  0  0  0  0  0  0  0  0  0  0  0
  188.9770  177.8830  140.5170 C   0  0  0  0  0  0  0  0  0  0  0  0
  185.5920  178.2920  145.6720 C   0  0  0  0  0  3  0  0  0  0  0  0
  186.2750  177.7450  136.9300 C   0  0  0  0  0  2  0  0  0  0  0  0
  188.5260  176.8860  136.8780 C   0  0  0  0  0  2  0  0  0  0  0  0
  187.9250  177.7770  145.6300 O   0  0  0  0  0  1  0  0  0  0  0  0
  185.4370  178.4670  141.4940 C   0  0  0  0  0  0  0  0  0  0  0  0
  184.3880  178.5830  145.0340 C   0  0  0  0  0  3  0  0  0  0  0  0
  186.7270  178.1240  143.5160 C   0  0  0  0  0  0  0  0  0  0  0  0
  186.5260  178.2250  140.7150 C   0  0  0  0  0  0  0  0  0  0  0  0
  184.6670  180.1270  138.7200 C   0  0  0  0  0  1  0  0  0  0  0  0
  186.1650  178.2930  139.3330 N   0  0  0  0  0  0  0  0  0  0  0  0
  187.2630  177.0160  136.0520 C   0  0  0  0  0  2  0  0  0  0  0  0
  188.6800  179.3560  138.6530 O   0  0  0  0  0  1  0  0  0  0  0  0
  184.3340  178.6450  143.6430 C   0  0  0  0  0  3  0  0  0  0  0  0
  185.4860  178.4170  142.8840 C   0  0  0  0  0  0  0  0  0  0  0  0
  188.9940  178.0460  139.0270 C   0  0  2  0  0  3  0  0  0  0  0  0
  191.5140  177.2570  143.2700 C   0  0  0  0  0  2  0  0  0  0  0  0
  191.6800  176.5840  145.6440 C   0  0  0  0  0  1  0  0  0  0  0  0
  191.4280  177.7420  144.7040 C   0  0  0  0  0  2  0  0  0  0  0  0
  1  5  1  0  0  0  0
  1 19  1  0  0  0  0
  2 16  1  0  0  0  0
  2 13  1  0  0  0  0
  3 17  1  0  0  0  0
  4  1  2  0  0  0  0
  6  8  1  0  0  0  0
  7 15  1  6  0  0  0
  7  9  1  0  0  0  0
  7 27  1  0  0  0  0
  8 11  1  0  0  0  0
  9 14  1  6  0  0  0
  9 22  1  0  0  0  0
 10 21  1  1  0  0  0
 10 22  1  0  0  0  0
 10  3  1  0  0  0  0
 11 28  1  0  0  0  0
 11  5  2  0  0  0  0
 12  8  2  0  0  0  0
 12  4  1  0  0  0  0
 17 26  1  0  0  0  0
 18 13  2  0  0  0  0
 19  2  2  0  0  0  0
 20  4  1  0  0  0  0
 20 17  2  0  0  0  0
 22 20  1  0  0  0  0
 23 15  1  0  0  0  0
 23 14  1  0  0  0  0
 25 18  1  0  0  0  0
 26 19  1  0  0  0  0
 26 25  2  0  0  0  0
 27 24  1  1  0  0  0
 27 12  1  0  0  0  0
 28 30  1  0  0  0  0
 30 29  1  0  0  0  0
M  END
>  <MODEL>
5

>  <REMARK>
 VINA RESULT:      -8.5      2.422      5.641
  Name = 
  2 active torsions:
  status: ('A' for Active; 'I' for Inactive)
    1  A    between atoms: C_11  and  C_28
    2  A    between atoms: C_28  and  C_30
                            x       y       z     vdW  Elec       q    Type
                         _______ _______ _______ _____ _____    ______ ____

>  <TORSDO>
F 2

$$$$
=
 OpenBabel11122410303D

 30 35  0  0  1  0  0  0  0  0999 V2000
  187.1310  178.2760  140.4190 C   0  0  0  0  0  0  0  0  0  0  0  0
  184.8810  178.9560  139.5650 C   0  0  0  0  0  0  0  0  0  0  0  0
  185.7370  178.1710  144.3680 N   0  0  0  0  0  2  0  0  0  0  0  0
  187.9680  177.9420  141.5250 C   0  0  0  0  0  0  0  0  0  0  0  0
  187.6530  178.2490  139.1630 N   0  0  0  0  0  0  0  0  0  0  0  0
  191.0930  177.1380  139.6940 O   0  0  0  0  0  1  0  0  0  0  0  0
  190.4550  178.1510  143.4070 C   0  0  1  0  0  3  0  0  0  0  0  0
  189.7810  177.5220  139.9580 C   0  0  0  0  0  0  0  0  0  0  0  0
  189.3400  178.3360  144.4410 C   0  0  2  0  0  3  0  0  0  0  0  0
  186.9560  177.7740  145.0750 C   0  0  1  0  0  3  0  0  0  0  0  0
  188.9370  177.8930  138.9080 C   0  0  0  0  0  0  0  0  0  0  0  0
  189.2970  177.5310  141.2750 C   0  0  0  0  0  0  0  0  0  0  0  0
  183.5400  179.2510  139.8290 C   0  0  0  0  0  3  0  0  0  0  0  0
  189.8740  177.7350  145.7260 C   0  0  0  0  0  2  0  0  0  0  0  0
  191.7220  177.8390  144.1850 C   0  0  0  0  0  2  0  0  0  0  0  0
  185.3120  179.0120  138.2440 O   0  0  0  0  0  1  0  0  0  0  0  0
  186.0870  178.2680  143.0000 C   0  0  0  0  0  0  0  0  0  0  0  0
  183.0450  179.2140  141.1310 C   0  0  0  0  0  3  0  0  0  0  0  0
  185.7590  178.6140  140.6250 C   0  0  0  0  0  0  0  0  0  0  0  0
  187.4080  178.0000  142.8160 C   0  0  0  0  0  0  0  0  0  0  0  0
  186.7710  176.3810  145.6500 C   0  0  0  0  0  1  0  0  0  0  0  0
  188.0390  177.7590  144.0760 N   0  0  0  0  0  0  0  0  0  0  0  0
  191.3690  177.9300  145.6550 C   0  0  0  0  0  2  0  0  0  0  0  0
  189.7750  175.8640  142.9270 O   0  0  0  0  0  1  0  0  0  0  0  0
  183.8900  178.8830  142.1890 C   0  0  0  0  0  3  0  0  0  0  0  0
  185.2350  178.5870  141.9480 C   0  0  0  0  0  0  0  0  0  0  0  0
  190.2170  177.0650  142.3630 C   0  0  2  0  0  3  0  0  0  0  0  0
  189.4320  177.9140  137.5010 C   0  0  0  0  0  2  0  0  0  0  0  0
  187.8450  177.8480  135.6050 C   0  0  0  0  0  1  0  0  0  0  0  0
  188.5000  178.7410  136.6370 C   0  0  0  0  0  2  0  0  0  0  0  0
  1 19  2  0  0  0  0
  1  4  1  0  0  0  0
  2 13  2  0  0  0  0
  2 19  1  0  0  0  0
  3 10  1  0  0  0  0
  4 20  2  0  0  0  0
  5  1  1  0  0  0  0
  6  8  1  0  0  0  0
  7 15  1  1  0  0  0
  7  9  1  0  0  0  0
  8 12  2  0  0  0  0
  9 14  1  1  0  0  0
 10 21  1  6  0  0  0
 11  5  2  0  0  0  0
 11  8  1  0  0  0  0
 12  4  1  0  0  0  0
 12 27  1  0  0  0  0
 13 18  1  0  0  0  0
 15 23  1  0  0  0  0
 16  2  1  0  0  0  0
 17  3  1  0  0  0  0
 18 25  2  0  0  0  0
 19 26  1  0  0  0  0
 20 17  1  0  0  0  0
 20 22  1  0  0  0  0
 22  9  1  0  0  0  0
 22 10  1  0  0  0  0
 23 14  1  0  0  0  0
 26 25  1  0  0  0  0
 26 17  2  0  0  0  0
 27 24  1  1  0  0  0
 27  7  1  0  0  0  0
 28 11  1  0  0  0  0
 29 30  1  0  0  0  0
 30 28  1  0  0  0  0
M  END
>  <MODEL>
6

>  <REMARK>
 VINA RESULT:      -8.3      2.007      5.678
  Name = 
  2 active torsions:
  status: ('A' for Active; 'I' for Inactive)
    1  A    between atoms: C_11  and  C_28
    2  A    between atoms: C_28  and  C_30
                            x       y       z     vdW  Elec       q    Type
                         _______ _______ _______ _____ _____    ______ ____

>  <TORSDO>
F 2

$$$$
=
 OpenBabel11122410303D

 30 35  0  0  1  0  0  0  0  0999 V2000
  186.5140  178.2630  142.8340 C   0  0  0  0  0  0  0  0  0  0  0  0
  185.8440  178.4520  140.4320 C   0  0  0  0  0  0  0  0  0  0  0  0
  190.5160  177.5930  141.7930 N   0  0  0  0  0  2  0  0  0  0  0  0
  187.5380  178.0440  143.8030 C   0  0  0  0  0  0  0  0  0  0  0  0
  185.2460  178.5120  143.2570 N   0  0  0  0  0  0  0  0  0  0  0  0
  185.5480  178.5100  146.8990 O   0  0  0  0  0  1  0  0  0  0  0  0
  188.9310  176.6810  146.2470 C   0  0  1  0  0  3  0  0  0  0  0  0
  185.8890  178.4150  145.5530 C   0  0  0  0  0  0  0  0  0  0  0  0
  190.0320  176.5020  145.1960 C   0  0  2  0  0  3  0  0  0  0  0  0
  191.1200  177.4490  143.1190 C   0  0  1  0  0  3  0  0  0  0  0  0
  184.9100  178.5860  144.5700 C   0  0  0  0  0  0  0  0  0  0  0  0
  187.2150  178.1560  145.1750 C   0  0  0  0  0  0  0  0  0  0  0  0
  186.2120  178.4460  139.0830 C   0  0  0  0  0  3  0  0  0  0  0  0
  191.3380  176.5550  145.9630 C   0  0  0  0  0  2  0  0  0  0  0  0
  189.5750  176.4250  147.5990 C   0  0  0  0  0  2  0  0  0  0  0  0
  184.5050  178.6660  140.7410 O   0  0  0  0  0  1  0  0  0  0  0  0
  189.1340  177.8040  142.0090 C   0  0  0  0  0  0  0  0  0  0  0  0
  187.5370  178.2370  138.7070 C   0  0  0  0  0  3  0  0  0  0  0  0
  186.8200  178.2430  141.4400 C   0  0  0  0  0  0  0  0  0  0  0  0
  188.8380  177.7670  143.3360 C   0  0  0  0  0  0  0  0  0  0  0  0
  192.0510  178.6200  143.3760 C   0  0  0  0  0  1  0  0  0  0  0  0
  190.0150  177.4700  144.0920 N   0  0  0  0  0  0  0  0  0  0  0  0
  191.0080  176.0130  147.3320 C   0  0  0  0  0  2  0  0  0  0  0  0
  189.1520  179.1050  146.2150 O   0  0  0  0  0  1  0  0  0  0  0  0
  188.5130  178.0270  139.6790 C   0  0  0  0  0  3  0  0  0  0  0  0
  188.1670  178.0250  141.0330 C   0  0  0  0  0  0  0  0  0  0  0  0
  188.2440  178.0430  146.2590 C   0  0  2  0  0  3  0  0  0  0  0  0
  183.4890  178.8400  144.9440 C   0  0  0  0  0  2  0  0  0  0  0  0
  181.2190  178.6510  143.9790 C   0  0  0  0  0  1  0  0  0  0  0  0
  182.6530  179.0430  143.6950 C   0  0  0  0  0  2  0  0  0  0  0  0
  1  5  2  0  0  0  0
  1  4  1  0  0  0  0
  2 16  1  0  0  0  0
  2 19  1  0  0  0  0
  3 17  1  0  0  0  0
  3 10  1  0  0  0  0
  4 12  2  0  0  0  0
  5 11  1  0  0  0  0
  7 27  1  0  0  0  0
  7 15  1  1  0  0  0
  8  6  1  0  0  0  0
  9 14  1  1  0  0  0
  9  7  1  0  0  0  0
 10 21  1  1  0  0  0
 10 22  1  0  0  0  0
 11 28  1  0  0  0  0
 11  8  2  0  0  0  0
 12  8  1  0  0  0  0
 12 27  1  0  0  0  0
 13  2  2  0  0  0  0
 14 23  1  0  0  0  0
 17 20  2  0  0  0  0
 18 13  1  0  0  0  0
 18 25  2  0  0  0  0
 19  1  1  0  0  0  0
 20  4  1  0  0  0  0
 20 22  1  0  0  0  0
 22  9  1  0  0  0  0
 23 15  1  0  0  0  0
 25 26  1  0  0  0  0
 26 19  2  0  0  0  0
 26 17  1  0  0  0  0
 27 24  1  6  0  0  0
 30 29  1  0  0  0  0
 30 28  1  0  0  0  0
M  END
>  <MODEL>
7

>  <REMARK>
 VINA RESULT:      -8.2      1.868      6.655
  Name = 
  2 active torsions:
  status: ('A' for Active; 'I' for Inactive)
    1  A    between atoms: C_11  and  C_28
    2  A    between atoms: C_28  and  C_30
                            x       y       z     vdW  Elec       q    Type
                         _______ _______ _______ _____ _____    ______ ____

>  <TORSDO>
F 2

$$$$
=
 OpenBabel11122410303D

 30 35  0  0  1  0  0  0  0  0999 V2000
  185.9190  178.3810  141.8990 C   0  0  0  0  0  0  0  0  0  0  0  0
  183.4850  178.9020  142.1470 C   0  0  0  0  0  0  0  0  0  0  0  0
  186.4110  178.1120  146.0510 N   0  0  0  0  0  2  0  0  0  0  0  0
  187.1750  178.0940  142.5110 C   0  0  0  0  0  0  0  0  0  0  0  0
  185.8370  178.4120  140.5420 N   0  0  0  0  0  0  0  0  0  0  0  0
  189.2210  177.5550  139.4630 O   0  0  0  0  0  1  0  0  0  0  0  0
  190.2180  178.4610  143.1240 C   0  0  1  0  0  3  0  0  0  0  0  0
  188.1380  177.8350  140.2920 C   0  0  0  0  0  0  0  0  0  0  0  0
  189.6620  178.5460  144.5490 C   0  0  2  0  0  3  0  0  0  0  0  0
  187.8380  177.7970  146.1340 C   0  0  1  0  0  3  0  0  0  0  0  0
  186.8970  178.1570  139.7350 C   0  0  0  0  0  0  0  0  0  0  0  0
  188.2820  177.7880  141.6870 C   0  0  0  0  0  0  0  0  0  0  0  0
  182.3820  179.0910  142.9850 C   0  0  0  0  0  3  0  0  0  0  0  0
  190.7420  177.9680  145.4420 C   0  0  0  0  0  2  0  0  0  0  0  0
  191.7150  178.2340  143.2540 C   0  0  0  0  0  2  0  0  0  0  0  0
  183.2880  179.0100  140.7750 O   0  0  0  0  0  1  0  0  0  0  0  0
  186.1180  178.2550  144.6740 C   0  0  0  0  0  0  0  0  0  0  0  0
  182.5130  178.9970  144.3690 C   0  0  0  0  0  3  0  0  0  0  0  0
  184.7590  178.6110  142.7000 C   0  0  0  0  0  0  0  0  0  0  0  0
  187.2370  178.0900  143.9180 C   0  0  0  0  0  0  0  0  0  0  0  0
  188.0100  176.3860  146.6670 C   0  0  0  0  0  1  0  0  0  0  0  0
  188.3710  177.8780  144.7630 N   0  0  0  0  0  0  0  0  0  0  0  0
  192.0380  178.2760  144.7330 C   0  0  0  0  0  2  0  0  0  0  0  0
  189.5370  176.1370  142.8840 O   0  0  0  0  0  1  0  0  0  0  0  0
  183.7550  178.7150  144.9340 C   0  0  0  0  0  3  0  0  0  0  0  0
  184.8720  178.5250  144.1160 C   0  0  0  0  0  0  0  0  0  0  0  0
  189.6130  177.3760  142.2400 C   0  0  2  0  0  3  0  0  0  0  0  0
  186.7210  178.2360  138.2560 C   0  0  0  0  0  2  0  0  0  0  0  0
  185.2720  176.9840  136.6900 C   0  0  0  0  0  1  0  0  0  0  0  0
  185.2870  177.9110  137.8870 C   0  0  0  0  0  2  0  0  0  0  0  0
  1  4  1  0  0  0  0
  1 19  1  0  0  0  0
  2 19  2  0  0  0  0
  2 13  1  0  0  0  0
  3 10  1  0  0  0  0
  4 20  1  0  0  0  0
  5  1  2  0  0  0  0
  6  8  1  0  0  0  0
  7 15  1  1  0  0  0
  7  9  1  0  0  0  0
  8 12  1  0  0  0  0
  9 22  1  0  0  0  0
  9 14  1  1  0  0  0
 10 21  1  6  0  0  0
 11  8  2  0  0  0  0
 11  5  1  0  0  0  0
 12 27  1  0  0  0  0
 12  4  2  0  0  0  0
 13 18  2  0  0  0  0
 15 23  1  0  0  0  0
 16  2  1  0  0  0  0
 17  3  1  0  0  0  0
 18 25  1  0  0  0  0
 19 26  1  0  0  0  0
 20 17  2  0  0  0  0
 20 22  1  0  0  0  0
 22 10  1  0  0  0  0
 23 14  1  0  0  0  0
 26 17  1  0  0  0  0
 26 25  2  0  0  0  0
 27 24  1  1  0  0  0
 27  7  1  0  0  0  0
 28 11  1  0  0  0  0
 29 30  1  0  0  0  0
 30 28  1  0  0  0  0
M  END
>  <MODEL>
8

>  <REMARK>
 VINA RESULT:      -8.2      2.067      5.612
  Name = 
  2 active torsions:
  status: ('A' for Active; 'I' for Inactive)
    1  A    between atoms: C_11  and  C_28
    2  A    between atoms: C_28  and  C_30
                            x       y       z     vdW  Elec       q    Type
                         _______ _______ _______ _____ _____    ______ ____

>  <TORSDO>
F 2

$$$$
=
 OpenBabel11122410303D

 30 35  0  0  1  0  0  0  0  0999 V2000
  186.4450  178.2560  142.1480 C   0  0  0  0  0  0  0  0  0  0  0  0
  185.7520  178.5170  144.5370 C   0  0  0  0  0  0  0  0  0  0  0  0
  182.5280  178.9000  140.8110 N   0  0  0  0  0  2  0  0  0  0  0  0
  186.0870  178.2330  140.7670 C   0  0  0  0  0  0  0  0  0  0  0  0
  187.7480  178.0750  142.4960 N   0  0  0  0  0  0  0  0  0  0  0  0
  189.4500  177.7420  139.2790 O   0  0  0  0  0  1  0  0  0  0  0  0
  185.8740  177.0610  137.8780 C   0  0  1  0  0  3  0  0  0  0  0  0
  188.4340  177.9060  140.2170 C   0  0  0  0  0  0  0  0  0  0  0  0
  184.3900  177.3310  138.1510 C   0  0  2  0  0  3  0  0  0  0  0  0
  182.7140  178.7860  139.3640 C   0  0  1  0  0  3  0  0  0  0  0  0
  188.7350  177.8970  141.5820 C   0  0  0  0  0  0  0  0  0  0  0  0
  187.1070  178.0870  139.8000 C   0  0  0  0  0  0  0  0  0  0  0  0
  184.7410  178.7740  145.4680 C   0  0  0  0  0  3  0  0  0  0  0  0
  183.7850  177.6720  136.8040 C   0  0  0  0  0  2  0  0  0  0  0  0
  186.0090  176.8490  136.3790 C   0  0  0  0  0  2  0  0  0  0  0  0
  187.0380  178.2960  145.0160 O   0  0  0  0  0  1  0  0  0  0  0  0
  183.7990  178.6740  141.3920 C   0  0  0  0  0  0  0  0  0  0  0  0
  183.4310  179.0030  145.0520 C   0  0  0  0  0  3  0  0  0  0  0  0
  185.4540  178.4850  143.1500 C   0  0  0  0  0  0  0  0  0  0  0  0
  184.7280  178.4010  140.4370 C   0  0  0  0  0  0  0  0  0  0  0  0
  182.4740  180.1390  138.7190 C   0  0  0  0  0  1  0  0  0  0  0  0
  184.1120  178.3730  139.1470 N   0  0  0  0  0  0  0  0  0  0  0  0
  184.6100  176.9040  135.8010 C   0  0  0  0  0  2  0  0  0  0  0  0
  186.4230  179.4320  137.9400 O   0  0  0  0  0  1  0  0  0  0  0  0
  183.1140  178.9740  143.6960 C   0  0  0  0  0  3  0  0  0  0  0  0
  184.1090  178.7160  142.7480 C   0  0  0  0  0  0  0  0  0  0  0  0
  186.8390  178.1540  138.3260 C   0  0  2  0  0  3  0  0  0  0  0  0
  190.1330  177.6830  142.0550 C   0  0  0  0  0  2  0  0  0  0  0  0
  190.9790  179.0030  143.9680 C   0  0  0  0  0  1  0  0  0  0  0  0
  190.1890  177.7760  143.5670 C   0  0  0  0  0  2  0  0  0  0  0  0
  1  5  1  0  0  0  0
  1 19  1  0  0  0  0
  2 16  1  0  0  0  0
  2 13  1  0  0  0  0
  3 17  1  0  0  0  0
  4  1  2  0  0  0  0
  6  8  1  0  0  0  0
  7 15  1  6  0  0  0
  7  9  1  0  0  0  0
  7 27  1  0  0  0  0
  8 11  1  0  0  0  0
  9 14  1  6  0  0  0
  9 22  1  0  0  0  0
 10 21  1  6  0  0  0
 10  3  1  0  0  0  0
 11 28  1  0  0  0  0
 11  5  2  0  0  0  0
 12  8  2  0  0  0  0
 12  4  1  0  0  0  0
 17 26  1  0  0  0  0
 18 13  2  0  0  0  0
 19  2  2  0  0  0  0
 20  4  1  0  0  0  0
 20 17  2  0  0  0  0
 22 10  1  0  0  0  0
 22 20  1  0  0  0  0
 23 15  1  0  0  0  0
 23 14  1  0  0  0  0
 25 18  1  0  0  0  0
 26 19  1  0  0  0  0
 26 25  2  0  0  0  0
 27 24  1  1  0  0  0
 27 12  1  0  0  0  0
 28 30  1  0  0  0  0
 30 29  1  0  0  0  0
M  END
>  <MODEL>
9

>  <REMARK>
 VINA RESULT:      -8.0      3.085      5.796
  Name = 
  2 active torsions:
  status: ('A' for Active; 'I' for Inactive)
    1  A    between atoms: C_11  and  C_28
    2  A    between atoms: C_28  and  C_30
                            x       y       z     vdW  Elec       q    Type
                         _______ _______ _______ _____ _____    ______ ____

>  <TORSDO>
F 2

$$$$
