=
 OpenBabel11122410313D

 30 35  0  0  1  0  0  0  0  0999 V2000
  187.8260  178.0770  140.6680 C   0  0  0  0  0  0  0  0  0  0  0  0
  189.6250  177.5660  142.3200 C   0  0  0  0  0  0  0  0  0  0  0  0
  184.9070  178.1380  143.6760 N   0  0  0  0  0  2  0  0  0  0  0  0
  186.4570  178.3150  140.4030 C   0  0  0  0  0  0  0  0  0  0  0  0
  188.7410  178.0830  139.5640 N   0  0  0  0  0  2  0  0  0  0  0  0
  186.8370  176.5940  137.7130 C   0  0  0  0  0  1  0  0  0  0  0  0
  183.5530  178.0670  139.0970 C   0  0  1  0  0  3  0  0  0  0  0  0
  186.9000  178.1010  137.9360 C   0  0  2  0  0  3  0  0  0  0  0  0
  183.4370  177.6630  140.5170 N   0  0  2  0  0  0  0  0  0  0  0  0
  183.6800  178.3870  142.9250 C   0  0  1  0  0  3  0  0  0  0  0  0
  188.3250  178.5740  138.2520 C   0  0  2  0  0  3  0  0  0  0  0  0
  186.0110  178.4680  139.0380 N   0  0  0  0  0  0  0  0  0  0  0  0
  189.9970  177.3260  143.6470 C   0  0  0  0  0  3  0  0  0  0  0  0
  181.9960  177.6270  140.7920 C   0  0  0  0  0  2  0  0  0  0  0  0
  182.2150  178.5800  138.6230 C   0  0  0  0  0  2  0  0  0  0  0  0
  190.6150  177.5340  141.3470 O   0  0  0  0  0  1  0  0  0  0  0  0
  185.9780  178.1120  142.7530 C   0  0  0  0  0  0  0  0  0  0  0  0
  189.0470  177.3440  144.6680 C   0  0  0  0  0  3  0  0  0  0  0  0
  188.2700  177.8290  141.9990 C   0  0  0  0  0  0  0  0  0  0  0  0
  185.5620  178.3510  141.4760 C   0  0  0  0  0  0  0  0  0  0  0  0
  183.0040  179.6350  143.4590 C   0  0  0  0  0  1  0  0  0  0  0  0
  184.0910  178.6080  141.4420 C   0  0  1  0  0  3  0  0  0  0  0  0
  181.2390  177.8600  139.5020 C   0  0  0  0  0  2  0  0  0  0  0  0
  184.5450  180.3020  139.2200 O   0  0  0  0  0  1  0  0  0  0  0  0
  187.7100  177.6020  144.3740 C   0  0  0  0  0  3  0  0  0  0  0  0
  187.3140  177.8470  143.0560 C   0  0  0  0  0  0  0  0  0  0  0  0
  184.7020  179.0150  138.6960 C   0  0  2  0  0  3  0  0  0  0  0  0
  189.3270  178.1700  137.1750 C   0  0  0  0  0  2  0  0  0  0  0  0
  190.4390  175.9430  137.0070 C   0  0  0  0  0  1  0  0  0  0  0  0
  190.4110  177.2690  137.7440 C   0  0  0  0  0  2  0  0  0  0  0  0
  1 19  1  0  0  0  0
  2 13  1  0  0  0  0
  4  1  2  0  0  0  0
  4 20  1  0  0  0  0
  5  1  1  0  0  0  0
  7 15  1  1  0  0  0
  7  9  1  0  0  0  0
  8  6  1  1  0  0  0
  8 11  1  0  0  0  0
  8 12  1  0  0  0  0
  9 14  1  1  0  0  0
  9 22  1  0  0  0  0
 10 21  1  1  0  0  0
 10  3  1  0  0  0  0
 11 28  1  6  0  0  0
 11  5  1  0  0  0  0
 12  4  1  0  0  0  0
 13 18  2  0  0  0  0
 15 23  1  0  0  0  0
 16  2  1  0  0  0  0
 17 26  1  0  0  0  0
 17  3  1  0  0  0  0
 19  2  2  0  0  0  0
 19 26  1  0  0  0  0
 20 17  2  0  0  0  0
 22 20  1  1  0  0  0
 22 10  1  0  0  0  0
 23 14  1  0  0  0  0
 25 18  1  0  0  0  0
 26 25  2  0  0  0  0
 27 12  1  0  0  0  0
 27  7  1  0  0  0  0
 27 24  1  1  0  0  0
 28 30  1  0  0  0  0
 29 30  1  0  0  0  0
M  END
>  <MODEL>
1

>  <REMARK>
 VINA RESULT:      -8.1      0.000      0.000
  Name = 
  2 active torsions:
  status: ('A' for Active; 'I' for Inactive)
    1  A    between atoms: C_11  and  C_28
    2  A    between atoms: C_28  and  C_30
                            x       y       z     vdW  Elec       q    Type
                         _______ _______ _______ _____ _____    ______ ____

>  <TORSDO>
F 2

$$$$
=
 OpenBabel11122410313D

 30 35  0  0  1  0  0  0  0  0999 V2000
  187.0940  177.9400  144.9510 C   0  0  0  0  0  0  0  0  0  0  0  0
  186.5250  178.3950  147.3370 C   0  0  0  0  0  0  0  0  0  0  0  0
  191.0500  176.9750  145.9490 N   0  0  0  0  0  2  0  0  0  0  0  0
  188.0600  177.5700  143.9860 C   0  0  0  0  0  0  0  0  0  0  0  0
  185.7680  178.2440  144.5000 N   0  0  0  0  0  2  0  0  0  0  0  0
  186.7330  179.7620  142.0430 C   0  0  0  0  0  1  0  0  0  0  0  0
  189.8860  177.6480  141.3660 C   0  0  1  0  0  3  0  0  0  0  0  0
  186.4860  178.2610  142.1500 C   0  0  2  0  0  3  0  0  0  0  0  0
  190.7830  177.7830  142.5370 N   0  0  2  0  0  0  0  0  0  0  0  0
  191.6490  176.6970  144.6470 C   0  0  1  0  0  3  0  0  0  0  0  0
  185.3550  177.9350  143.1330 C   0  0  2  0  0  3  0  0  0  0  0  0
  187.7140  177.5950  142.5840 N   0  0  0  0  0  0  0  0  0  0  0  0
  186.9320  178.4520  148.6740 C   0  0  0  0  0  3  0  0  0  0  0  0
  192.1380  177.5790  142.0110 C   0  0  0  0  0  2  0  0  0  0  0  0
  190.6640  177.0510  140.2200 C   0  0  0  0  0  2  0  0  0  0  0  0
  185.2080  178.7250  147.0390 O   0  0  0  0  0  1  0  0  0  0  0  0
  189.6910  177.3020  145.7360 C   0  0  0  0  0  0  0  0  0  0  0  0
  188.2410  178.1330  149.0350 C   0  0  0  0  0  3  0  0  0  0  0  0
  187.4450  178.0130  146.3300 C   0  0  0  0  0  0  0  0  0  0  0  0
  189.3460  177.2310  144.4180 C   0  0  0  0  0  0  0  0  0  0  0  0
  192.2320  175.2970  144.6460 C   0  0  0  0  0  1  0  0  0  0  0  0
  190.5100  176.7900  143.5930 C   0  0  1  0  0  3  0  0  0  0  0  0
  192.0740  177.4720  140.5040 C   0  0  0  0  0  2  0  0  0  0  0  0
  188.6630  175.5780  141.8240 O   0  0  0  0  0  1  0  0  0  0  0  0
  189.1610  177.7520  148.0610 C   0  0  0  0  0  3  0  0  0  0  0  0
  188.7770  177.6870  146.7180 C   0  0  0  0  0  0  0  0  0  0  0  0
  188.5280  176.9450  141.5610 C   0  0  2  0  0  3  0  0  0  0  0  0
  184.0520  178.6470  142.7820 C   0  0  0  0  0  2  0  0  0  0  0  0
  181.8370  178.7850  143.9230 C   0  0  0  0  0  1  0  0  0  0  0  0
  183.3180  179.0980  144.0350 C   0  0  0  0  0  2  0  0  0  0  0  0
  1 19  1  0  0  0  0
  2 13  1  0  0  0  0
  4 20  1  0  0  0  0
  4  1  2  0  0  0  0
  5  1  1  0  0  0  0
  7 15  1  6  0  0  0
  7 27  1  0  0  0  0
  7  9  1  0  0  0  0
  8  6  1  1  0  0  0
  8 12  1  0  0  0  0
  8 11  1  0  0  0  0
  9 14  1  6  0  0  0
  9 22  1  0  0  0  0
 10 21  1  1  0  0  0
 10  3  1  0  0  0  0
 11 28  1  6  0  0  0
 11  5  1  0  0  0  0
 12  4  1  0  0  0  0
 13 18  2  0  0  0  0
 15 23  1  0  0  0  0
 16  2  1  0  0  0  0
 17  3  1  0  0  0  0
 17 26  1  0  0  0  0
 19 26  1  0  0  0  0
 19  2  2  0  0  0  0
 20 17  2  0  0  0  0
 22 20  1  1  0  0  0
 22 10  1  0  0  0  0
 23 14  1  0  0  0  0
 25 18  1  0  0  0  0
 26 25  2  0  0  0  0
 27 24  1  1  0  0  0
 27 12  1  0  0  0  0
 28 30  1  0  0  0  0
 29 30  1  0  0  0  0
M  END
>  <MODEL>
2

>  <REMARK>
 VINA RESULT:      -8.0      3.023      6.937
  Name = 
  2 active torsions:
  status: ('A' for Active; 'I' for Inactive)
    1  A    between atoms: C_11  and  C_28
    2  A    between atoms: C_28  and  C_30
                            x       y       z     vdW  Elec       q    Type
                         _______ _______ _______ _____ _____    ______ ____

>  <TORSDO>
F 2

$$$$
=
 OpenBabel11122410313D

 30 35  0  0  1  0  0  0  0  0999 V2000
  188.4610  177.8080  142.8600 C   0  0  0  0  0  0  0  0  0  0  0  0
  186.1530  178.3120  143.6630 C   0  0  0  0  0  0  0  0  0  0  0  0
  187.3400  178.4250  138.8680 N   0  0  0  0  0  2  0  0  0  0  0  0
  189.3610  177.6600  141.7790 C   0  0  0  0  0  0  0  0  0  0  0  0
  188.9520  177.5780  144.1870 N   0  0  0  0  0  2  0  0  0  0  0  0
  190.6200  175.1650  143.3710 C   0  0  0  0  0  1  0  0  0  0  0  0
  191.5490  176.3840  139.8320 C   0  0  1  0  0  3  0  0  0  0  0  0
  191.0510  176.6280  143.3320 C   0  0  2  0  0  3  0  0  0  0  0  0
  190.2940  176.5270  139.0580 N   0  0  2  0  0  0  0  0  0  0  0  0
  188.5730  178.1320  138.1420 C   0  0  1  0  0  3  0  0  0  0  0  0
  190.3850  177.4510  144.4420 C   0  0  2  0  0  3  0  0  0  0  0  0
  190.7080  177.2010  142.0300 N   0  0  0  0  0  0  0  0  0  0  0  0
  184.8320  178.6630  143.3640 C   0  0  0  0  0  3  0  0  0  0  0  0
  190.6800  176.3180  137.6570 C   0  0  0  0  0  2  0  0  0  0  0  0
  192.7180  176.4120  138.8800 C   0  0  0  0  0  2  0  0  0  0  0  0
  186.4910  178.1100  144.9960 O   0  0  0  0  0  1  0  0  0  0  0  0
  187.6050  178.2630  140.2470 C   0  0  0  0  0  0  0  0  0  0  0  0
  184.4330  178.8770  142.0460 C   0  0  0  0  0  3  0  0  0  0  0  0
  187.1030  178.1680  142.6220 C   0  0  0  0  0  0  0  0  0  0  0  0
  188.9050  177.9220  140.4840 C   0  0  0  0  0  0  0  0  0  0  0  0
  188.9630  179.3330  137.3010 C   0  0  0  0  0  1  0  0  0  0  0  0
  189.6730  177.8560  139.2040 C   0  0  1  0  0  3  0  0  0  0  0  0
  192.1320  175.9000  137.6000 C   0  0  0  0  0  2  0  0  0  0  0  0
  191.9660  178.6480  140.6630 O   0  0  0  0  0  1  0  0  0  0  0  0
  185.3520  178.7430  141.0070 C   0  0  0  0  0  3  0  0  0  0  0  0
  186.6780  178.3950  141.2810 C   0  0  0  0  0  0  0  0  0  0  0  0
  191.7750  177.3150  141.0410 C   0  0  2  0  0  3  0  0  0  0  0  0
  190.6440  176.8760  145.8310 C   0  0  0  0  0  2  0  0  0  0  0  0
  189.3700  177.8290  147.7520 C   0  0  0  0  0  1  0  0  0  0  0  0
  189.3600  176.7970  146.6410 C   0  0  0  0  0  2  0  0  0  0  0  0
  1  5  1  0  0  0  0
  2 16  1  0  0  0  0
  3 17  1  0  0  0  0
  4 12  1  0  0  0  0
  4  1  2  0  0  0  0
  5 11  1  0  0  0  0
  7 15  1  6  0  0  0
  7 27  1  0  0  0  0
  8  6  1  6  0  0  0
  8 11  1  0  0  0  0
  9 14  1  6  0  0  0
  9 22  1  0  0  0  0
  9  7  1  0  0  0  0
 10 21  1  1  0  0  0
 10  3  1  0  0  0  0
 10 22  1  0  0  0  0
 11 28  1  1  0  0  0
 12  8  1  0  0  0  0
 13  2  1  0  0  0  0
 17 20  2  0  0  0  0
 17 26  1  0  0  0  0
 18 13  2  0  0  0  0
 19  1  1  0  0  0  0
 19  2  2  0  0  0  0
 20  4  1  0  0  0  0
 22 20  1  1  0  0  0
 23 14  1  0  0  0  0
 23 15  1  0  0  0  0
 25 26  2  0  0  0  0
 25 18  1  0  0  0  0
 26 19  1  0  0  0  0
 27 24  1  6  0  0  0
 27 12  1  0  0  0  0
 28 30  1  0  0  0  0
 30 29  1  0  0  0  0
M  END
>  <MODEL>
3

>  <REMARK>
 VINA RESULT:      -7.9      2.370      6.806
  Name = 
  2 active torsions:
  status: ('A' for Active; 'I' for Inactive)
    1  A    between atoms: C_11  and  C_28
    2  A    between atoms: C_28  and  C_30
                            x       y       z     vdW  Elec       q    Type
                         _______ _______ _______ _____ _____    ______ ____

>  <TORSDO>
F 2

$$$$
=
 OpenBabel11122410313D

 30 35  0  0  1  0  0  0  0  0999 V2000
  187.6140  178.2200  143.3040 C   0  0  0  0  0  0  0  0  0  0  0  0
  186.2460  178.3530  145.3870 C   0  0  0  0  0  0  0  0  0  0  0  0
  184.2130  178.6710  140.8940 N   0  0  0  0  0  2  0  0  0  0  0  0
  187.6690  178.2200  141.8900 C   0  0  0  0  0  0  0  0  0  0  0  0
  188.8390  178.0640  144.0310 N   0  0  0  0  0  2  0  0  0  0  0  0
  189.9310  175.9460  142.1350 C   0  0  0  0  0  1  0  0  0  0  0  0
  188.3340  177.3110  138.9010 C   0  0  1  0  0  3  0  0  0  0  0  0
  190.0650  177.4580  141.9880 C   0  0  2  0  0  3  0  0  0  0  0  0
  186.8630  177.2590  139.0650 N   0  0  2  0  0  0  0  0  0  0  0  0
  184.7630  178.5780  139.5450 C   0  0  1  0  0  3  0  0  0  0  0  0
  190.1290  178.1620  143.3500 C   0  0  2  0  0  3  0  0  0  0  0  0
  188.9290  177.9770  141.2260 N   0  0  0  0  0  0  0  0  0  0  0  0
  184.9900  178.4940  145.9860 C   0  0  0  0  0  3  0  0  0  0  0  0
  186.3280  177.1190  137.7050 C   0  0  0  0  0  2  0  0  0  0  0  0
  188.6570  177.5250  137.4430 C   0  0  0  0  0  2  0  0  0  0  0  0
  187.3530  178.2010  146.2130 O   0  0  0  0  0  1  0  0  0  0  0  0
  185.2860  178.5470  141.8050 C   0  0  0  0  0  0  0  0  0  0  0  0
  183.8430  178.6500  145.2090 C   0  0  0  0  0  3  0  0  0  0  0  0
  186.3650  178.3640  143.9740 C   0  0  0  0  0  0  0  0  0  0  0  0
  186.4870  178.4120  141.1710 C   0  0  0  0  0  0  0  0  0  0  0  0
  184.4060  179.8290  138.7650 C   0  0  0  0  0  1  0  0  0  0  0  0
  186.3070  178.4740  139.6890 C   0  0  1  0  0  3  0  0  0  0  0  0
  187.4760  176.9330  136.7370 C   0  0  0  0  0  2  0  0  0  0  0  0
  188.8950  179.6080  139.5290 O   0  0  0  0  0  1  0  0  0  0  0  0
  183.9370  178.6660  143.8190 C   0  0  0  0  0  3  0  0  0  0  0  0
  185.1820  178.5270  143.1970 C   0  0  0  0  0  0  0  0  0  0  0  0
  189.1390  178.2600  139.8100 C   0  0  2  0  0  3  0  0  0  0  0  0
  191.2530  177.6290  144.2320 C   0  0  0  0  0  2  0  0  0  0  0  0
  191.7750  176.3350  146.3000 C   0  0  0  0  0  1  0  0  0  0  0  0
  190.7190  177.1420  145.5690 C   0  0  0  0  0  2  0  0  0  0  0  0
  1 19  1  0  0  0  0
  1  5  1  0  0  0  0
  2 13  1  0  0  0  0
  2 16  1  0  0  0  0
  3 17  1  0  0  0  0
  4  1  2  0  0  0  0
  7 15  1  6  0  0  0
  7  9  1  0  0  0  0
  7 27  1  0  0  0  0
  8  6  1  1  0  0  0
  8 11  1  0  0  0  0
  9 14  1  6  0  0  0
  9 22  1  0  0  0  0
 10 21  1  6  0  0  0
 10 22  1  0  0  0  0
 10  3  1  0  0  0  0
 11  5  1  0  0  0  0
 11 28  1  1  0  0  0
 12  4  1  0  0  0  0
 12  8  1  0  0  0  0
 17 26  1  0  0  0  0
 18 13  2  0  0  0  0
 19  2  2  0  0  0  0
 20 17  2  0  0  0  0
 20  4  1  0  0  0  0
 22 20  1  1  0  0  0
 23 15  1  0  0  0  0
 23 14  1  0  0  0  0
 25 18  1  0  0  0  0
 26 25  2  0  0  0  0
 26 19  1  0  0  0  0
 27 24  1  1  0  0  0
 27 12  1  0  0  0  0
 28 30  1  0  0  0  0
 30 29  1  0  0  0  0
M  END
>  <MODEL>
4

>  <REMARK>
 VINA RESULT:      -7.9      2.021      4.944
  Name = 
  2 active torsions:
  status: ('A' for Active; 'I' for Inactive)
    1  A    between atoms: C_11  and  C_28
    2  A    between atoms: C_28  and  C_30
                            x       y       z     vdW  Elec       q    Type
                         _______ _______ _______ _____ _____    ______ ____

>  <TORSDO>
F 2

$$$$
=
 OpenBabel11122410313D

 30 35  0  0  1  0  0  0  0  0999 V2000
  186.3740  178.4470  139.1550 C   0  0  0  0  0  0  0  0  0  0  0  0
  187.5770  177.8800  137.0430 C   0  0  0  0  0  0  0  0  0  0  0  0
  189.7350  177.4950  141.4710 N   0  0  0  0  0  2  0  0  0  0  0  0
  186.3830  178.5360  140.5660 C   0  0  0  0  0  0  0  0  0  0  0  0
  185.1710  178.8030  138.4600 N   0  0  0  0  0  2  0  0  0  0  0  0
  183.3550  177.4530  140.4980 C   0  0  0  0  0  1  0  0  0  0  0  0
  185.5170  178.1410  143.6160 C   0  0  1  0  0  3  0  0  0  0  0  0
  183.8900  178.8800  140.5570 C   0  0  2  0  0  3  0  0  0  0  0  0
  186.8150  177.4520  143.4290 N   0  0  2  0  0  0  0  0  0  0  0  0
  189.2560  177.7120  142.8330 C   0  0  1  0  0  3  0  0  0  0  0  0
  184.0790  179.4790  139.1570 C   0  0  2  0  0  3  0  0  0  0  0  0
  185.1700  178.8910  141.2660 N   0  0  0  0  0  0  0  0  0  0  0  0
  188.7450  177.4370  136.4140 C   0  0  0  0  0  3  0  0  0  0  0  0
  187.2940  177.1570  144.7850 C   0  0  0  0  0  2  0  0  0  0  0  0
  185.3800  178.5420  145.0640 C   0  0  0  0  0  2  0  0  0  0  0  0
  186.4780  178.1840  136.2470 O   0  0  0  0  0  1  0  0  0  0  0  0
  188.6760  177.8050  140.5890 C   0  0  0  0  0  0  0  0  0  0  0  0
  189.8780  177.1180  137.1590 C   0  0  0  0  0  3  0  0  0  0  0  0
  187.5330  178.0070  138.4540 C   0  0  0  0  0  0  0  0  0  0  0  0
  187.5620  178.2310  141.2510 C   0  0  0  0  0  0  0  0  0  0  0  0
  190.1490  178.7190  143.5310 C   0  0  0  0  0  1  0  0  0  0  0  0
  187.8120  178.2780  142.7240 C   0  0  1  0  0  3  0  0  0  0  0  0
  186.2200  177.5310  145.7830 C   0  0  0  0  0  2  0  0  0  0  0  0
  185.9730  180.4250  142.8620 O   0  0  0  0  0  1  0  0  0  0  0  0
  189.8590  177.2370  138.5480 C   0  0  0  0  0  3  0  0  0  0  0  0
  188.7030  177.6780  139.1990 C   0  0  0  0  0  0  0  0  0  0  0  0
  185.1620  179.3030  142.6660 C   0  0  2  0  0  3  0  0  0  0  0  0
  182.7980  179.4430  138.3290 C   0  0  0  0  0  2  0  0  0  0  0  0
  181.5400  181.5980  138.3420 C   0  0  0  0  0  1  0  0  0  0  0  0
  181.6880  180.2380  138.9980 C   0  0  0  0  0  2  0  0  0  0  0  0
  1  4  1  0  0  0  0
  2 19  1  0  0  0  0
  3 10  1  0  0  0  0
  4 20  2  0  0  0  0
  4 12  1  0  0  0  0
  5  1  1  0  0  0  0
  5 11  1  0  0  0  0
  7 15  1  1  0  0  0
  8  6  1  6  0  0  0
  8 12  1  0  0  0  0
  9  7  1  0  0  0  0
  9 14  1  1  0  0  0
 10 21  1  6  0  0  0
 11 28  1  6  0  0  0
 11  8  1  0  0  0  0
 12 27  1  0  0  0  0
 13  2  2  0  0  0  0
 13 18  1  0  0  0  0
 14 23  1  0  0  0  0
 15 23  1  0  0  0  0
 16  2  1  0  0  0  0
 17 20  1  0  0  0  0
 17  3  1  0  0  0  0
 18 25  2  0  0  0  0
 19  1  2  0  0  0  0
 19 26  1  0  0  0  0
 22 20  1  6  0  0  0
 22 10  1  0  0  0  0
 22  9  1  0  0  0  0
 25 26  1  0  0  0  0
 26 17  2  0  0  0  0
 27 24  1  6  0  0  0
 27  7  1  0  0  0  0
 28 30  1  0  0  0  0
 29 30  1  0  0  0  0
M  END
>  <MODEL>
5

>  <REMARK>
 VINA RESULT:      -7.9      1.845      5.661
  Name = 
  2 active torsions:
  status: ('A' for Active; 'I' for Inactive)
    1  A    between atoms: C_11  and  C_28
    2  A    between atoms: C_28  and  C_30
                            x       y       z     vdW  Elec       q    Type
                         _______ _______ _______ _____ _____    ______ ____

>  <TORSDO>
F 2

$$$$
=
 OpenBabel11122410313D

 30 35  0  0  1  0  0  0  0  0999 V2000
  186.7300  178.4530  142.0510 C   0  0  0  0  0  0  0  0  0  0  0  0
  185.3900  178.6990  139.9610 C   0  0  0  0  0  0  0  0  0  0  0  0
  190.0750  177.1300  139.8980 N   0  0  0  0  0  2  0  0  0  0  0  0
  187.9480  178.0900  142.6730 C   0  0  0  0  0  0  0  0  0  0  0  0
  185.6500  178.8980  142.8830 N   0  0  0  0  0  2  0  0  0  0  0  0
  186.1800  176.8100  145.0350 C   0  0  0  0  0  1  0  0  0  0  0  0
  190.0150  176.6700  144.6510 C   0  0  1  0  0  3  0  0  0  0  0  0
  186.8250  178.1870  144.9220 C   0  0  2  0  0  3  0  0  0  0  0  0
  190.3160  176.1980  143.2800 N   0  0  2  0  0  0  0  0  0  0  0  0
  191.0460  176.8580  140.9540 C   0  0  1  0  0  3  0  0  0  0  0  0
  185.8750  179.2140  144.2920 C   0  0  2  0  0  3  0  0  0  0  0  0
  188.0410  178.0910  144.1140 N   0  0  0  0  0  0  0  0  0  0  0  0
  185.3140  178.5890  138.5680 C   0  0  0  0  0  3  0  0  0  0  0  0
  191.6220  175.5340  143.3790 C   0  0  0  0  0  2  0  0  0  0  0  0
  191.2660  176.5750  145.4880 C   0  0  0  0  0  2  0  0  0  0  0  0
  184.2620  179.1370  140.6450 O   0  0  0  0  0  1  0  0  0  0  0  0
  188.8940  177.6050  140.5130 C   0  0  0  0  0  0  0  0  0  0  0  0
  186.4120  178.1550  137.8270 C   0  0  0  0  0  3  0  0  0  0  0  0
  186.5910  178.3670  140.6360 C   0  0  0  0  0  0  0  0  0  0  0  0
  189.0200  177.6940  141.8690 C   0  0  0  0  0  0  0  0  0  0  0  0
  192.3030  177.6700  140.7080 C   0  0  0  0  0  1  0  0  0  0  0  0
  190.3950  177.2930  142.2960 C   0  0  1  0  0  3  0  0  0  0  0  0
  192.0370  175.4710  144.8320 C   0  0  0  0  0  2  0  0  0  0  0  0
  190.1380  179.1060  144.4550 O   0  0  0  0  0  1  0  0  0  0  0  0
  187.6040  177.8250  138.4700 C   0  0  0  0  0  3  0  0  0  0  0  0
  187.7030  177.9290  139.8610 C   0  0  0  0  0  0  0  0  0  0  0  0
  189.3170  178.0350  144.8200 C   0  0  2  0  0  3  0  0  0  0  0  0
  184.5520  179.3250  145.0440 C   0  0  0  0  0  2  0  0  0  0  0  0
  182.2860  178.6200  144.2750 C   0  0  0  0  0  1  0  0  0  0  0  0
  183.4040  179.6290  144.0940 C   0  0  0  0  0  2  0  0  0  0  0  0
  1  4  1  0  0  0  0
  1  5  1  0  0  0  0
  2 19  1  0  0  0  0
  2 16  1  0  0  0  0
  3 17  1  0  0  0  0
  3 10  1  0  0  0  0
  4 12  1  0  0  0  0
  5 11  1  0  0  0  0
  7 27  1  0  0  0  0
  7 15  1  1  0  0  0
  8  6  1  6  0  0  0
  9 14  1  1  0  0  0
  9  7  1  0  0  0  0
 10 21  1  6  0  0  0
 10 22  1  0  0  0  0
 11  8  1  0  0  0  0
 11 28  1  1  0  0  0
 12 27  1  0  0  0  0
 12  8  1  0  0  0  0
 13  2  2  0  0  0  0
 14 23  1  0  0  0  0
 17 20  1  0  0  0  0
 18 25  2  0  0  0  0
 18 13  1  0  0  0  0
 19  1  2  0  0  0  0
 20  4  2  0  0  0  0
 22 20  1  6  0  0  0
 22  9  1  0  0  0  0
 23 15  1  0  0  0  0
 25 26  1  0  0  0  0
 26 17  2  0  0  0  0
 26 19  1  0  0  0  0
 27 24  1  6  0  0  0
 30 29  1  0  0  0  0
 30 28  1  0  0  0  0
M  END
>  <MODEL>
6

>  <REMARK>
 VINA RESULT:      -7.6      2.161      7.406
  Name = 
  2 active torsions:
  status: ('A' for Active; 'I' for Inactive)
    1  A    between atoms: C_11  and  C_28
    2  A    between atoms: C_28  and  C_30
                            x       y       z     vdW  Elec       q    Type
                         _______ _______ _______ _____ _____    ______ ____

>  <TORSDO>
F 2

$$$$
=
 OpenBabel11122410313D

 30 35  0  0  1  0  0  0  0  0999 V2000
  187.2900  177.9480  142.4800 C   0  0  0  0  0  0  0  0  0  0  0  0
  189.7620  177.6260  142.5720 C   0  0  0  0  0  0  0  0  0  0  0  0
  187.3620  178.2630  138.3010 N   0  0  0  0  0  2  0  0  0  0  0  0
  186.1260  178.1730  141.7070 C   0  0  0  0  0  0  0  0  0  0  0  0
  187.1500  177.8520  143.9040 N   0  0  0  0  0  2  0  0  0  0  0  0
  185.1270  180.1210  144.0630 C   0  0  0  0  0  1  0  0  0  0  0  0
  183.4010  179.4810  140.6740 C   0  0  1  0  0  3  0  0  0  0  0  0
  184.8270  178.6480  143.8090 C   0  0  2  0  0  3  0  0  0  0  0  0
  184.4140  179.6620  139.6080 N   0  0  2  0  0  0  0  0  0  0  0  0
  185.9610  178.5150  137.9750 C   0  0  1  0  0  3  0  0  0  0  0  0
  185.8300  177.7290  144.5180 C   0  0  2  0  0  3  0  0  0  0  0  0
  184.8600  178.3850  142.3700 N   0  0  0  0  0  0  0  0  0  0  0  0
  190.9820  177.5240  141.8940 C   0  0  0  0  0  3  0  0  0  0  0  0
  183.6550  180.0780  138.4220 C   0  0  0  0  0  2  0  0  0  0  0  0
  182.0280  179.4730  140.0490 C   0  0  0  0  0  2  0  0  0  0  0  0
  189.7730  177.5210  143.9580 O   0  0  0  0  0  1  0  0  0  0  0  0
  187.4590  178.1210  139.7030 C   0  0  0  0  0  0  0  0  0  0  0  0
  191.0340  177.6210  140.5050 C   0  0  0  0  0  3  0  0  0  0  0  0
  188.5620  177.8320  141.8490 C   0  0  0  0  0  0  0  0  0  0  0  0
  186.2440  178.2280  140.3160 C   0  0  0  0  0  0  0  0  0  0  0  0
  185.4660  177.4530  137.0110 C   0  0  0  0  0  1  0  0  0  0  0  0
  185.1620  178.4280  139.3050 C   0  0  1  0  0  3  0  0  0  0  0  0
  182.2090  180.2950  138.8100 C   0  0  0  0  0  2  0  0  0  0  0  0
  183.4130  177.0640  141.0640 O   0  0  0  0  0  1  0  0  0  0  0  0
  189.8660  177.8220  139.7730 C   0  0  0  0  0  3  0  0  0  0  0  0
  188.6350  177.9250  140.4290 C   0  0  0  0  0  0  0  0  0  0  0  0
  183.5830  178.3150  141.6670 C   0  0  2  0  0  3  0  0  0  0  0  0
  185.9000  177.9880  146.0190 C   0  0  0  0  0  2  0  0  0  0  0  0
  187.5210  178.2680  147.8950 C   0  0  0  0  0  1  0  0  0  0  0  0
  187.2370  177.5450  146.5920 C   0  0  0  0  0  2  0  0  0  0  0  0
  1  5  1  0  0  0  0
  2 16  1  0  0  0  0
  3 17  1  0  0  0  0
  4 12  1  0  0  0  0
  4  1  2  0  0  0  0
  5 11  1  0  0  0  0
  7 15  1  6  0  0  0
  7 27  1  0  0  0  0
  8  6  1  6  0  0  0
  8 11  1  0  0  0  0
  9 14  1  6  0  0  0
  9  7  1  0  0  0  0
 10 21  1  6  0  0  0
 10  3  1  0  0  0  0
 10 22  1  0  0  0  0
 11 28  1  1  0  0  0
 12  8  1  0  0  0  0
 13  2  1  0  0  0  0
 14 23  1  0  0  0  0
 17 20  2  0  0  0  0
 17 26  1  0  0  0  0
 18 13  2  0  0  0  0
 19  1  1  0  0  0  0
 19  2  2  0  0  0  0
 20  4  1  0  0  0  0
 22  9  1  0  0  0  0
 22 20  1  1  0  0  0
 23 15  1  0  0  0  0
 25 26  2  0  0  0  0
 25 18  1  0  0  0  0
 26 19  1  0  0  0  0
 27 24  1  6  0  0  0
 27 12  1  0  0  0  0
 28 30  1  0  0  0  0
 30 29  1  0  0  0  0
M  END
>  <MODEL>
7

>  <REMARK>
 VINA RESULT:      -7.4      1.838      5.018
  Name = 
  2 active torsions:
  status: ('A' for Active; 'I' for Inactive)
    1  A    between atoms: C_11  and  C_28
    2  A    between atoms: C_28  and  C_30
                            x       y       z     vdW  Elec       q    Type
                         _______ _______ _______ _____ _____    ______ ____

>  <TORSDO>
F 2

$$$$
=
 OpenBabel11122410313D

 30 35  0  0  1  0  0  0  0  0999 V2000
  189.3730  177.3740  141.6130 C   0  0  0  0  0  0  0  0  0  0  0  0
  190.4290  177.5300  139.3580 C   0  0  0  0  0  0  0  0  0  0  0  0
  185.6920  178.7130  140.1190 N   0  0  0  0  0  2  0  0  0  0  0  0
  188.2320  177.5490  142.4300 C   0  0  0  0  0  0  0  0  0  0  0  0
  190.5810  176.9060  142.2270 N   0  0  0  0  0  2  0  0  0  0  0  0
  190.2230  178.6230  144.7150 C   0  0  0  0  0  1  0  0  0  0  0  0
  186.3710  178.5090  144.8420 C   0  0  1  0  0  3  0  0  0  0  0  0
  189.6540  177.2280  144.4800 C   0  0  2  0  0  3  0  0  0  0  0  0
  185.8570  179.1420  143.6050 N   0  0  2  0  0  0  0  0  0  0  0  0
  184.8590  178.7580  141.3170 C   0  0  1  0  0  3  0  0  0  0  0  0
  190.5700  176.3790  143.5900 C   0  0  2  0  0  3  0  0  0  0  0  0
  188.3360  177.3390  143.8550 N   0  0  0  0  0  0  0  0  0  0  0  0
  190.3080  177.8400  137.9990 C   0  0  0  0  0  3  0  0  0  0  0  0
  184.5390  179.6790  143.9650 C   0  0  0  0  0  2  0  0  0  0  0  0
  185.2410  178.3850  145.8340 C   0  0  0  0  0  2  0  0  0  0  0  0
  191.6640  177.0930  139.8220 O   0  0  0  0  0  1  0  0  0  0  0  0
  186.9720  178.2540  140.5030 C   0  0  0  0  0  0  0  0  0  0  0  0
  189.0950  178.2840  137.4750 C   0  0  0  0  0  3  0  0  0  0  0  0
  189.3130  177.6680  140.2200 C   0  0  0  0  0  0  0  0  0  0  0  0
  187.0380  177.9660  141.8350 C   0  0  0  0  0  0  0  0  0  0  0  0
  183.6320  177.8900  141.1130 C   0  0  0  0  0  1  0  0  0  0  0  0
  185.7120  178.1920  142.4870 C   0  0  1  0  0  3  0  0  0  0  0  0
  184.3230  179.5060  145.4530 C   0  0  0  0  0  2  0  0  0  0  0  0
  186.3700  176.1220  144.3020 O   0  0  0  0  0  1  0  0  0  0  0  0
  187.9840  178.4240  138.3050 C   0  0  0  0  0  3  0  0  0  0  0  0
  188.0810  178.1200  139.6660 C   0  0  0  0  0  0  0  0  0  0  0  0
  187.1660  177.1940  144.7160 C   0  0  2  0  0  3  0  0  0  0  0  0
  191.9870  176.2700  144.1440 C   0  0  0  0  0  2  0  0  0  0  0  0
  192.0550  175.9790  146.6210 C   0  0  0  0  0  1  0  0  0  0  0  0
  192.0560  175.2650  145.2830 C   0  0  0  0  0  2  0  0  0  0  0  0
  1  5  1  0  0  0  0
  1  4  1  0  0  0  0
  2 16  1  0  0  0  0
  2 19  1  0  0  0  0
  3 17  1  0  0  0  0
  3 10  1  0  0  0  0
  4 12  1  0  0  0  0
  5 11  1  0  0  0  0
  7 15  1  1  0  0  0
  8  6  1  6  0  0  0
  9 14  1  1  0  0  0
  9  7  1  0  0  0  0
 10 21  1  6  0  0  0
 10 22  1  0  0  0  0
 11 28  1  1  0  0  0
 11  8  1  0  0  0  0
 12  8  1  0  0  0  0
 12 27  1  0  0  0  0
 13  2  2  0  0  0  0
 14 23  1  0  0  0  0
 17 20  1  0  0  0  0
 18 13  1  0  0  0  0
 18 25  2  0  0  0  0
 19  1  2  0  0  0  0
 20  4  2  0  0  0  0
 22 20  1  6  0  0  0
 22  9  1  0  0  0  0
 23 15  1  0  0  0  0
 25 26  1  0  0  0  0
 26 19  1  0  0  0  0
 26 17  2  0  0  0  0
 27 24  1  6  0  0  0
 27  7  1  0  0  0  0
 28 30  1  0  0  0  0
 30 29  1  0  0  0  0
M  END
>  <MODEL>
8

>  <REMARK>
 VINA RESULT:      -7.3      2.062      5.468
  Name = 
  2 active torsions:
  status: ('A' for Active; 'I' for Inactive)
    1  A    between atoms: C_11  and  C_28
    2  A    between atoms: C_28  and  C_30
                            x       y       z     vdW  Elec       q    Type
                         _______ _______ _______ _____ _____    ______ ____

>  <TORSDO>
F 2

$$$$
=
 OpenBabel11122410313D

 30 35  0  0  1  0  0  0  0  0999 V2000
  189.0960  177.6400  140.7930 C   0  0  0  0  0  0  0  0  0  0  0  0
  189.1730  177.5080  143.2830 C   0  0  0  0  0  0  0  0  0  0  0  0
  184.9890  178.4800  140.8410 N   0  0  0  0  0  2  0  0  0  0  0  0
  188.3380  177.8330  139.6140 C   0  0  0  0  0  0  0  0  0  0  0  0
  190.4960  177.3630  140.6620 N   0  0  0  0  0  2  0  0  0  0  0  0
  190.1130  175.5070  138.2780 C   0  0  0  0  0  1  0  0  0  0  0  0
  187.0980  177.3330  136.7130 C   0  0  1  0  0  3  0  0  0  0  0  0
  190.2810  177.0220  138.2370 C   0  0  2  0  0  3  0  0  0  0  0  0
  185.9840  177.2860  137.6870 N   0  0  2  0  0  0  0  0  0  0  0  0
  184.6640  178.5640  139.4200 C   0  0  1  0  0  3  0  0  0  0  0  0
  191.1730  177.5300  139.3770 C   0  0  2  0  0  3  0  0  0  0  0  0
  188.9680  177.6610  138.3250 N   0  0  0  0  0  0  0  0  0  0  0  0
  188.5000  177.5880  144.5070 C   0  0  0  0  0  3  0  0  0  0  0  0
  184.7610  177.3450  136.8770 C   0  0  0  0  0  2  0  0  0  0  0  0
  186.5550  177.7410  135.3660 C   0  0  0  0  0  2  0  0  0  0  0  0
  190.5340  177.2240  143.3020 O   0  0  0  0  0  1  0  0  0  0  0  0
  186.3720  178.2120  140.9500 C   0  0  0  0  0  0  0  0  0  0  0  0
  187.1360  177.8700  144.5520 C   0  0  0  0  0  3  0  0  0  0  0  0
  188.4690  177.7120  142.0700 C   0  0  0  0  0  0  0  0  0  0  0  0
  186.9810  178.1440  139.7310 C   0  0  0  0  0  0  0  0  0  0  0  0
  184.0460  179.9160  139.1210 C   0  0  0  0  0  1  0  0  0  0  0  0
  185.9980  178.4130  138.6380 C   0  0  1  0  0  3  0  0  0  0  0  0
  185.1320  177.2740  135.4120 C   0  0  0  0  0  2  0  0  0  0  0  0
  188.1300  179.5120  137.1350 O   0  0  0  0  0  1  0  0  0  0  0  0
  186.4250  178.0750  143.3720 C   0  0  0  0  0  3  0  0  0  0  0  0
  187.0760  178.0020  142.1370 C   0  0  0  0  0  0  0  0  0  0  0  0
  188.3630  178.1340  137.0840 C   0  0  2  0  0  3  0  0  0  0  0  0
  192.5430  176.8600  139.3910 C   0  0  0  0  0  2  0  0  0  0  0  0
  193.7750  175.3880  137.7970 C   0  0  0  0  0  1  0  0  0  0  0  0
  193.1100  176.7380  137.9850 C   0  0  0  0  0  2  0  0  0  0  0  0
  1 19  1  0  0  0  0
  2 16  1  0  0  0  0
  2 13  1  0  0  0  0
  3 17  1  0  0  0  0
  4 20  1  0  0  0  0
  4  1  2  0  0  0  0
  5  1  1  0  0  0  0
  7 15  1  6  0  0  0
  7 27  1  0  0  0  0
  7  9  1  0  0  0  0
  8  6  1  1  0  0  0
  8 12  1  0  0  0  0
  8 11  1  0  0  0  0
  9 14  1  6  0  0  0
  9 22  1  0  0  0  0
 10 21  1  1  0  0  0
 10  3  1  0  0  0  0
 11 28  1  1  0  0  0
 11  5  1  0  0  0  0
 12  4  1  0  0  0  0
 13 18  2  0  0  0  0
 15 23  1  0  0  0  0
 17 26  1  0  0  0  0
 19 26  1  0  0  0  0
 19  2  2  0  0  0  0
 20 17  2  0  0  0  0
 22 10  1  0  0  0  0
 22 20  1  1  0  0  0
 23 14  1  0  0  0  0
 25 18  1  0  0  0  0
 26 25  2  0  0  0  0
 27 24  1  1  0  0  0
 27 12  1  0  0  0  0
 29 30  1  0  0  0  0
 30 28  1  0  0  0  0
M  END
>  <MODEL>
9

>  <REMARK>
 VINA RESULT:      -7.1      1.907      3.285
  Name = 
  2 active torsions:
  status: ('A' for Active; 'I' for Inactive)
    1  A    between atoms: C_11  and  C_28
    2  A    between atoms: C_28  and  C_30
                            x       y       z     vdW  Elec       q    Type
                         _______ _______ _______ _____ _____    ______ ____

>  <TORSDO>
F 2

$$$$
