=
 OpenBabel11122411513D

 28 32  0  0  1  0  0  0  0  0999 V2000
  183.7590  176.5480  138.4690 C   0  0  0  0  0  0  0  0  0  0  0  0
  186.4850  177.4870  142.0790 O   0  0  0  0  0  0  0  0  0  0  0  0
  179.6440  180.4580  139.6700 O   0  0  0  0  0  0  0  0  0  0  0  0
  185.5610  178.6100  137.8870 C   0  0  0  0  0  3  0  0  0  0  0  0
  180.6000  179.7050  141.9880 C   0  0  2  0  0  3  0  0  0  0  0  0
  182.6830  175.5270  138.6710 C   0  0  0  0  0  2  0  0  0  0  0  0
  185.7750  179.7630  141.4390 O   0  0  0  0  0  0  0  0  0  0  0  0
  185.4690  178.5710  142.3010 S   0  0  0  0  0  0  0  0  0  0  0  0
  184.2600  178.5290  144.7740 C   0  0  1  0  0  3  0  0  0  0  0  0
  183.8180  177.9560  142.0560 C   0  0  1  0  0  3  0  0  0  0  0  0
  178.9310  176.3190  138.2060 C   0  0  0  0  0  1  0  0  0  0  0  0
  181.9760  178.4540  140.6770 C   0  0  2  0  0  3  0  0  0  0  0  0
  182.8760  178.8930  144.1840 C   0  0  0  0  0  2  0  0  0  0  0  0
  185.4640  179.1090  144.0120 C   0  0  0  0  0  2  0  0  0  0  0  0
  180.1990  175.9280  138.9420 C   0  0  2  0  0  3  0  0  0  0  0  0
  183.9870  177.5660  139.4200 C   0  0  0  0  0  0  0  0  0  0  0  0
  179.5490  179.2450  140.5850 S   0  0  2  0  0  0  0  0  0  0  0  0
  184.3200  178.9470  146.2270 C   0  0  0  0  0  1  0  0  0  0  0  0
  180.3530  176.7180  140.1710 N   0  0  0  0  0  2  0  0  0  0  0  0
  184.8630  178.6100  139.0960 C   0  0  0  0  0  3  0  0  0  0  0  0
  184.4590  176.5540  137.2560 C   0  0  0  0  0  3  0  0  0  0  0  0
  185.3670  177.5750  136.9710 C   0  0  0  0  0  3  0  0  0  0  0  0
  181.4050  176.0150  138.0040 C   0  0  0  0  0  2  0  0  0  0  0  0
  181.5840  178.6390  142.0600 N   0  0  1  0  0  0  0  0  0  0  0  0
  180.7470  178.0950  139.8770 C   0  0  2  0  0  3  0  0  0  0  0  0
  182.8650  178.9790  142.6510 C   0  0  2  0  0  3  0  0  0  0  0  0
  179.7620  179.7210  143.2520 C   0  0  0  0  0  1  0  0  0  0  0  0
  183.1960  177.5670  140.7030 C   0  0  1  0  0  3  0  0  0  0  0  0
  1  6  1  0  0  0  0
  1 16  1  0  0  0  0
  2  8  2  0  0  0  0
  3 17  2  0  0  0  0
  4 20  1  0  0  0  0
  5 24  1  0  0  0  0
  5 27  1  1  0  0  0
  7  8  2  0  0  0  0
  8 14  1  0  0  0  0
  9 18  1  1  0  0  0
 10  8  1  6  0  0  0
 10 26  1  0  0  0  0
 11 15  1  0  0  0  0
 12 28  1  0  0  0  0
 12 24  1  0  0  0  0
 13  9  1  0  0  0  0
 14  9  1  0  0  0  0
 15 19  1  0  0  0  0
 16 28  1  0  0  0  0
 17  5  1  0  0  0  0
 20 16  2  0  0  0  0
 21  1  2  0  0  0  0
 22 21  1  0  0  0  0
 22  4  2  0  0  0  0
 23  6  1  0  0  0  0
 23 15  1  0  0  0  0
 24 26  1  0  0  0  0
 25 19  1  0  0  0  0
 25 17  1  0  0  0  0
 25 12  1  0  0  0  0
 26 13  1  0  0  0  0
 28 10  1  0  0  0  0
M  END
>  <MODEL>
1

>  <REMARK>
 VINA RESULT:      -6.5      0.000      0.000
  Name = 
  0 active torsions:
  status: ('A' for Active; 'I' for Inactive)
                            x       y       z     vdW  Elec       q    Type
                         _______ _______ _______ _____ _____    ______ ____

>  <TORSDO>
F 0

$$$$
=
 OpenBabel11122411513D

 28 32  0  0  1  0  0  0  0  0999 V2000
  184.0730  176.0490  137.8060 C   0  0  0  0  0  0  0  0  0  0  0  0
  186.2930  177.7570  141.4800 O   0  0  0  0  0  0  0  0  0  0  0  0
  179.3030  179.3150  138.2950 O   0  0  0  0  0  0  0  0  0  0  0  0
  185.5700  178.3190  137.1380 C   0  0  0  0  0  3  0  0  0  0  0  0
  180.1610  178.9490  140.7410 C   0  0  2  0  0  3  0  0  0  0  0  0
  183.1590  174.8860  138.0380 C   0  0  0  0  0  2  0  0  0  0  0  0
  185.2900  179.8140  140.5550 O   0  0  0  0  0  0  0  0  0  0  0  0
  185.1030  178.6730  141.5140 S   0  0  0  0  0  0  0  0  0  0  0  0
  183.7060  178.6600  143.8860 C   0  0  1  0  0  3  0  0  0  0  0  0
  183.5980  177.7720  141.2190 C   0  0  1  0  0  3  0  0  0  0  0  0
  179.3830  174.9980  137.2290 C   0  0  0  0  0  1  0  0  0  0  0  0
  181.8260  177.8280  139.6690 C   0  0  2  0  0  3  0  0  0  0  0  0
  182.3390  178.7330  143.1650 C   0  0  0  0  0  2  0  0  0  0  0  0
  184.8640  179.3590  143.1540 C   0  0  0  0  0  2  0  0  0  0  0  0
  180.6290  174.8930  138.0900 C   0  0  2  0  0  3  0  0  0  0  0  0
  184.0540  177.1740  138.6580 C   0  0  0  0  0  0  0  0  0  0  0  0
  179.3220  178.1930  139.3240 S   0  0  2  0  0  0  0  0  0  0  0  0
  183.5730  179.2150  145.2880 C   0  0  0  0  0  1  0  0  0  0  0  0
  180.5490  175.8070  139.2370 N   0  0  0  0  0  2  0  0  0  0  0  0
  184.7780  178.3140  138.2880 C   0  0  0  0  0  3  0  0  0  0  0  0
  184.8660  176.0580  136.6510 C   0  0  0  0  0  3  0  0  0  0  0  0
  185.6220  177.1860  136.3250 C   0  0  0  0  0  3  0  0  0  0  0  0
  181.8830  175.0920  137.2350 C   0  0  0  0  0  2  0  0  0  0  0  0
  181.2920  178.0730  140.9940 N   0  0  1  0  0  0  0  0  0  0  0  0
  180.7440  177.1980  138.8270 C   0  0  2  0  0  3  0  0  0  0  0  0
  182.4470  178.6740  141.6350 C   0  0  2  0  0  3  0  0  0  0  0  0
  179.2260  178.9430  141.9340 C   0  0  0  0  0  1  0  0  0  0  0  0
  183.1650  177.1630  139.8750 C   0  0  1  0  0  3  0  0  0  0  0  0
  1  6  1  0  0  0  0
  1 16  1  0  0  0  0
  2  8  2  0  0  0  0
  3 17  2  0  0  0  0
  4 20  1  0  0  0  0
  5 24  1  0  0  0  0
  5 27  1  1  0  0  0
  7  8  2  0  0  0  0
  8 14  1  0  0  0  0
  9 18  1  1  0  0  0
 10  8  1  6  0  0  0
 10 26  1  0  0  0  0
 11 15  1  0  0  0  0
 12 28  1  0  0  0  0
 12 24  1  0  0  0  0
 13  9  1  0  0  0  0
 14  9  1  0  0  0  0
 15 19  1  0  0  0  0
 16 28  1  0  0  0  0
 17  5  1  0  0  0  0
 20 16  2  0  0  0  0
 21  1  2  0  0  0  0
 22 21  1  0  0  0  0
 22  4  2  0  0  0  0
 23  6  1  0  0  0  0
 23 15  1  0  0  0  0
 24 26  1  0  0  0  0
 25 19  1  0  0  0  0
 25 17  1  0  0  0  0
 25 12  1  0  0  0  0
 26 13  1  0  0  0  0
 28 10  1  0  0  0  0
M  END
>  <MODEL>
2

>  <REMARK>
 VINA RESULT:      -6.0      1.149      1.194
  Name = 
  0 active torsions:
  status: ('A' for Active; 'I' for Inactive)
                            x       y       z     vdW  Elec       q    Type
                         _______ _______ _______ _____ _____    ______ ____

>  <TORSDO>
F 0

$$$$
=
 OpenBabel11122411513D

 28 32  0  0  1  0  0  0  0  0999 V2000
  188.4170  177.7660  136.5560 C   0  0  0  0  0  0  0  0  0  0  0  0
  192.5900  175.8310  136.1210 O   0  0  0  0  0  0  0  0  0  0  0  0
  185.5690  172.9440  138.0740 O   0  0  0  0  0  0  0  0  0  0  0  0
  189.7920  177.7320  138.9940 C   0  0  0  0  0  3  0  0  0  0  0  0
  187.4990  172.1550  136.4890 C   0  0  2  0  0  3  0  0  0  0  0  0
  187.5330  177.7670  135.3470 C   0  0  0  0  0  2  0  0  0  0  0  0
  191.7530  174.6650  138.1290 O   0  0  0  0  0  0  0  0  0  0  0  0
  191.8550  174.6240  136.6310 S   0  0  0  0  0  0  0  0  0  0  0  0
  192.0000  172.4130  134.9990 C   0  0  1  0  0  3  0  0  0  0  0  0
  190.2690  174.4630  135.8420 C   0  0  1  0  0  3  0  0  0  0  0  0
  184.0640  176.0680  135.2890 C   0  0  0  0  0  1  0  0  0  0  0  0
  188.0110  174.3720  136.5040 C   0  0  2  0  0  3  0  0  0  0  0  0
  190.5200  172.0370  135.2550 C   0  0  0  0  0  2  0  0  0  0  0  0
  192.7040  173.1120  136.1740 C   0  0  0  0  0  2  0  0  0  0  0  0
  185.5130  176.3080  134.9060 C   0  0  2  0  0  3  0  0  0  0  0  0
  189.1200  176.6060  136.9460 C   0  0  0  0  0  0  0  0  0  0  0  0
  185.8810  172.9660  136.5840 S   0  0  2  0  0  0  0  0  0  0  0  0
  192.7750  171.1770  134.5950 C   0  0  0  0  0  1  0  0  0  0  0  0
  186.2770  175.0550  134.9450 N   0  0  0  0  0  2  0  0  0  0  0  0
  189.7700  176.5930  138.1860 C   0  0  0  0  0  3  0  0  0  0  0  0
  188.4390  178.9050  137.3720 C   0  0  0  0  0  3  0  0  0  0  0  0
  189.1350  178.8920  138.5820 C   0  0  0  0  0  3  0  0  0  0  0  0
  186.1140  177.4180  135.7720 C   0  0  0  0  0  2  0  0  0  0  0  0
  188.3490  173.1330  135.8330 N   0  0  1  0  0  0  0  0  0  0  0  0
  186.5350  174.6270  136.3200 C   0  0  2  0  0  3  0  0  0  0  0  0
  189.7680  173.0560  136.1230 C   0  0  2  0  0  3  0  0  0  0  0  0
  187.3830  170.9110  135.6310 C   0  0  0  0  0  1  0  0  0  0  0  0
  189.0530  175.3760  136.0760 C   0  0  1  0  0  3  0  0  0  0  0  0
  1 16  2  0  0  0  0
  1 21  1  0  0  0  0
  2  8  2  0  0  0  0
  5 27  1  6  0  0  0
  5 17  1  0  0  0  0
  6 23  1  0  0  0  0
  6  1  1  0  0  0  0
  8  7  2  0  0  0  0
  9 18  1  1  0  0  0
  9 13  1  0  0  0  0
  9 14  1  0  0  0  0
 10 28  1  0  0  0  0
 10 26  1  0  0  0  0
 10  8  1  1  0  0  0
 13 26  1  0  0  0  0
 14  8  1  0  0  0  0
 15 19  1  0  0  0  0
 15 11  1  0  0  0  0
 15 23  1  0  0  0  0
 16 20  1  0  0  0  0
 17  3  2  0  0  0  0
 19 25  1  0  0  0  0
 20  4  2  0  0  0  0
 21 22  2  0  0  0  0
 22  4  1  0  0  0  0
 24 26  1  0  0  0  0
 24  5  1  0  0  0  0
 24 12  1  0  0  0  0
 25 12  1  0  0  0  0
 25 17  1  0  0  0  0
 28 12  1  0  0  0  0
 28 16  1  0  0  0  0
M  END
>  <MODEL>
3

>  <REMARK>
 VINA RESULT:      -5.6      6.744      9.324
  Name = 
  0 active torsions:
  status: ('A' for Active; 'I' for Inactive)
                            x       y       z     vdW  Elec       q    Type
                         _______ _______ _______ _____ _____    ______ ____

>  <TORSDO>
F 0

$$$$
=
 OpenBabel11122411513D

 28 32  0  0  1  0  0  0  0  0999 V2000
  186.4090  174.9590  136.6790 C   0  0  0  0  0  0  0  0  0  0  0  0
  182.2880  174.8080  134.5940 O   0  0  0  0  0  0  0  0  0  0  0  0
  184.7830  178.2180  141.1960 O   0  0  0  0  0  0  0  0  0  0  0  0
  184.8500  172.8390  137.6360 C   0  0  0  0  0  3  0  0  0  0  0  0
  183.2750  178.9810  139.1950 C   0  0  2  0  0  3  0  0  0  0  0  0
  187.3110  176.1010  136.3290 C   0  0  0  0  0  2  0  0  0  0  0  0
  181.6130  174.5860  136.9570 O   0  0  0  0  0  0  0  0  0  0  0  0
  181.8660  175.5470  135.8310 S   0  0  0  0  0  0  0  0  0  0  0  0
  180.6550  177.9750  135.3650 C   0  0  1  0  0  3  0  0  0  0  0  0
  183.0510  176.8030  136.2580 C   0  0  1  0  0  3  0  0  0  0  0  0
  188.6010  178.6280  138.9520 C   0  0  0  0  0  1  0  0  0  0  0  0
  184.4110  177.3390  138.1040 C   0  0  2  0  0  3  0  0  0  0  0  0
  181.3760  178.6450  136.5610 C   0  0  0  0  0  2  0  0  0  0  0  0
  180.3590  176.4770  135.5440 C   0  0  0  0  0  2  0  0  0  0  0  0
  187.8410  178.1400  137.7320 C   0  0  2  0  0  3  0  0  0  0  0  0
  185.0410  175.1680  136.9620 C   0  0  0  0  0  0  0  0  0  0  0  0
  184.9310  179.0490  139.9290 S   0  0  2  0  0  0  0  0  0  0  0  0
  179.3740  178.7210  135.0610 C   0  0  0  0  0  1  0  0  0  0  0  0
  186.4510  178.6140  137.7600 N   0  0  0  0  0  2  0  0  0  0  0  0
  184.2870  174.1070  137.4760 C   0  0  0  0  0  3  0  0  0  0  0  0
  186.9700  173.6860  136.8440 C   0  0  0  0  0  3  0  0  0  0  0  0
  186.1900  172.6260  137.3090 C   0  0  0  0  0  3  0  0  0  0  0  0
  187.9670  176.6210  137.6010 C   0  0  0  0  0  2  0  0  0  0  0  0
  183.4960  178.4380  137.8670 N   0  0  1  0  0  0  0  0  0  0  0  0
  185.6580  177.8890  138.7530 C   0  0  2  0  0  3  0  0  0  0  0  0
  182.3840  177.7270  137.2640 C   0  0  2  0  0  3  0  0  0  0  0  0
  182.7180  180.3870  139.0940 C   0  0  0  0  0  1  0  0  0  0  0  0
  184.4620  176.5530  136.8170 C   0  0  1  0  0  3  0  0  0  0  0  0
  1 21  2  0  0  0  0
  1 16  1  0  0  0  0
  2  8  2  0  0  0  0
  5 27  1  6  0  0  0
  5 17  1  0  0  0  0
  6  1  1  0  0  0  0
  6 23  1  0  0  0  0
  8  7  2  0  0  0  0
  9 18  1  1  0  0  0
  9 14  1  0  0  0  0
  9 13  1  0  0  0  0
 10  8  1  1  0  0  0
 10 28  1  0  0  0  0
 10 26  1  0  0  0  0
 12 25  1  0  0  0  0
 13 26  1  0  0  0  0
 14  8  1  0  0  0  0
 15 19  1  0  0  0  0
 15 11  1  0  0  0  0
 16 20  2  0  0  0  0
 17  3  2  0  0  0  0
 19 25  1  0  0  0  0
 20  4  1  0  0  0  0
 21 22  1  0  0  0  0
 22  4  2  0  0  0  0
 23 15  1  0  0  0  0
 24 12  1  0  0  0  0
 24  5  1  0  0  0  0
 25 17  1  0  0  0  0
 26 24  1  0  0  0  0
 28 16  1  0  0  0  0
 28 12  1  0  0  0  0
M  END
>  <MODEL>
4

>  <REMARK>
 VINA RESULT:      -5.3      3.666      6.759
  Name = 
  0 active torsions:
  status: ('A' for Active; 'I' for Inactive)
                            x       y       z     vdW  Elec       q    Type
                         _______ _______ _______ _____ _____    ______ ____

>  <TORSDO>
F 0

$$$$
=
 OpenBabel11122411513D

 28 32  0  0  1  0  0  0  0  0999 V2000
  185.1160  178.8780  144.0210 C   0  0  0  0  0  0  0  0  0  0  0  0
  189.1080  179.2120  141.7180 O   0  0  0  0  0  0  0  0  0  0  0  0
  182.3760  175.5070  140.1750 O   0  0  0  0  0  0  0  0  0  0  0  0
  186.8450  176.7680  144.6510 C   0  0  0  0  0  3  0  0  0  0  0  0
  184.0150  176.9910  138.7710 C   0  0  2  0  0  3  0  0  0  0  0  0
  184.0600  179.8920  143.7090 C   0  0  0  0  0  2  0  0  0  0  0  0
  188.5490  176.8410  141.3220 O   0  0  0  0  0  0  0  0  0  0  0  0
  188.4210  178.2430  140.7990 S   0  0  0  0  0  0  0  0  0  0  0  0
  188.2420  179.0700  138.1790 C   0  0  1  0  0  3  0  0  0  0  0  0
  186.7290  178.7180  140.5240 C   0  0  1  0  0  3  0  0  0  0  0  0
  180.5680  178.9300  142.3640 C   0  0  0  0  0  1  0  0  0  0  0  0
  184.5960  177.7680  140.8300 C   0  0  2  0  0  3  0  0  0  0  0  0
  186.8070  178.5110  138.0250 C   0  0  0  0  0  2  0  0  0  0  0  0
  189.1400  178.2930  139.1570 C   0  0  0  0  0  2  0  0  0  0  0  0
  181.9490  179.5610  142.3530 C   0  0  2  0  0  3  0  0  0  0  0  0
  185.8320  178.2300  142.9910 C   0  0  0  0  0  0  0  0  0  0  0  0
  182.4570  176.9510  139.6970 S   0  0  2  0  0  0  0  0  0  0  0  0
  188.9060  179.1500  136.8220 C   0  0  0  0  0  1  0  0  0  0  0  0
  182.6690  179.2180  141.1190 N   0  0  0  0  0  2  0  0  0  0  0  0
  186.6630  177.1520  143.3210 C   0  0  0  0  0  3  0  0  0  0  0  0
  185.3000  178.4880  145.3540 C   0  0  0  0  0  3  0  0  0  0  0  0
  186.1720  177.4450  145.6690 C   0  0  0  0  0  3  0  0  0  0  0  0
  182.7110  179.1920  143.6280 C   0  0  0  0  0  2  0  0  0  0  0  0
  184.7870  178.0370  139.4180 N   0  0  1  0  0  0  0  0  0  0  0  0
  183.1180  177.8260  141.1310 C   0  0  2  0  0  3  0  0  0  0  0  0
  186.2310  177.9300  139.3240 C   0  0  2  0  0  3  0  0  0  0  0  0
  183.7280  177.3740  137.3330 C   0  0  0  0  0  1  0  0  0  0  0  0
  185.5930  178.6350  141.5590 C   0  0  1  0  0  3  0  0  0  0  0  0
  1 21  1  0  0  0  0
  4 22  1  0  0  0  0
  5 27  1  6  0  0  0
  5 24  1  0  0  0  0
  5 17  1  0  0  0  0
  6  1  1  0  0  0  0
  8  7  2  0  0  0  0
  8  2  2  0  0  0  0
  9 18  1  6  0  0  0
  9 14  1  0  0  0  0
 10  8  1  1  0  0  0
 10 28  1  0  0  0  0
 12 25  1  0  0  0  0
 12 28  1  0  0  0  0
 13  9  1  0  0  0  0
 13 26  1  0  0  0  0
 14  8  1  0  0  0  0
 15 11  1  0  0  0  0
 15 23  1  0  0  0  0
 16 20  1  0  0  0  0
 16  1  2  0  0  0  0
 17  3  2  0  0  0  0
 17 25  1  0  0  0  0
 19 25  1  0  0  0  0
 19 15  1  0  0  0  0
 20  4  2  0  0  0  0
 21 22  2  0  0  0  0
 23  6  1  0  0  0  0
 24 12  1  0  0  0  0
 26 24  1  0  0  0  0
 26 10  1  0  0  0  0
 28 16  1  0  0  0  0
M  END
>  <MODEL>
5

>  <REMARK>
 VINA RESULT:      -5.1      2.457      5.784
  Name = 
  0 active torsions:
  status: ('A' for Active; 'I' for Inactive)
                            x       y       z     vdW  Elec       q    Type
                         _______ _______ _______ _____ _____    ______ ____

>  <TORSDO>
F 0

$$$$
=
 OpenBabel11122411513D

 28 32  0  0  1  0  0  0  0  0999 V2000
  183.1740  178.2490  137.3820 C   0  0  0  0  0  0  0  0  0  0  0  0
  187.5230  179.7080  136.8330 O   0  0  0  0  0  0  0  0  0  0  0  0
  184.4020  172.6100  137.9810 O   0  0  0  0  0  0  0  0  0  0  0  0
  184.3960  178.7850  139.8430 C   0  0  0  0  0  3  0  0  0  0  0  0
  186.2400  173.5670  136.3800 C   0  0  2  0  0  3  0  0  0  0  0  0
  182.4300  177.8360  136.1500 C   0  0  0  0  0  2  0  0  0  0  0  0
  187.8320  178.0020  138.5890 O   0  0  0  0  0  0  0  0  0  0  0  0
  187.8240  178.2620  137.1100 S   0  0  0  0  0  0  0  0  0  0  0  0
  189.2880  176.9950  135.1540 C   0  0  1  0  0  3  0  0  0  0  0  0
  186.6990  177.1980  136.2350 C   0  0  1  0  0  3  0  0  0  0  0  0
  180.9930  174.2820  135.6650 C   0  0  0  0  0  1  0  0  0  0  0  0
  185.1390  175.5190  136.7710 C   0  0  2  0  0  3  0  0  0  0  0  0
  188.4630  175.6910  135.2800 C   0  0  0  0  0  2  0  0  0  0  0  0
  189.4290  177.8010  136.4560 C   0  0  0  0  0  2  0  0  0  0  0  0
  181.8770  175.4860  135.3910 C   0  0  2  0  0  3  0  0  0  0  0  0
  184.4990  177.8200  137.6130 C   0  0  0  0  0  0  0  0  0  0  0  0
  184.5080  173.0560  136.5290 S   0  0  2  0  0  0  0  0  0  0  0  0
  190.6580  176.6770  134.5940 C   0  0  0  0  0  1  0  0  0  0  0  0
  183.2830  175.0820  135.2640 N   0  0  0  0  0  2  0  0  0  0  0  0
  185.0810  178.0640  138.8630 C   0  0  0  0  0  3  0  0  0  0  0  0
  182.4900  178.9700  138.3700 C   0  0  0  0  0  3  0  0  0  0  0  0
  183.1040  179.2480  139.5920 C   0  0  0  0  0  3  0  0  0  0  0  0
  181.6440  176.5670  136.4490 C   0  0  0  0  0  2  0  0  0  0  0  0
  186.1670  174.9450  135.9270 N   0  0  1  0  0  0  0  0  0  0  0  0
  183.8620  174.7410  136.5630 C   0  0  2  0  0  3  0  0  0  0  0  0
  187.2900  175.7990  136.2650 C   0  0  2  0  0  3  0  0  0  0  0  0
  186.9220  172.7120  135.3290 C   0  0  0  0  0  1  0  0  0  0  0  0
  185.2070  177.0110  136.5560 C   0  0  1  0  0  3  0  0  0  0  0  0
  1 16  2  0  0  0  0
  1 21  1  0  0  0  0
  2  8  2  0  0  0  0
  5 27  1  6  0  0  0
  5 17  1  0  0  0  0
  6 23  1  0  0  0  0
  6  1  1  0  0  0  0
  8  7  2  0  0  0  0
  9 18  1  1  0  0  0
  9 13  1  0  0  0  0
  9 14  1  0  0  0  0
 10 26  1  0  0  0  0
 10 28  1  0  0  0  0
 10  8  1  1  0  0  0
 13 26  1  0  0  0  0
 14  8  1  0  0  0  0
 15 11  1  0  0  0  0
 15 23  1  0  0  0  0
 16 20  1  0  0  0  0
 17 25  1  0  0  0  0
 17  3  2  0  0  0  0
 19 15  1  0  0  0  0
 19 25  1  0  0  0  0
 20  4  2  0  0  0  0
 21 22  2  0  0  0  0
 22  4  1  0  0  0  0
 24 26  1  0  0  0  0
 24  5  1  0  0  0  0
 24 12  1  0  0  0  0
 25 12  1  0  0  0  0
 28 12  1  0  0  0  0
 28 16  1  0  0  0  0
M  END
>  <MODEL>
6

>  <REMARK>
 VINA RESULT:      -5.0      4.294      7.073
  Name = 
  0 active torsions:
  status: ('A' for Active; 'I' for Inactive)
                            x       y       z     vdW  Elec       q    Type
                         _______ _______ _______ _____ _____    ______ ____

>  <TORSDO>
F 0

$$$$
=
 OpenBabel11122411513D

 28 32  0  0  1  0  0  0  0  0999 V2000
  180.7950  180.3060  140.1790 C   0  0  0  0  0  0  0  0  0  0  0  0
  185.1610  179.9910  141.6560 O   0  0  0  0  0  0  0  0  0  0  0  0
  180.8710  175.6080  136.7750 O   0  0  0  0  0  0  0  0  0  0  0  0
  180.9970  178.6760  142.4470 C   0  0  0  0  0  3  0  0  0  0  0  0
  183.3100  176.5600  136.7200 C   0  0  2  0  0  3  0  0  0  0  0  0
  180.5530  181.0730  138.9170 C   0  0  0  0  0  2  0  0  0  0  0  0
  184.5000  177.6130  141.6750 O   0  0  0  0  0  0  0  0  0  0  0  0
  185.1190  178.7150  140.8640 S   0  0  0  0  0  0  0  0  0  0  0  0
  187.0460  178.5070  138.9090 C   0  0  1  0  0  3  0  0  0  0  0  0
  184.2980  178.9600  139.3050 C   0  0  1  0  0  3  0  0  0  0  0  0
  178.9410  179.4910  135.7820 C   0  0  0  0  0  1  0  0  0  0  0  0
  182.4320  178.0710  138.1770 C   0  0  2  0  0  3  0  0  0  0  0  0
  186.0630  177.8510  137.9090 C   0  0  0  0  0  2  0  0  0  0  0  0
  186.7690  178.1960  140.3890 C   0  0  0  0  0  2  0  0  0  0  0  0
  180.0220  180.1480  136.6220 C   0  0  2  0  0  3  0  0  0  0  0  0
  181.8430  179.3650  140.2730 C   0  0  0  0  0  0  0  0  0  0  0  0
  181.6080  176.7760  136.1350 S   0  0  2  0  0  0  0  0  0  0  0  0
  188.4650  178.1180  138.5570 C   0  0  0  0  0  1  0  0  0  0  0  0
  181.2900  179.4160  136.5070 N   0  0  0  0  0  2  0  0  0  0  0  0
  181.9060  178.5320  141.3970 C   0  0  0  0  0  3  0  0  0  0  0  0
  179.8830  180.4450  141.2340 C   0  0  0  0  0  3  0  0  0  0  0  0
  179.9920  179.6420  142.3700 C   0  0  0  0  0  3  0  0  0  0  0  0
  179.5420  180.3180  138.0650 C   0  0  0  0  0  2  0  0  0  0  0  0
  183.6190  177.8120  137.3870 N   0  0  1  0  0  0  0  0  0  0  0  0
  181.2480  178.1540  137.2440 C   0  0  2  0  0  3  0  0  0  0  0  0
  184.6230  177.7580  138.4330 C   0  0  2  0  0  3  0  0  0  0  0  0
  184.2250  176.3690  135.5260 C   0  0  0  0  0  1  0  0  0  0  0  0
  182.7910  179.1990  139.1120 C   0  0  1  0  0  3  0  0  0  0  0  0
  1 16  2  0  0  0  0
  1 21  1  0  0  0  0
  5 27  1  6  0  0  0
  5 24  1  0  0  0  0
  6  1  1  0  0  0  0
  8  2  2  0  0  0  0
  8  7  2  0  0  0  0
  9 18  1  6  0  0  0
  9 14  1  0  0  0  0
 10  8  1  1  0  0  0
 11 15  1  0  0  0  0
 12 28  1  0  0  0  0
 13 26  1  0  0  0  0
 13  9  1  0  0  0  0
 14  8  1  0  0  0  0
 15 23  1  0  0  0  0
 16 20  1  0  0  0  0
 17  5  1  0  0  0  0
 17  3  2  0  0  0  0
 17 25  1  0  0  0  0
 19 15  1  0  0  0  0
 19 25  1  0  0  0  0
 20  4  2  0  0  0  0
 21 22  2  0  0  0  0
 22  4  1  0  0  0  0
 23  6  1  0  0  0  0
 24 12  1  0  0  0  0
 24 26  1  0  0  0  0
 25 12  1  0  0  0  0
 26 10  1  0  0  0  0
 28 10  1  0  0  0  0
 28 16  1  0  0  0  0
M  END
>  <MODEL>
7

>  <REMARK>
 VINA RESULT:      -4.7      2.881      5.347
  Name = 
  0 active torsions:
  status: ('A' for Active; 'I' for Inactive)
                            x       y       z     vdW  Elec       q    Type
                         _______ _______ _______ _____ _____    ______ ____

>  <TORSDO>
F 0

$$$$
=
 OpenBabel11122411513D

 28 32  0  0  1  0  0  0  0  0999 V2000
  188.2000  177.0200  138.3040 C   0  0  0  0  0  0  0  0  0  0  0  0
  185.5000  173.6220  136.7180 O   0  0  0  0  0  0  0  0  0  0  0  0
  192.5970  176.1970  134.6080 O   0  0  0  0  0  0  0  0  0  0  0  0
  186.5800  177.8950  136.1950 C   0  0  0  0  0  3  0  0  0  0  0  0
  191.5460  173.8290  134.9940 C   0  0  2  0  0  3  0  0  0  0  0  0
  189.1870  176.6680  139.3730 C   0  0  0  0  0  2  0  0  0  0  0  0
  186.4020  174.5150  134.6010 O   0  0  0  0  0  0  0  0  0  0  0  0
  186.5970  173.5080  135.6980 S   0  0  0  0  0  0  0  0  0  0  0  0
  187.7580  171.0170  135.5300 C   0  0  1  0  0  3  0  0  0  0  0  0
  188.1970  173.6340  136.4650 C   0  0  1  0  0  3  0  0  0  0  0  0
  192.9980  177.1290  138.9390 C   0  0  0  0  0  1  0  0  0  0  0  0
  190.0950  175.0150  136.2850 C   0  0  2  0  0  3  0  0  0  0  0  0
  189.1760  171.6120  135.3490 C   0  0  0  0  0  2  0  0  0  0  0  0
  186.6180  171.8750  134.9550 C   0  0  0  0  0  2  0  0  0  0  0  0
  191.6900  176.3830  139.1360 C   0  0  2  0  0  3  0  0  0  0  0  0
  188.0390  176.2060  137.1620 C   0  0  0  0  0  0  0  0  0  0  0  0
  192.5790  175.1390  135.7030 S   0  0  2  0  0  0  0  0  0  0  0  0
  187.7090  169.6280  134.9320 C   0  0  0  0  0  1  0  0  0  0  0  0
  191.5810  175.2630  138.1920 N   0  0  0  0  0  2  0  0  0  0  0  0
  187.2560  176.6770  136.1010 C   0  0  0  0  0  3  0  0  0  0  0  0
  187.5220  178.2430  138.3930 C   0  0  0  0  0  3  0  0  0  0  0  0
  186.7040  178.6730  137.3470 C   0  0  0  0  0  3  0  0  0  0  0  0
  190.5110  177.3560  139.0710 C   0  0  0  0  0  2  0  0  0  0  0  0
  190.4780  173.6550  135.9620 N   0  0  1  0  0  0  0  0  0  0  0  0
  191.3040  175.7330  136.8340 C   0  0  2  0  0  3  0  0  0  0  0  0
  189.2190  173.1420  135.4540 C   0  0  2  0  0  3  0  0  0  0  0  0
  192.3610  172.5560  134.8870 C   0  0  0  0  0  1  0  0  0  0  0  0
  188.8070  174.9120  137.0640 C   0  0  1  0  0  3  0  0  0  0  0  0
  1 21  1  0  0  0  0
  1  6  1  0  0  0  0
  3 17  2  0  0  0  0
  4 22  1  0  0  0  0
  5 27  1  1  0  0  0
  5 17  1  0  0  0  0
  5 24  1  0  0  0  0
  7  8  2  0  0  0  0
  8  2  2  0  0  0  0
  9 18  1  6  0  0  0
 10  8  1  6  0  0  0
 10 28  1  0  0  0  0
 11 15  1  0  0  0  0
 12 25  1  0  0  0  0
 12 28  1  0  0  0  0
 13 26  1  0  0  0  0
 13  9  1  0  0  0  0
 14  9  1  0  0  0  0
 14  8  1  0  0  0  0
 16  1  2  0  0  0  0
 17 25  1  0  0  0  0
 19 15  1  0  0  0  0
 20  4  2  0  0  0  0
 20 16  1  0  0  0  0
 22 21  2  0  0  0  0
 23 15  1  0  0  0  0
 23  6  1  0  0  0  0
 24 12  1  0  0  0  0
 25 19  1  0  0  0  0
 26 24  1  0  0  0  0
 26 10  1  0  0  0  0
 28 16  1  0  0  0  0
M  END
>  <MODEL>
8

>  <REMARK>
 VINA RESULT:      -4.6      7.014     10.470
  Name = 
  0 active torsions:
  status: ('A' for Active; 'I' for Inactive)
                            x       y       z     vdW  Elec       q    Type
                         _______ _______ _______ _____ _____    ______ ____

>  <TORSDO>
F 0

$$$$
=
 OpenBabel11122411513D

 28 32  0  0  1  0  0  0  0  0999 V2000
  189.0040  178.0510  138.8280 C   0  0  0  0  0  0  0  0  0  0  0  0
  193.5610  177.6720  138.1640 O   0  0  0  0  0  0  0  0  0  0  0  0
  187.6380  172.5950  137.4010 O   0  0  0  0  0  0  0  0  0  0  0  0
  190.3040  177.1320  141.1310 C   0  0  0  0  0  3  0  0  0  0  0  0
  189.7300  173.2020  135.9480 C   0  0  2  0  0  3  0  0  0  0  0  0
  188.1710  178.4440  137.6470 C   0  0  0  0  0  2  0  0  0  0  0  0
  193.0700  175.4940  139.2170 O   0  0  0  0  0  0  0  0  0  0  0  0
  193.1960  176.2360  137.9170 S   0  0  0  0  0  0  0  0  0  0  0  0
  193.9860  175.2520  135.4700 C   0  0  1  0  0  3  0  0  0  0  0  0
  191.7320  176.1140  136.9150 C   0  0  1  0  0  3  0  0  0  0  0  0
  185.3330  176.2230  136.2550 C   0  0  0  0  0  1  0  0  0  0  0  0
  189.5870  175.1600  137.0990 C   0  0  2  0  0  3  0  0  0  0  0  0
  192.6720  174.4540  135.2860 C   0  0  0  0  0  2  0  0  0  0  0  0
  194.4470  175.4150  136.9280 C   0  0  0  0  0  2  0  0  0  0  0  0
  186.6580  176.9650  136.2600 C   0  0  2  0  0  3  0  0  0  0  0  0
  190.0060  177.0620  138.7180 C   0  0  0  0  0  0  0  0  0  0  0  0
  187.9470  173.4360  136.1700 S   0  0  2  0  0  0  0  0  0  0  0  0
  195.0870  174.6160  134.6480 C   0  0  0  0  0  1  0  0  0  0  0  0
  187.7480  176.0890  135.8110 N   0  0  0  0  0  2  0  0  0  0  0  0
  190.6180  176.5870  139.8840 C   0  0  0  0  0  3  0  0  0  0  0  0
  188.6900  178.5930  140.0810 C   0  0  0  0  0  3  0  0  0  0  0  0
  189.3480  178.1440  141.2280 C   0  0  0  0  0  3  0  0  0  0  0  0
  186.9060  177.5980  137.6310 C   0  0  0  0  0  2  0  0  0  0  0  0
  190.2730  174.5490  135.9780 N   0  0  1  0  0  0  0  0  0  0  0  0
  188.1020  175.1070  136.8360 C   0  0  2  0  0  3  0  0  0  0  0  0
  191.6510  174.6830  136.4090 C   0  0  2  0  0  3  0  0  0  0  0  0
  189.9840  172.5710  134.5940 C   0  0  0  0  0  1  0  0  0  0  0  0
  190.3030  176.4610  137.3670 C   0  0  1  0  0  3  0  0  0  0  0  0
  1 21  1  0  0  0  0
  4 22  1  0  0  0  0
  5 27  1  6  0  0  0
  5 24  1  0  0  0  0
  5 17  1  0  0  0  0
  6  1  1  0  0  0  0
  8  2  2  0  0  0  0
  8  7  2  0  0  0  0
  9 18  1  6  0  0  0
  9 14  1  0  0  0  0
 10 28  1  0  0  0  0
 10  8  1  1  0  0  0
 11 15  1  0  0  0  0
 12 28  1  0  0  0  0
 13  9  1  0  0  0  0
 13 26  1  0  0  0  0
 14  8  1  0  0  0  0
 15 23  1  0  0  0  0
 16  1  2  0  0  0  0
 16 20  1  0  0  0  0
 17 25  1  0  0  0  0
 17  3  2  0  0  0  0
 19 15  1  0  0  0  0
 19 25  1  0  0  0  0
 20  4  2  0  0  0  0
 21 22  2  0  0  0  0
 23  6  1  0  0  0  0
 24 26  1  0  0  0  0
 24 12  1  0  0  0  0
 25 12  1  0  0  0  0
 26 10  1  0  0  0  0
 28 16  1  0  0  0  0
M  END
>  <MODEL>
9

>  <REMARK>
 VINA RESULT:      -4.6      6.717      9.806
  Name = 
  0 active torsions:
  status: ('A' for Active; 'I' for Inactive)
                            x       y       z     vdW  Elec       q    Type
                         _______ _______ _______ _____ _____    ______ ____

>  <TORSDO>
F 0

$$$$
