=
 OpenBabel11122411143D

 31 35  0  0  1  0  0  0  0  0999 V2000
  181.4430  178.7240  143.5620 C   0  0  0  0  0  0  0  0  0  0  0  0
  181.7900  178.0040  139.8470 C   0  0  2  0  0  3  0  0  0  0  0  0
  181.4000  179.1650  138.9530 C   0  0  0  0  0  0  0  0  0  0  0  0
  180.3110  181.3130  138.6260 C   0  0  0  0  0  0  0  0  0  0  0  0
  182.1110  178.4130  141.2550 C   0  0  0  0  0  0  0  0  0  0  0  0
  182.7270  179.1810  143.8740 C   0  0  0  0  0  3  0  0  0  0  0  0
  180.7020  180.2690  139.4670 C   0  0  0  0  0  3  0  0  0  0  0  0
  184.3810  177.8200  139.4850 C   0  0  1  0  0  3  0  0  0  0  0  0
  180.4960  178.6550  144.5290 F   0  0  0  0  0  0  0  0  0  0  0  0
  182.3430  177.9730  137.0110 N   0  0  0  0  0  2  0  0  0  0  0  0
  179.6170  182.4350  139.1600 N   0  0  0  0  0  1  0  0  0  0  0  0
  184.4240  178.9870  140.4880 C   0  0  0  0  0  2  0  0  0  0  0  0
  182.9670  177.1970  139.2580 C   0  0  2  0  0  3  0  0  0  0  0  0
  181.1330  178.3430  142.2540 C   0  0  0  0  0  3  0  0  0  0  0  0
  180.5980  181.2570  137.2600 C   0  0  0  0  0  3  0  0  0  0  0  0
  183.4030  178.8580  141.5720 C   0  0  0  0  0  0  0  0  0  0  0  0
  183.7060  179.2520  142.8780 C   0  0  0  0  0  3  0  0  0  0  0  0
  182.6600  176.7940  137.8120 C   0  0  0  0  0  2  0  0  0  0  0  0
  181.6560  179.0980  137.5680 C   0  0  0  0  0  0  0  0  0  0  0  0
  181.2680  180.1510  136.7320 C   0  0  0  0  0  3  0  0  0  0  0  0
  187.1560  177.5310  138.7960 O   0  0  0  0  0  0  0  0  0  0  0  0
  186.3970  178.0870  137.9590 C   0  0  0  0  0  0  0  0  0  0  0  0
  185.0020  178.2380  138.2330 N   0  0  0  0  0  2  0  0  0  0  0  0
  188.8680  176.8600  135.1560 C   0  0  1  0  0  3  0  0  0  0  0  0
  186.5590  177.7090  135.4990 C   0  0  0  0  0  2  0  0  0  0  0  0
  188.9480  179.6990  137.4550 O   0  0  0  0  0  0  0  0  0  0  0  0
  189.7560  175.6350  135.1430 C   0  0  0  0  0  1  0  0  0  0  0  0
  187.4240  176.4540  135.4170 C   0  0  0  0  0  2  0  0  0  0  0  0
  188.4620  178.7560  136.7770 C   0  0  0  0  0  0  0  0  0  0  0  0
  186.9690  178.6010  136.6760 C   0  0  2  0  0  3  0  0  0  0  0  0
  189.3360  177.7960  136.1740 N   0  0  0  0  0  2  0  0  0  0  0  0
  1  6  1  0  0  0  0
  1  9  1  0  0  0  0
  2  3  1  6  0  0  0
  2  5  1  0  0  0  0
  3  7  1  0  0  0  0
  4 11  1  0  0  0  0
  4  7  2  0  0  0  0
  5 16  2  0  0  0  0
  5 14  1  0  0  0  0
  8 23  1  6  0  0  0
  8 12  1  0  0  0  0
 10 19  1  0  0  0  0
 10 18  1  0  0  0  0
 12 16  1  0  0  0  0
 13 18  1  6  0  0  0
 13  8  1  0  0  0  0
 13  2  1  0  0  0  0
 14  1  2  0  0  0  0
 15  4  1  0  0  0  0
 16 17  1  0  0  0  0
 17  6  2  0  0  0  0
 19  3  2  0  0  0  0
 20 15  2  0  0  0  0
 20 19  1  0  0  0  0
 22 23  1  0  0  0  0
 22 21  2  0  0  0  0
 24 27  1  1  0  0  0
 24 28  1  0  0  0  0
 24 31  1  0  0  0  0
 25 30  1  0  0  0  0
 28 25  1  0  0  0  0
 29 26  2  0  0  0  0
 30 29  1  0  0  0  0
 30 22  1  1  0  0  0
 31 29  1  0  0  0  0
M  END
>  <MODEL>
1

>  <REMARK>
 VINA RESULT:      -6.8      0.000      0.000
  Name = 
  2 active torsions:
  status: ('A' for Active; 'I' for Inactive)
    1  A    between atoms: C_5  and  C_30
    2  A    between atoms: C_10  and  N_16
                            x       y       z     vdW  Elec       q    Type
                         _______ _______ _______ _____ _____    ______ ____

>  <TORSDO>
F 2

$$$$
=
 OpenBabel11122411143D

 31 35  0  0  1  0  0  0  0  0999 V2000
  191.8400  176.5880  138.3710 C   0  0  0  0  0  0  0  0  0  0  0  0
  188.4540  177.0410  136.7050 C   0  0  2  0  0  3  0  0  0  0  0  0
  187.6110  175.7810  136.6670 C   0  0  0  0  0  0  0  0  0  0  0  0
  187.3950  173.3690  136.8760 C   0  0  0  0  0  0  0  0  0  0  0  0
  189.5380  177.0050  137.7430 C   0  0  0  0  0  0  0  0  0  0  0  0
  191.5460  176.9440  139.6910 C   0  0  0  0  0  3  0  0  0  0  0  0
  188.1720  174.5280  136.9550 C   0  0  0  0  0  3  0  0  0  0  0  0
  187.1410  178.5860  138.3670 C   0  0  1  0  0  3  0  0  0  0  0  0
  193.0980  176.2110  138.0360 F   0  0  0  0  0  0  0  0  0  0  0  0
  185.6730  177.1140  135.9230 N   0  0  0  0  0  2  0  0  0  0  0  0
  187.9700  172.1050  137.1840 N   0  0  0  0  0  1  0  0  0  0  0  0
  187.8450  177.7320  139.4380 C   0  0  0  0  0  2  0  0  0  0  0  0
  187.5900  178.3040  136.8980 C   0  0  2  0  0  3  0  0  0  0  0  0
  190.8370  176.6150  137.3970 C   0  0  0  0  0  3  0  0  0  0  0  0
  186.0540  173.4510  136.4920 C   0  0  0  0  0  3  0  0  0  0  0  0
  189.2470  177.3750  139.0640 C   0  0  0  0  0  0  0  0  0  0  0  0
  190.2480  177.3330  140.0380 C   0  0  0  0  0  3  0  0  0  0  0  0
  186.4650  178.3400  135.8580 C   0  0  0  0  0  2  0  0  0  0  0  0
  186.2660  175.8520  136.2470 C   0  0  0  0  0  0  0  0  0  0  0  0
  185.4910  174.6900  136.1770 C   0  0  0  0  0  3  0  0  0  0  0  0
  185.6220  179.4450  140.6510 O   0  0  0  0  0  0  0  0  0  0  0  0
  185.0000  178.8950  139.7040 C   0  0  0  0  0  0  0  0  0  0  0  0
  185.6970  178.4680  138.5310 N   0  0  0  0  0  2  0  0  0  0  0  0
  182.1490  177.0470  137.7250 C   0  0  1  0  0  3  0  0  0  0  0  0
  183.2020  177.1880  139.9700 C   0  0  0  0  0  2  0  0  0  0  0  0
  182.6820  180.5550  138.5970 O   0  0  0  0  0  0  0  0  0  0  0  0
  182.2080  176.3980  136.3590 C   0  0  0  0  0  1  0  0  0  0  0  0
  183.2320  176.4680  138.6240 C   0  0  0  0  0  2  0  0  0  0  0  0
  182.7970  179.3030  138.6600 C   0  0  0  0  0  0  0  0  0  0  0  0
  183.5250  178.6790  139.8210 C   0  0  2  0  0  3  0  0  0  0  0  0
  182.3040  178.4920  137.5890 N   0  0  0  0  0  2  0  0  0  0  0  0
  1  6  1  0  0  0  0
  2  3  1  1  0  0  0
  2 13  1  0  0  0  0
  2  5  1  0  0  0  0
  3  7  1  0  0  0  0
  4  7  2  0  0  0  0
  4 11  1  0  0  0  0
  5 16  2  0  0  0  0
  6 17  2  0  0  0  0
  8 23  1  6  0  0  0
  8 12  1  0  0  0  0
  9  1  1  0  0  0  0
 10 19  1  0  0  0  0
 13 18  1  6  0  0  0
 13  8  1  0  0  0  0
 14  5  1  0  0  0  0
 14  1  2  0  0  0  0
 15  4  1  0  0  0  0
 16 12  1  0  0  0  0
 16 17  1  0  0  0  0
 18 10  1  0  0  0  0
 19  3  2  0  0  0  0
 20 19  1  0  0  0  0
 20 15  2  0  0  0  0
 22 21  2  0  0  0  0
 23 22  1  0  0  0  0
 24 27  1  6  0  0  0
 24 28  1  0  0  0  0
 26 29  2  0  0  0  0
 28 25  1  0  0  0  0
 29 30  1  0  0  0  0
 30 22  1  6  0  0  0
 30 25  1  0  0  0  0
 31 24  1  0  0  0  0
 31 29  1  0  0  0  0
M  END
>  <MODEL>
2

>  <REMARK>
 VINA RESULT:      -6.5      3.690      7.687
  Name = 
  2 active torsions:
  status: ('A' for Active; 'I' for Inactive)
    1  A    between atoms: C_5  and  C_30
    2  A    between atoms: C_10  and  N_16
                            x       y       z     vdW  Elec       q    Type
                         _______ _______ _______ _____ _____    ______ ____

>  <TORSDO>
F 2

$$$$
=
 OpenBabel11122411143D

 31 35  0  0  1  0  0  0  0  0999 V2000
  187.1010  176.3210  135.9660 C   0  0  0  0  0  0  0  0  0  0  0  0
  190.6480  176.8290  137.2340 C   0  0  2  0  0  3  0  0  0  0  0  0
  190.7470  177.0010  138.7380 C   0  0  0  0  0  0  0  0  0  0  0  0
  189.7130  177.4410  140.8930 C   0  0  0  0  0  0  0  0  0  0  0  0
  189.3740  176.1710  136.7900 C   0  0  0  0  0  0  0  0  0  0  0  0
  187.0080  174.9260  135.9650 C   0  0  0  0  0  3  0  0  0  0  0  0
  189.6040  177.2430  139.5140 C   0  0  0  0  0  3  0  0  0  0  0  0
  191.7970  174.5090  136.8230 C   0  0  1  0  0  3  0  0  0  0  0  0
  186.0450  177.0710  135.5690 F   0  0  0  0  0  0  0  0  0  0  0  0
  193.2000  176.7920  138.5880 N   0  0  0  0  0  2  0  0  0  0  0  0
  188.5450  177.6700  141.6730 N   0  0  0  0  0  1  0  0  0  0  0  0
  190.4330  173.9540  137.2700 C   0  0  0  0  0  2  0  0  0  0  0  0
  191.8580  176.0610  136.6630 C   0  0  2  0  0  3  0  0  0  0  0  0
  188.2820  176.9450  136.3800 C   0  0  0  0  0  3  0  0  0  0  0  0
  190.9680  177.4160  141.5060 C   0  0  0  0  0  3  0  0  0  0  0  0
  189.2840  174.7710  136.7750 C   0  0  0  0  0  0  0  0  0  0  0  0
  188.0980  174.1510  136.3740 C   0  0  0  0  0  3  0  0  0  0  0  0
  193.1650  176.7110  137.1300 C   0  0  0  0  0  2  0  0  0  0  0  0
  192.0140  177.0110  139.3580 C   0  0  0  0  0  0  0  0  0  0  0  0
  192.1160  177.2020  140.7400 C   0  0  0  0  0  3  0  0  0  0  0  0
  194.3240  173.3970  136.0230 O   0  0  0  0  0  0  0  0  0  0  0  0
  194.0660  173.4450  137.2550 C   0  0  0  0  0  0  0  0  0  0  0  0
  192.8360  174.0100  137.7160 N   0  0  0  0  0  2  0  0  0  0  0  0
  197.9700  173.1430  137.6190 C   0  0  1  0  0  3  0  0  0  0  0  0
  195.9540  174.0070  138.7850 C   0  0  0  0  0  2  0  0  0  0  0  0
  195.3020  170.6530  137.4360 O   0  0  0  0  0  0  0  0  0  0  0  0
  199.0450  173.4460  136.5990 C   0  0  0  0  0  1  0  0  0  0  0  0
  197.0730  174.3590  137.8080 C   0  0  0  0  0  2  0  0  0  0  0  0
  195.8470  171.7720  137.6250 C   0  0  0  0  0  0  0  0  0  0  0  0
  195.0530  172.8950  138.2350 C   0  0  2  0  0  3  0  0  0  0  0  0
  197.1920  171.9860  137.1860 N   0  0  0  0  0  2  0  0  0  0  0  0
  1 14  1  0  0  0  0
  2  5  1  1  0  0  0
  2  3  1  0  0  0  0
  3 19  2  0  0  0  0
  3  7  1  0  0  0  0
  4 15  1  0  0  0  0
  4 11  1  0  0  0  0
  6  1  2  0  0  0  0
  6 17  1  0  0  0  0
  7  4  2  0  0  0  0
  8 12  1  0  0  0  0
  8 23  1  1  0  0  0
  9  1  1  0  0  0  0
 10 19  1  0  0  0  0
 13  8  1  0  0  0  0
 13 18  1  1  0  0  0
 13  2  1  0  0  0  0
 14  5  2  0  0  0  0
 16  5  1  0  0  0  0
 16 12  1  0  0  0  0
 17 16  2  0  0  0  0
 18 10  1  0  0  0  0
 19 20  1  0  0  0  0
 20 15  2  0  0  0  0
 21 22  2  0  0  0  0
 22 23  1  0  0  0  0
 24 27  1  6  0  0  0
 24 28  1  0  0  0  0
 26 29  2  0  0  0  0
 28 25  1  0  0  0  0
 29 30  1  0  0  0  0
 30 22  1  6  0  0  0
 30 25  1  0  0  0  0
 31 24  1  0  0  0  0
 31 29  1  0  0  0  0
M  END
>  <MODEL>
3

>  <REMARK>
 VINA RESULT:      -6.4      6.626      9.925
  Name = 
  2 active torsions:
  status: ('A' for Active; 'I' for Inactive)
    1  A    between atoms: C_5  and  C_30
    2  A    between atoms: C_10  and  N_16
                            x       y       z     vdW  Elec       q    Type
                         _______ _______ _______ _____ _____    ______ ____

>  <TORSDO>
F 2

$$$$
=
 OpenBabel11122411143D

 31 35  0  0  1  0  0  0  0  0999 V2000
  187.9550  177.5960  148.6210 C   0  0  0  0  0  0  0  0  0  0  0  0
  187.8890  176.7520  144.9160 C   0  0  2  0  0  3  0  0  0  0  0  0
  186.9960  177.6590  144.0920 C   0  0  0  0  0  0  0  0  0  0  0  0
  185.2270  179.3180  143.9370 C   0  0  0  0  0  0  0  0  0  0  0  0
  188.2900  177.3450  146.2350 C   0  0  0  0  0  0  0  0  0  0  0  0
  189.0530  178.4600  148.6850 C   0  0  0  0  0  3  0  0  0  0  0  0
  186.0730  178.5180  144.7080 C   0  0  0  0  0  3  0  0  0  0  0  0
  190.2970  177.3770  144.0890 C   0  0  1  0  0  3  0  0  0  0  0  0
  187.2590  177.3010  149.7450 F   0  0  0  0  0  0  0  0  0  0  0  0
  187.9370  176.6900  142.0280 N   0  0  0  0  0  2  0  0  0  0  0  0
  184.3050  180.1960  144.5720 N   0  0  0  0  0  1  0  0  0  0  0  0
  190.1250  178.5680  145.0500 C   0  0  0  0  0  2  0  0  0  0  0  0
  189.1480  176.3210  144.1340 C   0  0  2  0  0  3  0  0  0  0  0  0
  187.5710  177.0400  147.3970 C   0  0  0  0  0  3  0  0  0  0  0  0
  185.2830  179.2550  142.5420 C   0  0  0  0  0  3  0  0  0  0  0  0
  189.4000  178.2000  146.3040 C   0  0  0  0  0  0  0  0  0  0  0  0
  189.7720  178.7660  147.5260 C   0  0  0  0  0  3  0  0  0  0  0  0
  188.7510  175.7350  142.7750 C   0  0  0  0  0  2  0  0  0  0  0  0
  187.0230  177.5750  142.6840 C   0  0  0  0  0  0  0  0  0  0  0  0
  186.1790  178.3840  141.9170 C   0  0  0  0  0  3  0  0  0  0  0  0
  192.1370  176.2820  142.1710 O   0  0  0  0  0  0  0  0  0  0  0  0
  191.4770  177.3010  141.8380 C   0  0  0  0  0  0  0  0  0  0  0  0
  190.5280  177.8770  142.7390 N   0  0  0  0  0  2  0  0  0  0  0  0
  191.3470  176.2040  138.0640 C   0  0  1  0  0  3  0  0  0  0  0  0
  190.4200  177.8730  139.6520 C   0  0  0  0  0  2  0  0  0  0  0  0
  194.0360  177.4960  140.1730 O   0  0  0  0  0  0  0  0  0  0  0  0
  191.1920  174.8150  137.4830 C   0  0  0  0  0  1  0  0  0  0  0  0
  190.2030  176.4980  139.0240 C   0  0  0  0  0  2  0  0  0  0  0  0
  192.8600  177.2600  139.7900 C   0  0  0  0  0  0  0  0  0  0  0  0
  191.7010  177.9140  140.4920 C   0  0  2  0  0  3  0  0  0  0  0  0
  192.6350  176.3130  138.7410 N   0  0  0  0  0  2  0  0  0  0  0  0
  1  6  1  0  0  0  0
  1  9  1  0  0  0  0
  2  3  1  6  0  0  0
  2  5  1  0  0  0  0
  3  7  1  0  0  0  0
  4 11  1  0  0  0  0
  4  7  2  0  0  0  0
  5 16  2  0  0  0  0
  5 14  1  0  0  0  0
  8 23  1  6  0  0  0
  8 13  1  0  0  0  0
  8 12  1  0  0  0  0
 10 19  1  0  0  0  0
 10 18  1  0  0  0  0
 12 16  1  0  0  0  0
 13 18  1  6  0  0  0
 13  2  1  0  0  0  0
 14  1  2  0  0  0  0
 15  4  1  0  0  0  0
 16 17  1  0  0  0  0
 17  6  2  0  0  0  0
 19  3  2  0  0  0  0
 20 15  2  0  0  0  0
 20 19  1  0  0  0  0
 22 21  2  0  0  0  0
 22 23  1  0  0  0  0
 24 27  1  1  0  0  0
 24 31  1  0  0  0  0
 24 28  1  0  0  0  0
 25 30  1  0  0  0  0
 28 25  1  0  0  0  0
 29 26  2  0  0  0  0
 29 30  1  0  0  0  0
 30 22  1  1  0  0  0
 31 29  1  0  0  0  0
M  END
>  <MODEL>
4

>  <REMARK>
 VINA RESULT:      -6.3      5.578      7.063
  Name = 
  2 active torsions:
  status: ('A' for Active; 'I' for Inactive)
    1  A    between atoms: C_5  and  C_30
    2  A    between atoms: C_10  and  N_16
                            x       y       z     vdW  Elec       q    Type
                         _______ _______ _______ _____ _____    ______ ____

>  <TORSDO>
F 2

$$$$
=
 OpenBabel11122411143D

 31 35  0  0  1  0  0  0  0  0999 V2000
  191.2920  176.8970  138.2750 C   0  0  0  0  0  0  0  0  0  0  0  0
  187.9980  176.7750  136.3840 C   0  0  2  0  0  3  0  0  0  0  0  0
  187.3150  175.4210  136.4190 C   0  0  0  0  0  0  0  0  0  0  0  0
  187.3750  173.0290  136.8460 C   0  0  0  0  0  0  0  0  0  0  0  0
  189.0050  176.9660  137.4800 C   0  0  0  0  0  0  0  0  0  0  0  0
  190.8680  177.3290  139.5360 C   0  0  0  0  0  3  0  0  0  0  0  0
  188.0010  174.2780  136.8570 C   0  0  0  0  0  3  0  0  0  0  0  0
  186.4000  178.2840  137.8130 C   0  0  1  0  0  3  0  0  0  0  0  0
  192.6050  176.6530  138.0500 F   0  0  0  0  0  0  0  0  0  0  0  0
  185.2880  176.4300  135.4420 N   0  0  0  0  0  2  0  0  0  0  0  0
  188.0740  171.8780  137.3060 N   0  0  0  0  0  1  0  0  0  0  0  0
  187.1260  177.6230  138.9990 C   0  0  0  0  0  2  0  0  0  0  0  0
  186.9780  177.9320  136.4060 C   0  0  2  0  0  3  0  0  0  0  0  0
  190.3620  176.7130  137.2480 C   0  0  0  0  0  3  0  0  0  0  0  0
  186.0630  172.9080  136.3800 C   0  0  0  0  0  3  0  0  0  0  0  0
  188.5830  177.4120  138.7410 C   0  0  0  0  0  0  0  0  0  0  0  0
  189.5130  177.5820  139.7710 C   0  0  0  0  0  3  0  0  0  0  0  0
  185.9300  177.7350  135.3040 C   0  0  0  0  0  2  0  0  0  0  0  0
  186.0030  175.2860  135.9180 C   0  0  0  0  0  0  0  0  0  0  0  0
  185.3790  174.0340  135.9160 C   0  0  0  0  0  3  0  0  0  0  0  0
  184.4380  179.9000  139.1560 O   0  0  0  0  0  0  0  0  0  0  0  0
  184.0480  178.8350  138.6090 C   0  0  0  0  0  0  0  0  0  0  0  0
  184.9720  178.0010  137.9050 N   0  0  0  0  0  2  0  0  0  0  0  0
  180.5240  180.5790  138.5500 C   0  0  1  0  0  3  0  0  0  0  0  0
  181.8510  178.8030  137.4290 C   0  0  0  0  0  2  0  0  0  0  0  0
  182.2540  178.5820  141.0740 O   0  0  0  0  0  0  0  0  0  0  0  0
  180.1940  182.0550  138.5820 C   0  0  0  0  0  1  0  0  0  0  0  0
  181.4740  180.2830  137.3980 C   0  0  0  0  0  2  0  0  0  0  0  0
  181.9730  179.0410  139.9350 C   0  0  0  0  0  0  0  0  0  0  0  0
  182.6090  178.4400  138.7110 C   0  0  2  0  0  3  0  0  0  0  0  0
  181.1110  180.1780  139.8240 N   0  0  0  0  0  2  0  0  0  0  0  0
  1  6  1  0  0  0  0
  2 13  1  0  0  0  0
  2  3  1  1  0  0  0
  2  5  1  0  0  0  0
  3  7  1  0  0  0  0
  4  7  2  0  0  0  0
  4 11  1  0  0  0  0
  5 16  2  0  0  0  0
  6 17  2  0  0  0  0
  8 23  1  6  0  0  0
  8 12  1  0  0  0  0
  9  1  1  0  0  0  0
 10 19  1  0  0  0  0
 13 18  1  6  0  0  0
 13  8  1  0  0  0  0
 14  5  1  0  0  0  0
 14  1  2  0  0  0  0
 15  4  1  0  0  0  0
 16 12  1  0  0  0  0
 16 17  1  0  0  0  0
 18 10  1  0  0  0  0
 19  3  2  0  0  0  0
 20 19  1  0  0  0  0
 20 15  2  0  0  0  0
 22 21  2  0  0  0  0
 23 22  1  0  0  0  0
 24 27  1  1  0  0  0
 24 31  1  0  0  0  0
 25 30  1  0  0  0  0
 28 25  1  0  0  0  0
 28 24  1  0  0  0  0
 29 26  2  0  0  0  0
 30 22  1  6  0  0  0
 30 29  1  0  0  0  0
 31 29  1  0  0  0  0
M  END
>  <MODEL>
5

>  <REMARK>
 VINA RESULT:      -6.0      3.648      8.049
  Name = 
  2 active torsions:
  status: ('A' for Active; 'I' for Inactive)
    1  A    between atoms: C_5  and  C_30
    2  A    between atoms: C_10  and  N_16
                            x       y       z     vdW  Elec       q    Type
                         _______ _______ _______ _____ _____    ______ ____

>  <TORSDO>
F 2

$$$$
=
 OpenBabel11122411143D

 31 35  0  0  1  0  0  0  0  0999 V2000
  179.7720  178.7190  143.2410 C   0  0  0  0  0  0  0  0  0  0  0  0
  182.6590  179.5110  140.9000 C   0  0  2  0  0  3  0  0  0  0  0  0
  184.0060  179.0200  141.3930 C   0  0  0  0  0  0  0  0  0  0  0  0
  185.4340  178.1810  143.1720 C   0  0  0  0  0  0  0  0  0  0  0  0
  181.4960  178.8120  141.5430 C   0  0  0  0  0  0  0  0  0  0  0  0
  179.3300  177.4960  142.7270 C   0  0  0  0  0  3  0  0  0  0  0  0
  184.1780  178.5910  142.7180 C   0  0  0  0  0  3  0  0  0  0  0  0
  182.2030  177.9940  138.8100 C   0  0  1  0  0  3  0  0  0  0  0  0
  179.1520  179.2650  144.3150 F   0  0  0  0  0  0  0  0  0  0  0  0
  184.9890  179.5400  139.1910 N   0  0  0  0  0  2  0  0  0  0  0  0
  185.5940  177.7330  144.5130 N   0  0  0  0  0  1  0  0  0  0  0  0
  181.7690  176.9670  139.8720 C   0  0  0  0  0  2  0  0  0  0  0  0
  182.5400  179.4140  139.3650 C   0  0  2  0  0  3  0  0  0  0  0  0
  180.8560  179.3760  142.6520 C   0  0  0  0  0  3  0  0  0  0  0  0
  186.5340  178.2130  142.3120 C   0  0  0  0  0  3  0  0  0  0  0  0
  181.0430  177.5920  141.0190 C   0  0  0  0  0  0  0  0  0  0  0  0
  179.9680  176.9300  141.6190 C   0  0  0  0  0  3  0  0  0  0  0  0
  183.7350  180.1040  138.6970 C   0  0  0  0  0  2  0  0  0  0  0  0
  185.1280  179.0820  140.5400 C   0  0  0  0  0  0  0  0  0  0  0  0
  186.3820  178.6640  140.9980 C   0  0  0  0  0  3  0  0  0  0  0  0
  182.3470  177.9000  135.9410 O   0  0  0  0  0  0  0  0  0  0  0  0
  183.3010  177.4010  136.5940 C   0  0  0  0  0  0  0  0  0  0  0  0
  183.2990  177.4390  138.0240 N   0  0  0  0  0  2  0  0  0  0  0  0
  185.2880  174.0090  136.6890 C   0  0  1  0  0  3  0  0  0  0  0  0
  183.9740  175.4690  135.1690 C   0  0  0  0  0  2  0  0  0  0  0  0
  186.3050  177.4860  137.1650 O   0  0  0  0  0  0  0  0  0  0  0  0
  185.2230  172.8990  137.7150 C   0  0  0  0  0  1  0  0  0  0  0  0
  183.8960  174.2980  136.1460 C   0  0  0  0  0  2  0  0  0  0  0  0
  185.6000  176.5150  136.7850 C   0  0  0  0  0  0  0  0  0  0  0  0
  184.4350  176.7550  135.8640 C   0  0  2  0  0  3  0  0  0  0  0  0
  185.8680  175.2040  137.2930 N   0  0  0  0  0  2  0  0  0  0  0  0
  1  9  1  0  0  0  0
  2  3  1  1  0  0  0
  2  5  1  0  0  0  0
  3  7  1  0  0  0  0
  4 11  1  0  0  0  0
  5 14  1  0  0  0  0
  6  1  1  0  0  0  0
  7  4  2  0  0  0  0
  8 23  1  1  0  0  0
  8 13  1  0  0  0  0
  8 12  1  0  0  0  0
 10 19  1  0  0  0  0
 12 16  1  0  0  0  0
 13 18  1  6  0  0  0
 13  2  1  0  0  0  0
 14  1  2  0  0  0  0
 15  4  1  0  0  0  0
 16  5  2  0  0  0  0
 16 17  1  0  0  0  0
 17  6  2  0  0  0  0
 18 10  1  0  0  0  0
 19 20  1  0  0  0  0
 19  3  2  0  0  0  0
 20 15  2  0  0  0  0
 21 22  2  0  0  0  0
 22 23  1  0  0  0  0
 24 31  1  0  0  0  0
 24 27  1  1  0  0  0
 25 30  1  0  0  0  0
 25 28  1  0  0  0  0
 28 24  1  0  0  0  0
 29 26  2  0  0  0  0
 29 31  1  0  0  0  0
 30 22  1  1  0  0  0
 30 29  1  0  0  0  0
M  END
>  <MODEL>
6

>  <REMARK>
 VINA RESULT:      -6.0      2.557      4.447
  Name = 
  2 active torsions:
  status: ('A' for Active; 'I' for Inactive)
    1  A    between atoms: C_5  and  C_30
    2  A    between atoms: C_10  and  N_16
                            x       y       z     vdW  Elec       q    Type
                         _______ _______ _______ _____ _____    ______ ____

>  <TORSDO>
F 2

$$$$
=
 OpenBabel11122411143D

 31 35  0  0  1  0  0  0  0  0999 V2000
  180.7080  179.0470  143.1830 C   0  0  0  0  0  0  0  0  0  0  0  0
  180.7370  177.8320  139.5830 C   0  0  2  0  0  3  0  0  0  0  0  0
  180.7940  178.9450  138.5550 C   0  0  0  0  0  0  0  0  0  0  0  0
  180.5700  181.2910  137.9590 C   0  0  0  0  0  0  0  0  0  0  0  0
  181.1970  178.2530  140.9480 C   0  0  0  0  0  0  0  0  0  0  0  0
  182.0720  179.0340  143.4880 C   0  0  0  0  0  3  0  0  0  0  0  0
  180.5560  180.2790  138.9220 C   0  0  0  0  0  3  0  0  0  0  0  0
  183.0750  176.6720  139.3330 C   0  0  1  0  0  3  0  0  0  0  0  0
  179.8090  179.4410  144.1180 F   0  0  0  0  0  0  0  0  0  0  0  0
  181.2180  177.2780  136.7870 N   0  0  0  0  0  2  0  0  0  0  0  0
  180.3420  182.6420  138.3430 N   0  0  0  0  0  1  0  0  0  0  0  0
  183.5530  177.8480  140.2050 C   0  0  0  0  0  2  0  0  0  0  0  0
  181.5300  176.5890  139.1260 C   0  0  2  0  0  3  0  0  0  0  0  0
  180.2690  178.6600  141.9140 C   0  0  0  0  0  3  0  0  0  0  0  0
  180.8060  180.9780  136.6180 C   0  0  0  0  0  3  0  0  0  0  0  0
  182.5640  178.2260  141.2590 C   0  0  0  0  0  0  0  0  0  0  0  0
  183.0010  178.6280  142.5250 C   0  0  0  0  0  3  0  0  0  0  0  0
  181.0850  176.1640  137.7220 C   0  0  0  0  0  2  0  0  0  0  0  0
  180.9970  178.6330  137.1950 C   0  0  0  0  0  0  0  0  0  0  0  0
  181.0180  179.6510  136.2360 C   0  0  0  0  0  3  0  0  0  0  0  0
  184.1470  174.3800  137.9680 O   0  0  0  0  0  0  0  0  0  0  0  0
  184.3270  175.5120  137.4470 C   0  0  0  0  0  0  0  0  0  0  0  0
  183.7970  176.6880  138.0660 N   0  0  0  0  0  2  0  0  0  0  0  0
  187.5550  177.3480  136.1550 C   0  0  1  0  0  3  0  0  0  0  0  0
  186.5380  175.0930  136.3730 C   0  0  0  0  0  2  0  0  0  0  0  0
  184.0500  177.4950  135.1340 O   0  0  0  0  0  0  0  0  0  0  0  0
  188.3800  178.4150  136.8410 C   0  0  0  0  0  1  0  0  0  0  0  0
  187.4340  176.1250  137.0530 C   0  0  0  0  0  2  0  0  0  0  0  0
  185.0980  177.0340  135.6590 C   0  0  0  0  0  0  0  0  0  0  0  0
  185.1120  175.6220  136.1790 C   0  0  2  0  0  3  0  0  0  0  0  0
  186.2380  177.8830  135.8240 N   0  0  0  0  0  2  0  0  0  0  0  0
  1  6  1  0  0  0  0
  1  9  1  0  0  0  0
  2  3  1  6  0  0  0
  2  5  1  0  0  0  0
  3  7  1  0  0  0  0
  4 11  1  0  0  0  0
  4  7  2  0  0  0  0
  5 16  2  0  0  0  0
  5 14  1  0  0  0  0
  8 23  1  6  0  0  0
  8 12  1  0  0  0  0
 10 19  1  0  0  0  0
 10 18  1  0  0  0  0
 12 16  1  0  0  0  0
 13 18  1  6  0  0  0
 13  8  1  0  0  0  0
 13  2  1  0  0  0  0
 14  1  2  0  0  0  0
 15  4  1  0  0  0  0
 16 17  1  0  0  0  0
 17  6  2  0  0  0  0
 19  3  2  0  0  0  0
 20 15  2  0  0  0  0
 20 19  1  0  0  0  0
 22 21  2  0  0  0  0
 22 23  1  0  0  0  0
 24 27  1  1  0  0  0
 24 28  1  0  0  0  0
 25 28  1  0  0  0  0
 26 29  2  0  0  0  0
 29 31  1  0  0  0  0
 29 30  1  0  0  0  0
 30 25  1  0  0  0  0
 30 22  1  1  0  0  0
 31 24  1  0  0  0  0
M  END
>  <MODEL>
7

>  <REMARK>
 VINA RESULT:      -5.9      1.874      2.254
  Name = 
  2 active torsions:
  status: ('A' for Active; 'I' for Inactive)
    1  A    between atoms: C_5  and  C_30
    2  A    between atoms: C_10  and  N_16
                            x       y       z     vdW  Elec       q    Type
                         _______ _______ _______ _____ _____    ______ ____

>  <TORSDO>
F 2

$$$$
=
 OpenBabel11122411143D

 31 35  0  0  1  0  0  0  0  0999 V2000
  183.3170  176.7970  136.5620 C   0  0  0  0  0  0  0  0  0  0  0  0
  187.0080  177.6390  136.8960 C   0  0  2  0  0  3  0  0  0  0  0  0
  187.4420  177.9630  138.3130 C   0  0  0  0  0  0  0  0  0  0  0  0
  186.9080  178.5510  140.6100 C   0  0  0  0  0  0  0  0  0  0  0  0
  185.7240  176.8650  136.8260 C   0  0  0  0  0  0  0  0  0  0  0  0
  183.3410  175.4050  136.6970 C   0  0  0  0  0  3  0  0  0  0  0  0
  186.4960  178.2110  139.3190 C   0  0  0  0  0  3  0  0  0  0  0  0
  188.2150  175.3620  136.4120 C   0  0  1  0  0  3  0  0  0  0  0  0
  182.1400  177.4390  136.3710 F   0  0  0  0  0  0  0  0  0  0  0  0
  189.8010  177.8870  137.5960 N   0  0  0  0  0  2  0  0  0  0  0  0
  185.9400  178.7860  141.6260 N   0  0  0  0  0  1  0  0  0  0  0  0
  187.0430  174.7730  137.2170 C   0  0  0  0  0  2  0  0  0  0  0  0
  188.1100  176.8910  136.1160 C   0  0  2  0  0  3  0  0  0  0  0  0
  184.5070  177.5270  136.6290 C   0  0  0  0  0  3  0  0  0  0  0  0
  188.2690  178.6610  140.9040 C   0  0  0  0  0  3  0  0  0  0  0  0
  185.7480  175.4670  136.9480 C   0  0  0  0  0  0  0  0  0  0  0  0
  184.5550  174.7410  136.8950 C   0  0  0  0  0  3  0  0  0  0  0  0
  189.4330  177.6610  136.2010 C   0  0  0  0  0  2  0  0  0  0  0  0
  188.8140  178.1100  138.6080 C   0  0  0  0  0  0  0  0  0  0  0  0
  189.2200  178.4430  139.9040 C   0  0  0  0  0  3  0  0  0  0  0  0
  190.5580  174.3030  135.1260 O   0  0  0  0  0  0  0  0  0  0  0  0
  190.5970  174.4700  136.3740 C   0  0  0  0  0  0  0  0  0  0  0  0
  189.4710  175.0160  137.0670 N   0  0  0  0  0  2  0  0  0  0  0  0
  194.4310  175.3410  136.3710 C   0  0  1  0  0  3  0  0  0  0  0  0
  192.4340  175.2930  137.8460 C   0  0  0  0  0  2  0  0  0  0  0  0
  192.6010  172.2240  135.8350 O   0  0  0  0  0  0  0  0  0  0  0  0
  195.2200  176.1530  135.3670 C   0  0  0  0  0  1  0  0  0  0  0  0
  193.2560  176.1560  136.8920 C   0  0  0  0  0  2  0  0  0  0  0  0
  192.8190  173.4000  136.2280 C   0  0  0  0  0  0  0  0  0  0  0  0
  191.8270  174.0810  137.1300 C   0  0  2  0  0  3  0  0  0  0  0  0
  193.9700  174.1030  135.7490 N   0  0  0  0  0  2  0  0  0  0  0  0
  1 14  2  0  0  0  0
  1  6  1  0  0  0  0
  2  5  1  1  0  0  0
  2  3  1  0  0  0  0
  3 19  2  0  0  0  0
  3  7  1  0  0  0  0
  4 15  1  0  0  0  0
  4 11  1  0  0  0  0
  5 16  2  0  0  0  0
  6 17  2  0  0  0  0
  7  4  2  0  0  0  0
  8 23  1  1  0  0  0
  8 12  1  0  0  0  0
  9  1  1  0  0  0  0
 10 19  1  0  0  0  0
 13 18  1  1  0  0  0
 13  8  1  0  0  0  0
 13  2  1  0  0  0  0
 14  5  1  0  0  0  0
 16 12  1  0  0  0  0
 17 16  1  0  0  0  0
 18 10  1  0  0  0  0
 19 20  1  0  0  0  0
 20 15  2  0  0  0  0
 21 22  2  0  0  0  0
 22 23  1  0  0  0  0
 24 27  1  6  0  0  0
 24 28  1  0  0  0  0
 26 29  2  0  0  0  0
 28 25  1  0  0  0  0
 29 30  1  0  0  0  0
 30 22  1  6  0  0  0
 30 25  1  0  0  0  0
 31 29  1  0  0  0  0
 31 24  1  0  0  0  0
M  END
>  <MODEL>
8

>  <REMARK>
 VINA RESULT:      -5.8      4.342      6.854
  Name = 
  2 active torsions:
  status: ('A' for Active; 'I' for Inactive)
    1  A    between atoms: C_5  and  C_30
    2  A    between atoms: C_10  and  N_16
                            x       y       z     vdW  Elec       q    Type
                         _______ _______ _______ _____ _____    ______ ____

>  <TORSDO>
F 2

$$$$
=
 OpenBabel11122411143D

 31 35  0  0  1  0  0  0  0  0999 V2000
  191.7770  177.2650  140.7300 C   0  0  0  0  0  0  0  0  0  0  0  0
  189.3740  177.8040  137.8350 C   0  0  2  0  0  3  0  0  0  0  0  0
  188.9410  176.5240  137.1450 C   0  0  0  0  0  0  0  0  0  0  0  0
  189.2290  174.1500  136.7100 C   0  0  0  0  0  0  0  0  0  0  0  0
  189.9100  177.5850  139.2200 C   0  0  0  0  0  0  0  0  0  0  0  0
  190.8910  177.1790  141.8080 C   0  0  0  0  0  3  0  0  0  0  0  0
  189.6100  175.3130  137.3830 C   0  0  0  0  0  3  0  0  0  0  0  0
  187.1720  178.6280  138.9950 C   0  0  1  0  0  3  0  0  0  0  0  0
  193.1110  177.1500  140.9380 F   0  0  0  0  0  0  0  0  0  0  0  0
  187.2290  177.7880  135.8990 N   0  0  0  0  0  2  0  0  0  0  0  0
  189.9050  172.9250  136.9700 N   0  0  0  0  0  1  0  0  0  0  0  0
  187.5520  177.5810  140.0590 C   0  0  0  0  0  2  0  0  0  0  0  0
  188.2380  178.8460  137.8750 C   0  0  2  0  0  3  0  0  0  0  0  0
  191.2880  177.4660  139.4350 C   0  0  0  0  0  3  0  0  0  0  0  0
  188.1870  174.1890  135.7810 C   0  0  0  0  0  3  0  0  0  0  0  0
  189.0240  177.5120  140.3040 C   0  0  0  0  0  0  0  0  0  0  0  0
  189.5150  177.2980  141.5950 C   0  0  0  0  0  3  0  0  0  0  0  0
  187.6660  179.0600  136.4680 C   0  0  0  0  0  2  0  0  0  0  0  0
  187.9130  176.5630  136.1810 C   0  0  0  0  0  0  0  0  0  0  0  0
  187.5310  175.3930  135.5160 C   0  0  0  0  0  3  0  0  0  0  0  0
  184.6640  179.7530  139.8350 O   0  0  0  0  0  0  0  0  0  0  0  0
  184.6430  178.8830  138.9250 C   0  0  0  0  0  0  0  0  0  0  0  0
  185.8600  178.3030  138.4470 N   0  0  0  0  0  2  0  0  0  0  0  0
  180.9500  178.3370  140.1600 C   0  0  1  0  0  3  0  0  0  0  0  0
  182.2880  179.5650  138.4660 C   0  0  0  0  0  2  0  0  0  0  0  0
  183.4310  176.0820  138.7070 O   0  0  0  0  0  0  0  0  0  0  0  0
  180.4080  178.3560  141.5730 C   0  0  0  0  0  1  0  0  0  0  0  0
  181.6890  179.6360  139.8680 C   0  0  0  0  0  2  0  0  0  0  0  0
  182.8630  177.1690  138.9940 C   0  0  0  0  0  0  0  0  0  0  0  0
  183.3310  178.4470  138.3530 C   0  0  2  0  0  3  0  0  0  0  0  0
  181.8310  177.1870  139.9860 N   0  0  0  0  0  2  0  0  0  0  0  0
  1  9  1  0  0  0  0
  1  6  1  0  0  0  0
  2  3  1  1  0  0  0
  2 13  1  0  0  0  0
  2  5  1  0  0  0  0
  3  7  1  0  0  0  0
  4 11  1  0  0  0  0
  4  7  2  0  0  0  0
  5 14  1  0  0  0  0
  5 16  2  0  0  0  0
  8 23  1  6  0  0  0
  8 12  1  0  0  0  0
 10 19  1  0  0  0  0
 10 18  1  0  0  0  0
 12 16  1  0  0  0  0
 13 18  1  6  0  0  0
 13  8  1  0  0  0  0
 14  1  2  0  0  0  0
 15  4  1  0  0  0  0
 16 17  1  0  0  0  0
 17  6  2  0  0  0  0
 19  3  2  0  0  0  0
 20 15  2  0  0  0  0
 20 19  1  0  0  0  0
 22 21  2  0  0  0  0
 23 22  1  0  0  0  0
 24 27  1  1  0  0  0
 25 28  1  0  0  0  0
 26 29  2  0  0  0  0
 28 24  1  0  0  0  0
 29 31  1  0  0  0  0
 30 25  1  0  0  0  0
 30 22  1  1  0  0  0
 30 29  1  0  0  0  0
 31 24  1  0  0  0  0
M  END
>  <MODEL>
9

>  <REMARK>
 VINA RESULT:      -5.8      3.634      8.091
  Name = 
  2 active torsions:
  status: ('A' for Active; 'I' for Inactive)
    1  A    between atoms: C_5  and  C_30
    2  A    between atoms: C_10  and  N_16
                            x       y       z     vdW  Elec       q    Type
                         _______ _______ _______ _____ _____    ______ ____

>  <TORSDO>
F 2

$$$$
