=
 OpenBabel11122410323D

 30 35  0  0  1  0  0  0  0  0999 V2000
  187.5150  177.7660  142.7610 C   0  0  2  0  0  3  0  0  0  0  0  0
  185.1180  178.5730  142.4580 C   0  0  0  0  0  0  0  0  0  0  0  0
  187.2430  178.3530  146.6670 O   0  0  0  0  0  0  0  0  0  0  0  0
  188.6220  177.7930  143.8350 C   0  0  2  0  0  3  0  0  0  0  0  0
  187.8830  178.6370  141.7200 O   0  0  0  0  0  0  0  0  0  0  0  0
  191.1850  177.7900  141.1550 O   0  0  0  0  0  0  0  0  0  0  0  0
  191.1540  176.2500  145.0190 C   0  0  0  0  0  0  0  0  0  0  0  0
  190.0990  177.7730  141.7150 C   0  0  0  0  0  0  0  0  0  0  0  0
  190.6650  177.2520  146.0110 C   0  0  2  0  0  3  0  0  0  0  0  0
  188.5400  178.1210  147.0690 C   0  0  0  0  0  0  0  0  0  0  0  0
  188.8190  177.9450  140.9370 C   0  0  2  0  0  3  0  0  0  0  0  0
  190.0240  177.5130  143.1990 C   0  0  2  0  0  3  0  0  0  0  0  0
  183.8650  178.9030  142.9790 C   0  0  0  0  0  3  0  0  0  0  0  0
  191.4330  176.9050  147.1970 N   0  0  0  0  0  0  0  0  0  0  0  0
  192.0700  175.4640  145.5580 C   0  0  0  0  0  3  0  0  0  0  0  0
  185.3060  178.6590  141.0830 O   0  0  0  0  0  1  0  0  0  0  0  0
  186.8900  177.4280  145.6520 C   0  0  2  0  0  3  0  0  0  0  0  0
  183.6180  178.7880  144.3450 C   0  0  0  0  0  3  0  0  0  0  0  0
  186.1610  178.1530  143.3160 C   0  0  0  0  0  0  0  0  0  0  0  0
  188.2240  176.9260  145.0580 C   0  0  2  0  0  3  0  0  0  0  0  0
  189.0800  178.7270  148.0300 O   0  0  0  0  0  0  0  0  0  0  0  0
  189.1740  177.0400  146.2790 C   0  0  1  0  0  3  0  0  0  0  0  0
  192.2130  175.9060  146.9370 C   0  0  0  0  0  3  0  0  0  0  0  0
  189.9020  174.9710  143.2760 C   0  0  0  0  0  1  0  0  0  0  0  0
  184.6210  178.3260  145.1950 C   0  0  0  0  0  3  0  0  0  0  0  0
  185.8850  177.9970  144.6930 C   0  0  0  0  0  0  0  0  0  0  0  0
  190.7330  176.2080  143.5860 C   0  0  2  0  0  3  0  0  0  0  0  0
  189.0490  178.7020  139.6360 C   0  0  0  0  0  2  0  0  0  0  0  0
  187.1240  178.5510  138.2510 O   0  0  0  0  0  1  0  0  0  0  0  0
  188.3750  177.9830  138.4850 C   0  0  0  0  0  2  0  0  0  0  0  0
  1  5  1  6  0  0  0
  1 19  1  0  0  0  0
  1  4  1  0  0  0  0
  2 13  2  0  0  0  0
  2 19  1  0  0  0  0
  3 10  1  0  0  0  0
  4 20  1  0  0  0  0
  6  8  2  0  0  0  0
  7 15  2  0  0  0  0
  7  9  1  0  0  0  0
  8 12  1  0  0  0  0
  9 22  1  0  0  0  0
  9 14  1  0  0  0  0
 10 21  2  0  0  0  0
 11  8  1  0  0  0  0
 11  5  1  0  0  0  0
 12 27  1  0  0  0  0
 12  4  1  0  0  0  0
 13 18  1  0  0  0  0
 15 23  1  0  0  0  0
 16  2  1  0  0  0  0
 17  3  1  0  0  0  0
 18 25  2  0  0  0  0
 19 26  2  0  0  0  0
 20 17  1  0  0  0  0
 20 22  1  0  0  0  0
 22 10  1  0  0  0  0
 23 14  2  0  0  0  0
 24 27  1  0  0  0  0
 26 25  1  0  0  0  0
 26 17  1  0  0  0  0
 27  7  1  0  0  0  0
 28 11  1  0  0  0  0
 29 30  1  0  0  0  0
 30 28  1  0  0  0  0
M  END
>  <MODEL>
1

>  <REMARK>
 VINA RESULT:     -10.3      0.000      0.000
  Name = 
  2 active torsions:
  status: ('A' for Active; 'I' for Inactive)
    1  A    between atoms: C_11  and  C_28
    2  A    between atoms: C_28  and  C_30
                            x       y       z     vdW  Elec       q    Type
                         _______ _______ _______ _____ _____    ______ ____

>  <TORSDO>
F 2

$$$$
=
 OpenBabel11122410323D

 30 35  0  0  1  0  0  0  0  0999 V2000
  186.1670  178.1080  141.9310 C   0  0  2  0  0  3  0  0  0  0  0  0
  183.9670  178.6720  140.7760 C   0  0  0  0  0  0  0  0  0  0  0  0
  184.6390  179.1930  145.4190 O   0  0  0  0  0  0  0  0  0  0  0  0
  186.8700  178.3680  143.2790 C   0  0  2  0  0  3  0  0  0  0  0  0
  186.8190  178.8570  140.9370 O   0  0  0  0  0  0  0  0  0  0  0  0
  190.1550  178.2080  141.5660 O   0  0  0  0  0  0  0  0  0  0  0  0
  188.9380  177.2070  145.4160 C   0  0  0  0  0  0  0  0  0  0  0  0
  188.9480  178.1800  141.7550 C   0  0  0  0  0  0  0  0  0  0  0  0
  188.1250  178.2910  146.0400 C   0  0  2  0  0  3  0  0  0  0  0  0
  185.7460  179.1230  146.2360 C   0  0  0  0  0  0  0  0  0  0  0  0
  187.9790  178.1420  140.6000 C   0  0  2  0  0  3  0  0  0  0  0  0
  188.4100  178.1180  143.1640 C   0  0  2  0  0  3  0  0  0  0  0  0
  182.6030  178.9670  140.8230 C   0  0  0  0  0  3  0  0  0  0  0  0
  188.4840  178.1700  147.4450 N   0  0  0  0  0  0  0  0  0  0  0  0
  189.6590  176.5770  146.3270 C   0  0  0  0  0  3  0  0  0  0  0  0
  184.5830  178.5860  139.5320 O   0  0  0  0  0  1  0  0  0  0  0  0
  184.6600  178.1150  144.4990 C   0  0  2  0  0  3  0  0  0  0  0  0
  181.9360  179.0190  142.0450 C   0  0  0  0  0  3  0  0  0  0  0  0
  184.6940  178.4560  141.9710 C   0  0  0  0  0  0  0  0  0  0  0  0
  186.1300  177.6450  144.4350 C   0  0  2  0  0  3  0  0  0  0  0  0
  185.9300  179.8950  147.2130 O   0  0  0  0  0  0  0  0  0  0  0  0
  186.6340  177.9990  145.8590 C   0  0  1  0  0  3  0  0  0  0  0  0
  189.3390  177.2120  147.5970 C   0  0  0  0  0  3  0  0  0  0  0  0
  188.3530  175.6080  143.5880 C   0  0  0  0  0  1  0  0  0  0  0  0
  182.6280  178.7580  143.2260 C   0  0  0  0  0  3  0  0  0  0  0  0
  183.9970  178.4660  143.2000 C   0  0  0  0  0  0  0  0  0  0  0  0
  189.0010  176.9380  143.9470 C   0  0  2  0  0  3  0  0  0  0  0  0
  188.5880  178.7320  139.3360 C   0  0  0  0  0  2  0  0  0  0  0  0
  187.2240  178.9540  137.4030 O   0  0  0  0  0  1  0  0  0  0  0  0
  188.0140  178.0510  138.1100 C   0  0  0  0  0  2  0  0  0  0  0  0
  1  5  1  6  0  0  0
  1 19  1  0  0  0  0
  1  4  1  0  0  0  0
  2 13  2  0  0  0  0
  2 19  1  0  0  0  0
  3 10  1  0  0  0  0
  4 20  1  0  0  0  0
  6  8  2  0  0  0  0
  7  9  1  0  0  0  0
  7 15  2  0  0  0  0
  8 12  1  0  0  0  0
  9 14  1  0  0  0  0
 10 21  2  0  0  0  0
 11  5  1  0  0  0  0
 11  8  1  0  0  0  0
 12  4  1  0  0  0  0
 12 27  1  0  0  0  0
 13 18  1  0  0  0  0
 14 23  2  0  0  0  0
 15 23  1  0  0  0  0
 16  2  1  0  0  0  0
 17  3  1  0  0  0  0
 18 25  2  0  0  0  0
 19 26  2  0  0  0  0
 20 17  1  0  0  0  0
 20 22  1  0  0  0  0
 22  9  1  0  0  0  0
 22 10  1  0  0  0  0
 24 27  1  0  0  0  0
 26 25  1  0  0  0  0
 26 17  1  0  0  0  0
 27  7  1  0  0  0  0
 28 11  1  0  0  0  0
 29 30  1  0  0  0  0
 30 28  1  0  0  0  0
M  END
>  <MODEL>
2

>  <REMARK>
 VINA RESULT:      -9.1      1.562      2.270
  Name = 
  2 active torsions:
  status: ('A' for Active; 'I' for Inactive)
    1  A    between atoms: C_11  and  C_28
    2  A    between atoms: C_28  and  C_30
                            x       y       z     vdW  Elec       q    Type
                         _______ _______ _______ _____ _____    ______ ____

>  <TORSDO>
F 2

$$$$
=
 OpenBabel11122410323D

 30 35  0  0  1  0  0  0  0  0999 V2000
  187.7440  178.0490  144.2260 C   0  0  2  0  0  3  0  0  0  0  0  0
  185.2650  178.4940  144.6050 C   0  0  0  0  0  0  0  0  0  0  0  0
  187.1050  177.6630  140.3380 O   0  0  0  0  0  0  0  0  0  0  0  0
  188.6690  177.4930  143.1230 C   0  0  2  0  0  3  0  0  0  0  0  0
  187.6800  177.1090  145.2690 O   0  0  0  0  0  0  0  0  0  0  0  0
  190.9990  176.2650  145.7330 O   0  0  0  0  0  0  0  0  0  0  0  0
  191.5930  177.6280  141.8480 C   0  0  0  0  0  0  0  0  0  0  0  0
  190.0380  176.8020  145.2020 C   0  0  0  0  0  0  0  0  0  0  0  0
  190.6530  176.9840  140.8860 C   0  0  2  0  0  3  0  0  0  0  0  0
  188.3400  177.2430  139.8980 C   0  0  0  0  0  0  0  0  0  0  0  0
  188.8570  177.2670  146.0160 C   0  0  2  0  0  3  0  0  0  0  0  0
  190.0520  177.0650  143.7170 C   0  0  2  0  0  3  0  0  0  0  0  0
  183.9920  178.8070  144.1220 C   0  0  0  0  0  3  0  0  0  0  0  0
  191.4560  176.9180  139.6740 N   0  0  0  0  0  0  0  0  0  0  0  0
  192.7570  177.8760  141.2740 C   0  0  0  0  0  3  0  0  0  0  0  0
  185.4310  178.3290  145.9750 O   0  0  0  0  0  1  0  0  0  0  0  0
  187.2700  178.6440  141.3470 C   0  0  2  0  0  3  0  0  0  0  0  0
  183.7890  179.0250  142.7610 C   0  0  0  0  0  3  0  0  0  0  0  0
  186.3550  178.3610  143.7120 C   0  0  0  0  0  0  0  0  0  0  0  0
  188.6990  178.4440  141.8980 C   0  0  2  0  0  3  0  0  0  0  0  0
  188.4930  176.4510  138.9320 O   0  0  0  0  0  0  0  0  0  0  0  0
  189.4390  177.8870  140.6540 C   0  0  1  0  0  3  0  0  0  0  0  0
  192.6270  177.4190  139.8980 C   0  0  0  0  0  3  0  0  0  0  0  0
  191.1630  179.3530  143.6050 C   0  0  0  0  0  1  0  0  0  0  0  0
  184.8640  178.9480  141.8780 C   0  0  0  0  0  3  0  0  0  0  0  0
  186.1460  178.6290  142.3410 C   0  0  0  0  0  0  0  0  0  0  0  0
  191.2880  177.8680  143.2920 C   0  0  2  0  0  3  0  0  0  0  0  0
  188.7350  176.4930  147.3220 C   0  0  0  0  0  2  0  0  0  0  0  0
  188.9050  178.5710  148.4640 O   0  0  0  0  0  1  0  0  0  0  0  0
  188.1730  177.3860  148.4100 C   0  0  0  0  0  2  0  0  0  0  0  0
  1 19  1  6  0  0  0
  1  5  1  0  0  0  0
  2 16  1  0  0  0  0
  3 17  1  0  0  0  0
  4 12  1  0  0  0  0
  4  1  1  0  0  0  0
  5 11  1  0  0  0  0
  7 27  1  0  0  0  0
  8  6  2  0  0  0  0
  8 11  1  0  0  0  0
  9  7  1  0  0  0  0
 10  3  1  0  0  0  0
 10 22  1  0  0  0  0
 11 28  1  0  0  0  0
 12  8  1  0  0  0  0
 13  2  1  0  0  0  0
 14 23  2  0  0  0  0
 14  9  1  0  0  0  0
 15  7  2  0  0  0  0
 17 20  1  0  0  0  0
 17 26  1  0  0  0  0
 18 13  2  0  0  0  0
 19  2  2  0  0  0  0
 20  4  1  0  0  0  0
 21 10  2  0  0  0  0
 22  9  1  0  0  0  0
 22 20  1  0  0  0  0
 23 15  1  0  0  0  0
 25 26  2  0  0  0  0
 25 18  1  0  0  0  0
 26 19  1  0  0  0  0
 27 24  1  0  0  0  0
 27 12  1  0  0  0  0
 28 30  1  0  0  0  0
 30 29  1  0  0  0  0
M  END
>  <MODEL>
3

>  <REMARK>
 VINA RESULT:      -8.5      2.111      5.303
  Name = 
  2 active torsions:
  status: ('A' for Active; 'I' for Inactive)
    1  A    between atoms: C_11  and  C_28
    2  A    between atoms: C_28  and  C_30
                            x       y       z     vdW  Elec       q    Type
                         _______ _______ _______ _____ _____    ______ ____

>  <TORSDO>
F 2

$$$$
=
 OpenBabel11122410323D

 30 35  0  0  1  0  0  0  0  0999 V2000
  184.7390  178.7430  141.1530 C   0  0  2  0  0  3  0  0  0  0  0  0
  185.1880  178.6280  138.6490 C   0  0  0  0  0  0  0  0  0  0  0  0
  188.2400  177.0440  141.8830 O   0  0  0  0  0  0  0  0  0  0  0  0
  185.2890  178.1370  142.4610 C   0  0  2  0  0  3  0  0  0  0  0  0
  183.4760  178.1820  140.8980 O   0  0  0  0  0  0  0  0  0  0  0  0
  181.9140  178.4040  143.9730 O   0  0  0  0  0  0  0  0  0  0  0  0
  185.7440  178.6280  145.5820 C   0  0  0  0  0  0  0  0  0  0  0  0
  182.8290  178.4870  143.1670 C   0  0  0  0  0  0  0  0  0  0  0  0
  186.6060  177.5030  145.1180 C   0  0  2  0  0  3  0  0  0  0  0  0
  188.1680  176.8440  143.2430 C   0  0  0  0  0  0  0  0  0  0  0  0
  182.5680  178.8570  141.7290 C   0  0  2  0  0  3  0  0  0  0  0  0
  184.2520  178.2810  143.6230 C   0  0  2  0  0  3  0  0  0  0  0  0
  186.0560  178.4400  137.5700 C   0  0  0  0  0  3  0  0  0  0  0  0
  187.4640  177.2820  146.2730 N   0  0  0  0  0  0  0  0  0  0  0  0
  186.0560  178.9810  146.8170 C   0  0  0  0  0  3  0  0  0  0  0  0
  183.8580  178.9350  138.3820 O   0  0  0  0  0  1  0  0  0  0  0  0
  187.6540  178.2930  141.5570 C   0  0  2  0  0  3  0  0  0  0  0  0
  187.4060  178.1750  137.7910 C   0  0  0  0  0  3  0  0  0  0  0  0
  185.6630  178.5160  139.9760 C   0  0  0  0  0  0  0  0  0  0  0  0
  186.7270  178.6450  142.7410 C   0  0  2  0  0  3  0  0  0  0  0  0
  188.7040  175.8630  143.8230 O   0  0  0  0  0  0  0  0  0  0  0  0
  187.4510  177.9470  143.9230 C   0  0  1  0  0  3  0  0  0  0  0  0
  187.1520  178.1110  147.2150 C   0  0  0  0  0  3  0  0  0  0  0  0
  184.9120  180.6320  144.3440 C   0  0  0  0  0  1  0  0  0  0  0  0
  187.8970  178.1130  139.0930 C   0  0  0  0  0  3  0  0  0  0  0  0
  187.0430  178.2920  140.1860 C   0  0  0  0  0  0  0  0  0  0  0  0
  184.6160  179.2080  144.7910 C   0  0  2  0  0  3  0  0  0  0  0  0
  181.1460  178.5120  141.3090 C   0  0  0  0  0  2  0  0  0  0  0  0
  180.0560  180.4910  142.0460 O   0  0  0  0  0  1  0  0  0  0  0  0
  180.3990  179.7680  140.9060 C   0  0  0  0  0  2  0  0  0  0  0  0
  1 19  1  6  0  0  0
  1  4  1  0  0  0  0
  2 19  1  0  0  0  0
  3 10  1  0  0  0  0
  4 20  1  0  0  0  0
  4 12  1  0  0  0  0
  5  1  1  0  0  0  0
  5 11  1  0  0  0  0
  7 15  2  0  0  0  0
  8 12  1  0  0  0  0
  8  6  2  0  0  0  0
  9  7  1  0  0  0  0
  9 14  1  0  0  0  0
 10 21  2  0  0  0  0
 10 22  1  0  0  0  0
 11  8  1  0  0  0  0
 12 27  1  0  0  0  0
 13 18  1  0  0  0  0
 13  2  2  0  0  0  0
 14 23  2  0  0  0  0
 15 23  1  0  0  0  0
 16  2  1  0  0  0  0
 17  3  1  0  0  0  0
 17 20  1  0  0  0  0
 18 25  2  0  0  0  0
 19 26  2  0  0  0  0
 20 22  1  0  0  0  0
 22  9  1  0  0  0  0
 24 27  1  0  0  0  0
 25 26  1  0  0  0  0
 26 17  1  0  0  0  0
 27  7  1  0  0  0  0
 28 11  1  0  0  0  0
 30 28  1  0  0  0  0
 30 29  1  0  0  0  0
M  END
>  <MODEL>
4

>  <REMARK>
 VINA RESULT:      -8.1      2.665      5.872
  Name = 
  2 active torsions:
  status: ('A' for Active; 'I' for Inactive)
    1  A    between atoms: C_11  and  C_28
    2  A    between atoms: C_28  and  C_30
                            x       y       z     vdW  Elec       q    Type
                         _______ _______ _______ _____ _____    ______ ____

>  <TORSDO>
F 2

$$$$
=
 OpenBabel11122410323D

 30 35  0  0  1  0  0  0  0  0999 V2000
  188.3830  177.3860  139.8940 C   0  0  2  0  0  3  0  0  0  0  0  0
  187.5390  177.9230  142.2370 C   0  0  0  0  0  0  0  0  0  0  0  0
  192.1200  177.4490  141.2010 O   0  0  0  0  0  0  0  0  0  0  0  0
  189.7060  177.4170  139.1010 C   0  0  2  0  0  3  0  0  0  0  0  0
  187.5550  178.4170  139.4180 O   0  0  0  0  0  0  0  0  0  0  0  0
  187.7970  178.0600  135.9890 O   0  0  0  0  0  0  0  0  0  0  0  0
  191.3690  176.0630  136.7360 C   0  0  0  0  0  0  0  0  0  0  0  0
  188.0510  177.8400  137.1640 C   0  0  0  0  0  0  0  0  0  0  0  0
  192.2830  176.8670  137.5980 C   0  0  2  0  0  3  0  0  0  0  0  0
  192.8230  177.3310  140.0240 C   0  0  0  0  0  0  0  0  0  0  0  0
  186.9850  177.9470  138.2250 C   0  0  2  0  0  3  0  0  0  0  0  0
  189.4360  177.3920  137.5610 C   0  0  2  0  0  3  0  0  0  0  0  0
  187.7430  178.0290  143.6140 C   0  0  0  0  0  3  0  0  0  0  0  0
  193.5930  176.4740  137.1010 N   0  0  0  0  0  0  0  0  0  0  0  0
  192.0560  175.3360  135.8720 C   0  0  0  0  0  3  0  0  0  0  0  0
  186.2740  178.2000  141.7320 O   0  0  0  0  0  1  0  0  0  0  0  0
  190.9710  176.6210  141.1520 C   0  0  2  0  0  3  0  0  0  0  0  0
  188.9830  177.7170  144.1690 C   0  0  0  0  0  3  0  0  0  0  0  0
  188.5990  177.5310  141.3850 C   0  0  0  0  0  0  0  0  0  0  0  0
  190.7030  176.3630  139.6520 C   0  0  2  0  0  3  0  0  0  0  0  0
  193.9420  177.8770  139.8330 O   0  0  0  0  0  0  0  0  0  0  0  0
  192.1340  176.4420  139.0600 C   0  0  1  0  0  3  0  0  0  0  0  0
  193.4580  175.6190  136.1400 C   0  0  0  0  0  3  0  0  0  0  0  0
  189.2540  174.8640  137.3140 C   0  0  0  0  0  1  0  0  0  0  0  0
  190.0200  177.2810  143.3480 C   0  0  0  0  0  3  0  0  0  0  0  0
  189.8380  177.1740  141.9640 C   0  0  0  0  0  0  0  0  0  0  0  0
  189.8770  176.1460  136.7800 C   0  0  2  0  0  3  0  0  0  0  0  0
  185.8600  178.8810  137.7990 C   0  0  0  0  0  2  0  0  0  0  0  0
  184.5370  179.9630  139.4500 O   0  0  0  0  0  1  0  0  0  0  0  0
  184.6910  178.7650  138.7570 C   0  0  0  0  0  2  0  0  0  0  0  0
  1  5  1  6  0  0  0
  1 19  1  0  0  0  0
  2 13  1  0  0  0  0
  4 20  1  0  0  0  0
  4  1  1  0  0  0  0
  6  8  2  0  0  0  0
  7 27  1  0  0  0  0
  7  9  1  0  0  0  0
  8 12  1  0  0  0  0
  8 11  1  0  0  0  0
  9 22  1  0  0  0  0
 10  3  1  0  0  0  0
 11  5  1  0  0  0  0
 12  4  1  0  0  0  0
 13 18  2  0  0  0  0
 14  9  1  0  0  0  0
 15 23  1  0  0  0  0
 15  7  2  0  0  0  0
 16  2  1  0  0  0  0
 17  3  1  0  0  0  0
 17 26  1  0  0  0  0
 19 26  1  0  0  0  0
 19  2  2  0  0  0  0
 20 17  1  0  0  0  0
 21 10  2  0  0  0  0
 22 20  1  0  0  0  0
 22 10  1  0  0  0  0
 23 14  2  0  0  0  0
 25 18  1  0  0  0  0
 26 25  2  0  0  0  0
 27 24  1  0  0  0  0
 27 12  1  0  0  0  0
 28 11  1  0  0  0  0
 28 30  1  0  0  0  0
 30 29  1  0  0  0  0
M  END
>  <MODEL>
5

>  <REMARK>
 VINA RESULT:      -7.5      3.282      6.317
  Name = 
  2 active torsions:
  status: ('A' for Active; 'I' for Inactive)
    1  A    between atoms: C_11  and  C_28
    2  A    between atoms: C_28  and  C_30
                            x       y       z     vdW  Elec       q    Type
                         _______ _______ _______ _____ _____    ______ ____

>  <TORSDO>
F 2

$$$$
=
 OpenBabel11122410323D

 30 35  0  0  1  0  0  0  0  0999 V2000
  186.6950  178.2940  142.6430 C   0  0  2  0  0  3  0  0  0  0  0  0
  184.2410  178.7860  142.1660 C   0  0  0  0  0  0  0  0  0  0  0  0
  187.2900  177.4420  138.8230 O   0  0  0  0  0  0  0  0  0  0  0  0
  187.8950  177.6070  141.9600 C   0  0  2  0  0  3  0  0  0  0  0  0
  186.2690  177.4870  143.7130 O   0  0  0  0  0  0  0  0  0  0  0  0
  189.2390  176.6990  145.2940 O   0  0  0  0  0  0  0  0  0  0  0  0
  191.0740  177.5820  141.6670 C   0  0  0  0  0  0  0  0  0  0  0  0
  188.5150  177.1690  144.4290 C   0  0  0  0  0  0  0  0  0  0  0  0
  190.4580  176.8280  140.5370 C   0  0  2  0  0  3  0  0  0  0  0  0
  188.5830  176.9700  138.8460 C   0  0  0  0  0  0  0  0  0  0  0  0
  187.1590  177.7320  144.7710 C   0  0  2  0  0  3  0  0  0  0  0  0
  189.0050  177.2510  143.0040 C   0  0  2  0  0  3  0  0  0  0  0  0
  183.1970  179.0410  141.2740 C   0  0  0  0  0  3  0  0  0  0  0  0
  191.5970  176.6150  139.6570 N   0  0  0  0  0  0  0  0  0  0  0  0
  192.3680  177.7570  141.4650 C   0  0  0  0  0  3  0  0  0  0  0  0
  183.9630  178.7870  143.5290 O   0  0  0  0  0  1  0  0  0  0  0  0
  187.1700  178.5380  139.7140 C   0  0  2  0  0  3  0  0  0  0  0  0
  183.4400  179.0930  139.9030 C   0  0  0  0  0  3  0  0  0  0  0  0
  185.5490  178.5440  141.6850 C   0  0  0  0  0  0  0  0  0  0  0  0
  188.3450  178.4030  140.7070 C   0  0  2  0  0  3  0  0  0  0  0  0
  189.0000  176.0670  138.0750 O   0  0  0  0  0  0  0  0  0  0  0  0
  189.4150  177.6980  139.8320 C   0  0  1  0  0  3  0  0  0  0  0  0
  192.6580  177.1370  140.1800 C   0  0  0  0  0  3  0  0  0  0  0  0
  190.1850  179.5070  142.9890 C   0  0  0  0  0  1  0  0  0  0  0  0
  184.7330  178.9080  139.4190 C   0  0  0  0  0  3  0  0  0  0  0  0
  185.7910  178.6450  140.2970 C   0  0  0  0  0  0  0  0  0  0  0  0
  190.3430  177.9950  142.9030 C   0  0  2  0  0  3  0  0  0  0  0  0
  186.6030  177.1210  146.0500 C   0  0  0  0  0  2  0  0  0  0  0  0
  184.9080  178.6130  146.7930 O   0  0  0  0  0  1  0  0  0  0  0  0
  186.2220  178.2140  147.0300 C   0  0  0  0  0  2  0  0  0  0  0  0
  1 19  1  6  0  0  0
  1  5  1  0  0  0  0
  2 16  1  0  0  0  0
  3 10  1  0  0  0  0
  3 17  1  0  0  0  0
  4  1  1  0  0  0  0
  4 12  1  0  0  0  0
  5 11  1  0  0  0  0
  7 27  1  0  0  0  0
  8 11  1  0  0  0  0
  8  6  2  0  0  0  0
  9  7  1  0  0  0  0
 10 22  1  0  0  0  0
 11 28  1  0  0  0  0
 12  8  1  0  0  0  0
 13  2  2  0  0  0  0
 14 23  2  0  0  0  0
 14  9  1  0  0  0  0
 15  7  2  0  0  0  0
 17 26  1  0  0  0  0
 17 20  1  0  0  0  0
 18 13  1  0  0  0  0
 19  2  1  0  0  0  0
 20  4  1  0  0  0  0
 21 10  2  0  0  0  0
 22  9  1  0  0  0  0
 22 20  1  0  0  0  0
 23 15  1  0  0  0  0
 25 18  2  0  0  0  0
 25 26  1  0  0  0  0
 26 19  2  0  0  0  0
 27 24  1  0  0  0  0
 27 12  1  0  0  0  0
 28 30  1  0  0  0  0
 29 30  1  0  0  0  0
M  END
>  <MODEL>
6

>  <REMARK>
 VINA RESULT:      -7.5      2.601      5.444
  Name = 
  2 active torsions:
  status: ('A' for Active; 'I' for Inactive)
    1  A    between atoms: C_11  and  C_28
    2  A    between atoms: C_28  and  C_30
                            x       y       z     vdW  Elec       q    Type
                         _______ _______ _______ _____ _____    ______ ____

>  <TORSDO>
F 2

$$$$
=
 OpenBabel11122410323D

 30 35  0  0  1  0  0  0  0  0999 V2000
  188.1140  178.0270  143.7040 C   0  0  2  0  0  3  0  0  0  0  0  0
  187.5520  178.3320  141.2380 C   0  0  0  0  0  0  0  0  0  0  0  0
  191.2670  175.8360  142.7380 O   0  0  0  0  0  0  0  0  0  0  0  0
  189.0010  177.1290  144.5900 C   0  0  2  0  0  3  0  0  0  0  0  0
  186.7710  177.6700  143.9100 O   0  0  0  0  0  0  0  0  0  0  0  0
  186.5570  177.4880  147.3550 O   0  0  0  0  0  0  0  0  0  0  0  0
  190.6840  176.9720  147.2980 C   0  0  0  0  0  0  0  0  0  0  0  0
  187.0970  177.6170  146.2660 C   0  0  0  0  0  0  0  0  0  0  0  0
  191.0910  175.8640  146.3870 C   0  0  2  0  0  3  0  0  0  0  0  0
  191.6820  175.3950  143.9740 C   0  0  0  0  0  0  0  0  0  0  0  0
  186.3810  178.2760  145.1150 C   0  0  2  0  0  3  0  0  0  0  0  0
  188.5260  177.1690  146.0800 C   0  0  2  0  0  3  0  0  0  0  0  0
  187.8980  178.2520  139.8870 C   0  0  0  0  0  3  0  0  0  0  0  0
  192.2690  175.3350  147.0600 N   0  0  0  0  0  0  0  0  0  0  0  0
  191.4980  177.0510  148.3360 C   0  0  0  0  0  3  0  0  0  0  0  0
  186.2980  178.8320  141.5710 O   0  0  0  0  0  1  0  0  0  0  0  0
  190.8340  177.1830  142.8370 C   0  0  2  0  0  3  0  0  0  0  0  0
  189.1600  177.8000  139.5090 C   0  0  0  0  0  3  0  0  0  0  0  0
  188.4670  177.9200  142.2350 C   0  0  0  0  0  0  0  0  0  0  0  0
  190.5040  177.4090  144.3290 C   0  0  2  0  0  3  0  0  0  0  0  0
  192.2140  174.2690  144.1590 O   0  0  0  0  0  0  0  0  0  0  0  0
  191.4850  176.4250  145.0200 C   0  0  1  0  0  3  0  0  0  0  0  0
  192.4900  176.0030  148.1450 C   0  0  0  0  0  3  0  0  0  0  0  0
  189.8170  179.2540  146.7650 C   0  0  0  0  0  1  0  0  0  0  0  0
  190.0890  177.4400  140.4830 C   0  0  0  0  0  3  0  0  0  0  0  0
  189.7590  177.5070  141.8420 C   0  0  0  0  0  0  0  0  0  0  0  0
  189.4640  177.8140  147.1090 C   0  0  2  0  0  3  0  0  0  0  0  0
  184.8680  178.1790  145.2640 C   0  0  0  0  0  2  0  0  0  0  0  0
  183.4440  178.6290  143.4150 O   0  0  0  0  0  1  0  0  0  0  0  0
  184.1890  179.2400  144.4210 C   0  0  0  0  0  2  0  0  0  0  0  0
  1 19  1  6  0  0  0
  1  5  1  0  0  0  0
  1  4  1  0  0  0  0
  2 16  1  0  0  0  0
  2 19  1  0  0  0  0
  3 17  1  0  0  0  0
  3 10  1  0  0  0  0
  4 12  1  0  0  0  0
  5 11  1  0  0  0  0
  7 15  2  0  0  0  0
  8  6  2  0  0  0  0
  9 14  1  0  0  0  0
  9  7  1  0  0  0  0
 10 21  2  0  0  0  0
 10 22  1  0  0  0  0
 11 28  1  0  0  0  0
 11  8  1  0  0  0  0
 12  8  1  0  0  0  0
 12 27  1  0  0  0  0
 13  2  2  0  0  0  0
 14 23  2  0  0  0  0
 17 20  1  0  0  0  0
 18 13  1  0  0  0  0
 18 25  2  0  0  0  0
 20  4  1  0  0  0  0
 20 22  1  0  0  0  0
 22  9  1  0  0  0  0
 23 15  1  0  0  0  0
 24 27  1  0  0  0  0
 25 26  1  0  0  0  0
 26 19  2  0  0  0  0
 26 17  1  0  0  0  0
 27  7  1  0  0  0  0
 29 30  1  0  0  0  0
 30 28  1  0  0  0  0
M  END
>  <MODEL>
7

>  <REMARK>
 VINA RESULT:      -7.3      1.615      4.716
  Name = 
  2 active torsions:
  status: ('A' for Active; 'I' for Inactive)
    1  A    between atoms: C_11  and  C_28
    2  A    between atoms: C_28  and  C_30
                            x       y       z     vdW  Elec       q    Type
                         _______ _______ _______ _____ _____    ______ ____

>  <TORSDO>
F 2

$$$$
