=
 OpenBabel11122411173D

 31 35  0  0  1  0  0  0  0  0999 V2000
  189.9910  175.9290  142.8120 C   0  0  0  0  0  0  0  0  0  0  0  0
  186.5980  177.0950  144.0830 C   0  0  2  0  0  3  0  0  0  0  0  0
  186.8580  177.8060  145.4060 C   0  0  0  0  0  0  0  0  0  0  0  0
  188.2670  178.1350  147.3670 C   0  0  0  0  0  0  0  0  0  0  0  0
  187.8330  176.9690  143.2170 C   0  0  0  0  0  0  0  0  0  0  0  0
  190.1840  176.7490  141.7000 C   0  0  0  0  0  3  0  0  0  0  0  0
  188.0460  177.5590  146.1140 C   0  0  0  0  0  3  0  0  0  0  0  0
  185.8560  178.9930  142.5890 C   0  0  2  0  0  3  0  0  0  0  0  0
  190.9400  175.0300  143.1640 F   0  0  0  0  0  0  0  0  0  0  0  0
  184.5710  178.9310  145.3200 C   0  0  0  0  0  2  0  0  0  0  0  0
  189.5380  177.8720  148.0900 C   0  0  0  0  0  1  0  0  0  0  0  0
  186.9450  178.6920  141.5600 C   0  0  0  0  0  2  0  0  0  0  0  0
  185.4210  177.7000  143.2970 C   0  0  2  0  0  3  0  0  0  0  0  0
  188.8190  176.0370  143.5650 C   0  0  0  0  0  3  0  0  0  0  0  0
  187.2940  178.9530  147.9400 C   0  0  0  0  0  3  0  0  0  0  0  0
  188.0270  177.7920  142.0830 C   0  0  0  0  0  0  0  0  0  0  0  0
  189.2000  177.6700  141.3310 C   0  0  0  0  0  3  0  0  0  0  0  0
  184.2300  177.9190  144.2310 C   0  0  0  0  0  2  0  0  0  0  0  0
  185.8600  178.6070  146.0140 C   0  0  0  0  0  0  0  0  0  0  0  0
  186.0950  179.1880  147.2640 C   0  0  0  0  0  3  0  0  0  0  0  0
  184.0770  177.6670  140.7970 O   0  0  0  0  0  0  0  0  0  0  0  0
  183.8630  178.8880  141.0350 C   0  0  0  0  0  0  0  0  0  0  0  0
  184.7200  179.6120  141.9190 N   0  0  0  0  0  2  0  0  0  0  0  0
  181.3980  178.2230  138.3220 N   0  0  0  0  0  0  0  0  0  0  0  0
  181.4780  178.9040  140.5810 O   0  0  0  0  0  0  0  0  0  0  0  0
  184.1930  180.5530  138.7460 O   0  0  0  0  0  1  0  0  0  0  0  0
  181.3080  177.0220  137.5110 C   0  0  0  0  0  1  0  0  0  0  0  0
  181.4440  177.7870  139.7160 C   0  0  0  0  0  2  0  0  0  0  0  0
  182.9140  180.0280  138.9380 C   0  0  2  0  0  3  0  0  0  0  0  0
  182.6980  179.5980  140.4000 C   0  0  2  0  0  3  0  0  0  0  0  0
  182.6830  178.8420  138.0120 C   0  0  0  0  0  2  0  0  0  0  0  0
  1  9  1  0  0  0  0
  1 14  1  0  0  0  0
  2  5  1  6  0  0  0
  2  3  1  0  0  0  0
  3 19  2  0  0  0  0
  3  7  1  0  0  0  0
  4 15  1  0  0  0  0
  4 11  1  0  0  0  0
  5 14  2  0  0  0  0
  6  1  2  0  0  0  0
  7  4  2  0  0  0  0
  8 23  1  6  0  0  0
  8 13  1  0  0  0  0
 10 19  1  0  0  0  0
 12 16  1  0  0  0  0
 12  8  1  0  0  0  0
 13  2  1  0  0  0  0
 13 18  1  1  0  0  0
 16  5  1  0  0  0  0
 17  6  1  0  0  0  0
 17 16  2  0  0  0  0
 18 10  1  0  0  0  0
 19 20  1  0  0  0  0
 20 15  2  0  0  0  0
 21 22  2  0  0  0  0
 22 23  1  0  0  0  0
 24 28  1  0  0  0  0
 27 24  1  0  0  0  0
 28 25  1  0  0  0  0
 29 26  1  1  0  0  0
 29 30  1  0  0  0  0
 30 25  1  0  0  0  0
 30 22  1  6  0  0  0
 31 24  1  0  0  0  0
 31 29  1  0  0  0  0
M  END
>  <MODEL>
1

>  <REMARK>
 VINA RESULT:      -9.9      0.000      0.000
  Name = 
  2 active torsions:
  status: ('A' for Active; 'I' for Inactive)
    1  A    between atoms: C_5  and  C_30
    2  A    between atoms: C_10  and  N_16
                            x       y       z     vdW  Elec       q    Type
                         _______ _______ _______ _____ _____    ______ ____

>  <TORSDO>
F 2

$$$$
=
 OpenBabel11122411173D

 31 35  0  0  1  0  0  0  0  0999 V2000
  191.3700  176.7650  145.1740 C   0  0  0  0  0  0  0  0  0  0  0  0
  187.7810  177.0330  143.9350 C   0  0  2  0  0  3  0  0  0  0  0  0
  187.0230  177.8290  144.9910 C   0  0  0  0  0  0  0  0  0  0  0  0
  186.8130  178.5830  147.2990 C   0  0  0  0  0  0  0  0  0  0  0  0
  189.2820  177.2100  144.0140 C   0  0  0  0  0  0  0  0  0  0  0  0
  192.0540  177.5710  144.2630 C   0  0  0  0  0  3  0  0  0  0  0  0
  187.5320  177.9280  146.2960 C   0  0  0  0  0  3  0  0  0  0  0  0
  187.7890  178.6160  141.9670 C   0  0  2  0  0  3  0  0  0  0  0  0
  192.0420  176.1620  146.1830 F   0  0  0  0  0  0  0  0  0  0  0  0
  185.1250  178.3050  143.3540 C   0  0  0  0  0  2  0  0  0  0  0  0
  187.3790  178.6890  148.6690 C   0  0  0  0  0  1  0  0  0  0  0  0
  189.3130  178.5820  141.8650 C   0  0  0  0  0  2  0  0  0  0  0  0
  187.2610  177.2780  142.5080 C   0  0  2  0  0  3  0  0  0  0  0  0
  189.9910  176.5840  145.0480 C   0  0  0  0  0  3  0  0  0  0  0  0
  185.5630  179.1320  147.0150 C   0  0  0  0  0  3  0  0  0  0  0  0
  189.9800  178.0180  143.0860 C   0  0  0  0  0  0  0  0  0  0  0  0
  191.3630  178.1860  143.2170 C   0  0  0  0  0  3  0  0  0  0  0  0
  185.7340  177.2040  142.4910 C   0  0  0  0  0  2  0  0  0  0  0  0
  185.7350  178.3560  144.7230 C   0  0  0  0  0  0  0  0  0  0  0  0
  185.0280  179.0190  145.7310 C   0  0  0  0  0  3  0  0  0  0  0  0
  188.4930  177.2630  139.5580 O   0  0  0  0  0  0  0  0  0  0  0  0
  187.6200  178.1700  139.4840 C   0  0  0  0  0  0  0  0  0  0  0  0
  187.2260  178.8910  140.6520 N   0  0  0  0  0  2  0  0  0  0  0  0
  187.4150  176.6730  136.0780 N   0  0  0  0  0  0  0  0  0  0  0  0
  186.0160  177.5340  137.7740 O   0  0  0  0  0  0  0  0  0  0  0  0
  188.9840  179.6710  137.4820 O   0  0  0  0  0  1  0  0  0  0  0  0
  188.0210  175.4280  135.6440 C   0  0  0  0  0  1  0  0  0  0  0  0
  186.6860  176.3800  137.3100 C   0  0  0  0  0  2  0  0  0  0  0  0
  187.9490  178.8520  137.0290 C   0  0  2  0  0  3  0  0  0  0  0  0
  186.9720  178.5020  138.1660 C   0  0  2  0  0  3  0  0  0  0  0  0
  188.5100  177.5750  136.4200 C   0  0  0  0  0  2  0  0  0  0  0  0
  1  9  1  0  0  0  0
  2  5  1  6  0  0  0
  2  3  1  0  0  0  0
  3  7  1  0  0  0  0
  4 11  1  0  0  0  0
  5 14  2  0  0  0  0
  6  1  2  0  0  0  0
  7  4  2  0  0  0  0
  8 23  1  6  0  0  0
  8 13  1  0  0  0  0
 10 19  1  0  0  0  0
 12  8  1  0  0  0  0
 12 16  1  0  0  0  0
 13 18  1  1  0  0  0
 13  2  1  0  0  0  0
 14  1  1  0  0  0  0
 15  4  1  0  0  0  0
 16 17  2  0  0  0  0
 16  5  1  0  0  0  0
 17  6  1  0  0  0  0
 18 10  1  0  0  0  0
 19  3  2  0  0  0  0
 19 20  1  0  0  0  0
 20 15  2  0  0  0  0
 22 21  2  0  0  0  0
 22 23  1  0  0  0  0
 24 31  1  0  0  0  0
 24 28  1  0  0  0  0
 25 30  1  0  0  0  0
 27 24  1  0  0  0  0
 28 25  1  0  0  0  0
 29 26  1  1  0  0  0
 29 30  1  0  0  0  0
 30 22  1  1  0  0  0
 31 29  1  0  0  0  0
M  END
>  <MODEL>
2

>  <REMARK>
 VINA RESULT:      -9.1      3.051      3.679
  Name = 
  2 active torsions:
  status: ('A' for Active; 'I' for Inactive)
    1  A    between atoms: C_5  and  C_30
    2  A    between atoms: C_10  and  N_16
                            x       y       z     vdW  Elec       q    Type
                         _______ _______ _______ _____ _____    ______ ____

>  <TORSDO>
F 2

$$$$
=
 OpenBabel11122411173D

 31 35  0  0  1  0  0  0  0  0999 V2000
  189.7180  176.2460  142.4370 C   0  0  0  0  0  0  0  0  0  0  0  0
  186.2300  177.2220  143.6070 C   0  0  2  0  0  3  0  0  0  0  0  0
  186.4090  177.9210  144.9500 C   0  0  0  0  0  0  0  0  0  0  0  0
  187.7330  178.2830  146.9640 C   0  0  0  0  0  0  0  0  0  0  0  0
  187.4980  177.1730  142.7830 C   0  0  0  0  0  0  0  0  0  0  0  0
  189.9080  177.0950  141.3460 C   0  0  0  0  0  3  0  0  0  0  0  0
  187.5830  177.7190  145.6950 C   0  0  0  0  0  3  0  0  0  0  0  0
  185.4460  179.1080  142.1190 C   0  0  2  0  0  3  0  0  0  0  0  0
  190.6980  175.3890  142.8070 F   0  0  0  0  0  0  0  0  0  0  0  0
  184.0730  178.9350  144.8030 C   0  0  0  0  0  2  0  0  0  0  0  0
  188.9900  178.0700  147.7270 C   0  0  0  0  0  1  0  0  0  0  0  0
  186.5840  178.8790  141.1250 C   0  0  0  0  0  2  0  0  0  0  0  0
  185.0520  177.7830  142.7900 C   0  0  2  0  0  3  0  0  0  0  0  0
  188.5170  176.2840  143.1500 C   0  0  0  0  0  3  0  0  0  0  0  0
  186.7010  179.0420  147.5160 C   0  0  0  0  0  3  0  0  0  0  0  0
  187.6900  178.0250  141.6700 C   0  0  0  0  0  0  0  0  0  0  0  0
  188.8930  177.9730  140.9580 C   0  0  0  0  0  3  0  0  0  0  0  0
  183.8210  177.9260  143.6860 C   0  0  0  0  0  2  0  0  0  0  0  0
  185.3530  178.6610  145.5360 C   0  0  0  0  0  0  0  0  0  0  0  0
  185.5160  179.2300  146.8030 C   0  0  0  0  0  3  0  0  0  0  0  0
  183.6330  177.6640  140.4580 O   0  0  0  0  0  0  0  0  0  0  0  0
  183.4310  178.9010  140.6060 C   0  0  0  0  0  0  0  0  0  0  0  0
  184.3050  179.6830  141.4200 N   0  0  0  0  0  2  0  0  0  0  0  0
  179.9020  178.0510  139.7670 N   0  0  0  0  0  0  0  0  0  0  0  0
  181.1650  179.7490  140.8130 O   0  0  0  0  0  0  0  0  0  0  0  0
  182.9460  178.6190  137.8120 O   0  0  0  0  0  1  0  0  0  0  0  0
  179.2160  176.8090  140.0730 C   0  0  0  0  0  1  0  0  0  0  0  0
  180.5180  178.5090  141.0100 C   0  0  0  0  0  2  0  0  0  0  0  0
  181.8370  178.9500  138.5910 C   0  0  2  0  0  3  0  0  0  0  0  0
  182.2610  179.5690  139.9350 C   0  0  2  0  0  3  0  0  0  0  0  0
  180.9780  177.7170  138.8400 C   0  0  0  0  0  2  0  0  0  0  0  0
  1  9  1  0  0  0  0
  1 14  1  0  0  0  0
  2  5  1  6  0  0  0
  2  3  1  0  0  0  0
  3 19  2  0  0  0  0
  3  7  1  0  0  0  0
  4 15  1  0  0  0  0
  4 11  1  0  0  0  0
  5 14  2  0  0  0  0
  6  1  2  0  0  0  0
  7  4  2  0  0  0  0
  8 23  1  6  0  0  0
  8 13  1  0  0  0  0
 10 19  1  0  0  0  0
 12 16  1  0  0  0  0
 12  8  1  0  0  0  0
 13  2  1  0  0  0  0
 13 18  1  1  0  0  0
 16  5  1  0  0  0  0
 17  6  1  0  0  0  0
 17 16  2  0  0  0  0
 18 10  1  0  0  0  0
 19 20  1  0  0  0  0
 20 15  2  0  0  0  0
 21 22  2  0  0  0  0
 22 23  1  0  0  0  0
 24 27  1  0  0  0  0
 24 28  1  0  0  0  0
 25 28  1  0  0  0  0
 29 26  1  1  0  0  0
 29 31  1  0  0  0  0
 29 30  1  0  0  0  0
 30 22  1  1  0  0  0
 30 25  1  0  0  0  0
 31 24  1  0  0  0  0
M  END
>  <MODEL>
3

>  <REMARK>
 VINA RESULT:      -8.8      1.018      1.170
  Name = 
  2 active torsions:
  status: ('A' for Active; 'I' for Inactive)
    1  A    between atoms: C_5  and  C_30
    2  A    between atoms: C_10  and  N_16
                            x       y       z     vdW  Elec       q    Type
                         _______ _______ _______ _____ _____    ______ ____

>  <TORSDO>
F 2

$$$$
=
 OpenBabel11122411173D

 31 35  0  0  1  0  0  0  0  0999 V2000
  183.6050  178.7510  144.2580 C   0  0  0  0  0  0  0  0  0  0  0  0
  182.7040  178.0000  140.6360 C   0  0  2  0  0  3  0  0  0  0  0  0
  181.5770  178.9580  140.2680 C   0  0  0  0  0  0  0  0  0  0  0  0
  179.7190  180.3740  140.9640 C   0  0  0  0  0  0  0  0  0  0  0  0
  183.4940  178.4400  141.8500 C   0  0  0  0  0  0  0  0  0  0  0  0
  184.8730  179.3190  144.1310 C   0  0  0  0  0  3  0  0  0  0  0  0
  180.8080  179.5580  141.2790 C   0  0  0  0  0  3  0  0  0  0  0  0
  184.6110  178.8370  139.2060 C   0  0  2  0  0  3  0  0  0  0  0  0
  183.0360  178.6280  145.4800 F   0  0  0  0  0  0  0  0  0  0  0  0
  181.9650  178.5550  137.7800 C   0  0  0  0  0  2  0  0  0  0  0  0
  178.9310  181.0120  142.0490 C   0  0  0  0  0  1  0  0  0  0  0  0
  185.5210  179.0260  140.4190 C   0  0  0  0  0  2  0  0  0  0  0  0
  183.6320  177.6790  139.4510 C   0  0  2  0  0  3  0  0  0  0  0  0
  182.9200  178.3110  143.1220 C   0  0  0  0  0  3  0  0  0  0  0  0
  179.3700  180.5850  139.6300 C   0  0  0  0  0  3  0  0  0  0  0  0
  184.7830  179.0080  141.7270 C   0  0  0  0  0  0  0  0  0  0  0  0
  185.4640  179.4370  142.8710 C   0  0  0  0  0  3  0  0  0  0  0  0
  182.7960  177.3510  138.2130 C   0  0  0  0  0  2  0  0  0  0  0  0
  181.1900  179.1480  138.9190 C   0  0  0  0  0  0  0  0  0  0  0  0
  180.1050  179.9750  138.6120 C   0  0  0  0  0  3  0  0  0  0  0  0
  187.3710  178.1200  139.2440 O   0  0  0  0  0  0  0  0  0  0  0  0
  186.8070  178.2110  138.1190 C   0  0  0  0  0  0  0  0  0  0  0  0
  185.4280  178.5730  138.0290 N   0  0  0  0  0  2  0  0  0  0  0  0
  189.7750  176.2020  137.1020 N   0  0  0  0  0  0  0  0  0  0  0  0
  187.5260  176.5680  136.4820 O   0  0  0  0  0  0  0  0  0  0  0  0
  189.0580  179.7850  137.3580 O   0  0  0  0  0  1  0  0  0  0  0  0
  190.5810  175.3550  137.9620 C   0  0  0  0  0  1  0  0  0  0  0  0
  188.3810  175.8250  137.3270 C   0  0  0  0  0  2  0  0  0  0  0  0
  189.0060  178.4970  136.8230 C   0  0  2  0  0  3  0  0  0  0  0  0
  187.5750  177.9330  136.8550 C   0  0  2  0  0  3  0  0  0  0  0  0
  189.9430  177.5690  137.5840 C   0  0  0  0  0  2  0  0  0  0  0  0
  1  9  1  0  0  0  0
  2  3  1  6  0  0  0
  2  5  1  0  0  0  0
  3  7  1  0  0  0  0
  4  7  2  0  0  0  0
  4 11  1  0  0  0  0
  5 14  1  0  0  0  0
  6  1  1  0  0  0  0
  8 23  1  6  0  0  0
  8 13  1  0  0  0  0
  8 12  1  0  0  0  0
 10 18  1  0  0  0  0
 10 19  1  0  0  0  0
 12 16  1  0  0  0  0
 13 18  1  6  0  0  0
 13  2  1  0  0  0  0
 14  1  2  0  0  0  0
 15  4  1  0  0  0  0
 16  5  2  0  0  0  0
 16 17  1  0  0  0  0
 17  6  2  0  0  0  0
 19  3  2  0  0  0  0
 20 19  1  0  0  0  0
 20 15  2  0  0  0  0
 22 21  2  0  0  0  0
 23 22  1  0  0  0  0
 24 28  1  0  0  0  0
 24 31  1  0  0  0  0
 24 27  1  0  0  0  0
 25 30  1  0  0  0  0
 25 28  1  0  0  0  0
 29 30  1  0  0  0  0
 29 26  1  1  0  0  0
 29 31  1  0  0  0  0
 30 22  1  1  0  0  0
M  END
>  <MODEL>
4

>  <REMARK>
 VINA RESULT:      -7.6      3.745      7.309
  Name = 
  2 active torsions:
  status: ('A' for Active; 'I' for Inactive)
    1  A    between atoms: C_5  and  C_30
    2  A    between atoms: C_10  and  N_16
                            x       y       z     vdW  Elec       q    Type
                         _______ _______ _______ _____ _____    ______ ____

>  <TORSDO>
F 2

$$$$
=
 OpenBabel11122411173D

 31 35  0  0  1  0  0  0  0  0999 V2000
  188.9030  178.2360  142.9520 C   0  0  0  0  0  0  0  0  0  0  0  0
  186.2970  179.0030  140.2860 C   0  0  2  0  0  3  0  0  0  0  0  0
  186.6050  178.0830  139.1090 C   0  0  0  0  0  0  0  0  0  0  0  0
  188.2120  176.7370  137.8670 C   0  0  0  0  0  0  0  0  0  0  0  0
  186.9160  178.5400  141.5870 C   0  0  0  0  0  0  0  0  0  0  0  0
  188.1350  177.6230  143.9430 C   0  0  0  0  0  3  0  0  0  0  0  0
  187.8830  177.5150  138.9790 C   0  0  0  0  0  3  0  0  0  0  0  0
  184.0920  178.0930  141.1170 C   0  0  2  0  0  3  0  0  0  0  0  0
  190.2380  178.3840  143.1230 F   0  0  0  0  0  0  0  0  0  0  0  0
  184.2820  178.4630  138.1270 C   0  0  0  0  0  2  0  0  0  0  0  0
  189.5650  176.1320  137.7580 C   0  0  0  0  0  1  0  0  0  0  0  0
  184.6410  177.8780  142.5270 C   0  0  0  0  0  2  0  0  0  0  0  0
  184.7930  179.2860  140.4490 C   0  0  2  0  0  3  0  0  0  0  0  0
  188.2950  178.6950  141.7810 C   0  0  0  0  0  3  0  0  0  0  0  0
  187.2720  176.5320  136.8560 C   0  0  0  0  0  3  0  0  0  0  0  0
  186.1390  177.9270  142.5980 C   0  0  0  0  0  0  0  0  0  0  0  0
  186.7570  177.4790  143.7700 C   0  0  0  0  0  3  0  0  0  0  0  0
  184.1810  179.6380  139.0930 C   0  0  0  0  0  2  0  0  0  0  0  0
  185.6720  177.9020  138.0590 C   0  0  0  0  0  0  0  0  0  0  0  0
  186.0070  177.1120  136.9540 C   0  0  0  0  0  3  0  0  0  0  0  0
  182.0930  176.4190  139.9630 O   0  0  0  0  0  0  0  0  0  0  0  0
  181.7050  177.4400  140.5940 C   0  0  0  0  0  0  0  0  0  0  0  0
  182.6550  178.3240  141.1910 N   0  0  0  0  0  2  0  0  0  0  0  0
  179.4280  180.3270  139.9930 N   0  0  0  0  0  0  0  0  0  0  0  0
  179.6220  178.0280  139.4930 O   0  0  0  0  0  0  0  0  0  0  0  0
  180.6330  178.5770  142.9770 O   0  0  0  0  0  1  0  0  0  0  0  0
  179.8020  181.6280  139.4680 C   0  0  0  0  0  1  0  0  0  0  0  0
  179.9870  179.3300  139.0830 C   0  0  0  0  0  2  0  0  0  0  0  0
  179.8840  178.7770  141.8160 C   0  0  2  0  0  3  0  0  0  0  0  0
  180.2370  177.7400  140.7350 C   0  0  2  0  0  3  0  0  0  0  0  0
  180.1080  180.1820  141.2760 C   0  0  0  0  0  2  0  0  0  0  0  0
  1  9  1  0  0  0  0
  1  6  1  0  0  0  0
  2  3  1  6  0  0  0
  2 13  1  0  0  0  0
  2  5  1  0  0  0  0
  4  7  2  0  0  0  0
  5 14  1  0  0  0  0
  5 16  2  0  0  0  0
  7  3  1  0  0  0  0
  8 23  1  1  0  0  0
  8 12  1  0  0  0  0
 10 18  1  0  0  0  0
 11  4  1  0  0  0  0
 12 16  1  0  0  0  0
 13 18  1  6  0  0  0
 13  8  1  0  0  0  0
 14  1  2  0  0  0  0
 15 20  2  0  0  0  0
 15  4  1  0  0  0  0
 16 17  1  0  0  0  0
 17  6  2  0  0  0  0
 19 10  1  0  0  0  0
 19  3  2  0  0  0  0
 20 19  1  0  0  0  0
 21 22  2  0  0  0  0
 22 23  1  0  0  0  0
 24 31  1  0  0  0  0
 25 30  1  0  0  0  0
 27 24  1  0  0  0  0
 28 25  1  0  0  0  0
 28 24  1  0  0  0  0
 29 26  1  1  0  0  0
 30 22  1  6  0  0  0
 30 29  1  0  0  0  0
 31 29  1  0  0  0  0
M  END
>  <MODEL>
5

>  <REMARK>
 VINA RESULT:      -7.6      2.513      5.479
  Name = 
  2 active torsions:
  status: ('A' for Active; 'I' for Inactive)
    1  A    between atoms: C_5  and  C_30
    2  A    between atoms: C_10  and  N_16
                            x       y       z     vdW  Elec       q    Type
                         _______ _______ _______ _____ _____    ______ ____

>  <TORSDO>
F 2

$$$$
=
 OpenBabel11122411173D

 31 35  0  0  1  0  0  0  0  0999 V2000
  179.6200  179.1590  143.1470 C   0  0  0  0  0  0  0  0  0  0  0  0
  182.8760  179.3510  141.1840 C   0  0  2  0  0  3  0  0  0  0  0  0
  183.9720  178.8650  142.1260 C   0  0  0  0  0  0  0  0  0  0  0  0
  184.7770  178.5090  144.3980 C   0  0  0  0  0  0  0  0  0  0  0  0
  181.4870  178.9240  141.6090 C   0  0  0  0  0  0  0  0  0  0  0  0
  178.9500  178.1200  142.5000 C   0  0  0  0  0  3  0  0  0  0  0  0
  183.7590  178.8720  143.5140 C   0  0  0  0  0  3  0  0  0  0  0  0
  182.8070  177.5180  139.4470 C   0  0  2  0  0  3  0  0  0  0  0  0
  179.0490  179.7760  144.2080 F   0  0  0  0  0  0  0  0  0  0  0  0
  185.5690  178.4960  140.1720 C   0  0  0  0  0  2  0  0  0  0  0  0
  184.5230  178.5080  145.8620 C   0  0  0  0  0  1  0  0  0  0  0  0
  181.3170  177.2670  139.6800 C   0  0  0  0  0  2  0  0  0  0  0  0
  183.1460  178.9930  139.7120 C   0  0  2  0  0  3  0  0  0  0  0  0
  180.8820  179.5610  142.7010 C   0  0  0  0  0  3  0  0  0  0  0  0
  186.0330  178.1540  143.9060 C   0  0  0  0  0  3  0  0  0  0  0  0
  180.8010  177.8780  140.9500 C   0  0  0  0  0  0  0  0  0  0  0  0
  179.5350  177.4890  141.3990 C   0  0  0  0  0  3  0  0  0  0  0  0
  184.5920  179.3330  139.3520 C   0  0  0  0  0  2  0  0  0  0  0  0
  185.2620  178.5410  141.6390 C   0  0  0  0  0  0  0  0  0  0  0  0
  186.2730  178.1690  142.5310 C   0  0  0  0  0  3  0  0  0  0  0  0
  183.4500  174.8890  138.5490 O   0  0  0  0  0  0  0  0  0  0  0  0
  183.4530  175.8160  137.6920 C   0  0  0  0  0  0  0  0  0  0  0  0
  183.1460  177.1560  138.0770 N   0  0  0  0  0  2  0  0  0  0  0  0
  184.1710  172.8180  135.6000 N   0  0  0  0  0  0  0  0  0  0  0  0
  182.7810  174.7270  135.6290 O   0  0  0  0  0  0  0  0  0  0  0  0
  186.1400  175.6840  136.7510 O   0  0  0  0  0  1  0  0  0  0  0  0
  184.1950  171.4380  136.0470 C   0  0  0  0  0  1  0  0  0  0  0  0
  182.9120  173.3910  136.0710 C   0  0  0  0  0  2  0  0  0  0  0  0
  185.1940  174.9940  135.9910 C   0  0  2  0  0  3  0  0  0  0  0  0
  183.7720  175.5230  136.2510 C   0  0  2  0  0  3  0  0  0  0  0  0
  185.2540  173.5030  136.2970 C   0  0  0  0  0  2  0  0  0  0  0  0
  1  9  1  0  0  0  0
  2  5  1  1  0  0  0
  2  3  1  0  0  0  0
  3  7  1  0  0  0  0
  4 11  1  0  0  0  0
  5 14  2  0  0  0  0
  6  1  2  0  0  0  0
  7  4  2  0  0  0  0
  8 23  1  6  0  0  0
  8 12  1  0  0  0  0
  8 13  1  0  0  0  0
 10 19  1  0  0  0  0
 12 16  1  0  0  0  0
 13 18  1  1  0  0  0
 13  2  1  0  0  0  0
 14  1  1  0  0  0  0
 15  4  1  0  0  0  0
 16 17  2  0  0  0  0
 16  5  1  0  0  0  0
 17  6  1  0  0  0  0
 18 10  1  0  0  0  0
 19  3  2  0  0  0  0
 19 20  1  0  0  0  0
 20 15  2  0  0  0  0
 22 23  1  0  0  0  0
 22 21  2  0  0  0  0
 24 27  1  0  0  0  0
 24 28  1  0  0  0  0
 24 31  1  0  0  0  0
 25 28  1  0  0  0  0
 25 30  1  0  0  0  0
 29 30  1  0  0  0  0
 29 31  1  0  0  0  0
 29 26  1  1  0  0  0
 30 22  1  1  0  0  0
M  END
>  <MODEL>
6

>  <REMARK>
 VINA RESULT:      -7.5      3.955      6.639
  Name = 
  2 active torsions:
  status: ('A' for Active; 'I' for Inactive)
    1  A    between atoms: C_5  and  C_30
    2  A    between atoms: C_10  and  N_16
                            x       y       z     vdW  Elec       q    Type
                         _______ _______ _______ _____ _____    ______ ____

>  <TORSDO>
F 2

$$$$
=
 OpenBabel11122411173D

 31 35  0  0  1  0  0  0  0  0999 V2000
  189.1070  178.1030  143.5610 C   0  0  0  0  0  0  0  0  0  0  0  0
  186.7660  178.9080  140.6700 C   0  0  2  0  0  3  0  0  0  0  0  0
  187.1830  178.0020  139.5170 C   0  0  0  0  0  0  0  0  0  0  0  0
  188.8980  176.6660  138.4160 C   0  0  0  0  0  0  0  0  0  0  0  0
  187.2580  178.4280  142.0180 C   0  0  0  0  0  0  0  0  0  0  0  0
  188.2480  177.4800  144.4670 C   0  0  0  0  0  3  0  0  0  0  0  0
  188.4670  177.4320  139.5010 C   0  0  0  0  0  3  0  0  0  0  0  0
  184.4910  177.9940  141.2780 C   0  0  2  0  0  3  0  0  0  0  0  0
  190.4200  178.2460  143.8600 F   0  0  0  0  0  0  0  0  0  0  0  0
  184.9640  178.3980  138.3240 C   0  0  0  0  0  2  0  0  0  0  0  0
  190.2540  176.0590  138.4280 C   0  0  0  0  0  1  0  0  0  0  0  0
  184.9040  177.7600  142.7310 C   0  0  0  0  0  2  0  0  0  0  0  0
  185.2540  179.1930  140.6940 C   0  0  2  0  0  3  0  0  0  0  0  0
  188.6130  178.5770  142.3430 C   0  0  0  0  0  3  0  0  0  0  0  0
  188.0580  176.4760  137.3190 C   0  0  0  0  0  3  0  0  0  0  0  0
  186.3890  177.8050  142.9430 C   0  0  0  0  0  0  0  0  0  0  0  0
  186.8920  177.3410  144.1630 C   0  0  0  0  0  3  0  0  0  0  0  0
  184.7730  179.5630  139.2910 C   0  0  0  0  0  2  0  0  0  0  0  0
  186.3530  177.8350  138.3810 C   0  0  0  0  0  0  0  0  0  0  0  0
  186.7900  177.0580  137.3030 C   0  0  0  0  0  3  0  0  0  0  0  0
  182.6200  176.3900  139.8440 O   0  0  0  0  0  0  0  0  0  0  0  0
  182.1700  177.3800  140.4840 C   0  0  0  0  0  0  0  0  0  0  0  0
  183.0540  178.2270  141.2180 N   0  0  0  0  0  2  0  0  0  0  0  0
  179.1060  176.1010  138.7930 N   0  0  0  0  0  0  0  0  0  0  0  0
  179.9240  176.5850  140.9540 O   0  0  0  0  0  0  0  0  0  0  0  0
  181.0070  179.2290  138.6530 O   0  0  0  0  0  1  0  0  0  0  0  0
  179.0390  175.0140  137.8330 C   0  0  0  0  0  1  0  0  0  0  0  0
  179.8580  175.6010  139.9420 C   0  0  0  0  0  2  0  0  0  0  0  0
  180.1410  178.2710  139.1840 C   0  0  2  0  0  3  0  0  0  0  0  0
  180.6950  177.6790  140.4920 C   0  0  2  0  0  3  0  0  0  0  0  0
  179.9000  177.1570  138.1740 C   0  0  0  0  0  2  0  0  0  0  0  0
  1  9  1  0  0  0  0
  1  6  1  0  0  0  0
  2  3  1  6  0  0  0
  2 13  1  0  0  0  0
  2  5  1  0  0  0  0
  4 11  1  0  0  0  0
  4  7  2  0  0  0  0
  5 14  1  0  0  0  0
  5 16  2  0  0  0  0
  7  3  1  0  0  0  0
  8 23  1  1  0  0  0
  8 12  1  0  0  0  0
 10 19  1  0  0  0  0
 10 18  1  0  0  0  0
 12 16  1  0  0  0  0
 13 18  1  6  0  0  0
 13  8  1  0  0  0  0
 14  1  2  0  0  0  0
 15  4  1  0  0  0  0
 16 17  1  0  0  0  0
 17  6  2  0  0  0  0
 19  3  2  0  0  0  0
 20 15  2  0  0  0  0
 20 19  1  0  0  0  0
 21 22  2  0  0  0  0
 22 23  1  0  0  0  0
 24 28  1  0  0  0  0
 27 24  1  0  0  0  0
 28 25  1  0  0  0  0
 29 26  1  6  0  0  0
 29 30  1  0  0  0  0
 30 22  1  6  0  0  0
 30 25  1  0  0  0  0
 31 24  1  0  0  0  0
 31 29  1  0  0  0  0
M  END
>  <MODEL>
7

>  <REMARK>
 VINA RESULT:      -7.5      2.331      5.086
  Name = 
  2 active torsions:
  status: ('A' for Active; 'I' for Inactive)
    1  A    between atoms: C_5  and  C_30
    2  A    between atoms: C_10  and  N_16
                            x       y       z     vdW  Elec       q    Type
                         _______ _______ _______ _____ _____    ______ ____

>  <TORSDO>
F 2

$$$$
=
 OpenBabel11122411173D

 31 35  0  0  1  0  0  0  0  0999 V2000
  184.5550  178.8050  139.4930 C   0  0  0  0  0  0  0  0  0  0  0  0
  188.3120  178.1940  139.4650 C   0  0  2  0  0  3  0  0  0  0  0  0
  188.6410  177.4900  140.7770 C   0  0  0  0  0  0  0  0  0  0  0  0
  188.0720  177.0080  143.0970 C   0  0  0  0  0  0  0  0  0  0  0  0
  186.8480  178.1100  139.0890 C   0  0  0  0  0  0  0  0  0  0  0  0
  184.1100  177.9340  138.4970 C   0  0  0  0  0  3  0  0  0  0  0  0
  187.7530  177.5770  141.8620 C   0  0  0  0  0  3  0  0  0  0  0  0
  188.7600  176.3890  137.7560 C   0  0  2  0  0  3  0  0  0  0  0  0
  183.6650  179.5610  140.1790 F   0  0  0  0  0  0  0  0  0  0  0  0
  190.8940  176.7170  139.8660 C   0  0  0  0  0  2  0  0  0  0  0  0
  187.1100  177.0980  144.2260 C   0  0  0  0  0  1  0  0  0  0  0  0
  187.3480  176.4950  137.1820 C   0  0  0  0  0  2  0  0  0  0  0  0
  189.2160  177.7510  138.3010 C   0  0  2  0  0  3  0  0  0  0  0  0
  185.9180  178.8940  139.7850 C   0  0  0  0  0  3  0  0  0  0  0  0
  189.2960  176.3610  143.2710 C   0  0  0  0  0  3  0  0  0  0  0  0
  186.3950  177.2360  138.0740 C   0  0  0  0  0  0  0  0  0  0  0  0
  185.0290  177.1610  137.7830 C   0  0  0  0  0  3  0  0  0  0  0  0
  190.6770  177.7390  138.7540 C   0  0  0  0  0  2  0  0  0  0  0  0
  189.8960  176.8650  140.9760 C   0  0  0  0  0  0  0  0  0  0  0  0
  190.2030  176.2890  142.2130 C   0  0  0  0  0  3  0  0  0  0  0  0
  189.9010  173.7800  137.6020 O   0  0  0  0  0  0  0  0  0  0  0  0
  190.2010  174.6030  136.6940 C   0  0  0  0  0  0  0  0  0  0  0  0
  189.6690  175.9280  136.7150 N   0  0  0  0  0  2  0  0  0  0  0  0
  193.8610  174.6330  135.9960 N   0  0  0  0  0  0  0  0  0  0  0  0
  192.0100  173.1670  135.9430 O   0  0  0  0  0  0  0  0  0  0  0  0
  190.9710  176.4420  134.6580 O   0  0  0  0  0  1  0  0  0  0  0  0
  194.9070  175.0910  136.8910 C   0  0  0  0  0  1  0  0  0  0  0  0
  193.0290  173.7070  136.7610 C   0  0  0  0  0  2  0  0  0  0  0  0
  191.8330  175.3640  134.8610 C   0  0  2  0  0  3  0  0  0  0  0  0
  191.1170  174.2000  135.5690 C   0  0  2  0  0  3  0  0  0  0  0  0
  193.0430  175.7980  135.6770 C   0  0  0  0  0  2  0  0  0  0  0  0
  1 14  1  0  0  0  0
  1  9  1  0  0  0  0
  2  5  1  6  0  0  0
  2  3  1  0  0  0  0
  3 19  2  0  0  0  0
  3  7  1  0  0  0  0
  4 15  1  0  0  0  0
  4 11  1  0  0  0  0
  5 14  2  0  0  0  0
  6  1  2  0  0  0  0
  7  4  2  0  0  0  0
  8 23  1  6  0  0  0
  8 13  1  0  0  0  0
 10 19  1  0  0  0  0
 12  8  1  0  0  0  0
 12 16  1  0  0  0  0
 13 18  1  1  0  0  0
 13  2  1  0  0  0  0
 16  5  1  0  0  0  0
 17 16  2  0  0  0  0
 17  6  1  0  0  0  0
 18 10  1  0  0  0  0
 19 20  1  0  0  0  0
 20 15  2  0  0  0  0
 22 23  1  0  0  0  0
 22 21  2  0  0  0  0
 24 28  1  0  0  0  0
 24 27  1  0  0  0  0
 25 28  1  0  0  0  0
 29 26  1  1  0  0  0
 29 30  1  0  0  0  0
 29 31  1  0  0  0  0
 30 25  1  0  0  0  0
 30 22  1  1  0  0  0
 31 24  1  0  0  0  0
M  END
>  <MODEL>
8

>  <REMARK>
 VINA RESULT:      -7.4      5.398      8.225
  Name = 
  2 active torsions:
  status: ('A' for Active; 'I' for Inactive)
    1  A    between atoms: C_5  and  C_30
    2  A    between atoms: C_10  and  N_16
                            x       y       z     vdW  Elec       q    Type
                         _______ _______ _______ _____ _____    ______ ____

>  <TORSDO>
F 2

$$$$
=
 OpenBabel11122411173D

 31 35  0  0  1  0  0  0  0  0999 V2000
  183.5770  179.0090  143.2160 C   0  0  0  0  0  0  0  0  0  0  0  0
  183.0600  177.7870  139.6480 C   0  0  2  0  0  3  0  0  0  0  0  0
  182.1470  178.8070  138.9750 C   0  0  0  0  0  0  0  0  0  0  0  0
  180.4480  180.5430  139.1610 C   0  0  0  0  0  0  0  0  0  0  0  0
  183.7400  178.3190  140.8910 C   0  0  0  0  0  0  0  0  0  0  0  0
  184.9220  179.3820  143.2040 C   0  0  0  0  0  3  0  0  0  0  0  0
  181.3510  179.6600  139.7570 C   0  0  0  0  0  3  0  0  0  0  0  0
  185.2420  178.1250  138.4220 C   0  0  2  0  0  3  0  0  0  0  0  0
  182.8400  179.1650  144.3410 F   0  0  0  0  0  0  0  0  0  0  0  0
  182.7950  177.9490  136.6620 C   0  0  0  0  0  2  0  0  0  0  0  0
  179.6280  181.4480  140.0080 C   0  0  0  0  0  1  0  0  0  0  0  0
  186.0020  178.3950  139.7200 C   0  0  0  0  0  2  0  0  0  0  0  0
  184.0760  177.1580  138.6790 C   0  0  2  0  0  3  0  0  0  0  0  0
  182.9900  178.4780  142.0650 C   0  0  0  0  0  3  0  0  0  0  0  0
  180.3140  180.5730  137.7730 C   0  0  0  0  0  3  0  0  0  0  0  0
  185.1040  178.6900  140.8860 C   0  0  0  0  0  0  0  0  0  0  0  0
  185.6850  179.2130  142.0460 C   0  0  0  0  0  3  0  0  0  0  0  0
  183.3720  176.7370  137.3890 C   0  0  0  0  0  2  0  0  0  0  0  0
  181.9750  178.8170  137.5690 C   0  0  0  0  0  0  0  0  0  0  0  0
  181.0760  179.7130  136.9810 C   0  0  0  0  0  3  0  0  0  0  0  0
  187.0900  179.6270  136.8530 O   0  0  0  0  0  0  0  0  0  0  0  0
  187.0650  178.3760  136.6860 C   0  0  0  0  0  0  0  0  0  0  0  0
  186.1580  177.5660  137.4360 N   0  0  0  0  0  2  0  0  0  0  0  0
  188.1650  174.9160  135.8540 N   0  0  0  0  0  0  0  0  0  0  0  0
  187.3130  176.8540  134.8110 O   0  0  0  0  0  0  0  0  0  0  0  0
  189.7910  177.8500  137.3260 O   0  0  0  0  0  1  0  0  0  0  0  0
  187.7160  173.6900  136.4890 C   0  0  0  0  0  1  0  0  0  0  0  0
  186.9650  175.6640  135.4880 C   0  0  0  0  0  2  0  0  0  0  0  0
  189.2360  177.0530  136.3230 C   0  0  2  0  0  3  0  0  0  0  0  0
  187.9940  177.7170  135.7030 C   0  0  2  0  0  3  0  0  0  0  0  0
  188.8670  175.6840  136.8770 C   0  0  0  0  0  2  0  0  0  0  0  0
  1  9  1  0  0  0  0
  2  3  1  6  0  0  0
  2  5  1  0  0  0  0
  3  7  1  0  0  0  0
  4  7  2  0  0  0  0
  4 11  1  0  0  0  0
  5 14  1  0  0  0  0
  6  1  1  0  0  0  0
  8 23  1  6  0  0  0
  8 13  1  0  0  0  0
  8 12  1  0  0  0  0
 10 18  1  0  0  0  0
 10 19  1  0  0  0  0
 12 16  1  0  0  0  0
 13 18  1  6  0  0  0
 13  2  1  0  0  0  0
 14  1  2  0  0  0  0
 15  4  1  0  0  0  0
 16  5  2  0  0  0  0
 16 17  1  0  0  0  0
 17  6  2  0  0  0  0
 19  3  2  0  0  0  0
 20 19  1  0  0  0  0
 20 15  2  0  0  0  0
 22 21  2  0  0  0  0
 22 23  1  0  0  0  0
 24 27  1  0  0  0  0
 24 31  1  0  0  0  0
 25 28  1  0  0  0  0
 25 30  1  0  0  0  0
 28 24  1  0  0  0  0
 29 31  1  0  0  0  0
 29 26  1  1  0  0  0
 30 29  1  0  0  0  0
 30 22  1  1  0  0  0
M  END
>  <MODEL>
9

>  <REMARK>
 VINA RESULT:      -7.4      4.128      7.688
  Name = 
  2 active torsions:
  status: ('A' for Active; 'I' for Inactive)
    1  A    between atoms: C_5  and  C_30
    2  A    between atoms: C_10  and  N_16
                            x       y       z     vdW  Elec       q    Type
                         _______ _______ _______ _____ _____    ______ ____

>  <TORSDO>
F 2

$$$$
