=
 OpenBabel11122410293D

 30 35  0  0  1  0  0  0  0  0999 V2000
  186.7800  178.0300  144.9330 C   0  0  0  0  0  0  0  0  0  0  0  0
  184.3670  178.6550  145.2470 C   0  0  0  0  0  0  0  0  0  0  0  0
  186.4290  178.3480  140.8420 N   0  0  0  0  0  2  0  0  0  0  0  0
  187.8790  177.8070  144.0540 C   0  0  0  0  0  0  0  0  0  0  0  0
  187.0410  177.9710  146.4150 C   0  0  0  0  0  2  0  0  0  0  0  0
  190.3670  176.5430  146.3850 O   0  0  0  0  0  0  0  0  0  0  0  0
  190.5750  176.7760  142.7530 C   0  0  1  0  0  3  0  0  0  0  0  0
  189.2650  176.9720  145.9450 C   0  0  0  0  0  0  0  0  0  0  0  0
  189.8050  177.0740  141.4900 C   0  0  2  0  0  3  0  0  0  0  0  0
  187.6890  177.9710  140.5350 C   0  0  0  0  0  0  0  0  0  0  0  0
  188.0190  176.8580  146.7790 C   0  0  1  0  0  3  0  0  0  0  0  0
  189.1740  177.5070  144.6140 N   0  0  0  0  0  0  0  0  0  0  0  0
  183.1470  179.0300  144.6790 C   0  0  0  0  0  3  0  0  0  0  0  0
  190.7630  177.8860  140.6460 C   0  0  0  0  0  2  0  0  0  0  0  0
  192.0200  176.7690  142.2920 C   0  0  0  0  0  2  0  0  0  0  0  0
  184.4200  178.5270  146.6300 O   0  0  0  0  0  1  0  0  0  0  0  0
  186.4260  178.3060  142.1850 C   0  0  0  0  0  0  0  0  0  0  0  0
  183.0130  179.1680  143.2990 C   0  0  0  0  0  3  0  0  0  0  0  0
  185.4990  178.4100  144.4210 C   0  0  0  0  0  0  0  0  0  0  0  0
  187.6530  177.9250  142.6680 C   0  0  0  0  0  0  0  0  0  0  0  0
  188.0770  177.8410  139.3440 O   0  0  0  0  0  0  0  0  0  0  0  0
  188.4800  177.7110  141.6100 N   0  0  0  0  0  0  0  0  0  0  0  0
  192.1170  177.5080  141.0340 N   0  0  0  0  0  2  0  0  0  0  0  0
  190.5350  179.2470  143.5060 C   0  0  0  0  0  1  0  0  0  0  0  0
  184.1040  178.9300  142.4690 C   0  0  0  0  0  3  0  0  0  0  0  0
  185.3380  178.5550  143.0140 C   0  0  0  0  0  0  0  0  0  0  0  0
  190.4060  177.7740  143.8890 C   0  0  2  0  0  3  0  0  0  0  0  0
  188.2970  176.8430  148.2850 C   0  0  0  0  0  2  0  0  0  0  0  0
  189.6870  178.6720  148.9140 O   0  0  0  0  0  1  0  0  0  0  0  0
  188.3610  178.2440  148.8790 C   0  0  0  0  0  2  0  0  0  0  0  0
  1  5  1  0  0  0  0
  2 16  1  0  0  0  0
  3 17  1  0  0  0  0
  4 12  1  0  0  0  0
  4  1  2  0  0  0  0
  5 11  1  0  0  0  0
  7 15  1  6  0  0  0
  7 27  1  0  0  0  0
  8  6  2  0  0  0  0
  8 11  1  0  0  0  0
  9 14  1  6  0  0  0
  9 22  1  0  0  0  0
  9  7  1  0  0  0  0
 10  3  1  0  0  0  0
 10 22  1  0  0  0  0
 11 28  1  1  0  0  0
 12  8  1  0  0  0  0
 13  2  1  0  0  0  0
 14 23  1  0  0  0  0
 17 20  2  0  0  0  0
 17 26  1  0  0  0  0
 18 13  2  0  0  0  0
 19  1  1  0  0  0  0
 19  2  2  0  0  0  0
 20  4  1  0  0  0  0
 21 10  2  0  0  0  0
 22 20  1  0  0  0  0
 23 15  1  0  0  0  0
 25 26  2  0  0  0  0
 25 18  1  0  0  0  0
 26 19  1  0  0  0  0
 27 24  1  6  0  0  0
 27 12  1  0  0  0  0
 28 30  1  0  0  0  0
 30 29  1  0  0  0  0
M  END
>  <MODEL>
1

>  <REMARK>
 VINA RESULT:     -10.1      0.000      0.000
  Name = 
  2 active torsions:
  status: ('A' for Active; 'I' for Inactive)
    1  A    between atoms: C_11  and  C_28
    2  A    between atoms: C_28  and  C_30
                            x       y       z     vdW  Elec       q    Type
                         _______ _______ _______ _____ _____    ______ ____

>  <TORSDO>
F 2

$$$$
=
 OpenBabel11122410293D

 30 35  0  0  1  0  0  0  0  0999 V2000
  186.5530  178.1790  142.0340 C   0  0  0  0  0  0  0  0  0  0  0  0
  184.1240  178.6460  141.5980 C   0  0  0  0  0  0  0  0  0  0  0  0
  185.9360  178.2490  146.1050 N   0  0  0  0  0  2  0  0  0  0  0  0
  187.6040  177.9480  142.9680 C   0  0  0  0  0  0  0  0  0  0  0  0
  186.8730  178.0460  140.5680 C   0  0  0  0  0  2  0  0  0  0  0  0
  190.4850  177.8930  140.7500 O   0  0  0  0  0  0  0  0  0  0  0  0
  190.4260  177.7740  144.3940 C   0  0  1  0  0  3  0  0  0  0  0  0
  189.2890  178.0050  141.1380 C   0  0  0  0  0  0  0  0  0  0  0  0
  189.5530  177.9030  145.6180 C   0  0  2  0  0  3  0  0  0  0  0  0
  187.2210  178.0580  146.4730 C   0  0  0  0  0  0  0  0  0  0  0  0
  188.2520  178.6060  140.2310 C   0  0  1  0  0  3  0  0  0  0  0  0
  188.9210  177.6300  142.4760 N   0  0  0  0  0  0  0  0  0  0  0  0
  182.8400  178.8640  142.1060 C   0  0  0  0  0  3  0  0  0  0  0  0
  190.0280  176.7980  146.5370 C   0  0  0  0  0  2  0  0  0  0  0  0
  191.7100  177.1780  144.9360 C   0  0  0  0  0  2  0  0  0  0  0  0
  184.2820  178.6690  140.2180 O   0  0  0  0  0  1  0  0  0  0  0  0
  186.0050  178.2210  144.7630 C   0  0  0  0  0  0  0  0  0  0  0  0
  182.6050  178.8670  143.4790 C   0  0  0  0  0  3  0  0  0  0  0  0
  185.2150  178.4170  142.4820 C   0  0  0  0  0  0  0  0  0  0  0  0
  187.2940  178.0090  144.3420 C   0  0  0  0  0  0  0  0  0  0  0  0
  187.5790  178.0670  147.6810 O   0  0  0  0  0  0  0  0  0  0  0  0
  188.0890  177.8960  145.4390 N   0  0  0  0  0  0  0  0  0  0  0  0
  191.4250  176.5340  146.2180 N   0  0  0  0  0  2  0  0  0  0  0  0
  189.3450  175.5300  143.7080 C   0  0  0  0  0  1  0  0  0  0  0  0
  183.6560  178.6510  144.3640 C   0  0  0  0  0  3  0  0  0  0  0  0
  184.9510  178.4270  143.8810 C   0  0  0  0  0  0  0  0  0  0  0  0
  189.8850  176.8920  143.2770 C   0  0  2  0  0  3  0  0  0  0  0  0
  188.5670  178.4240  138.7440 C   0  0  0  0  0  2  0  0  0  0  0  0
  186.8990  178.9490  137.1270 O   0  0  0  0  0  1  0  0  0  0  0  0
  187.3670  177.9260  137.9490 C   0  0  0  0  0  2  0  0  0  0  0  0
  1 19  2  0  0  0  0
  1  4  1  0  0  0  0
  2 13  2  0  0  0  0
  2 19  1  0  0  0  0
  3 10  1  0  0  0  0
  4 20  2  0  0  0  0
  5  1  1  0  0  0  0
  6  8  2  0  0  0  0
  7 15  1  1  0  0  0
  7  9  1  0  0  0  0
  8 12  1  0  0  0  0
  9 14  1  1  0  0  0
 10 21  2  0  0  0  0
 11 28  1  6  0  0  0
 11  5  1  0  0  0  0
 11  8  1  0  0  0  0
 12  4  1  0  0  0  0
 12 27  1  0  0  0  0
 13 18  1  0  0  0  0
 15 23  1  0  0  0  0
 16  2  1  0  0  0  0
 17  3  1  0  0  0  0
 18 25  2  0  0  0  0
 19 26  1  0  0  0  0
 20 17  1  0  0  0  0
 20 22  1  0  0  0  0
 22  9  1  0  0  0  0
 22 10  1  0  0  0  0
 23 14  1  0  0  0  0
 26 25  1  0  0  0  0
 26 17  2  0  0  0  0
 27 24  1  1  0  0  0
 27  7  1  0  0  0  0
 29 30  1  0  0  0  0
 30 28  1  0  0  0  0
M  END
>  <MODEL>
2

>  <REMARK>
 VINA RESULT:      -9.2      1.794      5.328
  Name = 
  2 active torsions:
  status: ('A' for Active; 'I' for Inactive)
    1  A    between atoms: C_11  and  C_28
    2  A    between atoms: C_28  and  C_30
                            x       y       z     vdW  Elec       q    Type
                         _______ _______ _______ _____ _____    ______ ____

>  <TORSDO>
F 2

$$$$
=
 OpenBabel11122410293D

 30 35  0  0  1  0  0  0  0  0999 V2000
  186.3920  178.1340  142.7980 C   0  0  0  0  0  0  0  0  0  0  0  0
  188.7040  177.6090  143.6270 C   0  0  0  0  0  0  0  0  0  0  0  0
  187.7160  178.2760  138.9020 N   0  0  0  0  0  2  0  0  0  0  0  0
  185.5160  178.3910  141.7040 C   0  0  0  0  0  0  0  0  0  0  0  0
  185.7860  178.0200  144.1730 C   0  0  0  0  0  2  0  0  0  0  0  0
  182.4600  179.2640  143.4710 O   0  0  0  0  0  0  0  0  0  0  0  0
  183.1290  179.4110  139.8900 C   0  0  1  0  0  3  0  0  0  0  0  0
  183.6640  178.9440  143.2730 C   0  0  0  0  0  0  0  0  0  0  0  0
  184.1950  179.2920  138.8290 C   0  0  2  0  0  3  0  0  0  0  0  0
  186.5390  178.6160  138.3360 C   0  0  0  0  0  0  0  0  0  0  0  0
  184.6670  179.0340  144.3890 C   0  0  1  0  0  3  0  0  0  0  0  0
  184.1070  178.5600  141.9600 N   0  0  0  0  0  0  0  0  0  0  0  0
  190.0490  177.3610  143.3380 C   0  0  0  0  0  3  0  0  0  0  0  0
  183.5270  178.5250  137.7090 C   0  0  0  0  0  2  0  0  0  0  0  0
  181.8370  179.3910  139.0980 C   0  0  0  0  0  2  0  0  0  0  0  0
  188.3180  177.5840  144.9620 O   0  0  0  0  0  1  0  0  0  0  0  0
  187.4010  178.1730  140.2040 C   0  0  0  0  0  0  0  0  0  0  0  0
  190.5130  177.3800  142.0240 C   0  0  0  0  0  3  0  0  0  0  0  0
  187.7830  177.8800  142.5780 C   0  0  0  0  0  0  0  0  0  0  0  0
  186.0690  178.4350  140.4090 C   0  0  0  0  0  0  0  0  0  0  0  0
  186.4320  178.8530  137.1030 O   0  0  0  0  0  0  0  0  0  0  0  0
  185.5000  178.7170  139.2060 N   0  0  0  0  0  0  0  0  0  0  0  0
  182.0960  178.7870  137.7910 N   0  0  0  0  0  2  0  0  0  0  0  0
  183.1820  176.8790  140.4020 C   0  0  0  0  0  1  0  0  0  0  0  0
  189.6330  177.6470  140.9810 C   0  0  0  0  0  3  0  0  0  0  0  0
  188.2800  177.8960  141.2440 C   0  0  0  0  0  0  0  0  0  0  0  0
  183.1040  178.3070  140.9380 C   0  0  2  0  0  3  0  0  0  0  0  0
  184.0440  178.8720  145.7790 C   0  0  0  0  0  2  0  0  0  0  0  0
  185.7400  179.5020  147.3280 O   0  0  0  0  0  1  0  0  0  0  0  0
  185.0520  178.4020  146.8190 C   0  0  0  0  0  2  0  0  0  0  0  0
  1  5  1  0  0  0  0
  2 16  1  0  0  0  0
  3 17  1  0  0  0  0
  4 12  1  0  0  0  0
  4  1  2  0  0  0  0
  5 11  1  0  0  0  0
  7 15  1  6  0  0  0
  7 27  1  0  0  0  0
  8  6  2  0  0  0  0
  8 11  1  0  0  0  0
  9 14  1  6  0  0  0
  9 22  1  0  0  0  0
  9  7  1  0  0  0  0
 10  3  1  0  0  0  0
 10 22  1  0  0  0  0
 11 28  1  1  0  0  0
 12  8  1  0  0  0  0
 13  2  1  0  0  0  0
 14 23  1  0  0  0  0
 17 20  2  0  0  0  0
 17 26  1  0  0  0  0
 18 13  2  0  0  0  0
 19  1  1  0  0  0  0
 19  2  2  0  0  0  0
 20  4  1  0  0  0  0
 21 10  2  0  0  0  0
 22 20  1  0  0  0  0
 23 15  1  0  0  0  0
 25 26  2  0  0  0  0
 25 18  1  0  0  0  0
 26 19  1  0  0  0  0
 27 24  1  6  0  0  0
 27 12  1  0  0  0  0
 28 30  1  0  0  0  0
 30 29  1  0  0  0  0
M  END
>  <MODEL>
3

>  <REMARK>
 VINA RESULT:      -8.5      2.439      5.948
  Name = 
  2 active torsions:
  status: ('A' for Active; 'I' for Inactive)
    1  A    between atoms: C_11  and  C_28
    2  A    between atoms: C_28  and  C_30
                            x       y       z     vdW  Elec       q    Type
                         _______ _______ _______ _____ _____    ______ ____

>  <TORSDO>
F 2

$$$$
=
 OpenBabel11122410293D

 30 35  0  0  1  0  0  0  0  0999 V2000
  189.0290  177.6550  143.3800 C   0  0  0  0  0  0  0  0  0  0  0  0
  191.1430  177.0730  144.6050 C   0  0  0  0  0  0  0  0  0  0  0  0
  186.8650  177.5850  146.8830 N   0  0  0  0  0  2  0  0  0  0  0  0
  187.6330  177.9410  143.4200 C   0  0  0  0  0  0  0  0  0  0  0  0
  189.7370  177.7940  142.0580 C   0  0  0  0  0  2  0  0  0  0  0  0
  186.8730  178.1160  139.8690 O   0  0  0  0  0  0  0  0  0  0  0  0
  184.5680  178.2560  142.6900 C   0  0  1  0  0  3  0  0  0  0  0  0
  187.5290  177.9500  140.9330 C   0  0  0  0  0  0  0  0  0  0  0  0
  184.4370  178.0950  144.1850 C   0  0  2  0  0  3  0  0  0  0  0  0
  185.6550  177.8370  146.3400 C   0  0  0  0  0  0  0  0  0  0  0  0
  188.8820  177.2960  140.8970 C   0  0  1  0  0  3  0  0  0  0  0  0
  186.9600  178.3170  142.2020 N   0  0  0  0  0  0  0  0  0  0  0  0
  191.7850  176.7990  145.8160 C   0  0  0  0  0  3  0  0  0  0  0  0
  183.5250  179.2260  144.6070 C   0  0  0  0  0  2  0  0  0  0  0  0
  183.2630  178.9150  142.2900 C   0  0  0  0  0  2  0  0  0  0  0  0
  191.9130  177.0490  143.4490 O   0  0  0  0  0  1  0  0  0  0  0  0
  187.6800  177.6070  145.8160 C   0  0  0  0  0  0  0  0  0  0  0  0
  191.0760  176.7950  147.0150 C   0  0  0  0  0  3  0  0  0  0  0  0
  189.7490  177.3580  144.5800 C   0  0  0  0  0  0  0  0  0  0  0  0
  186.9790  177.8760  144.6670 C   0  0  0  0  0  0  0  0  0  0  0  0
  184.6010  177.8530  147.0300 O   0  0  0  0  0  0  0  0  0  0  0  0
  185.6690  178.0330  144.9940 N   0  0  0  0  0  0  0  0  0  0  0  0
  182.6770  179.5540  143.4670 N   0  0  0  0  0  2  0  0  0  0  0  0
  185.9240  180.4430  142.9210 C   0  0  0  0  0  1  0  0  0  0  0  0
  189.7120  177.0650  147.0170 C   0  0  0  0  0  3  0  0  0  0  0  0
  189.0460  177.3460  145.8180 C   0  0  0  0  0  0  0  0  0  0  0  0
  185.7370  179.1040  142.2100 C   0  0  2  0  0  3  0  0  0  0  0  0
  189.6100  177.4830  139.5620 C   0  0  0  0  0  2  0  0  0  0  0  0
  190.7900  175.5520  138.8190 O   0  0  0  0  0  1  0  0  0  0  0  0
  190.9430  176.7480  139.5170 C   0  0  0  0  0  2  0  0  0  0  0  0
  1  4  2  0  0  0  0
  1 19  1  0  0  0  0
  2 13  1  0  0  0  0
  4 20  1  0  0  0  0
  5  1  1  0  0  0  0
  6  8  2  0  0  0  0
  7 15  1  1  0  0  0
  7  9  1  0  0  0  0
  8 12  1  0  0  0  0
  9 14  1  1  0  0  0
  9 22  1  0  0  0  0
 10  3  1  0  0  0  0
 10 21  2  0  0  0  0
 11 28  1  6  0  0  0
 11  8  1  0  0  0  0
 11  5  1  0  0  0  0
 12 27  1  0  0  0  0
 12  4  1  0  0  0  0
 13 18  2  0  0  0  0
 15 23  1  0  0  0  0
 16  2  1  0  0  0  0
 17 26  1  0  0  0  0
 17  3  1  0  0  0  0
 18 25  1  0  0  0  0
 19  2  2  0  0  0  0
 19 26  1  0  0  0  0
 20 22  1  0  0  0  0
 20 17  2  0  0  0  0
 22 10  1  0  0  0  0
 23 14  1  0  0  0  0
 26 25  2  0  0  0  0
 27  7  1  0  0  0  0
 27 24  1  1  0  0  0
 29 30  1  0  0  0  0
 30 28  1  0  0  0  0
M  END
>  <MODEL>
4

>  <REMARK>
 VINA RESULT:      -8.4      2.057      6.822
  Name = 
  2 active torsions:
  status: ('A' for Active; 'I' for Inactive)
    1  A    between atoms: C_11  and  C_28
    2  A    between atoms: C_28  and  C_30
                            x       y       z     vdW  Elec       q    Type
                         _______ _______ _______ _____ _____    ______ ____

>  <TORSDO>
F 2

$$$$
=
 OpenBabel11122410293D

 30 35  0  0  1  0  0  0  0  0999 V2000
  186.1560  178.2550  142.7830 C   0  0  0  0  0  0  0  0  0  0  0  0
  183.8640  178.9200  141.9990 C   0  0  0  0  0  0  0  0  0  0  0  0
  187.5540  178.1440  138.9110 N   0  0  0  0  0  2  0  0  0  0  0  0
  187.5090  177.9350  142.4700 C   0  0  0  0  0  0  0  0  0  0  0  0
  185.7750  178.3500  144.2370 C   0  0  0  0  0  2  0  0  0  0  0  0
  188.7390  176.9110  145.7340 O   0  0  0  0  0  0  0  0  0  0  0  0
  190.4490  176.7610  142.5180 C   0  0  1  0  0  3  0  0  0  0  0  0
  187.9420  177.2970  144.8360 C   0  0  0  0  0  0  0  0  0  0  0  0
  190.2890  176.9290  141.0270 C   0  0  2  0  0  3  0  0  0  0  0  0
  188.8070  177.7310  139.1960 C   0  0  0  0  0  0  0  0  0  0  0  0
  186.4580  177.2760  145.0780 C   0  0  1  0  0  3  0  0  0  0  0  0
  188.4380  177.6900  143.5450 N   0  0  0  0  0  0  0  0  0  0  0  0
  183.0110  179.2400  140.9400 C   0  0  0  0  0  3  0  0  0  0  0  0
  191.5490  177.6440  140.5900 C   0  0  0  0  0  2  0  0  0  0  0  0
  191.9520  176.6990  142.7070 C   0  0  0  0  0  2  0  0  0  0  0  0
  183.3320  178.9380  143.2830 O   0  0  0  0  0  1  0  0  0  0  0  0
  186.9910  178.2430  140.1270 C   0  0  0  0  0  0  0  0  0  0  0  0
  183.4700  179.2330  139.6250 C   0  0  0  0  0  3  0  0  0  0  0  0
  185.2240  178.5850  141.7490 C   0  0  0  0  0  0  0  0  0  0  0  0
  187.8860  177.9090  141.1120 C   0  0  0  0  0  0  0  0  0  0  0  0
  189.6490  177.4750  138.2940 O   0  0  0  0  0  0  0  0  0  0  0  0
  189.0670  177.5820  140.5220 N   0  0  0  0  0  0  0  0  0  0  0  0
  192.5990  177.3020  141.5420 N   0  0  0  0  0  2  0  0  0  0  0  0
  190.2190  179.2980  142.9520 C   0  0  0  0  0  1  0  0  0  0  0  0
  184.7940  178.9040  139.3530 C   0  0  0  0  0  3  0  0  0  0  0  0
  185.6700  178.5820  140.3970 C   0  0  0  0  0  0  0  0  0  0  0  0
  189.8710  177.8740  143.3810 C   0  0  2  0  0  3  0  0  0  0  0  0
  186.0830  177.4180  146.5560 C   0  0  0  0  0  2  0  0  0  0  0  0
  185.6850  179.6180  147.3790 O   0  0  0  0  0  1  0  0  0  0  0  0
  185.0580  178.5190  146.7950 C   0  0  0  0  0  2  0  0  0  0  0  0
  1  5  1  0  0  0  0
  2 16  1  0  0  0  0
  3 10  1  0  0  0  0
  3 17  1  0  0  0  0
  4  1  1  0  0  0  0
  4 12  1  0  0  0  0
  5 11  1  0  0  0  0
  7 15  1  6  0  0  0
  7 27  1  0  0  0  0
  8 11  1  0  0  0  0
  8  6  2  0  0  0  0
  9 14  1  1  0  0  0
  9  7  1  0  0  0  0
 10 22  1  0  0  0  0
 11 28  1  1  0  0  0
 12  8  1  0  0  0  0
 13  2  2  0  0  0  0
 14 23  1  0  0  0  0
 17 26  2  0  0  0  0
 17 20  1  0  0  0  0
 18 13  1  0  0  0  0
 19  2  1  0  0  0  0
 19  1  2  0  0  0  0
 20  4  2  0  0  0  0
 21 10  2  0  0  0  0
 22  9  1  0  0  0  0
 22 20  1  0  0  0  0
 23 15  1  0  0  0  0
 25 18  2  0  0  0  0
 25 26  1  0  0  0  0
 26 19  1  0  0  0  0
 27 24  1  6  0  0  0
 27 12  1  0  0  0  0
 28 30  1  0  0  0  0
 30 29  1  0  0  0  0
M  END
>  <MODEL>
5

>  <REMARK>
 VINA RESULT:      -8.3      1.632      2.377
  Name = 
  2 active torsions:
  status: ('A' for Active; 'I' for Inactive)
    1  A    between atoms: C_11  and  C_28
    2  A    between atoms: C_28  and  C_30
                            x       y       z     vdW  Elec       q    Type
                         _______ _______ _______ _____ _____    ______ ____

>  <TORSDO>
F 2

$$$$
=
 OpenBabel11122410293D

 30 35  0  0  1  0  0  0  0  0999 V2000
  188.0500  177.7560  142.6540 C   0  0  0  0  0  0  0  0  0  0  0  0
  188.4570  177.4200  145.1100 C   0  0  0  0  0  0  0  0  0  0  0  0
  192.0300  177.1280  141.8090 N   0  0  0  0  0  2  0  0  0  0  0  0
  188.5600  177.7860  141.3240 C   0  0  0  0  0  0  0  0  0  0  0  0
  186.5630  177.9140  142.8400 C   0  0  0  0  0  2  0  0  0  0  0  0
  185.6460  178.9740  139.5030 O   0  0  0  0  0  0  0  0  0  0  0  0
  189.0250  178.4100  138.2550 C   0  0  1  0  0  3  0  0  0  0  0  0
  186.3800  178.6280  140.4690 C   0  0  0  0  0  0  0  0  0  0  0  0
  190.4470  178.0890  138.6460 C   0  0  2  0  0  3  0  0  0  0  0  0
  191.9560  177.3420  140.4780 C   0  0  0  0  0  0  0  0  0  0  0  0
  185.9740  178.9440  141.8820 C   0  0  1  0  0  3  0  0  0  0  0  0
  187.6470  177.9940  140.2270 N   0  0  0  0  0  0  0  0  0  0  0  0
  189.3520  177.1280  146.1430 C   0  0  0  0  0  3  0  0  0  0  0  0
  190.9150  177.1100  137.5910 C   0  0  0  0  0  2  0  0  0  0  0  0
  189.0210  178.2240  136.7500 C   0  0  0  0  0  2  0  0  0  0  0  0
  187.1320  177.6590  145.4550 O   0  0  0  0  0  1  0  0  0  0  0  0
  190.7570  177.2850  142.2060 C   0  0  0  0  0  0  0  0  0  0  0  0
  190.6980  176.8880  145.8760 C   0  0  0  0  0  3  0  0  0  0  0  0
  188.9090  177.4720  143.7620 C   0  0  0  0  0  0  0  0  0  0  0  0
  189.9420  177.5740  141.1400 C   0  0  0  0  0  0  0  0  0  0  0  0
  192.9770  177.3280  139.7390 O   0  0  0  0  0  0  0  0  0  0  0  0
  190.7050  177.6070  140.0160 N   0  0  0  0  0  0  0  0  0  0  0  0
  190.1510  177.3750  136.3780 N   0  0  0  0  0  2  0  0  0  0  0  0
  188.1980  176.0310  138.8310 C   0  0  0  0  0  1  0  0  0  0  0  0
  191.1660  176.9370  144.5670 C   0  0  0  0  0  3  0  0  0  0  0  0
  190.2890  177.2250  143.5140 C   0  0  0  0  0  0  0  0  0  0  0  0
  187.9460  177.5360  138.8800 C   0  0  2  0  0  3  0  0  0  0  0  0
  184.4580  179.0580  142.0660 C   0  0  0  0  0  2  0  0  0  0  0  0
  183.8530  179.7530  144.2620 O   0  0  0  0  0  1  0  0  0  0  0  0
  184.0050  178.6280  143.4540 C   0  0  0  0  0  2  0  0  0  0  0  0
  1  5  1  0  0  0  0
  1 19  1  0  0  0  0
  2 16  1  0  0  0  0
  2 13  1  0  0  0  0
  3 17  1  0  0  0  0
  4  1  2  0  0  0  0
  6  8  2  0  0  0  0
  7 15  1  6  0  0  0
  7  9  1  0  0  0  0
  7 27  1  0  0  0  0
  8 11  1  0  0  0  0
  9 14  1  6  0  0  0
  9 22  1  0  0  0  0
 10  3  1  0  0  0  0
 11 28  1  6  0  0  0
 11  5  1  0  0  0  0
 12  8  1  0  0  0  0
 12  4  1  0  0  0  0
 17 26  1  0  0  0  0
 18 13  2  0  0  0  0
 19  2  2  0  0  0  0
 20  4  1  0  0  0  0
 20 17  2  0  0  0  0
 21 10  2  0  0  0  0
 22 10  1  0  0  0  0
 22 20  1  0  0  0  0
 23 15  1  0  0  0  0
 23 14  1  0  0  0  0
 25 18  1  0  0  0  0
 26 19  1  0  0  0  0
 26 25  2  0  0  0  0
 27 24  1  1  0  0  0
 27 12  1  0  0  0  0
 28 30  1  0  0  0  0
 30 29  1  0  0  0  0
M  END
>  <MODEL>
6

>  <REMARK>
 VINA RESULT:      -8.3      2.188      5.465
  Name = 
  2 active torsions:
  status: ('A' for Active; 'I' for Inactive)
    1  A    between atoms: C_11  and  C_28
    2  A    between atoms: C_28  and  C_30
                            x       y       z     vdW  Elec       q    Type
                         _______ _______ _______ _____ _____    ______ ____

>  <TORSDO>
F 2

$$$$
=
 OpenBabel11122410293D

 30 35  0  0  1  0  0  0  0  0999 V2000
  186.2300  178.2860  140.9200 C   0  0  0  0  0  0  0  0  0  0  0  0
  184.2910  178.7050  139.3800 C   0  0  0  0  0  0  0  0  0  0  0  0
  183.8210  178.7230  144.2310 N   0  0  0  0  0  2  0  0  0  0  0  0
  186.7270  178.1430  142.2480 C   0  0  0  0  0  0  0  0  0  0  0  0
  187.1810  178.0210  139.7820 C   0  0  0  0  0  2  0  0  0  0  0  0
  190.2980  177.8940  141.6150 O   0  0  0  0  0  0  0  0  0  0  0  0
  188.5730  178.1060  144.8200 C   0  0  1  0  0  3  0  0  0  0  0  0
  189.0640  178.0380  141.3990 C   0  0  0  0  0  0  0  0  0  0  0  0
  187.2420  178.3430  145.4910 C   0  0  2  0  0  3  0  0  0  0  0  0
  184.7860  178.5700  145.1630 C   0  0  0  0  0  0  0  0  0  0  0  0
  188.5810  178.5520  140.0710 C   0  0  1  0  0  3  0  0  0  0  0  0
  188.1100  177.7850  142.4440 N   0  0  0  0  0  0  0  0  0  0  0  0
  182.9260  178.9650  139.2210 C   0  0  0  0  0  3  0  0  0  0  0  0
  187.2000  177.3280  146.6120 C   0  0  0  0  0  2  0  0  0  0  0  0
  189.4420  177.5650  145.9380 C   0  0  0  0  0  2  0  0  0  0  0  0
  185.0640  178.6030  138.2310 O   0  0  0  0  0  1  0  0  0  0  0  0
  184.4960  178.5740  143.0790 C   0  0  0  0  0  0  0  0  0  0  0  0
  182.0890  179.0920  140.3270 C   0  0  0  0  0  3  0  0  0  0  0  0
  184.8460  178.5600  140.6820 C   0  0  0  0  0  0  0  0  0  0  0  0
  185.8250  178.3270  143.3160 C   0  0  0  0  0  0  0  0  0  0  0  0
  184.5520  178.6890  146.3950 O   0  0  0  0  0  0  0  0  0  0  0  0
  186.0240  178.3160  144.6610 N   0  0  0  0  0  0  0  0  0  0  0  0
  188.5770  177.0390  146.9940 N   0  0  0  0  0  2  0  0  0  0  0  0
  187.8390  175.8060  143.9000 C   0  0  0  0  0  1  0  0  0  0  0  0
  182.6100  178.9590  141.6110 C   0  0  0  0  0  3  0  0  0  0  0  0
  183.9720  178.6960  141.7970 C   0  0  0  0  0  0  0  0  0  0  0  0
  188.5690  177.1250  143.6560 C   0  0  2  0  0  3  0  0  0  0  0  0
  189.5360  178.2360  138.9160 C   0  0  0  0  0  2  0  0  0  0  0  0
  188.8180  179.8890  137.3580 O   0  0  0  0  0  1  0  0  0  0  0  0
  188.9130  178.5120  137.5540 C   0  0  0  0  0  2  0  0  0  0  0  0
  1  4  1  0  0  0  0
  2 19  1  0  0  0  0
  3 10  1  0  0  0  0
  4 12  1  0  0  0  0
  4 20  2  0  0  0  0
  5 11  1  0  0  0  0
  5  1  1  0  0  0  0
  7  9  1  0  0  0  0
  7 15  1  1  0  0  0
  8  6  2  0  0  0  0
  8 12  1  0  0  0  0
  9 14  1  1  0  0  0
 10 21  2  0  0  0  0
 11 28  1  6  0  0  0
 11  8  1  0  0  0  0
 12 27  1  0  0  0  0
 13  2  2  0  0  0  0
 13 18  1  0  0  0  0
 14 23  1  0  0  0  0
 15 23  1  0  0  0  0
 16  2  1  0  0  0  0
 17 20  1  0  0  0  0
 17  3  1  0  0  0  0
 18 25  2  0  0  0  0
 19  1  2  0  0  0  0
 19 26  1  0  0  0  0
 20 22  1  0  0  0  0
 22 10  1  0  0  0  0
 22  9  1  0  0  0  0
 25 26  1  0  0  0  0
 26 17  2  0  0  0  0
 27 24  1  1  0  0  0
 27  7  1  0  0  0  0
 29 30  1  0  0  0  0
 30 28  1  0  0  0  0
M  END
>  <MODEL>
7

>  <REMARK>
 VINA RESULT:      -8.2      2.262      5.767
  Name = 
  2 active torsions:
  status: ('A' for Active; 'I' for Inactive)
    1  A    between atoms: C_11  and  C_28
    2  A    between atoms: C_28  and  C_30
                            x       y       z     vdW  Elec       q    Type
                         _______ _______ _______ _____ _____    ______ ____

>  <TORSDO>
F 2

$$$$
=
 OpenBabel11122410293D

 30 35  0  0  1  0  0  0  0  0999 V2000
  188.4860  177.4760  145.2200 C   0  0  0  0  0  0  0  0  0  0  0  0
  186.7280  178.0030  146.9350 C   0  0  0  0  0  0  0  0  0  0  0  0
  185.9680  178.5860  142.1570 N   0  0  0  0  0  2  0  0  0  0  0  0
  188.8870  177.4400  143.8530 C   0  0  0  0  0  0  0  0  0  0  0  0
  189.5150  177.1300  146.2640 C   0  0  0  0  0  2  0  0  0  0  0  0
  192.1030  175.7680  144.1320 O   0  0  0  0  0  0  0  0  0  0  0  0
  190.2920  176.7110  141.1110 C   0  0  1  0  0  3  0  0  0  0  0  0
  190.9930  176.2650  144.4660 C   0  0  0  0  0  0  0  0  0  0  0  0
  188.9870  177.2430  140.5710 C   0  0  2  0  0  3  0  0  0  0  0  0
  186.8010  178.2890  141.1370 C   0  0  0  0  0  0  0  0  0  0  0  0
  190.4110  175.9770  145.8220 C   0  0  1  0  0  3  0  0  0  0  0  0
  190.2360  177.0490  143.5280 N   0  0  0  0  0  0  0  0  0  0  0  0
  185.4430  178.4710  147.2230 C   0  0  0  0  0  3  0  0  0  0  0  0
  189.3970  178.2140  139.4850 C   0  0  0  0  0  2  0  0  0  0  0  0
  191.2320  176.8090  139.9250 C   0  0  0  0  0  2  0  0  0  0  0  0
  187.5230  177.6070  148.0040 O   0  0  0  0  0  1  0  0  0  0  0  0
  186.7030  178.2820  143.2390 C   0  0  0  0  0  0  0  0  0  0  0  0
  184.5840  178.8750  146.2030 C   0  0  0  0  0  3  0  0  0  0  0  0
  187.1820  177.9360  145.5880 C   0  0  0  0  0  0  0  0  0  0  0  0
  187.9460  177.8250  142.8770 C   0  0  0  0  0  0  0  0  0  0  0  0
  186.4510  178.3990  139.9320 O   0  0  0  0  0  0  0  0  0  0  0  0
  188.0240  177.8310  141.5190 N   0  0  0  0  0  0  0  0  0  0  0  0
  190.6920  177.7800  138.9760 N   0  0  0  0  0  2  0  0  0  0  0  0
  190.9280  178.9860  142.1580 C   0  0  0  0  0  1  0  0  0  0  0  0
  185.0030  178.8150  144.8780 C   0  0  0  0  0  3  0  0  0  0  0  0
  186.2860  178.3530  144.5640 C   0  0  0  0  0  0  0  0  0  0  0  0
  190.8820  177.4650  142.2940 C   0  0  2  0  0  3  0  0  0  0  0  0
  191.4720  175.6700  146.8840 C   0  0  0  0  0  2  0  0  0  0  0  0
  192.8140  176.5740  148.6320 O   0  0  0  0  0  1  0  0  0  0  0  0
  191.7090  176.8420  147.8270 C   0  0  0  0  0  2  0  0  0  0  0  0
  1 19  1  0  0  0  0
  1  5  1  0  0  0  0
  2 13  1  0  0  0  0
  2 16  1  0  0  0  0
  3 17  1  0  0  0  0
  4  1  2  0  0  0  0
  6  8  2  0  0  0  0
  7 15  1  6  0  0  0
  7 27  1  0  0  0  0
  8 11  1  0  0  0  0
  9 14  1  6  0  0  0
  9  7  1  0  0  0  0
  9 22  1  0  0  0  0
 10 22  1  0  0  0  0
 10  3  1  0  0  0  0
 11  5  1  0  0  0  0
 11 28  1  1  0  0  0
 12  4  1  0  0  0  0
 12  8  1  0  0  0  0
 17 26  1  0  0  0  0
 18 13  2  0  0  0  0
 19  2  2  0  0  0  0
 20 17  2  0  0  0  0
 20  4  1  0  0  0  0
 21 10  2  0  0  0  0
 22 20  1  0  0  0  0
 23 14  1  0  0  0  0
 23 15  1  0  0  0  0
 25 18  1  0  0  0  0
 26 25  2  0  0  0  0
 26 19  1  0  0  0  0
 27 24  1  6  0  0  0
 27 12  1  0  0  0  0
 28 30  1  0  0  0  0
 30 29  1  0  0  0  0
M  END
>  <MODEL>
8

>  <REMARK>
 VINA RESULT:      -8.2      1.740      2.377
  Name = 
  2 active torsions:
  status: ('A' for Active; 'I' for Inactive)
    1  A    between atoms: C_11  and  C_28
    2  A    between atoms: C_28  and  C_30
                            x       y       z     vdW  Elec       q    Type
                         _______ _______ _______ _____ _____    ______ ____

>  <TORSDO>
F 2

$$$$
=
 OpenBabel11122410293D

 30 35  0  0  1  0  0  0  0  0999 V2000
  186.3860  178.2160  144.3730 C   0  0  0  0  0  0  0  0  0  0  0  0
  184.0450  178.8050  145.0660 C   0  0  0  0  0  0  0  0  0  0  0  0
  185.3970  178.5590  140.3910 N   0  0  0  0  0  2  0  0  0  0  0  0
  187.3370  178.0140  143.3310 C   0  0  0  0  0  0  0  0  0  0  0  0
  186.8770  178.1490  145.7960 C   0  0  0  0  0  2  0  0  0  0  0  0
  190.1740  176.7680  145.2330 O   0  0  0  0  0  0  0  0  0  0  0  0
  189.8100  177.0300  141.6150 C   0  0  1  0  0  3  0  0  0  0  0  0
  189.0120  177.1850  144.9750 C   0  0  0  0  0  0  0  0  0  0  0  0
  188.8470  177.3270  140.4910 C   0  0  2  0  0  3  0  0  0  0  0  0
  186.5970  178.2020  139.8870 C   0  0  0  0  0  0  0  0  0  0  0  0
  187.9130  177.0470  145.9910 C   0  0  1  0  0  3  0  0  0  0  0  0
  188.7070  177.7280  143.6790 N   0  0  0  0  0  0  0  0  0  0  0  0
  182.7460  179.1680  144.6990 C   0  0  0  0  0  3  0  0  0  0  0  0
  189.6520  178.1580  139.5160 C   0  0  0  0  0  2  0  0  0  0  0  0
  191.1640  177.0470  140.9350 C   0  0  0  0  0  2  0  0  0  0  0  0
  184.3150  178.6680  146.4220 O   0  0  0  0  0  1  0  0  0  0  0  0
  185.6040  178.5070  141.7170 C   0  0  0  0  0  0  0  0  0  0  0  0
  182.3970  179.3140  143.3580 C   0  0  0  0  0  3  0  0  0  0  0  0
  185.0360  178.5820  144.0710 C   0  0  0  0  0  0  0  0  0  0  0  0
  186.8960  178.1400  141.9980 C   0  0  0  0  0  0  0  0  0  0  0  0
  186.7970  178.0860  138.6480 O   0  0  0  0  0  0  0  0  0  0  0  0
  187.5500  177.9450  140.8220 N   0  0  0  0  0  0  0  0  0  0  0  0
  191.0540  177.7960  139.6840 N   0  0  0  0  0  2  0  0  0  0  0  0
  189.8570  179.4950  142.3890 C   0  0  0  0  0  1  0  0  0  0  0  0
  183.3470  179.0970  142.3660 C   0  0  0  0  0  3  0  0  0  0  0  0
  184.6560  178.7350  142.7080 C   0  0  0  0  0  0  0  0  0  0  0  0
  189.8080  178.0180  142.7730 C   0  0  2  0  0  3  0  0  0  0  0  0
  188.4230  177.0260  147.4360 C   0  0  0  0  0  2  0  0  0  0  0  0
  188.4280  178.1360  149.5430 O   0  0  0  0  0  1  0  0  0  0  0  0
  187.8710  178.1770  148.2660 C   0  0  0  0  0  2  0  0  0  0  0  0
  1  5  1  0  0  0  0
  2 16  1  0  0  0  0
  3 17  1  0  0  0  0
  4 12  1  0  0  0  0
  4  1  2  0  0  0  0
  5 11  1  0  0  0  0
  7 15  1  6  0  0  0
  7 27  1  0  0  0  0
  8  6  2  0  0  0  0
  8 11  1  0  0  0  0
  9 14  1  6  0  0  0
  9 22  1  0  0  0  0
  9  7  1  0  0  0  0
 10  3  1  0  0  0  0
 10 22  1  0  0  0  0
 11 28  1  1  0  0  0
 12  8  1  0  0  0  0
 13  2  1  0  0  0  0
 14 23  1  0  0  0  0
 17 20  2  0  0  0  0
 17 26  1  0  0  0  0
 18 13  2  0  0  0  0
 19  1  1  0  0  0  0
 19  2  2  0  0  0  0
 20  4  1  0  0  0  0
 21 10  2  0  0  0  0
 22 20  1  0  0  0  0
 23 15  1  0  0  0  0
 25 26  2  0  0  0  0
 25 18  1  0  0  0  0
 26 19  1  0  0  0  0
 27 24  1  6  0  0  0
 27 12  1  0  0  0  0
 28 30  1  0  0  0  0
 30 29  1  0  0  0  0
M  END
>  <MODEL>
9

>  <REMARK>
 VINA RESULT:      -8.1      1.024      1.102
  Name = 
  2 active torsions:
  status: ('A' for Active; 'I' for Inactive)
    1  A    between atoms: C_11  and  C_28
    2  A    between atoms: C_28  and  C_30
                            x       y       z     vdW  Elec       q    Type
                         _______ _______ _______ _____ _____    ______ ____

>  <TORSDO>
F 2

$$$$
