=
 OpenBabel11122410263D

 30 35  0  0  1  0  0  0  0  0999 V2000
  186.0280  178.2360  142.1230 C   0  0  0  0  0  0  0  0  0  0  0  0
  183.6840  179.0140  142.4990 C   0  0  0  0  0  0  0  0  0  0  0  0
  186.5750  177.5860  146.2390 N   0  0  0  0  0  2  0  0  0  0  0  0
  187.2560  177.7690  142.6580 C   0  0  0  0  0  0  0  0  0  0  0  0
  185.9280  178.4490  140.7090 N   0  0  0  0  0  2  0  0  0  0  0  0
  189.3020  177.6810  139.5160 O   0  0  0  0  0  1  0  0  0  0  0  0
  190.0450  178.5140  143.4000 C   0  0  1  0  0  3  0  0  0  0  0  0
  188.3370  178.1680  140.4010 C   0  0  1  0  0  3  0  0  0  0  0  0
  189.6090  178.1540  144.7660 N   0  0  2  0  0  0  0  0  0  0  0  0
  187.9240  177.1360  146.2060 C   0  0  0  0  0  0  0  0  0  0  0  0
  186.9550  178.0050  139.7750 C   0  0  2  0  0  3  0  0  0  0  0  0
  188.3950  177.3890  141.7200 C   0  0  1  0  0  3  0  0  0  0  0  0
  182.6380  179.2760  143.3880 C   0  0  0  0  0  3  0  0  0  0  0  0
  190.8050  177.6410  145.4200 C   0  0  0  0  0  2  0  0  0  0  0  0
  191.5200  178.8580  143.4740 C   0  0  0  0  0  2  0  0  0  0  0  0
  183.4620  179.2440  141.1460 O   0  0  0  0  0  1  0  0  0  0  0  0
  186.2830  177.8500  144.8770 C   0  0  0  0  0  0  0  0  0  0  0  0
  182.7960  179.0650  144.7570 C   0  0  0  0  0  3  0  0  0  0  0  0
  184.9260  178.5300  142.9820 C   0  0  0  0  0  0  0  0  0  0  0  0
  187.3480  177.5860  144.0440 C   0  0  0  0  0  0  0  0  0  0  0  0
  188.5290  176.7520  147.2420 O   0  0  0  0  0  0  0  0  0  0  0  0
  188.5400  177.1430  144.8340 C   0  0  1  0  0  3  0  0  0  0  0  0
  191.9840  178.3820  144.8320 C   0  0  0  0  0  2  0  0  0  0  0  0
  190.3400  176.0530  142.6510 C   0  0  0  0  0  1  0  0  0  0  0  0
  184.0070  178.5890  145.2530 C   0  0  0  0  0  3  0  0  0  0  0  0
  185.0690  178.3220  144.3830 C   0  0  0  0  0  0  0  0  0  0  0  0
  189.8140  177.4420  142.3110 C   0  0  2  0  0  3  0  0  0  0  0  0
  186.8670  178.7510  138.5990 O   0  0  0  0  0  0  0  0  0  0  0  0
  186.5860  176.8710  137.1710 C   0  0  0  0  0  1  0  0  0  0  0  0
  185.9310  178.0740  137.8160 C   0  0  0  0  0  2  0  0  0  0  0  0
  1  4  2  0  0  0  0
  1 19  1  0  0  0  0
  2 19  2  0  0  0  0
  2 13  1  0  0  0  0
  4 20  1  0  0  0  0
  5  1  1  0  0  0  0
  7 15  1  1  0  0  0
  7  9  1  0  0  0  0
  8  6  1  6  0  0  0
  8 12  1  0  0  0  0
  9 22  1  0  0  0  0
  9 14  1  1  0  0  0
 10  3  1  0  0  0  0
 10 21  2  0  0  0  0
 11 28  1  6  0  0  0
 11  8  1  0  0  0  0
 11  5  1  0  0  0  0
 12 27  1  0  0  0  0
 12  4  1  1  0  0  0
 13 18  2  0  0  0  0
 15 23  1  0  0  0  0
 16  2  1  0  0  0  0
 17  3  1  0  0  0  0
 18 25  1  0  0  0  0
 19 26  1  0  0  0  0
 20 17  2  0  0  0  0
 22 20  1  6  0  0  0
 22 10  1  0  0  0  0
 23 14  1  0  0  0  0
 26 17  1  0  0  0  0
 26 25  2  0  0  0  0
 27 24  1  1  0  0  0
 27  7  1  0  0  0  0
 29 30  1  0  0  0  0
 30 28  1  0  0  0  0
M  END
>  <MODEL>
1

>  <REMARK>
 VINA RESULT:      -9.8      0.000      0.000
  Name = 
  2 active torsions:
  status: ('A' for Active; 'I' for Inactive)
    1  A    between atoms: C_11  and  O_28
    2  A    between atoms: O_28  and  C_30
                            x       y       z     vdW  Elec       q    Type
                         _______ _______ _______ _____ _____    ______ ____

>  <TORSDO>
F 2

$$$$
=
 OpenBabel11122410263D

 30 35  0  0  1  0  0  0  0  0999 V2000
  186.9360  178.1930  142.3240 C   0  0  0  0  0  0  0  0  0  0  0  0
  188.1440  177.6570  144.4430 C   0  0  0  0  0  0  0  0  0  0  0  0
  183.3120  178.6760  144.3980 N   0  0  0  0  0  2  0  0  0  0  0  0
  185.7220  178.5140  141.6620 C   0  0  0  0  0  0  0  0  0  0  0  0
  188.1260  178.0290  141.5410 N   0  0  0  0  0  2  0  0  0  0  0  0
  186.9280  178.4670  138.1100 O   0  0  0  0  0  1  0  0  0  0  0  0
  183.4940  177.4600  139.9870 C   0  0  1  0  0  3  0  0  0  0  0  0
  186.8660  178.0620  139.4460 C   0  0  1  0  0  3  0  0  0  0  0  0
  182.6570  177.8290  141.1490 N   0  0  2  0  0  0  0  0  0  0  0  0
  182.4720  178.9820  143.2910 C   0  0  0  0  0  0  0  0  0  0  0  0
  188.1910  178.3860  140.1300 C   0  0  2  0  0  3  0  0  0  0  0  0
  185.7280  178.7960  140.1650 C   0  0  1  0  0  3  0  0  0  0  0  0
  188.1090  177.4840  145.8300 C   0  0  0  0  0  3  0  0  0  0  0  0
  181.3660  178.1960  140.5830 C   0  0  0  0  0  2  0  0  0  0  0  0
  182.5600  176.9620  138.9010 C   0  0  0  0  0  2  0  0  0  0  0  0
  189.3630  177.4870  143.7960 O   0  0  0  0  0  1  0  0  0  0  0  0
  184.5830  178.4790  143.8020 C   0  0  0  0  0  0  0  0  0  0  0  0
  186.9190  177.6420  146.5380 C   0  0  0  0  0  3  0  0  0  0  0  0
  186.9620  177.9950  143.7370 C   0  0  0  0  0  0  0  0  0  0  0  0
  184.5620  178.6510  142.4350 C   0  0  0  0  0  0  0  0  0  0  0  0
  181.2550  179.2730  143.4320 O   0  0  0  0  0  0  0  0  0  0  0  0
  183.1730  178.9450  141.9600 C   0  0  1  0  0  3  0  0  0  0  0  0
  181.1690  177.3510  139.3450 C   0  0  0  0  0  2  0  0  0  0  0  0
  183.6910  179.8950  139.1280 C   0  0  0  0  0  1  0  0  0  0  0  0
  185.7470  177.9750  145.8660 C   0  0  0  0  0  3  0  0  0  0  0  0
  185.7560  178.1510  144.4780 C   0  0  0  0  0  0  0  0  0  0  0  0
  184.3990  178.5790  139.4230 C   0  0  2  0  0  3  0  0  0  0  0  0
  189.2330  177.6830  139.5210 O   0  0  0  0  0  0  0  0  0  0  0  0
  191.4320  177.3460  140.3590 C   0  0  0  0  0  1  0  0  0  0  0  0
  189.9510  177.1210  140.5780 C   0  0  0  0  0  2  0  0  0  0  0  0
  1 19  1  0  0  0  0
  2 13  1  0  0  0  0
  4  1  2  0  0  0  0
  4 20  1  0  0  0  0
  5  1  1  0  0  0  0
  7 15  1  6  0  0  0
  7  9  1  0  0  0  0
  8  6  1  6  0  0  0
  8 11  1  0  0  0  0
  8 12  1  0  0  0  0
  9 14  1  6  0  0  0
  9 22  1  0  0  0  0
 10 21  2  0  0  0  0
 10  3  1  0  0  0  0
 11 28  1  6  0  0  0
 11  5  1  0  0  0  0
 12  4  1  1  0  0  0
 13 18  2  0  0  0  0
 15 23  1  0  0  0  0
 16  2  1  0  0  0  0
 17  3  1  0  0  0  0
 17 26  1  0  0  0  0
 19  2  2  0  0  0  0
 19 26  1  0  0  0  0
 20 17  2  0  0  0  0
 22 20  1  1  0  0  0
 22 10  1  0  0  0  0
 23 14  1  0  0  0  0
 25 18  1  0  0  0  0
 26 25  2  0  0  0  0
 27 24  1  1  0  0  0
 27  7  1  0  0  0  0
 27 12  1  0  0  0  0
 28 30  1  0  0  0  0
 29 30  1  0  0  0  0
M  END
>  <MODEL>
2

>  <REMARK>
 VINA RESULT:      -9.5      2.170      5.838
  Name = 
  2 active torsions:
  status: ('A' for Active; 'I' for Inactive)
    1  A    between atoms: C_11  and  O_28
    2  A    between atoms: O_28  and  C_30
                            x       y       z     vdW  Elec       q    Type
                         _______ _______ _______ _____ _____    ______ ____

>  <TORSDO>
F 2

$$$$
=
 OpenBabel11122410263D

 30 35  0  0  1  0  0  0  0  0999 V2000
  188.3920  177.8220  142.4380 C   0  0  0  0  0  0  0  0  0  0  0  0
  187.4860  177.6720  144.7610 C   0  0  0  0  0  0  0  0  0  0  0  0
  184.6200  178.9020  140.9320 N   0  0  0  0  0  2  0  0  0  0  0  0
  188.1690  178.0620  141.0570 C   0  0  0  0  0  0  0  0  0  0  0  0
  189.7060  177.4410  142.8690 N   0  0  0  0  0  2  0  0  0  0  0  0
  191.5770  177.2260  139.7300 O   0  0  0  0  0  1  0  0  0  0  0  0
  187.7900  176.8000  138.3840 C   0  0  1  0  0  3  0  0  0  0  0  0
  190.4660  177.1070  140.5700 C   0  0  1  0  0  3  0  0  0  0  0  0
  186.4590  177.4410  138.4460 N   0  0  2  0  0  0  0  0  0  0  0  0
  184.9650  179.0170  139.5560 C   0  0  0  0  0  0  0  0  0  0  0  0
  190.8660  177.4970  141.9890 C   0  0  2  0  0  3  0  0  0  0  0  0
  189.3410  178.0300  140.0850 C   0  0  1  0  0  3  0  0  0  0  0  0
  186.3980  177.7900  145.6310 C   0  0  0  0  0  3  0  0  0  0  0  0
  186.1240  177.7490  137.0620 C   0  0  0  0  0  2  0  0  0  0  0  0
  187.9070  176.1370  137.0250 C   0  0  0  0  0  2  0  0  0  0  0  0
  188.7160  177.3120  145.3000 O   0  0  0  0  0  1  0  0  0  0  0  0
  185.8400  178.5240  141.5470 C   0  0  0  0  0  0  0  0  0  0  0  0
  185.1390  178.1490  145.1540 C   0  0  0  0  0  3  0  0  0  0  0  0
  187.3190  177.9170  143.3740 C   0  0  0  0  0  0  0  0  0  0  0  0
  186.8770  178.4120  140.6460 C   0  0  0  0  0  0  0  0  0  0  0  0
  184.1350  179.3920  138.6860 O   0  0  0  0  0  0  0  0  0  0  0  0
  186.3970  178.6720  139.2520 C   0  0  1  0  0  3  0  0  0  0  0  0
  186.7590  176.6790  136.2040 C   0  0  0  0  0  2  0  0  0  0  0  0
  189.0170  178.9940  137.7610 C   0  0  0  0  0  1  0  0  0  0  0  0
  184.9530  178.3960  143.7970 C   0  0  0  0  0  3  0  0  0  0  0  0
  186.0250  178.2830  142.9060 C   0  0  0  0  0  0  0  0  0  0  0  0
  189.0010  177.7320  138.6140 C   0  0  2  0  0  3  0  0  0  0  0  0
  191.8530  176.6330  142.4670 O   0  0  0  0  0  0  0  0  0  0  0  0
  191.9900  175.1340  144.3060 C   0  0  0  0  0  1  0  0  0  0  0  0
  191.5950  176.5170  143.8330 C   0  0  0  0  0  2  0  0  0  0  0  0
  1  5  1  0  0  0  0
  1 19  1  0  0  0  0
  2 16  1  0  0  0  0
  2 13  1  0  0  0  0
  3 17  1  0  0  0  0
  4  1  2  0  0  0  0
  7 15  1  6  0  0  0
  7  9  1  0  0  0  0
  7 27  1  0  0  0  0
  8  6  1  6  0  0  0
  8 11  1  0  0  0  0
  9 14  1  6  0  0  0
  9 22  1  0  0  0  0
 10  3  1  0  0  0  0
 11 28  1  1  0  0  0
 11  5  1  0  0  0  0
 12  8  1  0  0  0  0
 12  4  1  1  0  0  0
 17 26  1  0  0  0  0
 18 13  2  0  0  0  0
 19  2  2  0  0  0  0
 20  4  1  0  0  0  0
 20 17  2  0  0  0  0
 21 10  2  0  0  0  0
 22 10  1  1  0  0  0
 22 20  1  0  0  0  0
 23 15  1  0  0  0  0
 23 14  1  0  0  0  0
 25 18  1  0  0  0  0
 26 19  1  0  0  0  0
 26 25  2  0  0  0  0
 27 24  1  6  0  0  0
 27 12  1  0  0  0  0
 28 30  1  0  0  0  0
 30 29  1  0  0  0  0
M  END
>  <MODEL>
3

>  <REMARK>
 VINA RESULT:      -8.7      1.834      5.819
  Name = 
  2 active torsions:
  status: ('A' for Active; 'I' for Inactive)
    1  A    between atoms: C_11  and  O_28
    2  A    between atoms: O_28  and  C_30
                            x       y       z     vdW  Elec       q    Type
                         _______ _______ _______ _____ _____    ______ ____

>  <TORSDO>
F 2

$$$$
=
 OpenBabel11122410263D

 30 35  0  0  1  0  0  0  0  0999 V2000
  186.6830  178.2520  140.9650 C   0  0  0  0  0  0  0  0  0  0  0  0
  184.3440  179.0830  140.6870 C   0  0  0  0  0  0  0  0  0  0  0  0
  186.0720  177.6210  145.0760 N   0  0  0  0  0  2  0  0  0  0  0  0
  187.7080  177.7620  141.8160 C   0  0  0  0  0  0  0  0  0  0  0  0
  186.9770  178.4560  139.5770 N   0  0  0  0  0  2  0  0  0  0  0  0
  190.5300  177.6050  139.3490 O   0  0  0  0  0  1  0  0  0  0  0  0
  190.2050  178.4520  143.2880 C   0  0  1  0  0  3  0  0  0  0  0  0
  189.3710  178.1200  139.9380 C   0  0  1  0  0  3  0  0  0  0  0  0
  189.4060  178.1120  144.4840 N   0  0  2  0  0  0  0  0  0  0  0  0
  187.3690  177.1410  145.4120 C   0  0  0  0  0  0  0  0  0  0  0  0
  188.2090  177.9830  138.9590 C   0  0  2  0  0  3  0  0  0  0  0  0
  189.0500  177.3500  141.2240 C   0  0  1  0  0  3  0  0  0  0  0  0
  183.1020  179.3750  141.2570 C   0  0  0  0  0  3  0  0  0  0  0  0
  190.3660  177.5780  145.4400 C   0  0  0  0  0  2  0  0  0  0  0  0
  191.6120  178.7630  143.7610 C   0  0  0  0  0  2  0  0  0  0  0  0
  184.5040  179.3080  139.3240 O   0  0  0  0  0  1  0  0  0  0  0  0
  186.1690  177.8810  143.6850 C   0  0  0  0  0  0  0  0  0  0  0  0
  182.8760  179.1710  142.6170 C   0  0  0  0  0  3  0  0  0  0  0  0
  185.3960  178.5760  141.4900 C   0  0  0  0  0  0  0  0  0  0  0  0
  187.4140  177.5880  143.1740 C   0  0  0  0  0  0  0  0  0  0  0  0
  187.6600  176.7520  146.5740 O   0  0  0  0  0  0  0  0  0  0  0  0
  188.3360  177.1250  144.2590 C   0  0  1  0  0  3  0  0  0  0  0  0
  191.6780  178.2880  145.1940 C   0  0  0  0  0  2  0  0  0  0  0  0
  190.6360  175.9790  142.6510 C   0  0  0  0  0  1  0  0  0  0  0  0
  183.8940  178.6720  143.4250 C   0  0  0  0  0  3  0  0  0  0  0  0
  185.1470  178.3750  142.8780 C   0  0  0  0  0  0  0  0  0  0  0  0
  190.2550  177.3760  142.1790 C   0  0  2  0  0  3  0  0  0  0  0  0
  188.4630  178.7210  137.8020 O   0  0  0  0  0  0  0  0  0  0  0  0
  188.2580  176.6640  136.6280 C   0  0  0  0  0  1  0  0  0  0  0  0
  187.7370  178.0750  136.8000 C   0  0  0  0  0  2  0  0  0  0  0  0
  1 19  2  0  0  0  0
  1  4  1  0  0  0  0
  2 13  2  0  0  0  0
  2 19  1  0  0  0  0
  3 10  1  0  0  0  0
  4 20  2  0  0  0  0
  5  1  1  0  0  0  0
  7 15  1  1  0  0  0
  7  9  1  0  0  0  0
  8  6  1  6  0  0  0
  8 12  1  0  0  0  0
  9 14  1  1  0  0  0
 10 21  2  0  0  0  0
 11 28  1  6  0  0  0
 11  5  1  0  0  0  0
 11  8  1  0  0  0  0
 12  4  1  1  0  0  0
 12 27  1  0  0  0  0
 13 18  1  0  0  0  0
 15 23  1  0  0  0  0
 16  2  1  0  0  0  0
 17  3  1  0  0  0  0
 18 25  2  0  0  0  0
 19 26  1  0  0  0  0
 20 17  1  0  0  0  0
 22 20  1  6  0  0  0
 22  9  1  0  0  0  0
 22 10  1  0  0  0  0
 23 14  1  0  0  0  0
 26 25  1  0  0  0  0
 26 17  2  0  0  0  0
 27 24  1  1  0  0  0
 27  7  1  0  0  0  0
 29 30  1  0  0  0  0
 30 28  1  0  0  0  0
M  END
>  <MODEL>
4

>  <REMARK>
 VINA RESULT:      -8.7      1.163      1.346
  Name = 
  2 active torsions:
  status: ('A' for Active; 'I' for Inactive)
    1  A    between atoms: C_11  and  O_28
    2  A    between atoms: O_28  and  C_30
                            x       y       z     vdW  Elec       q    Type
                         _______ _______ _______ _____ _____    ______ ____

>  <TORSDO>
F 2

$$$$
=
 OpenBabel11122410263D

 30 35  0  0  1  0  0  0  0  0999 V2000
  187.8760  177.8950  140.9880 C   0  0  0  0  0  0  0  0  0  0  0  0
  189.6940  177.1880  142.5470 C   0  0  0  0  0  0  0  0  0  0  0  0
  185.2380  178.5300  144.1990 N   0  0  0  0  0  2  0  0  0  0  0  0
  186.5370  178.3250  140.7940 C   0  0  0  0  0  0  0  0  0  0  0  0
  188.7070  177.6850  139.8390 N   0  0  0  0  0  2  0  0  0  0  0  0
  186.4380  178.3510  137.0440 O   0  0  0  0  0  1  0  0  0  0  0  0
  183.7930  177.4960  139.9790 C   0  0  1  0  0  3  0  0  0  0  0  0
  186.8090  177.8930  138.3120 C   0  0  1  0  0  3  0  0  0  0  0  0
  183.4400  177.8700  141.3640 N   0  0  2  0  0  0  0  0  0  0  0  0
  184.0940  178.9390  143.4570 C   0  0  0  0  0  0  0  0  0  0  0  0
  188.3090  178.0970  138.4990 C   0  0  2  0  0  3  0  0  0  0  0  0
  186.0490  178.6700  139.3930 C   0  0  1  0  0  3  0  0  0  0  0  0
  190.1260  176.9590  143.8570 C   0  0  0  0  0  3  0  0  0  0  0  0
  182.0660  178.3460  141.2870 C   0  0  0  0  0  2  0  0  0  0  0  0
  182.5070  177.1080  139.2750 C   0  0  0  0  0  2  0  0  0  0  0  0
  190.5980  176.9650  141.5140 O   0  0  0  0  0  1  0  0  0  0  0  0
  186.2060  178.2740  143.1950 C   0  0  0  0  0  0  0  0  0  0  0  0
  189.2700  177.1650  144.9370 C   0  0  0  0  0  3  0  0  0  0  0  0
  188.3710  177.6350  142.3010 C   0  0  0  0  0  0  0  0  0  0  0  0
  185.7290  178.5060  141.9230 C   0  0  0  0  0  0  0  0  0  0  0  0
  183.0280  179.3050  144.0170 O   0  0  0  0  0  0  0  0  0  0  0  0
  184.2890  178.9120  141.9650 C   0  0  1  0  0  3  0  0  0  0  0  0
  181.3880  177.5710  140.1810 C   0  0  0  0  0  2  0  0  0  0  0  0
  183.8710  179.9470  139.1460 C   0  0  0  0  0  1  0  0  0  0  0  0
  187.9670  177.6050  144.7180 C   0  0  0  0  0  3  0  0  0  0  0  0
  187.5110  177.8390  143.4160 C   0  0  0  0  0  0  0  0  0  0  0  0
  184.5330  178.5750  139.1550 C   0  0  2  0  0  3  0  0  0  0  0  0
  189.0190  177.3540  137.5540 O   0  0  0  0  0  0  0  0  0  0  0  0
  189.4400  175.1140  136.8760 C   0  0  0  0  0  1  0  0  0  0  0  0
  188.6910  176.0250  137.8270 C   0  0  0  0  0  2  0  0  0  0  0  0
  1 19  1  0  0  0  0
  2 13  1  0  0  0  0
  4  1  2  0  0  0  0
  4 20  1  0  0  0  0
  5  1  1  0  0  0  0
  7 15  1  6  0  0  0
  7  9  1  0  0  0  0
  8  6  1  6  0  0  0
  8 11  1  0  0  0  0
  8 12  1  0  0  0  0
  9 14  1  6  0  0  0
  9 22  1  0  0  0  0
 10 21  2  0  0  0  0
 10  3  1  0  0  0  0
 11 28  1  6  0  0  0
 11  5  1  0  0  0  0
 12  4  1  1  0  0  0
 13 18  2  0  0  0  0
 15 23  1  0  0  0  0
 16  2  1  0  0  0  0
 17 26  1  0  0  0  0
 17  3  1  0  0  0  0
 19  2  2  0  0  0  0
 19 26  1  0  0  0  0
 20 17  2  0  0  0  0
 22 20  1  1  0  0  0
 22 10  1  0  0  0  0
 23 14  1  0  0  0  0
 25 18  1  0  0  0  0
 26 25  2  0  0  0  0
 27 24  1  1  0  0  0
 27 12  1  0  0  0  0
 27  7  1  0  0  0  0
 28 30  1  0  0  0  0
 29 30  1  0  0  0  0
M  END
>  <MODEL>
5

>  <REMARK>
 VINA RESULT:      -8.0      2.090      5.736
  Name = 
  2 active torsions:
  status: ('A' for Active; 'I' for Inactive)
    1  A    between atoms: C_11  and  O_28
    2  A    between atoms: O_28  and  C_30
                            x       y       z     vdW  Elec       q    Type
                         _______ _______ _______ _____ _____    ______ ____

>  <TORSDO>
F 2

$$$$
=
 OpenBabel11122410263D

 30 35  0  0  1  0  0  0  0  0999 V2000
  184.9800  178.6280  141.6710 C   0  0  0  0  0  0  0  0  0  0  0  0
  186.0210  178.4470  143.9330 C   0  0  0  0  0  0  0  0  0  0  0  0
  181.1630  179.1270  143.3590 N   0  0  0  0  0  2  0  0  0  0  0  0
  183.8140  178.7810  140.8750 C   0  0  0  0  0  0  0  0  0  0  0  0
  186.2430  178.4450  141.0170 N   0  0  0  0  0  2  0  0  0  0  0  0
  185.3350  178.3640  137.4710 O   0  0  0  0  0  1  0  0  0  0  0  0
  181.8070  177.3770  139.1780 C   0  0  1  0  0  3  0  0  0  0  0  0
  185.1760  178.1280  138.8400 C   0  0  1  0  0  3  0  0  0  0  0  0
  180.8510  177.8330  140.2080 N   0  0  2  0  0  0  0  0  0  0  0  0
  180.4100  179.2340  142.1560 C   0  0  0  0  0  0  0  0  0  0  0  0
  186.4150  178.6240  139.5810 C   0  0  2  0  0  3  0  0  0  0  0  0
  183.9390  178.8700  139.3590 C   0  0  1  0  0  3  0  0  0  0  0  0
  185.8710  178.4500  145.3230 C   0  0  0  0  0  3  0  0  0  0  0  0
  179.5980  178.0380  139.4940 C   0  0  0  0  0  2  0  0  0  0  0  0
  181.0040  176.6830  138.0940 C   0  0  0  0  0  2  0  0  0  0  0  0
  187.3000  178.2780  143.4160 O   0  0  0  0  0  1  0  0  0  0  0  0
  182.4920  178.9420  142.9000 C   0  0  0  0  0  0  0  0  0  0  0  0
  184.6160  178.6160  145.9050 C   0  0  0  0  0  3  0  0  0  0  0  0
  184.8900  178.6130  143.0940 C   0  0  0  0  0  0  0  0  0  0  0  0
  182.5840  178.9370  141.5250 C   0  0  0  0  0  0  0  0  0  0  0  0
  179.1720  179.4590  142.1580 O   0  0  0  0  0  0  0  0  0  0  0  0
  181.2290  179.0750  140.9040 C   0  0  1  0  0  3  0  0  0  0  0  0
  179.5590  177.0320  138.3680 C   0  0  0  0  0  2  0  0  0  0  0  0
  181.9450  179.6900  138.0230 C   0  0  0  0  0  1  0  0  0  0  0  0
  183.4920  178.7820  145.1010 C   0  0  0  0  0  3  0  0  0  0  0  0
  183.6160  178.7810  143.7070 C   0  0  0  0  0  0  0  0  0  0  0  0
  182.6960  178.4720  138.5460 C   0  0  2  0  0  3  0  0  0  0  0  0
  187.5440  177.9210  139.1570 O   0  0  0  0  0  0  0  0  0  0  0  0
  189.6240  177.2000  140.0540 C   0  0  0  0  0  1  0  0  0  0  0  0
  188.5380  178.2550  140.0770 C   0  0  0  0  0  2  0  0  0  0  0  0
  1 19  1  0  0  0  0
  2 13  1  0  0  0  0
  4 20  1  0  0  0  0
  4  1  2  0  0  0  0
  5  1  1  0  0  0  0
  7 15  1  6  0  0  0
  7  9  1  0  0  0  0
  8  6  1  6  0  0  0
  8 12  1  0  0  0  0
  8 11  1  0  0  0  0
  9 14  1  6  0  0  0
  9 22  1  0  0  0  0
 10 21  2  0  0  0  0
 10  3  1  0  0  0  0
 11 28  1  6  0  0  0
 11  5  1  0  0  0  0
 12  4  1  1  0  0  0
 13 18  2  0  0  0  0
 15 23  1  0  0  0  0
 16  2  1  0  0  0  0
 17  3  1  0  0  0  0
 17 26  1  0  0  0  0
 19 26  1  0  0  0  0
 19  2  2  0  0  0  0
 20 17  2  0  0  0  0
 22 20  1  1  0  0  0
 22 10  1  0  0  0  0
 23 14  1  0  0  0  0
 25 18  1  0  0  0  0
 26 25  2  0  0  0  0
 27 24  1  1  0  0  0
 27  7  1  0  0  0  0
 27 12  1  0  0  0  0
 28 30  1  0  0  0  0
 29 30  1  0  0  0  0
M  END
>  <MODEL>
6

>  <REMARK>
 VINA RESULT:      -7.7      3.028      6.785
  Name = 
  2 active torsions:
  status: ('A' for Active; 'I' for Inactive)
    1  A    between atoms: C_11  and  O_28
    2  A    between atoms: O_28  and  C_30
                            x       y       z     vdW  Elec       q    Type
                         _______ _______ _______ _____ _____    ______ ____

>  <TORSDO>
F 2

$$$$
=
 OpenBabel11122410263D

 30 35  0  0  1  0  0  0  0  0999 V2000
  189.1710  177.2280  140.6640 C   0  0  0  0  0  0  0  0  0  0  0  0
  189.6410  176.8490  143.0870 C   0  0  0  0  0  0  0  0  0  0  0  0
  185.3980  178.8540  141.5510 N   0  0  0  0  0  2  0  0  0  0  0  0
  188.2820  177.6730  139.6510 C   0  0  0  0  0  0  0  0  0  0  0  0
  190.4340  176.6690  140.2770 N   0  0  0  0  0  2  0  0  0  0  0  0
  190.2720  176.7090  136.6200 O   0  0  0  0  0  1  0  0  0  0  0  0
  186.3410  176.8290  137.5530 C   0  0  1  0  0  3  0  0  0  0  0  0
  189.7810  176.5820  137.9230 C   0  0  1  0  0  3  0  0  0  0  0  0
  185.3680  177.5780  138.3770 N   0  0  2  0  0  0  0  0  0  0  0  0
  184.9640  179.1210  140.2220 C   0  0  0  0  0  0  0  0  0  0  0  0
  190.9340  176.7350  138.9100 C   0  0  2  0  0  3  0  0  0  0  0  0
  188.7290  177.6640  138.1950 C   0  0  1  0  0  3  0  0  0  0  0  0
  189.2230  176.9480  144.4180 C   0  0  0  0  0  3  0  0  0  0  0  0
  184.3950  178.1010  137.4270 C   0  0  0  0  0  2  0  0  0  0  0  0
  185.6080  176.3490  136.3150 C   0  0  0  0  0  2  0  0  0  0  0  0
  190.8960  176.3040  142.8380 O   0  0  0  0  0  1  0  0  0  0  0  0
  186.6830  178.2820  141.3680 C   0  0  0  0  0  0  0  0  0  0  0  0
  187.9770  177.4860  144.7350 C   0  0  0  0  0  3  0  0  0  0  0  0
  188.7970  177.2950  142.0390 C   0  0  0  0  0  0  0  0  0  0  0  0
  187.0430  178.1960  140.0410 C   0  0  0  0  0  0  0  0  0  0  0  0
  183.8670  179.6880  139.9760 O   0  0  0  0  0  0  0  0  0  0  0  0
  185.9370  178.6880  139.1590 C   0  0  1  0  0  3  0  0  0  0  0  0
  184.2980  177.1040  136.2960 C   0  0  0  0  0  2  0  0  0  0  0  0
  187.3620  178.9620  136.4980 C   0  0  0  0  0  1  0  0  0  0  0  0
  187.1330  177.9320  143.7220 C   0  0  0  0  0  3  0  0  0  0  0  0
  187.5280  177.8410  142.3830 C   0  0  0  0  0  0  0  0  0  0  0  0
  187.6130  177.6030  137.1380 C   0  0  2  0  0  3  0  0  0  0  0  0
  191.8770  175.7250  138.7110 O   0  0  0  0  0  0  0  0  0  0  0  0
  193.9760  175.4320  137.6330 C   0  0  0  0  0  1  0  0  0  0  0  0
  193.0440  176.3950  138.3380 C   0  0  0  0  0  2  0  0  0  0  0  0
  1 19  1  0  0  0  0
  2 13  1  0  0  0  0
  4 20  1  0  0  0  0
  4  1  2  0  0  0  0
  5  1  1  0  0  0  0
  7 15  1  6  0  0  0
  7  9  1  0  0  0  0
  8  6  1  6  0  0  0
  8 12  1  0  0  0  0
  8 11  1  0  0  0  0
  9 14  1  6  0  0  0
  9 22  1  0  0  0  0
 10  3  1  0  0  0  0
 11 28  1  1  0  0  0
 11  5  1  0  0  0  0
 12  4  1  1  0  0  0
 13 18  2  0  0  0  0
 16  2  1  0  0  0  0
 17  3  1  0  0  0  0
 17 26  1  0  0  0  0
 19 26  1  0  0  0  0
 19  2  2  0  0  0  0
 20 17  2  0  0  0  0
 21 10  2  0  0  0  0
 22 20  1  1  0  0  0
 22 10  1  0  0  0  0
 23 15  1  0  0  0  0
 23 14  1  0  0  0  0
 25 18  1  0  0  0  0
 26 25  2  0  0  0  0
 27 24  1  1  0  0  0
 27  7  1  0  0  0  0
 27 12  1  0  0  0  0
 29 30  1  0  0  0  0
 30 28  1  0  0  0  0
M  END
>  <MODEL>
7

>  <REMARK>
 VINA RESULT:      -7.3      2.589      6.391
  Name = 
  2 active torsions:
  status: ('A' for Active; 'I' for Inactive)
    1  A    between atoms: C_11  and  O_28
    2  A    between atoms: O_28  and  C_30
                            x       y       z     vdW  Elec       q    Type
                         _______ _______ _______ _____ _____    ______ ____

>  <TORSDO>
F 2

$$$$
=
 OpenBabel11122410263D

 30 35  0  0  1  0  0  0  0  0999 V2000
  187.8780  177.9190  142.3450 C   0  0  0  0  0  0  0  0  0  0  0  0
  185.6950  178.3110  143.4940 C   0  0  0  0  0  0  0  0  0  0  0  0
  186.1370  178.6260  138.5850 N   0  0  0  0  0  2  0  0  0  0  0  0
  188.6210  177.8330  141.1390 C   0  0  0  0  0  0  0  0  0  0  0  0
  188.5420  177.6460  143.5860 N   0  0  0  0  0  2  0  0  0  0  0  0
  191.9190  176.7090  142.5290 O   0  0  0  0  0  1  0  0  0  0  0  0
  189.8380  175.9880  139.1400 C   0  0  1  0  0  3  0  0  0  0  0  0
  190.5260  176.7890  142.4440 C   0  0  1  0  0  3  0  0  0  0  0  0
  188.8870  176.6270  138.2060 N   0  0  2  0  0  0  0  0  0  0  0  0
  187.2890  178.4190  137.7750 C   0  0  0  0  0  0  0  0  0  0  0  0
  189.9880  177.4960  143.6840 C   0  0  2  0  0  3  0  0  0  0  0  0
  190.1220  177.5750  141.1920 C   0  0  1  0  0  3  0  0  0  0  0  0
  184.3360  178.6280  143.4060 C   0  0  0  0  0  3  0  0  0  0  0  0
  189.5580  176.6070  136.9130 C   0  0  0  0  0  2  0  0  0  0  0  0
  190.6880  175.0280  138.3300 C   0  0  0  0  0  2  0  0  0  0  0  0
  186.2310  178.0840  144.7570 O   0  0  0  0  0  1  0  0  0  0  0  0
  186.6160  178.3980  139.9010 C   0  0  0  0  0  0  0  0  0  0  0  0
  183.7390  178.8690  142.1700 C   0  0  0  0  0  3  0  0  0  0  0  0
  186.4850  178.2290  142.3190 C   0  0  0  0  0  0  0  0  0  0  0  0
  187.9550  178.0800  139.9320 C   0  0  0  0  0  0  0  0  0  0  0  0
  187.2690  178.5830  136.5270 O   0  0  0  0  0  0  0  0  0  0  0  0
  188.5160  178.0110  138.5450 C   0  0  1  0  0  3  0  0  0  0  0  0
  190.4210  175.3670  136.8810 C   0  0  0  0  0  2  0  0  0  0  0  0
  191.4960  177.9760  139.0980 C   0  0  0  0  0  1  0  0  0  0  0  0
  184.4960  178.7950  141.0040 C   0  0  0  0  0  3  0  0  0  0  0  0
  185.8570  178.4780  141.0660 C   0  0  0  0  0  0  0  0  0  0  0  0
  190.7510  176.9460  139.9380 C   0  0  2  0  0  3  0  0  0  0  0  0
  190.3030  176.7650  144.8310 O   0  0  0  0  0  0  0  0  0  0  0  0
  189.5630  176.7530  147.0900 C   0  0  0  0  0  1  0  0  0  0  0  0
  189.9480  177.5970  145.8940 C   0  0  0  0  0  2  0  0  0  0  0  0
  1  5  1  0  0  0  0
  2 16  1  0  0  0  0
  3 17  1  0  0  0  0
  4  1  2  0  0  0  0
  5 11  1  0  0  0  0
  7 15  1  6  0  0  0
  7 27  1  0  0  0  0
  8  6  1  1  0  0  0
  8 11  1  0  0  0  0
  9 14  1  6  0  0  0
  9 22  1  0  0  0  0
  9  7  1  0  0  0  0
 10  3  1  0  0  0  0
 11 28  1  1  0  0  0
 12  4  1  6  0  0  0
 12  8  1  0  0  0  0
 13  2  1  0  0  0  0
 17 20  2  0  0  0  0
 17 26  1  0  0  0  0
 18 13  2  0  0  0  0
 19  1  1  0  0  0  0
 19  2  2  0  0  0  0
 20  4  1  0  0  0  0
 21 10  2  0  0  0  0
 22 10  1  6  0  0  0
 22 20  1  0  0  0  0
 23 14  1  0  0  0  0
 23 15  1  0  0  0  0
 25 26  2  0  0  0  0
 25 18  1  0  0  0  0
 26 19  1  0  0  0  0
 27 24  1  6  0  0  0
 27 12  1  0  0  0  0
 28 30  1  0  0  0  0
 30 29  1  0  0  0  0
M  END
>  <MODEL>
8

>  <REMARK>
 VINA RESULT:      -7.1      2.330      5.821
  Name = 
  2 active torsions:
  status: ('A' for Active; 'I' for Inactive)
    1  A    between atoms: C_11  and  O_28
    2  A    between atoms: O_28  and  C_30
                            x       y       z     vdW  Elec       q    Type
                         _______ _______ _______ _____ _____    ______ ____

>  <TORSDO>
F 2

$$$$
=
 OpenBabel11122410263D

 30 35  0  0  1  0  0  0  0  0999 V2000
  186.4980  178.3630  141.5200 C   0  0  0  0  0  0  0  0  0  0  0  0
  185.0680  178.3910  139.4740 C   0  0  0  0  0  0  0  0  0  0  0  0
  189.9580  177.7510  139.2130 N   0  0  0  0  0  2  0  0  0  0  0  0
  187.7830  178.2220  142.1070 C   0  0  0  0  0  0  0  0  0  0  0  0
  185.3650  178.5510  142.3790 N   0  0  0  0  0  2  0  0  0  0  0  0
  186.8240  178.3520  145.7310 O   0  0  0  0  0  1  0  0  0  0  0  0
  189.6190  176.3870  143.5710 C   0  0  1  0  0  3  0  0  0  0  0  0
  186.6750  178.0340  144.3780 C   0  0  1  0  0  3  0  0  0  0  0  0
  190.4660  176.5320  142.3680 N   0  0  2  0  0  0  0  0  0  0  0  0
  190.9100  177.6920  140.2690 C   0  0  0  0  0  0  0  0  0  0  0  0
  185.4990  178.8200  143.8050 C   0  0  2  0  0  3  0  0  0  0  0  0
  187.9520  178.3950  143.6100 C   0  0  1  0  0  3  0  0  0  0  0  0
  184.9680  178.3050  138.0820 C   0  0  0  0  0  3  0  0  0  0  0  0
  191.8340  176.4150  142.8550 C   0  0  0  0  0  2  0  0  0  0  0  0
  190.3890  175.5410  144.5660 C   0  0  0  0  0  2  0  0  0  0  0  0
  183.8990  178.5930  140.1990 O   0  0  0  0  0  1  0  0  0  0  0  0
  188.7280  177.9480  139.8910 C   0  0  0  0  0  0  0  0  0  0  0  0
  186.1020  178.1050  137.2960 C   0  0  0  0  0  3  0  0  0  0  0  0
  186.3310  178.2740  140.1060 C   0  0  0  0  0  0  0  0  0  0  0  0
  188.8780  178.0160  141.2580 C   0  0  0  0  0  0  0  0  0  0  0  0
  192.1450  177.5730  140.0520 O   0  0  0  0  0  0  0  0  0  0  0  0
  190.3100  177.8040  141.6440 C   0  0  1  0  0  3  0  0  0  0  0  0
  191.8050  175.4750  144.0390 C   0  0  0  0  0  2  0  0  0  0  0  0
  190.2930  178.6910  144.5430 C   0  0  0  0  0  1  0  0  0  0  0  0
  187.3530  177.9880  137.8960 C   0  0  0  0  0  3  0  0  0  0  0  0
  187.4780  178.0700  139.2880 C   0  0  0  0  0  0  0  0  0  0  0  0
  189.1710  177.7040  144.2450 C   0  0  2  0  0  3  0  0  0  0  0  0
  184.3180  178.4640  144.4580 O   0  0  0  0  0  0  0  0  0  0  0  0
  182.0030  178.7430  143.9910 C   0  0  0  0  0  1  0  0  0  0  0  0
  183.3720  179.3900  144.0140 C   0  0  0  0  0  2  0  0  0  0  0  0
  1  4  1  0  0  0  0
  1  5  1  0  0  0  0
  2 19  1  0  0  0  0
  2 16  1  0  0  0  0
  3 17  1  0  0  0  0
  3 10  1  0  0  0  0
  5 11  1  0  0  0  0
  7 27  1  0  0  0  0
  7 15  1  1  0  0  0
  8  6  1  1  0  0  0
  9 14  1  1  0  0  0
  9  7  1  0  0  0  0
 11  8  1  0  0  0  0
 11 28  1  1  0  0  0
 12  4  1  6  0  0  0
 12 27  1  0  0  0  0
 12  8  1  0  0  0  0
 13  2  2  0  0  0  0
 14 23  1  0  0  0  0
 17 20  1  0  0  0  0
 18 25  2  0  0  0  0
 18 13  1  0  0  0  0
 19  1  2  0  0  0  0
 20 22  1  0  0  0  0
 20  4  2  0  0  0  0
 21 10  2  0  0  0  0
 22 10  1  6  0  0  0
 22  9  1  0  0  0  0
 23 15  1  0  0  0  0
 25 26  1  0  0  0  0
 26 17  2  0  0  0  0
 26 19  1  0  0  0  0
 27 24  1  6  0  0  0
 29 30  1  0  0  0  0
 30 28  1  0  0  0  0
M  END
>  <MODEL>
9

>  <REMARK>
 VINA RESULT:      -6.9      1.800      5.032
  Name = 
  2 active torsions:
  status: ('A' for Active; 'I' for Inactive)
    1  A    between atoms: C_11  and  O_28
    2  A    between atoms: O_28  and  C_30
                            x       y       z     vdW  Elec       q    Type
                         _______ _______ _______ _____ _____    ______ ____

>  <TORSDO>
F 2

$$$$
