=
 OpenBabel11122412173D

 34 40  0  0  1  0  0  0  0  0999 V2000
  188.7670  177.7420  142.4610 C   0  0  0  0  0  0  0  0  0  0  0  0
  190.8700  176.8180  141.4140 C   0  0  0  0  0  2  0  0  0  0  0  0
  182.2210  178.3070  141.8950 C   0  0  2  0  0  3  0  0  0  0  0  0
  186.4650  178.0700  143.1970 C   0  0  0  0  0  0  0  0  0  0  0  0
  184.7550  178.5770  141.5320 C   0  0  0  0  0  0  0  0  0  0  0  0
  183.1850  178.7690  139.5680 C   0  0  0  0  0  1  0  0  0  0  0  0
  180.9160  178.1310  141.1300 C   0  0  0  0  0  1  0  0  0  0  0  0
  183.1510  179.5020  143.9490 C   0  0  0  0  0  2  0  0  0  0  0  0
  189.4620  178.2970  140.0990 C   0  0  2  0  0  3  0  0  0  0  0  0
  189.1800  177.3300  137.0600 C   0  0  0  0  0  2  0  0  0  0  0  0
  185.7360  178.5520  140.5830 N   0  0  0  0  0  0  0  0  0  0  0  0
  184.1130  178.3330  144.0210 C   0  0  0  0  0  2  0  0  0  0  0  0
  188.0120  178.2810  139.7730 N   0  0  0  0  0  0  0  0  0  0  0  0
  191.4260  176.8420  140.0050 C   0  0  0  0  0  2  0  0  0  0  0  0
  185.1170  178.3560  142.8940 C   0  0  0  0  0  0  0  0  0  0  0  0
  181.9100  179.1170  143.1530 C   0  0  0  0  0  2  0  0  0  0  0  0
  189.6030  176.6140  138.2670 N   0  0  0  0  0  0  0  0  0  0  0  0
  187.4320  178.0430  142.1690 C   0  0  0  0  0  0  0  0  0  0  0  0
  183.3520  178.9720  141.0770 C   0  0  1  0  0  3  0  0  0  0  0  0
  187.0440  178.2910  140.8480 C   0  0  0  0  0  0  0  0  0  0  0  0
  188.2020  177.4890  144.8030 C   0  0  0  0  0  3  0  0  0  0  0  0
  188.5590  178.6940  137.3560 C   0  0  0  0  0  2  0  0  0  0  0  0
  186.8710  177.7950  144.5160 C   0  0  0  0  0  3  0  0  0  0  0  0
  187.4890  178.5820  138.4290 C   0  0  0  0  0  2  0  0  0  0  0  0
  190.3800  177.5390  139.1170 C   0  0  1  0  0  3  0  0  0  0  0  0
  189.1480  177.4590  143.7780 C   0  0  0  0  0  3  0  0  0  0  0  0
  189.7200  177.6970  141.3970 N   0  0  0  0  0  0  0  0  0  0  0  0
  190.4270  175.5140  137.7800 C   0  0  0  0  0  2  0  0  0  0  0  0
  191.0660  175.9060  136.4600 C   0  0  0  0  0  2  0  0  0  0  0  0
  194.5920  175.7550  136.8610 O   0  0  0  0  0  0  0  0  0  0  0  0
  192.7570  174.4170  137.5090 C   0  0  0  0  0  2  0  0  0  0  0  0
  192.3790  175.1700  136.2650 C   0  0  2  0  0  3  0  0  0  0  0  0
  194.0360  175.0820  137.9580 C   0  0  0  0  0  2  0  0  0  0  0  0
  193.4960  176.1720  136.0930 C   0  0  0  0  0  2  0  0  0  0  0  0
  1 26  1  0  0  0  0
  3  7  1  6  0  0  0
  3 16  1  0  0  0  0
  4 23  2  0  0  0  0
  5 15  2  0  0  0  0
  8 12  1  0  0  0  0
  9 13  1  6  0  0  0
  9 27  1  0  0  0  0
 10 22  1  0  0  0  0
 10 17  1  0  0  0  0
 11 20  2  0  0  0  0
 11  5  1  0  0  0  0
 13 20  1  0  0  0  0
 14  2  1  0  0  0  0
 15  4  1  0  0  0  0
 15 12  1  0  0  0  0
 16  8  1  0  0  0  0
 17 25  1  0  0  0  0
 18  1  2  0  0  0  0
 18  4  1  0  0  0  0
 19  6  1  6  0  0  0
 19  5  1  0  0  0  0
 19  3  1  0  0  0  0
 20 18  1  0  0  0  0
 22 24  1  0  0  0  0
 23 21  1  0  0  0  0
 24 13  1  0  0  0  0
 25 14  1  1  0  0  0
 25  9  1  0  0  0  0
 26 21  2  0  0  0  0
 27  2  1  0  0  0  0
 27  1  1  0  0  0  0
 28 17  1  0  0  0  0
 29 28  1  0  0  0  0
 30 33  1  0  0  0  0
 31 33  1  0  0  0  0
 32 29  1  1  0  0  0
 32 31  1  0  0  0  0
 34 32  1  0  0  0  0
 34 30  1  0  0  0  0
M  END
>  <MODEL>
1

>  <REMARK>
 VINA RESULT:      -9.2      0.000      0.000
  Name = 
  3 active torsions:
  status: ('A' for Active; 'I' for Inactive)
    1  A    between atoms: N_17  and  C_28
    2  A    between atoms: C_28  and  C_29
    3  A    between atoms: C_29  and  C_32
                            x       y       z     vdW  Elec       q    Type
                         _______ _______ _______ _____ _____    ______ ____

>  <TORSDO>
F 3

$$$$
=
 OpenBabel11122412173D

 34 40  0  0  1  0  0  0  0  0999 V2000
  189.6680  177.1180  141.3980 C   0  0  0  0  0  0  0  0  0  0  0  0
  190.9090  176.1580  139.4210 C   0  0  0  0  0  2  0  0  0  0  0  0
  183.7340  178.3950  143.9780 C   0  0  2  0  0  3  0  0  0  0  0  0
  188.0190  177.5560  143.1420 C   0  0  0  0  0  0  0  0  0  0  0  0
  185.8460  178.4680  142.5080 C   0  0  0  0  0  0  0  0  0  0  0  0
  183.6140  179.0990  141.5190 C   0  0  0  0  0  1  0  0  0  0  0  0
  182.2150  178.4610  143.8920 C   0  0  0  0  0  1  0  0  0  0  0  0
  185.6570  179.1780  145.4630 C   0  0  0  0  0  2  0  0  0  0  0  0
  189.3090  177.9450  139.0400 C   0  0  2  0  0  3  0  0  0  0  0  0
  187.5510  177.4680  136.4070 C   0  0  0  0  0  2  0  0  0  0  0  0
  186.2820  178.4870  141.2150 N   0  0  0  0  0  0  0  0  0  0  0  0
  186.3560  177.9230  144.9800 C   0  0  0  0  0  2  0  0  0  0  0  0
  187.8830  178.1180  139.4230 N   0  0  0  0  0  0  0  0  0  0  0  0
  190.7720  176.3350  137.9230 C   0  0  0  0  0  2  0  0  0  0  0  0
  186.7390  178.0140  143.5230 C   0  0  0  0  0  0  0  0  0  0  0  0
  184.1470  179.0370  145.3020 C   0  0  0  0  0  2  0  0  0  0  0  0
  188.3540  176.5450  137.2140 N   0  0  0  0  0  0  0  0  0  0  0  0
  188.4060  177.5870  141.7850 C   0  0  0  0  0  0  0  0  0  0  0  0
  184.4670  179.0600  142.7910 C   0  0  1  0  0  3  0  0  0  0  0  0
  187.5120  178.0640  140.8200 C   0  0  0  0  0  0  0  0  0  0  0  0
  190.1780  176.5790  143.7040 C   0  0  0  0  0  3  0  0  0  0  0  0
  187.3470  178.8280  137.0730 C   0  0  0  0  0  2  0  0  0  0  0  0
  188.9240  177.0520  144.0930 C   0  0  0  0  0  3  0  0  0  0  0  0
  186.8670  178.6640  138.5060 C   0  0  0  0  0  2  0  0  0  0  0  0
  189.5620  177.2540  137.6840 C   0  0  1  0  0  3  0  0  0  0  0  0
  190.5480  176.6080  142.3600 C   0  0  0  0  0  3  0  0  0  0  0  0
  190.0240  177.1380  140.0150 N   0  0  0  0  0  0  0  0  0  0  0  0
  188.6920  175.4530  136.3080 C   0  0  0  0  0  2  0  0  0  0  0  0
  187.4280  174.7070  135.9200 C   0  0  0  0  0  2  0  0  0  0  0  0
  184.4430  173.6280  137.5150 O   0  0  0  0  0  0  0  0  0  0  0  0
  186.5770  172.7010  137.1150 C   0  0  0  0  0  2  0  0  0  0  0  0
  186.7120  174.1960  137.1570 C   0  0  2  0  0  3  0  0  0  0  0  0
  185.0860  172.4740  137.0480 C   0  0  0  0  0  2  0  0  0  0  0  0
  185.2840  174.6900  137.1500 C   0  0  0  0  0  2  0  0  0  0  0  0
  1 18  2  0  0  0  0
  1 26  1  0  0  0  0
  2 27  1  0  0  0  0
  3  7  1  6  0  0  0
  3 16  1  0  0  0  0
  4 15  1  0  0  0  0
  4 23  2  0  0  0  0
  5 19  1  0  0  0  0
  5 15  2  0  0  0  0
  9 13  1  1  0  0  0
  9 27  1  0  0  0  0
 10 22  1  0  0  0  0
 10 17  1  0  0  0  0
 11  5  1  0  0  0  0
 12  8  1  0  0  0  0
 13 20  1  0  0  0  0
 14  2  1  0  0  0  0
 15 12  1  0  0  0  0
 16  8  1  0  0  0  0
 17 25  1  0  0  0  0
 18  4  1  0  0  0  0
 19  6  1  6  0  0  0
 19  3  1  0  0  0  0
 20 11  2  0  0  0  0
 20 18  1  0  0  0  0
 21 23  1  0  0  0  0
 22 24  1  0  0  0  0
 24 13  1  0  0  0  0
 25 14  1  1  0  0  0
 25  9  1  0  0  0  0
 26 21  2  0  0  0  0
 27  1  1  0  0  0  0
 28 17  1  0  0  0  0
 29 28  1  0  0  0  0
 31 32  1  0  0  0  0
 32 29  1  6  0  0  0
 33 31  1  0  0  0  0
 33 30  1  0  0  0  0
 34 32  1  0  0  0  0
 34 30  1  0  0  0  0
M  END
>  <MODEL>
2

>  <REMARK>
 VINA RESULT:      -9.2      2.734      3.688
  Name = 
  3 active torsions:
  status: ('A' for Active; 'I' for Inactive)
    1  A    between atoms: N_17  and  C_28
    2  A    between atoms: C_28  and  C_29
    3  A    between atoms: C_29  and  C_32
                            x       y       z     vdW  Elec       q    Type
                         _______ _______ _______ _____ _____    ______ ____

>  <TORSDO>
F 3

$$$$
=
 OpenBabel11122412173D

 34 40  0  0  1  0  0  0  0  0999 V2000
  187.6230  178.1480  139.6010 C   0  0  0  0  0  0  0  0  0  0  0  0
  185.6380  177.8920  138.0640 C   0  0  0  0  0  2  0  0  0  0  0  0
  190.0220  176.9060  145.6170 C   0  0  2  0  0  3  0  0  0  0  0  0
  189.3190  177.7900  141.3180 C   0  0  0  0  0  0  0  0  0  0  0  0
  188.6590  177.8840  143.6650 C   0  0  0  0  0  0  0  0  0  0  0  0
  187.6210  177.7260  145.9570 C   0  0  0  0  0  1  0  0  0  0  0  0
  189.8730  176.4120  147.0500 C   0  0  0  0  0  1  0  0  0  0  0  0
  191.6470  178.2130  144.1460 C   0  0  0  0  0  2  0  0  0  0  0  0
  185.3210  178.9850  140.2100 C   0  0  2  0  0  3  0  0  0  0  0  0
  182.5830  178.1220  141.6260 C   0  0  0  0  0  2  0  0  0  0  0  0
  187.3920  178.1750  143.2500 N   0  0  0  0  0  0  0  0  0  0  0  0
  191.1030  177.3530  143.0230 C   0  0  0  0  0  2  0  0  0  0  0  0
  185.6510  178.5830  141.6030 N   0  0  0  0  0  0  0  0  0  0  0  0
  184.1530  178.1360  138.2370 C   0  0  0  0  0  2  0  0  0  0  0  0
  189.6760  177.7070  142.6810 C   0  0  0  0  0  0  0  0  0  0  0  0
  191.4090  177.5370  145.4910 C   0  0  0  0  0  2  0  0  0  0  0  0
  183.3530  177.4950  140.5490 N   0  0  0  0  0  0  0  0  0  0  0  0
  187.9870  178.0810  140.9510 C   0  0  0  0  0  0  0  0  0  0  0  0
  188.9230  177.8950  145.1690 C   0  0  1  0  0  3  0  0  0  0  0  0
  187.0220  178.2740  141.9450 C   0  0  0  0  0  0  0  0  0  0  0  0
  189.9030  177.6380  138.9570 C   0  0  0  0  0  3  0  0  0  0  0  0
  183.3400  179.2460  142.3320 C   0  0  0  0  0  2  0  0  0  0  0  0
  190.2690  177.5760  140.3030 C   0  0  0  0  0  3  0  0  0  0  0  0
  184.7330  178.7910  142.7350 C   0  0  0  0  0  2  0  0  0  0  0  0
  183.9290  178.5580  139.6990 C   0  0  1  0  0  3  0  0  0  0  0  0
  188.5820  177.9180  138.6070 C   0  0  0  0  0  3  0  0  0  0  0  0
  186.2630  178.4180  139.2590 N   0  0  0  0  0  0  0  0  0  0  0  0
  182.3830  176.6900  139.8150 C   0  0  0  0  0  2  0  0  0  0  0  0
  180.9980  177.2880  139.9840 C   0  0  0  0  0  2  0  0  0  0  0  0
  180.0010  173.9580  139.2540 O   0  0  0  0  0  0  0  0  0  0  0  0
  179.2550  175.6680  140.7010 C   0  0  0  0  0  2  0  0  0  0  0  0
  179.9350  176.3080  139.5240 C   0  0  2  0  0  3  0  0  0  0  0  0
  179.6180  174.2080  140.5790 C   0  0  0  0  0  2  0  0  0  0  0  0
  180.5950  175.1500  138.8120 C   0  0  0  0  0  2  0  0  0  0  0  0
  1 18  1  0  0  0  0
  2 14  1  0  0  0  0
  2 27  1  0  0  0  0
  3  7  1  1  0  0  0
  4 15  1  0  0  0  0
  5 19  1  0  0  0  0
  8 16  1  0  0  0  0
  9 27  1  6  0  0  0
  9 13  1  0  0  0  0
 10 22  1  0  0  0  0
 11  5  1  0  0  0  0
 12  8  1  0  0  0  0
 13 20  1  0  0  0  0
 13 24  1  0  0  0  0
 15 12  1  0  0  0  0
 15  5  2  0  0  0  0
 16  3  1  0  0  0  0
 17 10  1  0  0  0  0
 18  4  2  0  0  0  0
 18 20  1  0  0  0  0
 19  3  1  0  0  0  0
 19  6  1  1  0  0  0
 20 11  2  0  0  0  0
 21 23  2  0  0  0  0
 22 24  1  0  0  0  0
 23  4  1  0  0  0  0
 25 14  1  6  0  0  0
 25  9  1  0  0  0  0
 25 17  1  0  0  0  0
 26 21  1  0  0  0  0
 26  1  2  0  0  0  0
 27  1  1  0  0  0  0
 28 29  1  0  0  0  0
 28 17  1  0  0  0  0
 30 33  1  0  0  0  0
 32 29  1  1  0  0  0
 32 31  1  0  0  0  0
 33 31  1  0  0  0  0
 34 30  1  0  0  0  0
 34 32  1  0  0  0  0
M  END
>  <MODEL>
3

>  <REMARK>
 VINA RESULT:      -9.1      3.386      8.098
  Name = 
  3 active torsions:
  status: ('A' for Active; 'I' for Inactive)
    1  A    between atoms: N_17  and  C_28
    2  A    between atoms: C_28  and  C_29
    3  A    between atoms: C_29  and  C_32
                            x       y       z     vdW  Elec       q    Type
                         _______ _______ _______ _____ _____    ______ ____

>  <TORSDO>
F 3

$$$$
=
 OpenBabel11122412173D

 34 40  0  0  1  0  0  0  0  0999 V2000
  189.2480  177.3940  138.3180 C   0  0  0  0  0  0  0  0  0  0  0  0
  187.8280  176.9100  136.2880 C   0  0  0  0  0  2  0  0  0  0  0  0
  189.5440  177.1940  144.9030 C   0  0  2  0  0  3  0  0  0  0  0  0
  190.2900  177.3130  140.5220 C   0  0  0  0  0  0  0  0  0  0  0  0
  188.9380  177.8370  142.4850 C   0  0  0  0  0  0  0  0  0  0  0  0
  187.2270  178.1120  144.3160 C   0  0  0  0  0  1  0  0  0  0  0  0
  188.9170  176.9670  146.2720 C   0  0  0  0  0  1  0  0  0  0  0  0
  191.6430  178.1840  143.8400 C   0  0  0  0  0  2  0  0  0  0  0  0
  186.9420  178.3740  138.0110 C   0  0  2  0  0  3  0  0  0  0  0  0
  183.8400  177.8350  138.5930 C   0  0  0  0  0  2  0  0  0  0  0  0
  187.8910  178.0760  141.6440 N   0  0  0  0  0  0  0  0  0  0  0  0
  191.4120  177.1490  142.7570 C   0  0  0  0  0  2  0  0  0  0  0  0
  186.7880  178.2200  139.4820 N   0  0  0  0  0  0  0  0  0  0  0  0
  186.3870  177.2120  135.9320 C   0  0  0  0  0  2  0  0  0  0  0  0
  190.1950  177.4660  141.9220 C   0  0  0  0  0  0  0  0  0  0  0  0
  190.9440  177.7640  145.1280 C   0  0  0  0  0  2  0  0  0  0  0  0
  184.8580  177.0100  137.9370 N   0  0  0  0  0  0  0  0  0  0  0  0
  189.1650  177.5610  139.7050 C   0  0  0  0  0  0  0  0  0  0  0  0
  188.7190  178.1110  143.9720 C   0  0  1  0  0  3  0  0  0  0  0  0
  187.9560  177.9490  140.2920 C   0  0  0  0  0  0  0  0  0  0  0  0
  191.5680  176.7300  138.5320 C   0  0  0  0  0  3  0  0  0  0  0  0
  184.4230  179.0500  139.3130 C   0  0  0  0  0  2  0  0  0  0  0  0
  191.4900  176.9010  139.9150 C   0  0  0  0  0  3  0  0  0  0  0  0
  185.5810  178.6460  140.2100 C   0  0  0  0  0  2  0  0  0  0  0  0
  185.7510  177.8920  137.1570 C   0  0  1  0  0  3  0  0  0  0  0  0
  190.4490  176.9710  137.7350 C   0  0  0  0  0  3  0  0  0  0  0  0
  188.0870  177.6280  137.5180 N   0  0  0  0  0  0  0  0  0  0  0  0
  184.1070  176.1070  137.0710 C   0  0  0  0  0  2  0  0  0  0  0  0
  183.6590  174.8970  137.8710 C   0  0  0  0  0  2  0  0  0  0  0  0
  185.7070  173.2150  135.5050 O   0  0  0  0  0  0  0  0  0  0  0  0
  185.3010  173.0320  137.8240 C   0  0  0  0  0  2  0  0  0  0  0  0
  184.0780  173.6150  137.1740 C   0  0  2  0  0  3  0  0  0  0  0  0
  186.3530  173.1030  136.7440 C   0  0  0  0  0  2  0  0  0  0  0  0
  184.5310  173.9330  135.7680 C   0  0  0  0  0  2  0  0  0  0  0  0
  1 18  1  0  0  0  0
  2 27  1  0  0  0  0
  3 16  1  0  0  0  0
  3  7  1  1  0  0  0
  4 15  1  0  0  0  0
  5 19  1  0  0  0  0
  8 16  1  0  0  0  0
  9 27  1  6  0  0  0
  9 13  1  0  0  0  0
 10 22  1  0  0  0  0
 11  5  1  0  0  0  0
 12  8  1  0  0  0  0
 13 24  1  0  0  0  0
 13 20  1  0  0  0  0
 14  2  1  0  0  0  0
 15  5  2  0  0  0  0
 15 12  1  0  0  0  0
 17 10  1  0  0  0  0
 18 20  1  0  0  0  0
 18  4  2  0  0  0  0
 19  6  1  1  0  0  0
 19  3  1  0  0  0  0
 20 11  2  0  0  0  0
 21 23  2  0  0  0  0
 22 24  1  0  0  0  0
 23  4  1  0  0  0  0
 25 14  1  6  0  0  0
 25 17  1  0  0  0  0
 25  9  1  0  0  0  0
 26  1  2  0  0  0  0
 26 21  1  0  0  0  0
 27  1  1  0  0  0  0
 28 29  1  0  0  0  0
 28 17  1  0  0  0  0
 30 34  1  0  0  0  0
 30 33  1  0  0  0  0
 32 31  1  0  0  0  0
 32 29  1  1  0  0  0
 33 31  1  0  0  0  0
 34 32  1  0  0  0  0
M  END
>  <MODEL>
4

>  <REMARK>
 VINA RESULT:      -8.8      3.049      6.340
  Name = 
  3 active torsions:
  status: ('A' for Active; 'I' for Inactive)
    1  A    between atoms: N_17  and  C_28
    2  A    between atoms: C_28  and  C_29
    3  A    between atoms: C_29  and  C_32
                            x       y       z     vdW  Elec       q    Type
                         _______ _______ _______ _____ _____    ______ ____

>  <TORSDO>
F 3

$$$$
=
 OpenBabel11122412173D

 34 40  0  0  1  0  0  0  0  0999 V2000
  188.9770  177.5900  141.8720 C   0  0  0  0  0  0  0  0  0  0  0  0
  190.9110  176.6470  140.5520 C   0  0  0  0  0  2  0  0  0  0  0  0
  182.4330  178.3680  142.1030 C   0  0  2  0  0  3  0  0  0  0  0  0
  186.7890  177.9540  142.8860 C   0  0  0  0  0  0  0  0  0  0  0  0
  184.9150  178.5780  141.4540 C   0  0  0  0  0  0  0  0  0  0  0  0
  183.1340  178.8940  139.6970 C   0  0  0  0  0  1  0  0  0  0  0  0
  181.0420  178.2610  141.4910 C   0  0  0  0  0  1  0  0  0  0  0  0
  183.6360  179.4520  144.0750 C   0  0  0  0  0  2  0  0  0  0  0  0
  189.4100  178.2180  139.4660 C   0  0  2  0  0  3  0  0  0  0  0  0
  188.7420  177.3820  136.4490 C   0  0  0  0  0  2  0  0  0  0  0  0
  185.7770  178.5620  140.3960 N   0  0  0  0  0  0  0  0  0  0  0  0
  184.5590  178.2530  143.9910 C   0  0  0  0  0  2  0  0  0  0  0  0
  187.9320  178.2570  139.3130 N   0  0  0  0  0  0  0  0  0  0  0  0
  191.2990  176.7110  139.0890 C   0  0  0  0  0  2  0  0  0  0  0  0
  185.4250  178.2920  142.7540 C   0  0  0  0  0  0  0  0  0  0  0  0
  182.2980  179.1360  143.4180 C   0  0  0  0  0  2  0  0  0  0  0  0
  189.2790  176.6070  137.5700 N   0  0  0  0  0  0  0  0  0  0  0  0
  187.6280  177.9410  141.7510 C   0  0  0  0  0  0  0  0  0  0  0  0
  183.4820  179.0310  141.1820 C   0  0  1  0  0  3  0  0  0  0  0  0
  187.0970  178.2530  140.4950 C   0  0  0  0  0  0  0  0  0  0  0  0
  188.6810  177.2590  144.2540 C   0  0  0  0  0  3  0  0  0  0  0  0
  188.2070  178.7510  136.8650 C   0  0  0  0  0  2  0  0  0  0  0  0
  187.3360  177.6150  144.1370 C   0  0  0  0  0  3  0  0  0  0  0  0
  187.2660  178.6280  138.0520 C   0  0  0  0  0  2  0  0  0  0  0  0
  190.1810  177.4740  138.3570 C   0  0  1  0  0  3  0  0  0  0  0  0
  189.4990  177.2420  143.1240 C   0  0  0  0  0  3  0  0  0  0  0  0
  189.7970  177.5590  140.7030 N   0  0  0  0  0  0  0  0  0  0  0  0
  190.0030  175.5030  136.9500 C   0  0  0  0  0  2  0  0  0  0  0  0
  189.4440  175.2490  135.5610 C   0  0  0  0  0  2  0  0  0  0  0  0
  187.8680  172.5310  137.2190 O   0  0  0  0  0  0  0  0  0  0  0  0
  187.2640  174.0560  135.5210 C   0  0  0  0  0  2  0  0  0  0  0  0
  188.7580  173.8960  135.5030 C   0  0  2  0  0  3  0  0  0  0  0  0
  186.8450  173.3990  136.8130 C   0  0  0  0  0  2  0  0  0  0  0  0
  189.0550  173.1280  136.7700 C   0  0  0  0  0  2  0  0  0  0  0  0
  1 26  1  0  0  0  0
  2 27  1  0  0  0  0
  3  7  1  6  0  0  0
  3 16  1  0  0  0  0
  4 23  2  0  0  0  0
  5 15  2  0  0  0  0
  9 13  1  6  0  0  0
  9 27  1  0  0  0  0
 10 22  1  0  0  0  0
 10 17  1  0  0  0  0
 11 20  2  0  0  0  0
 11  5  1  0  0  0  0
 12  8  1  0  0  0  0
 13 20  1  0  0  0  0
 14  2  1  0  0  0  0
 15  4  1  0  0  0  0
 15 12  1  0  0  0  0
 16  8  1  0  0  0  0
 17 25  1  0  0  0  0
 18  1  2  0  0  0  0
 18  4  1  0  0  0  0
 19  6  1  6  0  0  0
 19  5  1  0  0  0  0
 19  3  1  0  0  0  0
 20 18  1  0  0  0  0
 22 24  1  0  0  0  0
 23 21  1  0  0  0  0
 24 13  1  0  0  0  0
 25 14  1  1  0  0  0
 25  9  1  0  0  0  0
 26 21  2  0  0  0  0
 27  1  1  0  0  0  0
 28 17  1  0  0  0  0
 29 28  1  0  0  0  0
 31 33  1  0  0  0  0
 32 31  1  0  0  0  0
 32 29  1  1  0  0  0
 32 34  1  0  0  0  0
 33 30  1  0  0  0  0
 34 30  1  0  0  0  0
M  END
>  <MODEL>
5

>  <REMARK>
 VINA RESULT:      -8.7      1.902      2.451
  Name = 
  3 active torsions:
  status: ('A' for Active; 'I' for Inactive)
    1  A    between atoms: N_17  and  C_28
    2  A    between atoms: C_28  and  C_29
    3  A    between atoms: C_29  and  C_32
                            x       y       z     vdW  Elec       q    Type
                         _______ _______ _______ _____ _____    ______ ____

>  <TORSDO>
F 3

$$$$
=
 OpenBabel11122412173D

 34 40  0  0  1  0  0  0  0  0999 V2000
  183.0830  178.7540  143.3740 C   0  0  0  0  0  0  0  0  0  0  0  0
  181.0220  179.7530  142.3140 C   0  0  0  0  0  2  0  0  0  0  0  0
  189.6280  178.0780  142.9280 C   0  0  2  0  0  3  0  0  0  0  0  0
  185.3630  178.3580  144.1480 C   0  0  0  0  0  0  0  0  0  0  0  0
  187.0980  177.8700  142.5040 C   0  0  0  0  0  0  0  0  0  0  0  0
  188.7060  177.7100  140.5680 C   0  0  0  0  0  1  0  0  0  0  0  0
  190.9520  178.2530  142.1970 C   0  0  0  0  0  1  0  0  0  0  0  0
  188.6310  176.8360  144.9220 C   0  0  0  0  0  2  0  0  0  0  0  0
  182.4290  178.2890  140.9810 C   0  0  2  0  0  3  0  0  0  0  0  0
  182.7960  179.3480  137.9820 C   0  0  0  0  0  2  0  0  0  0  0  0
  186.1380  177.9450  141.5360 N   0  0  0  0  0  0  0  0  0  0  0  0
  187.6910  178.0220  145.0120 C   0  0  0  0  0  2  0  0  0  0  0  0
  183.8860  178.2870  140.6860 N   0  0  0  0  0  0  0  0  0  0  0  0
  180.4960  179.7850  140.8940 C   0  0  0  0  0  2  0  0  0  0  0  0
  186.7110  178.0540  143.8640 C   0  0  0  0  0  0  0  0  0  0  0  0
  189.8970  177.2220  144.1660 C   0  0  0  0  0  2  0  0  0  0  0  0
  182.3600  180.0330  139.2020 N   0  0  0  0  0  0  0  0  0  0  0  0
  184.4190  178.4360  143.1010 C   0  0  0  0  0  0  0  0  0  0  0  0
  188.5030  177.4620  142.0650 C   0  0  1  0  0  3  0  0  0  0  0  0
  184.8300  178.2230  141.7810 C   0  0  0  0  0  0  0  0  0  0  0  0
  183.6020  178.9200  145.7350 C   0  0  0  0  0  3  0  0  0  0  0  0
  183.3840  177.9630  138.2460 C   0  0  0  0  0  2  0  0  0  0  0  0
  184.9330  178.5980  145.4660 C   0  0  0  0  0  3  0  0  0  0  0  0
  184.4320  178.0190  139.3450 C   0  0  0  0  0  2  0  0  0  0  0  0
  181.5470  179.0960  140.0060 C   0  0  1  0  0  3  0  0  0  0  0  0
  182.6800  179.0030  144.6920 C   0  0  0  0  0  3  0  0  0  0  0  0
  182.1550  178.8520  142.2930 N   0  0  0  0  0  0  0  0  0  0  0  0
  181.5680  181.1640  138.7340 C   0  0  0  0  0  2  0  0  0  0  0  0
  181.1770  180.9420  137.2840 C   0  0  0  0  0  2  0  0  0  0  0  0
  180.3650  184.3470  136.6790 O   0  0  0  0  0  0  0  0  0  0  0  0
  180.4050  182.3640  135.3980 C   0  0  0  0  0  2  0  0  0  0  0  0
  180.1780  181.9930  136.8360 C   0  0  2  0  0  3  0  0  0  0  0  0
  180.8060  183.8180  135.4580 C   0  0  0  0  0  2  0  0  0  0  0  0
  180.4320  183.2790  137.5870 C   0  0  0  0  0  2  0  0  0  0  0  0
  1 26  1  0  0  0  0
  3  7  1  6  0  0  0
  3 16  1  0  0  0  0
  4 23  2  0  0  0  0
  5 15  2  0  0  0  0
  8 12  1  0  0  0  0
  9 13  1  6  0  0  0
  9 27  1  0  0  0  0
 10 22  1  0  0  0  0
 10 17  1  0  0  0  0
 11 20  2  0  0  0  0
 11  5  1  0  0  0  0
 13 20  1  0  0  0  0
 14  2  1  0  0  0  0
 15  4  1  0  0  0  0
 15 12  1  0  0  0  0
 16  8  1  0  0  0  0
 17 25  1  0  0  0  0
 18  1  2  0  0  0  0
 18  4  1  0  0  0  0
 19  6  1  6  0  0  0
 19  5  1  0  0  0  0
 19  3  1  0  0  0  0
 20 18  1  0  0  0  0
 22 24  1  0  0  0  0
 23 21  1  0  0  0  0
 24 13  1  0  0  0  0
 25 14  1  1  0  0  0
 25  9  1  0  0  0  0
 26 21  2  0  0  0  0
 27  2  1  0  0  0  0
 27  1  1  0  0  0  0
 28 17  1  0  0  0  0
 29 28  1  0  0  0  0
 30 34  1  0  0  0  0
 31 33  1  0  0  0  0
 31 32  1  0  0  0  0
 32 29  1  1  0  0  0
 32 34  1  0  0  0  0
 33 30  1  0  0  0  0
M  END
>  <MODEL>
6

>  <REMARK>
 VINA RESULT:      -8.7      4.145      8.542
  Name = 
  3 active torsions:
  status: ('A' for Active; 'I' for Inactive)
    1  A    between atoms: N_17  and  C_28
    2  A    between atoms: C_28  and  C_29
    3  A    between atoms: C_29  and  C_32
                            x       y       z     vdW  Elec       q    Type
                         _______ _______ _______ _____ _____    ______ ____

>  <TORSDO>
F 3

$$$$
=
 OpenBabel11122412173D

 34 40  0  0  1  0  0  0  0  0999 V2000
  189.6560  177.3390  141.8820 C   0  0  0  0  0  0  0  0  0  0  0  0
  191.0590  176.3770  140.0180 C   0  0  0  0  0  2  0  0  0  0  0  0
  183.5260  178.3100  144.1120 C   0  0  2  0  0  3  0  0  0  0  0  0
  187.8950  177.7410  143.5220 C   0  0  0  0  0  0  0  0  0  0  0  0
  185.6990  178.4630  142.7410 C   0  0  0  0  0  0  0  0  0  0  0  0
  183.4820  178.8850  141.6170 C   0  0  0  0  0  1  0  0  0  0  0  0
  182.0120  178.2630  143.9510 C   0  0  0  0  0  1  0  0  0  0  0  0
  185.3120  179.2990  145.6430 C   0  0  0  0  0  2  0  0  0  0  0  0
  189.3600  178.0250  139.4710 C   0  0  2  0  0  3  0  0  0  0  0  0
  187.7760  177.2980  136.7860 C   0  0  0  0  0  2  0  0  0  0  0  0
  186.1970  178.4520  141.4700 N   0  0  0  0  0  0  0  0  0  0  0  0
  186.1200  178.0750  145.2590 C   0  0  0  0  0  2  0  0  0  0  0  0
  187.9080  178.1130  139.7760 N   0  0  0  0  0  0  0  0  0  0  0  0
  190.9860  176.4730  138.5080 C   0  0  0  0  0  2  0  0  0  0  0  0
  186.5700  178.1240  143.8180 C   0  0  0  0  0  0  0  0  0  0  0  0
  183.8260  179.0420  145.4190 C   0  0  0  0  0  2  0  0  0  0  0  0
  188.5980  176.4740  137.6760 N   0  0  0  0  0  0  0  0  0  0  0  0
  188.3480  177.7350  142.1850 C   0  0  0  0  0  0  0  0  0  0  0  0
  184.2700  178.9680  142.9280 C   0  0  1  0  0  3  0  0  0  0  0  0
  187.4720  178.1000  141.1560 C   0  0  0  0  0  0  0  0  0  0  0  0
  190.0860  176.9490  144.2350 C   0  0  0  0  0  3  0  0  0  0  0  0
  187.4440  178.6700  137.3710 C   0  0  0  0  0  2  0  0  0  0  0  0
  188.7840  177.3490  144.5390 C   0  0  0  0  0  3  0  0  0  0  0  0
  186.9050  178.5400  138.7860 C   0  0  0  0  0  2  0  0  0  0  0  0
  189.7290  177.2900  138.1650 C   0  0  1  0  0  3  0  0  0  0  0  0
  190.5200  176.9400  142.9090 C   0  0  0  0  0  3  0  0  0  0  0  0
  190.0800  177.3180  140.5180 N   0  0  0  0  0  0  0  0  0  0  0  0
  189.0570  175.3670  136.8440 C   0  0  0  0  0  2  0  0  0  0  0  0
  189.1650  175.8300  135.4020 C   0  0  0  0  0  2  0  0  0  0  0  0
  192.6430  175.2220  135.0160 O   0  0  0  0  0  0  0  0  0  0  0  0
  190.7380  173.9080  135.4810 C   0  0  0  0  0  2  0  0  0  0  0  0
  190.3010  175.1120  134.6970 C   0  0  2  0  0  3  0  0  0  0  0  0
  192.1580  174.2300  135.8790 C   0  0  0  0  0  2  0  0  0  0  0  0
  191.5240  176.0000  134.6840 C   0  0  0  0  0  2  0  0  0  0  0  0
  1 18  2  0  0  0  0
  1 26  1  0  0  0  0
  2 27  1  0  0  0  0
  3  7  1  6  0  0  0
  3 16  1  0  0  0  0
  4 15  1  0  0  0  0
  4 23  2  0  0  0  0
  5 19  1  0  0  0  0
  5 15  2  0  0  0  0
  9 13  1  1  0  0  0
  9 27  1  0  0  0  0
 10 22  1  0  0  0  0
 10 17  1  0  0  0  0
 11  5  1  0  0  0  0
 12  8  1  0  0  0  0
 13 20  1  0  0  0  0
 14  2  1  0  0  0  0
 15 12  1  0  0  0  0
 16  8  1  0  0  0  0
 17 25  1  0  0  0  0
 18  4  1  0  0  0  0
 19  6  1  6  0  0  0
 19  3  1  0  0  0  0
 20 11  2  0  0  0  0
 20 18  1  0  0  0  0
 21 23  1  0  0  0  0
 22 24  1  0  0  0  0
 24 13  1  0  0  0  0
 25 14  1  1  0  0  0
 25  9  1  0  0  0  0
 26 21  2  0  0  0  0
 27  1  1  0  0  0  0
 28 17  1  0  0  0  0
 29 28  1  0  0  0  0
 30 33  1  0  0  0  0
 31 33  1  0  0  0  0
 32 29  1  1  0  0  0
 32 31  1  0  0  0  0
 34 32  1  0  0  0  0
 34 30  1  0  0  0  0
M  END
>  <MODEL>
7

>  <REMARK>
 VINA RESULT:      -8.7      1.383      1.926
  Name = 
  3 active torsions:
  status: ('A' for Active; 'I' for Inactive)
    1  A    between atoms: N_17  and  C_28
    2  A    between atoms: C_28  and  C_29
    3  A    between atoms: C_29  and  C_32
                            x       y       z     vdW  Elec       q    Type
                         _______ _______ _______ _____ _____    ______ ____

>  <TORSDO>
F 3

$$$$
=
 OpenBabel11122412173D

 34 40  0  0  1  0  0  0  0  0999 V2000
  188.7310  177.3280  140.3780 C   0  0  0  0  0  0  0  0  0  0  0  0
  188.2930  176.7900  137.9510 C   0  0  0  0  0  2  0  0  0  0  0  0
  186.0870  177.7430  146.4050 C   0  0  2  0  0  3  0  0  0  0  0  0
  188.6820  177.3600  142.8170 C   0  0  0  0  0  0  0  0  0  0  0  0
  186.6900  178.2030  143.9450 C   0  0  0  0  0  0  0  0  0  0  0  0
  184.4020  178.8220  144.8060 C   0  0  0  0  0  1  0  0  0  0  0  0
  184.8990  177.7130  147.3590 C   0  0  0  0  0  1  0  0  0  0  0  0
  188.5480  178.4140  146.3480 C   0  0  0  0  0  2  0  0  0  0  0  0
  186.9430  178.4940  139.0320 C   0  0  2  0  0  3  0  0  0  0  0  0
  183.8580  178.3210  138.1920 C   0  0  0  0  0  2  0  0  0  0  0  0
  186.1570  178.4610  142.7150 N   0  0  0  0  0  0  0  0  0  0  0  0
  188.6820  177.3060  145.3220 C   0  0  0  0  0  2  0  0  0  0  0  0
  186.1420  178.5010  140.2840 N   0  0  0  0  0  0  0  0  0  0  0  0
  187.2060  177.1950  136.9770 C   0  0  0  0  0  2  0  0  0  0  0  0
  188.0050  177.6580  144.0190 C   0  0  0  0  0  0  0  0  0  0  0  0
  187.3080  178.1920  147.2060 C   0  0  0  0  0  2  0  0  0  0  0  0
  184.9430  177.3410  138.0950 N   0  0  0  0  0  0  0  0  0  0  0  0
  188.0720  177.6370  141.5740 C   0  0  0  0  0  0  0  0  0  0  0  0
  185.8800  178.6410  145.1640 C   0  0  1  0  0  3  0  0  0  0  0  0
  186.7900  178.1960  141.5420 C   0  0  0  0  0  0  0  0  0  0  0  0
  190.6140  176.4630  141.6340 C   0  0  0  0  0  3  0  0  0  0  0  0
  184.2210  179.5380  139.0420 C   0  0  0  0  0  2  0  0  0  0  0  0
  189.9620  176.7760  142.8280 C   0  0  0  0  0  3  0  0  0  0  0  0
  184.8050  179.1120  140.3780 C   0  0  0  0  0  2  0  0  0  0  0  0
  186.1940  178.0510  137.7580 C   0  0  1  0  0  3  0  0  0  0  0  0
  189.9990  176.7340  140.4120 C   0  0  0  0  0  3  0  0  0  0  0  0
  188.0800  177.5950  139.1350 N   0  0  0  0  0  0  0  0  0  0  0  0
  184.5350  176.4360  137.0260 C   0  0  0  0  0  2  0  0  0  0  0  0
  183.9170  175.1870  137.6290 C   0  0  0  0  0  2  0  0  0  0  0  0
  186.4380  173.4020  135.8750 O   0  0  0  0  0  0  0  0  0  0  0  0
  185.0890  173.0000  137.7700 C   0  0  0  0  0  2  0  0  0  0  0  0
  184.3610  173.9530  136.8650 C   0  0  2  0  0  3  0  0  0  0  0  0
  186.4880  172.9600  137.2050 C   0  0  0  0  0  2  0  0  0  0  0  0
  185.3990  174.3430  135.8400 C   0  0  0  0  0  2  0  0  0  0  0  0
  1 26  2  0  0  0  0
  1 18  1  0  0  0  0
  2 27  1  0  0  0  0
  3 16  1  0  0  0  0
  3  7  1  1  0  0  0
  4 23  1  0  0  0  0
  4 15  1  0  0  0  0
  5 15  2  0  0  0  0
  5 19  1  0  0  0  0
  8 16  1  0  0  0  0
  9 27  1  1  0  0  0
  9 13  1  0  0  0  0
 10 22  1  0  0  0  0
 11  5  1  0  0  0  0
 12  8  1  0  0  0  0
 13 24  1  0  0  0  0
 13 20  1  0  0  0  0
 14  2  1  0  0  0  0
 15 12  1  0  0  0  0
 17 10  1  0  0  0  0
 18  4  2  0  0  0  0
 19  6  1  6  0  0  0
 19  3  1  0  0  0  0
 20 18  1  0  0  0  0
 20 11  2  0  0  0  0
 21 23  2  0  0  0  0
 22 24  1  0  0  0  0
 25 14  1  1  0  0  0
 25 17  1  0  0  0  0
 25  9  1  0  0  0  0
 26 21  1  0  0  0  0
 27  1  1  0  0  0  0
 28 29  1  0  0  0  0
 28 17  1  0  0  0  0
 30 33  1  0  0  0  0
 32 29  1  1  0  0  0
 32 31  1  0  0  0  0
 33 31  1  0  0  0  0
 34 30  1  0  0  0  0
 34 32  1  0  0  0  0
M  END
>  <MODEL>
8

>  <REMARK>
 VINA RESULT:      -8.6      2.898      5.199
  Name = 
  3 active torsions:
  status: ('A' for Active; 'I' for Inactive)
    1  A    between atoms: N_17  and  C_28
    2  A    between atoms: C_28  and  C_29
    3  A    between atoms: C_29  and  C_32
                            x       y       z     vdW  Elec       q    Type
                         _______ _______ _______ _____ _____    ______ ____

>  <TORSDO>
F 3

$$$$
=
 OpenBabel11122412173D

 34 40  0  0  1  0  0  0  0  0999 V2000
  182.4520  178.8710  143.2050 C   0  0  0  0  0  0  0  0  0  0  0  0
  184.0280  178.6280  145.1610 C   0  0  0  0  0  2  0  0  0  0  0  0
  181.1320  176.9620  137.0320 C   0  0  2  0  0  3  0  0  0  0  0  0
  181.0960  178.4470  141.2210 C   0  0  0  0  0  0  0  0  0  0  0  0
  182.2160  178.0710  139.0860 C   0  0  0  0  0  0  0  0  0  0  0  0
  183.6510  177.4120  137.1210 C   0  0  0  0  0  1  0  0  0  0  0  0
  181.4850  176.2240  135.7460 C   0  0  0  0  0  1  0  0  0  0  0  0
  179.4710  178.6830  137.9190 C   0  0  0  0  0  2  0  0  0  0  0  0
  184.9310  179.3050  143.0100 C   0  0  2  0  0  3  0  0  0  0  0  0
  187.7280  177.8900  142.3600 C   0  0  0  0  0  2  0  0  0  0  0  0
  183.4050  178.2690  139.7260 N   0  0  0  0  0  0  0  0  0  0  0  0
  179.6410  177.9590  139.2400 C   0  0  0  0  0  2  0  0  0  0  0  0
  184.8260  178.7240  141.6460 N   0  0  0  0  0  0  0  0  0  0  0  0
  185.5370  178.6550  145.2880 C   0  0  0  0  0  2  0  0  0  0  0  0
  181.0090  178.1850  139.8370 C   0  0  0  0  0  0  0  0  0  0  0  0
  179.8640  177.7710  136.7630 C   0  0  0  0  0  2  0  0  0  0  0  0
  186.6710  177.5490  143.3170 N   0  0  0  0  0  0  0  0  0  0  0  0
  182.3570  178.6280  141.8290 C   0  0  0  0  0  0  0  0  0  0  0  0
  182.2610  177.8680  137.5730 C   0  0  1  0  0  3  0  0  0  0  0  0
  183.5190  178.5340  141.0550 C   0  0  0  0  0  0  0  0  0  0  0  0
  180.0390  178.7580  143.3940 C   0  0  0  0  0  3  0  0  0  0  0  0
  187.3100  178.9670  141.3600 C   0  0  0  0  0  2  0  0  0  0  0  0
  179.9420  178.5220  142.0210 C   0  0  0  0  0  3  0  0  0  0  0  0
  185.9720  178.6280  140.7250 C   0  0  0  0  0  2  0  0  0  0  0  0
  186.1090  178.8000  143.8670 C   0  0  1  0  0  3  0  0  0  0  0  0
  181.2910  178.9280  143.9850 C   0  0  0  0  0  3  0  0  0  0  0  0
  183.7420  179.0240  143.7980 N   0  0  0  0  0  0  0  0  0  0  0  0
  187.3390  176.7620  144.3470 C   0  0  0  0  0  2  0  0  0  0  0  0
  188.8420  176.9230  144.2120 C   0  0  0  0  0  2  0  0  0  0  0  0
  189.7070  177.1310  147.6510 O   0  0  0  0  0  0  0  0  0  0  0  0
  190.8490  177.3910  145.6010 C   0  0  0  0  0  2  0  0  0  0  0  0
  189.3990  177.7170  145.3790 C   0  0  2  0  0  3  0  0  0  0  0  0
  190.8710  176.7530  146.9680 C   0  0  0  0  0  2  0  0  0  0  0  0
  188.7280  177.2700  146.6560 C   0  0  0  0  0  2  0  0  0  0  0  0
  1 27  1  0  0  0  0
  1 26  1  0  0  0  0
  2 14  1  0  0  0  0
  3  7  1  6  0  0  0
  3 19  1  0  0  0  0
  4 18  1  0  0  0  0
  4 23  2  0  0  0  0
  5 11  1  0  0  0  0
  5 15  2  0  0  0  0
  8 12  1  0  0  0  0
  9 13  1  6  0  0  0
  9 27  1  0  0  0  0
  9 25  1  0  0  0  0
 10 17  1  0  0  0  0
 11 20  2  0  0  0  0
 12 15  1  0  0  0  0
 15  4  1  0  0  0  0
 16  3  1  0  0  0  0
 16  8  1  0  0  0  0
 17 25  1  0  0  0  0
 17 28  1  0  0  0  0
 18  1  2  0  0  0  0
 19  6  1  1  0  0  0
 19  5  1  0  0  0  0
 20 13  1  0  0  0  0
 20 18  1  0  0  0  0
 21 26  2  0  0  0  0
 22 10  1  0  0  0  0
 23 21  1  0  0  0  0
 24 22  1  0  0  0  0
 24 13  1  0  0  0  0
 25 14  1  1  0  0  0
 27  2  1  0  0  0  0
 29 28  1  0  0  0  0
 31 33  1  0  0  0  0
 32 29  1  6  0  0  0
 32 31  1  0  0  0  0
 32 34  1  0  0  0  0
 33 30  1  0  0  0  0
 34 30  1  0  0  0  0
M  END
>  <MODEL>
9

>  <REMARK>
 VINA RESULT:      -8.6      4.455      6.836
  Name = 
  3 active torsions:
  status: ('A' for Active; 'I' for Inactive)
    1  A    between atoms: N_17  and  C_28
    2  A    between atoms: C_28  and  C_29
    3  A    between atoms: C_29  and  C_32
                            x       y       z     vdW  Elec       q    Type
                         _______ _______ _______ _____ _____    ______ ____

>  <TORSDO>
F 3

$$$$
