=
 OpenBabel11122410553D

 31 35  0  0  1  0  0  0  0  0999 V2000
  190.0870  176.0700  142.7290 C   0  0  0  0  0  0  0  0  0  0  0  0
  186.5660  177.1780  143.6310 C   0  0  2  0  0  3  0  0  0  0  0  0
  186.6920  177.9200  144.9530 C   0  0  0  0  0  0  0  0  0  0  0  0
  187.8010  177.9910  147.1470 C   0  0  0  0  0  0  0  0  0  0  0  0
  187.8790  177.0440  142.8900 C   0  0  0  0  0  0  0  0  0  0  0  0
  190.3250  176.8000  141.6070 N   0  0  0  0  0  0  0  0  0  0  0  0
  187.8130  177.6010  145.8700 C   0  0  0  0  0  3  0  0  0  0  0  0
  185.9430  178.9860  141.9580 C   0  0  2  0  0  3  0  0  0  0  0  0
  191.0410  175.2390  143.2110 F   0  0  0  0  0  0  0  0  0  0  0  0
  184.5440  179.1000  144.5120 C   0  0  0  0  0  2  0  0  0  0  0  0
  188.9480  177.6580  148.0300 C   0  0  0  0  0  1  0  0  0  0  0  0
  187.0930  178.6010  141.0310 C   0  0  0  0  0  2  0  0  0  0  0  0
  185.4540  177.7540  142.7350 C   0  0  2  0  0  3  0  0  0  0  0  0
  188.8590  176.1760  143.3840 C   0  0  0  0  0  3  0  0  0  0  0  0
  186.5880  178.6640  147.7220 C   0  0  0  0  0  2  0  0  0  0  0  0
  188.1470  177.7840  141.7180 C   0  0  0  0  0  0  0  0  0  0  0  0
  189.3870  177.6350  141.0900 C   0  0  0  0  0  3  0  0  0  0  0  0
  184.2590  178.0460  143.5350 N   0  0  0  0  0  2  0  0  0  0  0  0
  185.7170  178.7540  145.3800 C   0  0  0  0  0  0  0  0  0  0  0  0
  185.8890  179.5190  146.6650 C   0  0  0  0  0  2  0  0  0  0  0  0
  184.1770  177.4960  140.2850 O   0  0  0  0  0  0  0  0  0  0  0  0
  184.0000  178.7430  140.3580 C   0  0  0  0  0  0  0  0  0  0  0  0
  184.8550  179.5490  141.1690 N   0  0  0  0  0  2  0  0  0  0  0  0
  180.5980  177.5620  139.1470 C   0  0  0  0  0  0  0  0  0  0  0  0
  181.6100  179.4530  140.4290 C   0  0  0  0  0  2  0  0  0  0  0  0
  183.6260  178.3770  137.5620 O   0  0  0  0  0  0  0  0  0  0  0  0
  180.2510  176.3200  139.1010 N   0  0  0  0  0  2  0  0  0  0  0  0
  180.9130  178.1700  140.4010 N   0  0  0  0  0  2  0  0  0  0  0  0
  182.6750  178.7320  138.2410 C   0  0  0  0  0  0  0  0  0  0  0  0
  182.8960  179.3980  139.5860 C   0  0  2  0  0  3  0  0  0  0  0  0
  181.0050  178.4400  137.6400 S   0  0  0  0  0  0  0  0  0  0  0  0
  1  9  1  0  0  0  0
  1 14  1  0  0  0  0
  2  5  1  6  0  0  0
  2  3  1  0  0  0  0
  3 19  2  0  0  0  0
  3  7  1  0  0  0  0
  4 15  1  0  0  0  0
  4 11  1  0  0  0  0
  5 14  2  0  0  0  0
  6  1  2  0  0  0  0
  7  4  2  0  0  0  0
  8 23  1  6  0  0  0
  8 13  1  0  0  0  0
 10 19  1  0  0  0  0
 12 16  1  0  0  0  0
 12  8  1  0  0  0  0
 13 18  1  1  0  0  0
 13  2  1  0  0  0  0
 16  5  1  0  0  0  0
 17  6  1  0  0  0  0
 17 16  2  0  0  0  0
 18 10  1  0  0  0  0
 19 20  1  0  0  0  0
 20 15  1  0  0  0  0
 21 22  2  0  0  0  0
 22 23  1  0  0  0  0
 24 28  1  0  0  0  0
 26 29  2  0  0  0  0
 27 24  2  0  0  0  0
 28 25  1  0  0  0  0
 29 30  1  0  0  0  0
 30 22  1  1  0  0  0
 30 25  1  0  0  0  0
 31 29  1  0  0  0  0
 31 24  1  0  0  0  0
M  END
>  <MODEL>
1

>  <REMARK>
 VINA RESULT:      -9.9      0.000      0.000
  Name = 
  2 active torsions:
  status: ('A' for Active; 'I' for Inactive)
    1  A    between atoms: C_5  and  C_30
    2  A    between atoms: C_10  and  N_16
                            x       y       z     vdW  Elec       q    Type
                         _______ _______ _______ _____ _____    ______ ____

>  <TORSDO>
F 2

$$$$
=
 OpenBabel11122410553D

 31 35  0  0  1  0  0  0  0  0999 V2000
  191.4210  176.5780  144.7600 C   0  0  0  0  0  0  0  0  0  0  0  0
  187.7530  177.0010  143.8630 C   0  0  2  0  0  3  0  0  0  0  0  0
  187.1470  177.8370  144.9810 C   0  0  0  0  0  0  0  0  0  0  0  0
  187.1090  178.2730  147.4000 C   0  0  0  0  0  0  0  0  0  0  0  0
  189.2620  177.0900  143.7970 C   0  0  0  0  0  0  0  0  0  0  0  0
  192.0290  177.2680  143.7600 N   0  0  0  0  0  0  0  0  0  0  0  0
  187.7610  177.8120  146.3310 C   0  0  0  0  0  3  0  0  0  0  0  0
  187.6930  178.5330  141.8360 C   0  0  2  0  0  3  0  0  0  0  0  0
  192.1650  175.9930  145.7280 F   0  0  0  0  0  0  0  0  0  0  0  0
  185.2840  178.5220  143.4770 C   0  0  0  0  0  2  0  0  0  0  0  0
  187.7630  178.2380  148.7340 C   0  0  0  0  0  1  0  0  0  0  0  0
  189.1820  178.3310  141.5720 C   0  0  0  0  0  2  0  0  0  0  0  0
  187.0980  177.2790  142.4970 C   0  0  2  0  0  3  0  0  0  0  0  0
  190.0300  176.4740  144.7920 C   0  0  0  0  0  3  0  0  0  0  0  0
  185.6800  178.7200  147.2830 C   0  0  0  0  0  2  0  0  0  0  0  0
  189.9180  177.7920  142.7630 C   0  0  0  0  0  0  0  0  0  0  0  0
  191.3140  177.8590  142.7670 C   0  0  0  0  0  3  0  0  0  0  0  0
  185.6410  177.3720  142.6440 N   0  0  0  0  0  2  0  0  0  0  0  0
  185.9700  178.4790  144.8110 C   0  0  0  0  0  0  0  0  0  0  0  0
  185.4180  179.3450  145.9120 C   0  0  0  0  0  2  0  0  0  0  0  0
  188.2380  177.2490  139.3480 O   0  0  0  0  0  0  0  0  0  0  0  0
  187.3290  178.1230  139.3680 C   0  0  0  0  0  0  0  0  0  0  0  0
  187.0120  178.8090  140.5790 N   0  0  0  0  0  2  0  0  0  0  0  0
  186.9920  176.4330  135.9810 C   0  0  0  0  0  0  0  0  0  0  0  0
  185.5460  177.3570  137.7990 C   0  0  0  0  0  2  0  0  0  0  0  0
  188.5250  179.3830  137.1170 O   0  0  0  0  0  0  0  0  0  0  0  0
  187.7860  175.5050  135.5670 N   0  0  0  0  0  2  0  0  0  0  0  0
  186.1890  176.2200  137.1440 N   0  0  0  0  0  2  0  0  0  0  0  0
  187.5040  178.7340  136.9530 C   0  0  0  0  0  0  0  0  0  0  0  0
  186.5730  178.4580  138.1190 C   0  0  2  0  0  3  0  0  0  0  0  0
  187.1200  178.0920  135.3180 S   0  0  0  0  0  0  0  0  0  0  0  0
  1 14  1  0  0  0  0
  1  9  1  0  0  0  0
  2  5  1  6  0  0  0
  2  3  1  0  0  0  0
  3  7  1  0  0  0  0
  4 11  1  0  0  0  0
  5 14  2  0  0  0  0
  6  1  2  0  0  0  0
  7  4  2  0  0  0  0
  8 23  1  6  0  0  0
  8 13  1  0  0  0  0
 10 19  1  0  0  0  0
 12  8  1  0  0  0  0
 12 16  1  0  0  0  0
 13 18  1  1  0  0  0
 13  2  1  0  0  0  0
 15  4  1  0  0  0  0
 16 17  2  0  0  0  0
 16  5  1  0  0  0  0
 17  6  1  0  0  0  0
 18 10  1  0  0  0  0
 19  3  2  0  0  0  0
 19 20  1  0  0  0  0
 20 15  1  0  0  0  0
 21 22  2  0  0  0  0
 22 23  1  0  0  0  0
 24 28  1  0  0  0  0
 25 30  1  0  0  0  0
 27 24  2  0  0  0  0
 28 25  1  0  0  0  0
 29 26  2  0  0  0  0
 29 30  1  0  0  0  0
 30 22  1  1  0  0  0
 31 24  1  0  0  0  0
 31 29  1  0  0  0  0
M  END
>  <MODEL>
2

>  <REMARK>
 VINA RESULT:      -9.8      3.021      3.586
  Name = 
  2 active torsions:
  status: ('A' for Active; 'I' for Inactive)
    1  A    between atoms: C_5  and  C_30
    2  A    between atoms: C_10  and  N_16
                            x       y       z     vdW  Elec       q    Type
                         _______ _______ _______ _____ _____    ______ ____

>  <TORSDO>
F 2

$$$$
=
 OpenBabel11122410553D

 31 35  0  0  1  0  0  0  0  0999 V2000
  189.3900  176.7520  141.8890 C   0  0  0  0  0  0  0  0  0  0  0  0
  186.6450  177.1470  144.4850 C   0  0  2  0  0  3  0  0  0  0  0  0
  187.3340  177.6590  145.7420 C   0  0  0  0  0  0  0  0  0  0  0  0
  189.3320  177.5140  147.1660 C   0  0  0  0  0  0  0  0  0  0  0  0
  187.4650  177.3420  143.2280 C   0  0  0  0  0  0  0  0  0  0  0  0
  189.0390  177.6930  140.9730 N   0  0  0  0  0  0  0  0  0  0  0  0
  188.7680  177.3570  145.9670 C   0  0  0  0  0  3  0  0  0  0  0  0
  185.2190  179.1040  143.7140 C   0  0  2  0  0  3  0  0  0  0  0  0
  190.5020  176.0030  141.6970 F   0  0  0  0  0  0  0  0  0  0  0  0
  185.1680  178.5620  146.5780 C   0  0  0  0  0  2  0  0  0  0  0  0
  190.7750  177.2080  147.3480 C   0  0  0  0  0  1  0  0  0  0  0  0
  185.8220  179.0610  142.3130 C   0  0  0  0  0  2  0  0  0  0  0  0
  185.2140  177.6970  144.3320 C   0  0  2  0  0  3  0  0  0  0  0  0
  188.6070  176.5580  143.0270 C   0  0  0  0  0  3  0  0  0  0  0  0
  188.4940  177.8870  148.3550 C   0  0  0  0  0  2  0  0  0  0  0  0
  187.1160  178.3050  142.2570 C   0  0  0  0  0  0  0  0  0  0  0  0
  187.9250  178.4550  141.1280 C   0  0  0  0  0  3  0  0  0  0  0  0
  184.5170  177.6630  145.6220 N   0  0  0  0  0  2  0  0  0  0  0  0
  186.6280  178.2500  146.7320 C   0  0  0  0  0  0  0  0  0  0  0  0
  187.3390  178.7990  147.9400 C   0  0  0  0  0  2  0  0  0  0  0  0
  183.0980  177.9710  142.1780 O   0  0  0  0  0  0  0  0  0  0  0  0
  182.8420  179.0030  142.8560 C   0  0  0  0  0  0  0  0  0  0  0  0
  183.8600  179.6250  143.6400 N   0  0  0  0  0  2  0  0  0  0  0  0
  179.4020  177.6120  142.0370 C   0  0  0  0  0  0  0  0  0  0  0  0
  180.5600  178.8750  143.8560 C   0  0  0  0  0  2  0  0  0  0  0  0
  181.5610  179.9080  140.4840 O   0  0  0  0  0  0  0  0  0  0  0  0
  179.2160  176.4980  141.4120 N   0  0  0  0  0  2  0  0  0  0  0  0
  180.0600  177.6170  143.3060 N   0  0  0  0  0  2  0  0  0  0  0  0
  180.8720  179.6110  141.4480 C   0  0  0  0  0  0  0  0  0  0  0  0
  181.4660  179.5950  142.8430 C   0  0  2  0  0  3  0  0  0  0  0  0
  179.1460  179.1710  141.1950 S   0  0  0  0  0  0  0  0  0  0  0  0
  1 14  1  0  0  0  0
  2  5  1  6  0  0  0
  2  3  1  0  0  0  0
  3  7  1  0  0  0  0
  3 19  2  0  0  0  0
  4 11  1  0  0  0  0
  4 15  1  0  0  0  0
  6 17  1  0  0  0  0
  6  1  2  0  0  0  0
  7  4  2  0  0  0  0
  8 23  1  6  0  0  0
  8 13  1  0  0  0  0
  9  1  1  0  0  0  0
 10 19  1  0  0  0  0
 12  8  1  0  0  0  0
 13  2  1  0  0  0  0
 13 18  1  1  0  0  0
 14  5  2  0  0  0  0
 16 12  1  0  0  0  0
 16  5  1  0  0  0  0
 17 16  2  0  0  0  0
 18 10  1  0  0  0  0
 19 20  1  0  0  0  0
 20 15  1  0  0  0  0
 21 22  2  0  0  0  0
 22 23  1  0  0  0  0
 24 28  1  0  0  0  0
 26 29  2  0  0  0  0
 27 24  2  0  0  0  0
 28 25  1  0  0  0  0
 29 30  1  0  0  0  0
 30 22  1  6  0  0  0
 30 25  1  0  0  0  0
 31 29  1  0  0  0  0
 31 24  1  0  0  0  0
M  END
>  <MODEL>
3

>  <REMARK>
 VINA RESULT:      -9.5      1.985      2.346
  Name = 
  2 active torsions:
  status: ('A' for Active; 'I' for Inactive)
    1  A    between atoms: C_5  and  C_30
    2  A    between atoms: C_10  and  N_16
                            x       y       z     vdW  Elec       q    Type
                         _______ _______ _______ _____ _____    ______ ____

>  <TORSDO>
F 2

$$$$
=
 OpenBabel11122410553D

 31 35  0  0  1  0  0  0  0  0999 V2000
  191.3120  176.5300  144.5030 C   0  0  0  0  0  0  0  0  0  0  0  0
  187.6150  177.0500  143.7920 C   0  0  2  0  0  3  0  0  0  0  0  0
  187.0810  177.8720  144.9550 C   0  0  0  0  0  0  0  0  0  0  0  0
  187.1670  178.2530  147.3820 C   0  0  0  0  0  0  0  0  0  0  0  0
  189.1220  177.1090  143.6550 C   0  0  0  0  0  0  0  0  0  0  0  0
  191.8870  177.2300  143.4900 N   0  0  0  0  0  0  0  0  0  0  0  0
  187.7580  177.8030  146.2730 C   0  0  0  0  0  3  0  0  0  0  0  0
  187.4930  178.6290  141.8040 C   0  0  2  0  0  3  0  0  0  0  0  0
  192.0880  175.9070  145.4210 F   0  0  0  0  0  0  0  0  0  0  0  0
  185.1650  178.6310  143.5580 C   0  0  0  0  0  2  0  0  0  0  0  0
  187.8820  178.1730  148.6820 C   0  0  0  0  0  1  0  0  0  0  0  0
  188.9640  178.4020  141.4650 C   0  0  0  0  0  2  0  0  0  0  0  0
  186.9030  177.3730  142.4650 C   0  0  2  0  0  3  0  0  0  0  0  0
  189.9210  176.4540  144.5990 C   0  0  0  0  0  3  0  0  0  0  0  0
  185.7440  178.7310  147.3430 C   0  0  0  0  0  2  0  0  0  0  0  0
  189.7430  177.8210  142.6070 C   0  0  0  0  0  0  0  0  0  0  0  0
  191.1390  177.8590  142.5460 C   0  0  0  0  0  3  0  0  0  0  0  0
  185.4570  177.4930  142.6830 N   0  0  0  0  0  2  0  0  0  0  0  0
  185.9120  178.5430  144.8560 C   0  0  0  0  0  0  0  0  0  0  0  0
  185.4320  179.3940  146.0010 C   0  0  0  0  0  2  0  0  0  0  0  0
  187.8300  177.3310  139.2860 O   0  0  0  0  0  0  0  0  0  0  0  0
  186.9720  178.2530  139.3590 C   0  0  0  0  0  0  0  0  0  0  0  0
  186.7600  178.9490  140.5870 N   0  0  0  0  0  2  0  0  0  0  0  0
  184.4960  176.3830  137.1650 C   0  0  0  0  0  0  0  0  0  0  0  0
  184.6620  178.5190  138.4530 C   0  0  0  0  0  2  0  0  0  0  0  0
  187.7530  177.6150  136.7000 O   0  0  0  0  0  0  0  0  0  0  0  0
  184.3710  175.0990  137.1680 N   0  0  0  0  0  2  0  0  0  0  0  0
  184.2170  177.1310  138.3510 N   0  0  0  0  0  2  0  0  0  0  0  0
  186.5750  177.8400  136.9280 C   0  0  0  0  0  0  0  0  0  0  0  0
  186.1670  178.6350  138.1540 C   0  0  2  0  0  3  0  0  0  0  0  0
  185.3220  177.2040  135.8050 S   0  0  0  0  0  0  0  0  0  0  0  0
  1 14  1  0  0  0  0
  1  9  1  0  0  0  0
  2  5  1  6  0  0  0
  2  3  1  0  0  0  0
  3  7  1  0  0  0  0
  4 11  1  0  0  0  0
  5 14  2  0  0  0  0
  6  1  2  0  0  0  0
  7  4  2  0  0  0  0
  8 23  1  6  0  0  0
  8 13  1  0  0  0  0
 10 19  1  0  0  0  0
 12  8  1  0  0  0  0
 12 16  1  0  0  0  0
 13 18  1  1  0  0  0
 13  2  1  0  0  0  0
 15  4  1  0  0  0  0
 16  5  1  0  0  0  0
 17 16  2  0  0  0  0
 17  6  1  0  0  0  0
 18 10  1  0  0  0  0
 19  3  2  0  0  0  0
 19 20  1  0  0  0  0
 20 15  1  0  0  0  0
 21 22  2  0  0  0  0
 22 23  1  0  0  0  0
 24 27  2  0  0  0  0
 24 28  1  0  0  0  0
 26 29  2  0  0  0  0
 28 25  1  0  0  0  0
 29 30  1  0  0  0  0
 30 25  1  0  0  0  0
 30 22  1  1  0  0  0
 31 29  1  0  0  0  0
 31 24  1  0  0  0  0
M  END
>  <MODEL>
4

>  <REMARK>
 VINA RESULT:      -9.1      2.417      2.687
  Name = 
  2 active torsions:
  status: ('A' for Active; 'I' for Inactive)
    1  A    between atoms: C_5  and  C_30
    2  A    between atoms: C_10  and  N_16
                            x       y       z     vdW  Elec       q    Type
                         _______ _______ _______ _____ _____    ______ ____

>  <TORSDO>
F 2

$$$$
=
 OpenBabel11122410553D

 31 35  0  0  1  0  0  0  0  0999 V2000
  190.6340  176.8940  146.4260 C   0  0  0  0  0  0  0  0  0  0  0  0
  187.9760  177.0480  143.7150 C   0  0  2  0  0  3  0  0  0  0  0  0
  186.8860  177.9620  144.2550 C   0  0  0  0  0  0  0  0  0  0  0  0
  185.5990  178.6390  146.2360 C   0  0  0  0  0  0  0  0  0  0  0  0
  189.3000  177.2020  144.4320 C   0  0  0  0  0  0  0  0  0  0  0  0
  191.6830  177.5070  145.8170 N   0  0  0  0  0  0  0  0  0  0  0  0
  186.7070  178.1040  145.7200 C   0  0  0  0  0  3  0  0  0  0  0  0
  188.9990  178.3620  141.7950 C   0  0  2  0  0  3  0  0  0  0  0  0
  190.7580  176.4460  147.6980 F   0  0  0  0  0  0  0  0  0  0  0  0
  186.0880  178.4030  141.9370 C   0  0  0  0  0  2  0  0  0  0  0  0
  185.4610  178.7710  147.7100 C   0  0  0  0  0  1  0  0  0  0  0  0
  190.4060  178.2060  142.3670 C   0  0  0  0  0  2  0  0  0  0  0  0
  188.1320  177.1550  142.1860 C   0  0  2  0  0  3  0  0  0  0  0  0
  189.4290  176.7270  145.7430 C   0  0  0  0  0  3  0  0  0  0  0  0
  184.4460  179.0030  145.3460 C   0  0  0  0  0  2  0  0  0  0  0  0
  190.4070  177.8260  143.8180 C   0  0  0  0  0  0  0  0  0  0  0  0
  191.5970  177.9600  144.5390 C   0  0  0  0  0  3  0  0  0  0  0  0
  186.8140  177.1920  141.5440 N   0  0  0  0  0  2  0  0  0  0  0  0
  185.9780  178.5280  143.4280 C   0  0  0  0  0  0  0  0  0  0  0  0
  184.9440  179.4730  143.9780 C   0  0  0  0  0  2  0  0  0  0  0  0
  190.3680  176.5500  140.0680 O   0  0  0  0  0  0  0  0  0  0  0  0
  189.7730  177.5280  139.5370 C   0  0  0  0  0  0  0  0  0  0  0  0
  189.0770  178.4770  140.3450 N   0  0  0  0  0  2  0  0  0  0  0  0
  187.0600  177.7110  136.8830 C   0  0  0  0  0  0  0  0  0  0  0  0
  189.0560  179.0020  137.6560 C   0  0  0  0  0  2  0  0  0  0  0  0
  189.5490  175.3700  137.6990 O   0  0  0  0  0  0  0  0  0  0  0  0
  185.8420  177.3360  137.0840 N   0  0  0  0  0  2  0  0  0  0  0  0
  187.6100  178.7900  137.6420 N   0  0  0  0  0  2  0  0  0  0  0  0
  189.2570  176.4940  137.3240 C   0  0  0  0  0  0  0  0  0  0  0  0
  189.7950  177.7120  138.0510 C   0  0  2  0  0  3  0  0  0  0  0  0
  188.1660  176.6950  135.9080 S   0  0  0  0  0  0  0  0  0  0  0  0
  1  9  1  0  0  0  0
  2  3  1  1  0  0  0
  2  5  1  0  0  0  0
  3  7  1  0  0  0  0
  4 11  1  0  0  0  0
  5 14  1  0  0  0  0
  6  1  1  0  0  0  0
  7  4  2  0  0  0  0
  8 23  1  6  0  0  0
  8 13  1  0  0  0  0
  8 12  1  0  0  0  0
 10 19  1  0  0  0  0
 12 16  1  0  0  0  0
 13 18  1  6  0  0  0
 13  2  1  0  0  0  0
 14  1  2  0  0  0  0
 15  4  1  0  0  0  0
 16  5  2  0  0  0  0
 16 17  1  0  0  0  0
 17  6  2  0  0  0  0
 18 10  1  0  0  0  0
 19 20  1  0  0  0  0
 19  3  2  0  0  0  0
 20 15  1  0  0  0  0
 22 21  2  0  0  0  0
 22 23  1  0  0  0  0
 24 27  2  0  0  0  0
 24 28  1  0  0  0  0
 25 30  1  0  0  0  0
 28 25  1  0  0  0  0
 29 26  2  0  0  0  0
 29 30  1  0  0  0  0
 30 22  1  1  0  0  0
 31 24  1  0  0  0  0
 31 29  1  0  0  0  0
M  END
>  <MODEL>
5

>  <REMARK>
 VINA RESULT:      -8.9      3.580      4.711
  Name = 
  2 active torsions:
  status: ('A' for Active; 'I' for Inactive)
    1  A    between atoms: C_5  and  C_30
    2  A    between atoms: C_10  and  N_16
                            x       y       z     vdW  Elec       q    Type
                         _______ _______ _______ _____ _____    ______ ____

>  <TORSDO>
F 2

$$$$
=
 OpenBabel11122410553D

 31 35  0  0  1  0  0  0  0  0999 V2000
  179.9250  178.7560  143.5950 C   0  0  0  0  0  0  0  0  0  0  0  0
  183.2770  179.2470  141.8740 C   0  0  2  0  0  3  0  0  0  0  0  0
  184.3140  178.6420  142.8080 C   0  0  0  0  0  0  0  0  0  0  0  0
  185.0100  178.3300  145.1450 C   0  0  0  0  0  0  0  0  0  0  0  0
  181.8670  178.7720  142.1530 C   0  0  0  0  0  0  0  0  0  0  0  0
  179.3060  177.8930  142.7470 N   0  0  0  0  0  0  0  0  0  0  0  0
  184.0360  178.5640  144.2620 C   0  0  0  0  0  3  0  0  0  0  0  0
  183.2700  177.6990  139.8590 C   0  0  2  0  0  3  0  0  0  0  0  0
  179.2930  179.1710  144.7190 F   0  0  0  0  0  0  0  0  0  0  0  0
  185.9010  178.3930  140.9050 C   0  0  0  0  0  2  0  0  0  0  0  0
  184.6880  178.2530  146.5930 C   0  0  0  0  0  1  0  0  0  0  0  0
  181.7600  177.5020  139.9470 C   0  0  0  0  0  2  0  0  0  0  0  0
  183.6550  179.0890  140.3890 C   0  0  2  0  0  3  0  0  0  0  0  0
  181.2120  179.2130  143.3090 C   0  0  0  0  0  3  0  0  0  0  0  0
  186.4400  178.2600  144.6950 C   0  0  0  0  0  2  0  0  0  0  0  0
  181.1980  177.8840  141.2840 C   0  0  0  0  0  0  0  0  0  0  0  0
  179.9050  177.4630  141.6070 C   0  0  0  0  0  3  0  0  0  0  0  0
  185.0800  179.3780  140.1970 N   0  0  0  0  0  2  0  0  0  0  0  0
  185.5470  178.3140  142.3610 C   0  0  0  0  0  0  0  0  0  0  0  0
  186.5380  177.6650  143.2890 C   0  0  0  0  0  2  0  0  0  0  0  0
  183.4440  175.2320  138.4370 O   0  0  0  0  0  0  0  0  0  0  0  0
  183.7540  176.2860  137.8180 C   0  0  0  0  0  0  0  0  0  0  0  0
  183.6970  177.5530  138.4740 N   0  0  0  0  0  2  0  0  0  0  0  0
  184.3520  173.4280  135.3880 C   0  0  0  0  0  0  0  0  0  0  0  0
  183.0980  175.5850  135.5150 C   0  0  0  0  0  2  0  0  0  0  0  0
  186.4310  175.7310  137.0350 O   0  0  0  0  0  0  0  0  0  0  0  0
  184.4700  172.1960  135.7530 N   0  0  0  0  0  2  0  0  0  0  0  0
  183.1290  174.1290  135.6230 N   0  0  0  0  0  2  0  0  0  0  0  0
  185.5300  175.5230  136.2380 C   0  0  0  0  0  0  0  0  0  0  0  0
  184.1930  176.2240  136.3870 C   0  0  2  0  0  3  0  0  0  0  0  0
  185.7970  174.3620  134.8900 S   0  0  0  0  0  0  0  0  0  0  0  0
  1  9  1  0  0  0  0
  2  5  1  6  0  0  0
  2  3  1  0  0  0  0
  3  7  1  0  0  0  0
  4 11  1  0  0  0  0
  5 14  2  0  0  0  0
  6  1  2  0  0  0  0
  7  4  2  0  0  0  0
  8 23  1  6  0  0  0
  8 12  1  0  0  0  0
  8 13  1  0  0  0  0
 10 19  1  0  0  0  0
 12 16  1  0  0  0  0
 13 18  1  1  0  0  0
 13  2  1  0  0  0  0
 14  1  1  0  0  0  0
 15  4  1  0  0  0  0
 16 17  2  0  0  0  0
 16  5  1  0  0  0  0
 17  6  1  0  0  0  0
 18 10  1  0  0  0  0
 19  3  2  0  0  0  0
 19 20  1  0  0  0  0
 20 15  1  0  0  0  0
 22 21  2  0  0  0  0
 22 23  1  0  0  0  0
 24 28  1  0  0  0  0
 24 27  2  0  0  0  0
 25 28  1  0  0  0  0
 25 30  1  0  0  0  0
 29 30  1  0  0  0  0
 29 26  2  0  0  0  0
 30 22  1  1  0  0  0
 31 24  1  0  0  0  0
 31 29  1  0  0  0  0
M  END
>  <MODEL>
6

>  <REMARK>
 VINA RESULT:      -8.8      3.889      6.094
  Name = 
  2 active torsions:
  status: ('A' for Active; 'I' for Inactive)
    1  A    between atoms: C_5  and  C_30
    2  A    between atoms: C_10  and  N_16
                            x       y       z     vdW  Elec       q    Type
                         _______ _______ _______ _____ _____    ______ ____

>  <TORSDO>
F 2

$$$$
=
 OpenBabel11122410553D

 31 35  0  0  1  0  0  0  0  0999 V2000
  185.0590  178.6110  139.1650 C   0  0  0  0  0  0  0  0  0  0  0  0
  188.7780  178.2390  139.8490 C   0  0  2  0  0  3  0  0  0  0  0  0
  188.8840  177.4460  141.1430 C   0  0  0  0  0  0  0  0  0  0  0  0
  187.9390  177.0760  143.3830 C   0  0  0  0  0  0  0  0  0  0  0  0
  187.4270  178.1170  139.1780 C   0  0  0  0  0  0  0  0  0  0  0  0
  184.9150  177.8830  138.0270 N   0  0  0  0  0  0  0  0  0  0  0  0
  187.7740  177.4950  142.1260 C   0  0  0  0  0  3  0  0  0  0  0  0
  189.6680  176.6540  138.0720 C   0  0  2  0  0  3  0  0  0  0  0  0
  183.9810  179.2070  139.7280 F   0  0  0  0  0  0  0  0  0  0  0  0
  191.2020  176.7580  140.5490 C   0  0  0  0  0  2  0  0  0  0  0  0
  186.7990  177.1340  144.3340 C   0  0  0  0  0  1  0  0  0  0  0  0
  188.4130  176.8190  137.2200 C   0  0  0  0  0  2  0  0  0  0  0  0
  189.9340  177.9370  138.8760 C   0  0  2  0  0  3  0  0  0  0  0  0
  186.3160  178.7450  139.7560 C   0  0  0  0  0  3  0  0  0  0  0  0
  189.2960  176.6560  143.8700 C   0  0  0  0  0  2  0  0  0  0  0  0
  187.2530  177.3740  137.9910 C   0  0  0  0  0  0  0  0  0  0  0  0
  185.9760  177.2790  137.4300 C   0  0  0  0  0  3  0  0  0  0  0  0
  191.2060  177.8780  139.6050 N   0  0  0  0  0  2  0  0  0  0  0  0
  190.0330  176.8230  141.4870 C   0  0  0  0  0  0  0  0  0  0  0  0
  190.0970  175.9990  142.7450 C   0  0  0  0  0  2  0  0  0  0  0  0
  191.0550  174.1630  137.9680 O   0  0  0  0  0  0  0  0  0  0  0  0
  191.4480  175.0840  137.2010 C   0  0  0  0  0  0  0  0  0  0  0  0
  190.8040  176.3580  137.2090 N   0  0  0  0  0  2  0  0  0  0  0  0
  194.7970  173.3280  137.5770 C   0  0  0  0  0  0  0  0  0  0  0  0
  192.8210  173.3500  136.0470 C   0  0  0  0  0  2  0  0  0  0  0  0
  193.8020  176.6790  137.2270 O   0  0  0  0  0  0  0  0  0  0  0  0
  195.3060  173.0040  138.7180 N   0  0  0  0  0  2  0  0  0  0  0  0
  193.5550  172.7550  137.1610 N   0  0  0  0  0  2  0  0  0  0  0  0
  193.8600  175.5540  136.7580 C   0  0  0  0  0  0  0  0  0  0  0  0
  192.6030  174.8560  136.2740 C   0  0  2  0  0  3  0  0  0  0  0  0
  195.4510  174.7200  136.6600 S   0  0  0  0  0  0  0  0  0  0  0  0
  1  9  1  0  0  0  0
  1 14  1  0  0  0  0
  2  5  1  6  0  0  0
  2  3  1  0  0  0  0
  3 19  2  0  0  0  0
  3  7  1  0  0  0  0
  4 15  1  0  0  0  0
  4 11  1  0  0  0  0
  5 14  2  0  0  0  0
  6  1  2  0  0  0  0
  7  4  2  0  0  0  0
  8 23  1  6  0  0  0
  8 13  1  0  0  0  0
 10 19  1  0  0  0  0
 12 16  1  0  0  0  0
 12  8  1  0  0  0  0
 13 18  1  1  0  0  0
 13  2  1  0  0  0  0
 16  5  1  0  0  0  0
 17 16  2  0  0  0  0
 17  6  1  0  0  0  0
 18 10  1  0  0  0  0
 19 20  1  0  0  0  0
 20 15  1  0  0  0  0
 22 23  1  0  0  0  0
 22 21  2  0  0  0  0
 24 27  2  0  0  0  0
 25 30  1  0  0  0  0
 25 28  1  0  0  0  0
 28 24  1  0  0  0  0
 29 26  2  0  0  0  0
 30 29  1  0  0  0  0
 30 22  1  1  0  0  0
 31 29  1  0  0  0  0
 31 24  1  0  0  0  0
M  END
>  <MODEL>
7

>  <REMARK>
 VINA RESULT:      -8.6      5.380      8.614
  Name = 
  2 active torsions:
  status: ('A' for Active; 'I' for Inactive)
    1  A    between atoms: C_5  and  C_30
    2  A    between atoms: C_10  and  N_16
                            x       y       z     vdW  Elec       q    Type
                         _______ _______ _______ _____ _____    ______ ____

>  <TORSDO>
F 2

$$$$
=
 OpenBabel11122410553D

 31 35  0  0  1  0  0  0  0  0999 V2000
  179.9230  178.9280  143.4790 C   0  0  0  0  0  0  0  0  0  0  0  0
  183.3200  179.2110  141.8020 C   0  0  2  0  0  3  0  0  0  0  0  0
  184.3230  178.6520  142.8000 C   0  0  0  0  0  0  0  0  0  0  0  0
  184.9620  178.5000  145.1690 C   0  0  0  0  0  0  0  0  0  0  0  0
  181.8940  178.7910  142.0840 C   0  0  0  0  0  0  0  0  0  0  0  0
  179.2990  178.0190  142.6840 N   0  0  0  0  0  0  0  0  0  0  0  0
  184.0130  178.6900  144.2500 C   0  0  0  0  0  3  0  0  0  0  0  0
  183.3160  177.5160  139.9070 C   0  0  2  0  0  3  0  0  0  0  0  0
  179.2790  179.4410  144.5540 F   0  0  0  0  0  0  0  0  0  0  0  0
  185.9420  178.2240  140.9570 C   0  0  0  0  0  2  0  0  0  0  0  0
  184.6090  178.5390  146.6120 C   0  0  0  0  0  1  0  0  0  0  0  0
  181.8000  177.3620  139.9760 C   0  0  0  0  0  2  0  0  0  0  0  0
  183.7250  178.9330  140.3410 C   0  0  2  0  0  3  0  0  0  0  0  0
  181.2260  179.3330  143.1890 C   0  0  0  0  0  3  0  0  0  0  0  0
  186.4000  178.3620  144.7580 C   0  0  0  0  0  2  0  0  0  0  0  0
  181.2210  177.8560  141.2680 C   0  0  0  0  0  0  0  0  0  0  0  0
  179.9110  177.4910  141.5920 C   0  0  0  0  0  3  0  0  0  0  0  0
  185.1610  179.1730  140.1600 N   0  0  0  0  0  2  0  0  0  0  0  0
  185.5560  178.2640  142.4070 C   0  0  0  0  0  0  0  0  0  0  0  0
  186.5110  177.6620  143.4030 C   0  0  0  0  0  2  0  0  0  0  0  0
  183.2600  174.9790  138.6050 O   0  0  0  0  0  0  0  0  0  0  0  0
  183.7040  175.9620  137.9510 C   0  0  0  0  0  0  0  0  0  0  0  0
  183.7680  177.2580  138.5470 N   0  0  0  0  0  2  0  0  0  0  0  0
  186.5190  177.5080  135.9200 C   0  0  0  0  0  0  0  0  0  0  0  0
  185.6230  175.2540  136.5220 C   0  0  0  0  0  2  0  0  0  0  0  0
  183.0140  177.7370  135.8390 O   0  0  0  0  0  0  0  0  0  0  0  0
  187.1480  178.5770  136.2760 N   0  0  0  0  0  2  0  0  0  0  0  0
  186.5770  176.3390  136.7400 N   0  0  0  0  0  2  0  0  0  0  0  0
  184.0170  177.0510  135.7260 C   0  0  0  0  0  0  0  0  0  0  0  0
  184.1780  175.7820  136.5410 C   0  0  2  0  0  3  0  0  0  0  0  0
  185.3160  177.5700  134.5950 S   0  0  0  0  0  0  0  0  0  0  0  0
  1  9  1  0  0  0  0
  2  5  1  1  0  0  0
  2  3  1  0  0  0  0
  3  7  1  0  0  0  0
  4 11  1  0  0  0  0
  5 14  2  0  0  0  0
  6  1  2  0  0  0  0
  7  4  2  0  0  0  0
  8 23  1  6  0  0  0
  8 12  1  0  0  0  0
  8 13  1  0  0  0  0
 10 19  1  0  0  0  0
 12 16  1  0  0  0  0
 13 18  1  1  0  0  0
 13  2  1  0  0  0  0
 14  1  1  0  0  0  0
 15  4  1  0  0  0  0
 16 17  2  0  0  0  0
 16  5  1  0  0  0  0
 17  6  1  0  0  0  0
 18 10  1  0  0  0  0
 19  3  2  0  0  0  0
 19 20  1  0  0  0  0
 20 15  1  0  0  0  0
 22 23  1  0  0  0  0
 22 21  2  0  0  0  0
 24 27  2  0  0  0  0
 24 28  1  0  0  0  0
 25 30  1  0  0  0  0
 25 28  1  0  0  0  0
 29 26  2  0  0  0  0
 29 30  1  0  0  0  0
 30 22  1  1  0  0  0
 31 29  1  0  0  0  0
 31 24  1  0  0  0  0
M  END
>  <MODEL>
8

>  <REMARK>
 VINA RESULT:      -8.5      3.648      6.076
  Name = 
  2 active torsions:
  status: ('A' for Active; 'I' for Inactive)
    1  A    between atoms: C_5  and  C_30
    2  A    between atoms: C_10  and  N_16
                            x       y       z     vdW  Elec       q    Type
                         _______ _______ _______ _____ _____    ______ ____

>  <TORSDO>
F 2

$$$$
=
 OpenBabel11122410553D

 31 35  0  0  1  0  0  0  0  0999 V2000
  189.1300  177.6900  143.7430 C   0  0  0  0  0  0  0  0  0  0  0  0
  186.8940  178.9080  140.9220 C   0  0  2  0  0  3  0  0  0  0  0  0
  187.2580  178.0620  139.7110 C   0  0  0  0  0  0  0  0  0  0  0  0
  189.0780  176.9840  138.4570 C   0  0  0  0  0  0  0  0  0  0  0  0
  187.3400  178.3000  142.2350 C   0  0  0  0  0  0  0  0  0  0  0  0
  188.2220  177.1510  144.5980 N   0  0  0  0  0  0  0  0  0  0  0  0
  188.6130  177.4680  139.6120 C   0  0  0  0  0  3  0  0  0  0  0  0
  184.5380  178.1640  141.5160 C   0  0  2  0  0  3  0  0  0  0  0  0
  190.4490  177.6560  144.0460 F   0  0  0  0  0  0  0  0  0  0  0  0
  185.0510  178.5690  138.6760 C   0  0  0  0  0  2  0  0  0  0  0  0
  190.4390  176.3900  138.4020 C   0  0  0  0  0  1  0  0  0  0  0  0
  184.9340  177.8800  142.9620 C   0  0  0  0  0  2  0  0  0  0  0  0
  185.4040  179.2970  140.9430 C   0  0  2  0  0  3  0  0  0  0  0  0
  188.7040  178.2780  142.5510 C   0  0  0  0  0  3  0  0  0  0  0  0
  188.2830  177.1420  137.1940 C   0  0  0  0  0  2  0  0  0  0  0  0
  186.4170  177.7430  143.1450 C   0  0  0  0  0  0  0  0  0  0  0  0
  186.8900  177.1760  144.3310 C   0  0  0  0  0  3  0  0  0  0  0  0
  184.9680  179.7010  139.6020 N   0  0  0  0  0  2  0  0  0  0  0  0
  186.4260  177.9700  138.6500 C   0  0  0  0  0  0  0  0  0  0  0  0
  186.7820  177.0830  137.4870 C   0  0  0  0  0  2  0  0  0  0  0  0
  182.5080  176.7310  140.1150 O   0  0  0  0  0  0  0  0  0  0  0  0
  182.1620  177.7650  140.7490 C   0  0  0  0  0  0  0  0  0  0  0  0
  183.1290  178.5330  141.4650 N   0  0  0  0  0  2  0  0  0  0  0  0
  180.3370  180.7490  139.2640 C   0  0  0  0  0  0  0  0  0  0  0  0
  180.1760  178.2560  139.3210 C   0  0  0  0  0  2  0  0  0  0  0  0
  181.1490  179.7380  142.5300 O   0  0  0  0  0  0  0  0  0  0  0  0
  180.9370  181.8070  138.8330 N   0  0  0  0  0  2  0  0  0  0  0  0
  180.5860  179.4850  138.6460 N   0  0  0  0  0  2  0  0  0  0  0  0
  180.5480  179.5210  141.4890 C   0  0  0  0  0  0  0  0  0  0  0  0
  180.7300  178.2060  140.7550 C   0  0  2  0  0  3  0  0  0  0  0  0
  179.4560  180.7850  140.8230 S   0  0  0  0  0  0  0  0  0  0  0  0
  1  9  1  0  0  0  0
  1  6  1  0  0  0  0
  2  3  1  6  0  0  0
  2 13  1  0  0  0  0
  2  5  1  0  0  0  0
  4  7  2  0  0  0  0
  5 14  1  0  0  0  0
  5 16  2  0  0  0  0
  7  3  1  0  0  0  0
  8 23  1  1  0  0  0
  8 12  1  0  0  0  0
 10 18  1  0  0  0  0
 11  4  1  0  0  0  0
 12 16  1  0  0  0  0
 13 18  1  6  0  0  0
 13  8  1  0  0  0  0
 14  1  2  0  0  0  0
 15 20  1  0  0  0  0
 15  4  1  0  0  0  0
 16 17  1  0  0  0  0
 17  6  2  0  0  0  0
 19 10  1  0  0  0  0
 19  3  2  0  0  0  0
 20 19  1  0  0  0  0
 21 22  2  0  0  0  0
 22 23  1  0  0  0  0
 24 31  1  0  0  0  0
 25 30  1  0  0  0  0
 27 24  2  0  0  0  0
 28 24  1  0  0  0  0
 28 25  1  0  0  0  0
 29 26  2  0  0  0  0
 30 22  1  6  0  0  0
 30 29  1  0  0  0  0
 31 29  1  0  0  0  0
M  END
>  <MODEL>
9

>  <REMARK>
 VINA RESULT:      -8.3      2.381      4.976
  Name = 
  2 active torsions:
  status: ('A' for Active; 'I' for Inactive)
    1  A    between atoms: C_5  and  C_30
    2  A    between atoms: C_10  and  N_16
                            x       y       z     vdW  Elec       q    Type
                         _______ _______ _______ _____ _____    ______ ____

>  <TORSDO>
F 2

$$$$
