=
 OpenBabel11122412093D

 34 40  0  0  1  0  0  0  0  0999 V2000
  182.4950  178.4590  143.8790 C   0  0  2  0  0  3  0  0  0  0  0  0
  184.0790  178.5490  145.8200 C   0  0  0  0  0  2  0  0  0  0  0  0
  181.3640  178.6290  137.1700 C   0  0  0  0  0  0  0  0  0  0  0  0
  181.1330  178.9270  141.8150 C   0  0  0  0  0  0  0  0  0  0  0  0
  182.1040  178.3440  139.5460 C   0  0  1  0  0  3  0  0  0  0  0  0
  182.7140  180.2850  138.2300 O   0  0  0  0  0  1  0  0  0  0  0  0
  181.6550  177.9560  136.1480 O   0  0  0  0  0  0  0  0  0  0  0  0
  179.6190  179.8860  138.4220 C   0  0  0  0  0  2  0  0  0  0  0  0
  184.9360  179.2990  143.6620 C   0  0  2  0  0  3  0  0  0  0  0  0
  187.8150  177.9110  143.0520 C   0  0  0  0  0  2  0  0  0  0  0  0
  183.4040  178.0430  140.3150 C   0  0  0  0  0  2  0  0  0  0  0  0
  179.6930  179.1200  139.7330 C   0  0  0  0  0  2  0  0  0  0  0  0
  184.8500  178.5380  142.3220 C   0  0  1  0  0  3  0  0  0  0  0  0
  185.5440  178.8760  145.9860 C   0  0  0  0  0  2  0  0  0  0  0  0
  181.0950  179.2210  140.3270 C   0  0  1  0  0  3  0  0  0  0  0  0
  180.0480  179.0740  137.3350 O   0  0  0  0  0  0  0  0  0  0  0  0
  186.8590  177.6400  144.2080 C   0  0  2  0  0  3  0  0  0  0  0  0
  182.3470  178.8370  142.4140 C   0  0  0  0  0  0  0  0  0  0  0  0
  182.4420  178.9150  138.1690 C   0  0  2  0  0  3  0  0  0  0  0  0
  183.5850  178.9320  141.5510 C   0  0  2  0  0  3  0  0  0  0  0  0
  180.0320  178.1040  143.9310 C   0  0  0  0  0  2  0  0  0  0  0  0
  187.1290  177.7450  141.7050 C   0  0  0  0  0  2  0  0  0  0  0  0
  179.8530  178.8590  142.6210 C   0  0  0  0  0  2  0  0  0  0  0  0
  186.0820  178.8220  141.4740 C   0  0  0  0  0  2  0  0  0  0  0  0
  186.1230  178.9420  144.5800 C   0  0  1  0  0  3  0  0  0  0  0  0
  181.2140  178.6930  144.6790 C   0  0  0  0  0  2  0  0  0  0  0  0
  183.6640  179.2110  144.5230 C   0  0  1  0  0  3  0  0  0  0  0  0
  187.6030  177.1670  145.2920 O   0  0  0  0  0  0  0  0  0  0  0  0
  188.9090  177.0590  144.8090 C   0  0  0  0  0  2  0  0  0  0  0  0
  191.1290  176.4460  147.4000 C   0  0  0  0  0  2  0  0  0  0  0  0
  191.2520  177.4710  145.3500 N   0  0  0  0  0  2  0  0  0  0  0  0
  189.8800  177.6590  145.8100 C   0  0  2  0  0  3  0  0  0  0  0  0
  191.8170  176.4370  146.1210 N   0  0  0  0  0  2  0  0  0  0  0  0
  189.7440  176.9500  147.1290 C   0  0  0  0  0  2  0  0  0  0  0  0
  1 27  1  0  0  0  0
  1 26  1  1  0  0  0
  2 14  1  0  0  0  0
  3 16  1  0  0  0  0
  3 19  1  0  0  0  0
  4 18  2  0  0  0  0
  4 23  1  0  0  0  0
  5 11  1  1  0  0  0
  5 15  1  0  0  0  0
  7  3  2  0  0  0  0
  8 12  1  0  0  0  0
  9 27  1  0  0  0  0
  9 25  1  0  0  0  0
 10 17  1  0  0  0  0
 11 20  1  0  0  0  0
 12 15  1  0  0  0  0
 13  9  1  0  0  0  0
 15  4  1  0  0  0  0
 16  8  1  0  0  0  0
 17 25  1  0  0  0  0
 17 28  1  0  0  0  0
 18  1  1  0  0  0  0
 19  6  1  0  0  0  0
 19  5  1  0  0  0  0
 20 13  1  0  0  0  0
 20 18  1  0  0  0  0
 21 26  1  0  0  0  0
 22 10  1  0  0  0  0
 23 21  1  0  0  0  0
 24 22  1  0  0  0  0
 24 13  1  0  0  0  0
 25 14  1  0  0  0  0
 27  2  1  0  0  0  0
 29 28  1  0  0  0  0
 29 32  1  0  0  0  0
 31 32  1  0  0  0  0
 31 33  1  0  0  0  0
 32 34  1  0  0  0  0
 33 30  1  0  0  0  0
 34 30  1  0  0  0  0
M  END
>  <MODEL>
1

>  <REMARK>
 VINA RESULT:      -9.4      0.000      0.000
  Name = 
  3 active torsions:
  status: ('A' for Active; 'I' for Inactive)
    1  A    between atoms: C_17  and  O_28
    2  A    between atoms: O_28  and  C_29
    3  A    between atoms: C_29  and  C_32
                            x       y       z     vdW  Elec       q    Type
                         _______ _______ _______ _____ _____    ______ ____

>  <TORSDO>
F 3

$$$$
=
 OpenBabel11122412093D

 34 40  0  0  1  0  0  0  0  0999 V2000
  186.2020  178.3980  142.0530 C   0  0  2  0  0  3  0  0  0  0  0  0
  188.4600  177.6690  142.8630 C   0  0  0  0  0  2  0  0  0  0  0  0
  179.6270  179.6740  143.2570 C   0  0  0  0  0  0  0  0  0  0  0  0
  183.7700  178.5700  141.4310 C   0  0  0  0  0  0  0  0  0  0  0  0
  182.1130  179.3780  143.1720 C   0  0  1  0  0  3  0  0  0  0  0  0
  180.6340  177.6350  143.9780 O   0  0  0  0  0  1  0  0  0  0  0  0
  178.9310  180.4600  143.9490 O   0  0  0  0  0  0  0  0  0  0  0  0
  179.9510  178.5400  141.0650 C   0  0  0  0  0  2  0  0  0  0  0  0
  186.5590  177.1870  144.3150 C   0  0  2  0  0  3  0  0  0  0  0  0
  187.2080  178.1250  147.3640 C   0  0  0  0  0  2  0  0  0  0  0  0
  183.2930  179.2930  144.1580 C   0  0  0  0  0  2  0  0  0  0  0  0
  181.3610  179.0260  140.7710 C   0  0  0  0  0  2  0  0  0  0  0  0
  185.4740  178.1860  144.7730 C   0  0  1  0  0  3  0  0  0  0  0  0
  188.9880  177.0590  144.1400 C   0  0  0  0  0  2  0  0  0  0  0  0
  182.3170  178.5680  141.8680 C   0  0  1  0  0  3  0  0  0  0  0  0
  179.2700  179.4490  141.9230 O   0  0  0  0  0  0  0  0  0  0  0  0
  188.0420  178.3460  146.1070 C   0  0  2  0  0  3  0  0  0  0  0  0
  184.7180  178.3290  142.3700 C   0  0  0  0  0  0  0  0  0  0  0  0
  180.8140  179.0190  143.8930 C   0  0  2  0  0  3  0  0  0  0  0  0
  184.2810  178.1740  143.8100 C   0  0  2  0  0  3  0  0  0  0  0  0
  185.5740  179.1720  139.7720 C   0  0  0  0  0  2  0  0  0  0  0  0
  185.7930  178.6570  147.1980 C   0  0  0  0  0  2  0  0  0  0  0  0
  184.1340  178.7170  139.9680 C   0  0  0  0  0  2  0  0  0  0  0  0
  185.0060  177.8460  146.1810 C   0  0  0  0  0  2  0  0  0  0  0  0
  187.8550  177.1510  145.1520 C   0  0  1  0  0  3  0  0  0  0  0  0
  186.4910  178.2530  140.5590 C   0  0  0  0  0  2  0  0  0  0  0  0
  186.9820  177.3420  142.8450 C   0  0  1  0  0  3  0  0  0  0  0  0
  189.3820  178.4700  146.4850 O   0  0  0  0  0  0  0  0  0  0  0  0
  189.6250  177.3650  147.3050 C   0  0  0  0  0  2  0  0  0  0  0  0
  192.2380  175.2030  146.5910 C   0  0  0  0  0  2  0  0  0  0  0  0
  191.7570  177.3970  146.1200 N   0  0  0  0  0  2  0  0  0  0  0  0
  191.1190  177.1130  147.4010 C   0  0  2  0  0  3  0  0  0  0  0  0
  192.0560  176.1610  145.5150 N   0  0  0  0  0  2  0  0  0  0  0  0
  191.3640  175.6640  147.7180 C   0  0  0  0  0  2  0  0  0  0  0  0
  1 26  1  6  0  0  0
  1 18  1  0  0  0  0
  1 27  1  0  0  0  0
  2 14  1  0  0  0  0
  3 19  1  0  0  0  0
  3  7  2  0  0  0  0
  4 15  1  0  0  0  0
  4 18  2  0  0  0  0
  5 19  1  0  0  0  0
  5 11  1  1  0  0  0
  8 16  1  0  0  0  0
  9 13  1  0  0  0  0
  9 25  1  0  0  0  0
 12  8  1  0  0  0  0
 12 15  1  0  0  0  0
 13 24  1  0  0  0  0
 14 25  1  0  0  0  0
 15  5  1  0  0  0  0
 16  3  1  0  0  0  0
 17 28  1  0  0  0  0
 17 10  1  0  0  0  0
 18 20  1  0  0  0  0
 19  6  1  0  0  0  0
 20 11  1  0  0  0  0
 20 13  1  0  0  0  0
 21 23  1  0  0  0  0
 21 26  1  0  0  0  0
 22 10  1  0  0  0  0
 23  4  1  0  0  0  0
 24 22  1  0  0  0  0
 25 17  1  0  0  0  0
 27  2  1  0  0  0  0
 27  9  1  0  0  0  0
 28 29  1  0  0  0  0
 29 32  1  0  0  0  0
 30 34  1  0  0  0  0
 31 32  1  0  0  0  0
 32 34  1  0  0  0  0
 33 31  1  0  0  0  0
 33 30  1  0  0  0  0
M  END
>  <MODEL>
2

>  <REMARK>
 VINA RESULT:      -9.3      2.146      4.251
  Name = 
  3 active torsions:
  status: ('A' for Active; 'I' for Inactive)
    1  A    between atoms: C_17  and  O_28
    2  A    between atoms: O_28  and  C_29
    3  A    between atoms: C_29  and  C_32
                            x       y       z     vdW  Elec       q    Type
                         _______ _______ _______ _____ _____    ______ ____

>  <TORSDO>
F 3

$$$$
=
 OpenBabel11122412093D

 34 40  0  0  1  0  0  0  0  0999 V2000
  184.3410  178.9000  143.9430 C   0  0  2  0  0  3  0  0  0  0  0  0
  181.9550  179.1760  143.2240 C   0  0  0  0  0  2  0  0  0  0  0  0
  190.8250  177.4620  142.4600 C   0  0  0  0  0  0  0  0  0  0  0  0
  186.6550  178.0530  144.4540 C   0  0  0  0  0  0  0  0  0  0  0  0
  188.4360  178.1900  142.6550 C   0  0  1  0  0  3  0  0  0  0  0  0
  189.0550  176.0330  141.7420 O   0  0  0  0  0  1  0  0  0  0  0  0
  191.7560  177.9260  141.7530 O   0  0  0  0  0  0  0  0  0  0  0  0
  190.1450  176.4700  144.6390 C   0  0  0  0  0  2  0  0  0  0  0  0
  183.4480  178.0260  141.6740 C   0  0  2  0  0  3  0  0  0  0  0  0
  183.1310  179.2640  138.6810 C   0  0  0  0  0  2  0  0  0  0  0  0
  187.2900  178.6280  141.7240 C   0  0  0  0  0  2  0  0  0  0  0  0
  189.0640  177.4720  145.0090 C   0  0  0  0  0  2  0  0  0  0  0  0
  184.8280  178.5190  141.1880 C   0  0  1  0  0  3  0  0  0  0  0  0
  181.1820  178.8810  141.9600 C   0  0  0  0  0  2  0  0  0  0  0  0
  187.9670  177.4810  143.9480 C   0  0  1  0  0  3  0  0  0  0  0  0
  191.1060  177.0600  143.7700 O   0  0  0  0  0  0  0  0  0  0  0  0
  182.5000  179.7530  139.9790 C   0  0  2  0  0  3  0  0  0  0  0  0
  185.6590  178.2510  143.5550 C   0  0  0  0  0  0  0  0  0  0  0  0
  189.4540  177.3660  141.8660 C   0  0  2  0  0  3  0  0  0  0  0  0
  185.9460  177.9890  142.0930 C   0  0  2  0  0  3  0  0  0  0  0  0
  185.3060  179.2660  146.2080 C   0  0  0  0  0  2  0  0  0  0  0  0
  184.6450  179.1730  138.7910 C   0  0  0  0  0  2  0  0  0  0  0  0
  186.4310  178.2770  145.9340 C   0  0  0  0  0  2  0  0  0  0  0  0
  185.0700  178.0750  139.7520 C   0  0  0  0  0  2  0  0  0  0  0  0
  182.2200  178.5480  140.8980 C   0  0  1  0  0  3  0  0  0  0  0  0
  184.0690  178.8260  145.4450 C   0  0  0  0  0  2  0  0  0  0  0  0
  183.1750  178.2810  143.1660 C   0  0  1  0  0  3  0  0  0  0  0  0
  181.3130  180.4210  139.6680 O   0  0  0  0  0  0  0  0  0  0  0  0
  181.6800  181.3760  138.7160 C   0  0  0  0  0  2  0  0  0  0  0  0
  179.0870  183.6460  138.3520 C   0  0  0  0  0  2  0  0  0  0  0  0
  180.8060  182.9020  137.0260 N   0  0  0  0  0  2  0  0  0  0  0  0
  180.4650  181.7870  137.9030 C   0  0  2  0  0  3  0  0  0  0  0  0
  180.2480  184.0660  137.5890 N   0  0  0  0  0  2  0  0  0  0  0  0
  179.3770  182.2550  138.8300 C   0  0  0  0  0  2  0  0  0  0  0  0
  1 26  1  1  0  0  0
  3 16  1  0  0  0  0
  4 23  1  0  0  0  0
  5 11  1  6  0  0  0
  5 15  1  0  0  0  0
  6 19  1  0  0  0  0
  7  3  2  0  0  0  0
  8 12  1  0  0  0  0
  9 27  1  0  0  0  0
 10 22  1  0  0  0  0
 10 17  1  0  0  0  0
 11 20  1  0  0  0  0
 13  9  1  0  0  0  0
 13 20  1  0  0  0  0
 14  2  1  0  0  0  0
 15  4  1  0  0  0  0
 15 12  1  0  0  0  0
 16  8  1  0  0  0  0
 17 25  1  0  0  0  0
 18  1  1  0  0  0  0
 18  4  2  0  0  0  0
 19  3  1  0  0  0  0
 19  5  1  0  0  0  0
 20 18  1  0  0  0  0
 22 24  1  0  0  0  0
 23 21  1  0  0  0  0
 24 13  1  0  0  0  0
 25  9  1  0  0  0  0
 25 14  1  0  0  0  0
 26 21  1  0  0  0  0
 27  2  1  0  0  0  0
 27  1  1  0  0  0  0
 28 17  1  0  0  0  0
 29 28  1  0  0  0  0
 30 34  1  0  0  0  0
 31 33  1  0  0  0  0
 31 32  1  0  0  0  0
 32 29  1  0  0  0  0
 32 34  1  0  0  0  0
 33 30  1  0  0  0  0
M  END
>  <MODEL>
3

>  <REMARK>
 VINA RESULT:      -9.3      4.095      8.799
  Name = 
  3 active torsions:
  status: ('A' for Active; 'I' for Inactive)
    1  A    between atoms: C_17  and  O_28
    2  A    between atoms: O_28  and  C_29
    3  A    between atoms: C_29  and  C_32
                            x       y       z     vdW  Elec       q    Type
                         _______ _______ _______ _____ _____    ______ ____

>  <TORSDO>
F 3

$$$$
=
 OpenBabel11122412093D

 34 40  0  0  1  0  0  0  0  0999 V2000
  190.2800  176.9760  143.7690 C   0  0  2  0  0  3  0  0  0  0  0  0
  192.2090  176.7510  142.1830 C   0  0  0  0  0  2  0  0  0  0  0  0
  183.8000  178.6660  144.9790 C   0  0  0  0  0  0  0  0  0  0  0  0
  188.3720  177.7920  145.1930 C   0  0  0  0  0  0  0  0  0  0  0  0
  186.0460  177.8860  144.1900 C   0  0  1  0  0  3  0  0  0  0  0  0
  185.2540  180.1420  143.7980 O   0  0  0  0  0  1  0  0  0  0  0  0
  182.6490  178.2980  144.6310 O   0  0  0  0  0  0  0  0  0  0  0  0
  185.2940  179.3920  146.8330 C   0  0  0  0  0  2  0  0  0  0  0  0
  190.3140  178.0910  141.4300 C   0  0  2  0  0  3  0  0  0  0  0  0
  189.4270  177.1990  138.4290 C   0  0  0  0  0  2  0  0  0  0  0  0
  186.7380  177.5420  142.8570 C   0  0  0  0  0  2  0  0  0  0  0  0
  186.3780  178.3400  146.6670 C   0  0  0  0  0  2  0  0  0  0  0  0
  188.8270  177.6760  141.4510 C   0  0  1  0  0  3  0  0  0  0  0  0
  192.4730  177.1770  140.7580 C   0  0  0  0  0  2  0  0  0  0  0  0
  187.0010  178.4360  145.2770 C   0  0  1  0  0  3  0  0  0  0  0  0
  184.0480  178.9190  146.3330 O   0  0  0  0  0  0  0  0  0  0  0  0
  190.4670  176.5560  139.3400 C   0  0  2  0  0  3  0  0  0  0  0  0
  188.9510  177.6840  143.9700 C   0  0  0  0  0  0  0  0  0  0  0  0
  184.8550  178.8090  143.9270 C   0  0  2  0  0  3  0  0  0  0  0  0
  188.1560  178.1150  142.7580 C   0  0  2  0  0  3  0  0  0  0  0  0
  190.2060  176.3680  146.1810 C   0  0  0  0  0  2  0  0  0  0  0  0
  188.0700  177.2980  139.1080 C   0  0  0  0  0  2  0  0  0  0  0  0
  189.1170  177.3970  146.4510 C   0  0  0  0  0  2  0  0  0  0  0  0
  188.0940  178.2850  140.2630 C   0  0  0  0  0  2  0  0  0  0  0  0
  191.1350  177.6440  140.2030 C   0  0  1  0  0  3  0  0  0  0  0  0
  191.0940  176.8740  145.0580 C   0  0  0  0  0  2  0  0  0  0  0  0
  191.1070  177.6640  142.6770 C   0  0  1  0  0  3  0  0  0  0  0  0
  191.4140  175.9110  138.5400 O   0  0  0  0  0  0  0  0  0  0  0  0
  191.0110  176.1720  137.2280 C   0  0  0  0  0  2  0  0  0  0  0  0
  194.2540  175.0200  136.8240 C   0  0  0  0  0  2  0  0  0  0  0  0
  192.2530  174.6740  135.7570 N   0  0  0  0  0  2  0  0  0  0  0  0
  192.1940  176.0320  136.2870 C   0  0  2  0  0  3  0  0  0  0  0  0
  193.2960  174.0050  136.4250 N   0  0  0  0  0  2  0  0  0  0  0  0
  193.4690  176.2780  137.0450 C   0  0  0  0  0  2  0  0  0  0  0  0
  1 18  1  0  0  0  0
  1 26  1  1  0  0  0
  2 27  1  0  0  0  0
  3 16  1  0  0  0  0
  4 15  1  0  0  0  0
  4 23  1  0  0  0  0
  5 11  1  6  0  0  0
  5 15  1  0  0  0  0
  6 19  1  0  0  0  0
  7  3  2  0  0  0  0
  9 13  1  0  0  0  0
  9 27  1  0  0  0  0
 10 22  1  0  0  0  0
 10 17  1  0  0  0  0
 12  8  1  0  0  0  0
 13 20  1  0  0  0  0
 14  2  1  0  0  0  0
 15 12  1  0  0  0  0
 16  8  1  0  0  0  0
 17 25  1  0  0  0  0
 18  4  2  0  0  0  0
 19  5  1  0  0  0  0
 19  3  1  0  0  0  0
 20 11  1  0  0  0  0
 20 18  1  0  0  0  0
 21 23  1  0  0  0  0
 22 24  1  0  0  0  0
 24 13  1  0  0  0  0
 25 14  1  0  0  0  0
 25  9  1  0  0  0  0
 26 21  1  0  0  0  0
 27  1  1  0  0  0  0
 28 17  1  0  0  0  0
 29 28  1  0  0  0  0
 30 34  1  0  0  0  0
 31 32  1  0  0  0  0
 31 33  1  0  0  0  0
 32 34  1  0  0  0  0
 32 29  1  0  0  0  0
 33 30  1  0  0  0  0
M  END
>  <MODEL>
4

>  <REMARK>
 VINA RESULT:      -9.1      4.674      8.046
  Name = 
  3 active torsions:
  status: ('A' for Active; 'I' for Inactive)
    1  A    between atoms: C_17  and  O_28
    2  A    between atoms: O_28  and  C_29
    3  A    between atoms: C_29  and  C_32
                            x       y       z     vdW  Elec       q    Type
                         _______ _______ _______ _____ _____    ______ ____

>  <TORSDO>
F 3

$$$$
=
 OpenBabel11122412093D

 34 40  0  0  1  0  0  0  0  0999 V2000
  189.2720  176.9600  141.7230 C   0  0  2  0  0  3  0  0  0  0  0  0
  190.6180  176.8380  139.6110 C   0  0  0  0  0  2  0  0  0  0  0  0
  183.6180  178.8240  145.0190 C   0  0  0  0  0  0  0  0  0  0  0  0
  187.9520  177.6870  143.7380 C   0  0  0  0  0  0  0  0  0  0  0  0
  185.4510  178.0330  143.5050 C   0  0  1  0  0  3  0  0  0  0  0  0
  184.7850  180.3610  143.6160 O   0  0  0  0  0  1  0  0  0  0  0  0
  182.3870  178.5670  144.9990 O   0  0  0  0  0  0  0  0  0  0  0  0
  185.6520  179.2250  146.3960 C   0  0  0  0  0  2  0  0  0  0  0  0
  188.7140  178.3630  139.6170 C   0  0  2  0  0  3  0  0  0  0  0  0
  186.9050  177.9130  136.9500 C   0  0  0  0  0  2  0  0  0  0  0  0
  185.6850  177.8270  141.9970 C   0  0  0  0  0  2  0  0  0  0  0  0
  186.5400  178.1470  145.7970 C   0  0  0  0  0  2  0  0  0  0  0  0
  187.2690  178.0290  140.0450 C   0  0  1  0  0  3  0  0  0  0  0  0
  190.4870  177.4290  138.2280 C   0  0  0  0  0  2  0  0  0  0  0  0
  186.7300  178.3870  144.3030 C   0  0  1  0  0  3  0  0  0  0  0  0
  184.2770  178.8880  146.2510 O   0  0  0  0  0  0  0  0  0  0  0  0
  188.1040  177.1040  137.4280 C   0  0  2  0  0  3  0  0  0  0  0  0
  188.1310  177.7060  142.3930 C   0  0  0  0  0  0  0  0  0  0  0  0
  184.3240  179.0450  143.7170 C   0  0  2  0  0  3  0  0  0  0  0  0
  187.0560  178.3310  141.5330 C   0  0  2  0  0  3  0  0  0  0  0  0
  189.8600  176.0510  143.9640 C   0  0  0  0  0  2  0  0  0  0  0  0
  185.8230  177.9960  138.0160 C   0  0  0  0  0  2  0  0  0  0  0  0
  188.9960  177.0940  144.6600 C   0  0  0  0  0  2  0  0  0  0  0  0
  186.2750  178.8240  139.2080 C   0  0  0  0  0  2  0  0  0  0  0  0
  189.0920  178.0340  138.1580 C   0  0  1  0  0  3  0  0  0  0  0  0
  190.4180  176.6490  142.6860 C   0  0  0  0  0  2  0  0  0  0  0  0
  189.7980  177.7370  140.5110 C   0  0  1  0  0  3  0  0  0  0  0  0
  188.7110  176.5170  136.3150 O   0  0  0  0  0  0  0  0  0  0  0  0
  188.1350  175.2480  136.2210 C   0  0  0  0  0  2  0  0  0  0  0  0
  191.4970  174.4300  136.4100 C   0  0  0  0  0  2  0  0  0  0  0  0
  189.5380  173.4600  137.1070 N   0  0  0  0  0  2  0  0  0  0  0  0
  189.2040  174.2180  135.9060 C   0  0  2  0  0  3  0  0  0  0  0  0
  190.7820  173.9310  137.5710 N   0  0  0  0  0  2  0  0  0  0  0  0
  190.4550  174.9160  135.4490 C   0  0  0  0  0  2  0  0  0  0  0  0
  1 18  1  0  0  0  0
  1 26  1  1  0  0  0
  2 27  1  0  0  0  0
  3 16  1  0  0  0  0
  4 15  1  0  0  0  0
  4 23  1  0  0  0  0
  5 11  1  6  0  0  0
  5 19  1  0  0  0  0
  5 15  1  0  0  0  0
  6 19  1  0  0  0  0
  7  3  2  0  0  0  0
  9 13  1  0  0  0  0
  9 27  1  0  0  0  0
 10 17  1  0  0  0  0
 10 22  1  0  0  0  0
 12  8  1  0  0  0  0
 13 20  1  0  0  0  0
 14  2  1  0  0  0  0
 15 12  1  0  0  0  0
 16  8  1  0  0  0  0
 17 25  1  0  0  0  0
 18  4  2  0  0  0  0
 19  3  1  0  0  0  0
 20 11  1  0  0  0  0
 20 18  1  0  0  0  0
 21 23  1  0  0  0  0
 22 24  1  0  0  0  0
 24 13  1  0  0  0  0
 25 14  1  0  0  0  0
 25  9  1  0  0  0  0
 26 21  1  0  0  0  0
 27  1  1  0  0  0  0
 28 17  1  0  0  0  0
 29 28  1  0  0  0  0
 30 33  1  0  0  0  0
 31 33  1  0  0  0  0
 32 29  1  0  0  0  0
 32 31  1  0  0  0  0
 34 32  1  0  0  0  0
 34 30  1  0  0  0  0
M  END
>  <MODEL>
5

>  <REMARK>
 VINA RESULT:      -9.1      4.331      7.945
  Name = 
  3 active torsions:
  status: ('A' for Active; 'I' for Inactive)
    1  A    between atoms: C_17  and  O_28
    2  A    between atoms: O_28  and  C_29
    3  A    between atoms: C_29  and  C_32
                            x       y       z     vdW  Elec       q    Type
                         _______ _______ _______ _____ _____    ______ ____

>  <TORSDO>
F 3

$$$$
=
 OpenBabel11122412093D

 34 40  0  0  1  0  0  0  0  0999 V2000
  189.5810  176.8890  141.6600 C   0  0  2  0  0  3  0  0  0  0  0  0
  190.2130  177.0050  139.2370 C   0  0  0  0  0  2  0  0  0  0  0  0
  185.2160  178.2750  146.6940 C   0  0  0  0  0  0  0  0  0  0  0  0
  188.9440  177.3840  144.0440 C   0  0  0  0  0  0  0  0  0  0  0  0
  186.4940  177.6820  144.6230 C   0  0  1  0  0  3  0  0  0  0  0  0
  185.9010  179.9690  145.1610 O   0  0  0  0  0  1  0  0  0  0  0  0
  184.0380  177.9860  147.0270 O   0  0  0  0  0  0  0  0  0  0  0  0
  187.5760  178.5990  147.4170 C   0  0  0  0  0  2  0  0  0  0  0  0
  188.4080  178.4700  139.9760 C   0  0  2  0  0  3  0  0  0  0  0  0
  185.8650  178.2260  137.9590 C   0  0  0  0  0  2  0  0  0  0  0  0
  186.2530  177.6270  143.1020 C   0  0  0  0  0  2  0  0  0  0  0  0
  188.2340  177.6070  146.4710 C   0  0  0  0  0  2  0  0  0  0  0  0
  187.1620  178.0570  140.7890 C   0  0  1  0  0  3  0  0  0  0  0  0
  189.6650  177.7210  138.0250 C   0  0  0  0  0  2  0  0  0  0  0  0
  187.9570  177.9940  145.0220 C   0  0  1  0  0  3  0  0  0  0  0  0
  186.2220  178.2390  147.6660 O   0  0  0  0  0  0  0  0  0  0  0  0
  187.1510  177.4080  137.9650 C   0  0  2  0  0  3  0  0  0  0  0  0
  188.7030  177.5360  142.7180 C   0  0  0  0  0  0  0  0  0  0  0  0
  185.4900  178.6380  145.2680 C   0  0  2  0  0  3  0  0  0  0  0  0
  187.4170  178.2100  142.2930 C   0  0  2  0  0  3  0  0  0  0  0  0
  190.8250  175.7870  143.5130 C   0  0  0  0  0  2  0  0  0  0  0  0
  185.1630  178.1770  139.3070 C   0  0  0  0  0  2  0  0  0  0  0  0
  190.2200  176.7350  144.5390 C   0  0  0  0  0  2  0  0  0  0  0  0
  185.9620  178.9000  140.3790 C   0  0  0  0  0  2  0  0  0  0  0  0
  188.3190  178.2920  138.4460 C   0  0  1  0  0  3  0  0  0  0  0  0
  190.9660  176.5200  142.1910 C   0  0  0  0  0  2  0  0  0  0  0  0
  189.7120  177.7920  140.4290 C   0  0  1  0  0  3  0  0  0  0  0  0
  187.3860  176.9470  136.6660 O   0  0  0  0  0  0  0  0  0  0  0  0
  186.7460  175.7060  136.6080 C   0  0  0  0  0  2  0  0  0  0  0  0
  189.9760  174.7350  135.8100 C   0  0  0  0  0  2  0  0  0  0  0  0
  188.1650  173.7310  136.7990 N   0  0  0  0  0  2  0  0  0  0  0  0
  187.6200  174.7100  135.8650 C   0  0  2  0  0  3  0  0  0  0  0  0
  189.5190  174.0580  137.0100 N   0  0  0  0  0  2  0  0  0  0  0  0
  188.7790  175.4320  135.2360 C   0  0  0  0  0  2  0  0  0  0  0  0
  1 26  1  1  0  0  0
  1 18  1  0  0  0  0
  2 27  1  0  0  0  0
  3  7  2  0  0  0  0
  3 16  1  0  0  0  0
  4 23  1  0  0  0  0
  4 15  1  0  0  0  0
  5 11  1  6  0  0  0
  5 15  1  0  0  0  0
  5 19  1  0  0  0  0
  6 19  1  0  0  0  0
  8 16  1  0  0  0  0
  9 27  1  0  0  0  0
  9 13  1  0  0  0  0
 10 17  1  0  0  0  0
 10 22  1  0  0  0  0
 12  8  1  0  0  0  0
 13 20  1  0  0  0  0
 14 25  1  0  0  0  0
 14  2  1  0  0  0  0
 15 12  1  0  0  0  0
 17 25  1  0  0  0  0
 18  4  2  0  0  0  0
 19  3  1  0  0  0  0
 20 18  1  0  0  0  0
 20 11  1  0  0  0  0
 21 23  1  0  0  0  0
 22 24  1  0  0  0  0
 24 13  1  0  0  0  0
 25  9  1  0  0  0  0
 26 21  1  0  0  0  0
 27  1  1  0  0  0  0
 28 17  1  0  0  0  0
 29 28  1  0  0  0  0
 30 33  1  0  0  0  0
 31 33  1  0  0  0  0
 32 29  1  0  0  0  0
 32 31  1  0  0  0  0
 34 30  1  0  0  0  0
 34 32  1  0  0  0  0
M  END
>  <MODEL>
6

>  <REMARK>
 VINA RESULT:      -8.7      4.277      8.629
  Name = 
  3 active torsions:
  status: ('A' for Active; 'I' for Inactive)
    1  A    between atoms: C_17  and  O_28
    2  A    between atoms: O_28  and  C_29
    3  A    between atoms: C_29  and  C_32
                            x       y       z     vdW  Elec       q    Type
                         _______ _______ _______ _____ _____    ______ ____

>  <TORSDO>
F 3

$$$$
=
 OpenBabel11122412093D

 34 40  0  0  1  0  0  0  0  0999 V2000
  187.5870  177.5900  140.1750 C   0  0  2  0  0  3  0  0  0  0  0  0
  185.7220  178.3460  138.6800 C   0  0  0  0  0  2  0  0  0  0  0  0
  190.2050  176.7960  146.4060 C   0  0  0  0  0  0  0  0  0  0  0  0
  189.4580  177.4210  141.8490 C   0  0  0  0  0  0  0  0  0  0  0  0
  188.8930  176.9710  144.2790 C   0  0  1  0  0  3  0  0  0  0  0  0
  189.2650  178.8790  145.7260 O   0  0  0  0  0  1  0  0  0  0  0  0
  189.9510  176.1600  147.4610 O   0  0  0  0  0  0  0  0  0  0  0  0
  191.9310  177.5490  144.7800 C   0  0  0  0  0  2  0  0  0  0  0  0
  185.6700  179.1310  140.9890 C   0  0  2  0  0  3  0  0  0  0  0  0
  182.7140  178.6670  142.2690 C   0  0  0  0  0  2  0  0  0  0  0  0
  187.4270  177.1630  143.8480 C   0  0  0  0  0  2  0  0  0  0  0  0
  191.3160  176.9650  143.5190 C   0  0  0  0  0  2  0  0  0  0  0  0
  185.8060  178.2640  142.2600 C   0  0  1  0  0  3  0  0  0  0  0  0
  184.4460  179.1290  138.8800 C   0  0  0  0  0  2  0  0  0  0  0  0
  189.9270  177.5530  143.2860 C   0  0  1  0  0  3  0  0  0  0  0  0
  191.5200  176.8180  145.9300 O   0  0  0  0  0  0  0  0  0  0  0  0
  183.2400  178.2140  140.9120 C   0  0  2  0  0  3  0  0  0  0  0  0
  188.1790  177.7700  141.5630 C   0  0  0  0  0  0  0  0  0  0  0  0
  189.0820  177.4940  145.7030 C   0  0  2  0  0  3  0  0  0  0  0  0
  187.2700  178.1710  142.7030 C   0  0  2  0  0  3  0  0  0  0  0  0
  189.7200  176.4870  139.5190 C   0  0  0  0  0  2  0  0  0  0  0  0
  183.5950  178.1740  143.4060 C   0  0  0  0  0  2  0  0  0  0  0  0
  190.4280  177.0270  140.7540 C   0  0  0  0  0  2  0  0  0  0  0  0
  184.9600  178.8440  143.3860 C   0  0  0  0  0  2  0  0  0  0  0  0
  184.2550  179.2470  140.3850 C   0  0  1  0  0  3  0  0  0  0  0  0
  188.6570  177.4810  139.0880 C   0  0  0  0  0  2  0  0  0  0  0  0
  186.6130  178.7250  139.8430 C   0  0  1  0  0  3  0  0  0  0  0  0
  182.1570  178.0970  140.0360 O   0  0  0  0  0  0  0  0  0  0  0  0
  181.0400  178.4330  140.8040 C   0  0  0  0  0  2  0  0  0  0  0  0
  179.5120  175.4030  140.1000 C   0  0  0  0  0  2  0  0  0  0  0  0
  178.9770  177.2510  141.3510 N   0  0  0  0  0  2  0  0  0  0  0  0
  179.8080  177.7360  140.2540 C   0  0  2  0  0  3  0  0  0  0  0  0
  179.1600  175.8570  141.4340 N   0  0  0  0  0  2  0  0  0  0  0  0
  180.2270  176.5430  139.4410 C   0  0  0  0  0  2  0  0  0  0  0  0
  1 26  1  6  0  0  0
  1 18  1  0  0  0  0
  2 14  1  0  0  0  0
  2 27  1  0  0  0  0
  3  7  2  0  0  0  0
  4 15  1  0  0  0  0
  5 11  1  6  0  0  0
  5 19  1  0  0  0  0
  8 16  1  0  0  0  0
  9 13  1  0  0  0  0
 10 22  1  0  0  0  0
 12  8  1  0  0  0  0
 13 20  1  0  0  0  0
 13 24  1  0  0  0  0
 14 25  1  0  0  0  0
 15 12  1  0  0  0  0
 15  5  1  0  0  0  0
 16  3  1  0  0  0  0
 17 10  1  0  0  0  0
 18  4  2  0  0  0  0
 18 20  1  0  0  0  0
 19  6  1  0  0  0  0
 19  3  1  0  0  0  0
 20 11  1  0  0  0  0
 21 23  1  0  0  0  0
 23  4  1  0  0  0  0
 24 22  1  0  0  0  0
 25 17  1  0  0  0  0
 25  9  1  0  0  0  0
 26 21  1  0  0  0  0
 27  1  1  0  0  0  0
 27  9  1  0  0  0  0
 28 29  1  0  0  0  0
 28 17  1  0  0  0  0
 30 33  1  0  0  0  0
 31 33  1  0  0  0  0
 32 29  1  0  0  0  0
 32 31  1  0  0  0  0
 34 30  1  0  0  0  0
 34 32  1  0  0  0  0
M  END
>  <MODEL>
7

>  <REMARK>
 VINA RESULT:      -8.4      3.754      9.402
  Name = 
  3 active torsions:
  status: ('A' for Active; 'I' for Inactive)
    1  A    between atoms: C_17  and  O_28
    2  A    between atoms: O_28  and  C_29
    3  A    between atoms: C_29  and  C_32
                            x       y       z     vdW  Elec       q    Type
                         _______ _______ _______ _____ _____    ______ ____

>  <TORSDO>
F 3

$$$$
=
 OpenBabel11122412093D

 34 40  0  0  1  0  0  0  0  0999 V2000
  187.6020  177.6230  140.3890 C   0  0  2  0  0  3  0  0  0  0  0  0
  185.7820  178.4160  138.8580 C   0  0  0  0  0  2  0  0  0  0  0  0
  190.0700  176.7520  146.6710 C   0  0  0  0  0  0  0  0  0  0  0  0
  189.4340  177.4150  142.1020 C   0  0  0  0  0  0  0  0  0  0  0  0
  188.8080  176.9610  144.5170 C   0  0  1  0  0  3  0  0  0  0  0  0
  189.1790  178.8550  145.9820 O   0  0  0  0  0  1  0  0  0  0  0  0
  189.7830  176.1150  147.7170 O   0  0  0  0  0  0  0  0  0  0  0  0
  191.8430  177.4880  145.0870 C   0  0  0  0  0  2  0  0  0  0  0  0
  185.6920  179.1890  141.1700 C   0  0  2  0  0  3  0  0  0  0  0  0
  182.7020  178.7650  142.3820 C   0  0  0  0  0  2  0  0  0  0  0  0
  187.3550  177.1780  144.0540 C   0  0  0  0  0  2  0  0  0  0  0  0
  191.2470  176.9210  143.8100 C   0  0  0  0  0  2  0  0  0  0  0  0
  185.7870  178.3130  142.4380 C   0  0  1  0  0  3  0  0  0  0  0  0
  184.5150  179.2190  139.0350 C   0  0  0  0  0  2  0  0  0  0  0  0
  189.8730  177.5320  143.5500 C   0  0  1  0  0  3  0  0  0  0  0  0
  191.3950  176.7570  146.2240 O   0  0  0  0  0  0  0  0  0  0  0  0
  183.2510  178.3110  141.0340 C   0  0  2  0  0  3  0  0  0  0  0  0
  188.1670  177.7860  141.7900 C   0  0  0  0  0  0  0  0  0  0  0  0
  188.9750  177.4720  145.9480 C   0  0  2  0  0  3  0  0  0  0  0  0
  187.2400  178.1950  142.9130 C   0  0  2  0  0  3  0  0  0  0  0  0
  189.7320  176.4900  139.7730 C   0  0  0  0  0  2  0  0  0  0  0  0
  183.5510  178.2520  143.5350 C   0  0  0  0  0  2  0  0  0  0  0  0
  190.4210  177.0120  141.0270 C   0  0  0  0  0  2  0  0  0  0  0  0
  184.9260  178.9000  143.5490 C   0  0  0  0  0  2  0  0  0  0  0  0
  184.2930  179.3310  140.5360 C   0  0  1  0  0  3  0  0  0  0  0  0
  188.6940  177.5040  139.3250 C   0  0  0  0  0  2  0  0  0  0  0  0
  186.6530  178.7750  140.0430 C   0  0  1  0  0  3  0  0  0  0  0  0
  182.1860  178.2160  140.1350 O   0  0  0  0  0  0  0  0  0  0  0  0
  181.1710  178.9920  140.7000 C   0  0  0  0  0  2  0  0  0  0  0  0
  180.4740  181.7420  138.7090 C   0  0  0  0  0  2  0  0  0  0  0  0
  180.9990  179.5410  138.3290 N   0  0  0  0  0  2  0  0  0  0  0  0
  180.2920  179.5690  139.6050 C   0  0  2  0  0  3  0  0  0  0  0  0
  181.4170  180.8560  138.0490 N   0  0  0  0  0  2  0  0  0  0  0  0
  179.9790  181.0060  139.9180 C   0  0  0  0  0  2  0  0  0  0  0  0
  1 26  1  6  0  0  0
  1 18  1  0  0  0  0
  2 14  1  0  0  0  0
  2 27  1  0  0  0  0
  3  7  2  0  0  0  0
  4 15  1  0  0  0  0
  5 11  1  6  0  0  0
  5 19  1  0  0  0  0
  8 16  1  0  0  0  0
  9 13  1  0  0  0  0
 10 22  1  0  0  0  0
 12  8  1  0  0  0  0
 13 20  1  0  0  0  0
 13 24  1  0  0  0  0
 14 25  1  0  0  0  0
 15 12  1  0  0  0  0
 15  5  1  0  0  0  0
 16  3  1  0  0  0  0
 17 10  1  0  0  0  0
 18  4  2  0  0  0  0
 18 20  1  0  0  0  0
 19  6  1  0  0  0  0
 19  3  1  0  0  0  0
 20 11  1  0  0  0  0
 21 23  1  0  0  0  0
 22 24  1  0  0  0  0
 23  4  1  0  0  0  0
 25 17  1  0  0  0  0
 25  9  1  0  0  0  0
 26 21  1  0  0  0  0
 27  1  1  0  0  0  0
 27  9  1  0  0  0  0
 28 29  1  0  0  0  0
 28 17  1  0  0  0  0
 30 34  1  0  0  0  0
 31 32  1  0  0  0  0
 32 34  1  0  0  0  0
 32 29  1  0  0  0  0
 33 31  1  0  0  0  0
 33 30  1  0  0  0  0
M  END
>  <MODEL>
8

>  <REMARK>
 VINA RESULT:      -8.3      3.667      9.480
  Name = 
  3 active torsions:
  status: ('A' for Active; 'I' for Inactive)
    1  A    between atoms: C_17  and  O_28
    2  A    between atoms: O_28  and  C_29
    3  A    between atoms: C_29  and  C_32
                            x       y       z     vdW  Elec       q    Type
                         _______ _______ _______ _____ _____    ______ ____

>  <TORSDO>
F 3

$$$$
=
 OpenBabel11122412093D

 34 40  0  0  1  0  0  0  0  0999 V2000
  187.9000  177.4900  141.7070 C   0  0  2  0  0  3  0  0  0  0  0  0
  186.7790  178.0290  139.5310 C   0  0  0  0  0  2  0  0  0  0  0  0
  187.8660  177.4410  148.5120 C   0  0  0  0  0  0  0  0  0  0  0  0
  188.9670  177.5530  143.9860 C   0  0  0  0  0  0  0  0  0  0  0  0
  187.4910  177.3520  146.0370 C   0  0  1  0  0  3  0  0  0  0  0  0
  187.3020  179.4140  147.2960 O   0  0  0  0  0  1  0  0  0  0  0  0
  187.2100  176.9160  149.4480 O   0  0  0  0  0  0  0  0  0  0  0  0
  190.1030  178.0640  147.6150 C   0  0  0  0  0  2  0  0  0  0  0  0
  185.8430  179.0560  141.5360 C   0  0  2  0  0  3  0  0  0  0  0  0
  182.6150  178.6510  141.6060 C   0  0  0  0  0  2  0  0  0  0  0  0
  186.3130  177.4560  145.0500 C   0  0  0  0  0  2  0  0  0  0  0  0
  190.0190  177.3310  146.2860 C   0  0  0  0  0  2  0  0  0  0  0  0
  185.4580  178.3340  142.8460 C   0  0  1  0  0  3  0  0  0  0  0  0
  185.5400  178.7940  139.1310 C   0  0  0  0  0  2  0  0  0  0  0  0
  188.8410  177.8520  145.4680 C   0  0  1  0  0  3  0  0  0  0  0  0
  189.2630  177.4490  148.5860 O   0  0  0  0  0  0  0  0  0  0  0  0
  183.6220  178.0700  140.6200 C   0  0  2  0  0  3  0  0  0  0  0  0
  187.9070  177.8340  143.1870 C   0  0  0  0  0  0  0  0  0  0  0  0
  187.1190  178.0290  147.3560 C   0  0  2  0  0  3  0  0  0  0  0  0
  186.6320  178.3300  143.8320 C   0  0  2  0  0  3  0  0  0  0  0  0
  190.1020  176.3820  142.0590 C   0  0  0  0  0  2  0  0  0  0  0  0
  182.9750  178.3070  143.0430 C   0  0  0  0  0  2  0  0  0  0  0  0
  190.2800  177.0710  143.4050 C   0  0  0  0  0  2  0  0  0  0  0  0
  184.2500  179.0080  143.4830 C   0  0  0  0  0  2  0  0  0  0  0  0
  184.7790  179.0680  140.4200 C   0  0  1  0  0  3  0  0  0  0  0  0
  189.3070  177.2950  141.1420 C   0  0  0  0  0  2  0  0  0  0  0  0
  187.1510  178.5560  140.9000 C   0  0  1  0  0  3  0  0  0  0  0  0
  182.9640  177.8300  139.4100 O   0  0  0  0  0  0  0  0  0  0  0  0
  182.6710  176.4640  139.4290 C   0  0  0  0  0  2  0  0  0  0  0  0
  184.2410  176.5690  136.3410 C   0  0  0  0  0  2  0  0  0  0  0  0
  183.8110  174.9420  137.9000 N   0  0  0  0  0  2  0  0  0  0  0  0
  182.7220  175.9060  138.0170 C   0  0  2  0  0  3  0  0  0  0  0  0
  184.8560  175.5700  137.1950 N   0  0  0  0  0  2  0  0  0  0  0  0
  182.9980  177.0210  137.0470 C   0  0  0  0  0  2  0  0  0  0  0  0
  1 26  1  6  0  0  0
  1 18  1  0  0  0  0
  2 27  1  0  0  0  0
  3 16  1  0  0  0  0
  3  7  2  0  0  0  0
  4 15  1  0  0  0  0
  5 11  1  6  0  0  0
  5 19  1  0  0  0  0
  6 19  1  0  0  0  0
  8 16  1  0  0  0  0
  9 13  1  0  0  0  0
 10 22  1  0  0  0  0
 12  8  1  0  0  0  0
 13 24  1  0  0  0  0
 13 20  1  0  0  0  0
 14  2  1  0  0  0  0
 14 25  1  0  0  0  0
 15  5  1  0  0  0  0
 15 12  1  0  0  0  0
 17 10  1  0  0  0  0
 18 20  1  0  0  0  0
 18  4  2  0  0  0  0
 19  3  1  0  0  0  0
 20 11  1  0  0  0  0
 21 23  1  0  0  0  0
 22 24  1  0  0  0  0
 23  4  1  0  0  0  0
 25 17  1  0  0  0  0
 25  9  1  0  0  0  0
 26 21  1  0  0  0  0
 27  9  1  0  0  0  0
 27  1  1  0  0  0  0
 28 29  1  0  0  0  0
 28 17  1  0  0  0  0
 30 34  1  0  0  0  0
 30 33  1  0  0  0  0
 31 32  1  0  0  0  0
 32 29  1  0  0  0  0
 33 31  1  0  0  0  0
 34 32  1  0  0  0  0
M  END
>  <MODEL>
9

>  <REMARK>
 VINA RESULT:      -8.3      3.360      9.119
  Name = 
  3 active torsions:
  status: ('A' for Active; 'I' for Inactive)
    1  A    between atoms: C_17  and  O_28
    2  A    between atoms: O_28  and  C_29
    3  A    between atoms: C_29  and  C_32
                            x       y       z     vdW  Elec       q    Type
                         _______ _______ _______ _____ _____    ______ ____

>  <TORSDO>
F 3

$$$$
