=
 OpenBabel11122411523D

 28 32  0  0  1  0  0  0  0  0999 V2000
  190.4080  177.0800  140.1900 C   0  0  0  0  0  0  0  0  0  0  0  0
  187.6640  178.9680  136.6820 C   0  0  0  0  0  1  0  0  0  0  0  0
  192.0120  173.2600  135.3420 O   0  0  0  0  0  0  0  0  0  0  0  0
  187.9660  178.3370  140.7530 C   0  0  0  0  0  3  0  0  0  0  0  0
  189.8580  173.3530  136.2850 N   0  0  0  0  0  0  0  0  0  0  0  0
  191.7120  176.3780  140.0170 C   0  0  0  0  0  2  0  0  0  0  0  0
  189.0360  177.9120  134.9330 C   0  0  0  0  0  1  0  0  0  0  0  0
  187.9340  177.6660  135.9550 C   0  0  0  0  0  0  0  0  0  0  0  0
  186.3210  175.9200  135.1690 C   0  0  0  0  0  0  0  0  0  0  0  0
  188.3330  176.5590  136.9480 C   0  0  1  0  0  3  0  0  0  0  0  0
  193.9300  177.0790  137.2140 O   0  0  0  0  0  0  0  0  0  0  0  0
  190.1870  175.2060  137.7300 C   0  0  1  0  0  3  0  0  0  0  0  0
  187.0980  174.9110  135.7510 O   0  0  0  0  0  0  0  0  0  0  0  0
  186.7310  177.2670  135.2700 O   0  0  0  0  0  0  0  0  0  0  0  0
  193.1290  176.4540  137.9560 C   0  0  0  0  0  0  0  0  0  0  0  0
  189.4150  177.1530  139.1730 C   0  0  0  0  0  0  0  0  0  0  0  0
  191.1760  173.8250  136.0970 C   0  0  0  0  0  0  0  0  0  0  0  0
  185.2400  175.6320  134.5940 O   0  0  0  0  0  0  0  0  0  0  0  0
  192.7230  175.0610  137.5940 C   0  0  0  0  0  2  0  0  0  0  0  0
  188.2020  177.7960  139.4890 C   0  0  0  0  0  3  0  0  0  0  0  0
  190.1590  177.6260  141.4540 C   0  0  0  0  0  3  0  0  0  0  0  0
  188.9480  178.2530  141.7360 C   0  0  0  0  0  3  0  0  0  0  0  0
  192.5730  177.1020  139.0990 N   0  0  0  0  0  2  0  0  0  0  0  0
  189.1100  174.3020  137.0890 C   0  0  1  0  0  3  0  0  0  0  0  0
  191.4220  175.0990  136.8080 C   0  0  2  0  0  3  0  0  0  0  0  0
  188.3980  175.2720  136.1830 C   0  0  2  0  0  3  0  0  0  0  0  0
  189.2580  172.2530  135.5460 C   0  0  0  0  0  1  0  0  0  0  0  0
  189.6440  176.6490  137.7440 C   0  0  2  0  0  3  0  0  0  0  0  0
  1 21  1  0  0  0  0
  3 17  2  0  0  0  0
  4 22  1  0  0  0  0
  5 24  1  0  0  0  0
  6  1  1  0  0  0  0
  7  8  1  0  0  0  0
  8  2  1  0  0  0  0
  9 14  1  0  0  0  0
  9 13  1  0  0  0  0
 10  8  1  6  0  0  0
 10 28  1  0  0  0  0
 11 15  2  0  0  0  0
 12 28  1  0  0  0  0
 13 26  1  0  0  0  0
 14  8  1  0  0  0  0
 15 23  1  0  0  0  0
 16 20  1  0  0  0  0
 16  1  2  0  0  0  0
 17  5  1  0  0  0  0
 17 25  1  0  0  0  0
 18  9  2  0  0  0  0
 19 15  1  0  0  0  0
 20  4  2  0  0  0  0
 21 22  2  0  0  0  0
 23  6  1  0  0  0  0
 24 12  1  0  0  0  0
 25 19  1  0  0  0  0
 25 12  1  0  0  0  0
 26 10  1  0  0  0  0
 26 24  1  0  0  0  0
 27  5  1  0  0  0  0
 28 16  1  0  0  0  0
M  END
>  <MODEL>
1

>  <REMARK>
 VINA RESULT:      -5.9      0.000      0.000
  Name = 
  0 active torsions:
  status: ('A' for Active; 'I' for Inactive)
                            x       y       z     vdW  Elec       q    Type
                         _______ _______ _______ _____ _____    ______ ____

>  <TORSDO>
F 0

$$$$
=
 OpenBabel11122411523D

 28 32  0  0  1  0  0  0  0  0999 V2000
  186.3190  174.0830  136.2940 C   0  0  0  0  0  0  0  0  0  0  0  0
  190.8020  173.4430  134.5950 C   0  0  0  0  0  1  0  0  0  0  0  0
  189.0560  179.4800  138.3080 O   0  0  0  0  0  0  0  0  0  0  0  0
  187.4160  171.5230  135.9790 C   0  0  0  0  0  3  0  0  0  0  0  0
  189.6580  177.3370  139.0700 N   0  0  0  0  0  0  0  0  0  0  0  0
  185.6320  175.3870  136.5190 C   0  0  0  0  0  2  0  0  0  0  0  0
  191.3020  175.8440  134.7860 C   0  0  0  0  0  1  0  0  0  0  0  0
  191.1830  174.5420  135.5660 C   0  0  0  0  0  0  0  0  0  0  0  0
  192.7720  174.4770  137.4990 C   0  0  0  0  0  0  0  0  0  0  0  0
  190.1390  174.6620  136.6920 C   0  0  1  0  0  3  0  0  0  0  0  0
  186.4600  178.3670  134.5940 O   0  0  0  0  0  0  0  0  0  0  0  0
  188.3520  176.0480  137.5650 C   0  0  1  0  0  3  0  0  0  0  0  0
  191.8170  175.0740  138.3310 O   0  0  0  0  0  0  0  0  0  0  0  0
  192.4600  174.2180  136.1470 O   0  0  0  0  0  0  0  0  0  0  0  0
  186.3670  177.5860  135.5760 C   0  0  0  0  0  0  0  0  0  0  0  0
  187.7340  173.9300  136.3020 C   0  0  0  0  0  0  0  0  0  0  0  0
  188.9930  178.2260  138.1970 C   0  0  0  0  0  0  0  0  0  0  0  0
  193.8900  174.1370  137.9650 O   0  0  0  0  0  0  0  0  0  0  0  0
  186.8800  178.0170  136.9120 C   0  0  0  0  0  2  0  0  0  0  0  0
  188.2510  172.6290  136.1350 C   0  0  0  0  0  3  0  0  0  0  0  0
  185.4920  172.9650  136.1360 C   0  0  0  0  0  3  0  0  0  0  0  0
  186.0350  171.6920  135.9770 C   0  0  0  0  0  3  0  0  0  0  0  0
  185.8270  176.2780  135.3890 N   0  0  0  0  0  2  0  0  0  0  0  0
  189.5090  175.9760  138.5870 C   0  0  1  0  0  3  0  0  0  0  0  0
  188.3040  177.5190  137.0950 C   0  0  2  0  0  3  0  0  0  0  0  0
  190.6760  175.6300  137.7010 C   0  0  2  0  0  3  0  0  0  0  0  0
  190.5910  177.7390  140.1110 C   0  0  0  0  0  1  0  0  0  0  0  0
  188.7030  175.1140  136.3900 C   0  0  2  0  0  3  0  0  0  0  0  0
  1 16  1  0  0  0  0
  1  6  1  0  0  0  0
  2  8  1  0  0  0  0
  4 20  1  0  0  0  0
  5 27  1  0  0  0  0
  7  8  1  0  0  0  0
  8 14  1  0  0  0  0
  9 18  2  0  0  0  0
  9 13  1  0  0  0  0
 10  8  1  6  0  0  0
 10 26  1  0  0  0  0
 11 15  2  0  0  0  0
 12 24  1  0  0  0  0
 14  9  1  0  0  0  0
 15 19  1  0  0  0  0
 16 28  1  0  0  0  0
 17  3  2  0  0  0  0
 17  5  1  0  0  0  0
 19 25  1  0  0  0  0
 20 16  2  0  0  0  0
 21  1  2  0  0  0  0
 22  4  2  0  0  0  0
 22 21  1  0  0  0  0
 23 15  1  0  0  0  0
 23  6  1  0  0  0  0
 24  5  1  0  0  0  0
 25 12  1  0  0  0  0
 25 17  1  0  0  0  0
 26 13  1  0  0  0  0
 26 24  1  0  0  0  0
 28 10  1  0  0  0  0
 28 12  1  0  0  0  0
M  END
>  <MODEL>
2

>  <REMARK>
 VINA RESULT:      -5.7      2.175      6.229
  Name = 
  0 active torsions:
  status: ('A' for Active; 'I' for Inactive)
                            x       y       z     vdW  Elec       q    Type
                         _______ _______ _______ _____ _____    ______ ____

>  <TORSDO>
F 0

$$$$
=
 OpenBabel11122411523D

 28 32  0  0  1  0  0  0  0  0999 V2000
  181.3680  178.5200  135.4030 C   0  0  0  0  0  0  0  0  0  0  0  0
  181.4050  178.8680  140.2270 C   0  0  0  0  0  1  0  0  0  0  0  0
  186.1470  174.5250  136.7710 O   0  0  0  0  0  0  0  0  0  0  0  0
  180.5560  180.8630  136.7100 C   0  0  0  0  0  3  0  0  0  0  0  0
  186.2120  176.8410  137.1790 N   0  0  0  0  0  0  0  0  0  0  0  0
  181.7870  177.3390  134.5940 C   0  0  0  0  0  2  0  0  0  0  0  0
  182.6620  176.7640  140.4470 C   0  0  0  0  0  1  0  0  0  0  0  0
  182.7850  178.2480  140.1270 C   0  0  0  0  0  0  0  0  0  0  0  0
  184.9980  179.1670  140.8480 C   0  0  0  0  0  0  0  0  0  0  0  0
  183.3810  178.4670  138.7230 C   0  0  1  0  0  3  0  0  0  0  0  0
  181.6010  173.9410  135.8920 O   0  0  0  0  0  0  0  0  0  0  0  0
  183.9580  177.3560  136.6470 C   0  0  1  0  0  3  0  0  0  0  0  0
  185.5610  178.8430  139.6070 O   0  0  0  0  0  0  0  0  0  0  0  0
  183.6400  178.8750  141.1000 O   0  0  0  0  0  0  0  0  0  0  0  0
  182.1000  175.0210  135.4820 C   0  0  0  0  0  0  0  0  0  0  0  0
  181.8570  178.7880  136.7120 C   0  0  0  0  0  0  0  0  0  0  0  0
  185.5560  175.6360  136.8430 C   0  0  0  0  0  0  0  0  0  0  0  0
  185.6900  179.7530  141.7210 O   0  0  0  0  0  0  0  0  0  0  0  0
  183.5860  175.1660  135.4080 C   0  0  0  0  0  2  0  0  0  0  0  0
  181.4240  179.9720  137.3420 C   0  0  0  0  0  3  0  0  0  0  0  0
  180.4970  179.4220  134.7800 C   0  0  0  0  0  3  0  0  0  0  0  0
  180.0910  180.5860  135.4280 C   0  0  0  0  0  3  0  0  0  0  0  0
  181.2430  176.1120  135.1470 N   0  0  0  0  0  2  0  0  0  0  0  0
  185.2350  177.9050  137.3220 C   0  0  1  0  0  3  0  0  0  0  0  0
  184.0970  175.8180  136.6830 C   0  0  2  0  0  3  0  0  0  0  0  0
  184.8030  177.9960  138.7620 C   0  0  2  0  0  3  0  0  0  0  0  0
  187.5980  176.9390  137.6090 C   0  0  0  0  0  1  0  0  0  0  0  0
  182.7470  177.8110  137.4880 C   0  0  2  0  0  3  0  0  0  0  0  0
  1 16  1  0  0  0  0
  3 17  2  0  0  0  0
  4 20  1  0  0  0  0
  5 24  1  0  0  0  0
  5 27  1  0  0  0  0
  6 23  1  0  0  0  0
  6  1  1  0  0  0  0
  8  2  1  0  0  0  0
  8  7  1  0  0  0  0
  8 14  1  0  0  0  0
  9 14  1  0  0  0  0
  9 18  2  0  0  0  0
 10 26  1  0  0  0  0
 10  8  1  1  0  0  0
 12 25  1  0  0  0  0
 12 24  1  0  0  0  0
 12 28  1  0  0  0  0
 13  9  1  0  0  0  0
 15 11  2  0  0  0  0
 16 20  2  0  0  0  0
 16 28  1  0  0  0  0
 17  5  1  0  0  0  0
 19 15  1  0  0  0  0
 19 25  1  0  0  0  0
 21  1  2  0  0  0  0
 21 22  1  0  0  0  0
 22  4  2  0  0  0  0
 23 15  1  0  0  0  0
 24 26  1  0  0  0  0
 25 17  1  0  0  0  0
 26 13  1  0  0  0  0
 28 10  1  0  0  0  0
M  END
>  <MODEL>
3

>  <REMARK>
 VINA RESULT:      -5.6      5.199      8.342
  Name = 
  0 active torsions:
  status: ('A' for Active; 'I' for Inactive)
                            x       y       z     vdW  Elec       q    Type
                         _______ _______ _______ _____ _____    ______ ____

>  <TORSDO>
F 0

$$$$
=
 OpenBabel11122411523D

 28 32  0  0  1  0  0  0  0  0999 V2000
  180.7910  175.8940  137.9380 C   0  0  0  0  0  0  0  0  0  0  0  0
  185.1370  178.0170  137.9450 C   0  0  0  0  0  1  0  0  0  0  0  0
  179.6440  180.7700  141.8850 O   0  0  0  0  0  0  0  0  0  0  0  0
  183.1430  174.4220  137.5390 C   0  0  0  0  0  3  0  0  0  0  0  0
  181.1390  179.0160  142.3620 N   0  0  0  0  0  0  0  0  0  0  0  0
  179.4750  176.5620  138.1510 C   0  0  0  0  0  2  0  0  0  0  0  0
  184.1930  180.1240  138.7940 C   0  0  0  0  0  1  0  0  0  0  0  0
  184.6410  178.7240  139.1900 C   0  0  0  0  0  0  0  0  0  0  0  0
  185.5560  178.6720  141.5190 C   0  0  0  0  0  0  0  0  0  0  0  0
  183.4900  177.9350  139.8430 C   0  0  1  0  0  3  0  0  0  0  0  0
  178.9310  180.0680  137.3270 O   0  0  0  0  0  0  0  0  0  0  0  0
  181.1000  177.9370  140.2490 C   0  0  1  0  0  3  0  0  0  0  0  0
  184.2800  178.4200  142.0370 O   0  0  0  0  0  0  0  0  0  0  0  0
  185.7310  178.8200  140.1260 O   0  0  0  0  0  0  0  0  0  0  0  0
  179.0730  179.0290  138.0210 C   0  0  0  0  0  0  0  0  0  0  0  0
  182.0210  176.4020  138.4420 C   0  0  0  0  0  0  0  0  0  0  0  0
  180.2990  179.7630  141.5050 C   0  0  0  0  0  0  0  0  0  0  0  0
  186.5500  178.7260  142.2890 O   0  0  0  0  0  0  0  0  0  0  0  0
  178.9710  179.1170  139.5110 C   0  0  0  0  0  2  0  0  0  0  0  0
  183.1840  175.6390  138.2180 C   0  0  0  0  0  3  0  0  0  0  0  0
  180.7630  174.6710  137.2580 C   0  0  0  0  0  3  0  0  0  0  0  0
  181.9300  173.9380  137.0560 C   0  0  0  0  0  3  0  0  0  0  0  0
  179.3880  177.7920  137.3840 N   0  0  0  0  0  2  0  0  0  0  0  0
  181.8610  178.0210  141.5910 C   0  0  1  0  0  3  0  0  0  0  0  0
  180.3600  179.2850  140.1060 C   0  0  2  0  0  3  0  0  0  0  0  0
  183.1850  178.5920  141.1550 C   0  0  2  0  0  3  0  0  0  0  0  0
  181.4560  179.3790  143.7340 C   0  0  0  0  0  1  0  0  0  0  0  0
  182.1430  177.7690  139.1250 C   0  0  2  0  0  3  0  0  0  0  0  0
  1  6  1  0  0  0  0
  1 16  1  0  0  0  0
  2  8  1  0  0  0  0
  4 20  1  0  0  0  0
  5 27  1  0  0  0  0
  7  8  1  0  0  0  0
  8 14  1  0  0  0  0
  9 13  1  0  0  0  0
  9 18  2  0  0  0  0
 10  8  1  6  0  0  0
 10 26  1  0  0  0  0
 11 15  2  0  0  0  0
 12 24  1  0  0  0  0
 14  9  1  0  0  0  0
 15 19  1  0  0  0  0
 16 28  1  0  0  0  0
 17  3  2  0  0  0  0
 17  5  1  0  0  0  0
 19 25  1  0  0  0  0
 20 16  2  0  0  0  0
 21  1  2  0  0  0  0
 22 21  1  0  0  0  0
 22  4  2  0  0  0  0
 23 15  1  0  0  0  0
 23  6  1  0  0  0  0
 24  5  1  0  0  0  0
 25 12  1  0  0  0  0
 25 17  1  0  0  0  0
 26 24  1  0  0  0  0
 26 13  1  0  0  0  0
 28 10  1  0  0  0  0
 28 12  1  0  0  0  0
M  END
>  <MODEL>
4

>  <REMARK>
 VINA RESULT:      -5.3      6.929     10.258
  Name = 
  0 active torsions:
  status: ('A' for Active; 'I' for Inactive)
                            x       y       z     vdW  Elec       q    Type
                         _______ _______ _______ _____ _____    ______ ____

>  <TORSDO>
F 0

$$$$
=
 OpenBabel11122411523D

 28 32  0  0  1  0  0  0  0  0999 V2000
  179.8450  176.1170  140.5920 C   0  0  0  0  0  0  0  0  0  0  0  0
  182.1110  178.6900  137.1810 C   0  0  0  0  0  1  0  0  0  0  0  0
  183.3560  179.9780  144.2580 O   0  0  0  0  0  0  0  0  0  0  0  0
  180.4090  175.0330  138.0700 C   0  0  0  0  0  3  0  0  0  0  0  0
  184.2600  178.3520  142.8170 N   0  0  0  0  0  0  0  0  0  0  0  0
  179.5020  176.5740  141.9700 C   0  0  0  0  0  2  0  0  0  0  0  0
  182.6690  180.4710  138.7850 C   0  0  0  0  0  1  0  0  0  0  0  0
  183.0590  179.0830  138.2970 C   0  0  0  0  0  0  0  0  0  0  0  0
  185.5230  178.6920  138.5000 C   0  0  0  0  0  0  0  0  0  0  0  0
  183.0080  178.0550  139.4430 C   0  0  1  0  0  3  0  0  0  0  0  0
  178.9390  180.0860  142.7580 O   0  0  0  0  0  0  0  0  0  0  0  0
  182.2590  177.7010  141.7220 C   0  0  1  0  0  3  0  0  0  0  0  0
  185.3580  178.1990  139.8010 O   0  0  0  0  0  0  0  0  0  0  0  0
  184.3970  179.1240  137.7660 O   0  0  0  0  0  0  0  0  0  0  0  0
  179.4920  178.9560  142.7370 C   0  0  0  0  0  0  0  0  0  0  0  0
  180.9160  176.6590  139.8290 C   0  0  0  0  0  0  0  0  0  0  0  0
  183.2070  179.1460  143.3230 C   0  0  0  0  0  0  0  0  0  0  0  0
  186.6650  178.7130  137.9740 O   0  0  0  0  0  0  0  0  0  0  0  0
  180.7640  178.7450  143.4950 C   0  0  0  0  0  2  0  0  0  0  0  0
  181.1680  176.0930  138.5630 C   0  0  0  0  0  3  0  0  0  0  0  0
  179.0900  175.0530  140.0860 C   0  0  0  0  0  3  0  0  0  0  0  0
  179.3670  174.5130  138.8320 C   0  0  0  0  0  3  0  0  0  0  0  0
  178.9320  177.9090  141.9460 N   0  0  0  0  0  2  0  0  0  0  0  0
  183.8000  177.6140  141.6550 C   0  0  1  0  0  3  0  0  0  0  0  0
  181.9490  178.9550  142.5670 C   0  0  2  0  0  3  0  0  0  0  0  0
  184.0960  178.4080  140.4100 C   0  0  2  0  0  3  0  0  0  0  0  0
  185.6560  178.4790  143.2080 C   0  0  0  0  0  1  0  0  0  0  0  0
  181.7340  177.8740  140.2820 C   0  0  2  0  0  3  0  0  0  0  0  0
  1  6  1  0  0  0  0
  2  8  1  0  0  0  0
  4 20  2  0  0  0  0
  4 22  1  0  0  0  0
  5 27  1  0  0  0  0
  5 17  1  0  0  0  0
  8  7  1  0  0  0  0
  9 13  1  0  0  0  0
 10  8  1  6  0  0  0
 10 28  1  0  0  0  0
 10 26  1  0  0  0  0
 12 25  1  0  0  0  0
 13 26  1  0  0  0  0
 14  8  1  0  0  0  0
 14  9  1  0  0  0  0
 15 11  2  0  0  0  0
 15 19  1  0  0  0  0
 16 28  1  0  0  0  0
 16  1  2  0  0  0  0
 17  3  2  0  0  0  0
 18  9  2  0  0  0  0
 20 16  1  0  0  0  0
 21  1  1  0  0  0  0
 22 21  2  0  0  0  0
 23  6  1  0  0  0  0
 23 15  1  0  0  0  0
 24 12  1  0  0  0  0
 24  5  1  0  0  0  0
 25 17  1  0  0  0  0
 25 19  1  0  0  0  0
 26 24  1  0  0  0  0
 28 12  1  0  0  0  0
M  END
>  <MODEL>
5

>  <REMARK>
 VINA RESULT:      -4.6      7.055      9.963
  Name = 
  0 active torsions:
  status: ('A' for Active; 'I' for Inactive)
                            x       y       z     vdW  Elec       q    Type
                         _______ _______ _______ _____ _____    ______ ____

>  <TORSDO>
F 0

$$$$
=
 OpenBabel11122411523D

 28 32  0  0  1  0  0  0  0  0999 V2000
  185.6500  178.2510  139.4960 C   0  0  0  0  0  0  0  0  0  0  0  0
  181.0530  178.6940  138.0590 C   0  0  0  0  0  1  0  0  0  0  0  0
  185.6180  174.1720  134.5940 O   0  0  0  0  0  0  0  0  0  0  0  0
  183.6070  178.9080  141.2990 C   0  0  0  0  0  3  0  0  0  0  0  0
  184.3680  173.8690  136.5640 N   0  0  0  0  0  0  0  0  0  0  0  0
  186.8190  177.8950  138.6400 C   0  0  0  0  0  2  0  0  0  0  0  0
  181.5690  177.7340  135.8520 C   0  0  0  0  0  1  0  0  0  0  0  0
  181.3030  177.3970  137.3130 C   0  0  0  0  0  0  0  0  0  0  0  0
  180.1680  175.1800  137.5560 C   0  0  0  0  0  0  0  0  0  0  0  0
  182.4860  176.6310  137.9320 C   0  0  1  0  0  3  0  0  0  0  0  0
  186.9010  178.6330  135.0740 O   0  0  0  0  0  0  0  0  0  0  0  0
  184.7920  175.9730  137.5770 C   0  0  1  0  0  3  0  0  0  0  0  0
  181.4070  174.5300  137.6230 O   0  0  0  0  0  0  0  0  0  0  0  0
  180.1190  176.5820  137.4050 O   0  0  0  0  0  0  0  0  0  0  0  0
  186.8480  177.9650  136.1390 C   0  0  0  0  0  0  0  0  0  0  0  0
  184.3110  177.8780  139.1920 C   0  0  0  0  0  0  0  0  0  0  0  0
  185.1680  174.6270  135.6790 C   0  0  0  0  0  0  0  0  0  0  0  0
  179.1030  174.5200  137.6710 O   0  0  0  0  0  0  0  0  0  0  0  0
  186.7800  176.4720  136.0700 C   0  0  0  0  0  2  0  0  0  0  0  0
  183.3090  178.2290  140.1180 C   0  0  0  0  0  3  0  0  0  0  0  0
  185.9360  178.9330  140.6840 C   0  0  0  0  0  3  0  0  0  0  0  0
  184.9230  179.2620  141.5810 C   0  0  0  0  0  3  0  0  0  0  0  0
  186.7960  178.6400  137.3950 N   0  0  0  0  0  2  0  0  0  0  0  0
  183.8910  174.7190  137.6400 C   0  0  1  0  0  3  0  0  0  0  0  0
  185.3280  176.0270  136.1290 C   0  0  2  0  0  3  0  0  0  0  0  0
  182.5490  175.2900  137.2670 C   0  0  2  0  0  3  0  0  0  0  0  0
  183.8580  172.5360  136.2850 C   0  0  0  0  0  1  0  0  0  0  0  0
  183.9110  177.2020  137.8760 C   0  0  2  0  0  3  0  0  0  0  0  0
  1 21  1  0  0  0  0
  3 17  2  0  0  0  0
  4 22  1  0  0  0  0
  5 24  1  0  0  0  0
  6  1  1  0  0  0  0
  7  8  1  0  0  0  0
  8 14  1  0  0  0  0
  8  2  1  0  0  0  0
  9 13  1  0  0  0  0
  9 18  2  0  0  0  0
 10  8  1  6  0  0  0
 11 15  2  0  0  0  0
 12 24  1  0  0  0  0
 12 28  1  0  0  0  0
 14  9  1  0  0  0  0
 15 23  1  0  0  0  0
 16  1  2  0  0  0  0
 16 20  1  0  0  0  0
 17 25  1  0  0  0  0
 17  5  1  0  0  0  0
 19 25  1  0  0  0  0
 19 15  1  0  0  0  0
 20  4  2  0  0  0  0
 21 22  2  0  0  0  0
 23  6  1  0  0  0  0
 25 12  1  0  0  0  0
 26 13  1  0  0  0  0
 26 24  1  0  0  0  0
 26 10  1  0  0  0  0
 27  5  1  0  0  0  0
 28 10  1  0  0  0  0
 28 16  1  0  0  0  0
M  END
>  <MODEL>
6

>  <REMARK>
 VINA RESULT:      -4.5      4.286      5.991
  Name = 
  0 active torsions:
  status: ('A' for Active; 'I' for Inactive)
                            x       y       z     vdW  Elec       q    Type
                         _______ _______ _______ _____ _____    ______ ____

>  <TORSDO>
F 0

$$$$
=
 OpenBabel11122411523D

 28 32  0  0  1  0  0  0  0  0999 V2000
  186.0570  177.2510  136.8920 C   0  0  0  0  0  0  0  0  0  0  0  0
  182.8990  173.6120  137.3180 C   0  0  0  0  0  1  0  0  0  0  0  0
  180.9260  180.4580  138.9080 O   0  0  0  0  0  0  0  0  0  0  0  0
  186.2260  174.9660  135.2770 C   0  0  0  0  0  3  0  0  0  0  0  0
  181.0510  179.3440  136.8390 N   0  0  0  0  0  0  0  0  0  0  0  0
  186.0640  178.5180  137.6780 C   0  0  0  0  0  2  0  0  0  0  0  0
  181.4410  174.9450  138.7840 C   0  0  0  0  0  1  0  0  0  0  0  0
  181.8480  174.7040  137.3370 C   0  0  0  0  0  0  0  0  0  0  0  0
  179.9430  175.1060  135.7640 C   0  0  0  0  0  0  0  0  0  0  0  0
  182.3880  175.9930  136.6890 C   0  0  1  0  0  3  0  0  0  0  0  0
  184.6890  178.7120  141.0460 O   0  0  0  0  0  0  0  0  0  0  0  0
  183.1340  178.2530  137.1520 C   0  0  1  0  0  3  0  0  0  0  0  0
  180.2960  176.4560  135.6480 O   0  0  0  0  0  0  0  0  0  0  0  0
  180.7030  174.2510  136.5910 O   0  0  0  0  0  0  0  0  0  0  0  0
  184.8060  178.9000  139.8070 C   0  0  0  0  0  0  0  0  0  0  0  0
  184.8860  176.4740  136.6660 C   0  0  0  0  0  0  0  0  0  0  0  0
  181.5180  179.6580  138.1350 C   0  0  0  0  0  0  0  0  0  0  0  0
  178.9760  174.6480  135.1030 O   0  0  0  0  0  0  0  0  0  0  0  0
  183.8050  179.7530  139.0940 C   0  0  0  0  0  2  0  0  0  0  0  0
  185.0090  175.3290  135.8540 C   0  0  0  0  0  3  0  0  0  0  0  0
  187.2720  176.8760  136.3080 C   0  0  0  0  0  3  0  0  0  0  0  0
  187.3590  175.7400  135.5060 C   0  0  0  0  0  3  0  0  0  0  0  0
  185.8560  178.2530  139.0910 N   0  0  0  0  0  2  0  0  0  0  0  0
  181.8670  178.2880  136.2690 C   0  0  1  0  0  3  0  0  0  0  0  0
  182.7160  178.8720  138.5040 C   0  0  2  0  0  3  0  0  0  0  0  0
  181.2430  176.9520  136.5780 C   0  0  2  0  0  3  0  0  0  0  0  0
  179.7810  179.7880  136.2850 C   0  0  0  0  0  1  0  0  0  0  0  0
  183.5410  176.7760  137.3350 C   0  0  2  0  0  3  0  0  0  0  0  0
  1  6  1  0  0  0  0
  2  8  1  0  0  0  0
  4 22  2  0  0  0  0
  4 20  1  0  0  0  0
  5 17  1  0  0  0  0
  6 23  1  0  0  0  0
  8  7  1  0  0  0  0
  9 14  1  0  0  0  0
 10 28  1  0  0  0  0
 10  8  1  1  0  0  0
 12 28  1  0  0  0  0
 12 25  1  0  0  0  0
 13  9  1  0  0  0  0
 13 26  1  0  0  0  0
 14  8  1  0  0  0  0
 15 11  2  0  0  0  0
 16  1  1  0  0  0  0
 16 28  1  0  0  0  0
 17 25  1  0  0  0  0
 17  3  2  0  0  0  0
 18  9  2  0  0  0  0
 19 15  1  0  0  0  0
 20 16  2  0  0  0  0
 21  1  2  0  0  0  0
 22 21  1  0  0  0  0
 23 15  1  0  0  0  0
 24 26  1  0  0  0  0
 24  5  1  0  0  0  0
 24 12  1  0  0  0  0
 25 19  1  0  0  0  0
 26 10  1  0  0  0  0
 27  5  1  0  0  0  0
M  END
>  <MODEL>
7

>  <REMARK>
 VINA RESULT:      -4.2      5.217      8.183
  Name = 
  0 active torsions:
  status: ('A' for Active; 'I' for Inactive)
                            x       y       z     vdW  Elec       q    Type
                         _______ _______ _______ _____ _____    ______ ____

>  <TORSDO>
F 0

$$$$
=
 OpenBabel11122411523D

 28 32  0  0  1  0  0  0  0  0999 V2000
  187.2670  177.7520  138.8520 C   0  0  0  0  0  0  0  0  0  0  0  0
  187.9380  176.3780  143.4400 C   0  0  0  0  0  1  0  0  0  0  0  0
  193.2720  175.6310  138.5130 O   0  0  0  0  0  0  0  0  0  0  0  0
  185.9210  179.0030  140.9690 C   0  0  0  0  0  3  0  0  0  0  0  0
  192.6080  177.5020  139.7760 N   0  0  0  0  0  0  0  0  0  0  0  0
  187.9310  177.1780  137.6460 C   0  0  0  0  0  2  0  0  0  0  0  0
  189.8540  174.9640  142.8190 C   0  0  0  0  0  1  0  0  0  0  0  0
  189.4120  176.3970  143.0890 C   0  0  0  0  0  0  0  0  0  0  0  0
  191.2640  177.7620  144.0740 C   0  0  0  0  0  0  0  0  0  0  0  0
  189.6710  177.2980  141.8680 C   0  0  1  0  0  3  0  0  0  0  0  0
  189.1190  173.7360  137.5470 O   0  0  0  0  0  0  0  0  0  0  0  0
  190.2590  177.2870  139.5160 C   0  0  1  0  0  3  0  0  0  0  0  0
  191.7020  178.1290  142.7950 O   0  0  0  0  0  0  0  0  0  0  0  0
  190.1440  176.9150  144.2160 O   0  0  0  0  0  0  0  0  0  0  0  0
  189.1490  174.9940  137.5740 C   0  0  0  0  0  0  0  0  0  0  0  0
  187.8340  177.7070  140.1560 C   0  0  0  0  0  0  0  0  0  0  0  0
  192.3580  176.3400  139.0140 C   0  0  0  0  0  0  0  0  0  0  0  0
  191.8430  178.2190  145.0930 O   0  0  0  0  0  0  0  0  0  0  0  0
  190.4670  175.7000  137.5390 C   0  0  0  0  0  2  0  0  0  0  0  0
  187.1280  178.3420  141.1980 C   0  0  0  0  0  3  0  0  0  0  0  0
  186.0550  178.4190  138.6350 C   0  0  0  0  0  3  0  0  0  0  0  0
  185.3840  179.0390  139.6850 C   0  0  0  0  0  3  0  0  0  0  0  0
  187.9310  175.7270  137.6960 N   0  0  0  0  0  2  0  0  0  0  0  0
  191.3620  178.0000  140.3300 C   0  0  1  0  0  3  0  0  0  0  0  0
  190.9170  176.0060  138.9580 C   0  0  2  0  0  3  0  0  0  0  0  0
  191.1550  177.4130  141.7020 C   0  0  2  0  0  3  0  0  0  0  0  0
  193.9270  177.9550  140.1890 C   0  0  0  0  0  1  0  0  0  0  0  0
  189.1140  176.9310  140.4850 C   0  0  2  0  0  3  0  0  0  0  0  0
  1 16  1  0  0  0  0
  3 17  2  0  0  0  0
  4 20  1  0  0  0  0
  5 27  1  0  0  0  0
  5 24  1  0  0  0  0
  6 23  1  0  0  0  0
  6  1  1  0  0  0  0
  7  8  1  0  0  0  0
  8  2  1  0  0  0  0
  8 14  1  0  0  0  0
  9 14  1  0  0  0  0
  9 18  2  0  0  0  0
 10  8  1  1  0  0  0
 11 15  2  0  0  0  0
 12 24  1  0  0  0  0
 12 28  1  0  0  0  0
 13  9  1  0  0  0  0
 15 23  1  0  0  0  0
 16 28  1  0  0  0  0
 16 20  2  0  0  0  0
 17  5  1  0  0  0  0
 19 15  1  0  0  0  0
 19 25  1  0  0  0  0
 21  1  2  0  0  0  0
 21 22  1  0  0  0  0
 22  4  2  0  0  0  0
 24 26  1  0  0  0  0
 25 17  1  0  0  0  0
 25 12  1  0  0  0  0
 26 10  1  0  0  0  0
 26 13  1  0  0  0  0
 28 10  1  0  0  0  0
M  END
>  <MODEL>
8

>  <REMARK>
 VINA RESULT:      -4.2      3.062      6.144
  Name = 
  0 active torsions:
  status: ('A' for Active; 'I' for Inactive)
                            x       y       z     vdW  Elec       q    Type
                         _______ _______ _______ _____ _____    ______ ____

>  <TORSDO>
F 0

$$$$
=
 OpenBabel11122411523D

 28 32  0  0  1  0  0  0  0  0999 V2000
  186.1610  178.2230  139.5970 C   0  0  0  0  0  0  0  0  0  0  0  0
  182.5570  178.0870  136.3740 C   0  0  0  0  0  1  0  0  0  0  0  0
  188.7630  174.4340  135.1770 O   0  0  0  0  0  0  0  0  0  0  0  0
  183.4830  178.4930  140.3790 C   0  0  0  0  0  3  0  0  0  0  0  0
  186.8720  173.8580  136.4530 N   0  0  0  0  0  0  0  0  0  0  0  0
  187.6170  178.0780  139.3090 C   0  0  0  0  0  2  0  0  0  0  0  0
  184.0740  177.3220  134.5940 C   0  0  0  0  0  1  0  0  0  0  0  0
  183.2820  176.8780  135.8160 C   0  0  0  0  0  0  0  0  0  0  0  0
  182.4930  174.5130  135.5930 C   0  0  0  0  0  0  0  0  0  0  0  0
  184.2040  176.2550  136.8800 C   0  0  1  0  0  3  0  0  0  0  0  0
  189.0530  179.0010  136.0910 O   0  0  0  0  0  0  0  0  0  0  0  0
  186.5220  175.9470  137.5240 C   0  0  1  0  0  3  0  0  0  0  0  0
  183.6750  174.0420  136.1770 O   0  0  0  0  0  0  0  0  0  0  0  0
  182.3020  175.9010  135.4170 O   0  0  0  0  0  0  0  0  0  0  0  0
  188.6660  178.2790  137.0460 C   0  0  0  0  0  0  0  0  0  0  0  0
  185.1390  177.6810  138.7690 C   0  0  0  0  0  0  0  0  0  0  0  0
  187.8430  174.7650  135.9710 C   0  0  0  0  0  0  0  0  0  0  0  0
  181.5870  173.7050  135.2640 O   0  0  0  0  0  0  0  0  0  0  0  0
  188.8550  176.7970  136.9740 C   0  0  0  0  0  2  0  0  0  0  0  0
  183.8030  177.8400  139.1900 C   0  0  0  0  0  3  0  0  0  0  0  0
  185.8260  178.8770  140.7890 C   0  0  0  0  0  3  0  0  0  0  0  0
  184.4960  179.0140  141.1790 C   0  0  0  0  0  3  0  0  0  0  0  0
  187.9990  178.8760  138.1580 N   0  0  0  0  0  2  0  0  0  0  0  0
  185.8730  174.5770  137.2230 C   0  0  1  0  0  3  0  0  0  0  0  0
  187.5920  176.1490  136.4290 C   0  0  2  0  0  3  0  0  0  0  0  0
  184.7350  174.9720  136.3180 C   0  0  2  0  0  3  0  0  0  0  0  0
  186.7270  172.4830  136.0040 C   0  0  0  0  0  1  0  0  0  0  0  0
  185.4230  177.0230  137.4140 C   0  0  2  0  0  3  0  0  0  0  0  0
  1 21  1  0  0  0  0
  3 17  2  0  0  0  0
  4 22  1  0  0  0  0
  5 24  1  0  0  0  0
  6  1  1  0  0  0  0
  7  8  1  0  0  0  0
  8  2  1  0  0  0  0
  9 13  1  0  0  0  0
 10  8  1  6  0  0  0
 10 28  1  0  0  0  0
 11 15  2  0  0  0  0
 13 26  1  0  0  0  0
 14  9  1  0  0  0  0
 14  8  1  0  0  0  0
 15 23  1  0  0  0  0
 16 20  1  0  0  0  0
 16  1  2  0  0  0  0
 17 25  1  0  0  0  0
 17  5  1  0  0  0  0
 18  9  2  0  0  0  0
 19 15  1  0  0  0  0
 20  4  2  0  0  0  0
 21 22  2  0  0  0  0
 23  6  1  0  0  0  0
 24 12  1  0  0  0  0
 25 19  1  0  0  0  0
 25 12  1  0  0  0  0
 26 10  1  0  0  0  0
 26 24  1  0  0  0  0
 27  5  1  0  0  0  0
 28 12  1  0  0  0  0
 28 16  1  0  0  0  0
M  END
>  <MODEL>
9

>  <REMARK>
 VINA RESULT:      -4.2      2.974      4.259
  Name = 
  0 active torsions:
  status: ('A' for Active; 'I' for Inactive)
                            x       y       z     vdW  Elec       q    Type
                         _______ _______ _______ _____ _____    ______ ____

>  <TORSDO>
F 0

$$$$
