=
 OpenBabel11122412223D

 34 40  0  0  1  0  0  0  0  0999 V2000
  185.0360  177.7520  138.5700 C   0  0  1  0  0  3  0  0  0  0  0  0
  187.1010  178.0660  139.6710 C   0  0  0  0  0  2  0  0  0  0  0  0
  179.5980  180.7580  137.7750 C   0  0  1  0  0  3  0  0  0  0  0  0
  182.6640  177.7860  137.4890 C   0  0  0  0  0  0  0  0  0  0  0  0
  180.7650  178.8290  138.8530 C   0  0  2  0  0  3  0  0  0  0  0  0
  180.8120  181.0250  139.8450 O   0  0  0  0  0  1  0  0  0  0  0  0
  178.9310  181.8590  138.3180 O   0  0  0  0  0  1  0  0  0  0  0  0
  181.1560  179.8920  135.5710 S   0  0  0  0  0  0  0  0  0  0  0  0
  185.2380  179.0220  140.7180 C   0  0  1  0  0  3  0  0  0  0  0  0
  185.1040  178.6000  143.9110 C   0  0  0  0  0  2  0  0  0  0  0  0
  181.6010  178.4630  139.9950 N   0  0  0  0  0  2  0  0  0  0  0  0
  180.4460  178.3810  136.3170 C   0  0  0  0  0  2  0  0  0  0  0  0
  183.9190  178.2910  141.0590 C   0  0  2  0  0  3  0  0  0  0  0  0
  187.6030  178.6130  140.9830 C   0  0  0  0  0  2  0  0  0  0  0  0
  181.1670  177.9910  137.6170 C   0  0  1  0  0  3  0  0  0  0  0  0
  179.9760  181.0670  136.3280 C   0  0  0  0  0  2  0  0  0  0  0  0
  186.1000  177.9770  142.9440 C   0  0  1  0  0  3  0  0  0  0  0  0
  183.5460  178.0060  138.6670 C   0  0  0  0  0  0  0  0  0  0  0  0
  180.8110  180.3480  138.6190 C   0  0  2  0  0  3  0  0  0  0  0  0
  183.0180  178.2860  139.8600 C   0  0  0  0  0  0  0  0  0  0  0  0
  184.6380  176.9300  136.2380 C   0  0  0  0  0  2  0  0  0  0  0  0
  183.6710  178.2520  143.5400 C   0  0  0  0  0  2  0  0  0  0  0  0
  183.1840  177.2850  136.3600 C   0  0  0  0  0  3  0  0  0  0  0  0
  183.2440  178.9450  142.2580 C   0  0  0  0  0  2  0  0  0  0  0  0
  186.3570  178.9530  141.7740 C   0  0  2  0  0  3  0  0  0  0  0  0
  185.4910  177.8460  137.1090 C   0  0  0  0  0  2  0  0  0  0  0  0
  185.8160  178.6930  139.3940 N   0  0  2  0  0  0  0  0  0  0  0  0
  187.3690  177.6800  143.7330 C   0  0  0  0  0  2  0  0  0  0  0  0
  187.0200  177.3670  145.1770 C   0  0  0  0  0  2  0  0  0  0  0  0
  188.0570  177.5310  148.3960 C   0  0  0  0  0  2  0  0  0  0  0  0
  189.0930  177.4170  146.2700 C   0  0  0  0  0  2  0  0  0  0  0  0
  187.8520  178.1570  146.0700 N   0  0  0  0  0  0  0  0  0  0  0  0
  189.4060  177.4390  147.7450 C   0  0  0  0  0  2  0  0  0  0  0  0
  187.1730  178.1950  147.3610 C   0  0  0  0  0  2  0  0  0  0  0  0
  1 26  1  6  0  0  0
  1 18  1  0  0  0  0
  1 27  1  0  0  0  0
  2 14  1  0  0  0  0
  3  7  1  1  0  0  0
  3 19  1  0  0  0  0
  4 15  1  0  0  0  0
  4 18  1  0  0  0  0
  5 11  1  1  0  0  0
  8 12  1  0  0  0  0
  8 16  1  0  0  0  0
  9 13  1  0  0  0  0
  9 25  1  0  0  0  0
 12 15  1  0  0  0  0
 13 24  1  0  0  0  0
 14 25  1  0  0  0  0
 15  5  1  0  0  0  0
 16  3  1  0  0  0  0
 17 28  1  0  0  0  0
 17 10  1  0  0  0  0
 18 20  2  0  0  0  0
 19  5  1  0  0  0  0
 19  6  1  0  0  0  0
 20 11  1  0  0  0  0
 20 13  1  0  0  0  0
 21 23  1  0  0  0  0
 21 26  1  0  0  0  0
 22 10  1  0  0  0  0
 23  4  2  0  0  0  0
 24 22  1  0  0  0  0
 25 17  1  0  0  0  0
 27  2  1  0  0  0  0
 27  9  1  0  0  0  0
 28 29  1  0  0  0  0
 29 32  1  0  0  0  0
 31 33  1  0  0  0  0
 32 31  1  0  0  0  0
 32 34  1  0  0  0  0
 33 30  1  0  0  0  0
 34 30  1  0  0  0  0
M  END
>  <MODEL>
1

>  <REMARK>
 VINA RESULT:      -8.4      0.000      0.000
  Name = 
  3 active torsions:
  status: ('A' for Active; 'I' for Inactive)
    1  A    between atoms: C_17  and  C_28
    2  A    between atoms: C_28  and  C_29
    3  A    between atoms: C_29  and  N_32
                            x       y       z     vdW  Elec       q    Type
                         _______ _______ _______ _____ _____    ______ ____

>  <TORSDO>
F 3

$$$$
=
 OpenBabel11122412223D

 34 40  0  0  1  0  0  0  0  0999 V2000
  186.4450  178.4260  141.3240 C   0  0  1  0  0  3  0  0  0  0  0  0
  186.5030  178.0820  143.6590 C   0  0  0  0  0  2  0  0  0  0  0  0
  188.0740  175.4380  136.0640 C   0  0  1  0  0  3  0  0  0  0  0  0
  186.5310  178.4200  138.7180 C   0  0  0  0  0  0  0  0  0  0  0  0
  188.5700  177.3370  137.6120 C   0  0  2  0  0  3  0  0  0  0  0  0
  189.3800  175.1140  138.0690 O   0  0  0  0  0  1  0  0  0  0  0  0
  188.8280  174.3210  135.6950 O   0  0  0  0  0  1  0  0  0  0  0  0
  185.4310  176.3680  136.4900 S   0  0  0  0  0  0  0  0  0  0  0  0
  188.2450  177.0950  142.4450 C   0  0  1  0  0  3  0  0  0  0  0  0
  191.1740  177.4260  143.7500 C   0  0  0  0  0  2  0  0  0  0  0  0
  189.2300  177.6710  138.8720 N   0  0  0  0  0  2  0  0  0  0  0  0
  186.4530  177.8570  136.2030 C   0  0  0  0  0  2  0  0  0  0  0  0
  189.1560  177.8150  141.4240 C   0  0  2  0  0  3  0  0  0  0  0  0
  187.4400  177.4980  144.6850 C   0  0  0  0  0  2  0  0  0  0  0  0
  187.3070  178.2100  137.4320 C   0  0  1  0  0  3  0  0  0  0  0  0
  186.6030  175.1710  135.7560 C   0  0  0  0  0  2  0  0  0  0  0  0
  189.8810  178.0770  144.2190 C   0  0  1  0  0  3  0  0  0  0  0  0
  187.1870  178.1680  140.0300 C   0  0  0  0  0  0  0  0  0  0  0  0
  188.3010  175.8250  137.5310 C   0  0  2  0  0  3  0  0  0  0  0  0
  188.4830  177.8540  140.0840 C   0  0  0  0  0  0  0  0  0  0  0  0
  184.5550  179.3130  139.9400 C   0  0  0  0  0  2  0  0  0  0  0  0
  191.4870  177.7830  142.3060 C   0  0  0  0  0  2  0  0  0  0  0  0
  185.3010  178.9530  138.6880 C   0  0  0  0  0  3  0  0  0  0  0  0
  190.5120  177.1260  141.3450 C   0  0  0  0  0  2  0  0  0  0  0  0
  188.6940  177.1350  143.9180 C   0  0  2  0  0  3  0  0  0  0  0  0
  184.9320  178.3730  141.0800 C   0  0  0  0  0  2  0  0  0  0  0  0
  186.8100  177.4620  142.3780 N   0  0  2  0  0  0  0  0  0  0  0  0
  190.0310  178.3530  145.7100 C   0  0  0  0  0  2  0  0  0  0  0  0
  190.6320  177.1430  146.4030 C   0  0  0  0  0  2  0  0  0  0  0  0
  188.3010  178.4920  148.4560 C   0  0  0  0  0  2  0  0  0  0  0  0
  188.7740  176.3420  147.5860 C   0  0  0  0  0  2  0  0  0  0  0  0
  190.0650  177.0040  147.7340 N   0  0  0  0  0  0  0  0  0  0  0  0
  187.7760  177.0860  148.4370 C   0  0  0  0  0  2  0  0  0  0  0  0
  189.7910  178.3520  148.2230 C   0  0  0  0  0  2  0  0  0  0  0  0
  1 26  1  6  0  0  0
  1 27  1  0  0  0  0
  2 14  1  0  0  0  0
  3  7  1  1  0  0  0
  3 19  1  0  0  0  0
  4 18  1  0  0  0  0
  5 11  1  1  0  0  0
  9 25  1  0  0  0  0
 10 17  1  0  0  0  0
 11 20  1  0  0  0  0
 12  8  1  0  0  0  0
 12 15  1  0  0  0  0
 13  9  1  0  0  0  0
 15  5  1  0  0  0  0
 15  4  1  0  0  0  0
 16  3  1  0  0  0  0
 16  8  1  0  0  0  0
 17 28  1  0  0  0  0
 18 20  2  0  0  0  0
 18  1  1  0  0  0  0
 19  5  1  0  0  0  0
 19  6  1  0  0  0  0
 20 13  1  0  0  0  0
 21 26  1  0  0  0  0
 22 10  1  0  0  0  0
 23  4  2  0  0  0  0
 23 21  1  0  0  0  0
 24 13  1  0  0  0  0
 24 22  1  0  0  0  0
 25 17  1  0  0  0  0
 25 14  1  0  0  0  0
 27  9  1  0  0  0  0
 27  2  1  0  0  0  0
 28 29  1  0  0  0  0
 29 32  1  0  0  0  0
 31 32  1  0  0  0  0
 31 33  1  0  0  0  0
 32 34  1  0  0  0  0
 33 30  1  0  0  0  0
 34 30  1  0  0  0  0
M  END
>  <MODEL>
2

>  <REMARK>
 VINA RESULT:      -8.2      4.070      5.959
  Name = 
  3 active torsions:
  status: ('A' for Active; 'I' for Inactive)
    1  A    between atoms: C_17  and  C_28
    2  A    between atoms: C_28  and  C_29
    3  A    between atoms: C_29  and  N_32
                            x       y       z     vdW  Elec       q    Type
                         _______ _______ _______ _____ _____    ______ ____

>  <TORSDO>
F 3

$$$$
=
 OpenBabel11122412223D

 34 40  0  0  1  0  0  0  0  0999 V2000
  185.1370  177.6910  138.6060 C   0  0  1  0  0  3  0  0  0  0  0  0
  187.2170  178.0850  139.6530 C   0  0  0  0  0  2  0  0  0  0  0  0
  179.6130  180.5430  137.8420 C   0  0  1  0  0  3  0  0  0  0  0  0
  182.7440  177.6370  137.5740 C   0  0  0  0  0  0  0  0  0  0  0  0
  180.8480  178.6730  138.9490 C   0  0  2  0  0  3  0  0  0  0  0  0
  180.8620  180.8970  139.8780 O   0  0  0  0  0  1  0  0  0  0  0  0
  178.9310  181.6430  138.3670 O   0  0  0  0  0  1  0  0  0  0  0  0
  181.1460  179.6510  135.6310 S   0  0  0  0  0  0  0  0  0  0  0  0
  185.3520  179.0260  140.7130 C   0  0  1  0  0  3  0  0  0  0  0  0
  185.2940  178.6920  143.9180 C   0  0  0  0  0  2  0  0  0  0  0  0
  181.7160  178.3600  140.0830 N   0  0  0  0  0  2  0  0  0  0  0  0
  180.4880  178.1460  136.4330 C   0  0  0  0  0  2  0  0  0  0  0  0
  184.0590  178.2740  141.1020 C   0  0  2  0  0  3  0  0  0  0  0  0
  187.7310  178.6810  140.9380 C   0  0  0  0  0  2  0  0  0  0  0  0
  181.2450  177.8100  137.7290 C   0  0  1  0  0  3  0  0  0  0  0  0
  179.9530  180.8190  136.3800 C   0  0  0  0  0  2  0  0  0  0  0  0
  186.2860  178.0660  142.9480 C   0  0  1  0  0  3  0  0  0  0  0  0
  183.6440  177.9120  138.7270 C   0  0  0  0  0  0  0  0  0  0  0  0
  180.8520  180.1860  138.6710 C   0  0  2  0  0  3  0  0  0  0  0  0
  183.1340  178.2130  139.9220 C   0  0  0  0  0  0  0  0  0  0  0  0
  184.7120  176.7930  136.3070 C   0  0  0  0  0  2  0  0  0  0  0  0
  183.8630  178.3000  143.5870 C   0  0  0  0  0  2  0  0  0  0  0  0
  183.2530  177.1170  136.4490 C   0  0  0  0  0  3  0  0  0  0  0  0
  183.3930  178.9460  142.2960 C   0  0  0  0  0  2  0  0  0  0  0  0
  186.4950  179.0140  141.7460 C   0  0  2  0  0  3  0  0  0  0  0  0
  185.5600  177.7540  137.1330 C   0  0  0  0  0  2  0  0  0  0  0  0
  185.9110  178.6740  139.3860 N   0  0  2  0  0  0  0  0  0  0  0  0
  187.5770  177.8210  143.7180 C   0  0  0  0  0  2  0  0  0  0  0  0
  188.1130  176.4360  143.4060 C   0  0  0  0  0  2  0  0  0  0  0  0
  191.0890  177.4550  142.1530 C   0  0  0  0  0  2  0  0  0  0  0  0
  189.9260  177.6910  144.2010 C   0  0  0  0  0  2  0  0  0  0  0  0
  189.5410  176.3870  143.6730 N   0  0  0  0  0  0  0  0  0  0  0  0
  191.1890  178.1160  143.4970 C   0  0  0  0  0  2  0  0  0  0  0  0
  190.2100  176.2430  142.3830 C   0  0  0  0  0  2  0  0  0  0  0  0
  1 26  1  6  0  0  0
  1 18  1  0  0  0  0
  1 27  1  0  0  0  0
  2 14  1  0  0  0  0
  3  7  1  1  0  0  0
  3 19  1  0  0  0  0
  4 15  1  0  0  0  0
  4 18  1  0  0  0  0
  5 11  1  1  0  0  0
  8 16  1  0  0  0  0
  8 12  1  0  0  0  0
  9 13  1  0  0  0  0
  9 25  1  0  0  0  0
 12 15  1  0  0  0  0
 13 24  1  0  0  0  0
 14 25  1  0  0  0  0
 15  5  1  0  0  0  0
 16  3  1  0  0  0  0
 17 28  1  0  0  0  0
 17 10  1  0  0  0  0
 18 20  2  0  0  0  0
 19  5  1  0  0  0  0
 19  6  1  0  0  0  0
 20 11  1  0  0  0  0
 20 13  1  0  0  0  0
 21 23  1  0  0  0  0
 21 26  1  0  0  0  0
 22 10  1  0  0  0  0
 23  4  2  0  0  0  0
 24 22  1  0  0  0  0
 25 17  1  0  0  0  0
 27  2  1  0  0  0  0
 27  9  1  0  0  0  0
 29 32  1  0  0  0  0
 29 28  1  0  0  0  0
 30 34  1  0  0  0  0
 30 33  1  0  0  0  0
 32 31  1  0  0  0  0
 33 31  1  0  0  0  0
 34 32  1  0  0  0  0
M  END
>  <MODEL>
3

>  <REMARK>
 VINA RESULT:      -8.1      1.414      1.960
  Name = 
  3 active torsions:
  status: ('A' for Active; 'I' for Inactive)
    1  A    between atoms: C_17  and  C_28
    2  A    between atoms: C_28  and  C_29
    3  A    between atoms: C_29  and  N_32
                            x       y       z     vdW  Elec       q    Type
                         _______ _______ _______ _____ _____    ______ ____

>  <TORSDO>
F 3

$$$$
=
 OpenBabel11122412223D

 34 40  0  0  1  0  0  0  0  0999 V2000
  187.7300  178.2500  139.3020 C   0  0  1  0  0  3  0  0  0  0  0  0
  186.9730  178.2780  141.5380 C   0  0  0  0  0  2  0  0  0  0  0  0
  190.6660  174.3740  135.3530 C   0  0  1  0  0  3  0  0  0  0  0  0
  188.6730  177.8280  136.9090 C   0  0  0  0  0  0  0  0  0  0  0  0
  190.8300  176.4600  136.7200 C   0  0  2  0  0  3  0  0  0  0  0  0
  191.1890  174.2920  137.7090 O   0  0  0  0  0  1  0  0  0  0  0  0
  191.3700  173.1690  135.4120 O   0  0  0  0  0  1  0  0  0  0  0  0
  188.1520  175.5200  134.7200 S   0  0  0  0  0  0  0  0  0  0  0  0
  188.8970  177.0060  141.1340 C   0  0  1  0  0  3  0  0  0  0  0  0
  191.2450  177.3590  143.3140 C   0  0  0  0  0  2  0  0  0  0  0  0
  191.0680  176.9480  138.0770 N   0  0  0  0  0  2  0  0  0  0  0  0
  189.3710  176.8790  134.6150 C   0  0  0  0  0  2  0  0  0  0  0  0
  190.1690  177.4980  140.4060 C   0  0  2  0  0  3  0  0  0  0  0  0
  187.4450  177.8070  142.8900 C   0  0  0  0  0  2  0  0  0  0  0  0
  189.8030  177.3700  136.0060 C   0  0  1  0  0  3  0  0  0  0  0  0
  189.3610  174.1520  134.5940 C   0  0  0  0  0  2  0  0  0  0  0  0
  189.9510  178.1540  143.2220 C   0  0  1  0  0  3  0  0  0  0  0  0
  188.8260  177.7460  138.3870 C   0  0  0  0  0  0  0  0  0  0  0  0
  190.4360  174.9740  136.7450 C   0  0  2  0  0  3  0  0  0  0  0  0
  189.9870  177.3650  138.9230 C   0  0  0  0  0  0  0  0  0  0  0  0
  186.5170  179.0220  137.2510 C   0  0  0  0  0  2  0  0  0  0  0  0
  192.0570  177.4630  142.0330 C   0  0  0  0  0  2  0  0  0  0  0  0
  187.5910  178.4240  136.3890 C   0  0  0  0  0  3  0  0  0  0  0  0
  191.3890  176.7240  140.8880 C   0  0  0  0  0  2  0  0  0  0  0  0
  188.8340  177.2510  142.6540 C   0  0  2  0  0  3  0  0  0  0  0  0
  186.3880  178.2530  138.5610 C   0  0  0  0  0  2  0  0  0  0  0  0
  187.6160  177.4450  140.5310 N   0  0  2  0  0  0  0  0  0  0  0  0
  189.6280  178.6530  144.6250 C   0  0  0  0  0  2  0  0  0  0  0  0
  190.2840  177.7540  145.6590 C   0  0  0  0  0  2  0  0  0  0  0  0
  188.5830  178.2530  148.5440 C   0  0  0  0  0  2  0  0  0  0  0  0
  188.0250  177.8780  146.2740 C   0  0  0  0  0  2  0  0  0  0  0  0
  189.2680  177.1490  146.5040 N   0  0  0  0  0  0  0  0  0  0  0  0
  187.4050  178.1620  147.6170 C   0  0  0  0  0  2  0  0  0  0  0  0
  189.6560  177.4090  147.8870 C   0  0  0  0  0  2  0  0  0  0  0  0
  1 26  1  6  0  0  0
  1 27  1  0  0  0  0
  2 14  1  0  0  0  0
  3  7  1  1  0  0  0
  3 19  1  0  0  0  0
  4 18  1  0  0  0  0
  5 19  1  0  0  0  0
  5 11  1  1  0  0  0
  9 25  1  0  0  0  0
 11 20  1  0  0  0  0
 12  8  1  0  0  0  0
 12 15  1  0  0  0  0
 13 24  1  0  0  0  0
 13  9  1  0  0  0  0
 15  5  1  0  0  0  0
 15  4  1  0  0  0  0
 16  8  1  0  0  0  0
 16  3  1  0  0  0  0
 17 10  1  0  0  0  0
 17 28  1  0  0  0  0
 18 20  2  0  0  0  0
 18  1  1  0  0  0  0
 19  6  1  0  0  0  0
 20 13  1  0  0  0  0
 21 26  1  0  0  0  0
 22 10  1  0  0  0  0
 23  4  2  0  0  0  0
 23 21  1  0  0  0  0
 24 22  1  0  0  0  0
 25 14  1  0  0  0  0
 25 17  1  0  0  0  0
 27  9  1  0  0  0  0
 27  2  1  0  0  0  0
 28 29  1  0  0  0  0
 29 32  1  0  0  0  0
 31 32  1  0  0  0  0
 31 33  1  0  0  0  0
 32 34  1  0  0  0  0
 33 30  1  0  0  0  0
 34 30  1  0  0  0  0
M  END
>  <MODEL>
4

>  <REMARK>
 VINA RESULT:      -7.9      4.968      7.155
  Name = 
  3 active torsions:
  status: ('A' for Active; 'I' for Inactive)
    1  A    between atoms: C_17  and  C_28
    2  A    between atoms: C_28  and  C_29
    3  A    between atoms: C_29  and  N_32
                            x       y       z     vdW  Elec       q    Type
                         _______ _______ _______ _____ _____    ______ ____

>  <TORSDO>
F 3

$$$$
=
 OpenBabel11122412223D

 34 40  0  0  1  0  0  0  0  0999 V2000
  184.4410  178.6940  143.5560 C   0  0  1  0  0  3  0  0  0  0  0  0
  186.1630  178.0760  145.0490 C   0  0  0  0  0  2  0  0  0  0  0  0
  181.8220  176.6410  138.2480 C   0  0  1  0  0  3  0  0  0  0  0  0
  182.6280  179.0240  141.7110 C   0  0  0  0  0  0  0  0  0  0  0  0
  183.2620  178.3850  139.3130 C   0  0  2  0  0  3  0  0  0  0  0  0
  184.1740  176.2580  138.6390 O   0  0  0  0  0  1  0  0  0  0  0  0
  182.0920  175.6960  137.2550 O   0  0  0  0  0  1  0  0  0  0  0  0
  180.2820  177.1290  140.5770 S   0  0  0  0  0  0  0  0  0  0  0  0
  186.5110  177.5030  142.8050 C   0  0  1  0  0  3  0  0  0  0  0  0
  189.4820  178.0790  141.6960 C   0  0  0  0  0  2  0  0  0  0  0  0
  184.6230  178.6490  139.7740 N   0  0  0  0  0  2  0  0  0  0  0  0
  180.7720  178.7700  139.9390 C   0  0  0  0  0  2  0  0  0  0  0  0
  186.4040  178.4640  141.5990 C   0  0  2  0  0  3  0  0  0  0  0  0
  187.5570  177.5080  144.9810 C   0  0  0  0  0  2  0  0  0  0  0  0
  182.2460  179.0860  140.2450 C   0  0  1  0  0  3  0  0  0  0  0  0
  180.5800  176.2090  139.0230 C   0  0  0  0  0  2  0  0  0  0  0  0
  188.9140  178.4780  143.0510 C   0  0  1  0  0  3  0  0  0  0  0  0
  184.0300  178.7060  142.0980 C   0  0  0  0  0  0  0  0  0  0  0  0
  183.0300  176.8720  139.1640 C   0  0  2  0  0  3  0  0  0  0  0  0
  184.9720  178.5740  141.1630 C   0  0  0  0  0  0  0  0  0  0  0  0
  182.1240  179.4710  144.1070 C   0  0  0  0  0  2  0  0  0  0  0  0
  188.6590  178.6530  140.5540 C   0  0  0  0  0  2  0  0  0  0  0  0
  181.7470  179.3780  142.6560 C   0  0  0  0  0  3  0  0  0  0  0  0
  187.2970  177.9890  140.4610 C   0  0  0  0  0  2  0  0  0  0  0  0
  187.8810  177.4230  143.5040 C   0  0  2  0  0  3  0  0  0  0  0  0
  183.2140  178.4590  144.4450 C   0  0  0  0  0  2  0  0  0  0  0  0
  185.4610  177.6690  143.8390 N   0  0  2  0  0  0  0  0  0  0  0  0
  190.0870  178.5860  144.0170 C   0  0  0  0  0  2  0  0  0  0  0  0
  190.8430  177.2700  144.0630 C   0  0  0  0  0  2  0  0  0  0  0  0
  190.7600  176.4360  147.3440 C   0  0  0  0  0  2  0  0  0  0  0  0
  192.0550  175.8280  145.4570 C   0  0  0  0  0  2  0  0  0  0  0  0
  191.6810  177.2220  145.2500 N   0  0  0  0  0  0  0  0  0  0  0  0
  191.8680  175.5150  146.9200 C   0  0  0  0  0  2  0  0  0  0  0  0
  190.8380  177.6020  146.3800 C   0  0  0  0  0  2  0  0  0  0  0  0
  1 27  1  0  0  0  0
  1 26  1  1  0  0  0
  3  7  1  6  0  0  0
  3 16  1  0  0  0  0
  3 19  1  0  0  0  0
  4 18  1  0  0  0  0
  4 23  2  0  0  0  0
  5 11  1  1  0  0  0
  5 15  1  0  0  0  0
  6 19  1  0  0  0  0
  9 25  1  0  0  0  0
  9 27  1  0  0  0  0
 10 17  1  0  0  0  0
 11 20  1  0  0  0  0
 12 15  1  0  0  0  0
 12  8  1  0  0  0  0
 13  9  1  0  0  0  0
 14  2  1  0  0  0  0
 15  4  1  0  0  0  0
 16  8  1  0  0  0  0
 17 25  1  0  0  0  0
 17 28  1  0  0  0  0
 18  1  1  0  0  0  0
 19  5  1  0  0  0  0
 20 13  1  0  0  0  0
 20 18  2  0  0  0  0
 21 26  1  0  0  0  0
 22 10  1  0  0  0  0
 23 21  1  0  0  0  0
 24 22  1  0  0  0  0
 24 13  1  0  0  0  0
 25 14  1  0  0  0  0
 27  2  1  0  0  0  0
 28 29  1  0  0  0  0
 29 32  1  0  0  0  0
 31 33  1  0  0  0  0
 32 31  1  0  0  0  0
 32 34  1  0  0  0  0
 33 30  1  0  0  0  0
 34 30  1  0  0  0  0
M  END
>  <MODEL>
5

>  <REMARK>
 VINA RESULT:      -7.6      2.705      4.651
  Name = 
  3 active torsions:
  status: ('A' for Active; 'I' for Inactive)
    1  A    between atoms: C_17  and  C_28
    2  A    between atoms: C_28  and  C_29
    3  A    between atoms: C_29  and  N_32
                            x       y       z     vdW  Elec       q    Type
                         _______ _______ _______ _____ _____    ______ ____

>  <TORSDO>
F 3

$$$$
=
 OpenBabel11122412223D

 34 40  0  0  1  0  0  0  0  0999 V2000
  184.9880  177.8770  139.2180 C   0  0  1  0  0  3  0  0  0  0  0  0
  187.2840  178.3510  139.5080 C   0  0  0  0  0  2  0  0  0  0  0  0
  179.4290  180.1570  140.9900 C   0  0  1  0  0  3  0  0  0  0  0  0
  182.3900  177.6990  139.1140 C   0  0  0  0  0  0  0  0  0  0  0  0
  181.0850  178.3000  141.2350 C   0  0  2  0  0  3  0  0  0  0  0  0
  181.3230  180.3530  142.4750 O   0  0  0  0  0  1  0  0  0  0  0  0
  178.9330  181.0830  141.9100 O   0  0  0  0  0  1  0  0  0  0  0  0
  180.0800  179.7770  138.2570 S   0  0  0  0  0  0  0  0  0  0  0  0
  185.8970  178.9080  141.3110 C   0  0  1  0  0  3  0  0  0  0  0  0
  187.0480  178.1080  144.2130 C   0  0  0  0  0  2  0  0  0  0  0  0
  182.3270  177.9280  141.9100 N   0  0  0  0  0  2  0  0  0  0  0  0
  179.8480  178.1060  138.9610 C   0  0  0  0  0  2  0  0  0  0  0  0
  184.8810  177.9640  141.9950 C   0  0  2  0  0  3  0  0  0  0  0  0
  188.2050  178.8090  140.6090 C   0  0  0  0  0  2  0  0  0  0  0  0
  181.0480  177.6750  139.8210 C   0  0  1  0  0  3  0  0  0  0  0  0
  179.1880  180.6800  139.5760 C   0  0  0  0  0  2  0  0  0  0  0  0
  187.6410  177.7470  142.8590 C   0  0  1  0  0  3  0  0  0  0  0  0
  183.6370  177.9050  139.8990 C   0  0  0  0  0  0  0  0  0  0  0  0
  180.9050  179.8280  141.2460 C   0  0  2  0  0  3  0  0  0  0  0  0
  183.5900  177.9690  141.2320 C   0  0  0  0  0  0  0  0  0  0  0  0
  183.7910  177.2800  137.1010 C   0  0  0  0  0  2  0  0  0  0  0  0
  185.6190  177.6070  144.3490 C   0  0  0  0  0  2  0  0  0  0  0  0
  182.4730  177.4100  137.8080 C   0  0  0  0  0  3  0  0  0  0  0  0
  184.6710  178.3750  143.4460 C   0  0  0  0  0  2  0  0  0  0  0  0
  187.3390  178.8770  141.8490 C   0  0  2  0  0  3  0  0  0  0  0  0
  184.8310  178.2020  137.7280 C   0  0  0  0  0  2  0  0  0  0  0  0
  185.9430  178.8180  139.8310 N   0  0  2  0  0  0  0  0  0  0  0  0
  189.1370  177.5430  143.0620 C   0  0  0  0  0  2  0  0  0  0  0  0
  189.3810  176.6710  144.2810 C   0  0  0  0  0  2  0  0  0  0  0  0
  190.7440  176.4790  147.3740 C   0  0  0  0  0  2  0  0  0  0  0  0
  191.5270  176.3010  145.1470 C   0  0  0  0  0  2  0  0  0  0  0  0
  190.4250  177.2550  145.1060 N   0  0  0  0  0  0  0  0  0  0  0  0
  191.9840  176.1900  146.5800 C   0  0  0  0  0  2  0  0  0  0  0  0
  189.8940  177.3420  146.4630 C   0  0  0  0  0  2  0  0  0  0  0  0
  1 26  1  6  0  0  0
  1 27  1  0  0  0  0
  1 18  1  0  0  0  0
  2 27  1  0  0  0  0
  2 14  1  0  0  0  0
  3 19  1  0  0  0  0
  3  7  1  1  0  0  0
  4 15  1  0  0  0  0
  4 18  1  0  0  0  0
  5 19  1  0  0  0  0
  5 11  1  6  0  0  0
  8 12  1  0  0  0  0
  8 16  1  0  0  0  0
  9 25  1  0  0  0  0
  9 13  1  0  0  0  0
 10 22  1  0  0  0  0
 12 15  1  0  0  0  0
 13 24  1  0  0  0  0
 14 25  1  0  0  0  0
 15  5  1  0  0  0  0
 16  3  1  0  0  0  0
 17 28  1  0  0  0  0
 17 10  1  0  0  0  0
 18 20  2  0  0  0  0
 19  6  1  0  0  0  0
 20 11  1  0  0  0  0
 20 13  1  0  0  0  0
 21 26  1  0  0  0  0
 21 23  1  0  0  0  0
 23  4  2  0  0  0  0
 24 22  1  0  0  0  0
 25 17  1  0  0  0  0
 27  9  1  0  0  0  0
 28 29  1  0  0  0  0
 29 32  1  0  0  0  0
 31 33  1  0  0  0  0
 32 31  1  0  0  0  0
 32 34  1  0  0  0  0
 33 30  1  0  0  0  0
 34 30  1  0  0  0  0
M  END
>  <MODEL>
6

>  <REMARK>
 VINA RESULT:      -7.3      1.771      2.228
  Name = 
  3 active torsions:
  status: ('A' for Active; 'I' for Inactive)
    1  A    between atoms: C_17  and  C_28
    2  A    between atoms: C_28  and  C_29
    3  A    between atoms: C_29  and  N_32
                            x       y       z     vdW  Elec       q    Type
                         _______ _______ _______ _____ _____    ______ ____

>  <TORSDO>
F 3

$$$$
=
 OpenBabel11122412223D

 34 40  0  0  1  0  0  0  0  0999 V2000
  186.2900  177.5190  137.7170 C   0  0  1  0  0  3  0  0  0  0  0  0
  184.7270  176.7300  136.1310 C   0  0  0  0  0  2  0  0  0  0  0  0
  187.0240  177.7210  143.9340 C   0  0  1  0  0  3  0  0  0  0  0  0
  187.7670  178.2160  139.7480 C   0  0  0  0  0  0  0  0  0  0  0  0
  186.5590  179.0290  141.8550 C   0  0  2  0  0  3  0  0  0  0  0  0
  184.8020  177.8350  142.9950 O   0  0  0  0  0  1  0  0  0  0  0  0
  186.2550  177.4950  145.0790 O   0  0  0  0  0  1  0  0  0  0  0  0
  188.9870  176.5770  142.2400 S   0  0  0  0  0  0  0  0  0  0  0  0
  183.8290  177.4460  138.1720 C   0  0  1  0  0  3  0  0  0  0  0  0
  181.1720  179.2550  137.9320 C   0  0  0  0  0  2  0  0  0  0  0  0
  185.4980  179.3840  140.9150 N   0  0  0  0  0  2  0  0  0  0  0  0
  189.0700  178.3830  141.9670 C   0  0  0  0  0  2  0  0  0  0  0  0
  184.1020  178.8070  138.8520 C   0  0  2  0  0  3  0  0  0  0  0  0
  183.2310  176.6610  135.9690 C   0  0  0  0  0  2  0  0  0  0  0  0
  187.9020  178.8850  141.1030 C   0  0  1  0  0  3  0  0  0  0  0  0
  188.1110  176.6530  143.8450 C   0  0  0  0  0  2  0  0  0  0  0  0
  182.0600  178.7720  136.7940 C   0  0  1  0  0  3  0  0  0  0  0  0
  186.4330  178.1340  139.0930 C   0  0  0  0  0  0  0  0  0  0  0  0
  186.1630  177.7840  142.6670 C   0  0  2  0  0  3  0  0  0  0  0  0
  185.3750  178.7320  139.6430 C   0  0  0  0  0  0  0  0  0  0  0  0
  188.7820  177.2800  137.6780 C   0  0  0  0  0  2  0  0  0  0  0  0
  181.9570  180.0730  138.9450 C   0  0  0  0  0  2  0  0  0  0  0  0
  188.8560  177.8130  139.0800 C   0  0  0  0  0  3  0  0  0  0  0  0
  182.9250  179.2070  139.7310 C   0  0  0  0  0  2  0  0  0  0  0  0
  182.6660  177.4000  137.1640 C   0  0  2  0  0  3  0  0  0  0  0  0
  187.4570  176.5630  137.4450 C   0  0  0  0  0  2  0  0  0  0  0  0
  185.0130  176.7990  137.5580 N   0  0  2  0  0  0  0  0  0  0  0  0
  181.1910  178.6990  135.5450 C   0  0  0  0  0  2  0  0  0  0  0  0
  179.7910  179.1970  135.8570 C   0  0  0  0  0  2  0  0  0  0  0  0
  179.9580  182.5730  136.0520 C   0  0  0  0  0  2  0  0  0  0  0  0
  180.7890  180.9020  134.5950 C   0  0  0  0  0  2  0  0  0  0  0  0
  179.5120  180.4000  135.0900 N   0  0  0  0  0  0  0  0  0  0  0  0
  180.8220  182.3890  134.8380 C   0  0  0  0  0  2  0  0  0  0  0  0
  179.0060  181.3950  136.0300 C   0  0  0  0  0  2  0  0  0  0  0  0
  1 26  1  1  0  0  0
  1 18  1  0  0  0  0
  2 27  1  0  0  0  0
  3  7  1  1  0  0  0
  4 15  1  0  0  0  0
  5 11  1  6  0  0  0
  5 19  1  0  0  0  0
  8 16  1  0  0  0  0
  9 13  1  0  0  0  0
 10 22  1  0  0  0  0
 12  8  1  0  0  0  0
 13 20  1  0  0  0  0
 13 24  1  0  0  0  0
 14  2  1  0  0  0  0
 14 25  1  0  0  0  0
 15  5  1  0  0  0  0
 15 12  1  0  0  0  0
 16  3  1  0  0  0  0
 17 25  1  0  0  0  0
 17 10  1  0  0  0  0
 18 20  2  0  0  0  0
 18  4  1  0  0  0  0
 19  6  1  0  0  0  0
 19  3  1  0  0  0  0
 20 11  1  0  0  0  0
 21 23  1  0  0  0  0
 22 24  1  0  0  0  0
 23  4  2  0  0  0  0
 25  9  1  0  0  0  0
 26 21  1  0  0  0  0
 27  1  1  0  0  0  0
 27  9  1  0  0  0  0
 28 29  1  0  0  0  0
 28 17  1  0  0  0  0
 31 33  1  0  0  0  0
 31 32  1  0  0  0  0
 32 29  1  0  0  0  0
 32 34  1  0  0  0  0
 33 30  1  0  0  0  0
 34 30  1  0  0  0  0
M  END
>  <MODEL>
7

>  <REMARK>
 VINA RESULT:      -7.3      3.330      8.658
  Name = 
  3 active torsions:
  status: ('A' for Active; 'I' for Inactive)
    1  A    between atoms: C_17  and  C_28
    2  A    between atoms: C_28  and  C_29
    3  A    between atoms: C_29  and  N_32
                            x       y       z     vdW  Elec       q    Type
                         _______ _______ _______ _____ _____    ______ ____

>  <TORSDO>
F 3

$$$$
=
 OpenBabel11122412223D

 34 40  0  0  1  0  0  0  0  0999 V2000
  187.4850  178.2300  139.3880 C   0  0  1  0  0  3  0  0  0  0  0  0
  187.4050  178.5000  141.7330 C   0  0  0  0  0  2  0  0  0  0  0  0
  189.0910  173.8720  135.1850 C   0  0  1  0  0  3  0  0  0  0  0  0
  187.6920  177.5440  136.8820 C   0  0  0  0  0  0  0  0  0  0  0  0
  189.6790  176.0660  136.2280 C   0  0  2  0  0  3  0  0  0  0  0  0
  190.2690  173.9850  137.2900 O   0  0  0  0  0  1  0  0  0  0  0  0
  189.7610  172.6470  135.1640 O   0  0  0  0  0  1  0  0  0  0  0  0
  186.5220  175.0700  135.1810 S   0  0  0  0  0  0  0  0  0  0  0  0
  189.1090  177.1090  140.9300 C   0  0  1  0  0  3  0  0  0  0  0  0
  191.9910  177.5540  142.3020 C   0  0  0  0  0  2  0  0  0  0  0  0
  190.3050  176.6670  137.4040 N   0  0  0  0  0  2  0  0  0  0  0  0
  187.6820  176.3550  134.5940 C   0  0  0  0  0  2  0  0  0  0  0  0
  190.1250  177.4710  139.8230 C   0  0  2  0  0  3  0  0  0  0  0  0
  188.2380  178.1360  142.9340 C   0  0  0  0  0  2  0  0  0  0  0  0
  188.5050  176.9520  135.7470 C   0  0  1  0  0  3  0  0  0  0  0  0
  187.6190  173.6410  134.8560 C   0  0  0  0  0  2  0  0  0  0  0  0
  190.7390  178.3960  142.5030 C   0  0  1  0  0  3  0  0  0  0  0  0
  188.2620  177.5930  138.2560 C   0  0  0  0  0  0  0  0  0  0  0  0
  189.2820  174.6080  136.5160 C   0  0  2  0  0  3  0  0  0  0  0  0
  189.5210  177.2100  138.4750 C   0  0  0  0  0  0  0  0  0  0  0  0
  185.7470  178.8630  137.7000 C   0  0  0  0  0  2  0  0  0  0  0  0
  192.4010  177.5010  140.8400 C   0  0  0  0  0  2  0  0  0  0  0  0
  186.5160  178.1380  136.6340 C   0  0  0  0  0  3  0  0  0  0  0  0
  191.4180  176.6900  140.0140 C   0  0  0  0  0  2  0  0  0  0  0  0
  189.4900  177.4960  142.3710 C   0  0  2  0  0  3  0  0  0  0  0  0
  185.9870  178.2250  139.0650 C   0  0  0  0  0  2  0  0  0  0  0  0
  187.7160  177.5480  140.6750 N   0  0  2  0  0  0  0  0  0  0  0  0
  190.8430  179.0370  143.8810 C   0  0  0  0  0  2  0  0  0  0  0  0
  191.6730  178.1590  144.8000 C   0  0  0  0  0  2  0  0  0  0  0  0
  191.1170  176.4230  147.6530 C   0  0  0  0  0  2  0  0  0  0  0  0
  189.8170  177.7240  146.1620 C   0  0  0  0  0  2  0  0  0  0  0  0
  190.8480  177.0950  145.3450 N   0  0  0  0  0  0  0  0  0  0  0  0
  189.7290  176.9600  147.4590 C   0  0  0  0  0  2  0  0  0  0  0  0
  191.6930  176.3260  146.2550 C   0  0  0  0  0  2  0  0  0  0  0  0
  1 26  1  6  0  0  0
  1 27  1  0  0  0  0
  2 14  1  0  0  0  0
  3  7  1  1  0  0  0
  3 19  1  0  0  0  0
  4 18  1  0  0  0  0
  5 19  1  0  0  0  0
  5 11  1  1  0  0  0
  9 25  1  0  0  0  0
 10 17  1  0  0  0  0
 11 20  1  0  0  0  0
 12  8  1  0  0  0  0
 12 15  1  0  0  0  0
 13 24  1  0  0  0  0
 13  9  1  0  0  0  0
 15  5  1  0  0  0  0
 15  4  1  0  0  0  0
 16  8  1  0  0  0  0
 16  3  1  0  0  0  0
 17 28  1  0  0  0  0
 18 20  2  0  0  0  0
 18  1  1  0  0  0  0
 19  6  1  0  0  0  0
 20 13  1  0  0  0  0
 21 26  1  0  0  0  0
 22 10  1  0  0  0  0
 23  4  2  0  0  0  0
 23 21  1  0  0  0  0
 24 22  1  0  0  0  0
 25 17  1  0  0  0  0
 25 14  1  0  0  0  0
 27  9  1  0  0  0  0
 27  2  1  0  0  0  0
 28 29  1  0  0  0  0
 29 32  1  0  0  0  0
 31 33  1  0  0  0  0
 32 31  1  0  0  0  0
 32 34  1  0  0  0  0
 33 30  1  0  0  0  0
 34 30  1  0  0  0  0
M  END
>  <MODEL>
8

>  <REMARK>
 VINA RESULT:      -7.3      4.734      6.872
  Name = 
  3 active torsions:
  status: ('A' for Active; 'I' for Inactive)
    1  A    between atoms: C_17  and  C_28
    2  A    between atoms: C_28  and  C_29
    3  A    between atoms: C_29  and  N_32
                            x       y       z     vdW  Elec       q    Type
                         _______ _______ _______ _____ _____    ______ ____

>  <TORSDO>
F 3

$$$$
=
 OpenBabel11122412223D

 34 40  0  0  1  0  0  0  0  0999 V2000
  185.9590  178.3790  142.6110 C   0  0  1  0  0  3  0  0  0  0  0  0
  187.0990  177.5920  144.5240 C   0  0  0  0  0  2  0  0  0  0  0  0
  184.9210  176.6460  136.6810 C   0  0  1  0  0  3  0  0  0  0  0  0
  184.8190  178.8920  140.3240 C   0  0  0  0  0  0  0  0  0  0  0  0
  186.0980  178.2440  138.2010 C   0  0  2  0  0  3  0  0  0  0  0  0
  187.0100  176.0610  137.7430 O   0  0  0  0  0  1  0  0  0  0  0  0
  185.4070  175.7000  135.7760 O   0  0  0  0  0  1  0  0  0  0  0  0
  182.7900  177.2210  138.4600 S   0  0  0  0  0  0  0  0  0  0  0  0
  188.0640  177.0310  142.4660 C   0  0  1  0  0  3  0  0  0  0  0  0
  191.2660  177.3750  142.3240 C   0  0  0  0  0  2  0  0  0  0  0  0
  187.2720  178.3850  139.0600 N   0  0  0  0  0  2  0  0  0  0  0  0
  183.5720  178.8270  138.0680 C   0  0  0  0  0  2  0  0  0  0  0  0
  188.3990  178.0190  141.3250 C   0  0  2  0  0  3  0  0  0  0  0  0
  188.4010  176.9100  144.8540 C   0  0  0  0  0  2  0  0  0  0  0  0
  184.9030  179.0120  138.8140 C   0  0  1  0  0  3  0  0  0  0  0  0
  183.4740  176.3070  137.0290 C   0  0  0  0  0  2  0  0  0  0  0  0
  190.3470  177.7970  143.4620 C   0  0  1  0  0  3  0  0  0  0  0  0
  186.0100  178.4510  141.1000 C   0  0  0  0  0  0  0  0  0  0  0  0
  185.8090  176.7590  137.9260 C   0  0  2  0  0  3  0  0  0  0  0  0
  187.1780  178.2560  140.4850 C   0  0  0  0  0  0  0  0  0  0  0  0
  183.6500  179.3380  142.4750 C   0  0  0  0  0  2  0  0  0  0  0  0
  190.8720  178.0360  141.0130 C   0  0  0  0  0  2  0  0  0  0  0  0
  183.7220  179.3020  140.9760 C   0  0  0  0  0  3  0  0  0  0  0  0
  189.5560  177.4910  140.4880 C   0  0  0  0  0  2  0  0  0  0  0  0
  189.1490  176.8240  143.5400 C   0  0  2  0  0  3  0  0  0  0  0  0
  184.5080  178.2320  143.0810 C   0  0  0  0  0  2  0  0  0  0  0  0
  186.7670  177.2660  143.1440 N   0  0  2  0  0  0  0  0  0  0  0  0
  191.1780  177.7880  144.7390 C   0  0  0  0  0  2  0  0  0  0  0  0
  191.7070  176.3900  145.0030 C   0  0  0  0  0  2  0  0  0  0  0  0
  192.8560  176.0000  148.1650 C   0  0  0  0  0  2  0  0  0  0  0  0
  191.0580  177.1390  147.1270 C   0  0  0  0  0  2  0  0  0  0  0  0
  191.2900  175.9450  146.3220 N   0  0  0  0  0  0  0  0  0  0  0  0
  191.7110  176.9220  148.4690 C   0  0  0  0  0  2  0  0  0  0  0  0
  192.4300  175.2530  146.9170 C   0  0  0  0  0  2  0  0  0  0  0  0
  1 26  1  6  0  0  0
  1 27  1  0  0  0  0
  2 14  1  0  0  0  0
  3  7  1  6  0  0  0
  3 16  1  0  0  0  0
  3 19  1  0  0  0  0
  4 23  2  0  0  0  0
  4 18  1  0  0  0  0
  5 15  1  0  0  0  0
  5 11  1  1  0  0  0
  6 19  1  0  0  0  0
  9 27  1  0  0  0  0
  9 25  1  0  0  0  0
 10 17  1  0  0  0  0
 11 20  1  0  0  0  0
 12  8  1  0  0  0  0
 12 15  1  0  0  0  0
 13  9  1  0  0  0  0
 15  4  1  0  0  0  0
 16  8  1  0  0  0  0
 17 25  1  0  0  0  0
 17 28  1  0  0  0  0
 18  1  1  0  0  0  0
 19  5  1  0  0  0  0
 20 18  2  0  0  0  0
 20 13  1  0  0  0  0
 21 26  1  0  0  0  0
 22 10  1  0  0  0  0
 23 21  1  0  0  0  0
 24 22  1  0  0  0  0
 24 13  1  0  0  0  0
 25 14  1  0  0  0  0
 27  2  1  0  0  0  0
 28 29  1  0  0  0  0
 29 32  1  0  0  0  0
 30 33  1  0  0  0  0
 31 33  1  0  0  0  0
 32 34  1  0  0  0  0
 32 31  1  0  0  0  0
 34 30  1  0  0  0  0
M  END
>  <MODEL>
9

>  <REMARK>
 VINA RESULT:      -7.1      3.158      5.300
  Name = 
  3 active torsions:
  status: ('A' for Active; 'I' for Inactive)
    1  A    between atoms: C_17  and  C_28
    2  A    between atoms: C_28  and  C_29
    3  A    between atoms: C_29  and  N_32
                            x       y       z     vdW  Elec       q    Type
                         _______ _______ _______ _____ _____    ______ ____

>  <TORSDO>
F 3

$$$$
