=
 OpenBabel11122412273D

 34 40  0  0  1  0  0  0  0  0999 V2000
  185.7570  178.2960  145.0990 C   0  0  0  0  0  0  0  0  0  0  0  0
  183.7490  178.6380  143.5420 C   0  0  0  0  0  3  0  0  0  0  0  0
  191.8420  176.0230  146.1000 C   0  0  0  0  0  0  0  0  0  0  0  0
  187.8180  177.9420  146.3820 C   0  0  0  0  0  0  0  0  0  0  0  0
  189.8980  177.3480  145.2240 C   0  0  0  0  0  0  0  0  0  0  0  0
  191.9800  176.9250  143.7630 C   0  0  0  0  0  1  0  0  0  0  0  0
  192.1450  174.8730  145.6820 O   0  0  0  0  0  0  0  0  0  0  0  0
  191.3170  177.5520  147.9750 C   0  0  0  0  0  2  0  0  0  0  0  0
  185.7950  178.0080  142.6960 C   0  0  0  0  0  0  0  0  0  0  0  0
  186.4070  178.5610  139.7570 C   0  0  0  0  0  2  0  0  0  0  0  0
  189.1950  177.3860  144.0110 C   0  0  0  0  0  3  0  0  0  0  0  0
  189.8030  177.5030  147.8350 C   0  0  0  0  0  2  0  0  0  0  0  0
  187.1620  177.7070  142.7050 C   0  0  0  0  0  0  0  0  0  0  0  0
  183.6000  178.5440  142.2220 C   0  0  0  0  0  3  0  0  0  0  0  0
  189.2000  177.6300  146.4390 C   0  0  0  0  0  0  0  0  0  0  0  0
  191.8830  176.3050  147.4930 N   0  0  0  0  0  2  0  0  0  0  0  0
  185.3700  179.1590  140.5950 N   0  0  0  0  0  0  0  0  0  0  0  0
  187.1370  177.9770  145.1480 C   0  0  0  0  0  0  0  0  0  0  0  0
  191.3960  177.1020  145.1650 C   0  0  2  0  0  3  0  0  0  0  0  0
  187.8360  177.6840  143.9490 C   0  0  0  0  0  0  0  0  0  0  0  0
  185.7680  178.5330  147.6080 C   0  0  0  0  0  3  0  0  0  0  0  0
  187.7640  178.5820  140.4480 C   0  0  0  0  0  2  0  0  0  0  0  0
  187.0620  178.2170  147.6230 C   0  0  0  0  0  3  0  0  0  0  0  0
  187.8800  177.4160  141.4190 C   0  0  0  0  0  2  0  0  0  0  0  0
  184.8780  178.1250  141.5190 C   0  0  1  0  0  3  0  0  0  0  0  0
  184.9760  178.6560  146.3380 C   0  0  0  0  0  3  0  0  0  0  0  0
  185.1230  178.3040  143.8550 C   0  0  1  0  0  3  0  0  0  0  0  0
  184.3060  179.5220  139.6650 C   0  0  0  0  0  2  0  0  0  0  0  0
  184.3360  178.5930  138.4660 C   0  0  0  0  0  2  0  0  0  0  0  0
  181.0410  177.6970  139.4770 N   0  0  0  0  0  2  0  0  0  0  0  0
  183.0050  176.5380  138.8010 C   0  0  0  0  0  2  0  0  0  0  0  0
  182.9770  177.9440  138.2710 C   0  0  1  0  0  3  0  0  0  0  0  0
  181.7880  176.4670  139.6830 C   0  0  0  0  0  2  0  0  0  0  0  0
  181.9640  178.6610  139.0320 N   0  0  0  0  0  2  0  0  0  0  0  0
  1 18  1  0  0  0  0
  1 26  2  0  0  0  0
  3 16  1  0  0  0  0
  4 15  2  0  0  0  0
  4 23  1  0  0  0  0
  5 15  1  0  0  0  0
  7  3  2  0  0  0  0
  9 13  2  0  0  0  0
  9 27  1  0  0  0  0
 10 22  1  0  0  0  0
 10 17  1  0  0  0  0
 11  5  2  0  0  0  0
 12  8  1  0  0  0  0
 13 20  1  0  0  0  0
 14  2  2  0  0  0  0
 15 12  1  0  0  0  0
 16  8  1  0  0  0  0
 17 25  1  0  0  0  0
 18  4  1  0  0  0  0
 19  6  1  6  0  0  0
 19  5  1  0  0  0  0
 19  3  1  0  0  0  0
 20 11  1  0  0  0  0
 20 18  2  0  0  0  0
 21 23  2  0  0  0  0
 22 24  1  0  0  0  0
 24 13  1  0  0  0  0
 25 14  1  1  0  0  0
 25  9  1  0  0  0  0
 26 21  1  0  0  0  0
 27  2  1  6  0  0  0
 27  1  1  0  0  0  0
 28 17  1  0  0  0  0
 29 28  1  0  0  0  0
 30 33  1  0  0  0  0
 31 33  1  0  0  0  0
 32 29  1  1  0  0  0
 32 31  1  0  0  0  0
 32 34  1  0  0  0  0
 34 30  1  0  0  0  0
M  END
>  <MODEL>
1

>  <REMARK>
 VINA RESULT:     -11.1      0.000      0.000
  Name = 
  3 active torsions:
  status: ('A' for Active; 'I' for Inactive)
    1  A    between atoms: N_17  and  C_28
    2  A    between atoms: C_28  and  C_29
    3  A    between atoms: C_29  and  C_32
                            x       y       z     vdW  Elec       q    Type
                         _______ _______ _______ _____ _____    ______ ____

>  <TORSDO>
F 3

$$$$
=
 OpenBabel11122412273D

 34 40  0  0  1  0  0  0  0  0999 V2000
  188.1260  177.7700  141.9480 C   0  0  0  0  0  0  0  0  0  0  0  0
  186.3360  178.5520  140.2880 C   0  0  0  0  0  3  0  0  0  0  0  0
  190.4940  177.5900  148.0770 C   0  0  0  0  0  0  0  0  0  0  0  0
  189.6690  177.0610  143.7180 C   0  0  0  0  0  0  0  0  0  0  0  0
  189.0140  177.2690  146.0750 C   0  0  0  0  0  0  0  0  0  0  0  0
  188.0190  177.4090  148.4480 C   0  0  0  0  0  1  0  0  0  0  0  0
  190.5250  178.6530  148.7540 O   0  0  0  0  0  0  0  0  0  0  0  0
  191.6720  175.8350  146.7880 C   0  0  0  0  0  2  0  0  0  0  0  0
  185.9820  178.7130  142.5570 C   0  0  0  0  0  0  0  0  0  0  0  0
  183.1140  178.8700  143.5920 C   0  0  0  0  0  2  0  0  0  0  0  0
  187.7920  177.8100  145.6520 C   0  0  0  0  0  3  0  0  0  0  0  0
  191.3920  176.4030  145.4040 C   0  0  0  0  0  2  0  0  0  0  0  0
  186.2410  178.5470  143.9220 C   0  0  0  0  0  0  0  0  0  0  0  0
  185.1180  179.0670  140.4440 C   0  0  0  0  0  3  0  0  0  0  0  0
  189.9790  176.8850  145.0910 C   0  0  0  0  0  0  0  0  0  0  0  0
  191.7050  176.9200  147.7530 N   0  0  0  0  0  2  0  0  0  0  0  0
  183.5820  178.4180  142.2830 N   0  0  0  0  0  0  0  0  0  0  0  0
  188.4300  177.6040  143.3230 C   0  0  0  0  0  0  0  0  0  0  0  0
  189.2060  177.0300  147.5620 C   0  0  2  0  0  3  0  0  0  0  0  0
  187.4840  177.9930  144.3060 C   0  0  0  0  0  0  0  0  0  0  0  0
  190.3920  176.8260  141.3780 C   0  0  0  0  0  3  0  0  0  0  0  0
  183.9000  178.2180  144.7210 C   0  0  0  0  0  2  0  0  0  0  0  0
  190.6540  176.6940  142.6770 C   0  0  0  0  0  3  0  0  0  0  0  0
  185.2150  178.9520  144.9410 C   0  0  0  0  0  2  0  0  0  0  0  0
  184.7420  179.2410  141.9040 C   0  0  1  0  0  3  0  0  0  0  0  0
  189.0770  177.3350  140.8620 C   0  0  0  0  0  2  0  0  0  0  0  0
  186.8910  178.3250  141.6060 C   0  0  0  0  0  0  0  0  0  0  0  0
  182.4740  178.6990  141.3760 C   0  0  0  0  0  2  0  0  0  0  0  0
  181.1670  178.6880  142.1470 C   0  0  0  0  0  2  0  0  0  0  0  0
  178.9310  176.0930  141.1730 N   0  0  0  0  0  2  0  0  0  0  0  0
  180.6600  177.3500  140.1310 C   0  0  0  0  0  2  0  0  0  0  0  0
  180.0620  178.0850  141.2970 C   0  0  1  0  0  3  0  0  0  0  0  0
  179.9800  176.0100  140.1690 C   0  0  0  0  0  2  0  0  0  0  0  0
  179.3110  177.1070  142.0710 N   0  0  0  0  0  2  0  0  0  0  0  0
  1 18  1  0  0  0  0
  2 14  2  0  0  0  0
  2 27  1  0  0  0  0
  3  7  2  0  0  0  0
  4 15  1  0  0  0  0
  5 19  1  0  0  0  0
  8 16  1  0  0  0  0
  9 13  2  0  0  0  0
 10 22  1  0  0  0  0
 11  5  1  0  0  0  0
 12  8  1  0  0  0  0
 13 20  1  0  0  0  0
 13 24  1  0  0  0  0
 15 12  1  0  0  0  0
 15  5  2  0  0  0  0
 16  3  1  0  0  0  0
 17 10  1  0  0  0  0
 18  4  2  0  0  0  0
 18 20  1  0  0  0  0
 19  3  1  0  0  0  0
 19  6  1  1  0  0  0
 20 11  2  0  0  0  0
 21 23  2  0  0  0  0
 22 24  1  0  0  0  0
 23  4  1  0  0  0  0
 25 14  1  6  0  0  0
 25 17  1  0  0  0  0
 25  9  1  0  0  0  0
 26 21  1  0  0  0  0
 26  1  1  0  0  0  0
 27  1  2  0  0  0  0
 27  9  1  0  0  0  0
 28 29  1  0  0  0  0
 28 17  1  0  0  0  0
 30 34  1  0  0  0  0
 31 33  1  0  0  0  0
 31 32  1  0  0  0  0
 32 34  1  0  0  0  0
 32 29  1  1  0  0  0
 33 30  1  0  0  0  0
M  END
>  <MODEL>
2

>  <REMARK>
 VINA RESULT:     -10.6      1.816      3.846
  Name = 
  3 active torsions:
  status: ('A' for Active; 'I' for Inactive)
    1  A    between atoms: N_17  and  C_28
    2  A    between atoms: C_28  and  C_29
    3  A    between atoms: C_29  and  C_32
                            x       y       z     vdW  Elec       q    Type
                         _______ _______ _______ _____ _____    ______ ____

>  <TORSDO>
F 3

$$$$
=
 OpenBabel11122412273D

 34 40  0  0  1  0  0  0  0  0999 V2000
  190.3790  177.4310  143.3220 C   0  0  0  0  0  0  0  0  0  0  0  0
  192.3410  177.2220  141.6850 C   0  0  0  0  0  3  0  0  0  0  0  0
  184.1920  179.2680  144.5620 C   0  0  0  0  0  0  0  0  0  0  0  0
  188.3520  177.6460  144.6870 C   0  0  0  0  0  0  0  0  0  0  0  0
  186.1880  178.0800  143.6120 C   0  0  0  0  0  0  0  0  0  0  0  0
  184.0240  178.3400  142.2370 C   0  0  0  0  0  1  0  0  0  0  0  0
  183.7900  180.3900  144.1510 O   0  0  0  0  0  0  0  0  0  0  0  0
  184.9010  177.7950  146.4210 C   0  0  0  0  0  2  0  0  0  0  0  0
  190.2220  177.6970  140.9220 C   0  0  0  0  0  0  0  0  0  0  0  0
  189.5320  177.0790  138.0130 C   0  0  0  0  0  2  0  0  0  0  0  0
  186.8430  178.0830  142.3730 C   0  0  0  0  0  3  0  0  0  0  0  0
  186.4010  177.9520  146.2180 C   0  0  0  0  0  2  0  0  0  0  0  0
  188.8390  177.8990  140.9850 C   0  0  0  0  0  0  0  0  0  0  0  0
  192.4300  177.3170  140.3600 C   0  0  0  0  0  3  0  0  0  0  0  0
  186.9540  177.8580  144.8000 C   0  0  0  0  0  0  0  0  0  0  0  0
  184.2270  178.9940  145.9570 N   0  0  0  0  0  2  0  0  0  0  0  0
  190.6430  176.5640  138.8100 N   0  0  0  0  0  0  0  0  0  0  0  0
  188.9830  177.6510  143.4260 C   0  0  0  0  0  0  0  0  0  0  0  0
  184.6760  178.2170  143.6140 C   0  0  2  0  0  3  0  0  0  0  0  0
  188.2160  177.8830  142.2550 C   0  0  0  0  0  0  0  0  0  0  0  0
  190.4870  177.2130  145.8300 C   0  0  0  0  0  3  0  0  0  0  0  0
  188.2100  176.9660  138.7590 C   0  0  0  0  0  2  0  0  0  0  0  0
  189.1760  177.4350  145.8980 C   0  0  0  0  0  3  0  0  0  0  0  0
  188.0500  178.1280  139.7290 C   0  0  0  0  0  2  0  0  0  0  0  0
  191.0970  177.6380  139.7090 C   0  0  1  0  0  3  0  0  0  0  0  0
  191.2330  177.1370  144.5290 C   0  0  0  0  0  3  0  0  0  0  0  0
  190.9600  177.4590  142.0530 C   0  0  1  0  0  3  0  0  0  0  0  0
  191.6920  176.2710  137.8390 C   0  0  0  0  0  2  0  0  0  0  0  0
  191.8300  174.7680  137.6740 C   0  0  0  0  0  2  0  0  0  0  0  0
  195.2720  175.3810  136.9950 N   0  0  0  0  0  2  0  0  0  0  0  0
  193.6120  173.8630  136.2200 C   0  0  0  0  0  2  0  0  0  0  0  0
  193.2960  174.3810  137.5950 C   0  0  1  0  0  3  0  0  0  0  0  0
  194.8380  174.6390  135.8220 C   0  0  0  0  0  2  0  0  0  0  0  0
  194.1370  175.5510  137.8080 N   0  0  0  0  0  2  0  0  0  0  0  0
  1 18  1  0  0  0  0
  1 26  2  0  0  0  0
  3 16  1  0  0  0  0
  4 15  2  0  0  0  0
  4 23  1  0  0  0  0
  5 19  1  0  0  0  0
  5 15  1  0  0  0  0
  7  3  2  0  0  0  0
  9 13  2  0  0  0  0
  9 27  1  0  0  0  0
 10 22  1  0  0  0  0
 10 17  1  0  0  0  0
 11  5  2  0  0  0  0
 12  8  1  0  0  0  0
 13 20  1  0  0  0  0
 14  2  2  0  0  0  0
 15 12  1  0  0  0  0
 16  8  1  0  0  0  0
 17 25  1  0  0  0  0
 18  4  1  0  0  0  0
 19  6  1  6  0  0  0
 19  3  1  0  0  0  0
 20 11  1  0  0  0  0
 20 18  2  0  0  0  0
 21 23  2  0  0  0  0
 22 24  1  0  0  0  0
 24 13  1  0  0  0  0
 25 14  1  1  0  0  0
 25  9  1  0  0  0  0
 26 21  1  0  0  0  0
 27  2  1  6  0  0  0
 27  1  1  0  0  0  0
 28 17  1  0  0  0  0
 29 28  1  0  0  0  0
 30 34  1  0  0  0  0
 31 32  1  0  0  0  0
 32 29  1  6  0  0  0
 32 34  1  0  0  0  0
 33 31  1  0  0  0  0
 33 30  1  0  0  0  0
M  END
>  <MODEL>
3

>  <REMARK>
 VINA RESULT:     -10.5      4.590      7.374
  Name = 
  3 active torsions:
  status: ('A' for Active; 'I' for Inactive)
    1  A    between atoms: N_17  and  C_28
    2  A    between atoms: C_28  and  C_29
    3  A    between atoms: C_29  and  C_32
                            x       y       z     vdW  Elec       q    Type
                         _______ _______ _______ _____ _____    ______ ____

>  <TORSDO>
F 3

$$$$
=
 OpenBabel11122412273D

 34 40  0  0  1  0  0  0  0  0999 V2000
  183.8500  178.6280  144.0300 C   0  0  0  0  0  0  0  0  0  0  0  0
  181.4800  179.0160  143.1310 C   0  0  0  0  0  3  0  0  0  0  0  0
  190.0190  176.5740  143.0720 C   0  0  0  0  0  0  0  0  0  0  0  0
  186.1940  178.2560  144.6500 C   0  0  0  0  0  0  0  0  0  0  0  0
  187.8800  177.8780  142.9080 C   0  0  0  0  0  0  0  0  0  0  0  0
  189.4790  177.6980  140.8950 C   0  0  0  0  0  1  0  0  0  0  0  0
  190.2170  175.4850  142.4690 O   0  0  0  0  0  0  0  0  0  0  0  0
  190.0060  177.8910  145.1680 C   0  0  0  0  0  2  0  0  0  0  0  0
  183.2220  178.5700  141.6930 C   0  0  0  0  0  0  0  0  0  0  0  0
  182.9770  179.4280  138.7740 C   0  0  0  0  0  2  0  0  0  0  0  0
  186.8660  177.9950  141.9480 C   0  0  0  0  0  3  0  0  0  0  0  0
  188.5140  177.7810  145.4460 C   0  0  0  0  0  2  0  0  0  0  0  0
  184.5420  178.3370  141.2940 C   0  0  0  0  0  0  0  0  0  0  0  0
  180.9700  179.0390  141.9010 C   0  0  0  0  0  3  0  0  0  0  0  0
  187.5430  178.0090  144.2920 C   0  0  0  0  0  0  0  0  0  0  0  0
  190.4420  176.7250  144.4210 N   0  0  0  0  0  2  0  0  0  0  0  0
  182.2030  179.8920  139.9220 N   0  0  0  0  0  0  0  0  0  0  0  0
  185.1950  178.3740  143.6630 C   0  0  0  0  0  0  0  0  0  0  0  0
  189.3070  177.7130  142.4140 C   0  0  2  0  0  3  0  0  0  0  0  0
  185.5370  178.2300  142.2940 C   0  0  0  0  0  0  0  0  0  0  0  0
  184.5550  178.6270  146.4490 C   0  0  0  0  0  3  0  0  0  0  0  0
  184.4720  179.4500  139.0620 C   0  0  0  0  0  2  0  0  0  0  0  0
  185.8090  178.3760  146.0740 C   0  0  0  0  0  3  0  0  0  0  0  0
  184.8790  178.2060  139.8360 C   0  0  0  0  0  2  0  0  0  0  0  0
  182.0100  178.7520  140.8340 C   0  0  1  0  0  3  0  0  0  0  0  0
  183.4390  178.8300  145.4660 C   0  0  0  0  0  3  0  0  0  0  0  0
  182.8940  178.7220  143.0160 C   0  0  1  0  0  3  0  0  0  0  0  0
  180.9140  180.2890  139.3650 C   0  0  0  0  0  2  0  0  0  0  0  0
  180.9930  180.3000  137.8500 C   0  0  0  0  0  2  0  0  0  0  0  0
  180.6590  183.0510  135.6140 N   0  0  0  0  0  2  0  0  0  0  0  0
  180.8450  182.7640  137.9680 C   0  0  0  0  0  2  0  0  0  0  0  0
  180.3020  181.5340  137.2970 C   0  0  1  0  0  3  0  0  0  0  0  0
  181.1800  183.6750  136.8190 C   0  0  0  0  0  2  0  0  0  0  0  0
  180.5820  181.6710  135.8750 N   0  0  0  0  0  2  0  0  0  0  0  0
  1 26  2  0  0  0  0
  3 16  1  0  0  0  0
  4 23  1  0  0  0  0
  5 15  1  0  0  0  0
  7  3  2  0  0  0  0
  8 12  1  0  0  0  0
  9 27  1  0  0  0  0
 10 22  1  0  0  0  0
 10 17  1  0  0  0  0
 11 20  1  0  0  0  0
 11  5  2  0  0  0  0
 13  9  2  0  0  0  0
 13 20  1  0  0  0  0
 14  2  2  0  0  0  0
 15  4  2  0  0  0  0
 15 12  1  0  0  0  0
 16  8  1  0  0  0  0
 17 25  1  0  0  0  0
 18  1  1  0  0  0  0
 18  4  1  0  0  0  0
 19  6  1  6  0  0  0
 19  5  1  0  0  0  0
 19  3  1  0  0  0  0
 20 18  2  0  0  0  0
 22 24  1  0  0  0  0
 23 21  2  0  0  0  0
 24 13  1  0  0  0  0
 25  9  1  0  0  0  0
 25 14  1  1  0  0  0
 26 21  1  0  0  0  0
 27  2  1  6  0  0  0
 27  1  1  0  0  0  0
 28 17  1  0  0  0  0
 29 28  1  0  0  0  0
 30 34  1  0  0  0  0
 30 33  1  0  0  0  0
 32 29  1  1  0  0  0
 32 31  1  0  0  0  0
 33 31  1  0  0  0  0
 34 32  1  0  0  0  0
M  END
>  <MODEL>
4

>  <REMARK>
 VINA RESULT:     -10.4      2.568      3.669
  Name = 
  3 active torsions:
  status: ('A' for Active; 'I' for Inactive)
    1  A    between atoms: N_17  and  C_28
    2  A    between atoms: C_28  and  C_29
    3  A    between atoms: C_29  and  C_32
                            x       y       z     vdW  Elec       q    Type
                         _______ _______ _______ _____ _____    ______ ____

>  <TORSDO>
F 3

$$$$
=
 OpenBabel11122412273D

 34 40  0  0  1  0  0  0  0  0999 V2000
  189.6030  177.4150  141.7630 C   0  0  0  0  0  0  0  0  0  0  0  0
  189.8280  177.6310  139.2180 C   0  0  0  0  0  3  0  0  0  0  0  0
  186.4180  178.8720  147.3240 C   0  0  0  0  0  0  0  0  0  0  0  0
  189.1470  177.2740  144.1690 C   0  0  0  0  0  0  0  0  0  0  0  0
  186.9620  177.9670  145.0470 C   0  0  0  0  0  0  0  0  0  0  0  0
  184.5400  178.5680  145.6900 C   0  0  0  0  0  1  0  0  0  0  0  0
  186.0550  180.0620  147.5300 O   0  0  0  0  0  0  0  0  0  0  0  0
  187.9280  176.9750  147.8240 C   0  0  0  0  0  2  0  0  0  0  0  0
  187.8960  178.2840  140.2850 C   0  0  0  0  0  0  0  0  0  0  0  0
  185.3040  178.4270  138.6770 C   0  0  0  0  0  2  0  0  0  0  0  0
  186.5750  178.2860  143.7380 C   0  0  0  0  0  3  0  0  0  0  0  0
  188.8750  177.1790  146.6510 C   0  0  0  0  0  2  0  0  0  0  0  0
  187.0000  178.4620  141.3440 C   0  0  0  0  0  0  0  0  0  0  0  0
  189.0000  178.0600  138.2680 C   0  0  0  0  0  3  0  0  0  0  0  0
  188.2760  177.4500  145.2750 C   0  0  0  0  0  0  0  0  0  0  0  0
  187.3500  178.2530  148.2010 N   0  0  0  0  0  2  0  0  0  0  0  0
  186.5410  177.7260  138.3410 N   0  0  0  0  0  0  0  0  0  0  0  0
  188.7290  177.6000  142.8630 C   0  0  0  0  0  0  0  0  0  0  0  0
  185.9210  178.0980  146.1450 C   0  0  2  0  0  3  0  0  0  0  0  0
  187.4280  178.1230  142.6490 C   0  0  0  0  0  0  0  0  0  0  0  0
  191.3590  176.5650  143.3580 C   0  0  0  0  0  3  0  0  0  0  0  0
  184.8620  178.1270  140.1030 C   0  0  0  0  0  2  0  0  0  0  0  0
  190.5200  176.7620  144.3730 C   0  0  0  0  0  3  0  0  0  0  0  0
  185.6220  179.0030  141.0870 C   0  0  0  0  0  2  0  0  0  0  0  0
  187.6710  178.5350  138.8260 C   0  0  1  0  0  3  0  0  0  0  0  0
  190.9800  176.8230  141.9280 C   0  0  0  0  0  3  0  0  0  0  0  0
  189.1480  177.7650  140.4900 C   0  0  1  0  0  3  0  0  0  0  0  0
  186.5630  177.6900  136.8830 C   0  0  0  0  0  2  0  0  0  0  0  0
  186.1700  176.3060  136.3990 C   0  0  0  0  0  2  0  0  0  0  0  0
  188.3820  173.5500  136.8410 N   0  0  0  0  0  2  0  0  0  0  0  0
  186.0720  173.9760  137.2170 C   0  0  0  0  0  2  0  0  0  0  0  0
  186.8800  175.2430  137.2190 C   0  0  1  0  0  3  0  0  0  0  0  0
  187.0720  172.9180  136.8420 C   0  0  0  0  0  2  0  0  0  0  0  0
  188.1670  174.9220  136.6180 N   0  0  0  0  0  2  0  0  0  0  0  0
  1 26  2  0  0  0  0
  1 18  1  0  0  0  0
  3  7  2  0  0  0  0
  3 16  1  0  0  0  0
  4 23  1  0  0  0  0
  4 15  2  0  0  0  0
  5 15  1  0  0  0  0
  5 19  1  0  0  0  0
  8 16  1  0  0  0  0
  9 27  1  0  0  0  0
  9 13  2  0  0  0  0
 10 22  1  0  0  0  0
 11  5  2  0  0  0  0
 12  8  1  0  0  0  0
 13 20  1  0  0  0  0
 14  2  2  0  0  0  0
 15 12  1  0  0  0  0
 17 10  1  0  0  0  0
 17 25  1  0  0  0  0
 18  4  1  0  0  0  0
 19  6  1  6  0  0  0
 19  3  1  0  0  0  0
 20 18  2  0  0  0  0
 20 11  1  0  0  0  0
 21 23  2  0  0  0  0
 22 24  1  0  0  0  0
 24 13  1  0  0  0  0
 25 14  1  6  0  0  0
 25  9  1  0  0  0  0
 26 21  1  0  0  0  0
 27  2  1  6  0  0  0
 27  1  1  0  0  0  0
 28 17  1  0  0  0  0
 29 28  1  0  0  0  0
 30 33  1  0  0  0  0
 31 32  1  0  0  0  0
 32 29  1  6  0  0  0
 33 31  1  0  0  0  0
 34 30  1  0  0  0  0
 34 32  1  0  0  0  0
M  END
>  <MODEL>
5

>  <REMARK>
 VINA RESULT:     -10.3      3.125      5.086
  Name = 
  3 active torsions:
  status: ('A' for Active; 'I' for Inactive)
    1  A    between atoms: N_17  and  C_28
    2  A    between atoms: C_28  and  C_29
    3  A    between atoms: C_29  and  C_32
                            x       y       z     vdW  Elec       q    Type
                         _______ _______ _______ _____ _____    ______ ____

>  <TORSDO>
F 3

$$$$
=
 OpenBabel11122412273D

 34 40  0  0  1  0  0  0  0  0999 V2000
  189.6080  177.4700  141.7430 C   0  0  0  0  0  0  0  0  0  0  0  0
  189.8150  177.7400  139.2010 C   0  0  0  0  0  3  0  0  0  0  0  0
  186.4330  178.7680  147.3490 C   0  0  0  0  0  0  0  0  0  0  0  0
  189.1680  177.2750  144.1480 C   0  0  0  0  0  0  0  0  0  0  0  0
  186.9780  177.9160  145.0520 C   0  0  0  0  0  0  0  0  0  0  0  0
  184.5500  178.4660  145.7190 C   0  0  0  0  0  1  0  0  0  0  0  0
  186.0530  179.9470  147.5810 O   0  0  0  0  0  0  0  0  0  0  0  0
  187.9750  176.8850  147.8030 C   0  0  0  0  0  2  0  0  0  0  0  0
  187.8790  178.3410  140.2910 C   0  0  0  0  0  0  0  0  0  0  0  0
  185.2760  178.4760  138.7010 C   0  0  0  0  0  2  0  0  0  0  0  0
  186.5780  178.2550  143.7510 C   0  0  0  0  0  3  0  0  0  0  0  0
  188.9120  177.1270  146.6290 C   0  0  0  0  0  2  0  0  0  0  0  0
  186.9860  178.4850  141.3590 C   0  0  0  0  0  0  0  0  0  0  0  0
  188.9740  178.1750  138.2650 C   0  0  0  0  0  3  0  0  0  0  0  0
  188.3010  177.4150  145.2610 C   0  0  0  0  0  0  0  0  0  0  0  0
  187.3790  178.1460  148.2080 N   0  0  0  0  0  2  0  0  0  0  0  0
  186.5220  177.8010  138.3450 N   0  0  0  0  0  0  0  0  0  0  0  0
  188.7370  177.6200  142.8510 C   0  0  0  0  0  0  0  0  0  0  0  0
  185.9410  178.0100  146.1580 C   0  0  2  0  0  3  0  0  0  0  0  0
  187.4270  178.1270  142.6550 C   0  0  0  0  0  0  0  0  0  0  0  0
  191.3860  176.6170  143.3110 C   0  0  0  0  0  3  0  0  0  0  0  0
  184.8460  178.1410  140.1230 C   0  0  0  0  0  2  0  0  0  0  0  0
  190.5500  176.7810  144.3350 C   0  0  0  0  0  3  0  0  0  0  0  0
  185.5990  179.0090  141.1210 C   0  0  0  0  0  2  0  0  0  0  0  0
  187.6410  178.6180  138.8390 C   0  0  1  0  0  3  0  0  0  0  0  0
  190.9950  176.8980  141.8890 C   0  0  0  0  0  3  0  0  0  0  0  0
  189.1400  177.8390  140.4790 C   0  0  1  0  0  3  0  0  0  0  0  0
  186.5360  177.7940  136.8860 C   0  0  0  0  0  2  0  0  0  0  0  0
  186.4770  176.3640  136.3800 C   0  0  0  0  0  2  0  0  0  0  0  0
  189.7580  176.0070  135.0440 N   0  0  0  0  0  2  0  0  0  0  0  0
  187.9290  177.4960  134.7330 C   0  0  0  0  0  2  0  0  0  0  0  0
  187.4790  176.1620  135.2580 C   0  0  1  0  0  3  0  0  0  0  0  0
  189.4300  177.3890  134.7310 C   0  0  0  0  0  2  0  0  0  0  0  0
  188.6660  175.4850  135.7600 N   0  0  0  0  0  2  0  0  0  0  0  0
  1 26  2  0  0  0  0
  1 18  1  0  0  0  0
  3  7  2  0  0  0  0
  3 16  1  0  0  0  0
  4 23  1  0  0  0  0
  4 15  2  0  0  0  0
  5 15  1  0  0  0  0
  5 19  1  0  0  0  0
  8 16  1  0  0  0  0
  9 27  1  0  0  0  0
  9 13  2  0  0  0  0
 10 22  1  0  0  0  0
 11  5  2  0  0  0  0
 12  8  1  0  0  0  0
 13 20  1  0  0  0  0
 14  2  2  0  0  0  0
 15 12  1  0  0  0  0
 17 10  1  0  0  0  0
 17 25  1  0  0  0  0
 18  4  1  0  0  0  0
 19  6  1  6  0  0  0
 19  3  1  0  0  0  0
 20 18  2  0  0  0  0
 20 11  1  0  0  0  0
 21 23  2  0  0  0  0
 22 24  1  0  0  0  0
 24 13  1  0  0  0  0
 25 14  1  6  0  0  0
 25  9  1  0  0  0  0
 26 21  1  0  0  0  0
 27  2  1  6  0  0  0
 27  1  1  0  0  0  0
 28 17  1  0  0  0  0
 29 28  1  0  0  0  0
 30 34  1  0  0  0  0
 31 32  1  0  0  0  0
 32 34  1  0  0  0  0
 32 29  1  1  0  0  0
 33 31  1  0  0  0  0
 33 30  1  0  0  0  0
M  END
>  <MODEL>
6

>  <REMARK>
 VINA RESULT:     -10.3      3.265      5.348
  Name = 
  3 active torsions:
  status: ('A' for Active; 'I' for Inactive)
    1  A    between atoms: N_17  and  C_28
    2  A    between atoms: C_28  and  C_29
    3  A    between atoms: C_29  and  C_32
                            x       y       z     vdW  Elec       q    Type
                         _______ _______ _______ _____ _____    ______ ____

>  <TORSDO>
F 3

$$$$
=
 OpenBabel11122412273D

 34 40  0  0  1  0  0  0  0  0999 V2000
  189.5710  177.4680  141.7450 C   0  0  0  0  0  0  0  0  0  0  0  0
  189.7630  177.7120  139.1990 C   0  0  0  0  0  3  0  0  0  0  0  0
  186.4210  178.8140  147.3540 C   0  0  0  0  0  0  0  0  0  0  0  0
  189.1440  177.2970  144.1540 C   0  0  0  0  0  0  0  0  0  0  0  0
  186.9570  177.9400  145.0630 C   0  0  0  0  0  0  0  0  0  0  0  0
  184.5310  178.4880  145.7370 C   0  0  0  0  0  1  0  0  0  0  0  0
  186.0380  179.9950  147.5750 O   0  0  0  0  0  0  0  0  0  0  0  0
  187.9720  176.9420  147.8200 C   0  0  0  0  0  2  0  0  0  0  0  0
  187.8300  178.3180  140.2930 C   0  0  0  0  0  0  0  0  0  0  0  0
  185.2190  178.4250  138.7160 C   0  0  0  0  0  2  0  0  0  0  0  0
  186.5490  178.2630  143.7610 C   0  0  0  0  0  3  0  0  0  0  0  0
  188.9020  177.1740  146.6380 C   0  0  0  0  0  2  0  0  0  0  0  0
  186.9430  178.4690  141.3640 C   0  0  0  0  0  0  0  0  0  0  0  0
  188.9160  178.1330  138.2630 C   0  0  0  0  0  3  0  0  0  0  0  0
  188.2830  177.4460  145.2710 C   0  0  0  0  0  0  0  0  0  0  0  0
  187.3740  178.2050  148.2150 N   0  0  0  0  0  2  0  0  0  0  0  0
  186.4650  177.7510  138.3600 N   0  0  0  0  0  0  0  0  0  0  0  0
  188.7050  177.6270  142.8560 C   0  0  0  0  0  0  0  0  0  0  0  0
  185.9260  178.0410  146.1730 C   0  0  2  0  0  3  0  0  0  0  0  0
  187.3920  178.1270  142.6610 C   0  0  0  0  0  0  0  0  0  0  0  0
  191.3610  176.6380  143.3120 C   0  0  0  0  0  3  0  0  0  0  0  0
  184.7980  178.1040  140.1430 C   0  0  0  0  0  2  0  0  0  0  0  0
  190.5290  176.8100  144.3380 C   0  0  0  0  0  3  0  0  0  0  0  0
  185.5530  178.9850  141.1280 C   0  0  0  0  0  2  0  0  0  0  0  0
  187.5840  178.5780  138.8400 C   0  0  1  0  0  3  0  0  0  0  0  0
  190.9610  176.9020  141.8890 C   0  0  0  0  0  3  0  0  0  0  0  0
  189.0950  177.8220  140.4800 C   0  0  1  0  0  3  0  0  0  0  0  0
  186.4710  177.7290  136.9010 C   0  0  0  0  0  2  0  0  0  0  0  0
  186.4680  176.2920  136.4110 C   0  0  0  0  0  2  0  0  0  0  0  0
  183.0330  176.9090  135.7000 N   0  0  0  0  0  2  0  0  0  0  0  0
  184.2710  175.2780  136.9120 C   0  0  0  0  0  2  0  0  0  0  0  0
  185.1040  175.9330  135.8480 C   0  0  1  0  0  3  0  0  0  0  0  0
  182.9720  176.0350  136.8610 C   0  0  0  0  0  2  0  0  0  0  0  0
  184.3960  177.1380  135.4400 N   0  0  0  0  0  2  0  0  0  0  0  0
  1 26  2  0  0  0  0
  1 18  1  0  0  0  0
  3  7  2  0  0  0  0
  3 16  1  0  0  0  0
  4 23  1  0  0  0  0
  4 15  2  0  0  0  0
  5 15  1  0  0  0  0
  5 19  1  0  0  0  0
  8 16  1  0  0  0  0
  9 27  1  0  0  0  0
  9 13  2  0  0  0  0
 10 22  1  0  0  0  0
 11  5  2  0  0  0  0
 12  8  1  0  0  0  0
 13 20  1  0  0  0  0
 14  2  2  0  0  0  0
 15 12  1  0  0  0  0
 17 10  1  0  0  0  0
 17 25  1  0  0  0  0
 18  4  1  0  0  0  0
 19  6  1  6  0  0  0
 19  3  1  0  0  0  0
 20 18  2  0  0  0  0
 20 11  1  0  0  0  0
 21 23  2  0  0  0  0
 22 24  1  0  0  0  0
 24 13  1  0  0  0  0
 25 14  1  6  0  0  0
 25  9  1  0  0  0  0
 26 21  1  0  0  0  0
 27  2  1  6  0  0  0
 27  1  1  0  0  0  0
 28 17  1  0  0  0  0
 29 28  1  0  0  0  0
 30 33  1  0  0  0  0
 32 29  1  1  0  0  0
 32 31  1  0  0  0  0
 33 31  1  0  0  0  0
 34 30  1  0  0  0  0
 34 32  1  0  0  0  0
M  END
>  <MODEL>
7

>  <REMARK>
 VINA RESULT:     -10.1      2.575      4.602
  Name = 
  3 active torsions:
  status: ('A' for Active; 'I' for Inactive)
    1  A    between atoms: N_17  and  C_28
    2  A    between atoms: C_28  and  C_29
    3  A    between atoms: C_29  and  C_32
                            x       y       z     vdW  Elec       q    Type
                         _______ _______ _______ _____ _____    ______ ____

>  <TORSDO>
F 3

$$$$
=
 OpenBabel11122412273D

 34 40  0  0  1  0  0  0  0  0999 V2000
  184.2050  178.5630  144.3760 C   0  0  0  0  0  0  0  0  0  0  0  0
  181.8320  178.9770  143.4990 C   0  0  0  0  0  3  0  0  0  0  0  0
  190.3250  176.3820  143.3820 C   0  0  0  0  0  0  0  0  0  0  0  0
  186.5500  178.1610  144.9750 C   0  0  0  0  0  0  0  0  0  0  0  0
  188.2080  177.7200  143.2200 C   0  0  0  0  0  0  0  0  0  0  0  0
  189.7780  177.4750  141.1920 C   0  0  0  0  0  1  0  0  0  0  0  0
  190.4960  175.2780  142.7970 O   0  0  0  0  0  0  0  0  0  0  0  0
  190.3610  177.7370  145.4530 C   0  0  0  0  0  2  0  0  0  0  0  0
  183.5470  178.4740  142.0490 C   0  0  0  0  0  0  0  0  0  0  0  0
  183.2820  179.2810  139.1170 C   0  0  0  0  0  2  0  0  0  0  0  0
  187.1830  177.8380  142.2700 C   0  0  0  0  0  3  0  0  0  0  0  0
  188.8710  177.6590  145.7520 C   0  0  0  0  0  2  0  0  0  0  0  0
  184.8590  178.2100  141.6380 C   0  0  0  0  0  0  0  0  0  0  0  0
  181.3070  178.9870  142.2750 C   0  0  0  0  0  3  0  0  0  0  0  0
  187.8900  177.8830  144.6050 C   0  0  0  0  0  0  0  0  0  0  0  0
  190.7670  176.5500  144.7230 N   0  0  0  0  0  2  0  0  0  0  0  0
  182.5300  179.7810  140.2660 N   0  0  0  0  0  0  0  0  0  0  0  0
  185.5410  178.2780  143.9980 C   0  0  0  0  0  0  0  0  0  0  0  0
  189.6250  177.5200  142.7120 C   0  0  2  0  0  3  0  0  0  0  0  0
  185.8630  178.1030  142.6270 C   0  0  0  0  0  0  0  0  0  0  0  0
  184.9410  178.5950  146.7860 C   0  0  0  0  0  3  0  0  0  0  0  0
  184.7800  179.2830  139.3860 C   0  0  0  0  0  2  0  0  0  0  0  0
  186.1850  178.3140  146.4010 C   0  0  0  0  0  3  0  0  0  0  0  0
  185.1750  178.0450  140.1790 C   0  0  0  0  0  2  0  0  0  0  0  0
  182.3280  178.6610  141.2010 C   0  0  1  0  0  3  0  0  0  0  0  0
  183.8160  178.8000  145.8140 C   0  0  0  0  0  3  0  0  0  0  0  0
  183.2390  178.6560  143.3730 C   0  0  1  0  0  3  0  0  0  0  0  0
  181.2410  180.1900  139.7170 C   0  0  0  0  0  2  0  0  0  0  0  0
  181.0930  179.6540  138.3050 C   0  0  0  0  0  2  0  0  0  0  0  0
  178.9310  177.2240  139.7530 N   0  0  0  0  0  2  0  0  0  0  0  0
  180.6480  177.2310  138.1080 C   0  0  0  0  0  2  0  0  0  0  0  0
  180.0160  178.5860  138.2600 C   0  0  1  0  0  3  0  0  0  0  0  0
  179.9970  176.4130  139.1880 C   0  0  0  0  0  2  0  0  0  0  0  0
  179.2740  178.5660  139.5120 N   0  0  0  0  0  2  0  0  0  0  0  0
  1 26  2  0  0  0  0
  3 16  1  0  0  0  0
  4 23  1  0  0  0  0
  5 15  1  0  0  0  0
  7  3  2  0  0  0  0
  8 12  1  0  0  0  0
  9 27  1  0  0  0  0
 10 22  1  0  0  0  0
 10 17  1  0  0  0  0
 11 20  1  0  0  0  0
 11  5  2  0  0  0  0
 13  9  2  0  0  0  0
 13 20  1  0  0  0  0
 14  2  2  0  0  0  0
 15  4  2  0  0  0  0
 15 12  1  0  0  0  0
 16  8  1  0  0  0  0
 17 25  1  0  0  0  0
 18  1  1  0  0  0  0
 18  4  1  0  0  0  0
 19  6  1  6  0  0  0
 19  5  1  0  0  0  0
 19  3  1  0  0  0  0
 20 18  2  0  0  0  0
 22 24  1  0  0  0  0
 23 21  2  0  0  0  0
 24 13  1  0  0  0  0
 25  9  1  0  0  0  0
 25 14  1  1  0  0  0
 26 21  1  0  0  0  0
 27  2  1  6  0  0  0
 27  1  1  0  0  0  0
 28 17  1  0  0  0  0
 29 28  1  0  0  0  0
 31 32  1  0  0  0  0
 31 33  1  0  0  0  0
 32 29  1  1  0  0  0
 32 34  1  0  0  0  0
 33 30  1  0  0  0  0
 34 30  1  0  0  0  0
M  END
>  <MODEL>
8

>  <REMARK>
 VINA RESULT:      -9.9      1.687      2.596
  Name = 
  3 active torsions:
  status: ('A' for Active; 'I' for Inactive)
    1  A    between atoms: N_17  and  C_28
    2  A    between atoms: C_28  and  C_29
    3  A    between atoms: C_29  and  C_32
                            x       y       z     vdW  Elec       q    Type
                         _______ _______ _______ _____ _____    ______ ____

>  <TORSDO>
F 3

$$$$
=
 OpenBabel11122412273D

 34 40  0  0  1  0  0  0  0  0999 V2000
  187.9760  177.8340  141.9960 C   0  0  0  0  0  0  0  0  0  0  0  0
  186.1690  178.6150  140.3540 C   0  0  0  0  0  3  0  0  0  0  0  0
  190.3920  177.6360  148.1050 C   0  0  0  0  0  0  0  0  0  0  0  0
  189.5370  177.1250  143.7510 C   0  0  0  0  0  0  0  0  0  0  0  0
  188.8990  177.3170  146.1130 C   0  0  0  0  0  0  0  0  0  0  0  0
  187.9220  177.4390  148.4940 C   0  0  0  0  0  1  0  0  0  0  0  0
  190.4220  178.6950  148.7880 O   0  0  0  0  0  0  0  0  0  0  0  0
  191.5700  175.8950  146.7980 C   0  0  0  0  0  2  0  0  0  0  0  0
  185.8310  178.7620  142.6260 C   0  0  0  0  0  0  0  0  0  0  0  0
  182.9710  178.8970  143.6840 C   0  0  0  0  0  2  0  0  0  0  0  0
  187.6700  177.8530  145.7030 C   0  0  0  0  0  3  0  0  0  0  0  0
  191.2770  176.4680  145.4200 C   0  0  0  0  0  2  0  0  0  0  0  0
  186.1020  178.5900  143.9880 C   0  0  0  0  0  0  0  0  0  0  0  0
  184.9490  179.1220  140.5220 C   0  0  0  0  0  3  0  0  0  0  0  0
  189.8590  176.9440  145.1200 C   0  0  0  0  0  0  0  0  0  0  0  0
  191.6050  176.9740  147.7690 N   0  0  0  0  0  2  0  0  0  0  0  0
  183.4310  178.4550  142.3700 N   0  0  0  0  0  0  0  0  0  0  0  0
  188.2920  177.6630  143.3670 C   0  0  0  0  0  0  0  0  0  0  0  0
  189.1040  177.0710  147.5980 C   0  0  2  0  0  3  0  0  0  0  0  0
  187.3510  178.0410  144.3600 C   0  0  0  0  0  0  0  0  0  0  0  0
  190.2430  176.9060  141.4030 C   0  0  0  0  0  3  0  0  0  0  0  0
  183.7700  178.2440  144.8040 C   0  0  0  0  0  2  0  0  0  0  0  0
  190.5160  176.7690  142.7000 C   0  0  0  0  0  3  0  0  0  0  0  0
  185.0820  178.9840  145.0170 C   0  0  0  0  0  2  0  0  0  0  0  0
  184.5840  179.2860  141.9870 C   0  0  1  0  0  3  0  0  0  0  0  0
  188.9210  177.4110  140.9000 C   0  0  0  0  0  2  0  0  0  0  0  0
  186.7350  178.3840  141.6670 C   0  0  0  0  0  0  0  0  0  0  0  0
  182.3150  178.7340  141.4730 C   0  0  0  0  0  2  0  0  0  0  0  0
  182.1310  177.5750  140.5100 C   0  0  0  0  0  2  0  0  0  0  0  0
  181.6320  179.4650  137.5340 N   0  0  0  0  0  2  0  0  0  0  0  0
  180.5350  179.2460  139.6330 C   0  0  0  0  0  2  0  0  0  0  0  0
  181.3400  178.0230  139.2940 C   0  0  1  0  0  3  0  0  0  0  0  0
  180.8590  180.2030  138.5200 C   0  0  0  0  0  2  0  0  0  0  0  0
  182.2450  178.4000  138.2170 N   0  0  0  0  0  2  0  0  0  0  0  0
  1 18  1  0  0  0  0
  2 14  2  0  0  0  0
  2 27  1  0  0  0  0
  3  7  2  0  0  0  0
  4 15  1  0  0  0  0
  5 19  1  0  0  0  0
  8 16  1  0  0  0  0
  9 13  2  0  0  0  0
 10 22  1  0  0  0  0
 11  5  1  0  0  0  0
 12  8  1  0  0  0  0
 13 20  1  0  0  0  0
 13 24  1  0  0  0  0
 15 12  1  0  0  0  0
 15  5  2  0  0  0  0
 16  3  1  0  0  0  0
 17 10  1  0  0  0  0
 18  4  2  0  0  0  0
 18 20  1  0  0  0  0
 19  3  1  0  0  0  0
 19  6  1  1  0  0  0
 20 11  2  0  0  0  0
 21 23  2  0  0  0  0
 22 24  1  0  0  0  0
 23  4  1  0  0  0  0
 25 14  1  6  0  0  0
 25 17  1  0  0  0  0
 25  9  1  0  0  0  0
 26 21  1  0  0  0  0
 26  1  1  0  0  0  0
 27  1  2  0  0  0  0
 27  9  1  0  0  0  0
 28 17  1  0  0  0  0
 29 28  1  0  0  0  0
 30 34  1  0  0  0  0
 30 33  1  0  0  0  0
 32 31  1  0  0  0  0
 32 29  1  1  0  0  0
 33 31  1  0  0  0  0
 34 32  1  0  0  0  0
M  END
>  <MODEL>
9

>  <REMARK>
 VINA RESULT:      -9.7      1.651      3.733
  Name = 
  3 active torsions:
  status: ('A' for Active; 'I' for Inactive)
    1  A    between atoms: N_17  and  C_28
    2  A    between atoms: C_28  and  C_29
    3  A    between atoms: C_29  and  C_32
                            x       y       z     vdW  Elec       q    Type
                         _______ _______ _______ _____ _____    ______ ____

>  <TORSDO>
F 3

$$$$
