=
 OpenBabel11122411413D

 37 43  0  0  1  0  0  0  0  0999 V2000
  190.1810  178.5030  143.8620 C   0  0  0  0  0  0  0  0  0  0  0  0
  186.6990  177.4870  144.3900 C   0  0  1  0  0  3  0  0  0  0  0  0
  184.4700  177.6940  141.6480 C   0  0  0  0  0  2  0  0  0  0  0  0
  189.1410  176.9690  145.0730 C   0  0  2  0  0  3  0  0  0  0  0  0
  186.3950  178.3130  143.1630 C   0  0  2  0  0  3  0  0  0  0  0  0
  187.9860  176.8190  144.0980 C   0  0  2  0  0  3  0  0  0  0  0  0
  184.9060  178.5800  142.7900 C   0  0  2  0  0  3  0  0  0  0  0  0
  188.4800  176.7060  146.4260 C   0  0  0  0  0  2  0  0  0  0  0  0
  188.3890  177.4010  142.7190 C   0  0  2  0  0  3  0  0  0  0  0  0
  191.3940  177.6230  143.5140 C   0  0  0  0  0  1  0  0  0  0  0  0
  185.2470  178.5220  146.0930 N   0  0  0  0  0  2  0  0  0  0  0  0
  187.4300  177.7500  146.7980 C   0  0  0  0  0  2  0  0  0  0  0  0
  189.2000  178.6120  142.9070 O   0  0  0  0  0  0  0  0  0  0  0  0
  185.2090  179.5490  140.2100 O   0  0  0  0  0  0  0  0  0  0  0  0
  184.6270  178.2880  140.2500 C   0  0  1  0  0  3  0  0  0  0  0  0
  186.6410  178.3930  145.6250 C   0  0  1  0  0  3  0  0  0  0  0  0
  187.1730  177.6530  142.0960 N   0  0  2  0  0  0  0  0  0  0  0  0
  189.6710  178.2590  145.1260 O   0  0  0  0  0  0  0  0  0  0  0  0
  183.9750  178.5940  144.0090 C   0  0  1  0  0  3  0  0  0  0  0  0
  190.8610  179.8240  143.9700 C   0  0  0  0  0  1  0  0  0  0  0  0
  186.1140  178.5100  139.9520 C   0  0  2  0  0  3  0  0  0  0  0  0
  187.3170  178.5560  140.9000 C   0  0  2  0  0  3  0  0  0  0  0  0
  184.5430  179.4040  145.1430 C   0  0  0  0  0  2  0  0  0  0  0  0
  182.3740  179.3670  142.2430 C   0  0  0  0  0  3  0  0  0  0  0  0
  182.6060  178.8740  143.5520 C   0  0  0  0  0  0  0  0  0  0  0  0
  181.5080  178.5210  144.3540 C   0  0  0  0  0  3  0  0  0  0  0  0
  179.2360  178.4050  144.7030 F   0  0  0  0  0  0  0  0  0  0  0  0
  180.0180  179.2740  142.5850 C   0  0  0  0  0  3  0  0  0  0  0  0
  180.2460  178.7370  143.8620 C   0  0  0  0  0  0  0  0  0  0  0  0
  181.0500  179.5930  141.7940 C   0  0  0  0  0  3  0  0  0  0  0  0
  188.6380  178.3020  140.1970 C   0  0  0  0  0  2  0  0  0  0  0  0
  188.6290  177.5880  138.9330 N   0  0  0  0  0  0  0  0  0  0  0  0
  188.9300  179.8050  137.4640 O   0  0  0  0  0  1  0  0  0  0  0  0
  188.9890  178.3740  137.6000 C   0  0  0  0  0  2  0  0  0  0  0  0
  189.7060  176.5210  139.2980 C   0  0  0  0  0  2  0  0  0  0  0  0
  191.0360  177.2180  139.8550 C   0  0  0  0  0  2  0  0  0  0  0  0
  192.1590  176.8010  138.9810 C   0  0  0  0  0  1  0  0  0  0  0  0
  1 20  1  0  0  0  0
  1 18  1  0  0  0  0
  2 16  1  0  0  0  0
  3  7  1  0  0  0  0
  4 18  1  0  0  0  0
  4  8  1  0  0  0  0
  5  2  1  0  0  0  0
  6  2  1  0  0  0  0
  6  4  1  0  0  0  0
  7  5  1  0  0  0  0
  7 19  1  0  0  0  0
  8 12  1  0  0  0  0
  9 13  1  0  0  0  0
  9  6  1  0  0  0  0
 10  1  1  0  0  0  0
 13  1  1  0  0  0  0
 14 15  1  0  0  0  0
 15  3  1  0  0  0  0
 16 11  1  0  0  0  0
 16 12  1  0  0  0  0
 17  9  1  0  0  0  0
 17  5  1  0  0  0  0
 19 23  1  0  0  0  0
 21 14  1  0  0  0  0
 21 15  1  0  0  0  0
 21 22  1  0  0  0  0
 22 17  1  0  0  0  0
 23 11  1  0  0  0  0
 24 25  1  0  0  0  0
 25 19  1  0  0  0  0
 25 26  2  0  0  0  0
 28 29  2  0  0  0  0
 29 26  1  0  0  0  0
 29 27  1  0  0  0  0
 30 24  2  0  0  0  0
 30 28  1  0  0  0  0
 31 22  1  0  0  0  0
 32 35  1  0  0  0  0
 32 31  1  0  0  0  0
 33 34  1  0  0  0  0
 34 32  1  0  0  0  0
 35 36  1  0  0  0  0
 37 36  1  0  0  0  0
M  END
>  <MODEL>
1

>  <REMARK>
 VINA RESULT:      -9.6      0.000      0.000
  Name = 
  6 active torsions:
  status: ('A' for Active; 'I' for Inactive)
    1  A    between atoms: C_1  and  N_4
    2  A    between atoms: C_1  and  C_27
    3  A    between atoms: N_4  and  C_12
    4  A    between atoms: N_4  and  C_37
    5  A    between atoms: C_8  and  C_12
    6  A    between atoms: C_23  and  C_30
                            x       y       z     vdW  Elec       q    Type
                         _______ _______ _______ _____ _____    ______ ____

>  <TORSDO>
F 6

$$$$
=
 OpenBabel11122411413D

 37 43  0  0  1  0  0  0  0  0999 V2000
  183.7130  178.1690  140.7770 C   0  0  0  0  0  0  0  0  0  0  0  0
  186.0880  178.8120  143.4930 C   0  0  1  0  0  3  0  0  0  0  0  0
  189.5370  178.3760  142.8280 C   0  0  0  0  0  2  0  0  0  0  0  0
  183.8370  179.5830  142.4760 C   0  0  2  0  0  3  0  0  0  0  0  0
  187.0490  177.9600  142.6980 C   0  0  2  0  0  3  0  0  0  0  0  0
  185.3550  179.6120  142.4880 C   0  0  2  0  0  3  0  0  0  0  0  0
  188.3970  177.5390  143.3550 C   0  0  2  0  0  3  0  0  0  0  0  0
  183.4810  179.7730  143.9510 C   0  0  0  0  0  2  0  0  0  0  0  0
  185.8980  179.0780  141.1380 C   0  0  2  0  0  3  0  0  0  0  0  0
  183.0890  179.1720  139.7910 C   0  0  0  0  0  1  0  0  0  0  0  0
  186.0020  177.6280  145.6540 N   0  0  0  0  0  2  0  0  0  0  0  0
  183.9530  178.6240  144.8370 C   0  0  0  0  0  2  0  0  0  0  0  0
  185.0660  177.9590  140.6740 O   0  0  0  0  0  0  0  0  0  0  0  0
  189.7620  176.6110  141.1280 O   0  0  0  0  0  0  0  0  0  0  0  0
  190.2770  177.8040  141.6210 C   0  0  1  0  0  3  0  0  0  0  0  0
  185.2590  177.9030  144.4080 C   0  0  1  0  0  3  0  0  0  0  0  0
  187.2030  178.7000  141.4300 N   0  0  2  0  0  0  0  0  0  0  0  0
  183.2990  178.3560  142.0850 O   0  0  0  0  0  0  0  0  0  0  0  0
  188.3110  177.4250  144.8820 C   0  0  1  0  0  3  0  0  0  0  0  0
  183.0230  176.9270  140.3290 C   0  0  0  0  0  1  0  0  0  0  0  0
  189.3270  177.7400  140.4200 C   0  0  2  0  0  3  0  0  0  0  0  0
  187.7980  177.8190  140.3630 C   0  0  2  0  0  3  0  0  0  0  0  0
  187.0810  176.6770  145.3240 C   0  0  0  0  0  2  0  0  0  0  0  0
  189.9820  177.2690  146.7420 C   0  0  0  0  0  3  0  0  0  0  0  0
  189.6210  177.0030  145.3970 C   0  0  0  0  0  0  0  0  0  0  0  0
  190.4690  176.2100  144.6060 C   0  0  0  0  0  3  0  0  0  0  0  0
  192.4350  175.0500  144.3180 F   0  0  0  0  0  0  0  0  0  0  0  0
  192.0330  176.0900  146.4640 C   0  0  0  0  0  3  0  0  0  0  0  0
  191.6530  175.7820  145.1490 C   0  0  0  0  0  0  0  0  0  0  0  0
  191.2290  176.8230  147.2440 C   0  0  0  0  0  3  0  0  0  0  0  0
  187.2730  178.2120  138.9940 C   0  0  0  0  0  2  0  0  0  0  0  0
  187.4780  177.3020  137.8820 N   0  0  0  0  0  0  0  0  0  0  0  0
  184.8710  177.0590  137.3280 O   0  0  0  0  0  1  0  0  0  0  0  0
  186.2210  176.5700  137.2420 C   0  0  0  0  0  2  0  0  0  0  0  0
  188.1260  178.3280  136.9010 C   0  0  0  0  0  2  0  0  0  0  0  0
  189.2760  177.6360  136.0270 C   0  0  0  0  0  2  0  0  0  0  0  0
  189.9760  176.6630  136.8990 C   0  0  0  0  0  1  0  0  0  0  0  0
  1 18  1  0  0  0  0
  2 16  1  0  0  0  0
  3  7  1  0  0  0  0
  4  6  1  0  0  0  0
  4  8  1  0  0  0  0
  5  7  1  0  0  0  0
  5  2  1  0  0  0  0
  6  2  1  0  0  0  0
  7 19  1  0  0  0  0
  8 12  1  0  0  0  0
  9 17  1  0  0  0  0
  9  6  1  0  0  0  0
 10  1  1  0  0  0  0
 13  1  1  0  0  0  0
 13  9  1  0  0  0  0
 14 15  1  0  0  0  0
 15  3  1  0  0  0  0
 16 12  1  0  0  0  0
 16 11  1  0  0  0  0
 17  5  1  0  0  0  0
 18  4  1  0  0  0  0
 19 23  1  0  0  0  0
 19 25  1  0  0  0  0
 20  1  1  0  0  0  0
 21 14  1  0  0  0  0
 21 15  1  0  0  0  0
 22 21  1  0  0  0  0
 22 17  1  0  0  0  0
 23 11  1  0  0  0  0
 24 30  1  0  0  0  0
 25 24  2  0  0  0  0
 26 29  2  0  0  0  0
 26 25  1  0  0  0  0
 27 29  1  0  0  0  0
 28 30  2  0  0  0  0
 29 28  1  0  0  0  0
 31 22  1  0  0  0  0
 32 31  1  0  0  0  0
 34 33  1  0  0  0  0
 34 32  1  0  0  0  0
 35 32  1  0  0  0  0
 36 37  1  0  0  0  0
 36 35  1  0  0  0  0
M  END
>  <MODEL>
2

>  <REMARK>
 VINA RESULT:      -8.1      3.021      6.416
  Name = 
  6 active torsions:
  status: ('A' for Active; 'I' for Inactive)
    1  A    between atoms: C_1  and  N_4
    2  A    between atoms: C_1  and  C_27
    3  A    between atoms: N_4  and  C_12
    4  A    between atoms: N_4  and  C_37
    5  A    between atoms: C_8  and  C_12
    6  A    between atoms: C_23  and  C_30
                            x       y       z     vdW  Elec       q    Type
                         _______ _______ _______ _____ _____    ______ ____

>  <TORSDO>
F 6

$$$$
=
 OpenBabel11122411413D

 37 43  0  0  1  0  0  0  0  0999 V2000
  189.4810  176.4690  137.5280 C   0  0  0  0  0  0  0  0  0  0  0  0
  186.2570  178.0870  136.8760 C   0  0  1  0  0  3  0  0  0  0  0  0
  184.4520  179.3750  139.6350 C   0  0  0  0  0  2  0  0  0  0  0  0
  188.6290  177.7170  135.9090 C   0  0  2  0  0  3  0  0  0  0  0  0
  185.9630  177.8230  138.3340 C   0  0  2  0  0  3  0  0  0  0  0  0
  187.6850  178.4690  136.8320 C   0  0  2  0  0  3  0  0  0  0  0  0
  184.5200  178.0780  138.8640 C   0  0  2  0  0  3  0  0  0  0  0  0
  187.8520  177.6680  134.5940 C   0  0  0  0  0  2  0  0  0  0  0  0
  188.1480  178.3010  138.3010 C   0  0  2  0  0  3  0  0  0  0  0  0
  190.8910  177.0820  137.4640 C   0  0  0  0  0  1  0  0  0  0  0  0
  184.3890  176.9390  135.7480 N   0  0  0  0  0  2  0  0  0  0  0  0
  186.5620  176.8580  134.6850 C   0  0  0  0  0  2  0  0  0  0  0  0
  188.6470  176.9360  138.5140 O   0  0  0  0  0  0  0  0  0  0  0  0
  184.9770  177.9860  141.5980 O   0  0  0  0  0  0  0  0  0  0  0  0
  184.6770  179.2640  141.1410 C   0  0  1  0  0  3  0  0  0  0  0  0
  185.8310  176.8640  136.0550 C   0  0  1  0  0  3  0  0  0  0  0  0
  187.0080  178.5850  139.0440 N   0  0  2  0  0  0  0  0  0  0  0  0
  188.8590  176.3950  136.2930 O   0  0  0  0  0  0  0  0  0  0  0  0
  183.4420  177.8900  137.7900 C   0  0  1  0  0  3  0  0  0  0  0  0
  189.8410  175.0630  137.8620 C   0  0  0  0  0  1  0  0  0  0  0  0
  186.1100  178.7900  141.4110 C   0  0  2  0  0  3  0  0  0  0  0  0
  187.1270  178.1300  140.4740 C   0  0  2  0  0  3  0  0  0  0  0  0
  183.6560  176.6320  136.9910 C   0  0  0  0  0  2  0  0  0  0  0  0
  181.2970  179.1770  137.9170 C   0  0  0  0  0  3  0  0  0  0  0  0
  182.1260  178.1320  138.3960 C   0  0  0  0  0  0  0  0  0  0  0  0
  181.6170  177.2430  139.3570 C   0  0  0  0  0  3  0  0  0  0  0  0
  179.9450  176.5890  140.7970 F   0  0  0  0  0  0  0  0  0  0  0  0
  179.5570  178.5330  139.4110 C   0  0  0  0  0  3  0  0  0  0  0  0
  180.3570  177.4660  139.8490 C   0  0  0  0  0  0  0  0  0  0  0  0
  180.0110  179.3780  138.4770 C   0  0  0  0  0  3  0  0  0  0  0  0
  188.5580  178.2660  140.9600 C   0  0  0  0  0  2  0  0  0  0  0  0
  189.1290  177.1950  141.7560 N   0  0  0  0  0  0  0  0  0  0  0  0
  191.6430  177.4760  140.8830 O   0  0  0  0  0  1  0  0  0  0  0  0
  190.5800  176.6550  141.3980 C   0  0  0  0  0  2  0  0  0  0  0  0
  189.0960  177.9300  143.1320 C   0  0  0  0  0  2  0  0  0  0  0  0
  188.6070  176.9440  144.2960 C   0  0  0  0  0  2  0  0  0  0  0  0
  187.2130  177.3140  144.6380 C   0  0  0  0  0  1  0  0  0  0  0  0
  1 20  1  0  0  0  0
  1 13  1  0  0  0  0
  2  5  1  0  0  0  0
  3 15  1  0  0  0  0
  4 18  1  0  0  0  0
  4  6  1  0  0  0  0
  5  7  1  0  0  0  0
  5 17  1  0  0  0  0
  6  2  1  0  0  0  0
  6  9  1  0  0  0  0
  7  3  1  0  0  0  0
  8 12  1  0  0  0  0
  8  4  1  0  0  0  0
  9 13  1  0  0  0  0
  9 17  1  0  0  0  0
 10  1  1  0  0  0  0
 11 16  1  0  0  0  0
 11 23  1  0  0  0  0
 12 16  1  0  0  0  0
 15 21  1  0  0  0  0
 15 14  1  0  0  0  0
 16  2  1  0  0  0  0
 17 22  1  0  0  0  0
 18  1  1  0  0  0  0
 19 25  1  0  0  0  0
 19  7  1  0  0  0  0
 21 14  1  0  0  0  0
 22 31  1  0  0  0  0
 22 21  1  0  0  0  0
 23 19  1  0  0  0  0
 24 25  2  0  0  0  0
 24 30  1  0  0  0  0
 25 26  1  0  0  0  0
 26 29  2  0  0  0  0
 28 29  1  0  0  0  0
 29 27  1  0  0  0  0
 30 28  2  0  0  0  0
 31 32  1  0  0  0  0
 32 35  1  0  0  0  0
 33 34  1  0  0  0  0
 34 32  1  0  0  0  0
 35 36  1  0  0  0  0
 36 37  1  0  0  0  0
M  END
>  <MODEL>
3

>  <REMARK>
 VINA RESULT:      -7.6      2.680      6.208
  Name = 
  6 active torsions:
  status: ('A' for Active; 'I' for Inactive)
    1  A    between atoms: C_1  and  N_4
    2  A    between atoms: C_1  and  C_27
    3  A    between atoms: N_4  and  C_12
    4  A    between atoms: N_4  and  C_37
    5  A    between atoms: C_8  and  C_12
    6  A    between atoms: C_23  and  C_30
                            x       y       z     vdW  Elec       q    Type
                         _______ _______ _______ _____ _____    ______ ____

>  <TORSDO>
F 6

$$$$
=
 OpenBabel11122411413D

 37 43  0  0  1  0  0  0  0  0999 V2000
  182.6070  177.5620  139.8560 C   0  0  0  0  0  0  0  0  0  0  0  0
  185.2810  178.8600  142.0010 C   0  0  1  0  0  3  0  0  0  0  0  0
  188.5840  178.8540  140.7310 C   0  0  0  0  0  2  0  0  0  0  0  0
  182.7900  179.1710  141.3670 C   0  0  2  0  0  3  0  0  0  0  0  0
  186.2150  178.0690  141.1160 C   0  0  2  0  0  3  0  0  0  0  0  0
  184.2620  179.4210  141.0870 C   0  0  2  0  0  3  0  0  0  0  0  0
  187.7070  177.9280  141.5390 C   0  0  2  0  0  3  0  0  0  0  0  0
  182.6720  179.4800  142.8600 C   0  0  0  0  0  2  0  0  0  0  0  0
  184.6410  178.8150  139.7120 C   0  0  2  0  0  3  0  0  0  0  0  0
  181.6640  178.3410  138.9220 C   0  0  0  0  0  1  0  0  0  0  0  0
  185.7690  177.9390  144.2360 N   0  0  0  0  0  2  0  0  0  0  0  0
  183.4740  178.5240  143.7390 C   0  0  0  0  0  2  0  0  0  0  0  0
  183.9370  177.5400  139.5170 O   0  0  0  0  0  0  0  0  0  0  0  0
  188.7970  176.9520  139.1840 O   0  0  0  0  0  0  0  0  0  0  0  0
  189.1870  178.2570  139.4610 C   0  0  1  0  0  3  0  0  0  0  0  0
  184.7850  177.9550  143.1350 C   0  0  1  0  0  3  0  0  0  0  0  0
  186.0210  178.6680  139.7810 N   0  0  2  0  0  0  0  0  0  0  0  0
  182.4020  177.8410  141.1980 O   0  0  0  0  0  0  0  0  0  0  0  0
  187.9090  177.9840  143.0580 C   0  0  1  0  0  3  0  0  0  0  0  0
  182.0630  176.1890  139.6620 C   0  0  0  0  0  1  0  0  0  0  0  0
  188.0650  177.9140  138.4740 C   0  0  2  0  0  3  0  0  0  0  0  0
  186.5570  177.7630  138.7040 C   0  0  2  0  0  3  0  0  0  0  0  0
  186.9160  177.1240  143.7910 C   0  0  0  0  0  2  0  0  0  0  0  0
  190.1310  178.9420  143.7110 C   0  0  0  0  0  3  0  0  0  0  0  0
  189.3400  177.8210  143.3490 C   0  0  0  0  0  0  0  0  0  0  0  0
  189.9080  176.5370  143.4110 C   0  0  0  0  0  3  0  0  0  0  0  0
  191.7180  175.1610  143.7570 F   0  0  0  0  0  0  0  0  0  0  0  0
  192.0260  177.5410  144.0580 C   0  0  0  0  0  3  0  0  0  0  0  0
  191.2310  176.4260  143.7510 C   0  0  0  0  0  0  0  0  0  0  0  0
  191.5000  178.7710  144.0320 C   0  0  0  0  0  3  0  0  0  0  0  0
  185.7450  177.9110  137.4310 C   0  0  0  0  0  2  0  0  0  0  0  0
  185.0010  176.7650  136.9410 N   0  0  0  0  0  0  0  0  0  0  0  0
  183.0510  176.0910  135.2360 O   0  0  0  0  0  1  0  0  0  0  0  0
  184.1960  176.8920  135.5760 C   0  0  0  0  0  2  0  0  0  0  0  0
  186.2050  175.7790  136.8270 C   0  0  0  0  0  2  0  0  0  0  0  0
  185.6990  174.2900  136.5240 C   0  0  0  0  0  2  0  0  0  0  0  0
  184.8140  173.8830  137.6410 C   0  0  0  0  0  1  0  0  0  0  0  0
  1 18  1  0  0  0  0
  2 16  1  0  0  0  0
  3  7  1  0  0  0  0
  4  8  1  0  0  0  0
  5  7  1  0  0  0  0
  5  2  1  0  0  0  0
  6  4  1  0  0  0  0
  6  2  1  0  0  0  0
  7 19  1  0  0  0  0
  8 12  1  0  0  0  0
  9 17  1  0  0  0  0
  9  6  1  0  0  0  0
 10  1  1  0  0  0  0
 13  9  1  0  0  0  0
 13  1  1  0  0  0  0
 14 15  1  0  0  0  0
 15  3  1  0  0  0  0
 16 12  1  0  0  0  0
 16 11  1  0  0  0  0
 17  5  1  0  0  0  0
 18  4  1  0  0  0  0
 19 25  1  0  0  0  0
 19 23  1  0  0  0  0
 20  1  1  0  0  0  0
 21 22  1  0  0  0  0
 21 14  1  0  0  0  0
 21 15  1  0  0  0  0
 22 17  1  0  0  0  0
 23 11  1  0  0  0  0
 24 30  1  0  0  0  0
 25 26  1  0  0  0  0
 25 24  2  0  0  0  0
 26 29  2  0  0  0  0
 29 27  1  0  0  0  0
 29 28  1  0  0  0  0
 30 28  2  0  0  0  0
 31 22  1  0  0  0  0
 32 31  1  0  0  0  0
 33 34  1  0  0  0  0
 34 32  1  0  0  0  0
 35 32  1  0  0  0  0
 36 35  1  0  0  0  0
 36 37  1  0  0  0  0
M  END
>  <MODEL>
4

>  <REMARK>
 VINA RESULT:      -6.9      3.362      6.858
  Name = 
  6 active torsions:
  status: ('A' for Active; 'I' for Inactive)
    1  A    between atoms: C_1  and  N_4
    2  A    between atoms: C_1  and  C_27
    3  A    between atoms: N_4  and  C_12
    4  A    between atoms: N_4  and  C_37
    5  A    between atoms: C_8  and  C_12
    6  A    between atoms: C_23  and  C_30
                            x       y       z     vdW  Elec       q    Type
                         _______ _______ _______ _____ _____    ______ ____

>  <TORSDO>
F 6

$$$$
=
 OpenBabel11122411413D

 37 43  0  0  1  0  0  0  0  0999 V2000
  190.5340  178.1850  143.6520 C   0  0  0  0  0  0  0  0  0  0  0  0
  187.1450  177.3760  142.5140 C   0  0  1  0  0  3  0  0  0  0  0  0
  186.5250  177.3350  139.0300 C   0  0  0  0  0  2  0  0  0  0  0  0
  188.9060  176.8510  144.3370 C   0  0  2  0  0  3  0  0  0  0  0  0
  187.5410  178.0590  141.2260 C   0  0  2  0  0  3  0  0  0  0  0  0
  188.3480  176.6290  142.9420 C   0  0  2  0  0  3  0  0  0  0  0  0
  186.4420  178.3360  140.1570 C   0  0  2  0  0  3  0  0  0  0  0  0
  187.6580  176.7800  145.2180 C   0  0  0  0  0  2  0  0  0  0  0  0
  189.4110  177.0230  141.8860 C   0  0  2  0  0  3  0  0  0  0  0  0
  191.6790  177.2230  144.0140 C   0  0  0  0  0  1  0  0  0  0  0  0
  185.1590  178.6650  143.2020 N   0  0  0  0  0  2  0  0  0  0  0  0
  186.6600  177.9010  144.9410 C   0  0  0  0  0  2  0  0  0  0  0  0
  190.1430  178.2160  142.3360 O   0  0  0  0  0  0  0  0  0  0  0  0
  188.0280  178.9720  137.9740 O   0  0  0  0  0  0  0  0  0  0  0  0
  187.3840  177.7490  137.8370 C   0  0  1  0  0  3  0  0  0  0  0  0
  186.5890  178.4260  143.4820 C   0  0  1  0  0  3  0  0  0  0  0  0
  188.6690  177.2450  140.7320 N   0  0  2  0  0  0  0  0  0  0  0  0
  189.4630  178.1160  144.5280 O   0  0  0  0  0  0  0  0  0  0  0  0
  185.0480  178.5330  140.7650 C   0  0  1  0  0  3  0  0  0  0  0  0
  191.1990  179.4820  143.9610 C   0  0  0  0  0  1  0  0  0  0  0  0
  188.8470  177.8760  138.2780 C   0  0  2  0  0  3  0  0  0  0  0  0
  189.4500  177.9900  139.6820 C   0  0  2  0  0  3  0  0  0  0  0  0
  185.0780  179.4520  141.9570 C   0  0  0  0  0  2  0  0  0  0  0  0
  183.5510  177.7440  138.9180 C   0  0  0  0  0  3  0  0  0  0  0  0
  184.0960  178.8080  139.6800 C   0  0  0  0  0  0  0  0  0  0  0  0
  183.6080  180.1110  139.4810 C   0  0  0  0  0  3  0  0  0  0  0  0
  182.2710  181.5980  138.3430 F   0  0  0  0  0  0  0  0  0  0  0  0
  182.1700  179.2650  137.7120 C   0  0  0  0  0  3  0  0  0  0  0  0
  182.6700  180.3120  138.5020 C   0  0  0  0  0  0  0  0  0  0  0  0
  182.6010  178.0120  137.9020 C   0  0  0  0  0  3  0  0  0  0  0  0
  190.9160  177.6010  139.7320 C   0  0  0  0  0  2  0  0  0  0  0  0
  191.5160  176.9890  138.5610 N   0  0  0  0  0  0  0  0  0  0  0  0
  193.8600  176.6710  137.3100 O   0  0  0  0  0  1  0  0  0  0  0  0
  193.0900  176.7790  138.5200 C   0  0  0  0  0  2  0  0  0  0  0  0
  190.7410  175.6360  138.6240 C   0  0  0  0  0  2  0  0  0  0  0  0
  190.8140  174.8690  137.2200 C   0  0  0  0  0  2  0  0  0  0  0  0
  189.7390  173.8480  137.2130 C   0  0  0  0  0  1  0  0  0  0  0  0
  1 20  1  0  0  0  0
  1 10  1  0  0  0  0
  1 18  1  0  0  0  0
  2  6  1  0  0  0  0
  2 16  1  0  0  0  0
  3  7  1  0  0  0  0
  4 18  1  0  0  0  0
  4  8  1  0  0  0  0
  5  2  1  0  0  0  0
  6  4  1  0  0  0  0
  7 19  1  0  0  0  0
  7  5  1  0  0  0  0
  9 13  1  0  0  0  0
  9  6  1  0  0  0  0
 11 16  1  0  0  0  0
 12  8  1  0  0  0  0
 13  1  1  0  0  0  0
 14 21  1  0  0  0  0
 15 14  1  0  0  0  0
 15 21  1  0  0  0  0
 15  3  1  0  0  0  0
 16 12  1  0  0  0  0
 17  5  1  0  0  0  0
 17  9  1  0  0  0  0
 19 23  1  0  0  0  0
 21 22  1  0  0  0  0
 22 31  1  0  0  0  0
 22 17  1  0  0  0  0
 23 11  1  0  0  0  0
 24 25  1  0  0  0  0
 25 19  1  0  0  0  0
 26 25  2  0  0  0  0
 27 29  1  0  0  0  0
 28 30  1  0  0  0  0
 28 29  2  0  0  0  0
 29 26  1  0  0  0  0
 30 24  2  0  0  0  0
 32 35  1  0  0  0  0
 32 31  1  0  0  0  0
 33 34  1  0  0  0  0
 34 32  1  0  0  0  0
 36 35  1  0  0  0  0
 37 36  1  0  0  0  0
M  END
>  <MODEL>
5

>  <REMARK>
 VINA RESULT:      -6.9      2.461      3.432
  Name = 
  6 active torsions:
  status: ('A' for Active; 'I' for Inactive)
    1  A    between atoms: C_1  and  N_4
    2  A    between atoms: C_1  and  C_27
    3  A    between atoms: N_4  and  C_12
    4  A    between atoms: N_4  and  C_37
    5  A    between atoms: C_8  and  C_12
    6  A    between atoms: C_23  and  C_30
                            x       y       z     vdW  Elec       q    Type
                         _______ _______ _______ _____ _____    ______ ____

>  <TORSDO>
F 6

$$$$
=
 OpenBabel11122411413D

 37 43  0  0  1  0  0  0  0  0999 V2000
  185.9930  178.9950  145.8240 C   0  0  0  0  0  0  0  0  0  0  0  0
  186.9730  177.4950  142.6270 C   0  0  1  0  0  3  0  0  0  0  0  0
  190.1740  176.0040  142.3990 C   0  0  0  0  0  2  0  0  0  0  0  0
  184.9570  177.9060  144.1980 C   0  0  2  0  0  3  0  0  0  0  0  0
  188.3900  177.6360  143.1290 C   0  0  2  0  0  3  0  0  0  0  0  0
  186.1810  177.0940  143.8100 C   0  0  2  0  0  3  0  0  0  0  0  0
  189.5650  177.3610  142.1430 C   0  0  2  0  0  3  0  0  0  0  0  0
  184.2300  178.0830  142.8650 C   0  0  0  0  0  2  0  0  0  0  0  0
  187.2150  177.1250  144.9630 C   0  0  2  0  0  3  0  0  0  0  0  0
  185.1780  178.3660  146.9680 C   0  0  0  0  0  1  0  0  0  0  0  0
  187.0350  178.7680  140.5160 N   0  0  0  0  0  2  0  0  0  0  0  0
  185.0200  178.9040  141.8500 C   0  0  0  0  0  2  0  0  0  0  0  0
  187.2340  178.4590  145.5800 O   0  0  0  0  0  0  0  0  0  0  0  0
  191.6810  177.2070  143.9280 O   0  0  0  0  0  0  0  0  0  0  0  0
  191.3580  175.9790  143.3630 C   0  0  1  0  0  3  0  0  0  0  0  0
  186.5670  178.7910  141.9160 C   0  0  1  0  0  3  0  0  0  0  0  0
  188.4150  176.7970  144.3430 N   0  0  2  0  0  0  0  0  0  0  0  0
  185.2560  179.1860  144.6680 O   0  0  0  0  0  0  0  0  0  0  0  0
  189.2060  177.6600  140.6820 C   0  0  1  0  0  3  0  0  0  0  0  0
  186.1880  180.3600  146.3860 C   0  0  0  0  0  1  0  0  0  0  0  0
  190.8900  176.4030  144.7600 C   0  0  2  0  0  3  0  0  0  0  0  0
  189.6110  177.1250  145.1980 C   0  0  2  0  0  3  0  0  0  0  0  0
  188.4950  178.9780  140.5350 C   0  0  0  0  0  2  0  0  0  0  0  0
  191.6880  177.5070  140.3820 C   0  0  0  0  0  3  0  0  0  0  0  0
  190.3820  177.3890  139.8440 C   0  0  0  0  0  0  0  0  0  0  0  0
  190.2220  176.8730  138.5470 C   0  0  0  0  0  3  0  0  0  0  0  0
  191.1160  176.1090  136.5690 F   0  0  0  0  0  0  0  0  0  0  0  0
  192.6400  176.7380  138.3380 C   0  0  0  0  0  3  0  0  0  0  0  0
  191.3460  176.5700  137.8230 C   0  0  0  0  0  0  0  0  0  0  0  0
  192.8160  177.2030  139.5810 C   0  0  0  0  0  3  0  0  0  0  0  0
  189.2870  176.9230  146.6670 C   0  0  0  0  0  2  0  0  0  0  0  0
  189.5770  177.9980  147.5990 N   0  0  0  0  0  0  0  0  0  0  0  0
  187.5550  177.3270  149.2180 O   0  0  0  0  0  1  0  0  0  0  0  0
  188.6030  178.2340  148.8320 C   0  0  0  0  0  2  0  0  0  0  0  0
  190.9870  177.5000  148.0460 C   0  0  0  0  0  2  0  0  0  0  0  0
  191.1740  175.9440  147.7190 C   0  0  0  0  0  2  0  0  0  0  0  0
  192.6150  175.6280  147.8590 C   0  0  0  0  0  1  0  0  0  0  0  0
  1 20  1  0  0  0  0
  1 10  1  0  0  0  0
  2  5  1  0  0  0  0
  2  6  1  0  0  0  0
  3 15  1  0  0  0  0
  4 18  1  0  0  0  0
  5 17  1  0  0  0  0
  6  4  1  0  0  0  0
  6  9  1  0  0  0  0
  7  3  1  0  0  0  0
  7  5  1  0  0  0  0
  8  4  1  0  0  0  0
  9 13  1  0  0  0  0
 11 23  1  0  0  0  0
 11 16  1  0  0  0  0
 12 16  1  0  0  0  0
 12  8  1  0  0  0  0
 13  1  1  0  0  0  0
 14 21  1  0  0  0  0
 15 14  1  0  0  0  0
 15 21  1  0  0  0  0
 16  2  1  0  0  0  0
 17  9  1  0  0  0  0
 17 22  1  0  0  0  0
 18  1  1  0  0  0  0
 19  7  1  0  0  0  0
 21 22  1  0  0  0  0
 22 31  1  0  0  0  0
 23 19  1  0  0  0  0
 25 24  1  0  0  0  0
 25 19  1  0  0  0  0
 26 25  2  0  0  0  0
 27 29  1  0  0  0  0
 28 30  1  0  0  0  0
 29 28  2  0  0  0  0
 29 26  1  0  0  0  0
 30 24  2  0  0  0  0
 31 32  1  0  0  0  0
 32 35  1  0  0  0  0
 32 34  1  0  0  0  0
 34 33  1  0  0  0  0
 36 37  1  0  0  0  0
 36 35  1  0  0  0  0
M  END
>  <MODEL>
6

>  <REMARK>
 VINA RESULT:      -6.7      3.482      7.764
  Name = 
  6 active torsions:
  status: ('A' for Active; 'I' for Inactive)
    1  A    between atoms: C_1  and  N_4
    2  A    between atoms: C_1  and  C_27
    3  A    between atoms: N_4  and  C_12
    4  A    between atoms: N_4  and  C_37
    5  A    between atoms: C_8  and  C_12
    6  A    between atoms: C_23  and  C_30
                            x       y       z     vdW  Elec       q    Type
                         _______ _______ _______ _____ _____    ______ ____

>  <TORSDO>
F 6

$$$$
=
 OpenBabel11122411413D

 37 43  0  0  1  0  0  0  0  0999 V2000
  189.7590  177.0030  141.7220 C   0  0  0  0  0  0  0  0  0  0  0  0
  188.0860  177.6950  138.5350 C   0  0  1  0  0  3  0  0  0  0  0  0
  184.7330  178.8240  138.6260 C   0  0  0  0  0  2  0  0  0  0  0  0
  190.3690  177.8030  139.7500 C   0  0  2  0  0  3  0  0  0  0  0  0
  186.7990  177.5440  139.3120 C   0  0  2  0  0  3  0  0  0  0  0  0
  189.0080  178.4060  139.4470 C   0  0  2  0  0  3  0  0  0  0  0  0
  185.4530  177.5010  138.5290 C   0  0  2  0  0  3  0  0  0  0  0  0
  190.8820  177.4080  138.3650 C   0  0  0  0  0  2  0  0  0  0  0  0
  188.1910  178.5330  140.7580 C   0  0  2  0  0  3  0  0  0  0  0  0
  190.6690  177.9290  142.5480 C   0  0  0  0  0  1  0  0  0  0  0  0
  187.8310  176.0000  136.7630 N   0  0  0  0  0  2  0  0  0  0  0  0
  190.0400  176.3250  137.6960 C   0  0  0  0  0  2  0  0  0  0  0  0
  188.4390  177.3660  141.6160 O   0  0  0  0  0  0  0  0  0  0  0  0
  183.6600  177.8500  140.6150 O   0  0  0  0  0  0  0  0  0  0  0  0
  183.7310  178.9530  139.7710 C   0  0  1  0  0  3  0  0  0  0  0  0
  188.5240  176.3160  138.0270 C   0  0  1  0  0  3  0  0  0  0  0  0
  186.8740  178.6170  140.3230 N   0  0  2  0  0  0  0  0  0  0  0  0
  190.3110  176.6320  140.5080 O   0  0  0  0  0  0  0  0  0  0  0  0
  185.5980  176.9280  137.1140 C   0  0  1  0  0  3  0  0  0  0  0  0
  189.8280  175.7770  142.5660 C   0  0  0  0  0  1  0  0  0  0  0  0
  184.4730  178.8780  141.1110 C   0  0  2  0  0  3  0  0  0  0  0  0
  185.8860  178.3790  141.4330 C   0  0  2  0  0  3  0  0  0  0  0  0
  186.4310  175.6740  137.0960 C   0  0  0  0  0  2  0  0  0  0  0  0
  184.0740  177.5540  135.2270 C   0  0  0  0  0  3  0  0  0  0  0  0
  184.2750  176.9120  136.4750 C   0  0  0  0  0  0  0  0  0  0  0  0
  183.2360  176.1410  137.0220 C   0  0  0  0  0  3  0  0  0  0  0  0
  181.0710  175.3650  136.9610 F   0  0  0  0  0  0  0  0  0  0  0  0
  181.8230  176.7790  135.1480 C   0  0  0  0  0  3  0  0  0  0  0  0
  182.0370  176.1000  136.3580 C   0  0  0  0  0  0  0  0  0  0  0  0
  182.8070  177.4980  134.5960 C   0  0  0  0  0  3  0  0  0  0  0  0
  186.4210  178.9170  142.7470 C   0  0  0  0  0  2  0  0  0  0  0  0
  186.0700  178.2300  143.9770 N   0  0  0  0  0  0  0  0  0  0  0  0
  188.6030  178.2180  144.8410 O   0  0  0  0  0  1  0  0  0  0  0  0
  187.2170  177.8760  145.0180 C   0  0  0  0  0  2  0  0  0  0  0  0
  185.0810  179.3030  144.5300 C   0  0  0  0  0  2  0  0  0  0  0  0
  183.6590  178.6500  144.8700 C   0  0  0  0  0  2  0  0  0  0  0  0
  182.6530  179.2860  143.9870 C   0  0  0  0  0  1  0  0  0  0  0  0
  1 10  1  0  0  0  0
  1 20  1  0  0  0  0
  2  5  1  0  0  0  0
  2  6  1  0  0  0  0
  3 15  1  0  0  0  0
  4 18  1  0  0  0  0
  5 17  1  0  0  0  0
  6  4  1  0  0  0  0
  6  9  1  0  0  0  0
  7  3  1  0  0  0  0
  7  5  1  0  0  0  0
  8  4  1  0  0  0  0
  9 13  1  0  0  0  0
 11 23  1  0  0  0  0
 11 16  1  0  0  0  0
 12 16  1  0  0  0  0
 12  8  1  0  0  0  0
 13  1  1  0  0  0  0
 14 21  1  0  0  0  0
 15 14  1  0  0  0  0
 15 21  1  0  0  0  0
 16  2  1  0  0  0  0
 17  9  1  0  0  0  0
 17 22  1  0  0  0  0
 18  1  1  0  0  0  0
 19  7  1  0  0  0  0
 21 22  1  0  0  0  0
 22 31  1  0  0  0  0
 23 19  1  0  0  0  0
 24 25  1  0  0  0  0
 25 26  2  0  0  0  0
 25 19  1  0  0  0  0
 28 29  2  0  0  0  0
 29 27  1  0  0  0  0
 29 26  1  0  0  0  0
 30 28  1  0  0  0  0
 30 24  2  0  0  0  0
 31 32  1  0  0  0  0
 32 35  1  0  0  0  0
 32 34  1  0  0  0  0
 33 34  1  0  0  0  0
 35 36  1  0  0  0  0
 37 36  1  0  0  0  0
M  END
>  <MODEL>
7

>  <REMARK>
 VINA RESULT:      -6.7      2.995      6.446
  Name = 
  6 active torsions:
  status: ('A' for Active; 'I' for Inactive)
    1  A    between atoms: C_1  and  N_4
    2  A    between atoms: C_1  and  C_27
    3  A    between atoms: N_4  and  C_12
    4  A    between atoms: N_4  and  C_37
    5  A    between atoms: C_8  and  C_12
    6  A    between atoms: C_23  and  C_30
                            x       y       z     vdW  Elec       q    Type
                         _______ _______ _______ _____ _____    ______ ____

>  <TORSDO>
F 6

$$$$
