=
 OpenBabel11122412243D

 34 40  0  0  1  0  0  0  0  0999 V2000
  182.2660  179.0550  143.2800 C   0  0  1  0  0  3  0  0  0  0  0  0
  183.7350  179.0030  145.3880 C   0  0  0  0  0  2  0  0  0  0  0  0
  181.3030  176.5060  137.4010 C   0  0  0  0  0  0  0  0  0  0  0  0
  180.9930  178.9400  141.1380 C   0  0  2  0  0  3  0  0  0  0  0  0
  182.3100  178.1110  139.0330 C   0  0  0  0  0  0  0  0  0  0  0  0
  183.7430  177.0600  137.1700 C   0  0  0  0  0  1  0  0  0  0  0  0
  181.5960  175.2830  137.3100 O   0  0  0  0  0  0  0  0  0  0  0  0
  179.6020  178.2480  137.5900 C   0  0  0  0  0  2  0  0  0  0  0  0
  184.7090  179.0790  143.2430 C   0  0  2  0  0  3  0  0  0  0  0  0
  187.5460  177.6640  142.7080 C   0  0  0  0  0  3  0  0  0  0  0  0
  183.4610  178.2830  139.7070 C   0  0  0  0  0  3  0  0  0  0  0  0
  179.8340  178.5940  139.0280 C   0  0  0  0  0  3  0  0  0  0  0  0
  184.7920  178.4900  141.8310 C   0  0  1  0  0  3  0  0  0  0  0  0
  185.2470  178.9030  145.5800 C   0  0  0  0  0  2  0  0  0  0  0  0
  181.0060  178.5180  139.6820 C   0  0  0  0  0  0  0  0  0  0  0  0
  179.9680  176.8970  137.3480 O   0  0  0  0  0  0  0  0  0  0  0  0
  186.6150  177.5630  143.8930 C   0  0  2  0  0  3  0  0  0  0  0  0
  182.2690  178.4950  141.8530 C   0  0  1  0  0  3  0  0  0  0  0  0
  182.3650  177.5450  137.6230 C   0  0  1  0  0  3  0  0  0  0  0  0
  183.5200  178.9090  141.0690 C   0  0  2  0  0  3  0  0  0  0  0  0
  179.7940  179.0310  143.0720 C   0  0  0  0  0  2  0  0  0  0  0  0
  187.2850  178.2520  141.5240 C   0  0  0  0  0  3  0  0  0  0  0  0
  179.8820  178.3910  141.8160 O   0  0  0  0  0  0  0  0  0  0  0  0
  186.0450  179.0240  141.1540 C   0  0  0  0  0  2  0  0  0  0  0  0
  185.8900  178.8870  144.1850 C   0  0  1  0  0  3  0  0  0  0  0  0
  180.9740  178.6280  143.9690 C   0  0  0  0  0  2  0  0  0  0  0  0
  183.5140  178.5290  143.9740 C   0  0  2  0  0  3  0  0  0  0  0  0
  187.3760  177.1150  145.0530 N   0  0  0  0  0  2  0  0  0  0  0  0
  188.7640  177.0020  144.6350 C   0  0  0  0  0  2  0  0  0  0  0  0
  189.6550  176.7330  147.6520 N   0  0  0  0  0  2  0  0  0  0  0  0
  191.3050  177.1280  145.5880 S   0  0  0  0  0  0  0  0  0  0  0  0
  189.6490  177.8600  145.5220 C   0  0  2  0  0  3  0  0  0  0  0  0
  191.0740  176.7120  147.3420 C   0  0  0  0  0  2  0  0  0  0  0  0
  189.1130  177.8780  146.9400 C   0  0  0  0  0  2  0  0  0  0  0  0
  1 26  1  1  0  0  0
  1 27  1  0  0  0  0
  2 14  1  0  0  0  0
  3 19  1  0  0  0  0
  4 15  1  6  0  0  0
  4 23  1  0  0  0  0
  4 18  1  0  0  0  0
  5 15  1  0  0  0  0
  5 11  2  0  0  0  0
  6 19  1  0  0  0  0
  7  3  2  0  0  0  0
  8 12  1  0  0  0  0
  9 27  1  0  0  0  0
  9 25  1  0  0  0  0
 10 17  1  0  0  0  0
 11 20  1  0  0  0  0
 12 15  2  0  0  0  0
 13  9  1  0  0  0  0
 16  3  1  0  0  0  0
 16  8  1  0  0  0  0
 17 25  1  0  0  0  0
 17 28  1  0  0  0  0
 18  1  1  0  0  0  0
 19  5  1  0  0  0  0
 20 13  1  0  0  0  0
 20 18  1  0  0  0  0
 21 26  1  0  0  0  0
 22 10  2  0  0  0  0
 23 21  1  0  0  0  0
 24 22  1  0  0  0  0
 24 13  1  0  0  0  0
 25 14  1  0  0  0  0
 27  2  1  0  0  0  0
 29 28  1  0  0  0  0
 29 32  1  0  0  0  0
 31 33  1  0  0  0  0
 32 31  1  0  0  0  0
 32 34  1  0  0  0  0
 33 30  1  0  0  0  0
 34 30  1  0  0  0  0
M  END
>  <MODEL>
1

>  <REMARK>
 VINA RESULT:      -9.7      0.000      0.000
  Name = 
  3 active torsions:
  status: ('A' for Active; 'I' for Inactive)
    1  A    between atoms: C_17  and  N_28
    2  A    between atoms: N_28  and  C_29
    3  A    between atoms: C_29  and  C_32
                            x       y       z     vdW  Elec       q    Type
                         _______ _______ _______ _____ _____    ______ ____

>  <TORSDO>
F 3

$$$$
=
 OpenBabel11122412243D

 34 40  0  0  1  0  0  0  0  0999 V2000
  188.4220  177.6210  143.0580 C   0  0  1  0  0  3  0  0  0  0  0  0
  190.7880  176.7300  142.5930 C   0  0  0  0  0  2  0  0  0  0  0  0
  182.3570  178.0340  140.8160 C   0  0  0  0  0  0  0  0  0  0  0  0
  186.0640  178.3990  143.2880 C   0  0  2  0  0  3  0  0  0  0  0  0
  184.7310  178.7790  141.0680 C   0  0  0  0  0  0  0  0  0  0  0  0
  183.5640  178.8600  138.7740 C   0  0  0  0  0  1  0  0  0  0  0  0
  181.9760  177.0290  140.1560 O   0  0  0  0  0  0  0  0  0  0  0  0
  182.3210  179.3160  142.8950 C   0  0  0  0  0  2  0  0  0  0  0  0
  189.5900  177.8910  140.9280 C   0  0  2  0  0  3  0  0  0  0  0  0
  190.0240  177.1670  137.8260 C   0  0  0  0  0  3  0  0  0  0  0  0
  185.8880  178.7250  140.3840 C   0  0  0  0  0  3  0  0  0  0  0  0
  183.7000  178.9700  143.3620 C   0  0  0  0  0  3  0  0  0  0  0  0
  188.2940  178.0410  140.1240 C   0  0  1  0  0  3  0  0  0  0  0  0
  191.6380  176.6960  141.3250 C   0  0  0  0  0  2  0  0  0  0  0  0
  184.7610  178.7100  142.5780 C   0  0  0  0  0  0  0  0  0  0  0  0
  181.8100  178.2760  142.0730 O   0  0  0  0  0  0  0  0  0  0  0  0
  190.4740  176.4360  139.0690 C   0  0  2  0  0  3  0  0  0  0  0  0
  187.0870  177.7950  142.3260 C   0  0  1  0  0  3  0  0  0  0  0  0
  183.4320  178.9440  140.2950 C   0  0  1  0  0  3  0  0  0  0  0  0
  187.2260  178.6440  141.0570 C   0  0  2  0  0  3  0  0  0  0  0  0
  187.0470  177.4620  145.1160 C   0  0  0  0  0  2  0  0  0  0  0  0
  189.1750  178.2110  137.7660 C   0  0  0  0  0  3  0  0  0  0  0  0
  185.8590  177.4950  144.3540 O   0  0  0  0  0  0  0  0  0  0  0  0
  188.5630  178.9450  138.9310 C   0  0  0  0  0  2  0  0  0  0  0  0
  190.8400  177.3940  140.2140 C   0  0  1  0  0  3  0  0  0  0  0  0
  188.1820  176.8010  144.3210 C   0  0  0  0  0  2  0  0  0  0  0  0
  189.3850  176.9530  142.0880 C   0  0  2  0  0  3  0  0  0  0  0  0
  191.5970  175.5730  138.7290 N   0  0  0  0  0  2  0  0  0  0  0  0
  192.3800  176.2700  137.7210 C   0  0  0  0  0  2  0  0  0  0  0  0
  195.1660  176.0860  136.2470 N   0  0  0  0  0  2  0  0  0  0  0  0
  194.0020  174.0940  137.5940 S   0  0  0  0  0  0  0  0  0  0  0  0
  192.9460  175.2780  136.7190 C   0  0  2  0  0  3  0  0  0  0  0  0
  195.4750  174.7660  136.7670 C   0  0  0  0  0  2  0  0  0  0  0  0
  193.8210  175.9920  135.7080 C   0  0  0  0  0  2  0  0  0  0  0  0
  1 26  1  1  0  0  0
  3 16  1  0  0  0  0
  4 15  1  6  0  0  0
  4 23  1  0  0  0  0
  5 15  1  0  0  0  0
  6 19  1  0  0  0  0
  7  3  2  0  0  0  0
  8 12  1  0  0  0  0
  9 27  1  0  0  0  0
 10 17  1  0  0  0  0
 11 20  1  0  0  0  0
 11  5  2  0  0  0  0
 13  9  1  0  0  0  0
 13 20  1  0  0  0  0
 14  2  1  0  0  0  0
 15 12  2  0  0  0  0
 16  8  1  0  0  0  0
 17 25  1  0  0  0  0
 18  1  1  0  0  0  0
 18  4  1  0  0  0  0
 19  3  1  0  0  0  0
 19  5  1  0  0  0  0
 20 18  1  0  0  0  0
 22 10  2  0  0  0  0
 22 24  1  0  0  0  0
 23 21  1  0  0  0  0
 24 13  1  0  0  0  0
 25  9  1  0  0  0  0
 25 14  1  0  0  0  0
 26 21  1  0  0  0  0
 27  2  1  0  0  0  0
 27  1  1  0  0  0  0
 28 17  1  0  0  0  0
 29 28  1  0  0  0  0
 30 33  1  0  0  0  0
 32 31  1  0  0  0  0
 32 29  1  0  0  0  0
 33 31  1  0  0  0  0
 34 30  1  0  0  0  0
 34 32  1  0  0  0  0
M  END
>  <MODEL>
2

>  <REMARK>
 VINA RESULT:      -8.7      4.735      6.741
  Name = 
  3 active torsions:
  status: ('A' for Active; 'I' for Inactive)
    1  A    between atoms: C_17  and  N_28
    2  A    between atoms: N_28  and  C_29
    3  A    between atoms: C_29  and  C_32
                            x       y       z     vdW  Elec       q    Type
                         _______ _______ _______ _____ _____    ______ ____

>  <TORSDO>
F 3

$$$$
=
 OpenBabel11122412243D

 34 40  0  0  1  0  0  0  0  0999 V2000
  182.2170  179.0500  142.1460 C   0  0  1  0  0  3  0  0  0  0  0  0
  182.8810  179.0550  144.6290 C   0  0  0  0  0  2  0  0  0  0  0  0
  183.3160  176.3660  136.3510 C   0  0  0  0  0  0  0  0  0  0  0  0
  181.7500  178.8770  139.7030 C   0  0  2  0  0  3  0  0  0  0  0  0
  183.7050  178.0150  138.1910 C   0  0  0  0  0  0  0  0  0  0  0  0
  185.6880  176.9350  136.9520 C   0  0  0  0  0  1  0  0  0  0  0  0
  183.6230  175.1440  136.3940 O   0  0  0  0  0  0  0  0  0  0  0  0
  181.6510  178.0980  135.9100 C   0  0  0  0  0  2  0  0  0  0  0  0
  184.5270  179.0930  142.9430 C   0  0  2  0  0  3  0  0  0  0  0  0
  187.3770  177.6910  143.4380 C   0  0  0  0  0  3  0  0  0  0  0  0
  184.5580  178.2110  139.2130 C   0  0  0  0  0  3  0  0  0  0  0  0
  181.3790  178.4760  137.3320 C   0  0  0  0  0  3  0  0  0  0  0  0
  185.0860  178.4740  141.6570 C   0  0  1  0  0  3  0  0  0  0  0  0
  184.2370  178.9720  145.3260 C   0  0  0  0  0  2  0  0  0  0  0  0
  182.2580  178.4240  138.3480 C   0  0  0  0  0  0  0  0  0  0  0  0
  182.0790  176.7440  135.8380 O   0  0  0  0  0  0  0  0  0  0  0  0
  186.0990  177.6080  144.2380 C   0  0  2  0  0  3  0  0  0  0  0  0
  182.7070  178.4590  140.8190 C   0  0  1  0  0  3  0  0  0  0  0  0
  184.2380  177.4180  136.8980 C   0  0  1  0  0  3  0  0  0  0  0  0
  184.1490  178.8660  140.4980 C   0  0  2  0  0  3  0  0  0  0  0  0
  179.9640  179.0000  141.1100 C   0  0  0  0  0  2  0  0  0  0  0  0
  187.5350  178.2510  142.2230 C   0  0  0  0  0  3  0  0  0  0  0  0
  180.4750  178.3340  139.9740 O   0  0  0  0  0  0  0  0  0  0  0  0
  186.4950  179.0040  141.4350 C   0  0  0  0  0  2  0  0  0  0  0  0
  185.3170  178.9310  144.2350 C   0  0  1  0  0  3  0  0  0  0  0  0
  180.7680  178.6260  142.3630 C   0  0  0  0  0  2  0  0  0  0  0  0
  183.1540  178.5490  143.2360 C   0  0  2  0  0  3  0  0  0  0  0  0
  186.4190  177.1920  145.5970 N   0  0  0  0  0  2  0  0  0  0  0  0
  187.8230  177.5010  145.8190 C   0  0  0  0  0  2  0  0  0  0  0  0
  190.4300  177.8930  147.5540 N   0  0  0  0  0  2  0  0  0  0  0  0
  187.9310  177.9470  148.4970 S   0  0  0  0  0  0  0  0  0  0  0  0
  188.3050  176.8500  147.1040 C   0  0  2  0  0  3  0  0  0  0  0  0
  189.7030  178.2520  148.7590 C   0  0  0  0  0  2  0  0  0  0  0  0
  189.8100  176.6720  147.0700 C   0  0  0  0  0  2  0  0  0  0  0  0
  1 26  1  1  0  0  0
  1 27  1  0  0  0  0
  2 14  1  0  0  0  0
  3  7  2  0  0  0  0
  3 19  1  0  0  0  0
  4 15  1  6  0  0  0
  4 23  1  0  0  0  0
  4 18  1  0  0  0  0
  5 15  1  0  0  0  0
  5 11  2  0  0  0  0
  8 12  1  0  0  0  0
  9 27  1  0  0  0  0
  9 25  1  0  0  0  0
 10 17  1  0  0  0  0
 11 20  1  0  0  0  0
 12 15  2  0  0  0  0
 13  9  1  0  0  0  0
 16  8  1  0  0  0  0
 16  3  1  0  0  0  0
 17 28  1  0  0  0  0
 18  1  1  0  0  0  0
 19  6  1  0  0  0  0
 19  5  1  0  0  0  0
 20 18  1  0  0  0  0
 20 13  1  0  0  0  0
 21 26  1  0  0  0  0
 22 10  2  0  0  0  0
 23 21  1  0  0  0  0
 24 13  1  0  0  0  0
 24 22  1  0  0  0  0
 25 17  1  0  0  0  0
 25 14  1  0  0  0  0
 27  2  1  0  0  0  0
 28 29  1  0  0  0  0
 29 32  1  0  0  0  0
 30 33  1  0  0  0  0
 31 33  1  0  0  0  0
 32 31  1  0  0  0  0
 34 32  1  0  0  0  0
 34 30  1  0  0  0  0
M  END
>  <MODEL>
3

>  <REMARK>
 VINA RESULT:      -8.6      1.494      1.765
  Name = 
  3 active torsions:
  status: ('A' for Active; 'I' for Inactive)
    1  A    between atoms: C_17  and  N_28
    2  A    between atoms: N_28  and  C_29
    3  A    between atoms: C_29  and  C_32
                            x       y       z     vdW  Elec       q    Type
                         _______ _______ _______ _____ _____    ______ ____

>  <TORSDO>
F 3

$$$$
=
 OpenBabel11122412243D

 34 40  0  0  1  0  0  0  0  0999 V2000
  187.9560  177.7210  143.4070 C   0  0  1  0  0  3  0  0  0  0  0  0
  190.3440  176.8380  143.0530 C   0  0  0  0  0  2  0  0  0  0  0  0
  181.9860  178.0670  140.9120 C   0  0  0  0  0  0  0  0  0  0  0  0
  185.5860  178.4880  143.5290 C   0  0  2  0  0  3  0  0  0  0  0  0
  184.3440  178.8290  141.2510 C   0  0  0  0  0  0  0  0  0  0  0  0
  183.2720  178.8720  138.9090 C   0  0  0  0  0  1  0  0  0  0  0  0
  181.6390  177.0510  140.2510 O   0  0  0  0  0  0  0  0  0  0  0  0
  181.8580  179.3770  142.9690 C   0  0  0  0  0  2  0  0  0  0  0  0
  189.2090  177.9690  141.3240 C   0  0  2  0  0  3  0  0  0  0  0  0
  189.7750  177.2040  138.2530 C   0  0  0  0  0  3  0  0  0  0  0  0
  185.5290  178.7730  140.6160 C   0  0  0  0  0  3  0  0  0  0  0  0
  183.2190  179.0470  143.4970 C   0  0  0  0  0  3  0  0  0  0  0  0
  187.9470  178.0990  140.4650 C   0  0  1  0  0  3  0  0  0  0  0  0
  191.2450  176.7920  141.8220 C   0  0  0  0  0  2  0  0  0  0  0  0
  184.3120  178.7810  142.7610 C   0  0  0  0  0  0  0  0  0  0  0  0
  181.3870  178.3230  142.1420 O   0  0  0  0  0  0  0  0  0  0  0  0
  190.1770  176.4930  139.5240 C   0  0  2  0  0  3  0  0  0  0  0  0
  186.6510  177.8770  142.6180 C   0  0  1  0  0  3  0  0  0  0  0  0
  183.0770  178.9760  140.4220 C   0  0  1  0  0  3  0  0  0  0  0  0
  186.8380  178.7100  141.3440 C   0  0  2  0  0  3  0  0  0  0  0  0
  186.4980  177.5830  145.4090 C   0  0  0  0  0  2  0  0  0  0  0  0
  188.9240  178.2430  138.1430 C   0  0  0  0  0  3  0  0  0  0  0  0
  185.3420  177.5980  144.5980 O   0  0  0  0  0  0  0  0  0  0  0  0
  188.2610  178.9890  139.2710 C   0  0  0  0  0  2  0  0  0  0  0  0
  190.4900  177.4700  140.6690 C   0  0  1  0  0  3  0  0  0  0  0  0
  187.6690  176.9180  144.6710 C   0  0  0  0  0  2  0  0  0  0  0  0
  188.9620  177.0450  142.4870 C   0  0  2  0  0  3  0  0  0  0  0  0
  191.3180  175.6320  139.2420 N   0  0  0  0  0  2  0  0  0  0  0  0
  192.0770  176.2660  138.1760 C   0  0  0  0  0  2  0  0  0  0  0  0
  191.4910  174.4780  135.6410 N   0  0  0  0  0  2  0  0  0  0  0  0
  193.6570  176.0040  135.9810 S   0  0  0  0  0  0  0  0  0  0  0  0
  192.9090  175.2300  137.4380 C   0  0  2  0  0  3  0  0  0  0  0  0
  192.6190  174.9920  134.8850 C   0  0  0  0  0  2  0  0  0  0  0  0
  192.0240  174.1050  136.9400 C   0  0  0  0  0  2  0  0  0  0  0  0
  1 26  1  1  0  0  0
  3 16  1  0  0  0  0
  4 15  1  6  0  0  0
  4 23  1  0  0  0  0
  5 15  1  0  0  0  0
  6 19  1  0  0  0  0
  7  3  2  0  0  0  0
  8 12  1  0  0  0  0
  9 27  1  0  0  0  0
 10 17  1  0  0  0  0
 11  5  2  0  0  0  0
 11 20  1  0  0  0  0
 13  9  1  0  0  0  0
 13 20  1  0  0  0  0
 14  2  1  0  0  0  0
 15 12  2  0  0  0  0
 16  8  1  0  0  0  0
 17 25  1  0  0  0  0
 18  1  1  0  0  0  0
 18  4  1  0  0  0  0
 19  3  1  0  0  0  0
 19  5  1  0  0  0  0
 20 18  1  0  0  0  0
 22 10  2  0  0  0  0
 22 24  1  0  0  0  0
 23 21  1  0  0  0  0
 24 13  1  0  0  0  0
 25  9  1  0  0  0  0
 25 14  1  0  0  0  0
 26 21  1  0  0  0  0
 27  2  1  0  0  0  0
 27  1  1  0  0  0  0
 28 17  1  0  0  0  0
 29 28  1  0  0  0  0
 30 34  1  0  0  0  0
 31 32  1  0  0  0  0
 32 29  1  0  0  0  0
 33 30  1  0  0  0  0
 33 31  1  0  0  0  0
 34 32  1  0  0  0  0
M  END
>  <MODEL>
4

>  <REMARK>
 VINA RESULT:      -8.3      4.388      6.469
  Name = 
  3 active torsions:
  status: ('A' for Active; 'I' for Inactive)
    1  A    between atoms: C_17  and  N_28
    2  A    between atoms: N_28  and  C_29
    3  A    between atoms: C_29  and  C_32
                            x       y       z     vdW  Elec       q    Type
                         _______ _______ _______ _____ _____    ______ ____

>  <TORSDO>
F 3

$$$$
=
 OpenBabel11122412243D

 34 40  0  0  1  0  0  0  0  0999 V2000
  186.0110  178.6200  143.0210 C   0  0  1  0  0  3  0  0  0  0  0  0
  188.4640  178.1190  142.4380 C   0  0  0  0  0  2  0  0  0  0  0  0
  179.8290  177.4070  141.5060 C   0  0  0  0  0  0  0  0  0  0  0  0
  183.5700  178.9650  143.3940 C   0  0  2  0  0  3  0  0  0  0  0  0
  182.0050  178.6250  141.3230 C   0  0  0  0  0  0  0  0  0  0  0  0
  180.6600  178.0140  139.2140 C   0  0  0  0  0  1  0  0  0  0  0  0
  179.6150  176.2350  141.0920 O   0  0  0  0  0  0  0  0  0  0  0  0
  179.6990  179.0540  143.3040 C   0  0  0  0  0  2  0  0  0  0  0  0
  186.9130  178.6680  140.7500 C   0  0  2  0  0  3  0  0  0  0  0  0
  187.2280  177.4230  137.8030 C   0  0  0  0  0  3  0  0  0  0  0  0
  183.0870  178.6530  140.5240 C   0  0  0  0  0  3  0  0  0  0  0  0
  181.1540  179.0790  143.6530 C   0  0  0  0  0  3  0  0  0  0  0  0
  185.5520  178.4010  140.0980 C   0  0  1  0  0  3  0  0  0  0  0  0
  189.1930  177.9900  141.1020 C   0  0  0  0  0  2  0  0  0  0  0  0
  182.1760  178.8710  142.8050 C   0  0  0  0  0  0  0  0  0  0  0  0
  179.3510  177.7900  142.7560 O   0  0  0  0  0  0  0  0  0  0  0  0
  187.9250  177.0600  139.0930 C   0  0  2  0  0  3  0  0  0  0  0  0
  184.6130  178.3840  142.4390 C   0  0  1  0  0  3  0  0  0  0  0  0
  180.6410  178.3790  140.6990 C   0  0  1  0  0  3  0  0  0  0  0  0
  184.4630  178.9680  141.0290 C   0  0  2  0  0  3  0  0  0  0  0  0
  184.8780  178.6250  145.2270 C   0  0  0  0  0  2  0  0  0  0  0  0
  186.1770  178.2530  137.6580 C   0  0  0  0  0  3  0  0  0  0  0  0
  183.6500  178.2750  144.6240 O   0  0  0  0  0  0  0  0  0  0  0  0
  185.5240  179.0780  138.7360 C   0  0  0  0  0  2  0  0  0  0  0  0
  188.1750  178.2830  139.9890 C   0  0  1  0  0  3  0  0  0  0  0  0
  186.0560  178.0440  144.4320 C   0  0  0  0  0  2  0  0  0  0  0  0
  187.0090  177.9630  142.0770 C   0  0  2  0  0  3  0  0  0  0  0  0
  189.1720  176.3750  138.7800 N   0  0  0  0  0  2  0  0  0  0  0  0
  189.2810  176.3290  137.3300 C   0  0  0  0  0  2  0  0  0  0  0  0
  191.7760  174.5030  137.9690 N   0  0  0  0  0  2  0  0  0  0  0  0
  191.0150  175.2710  135.5250 S   0  0  0  0  0  0  0  0  0  0  0  0
  190.7400  176.4050  136.9120 C   0  0  2  0  0  3  0  0  0  0  0  0
  192.0520  174.2080  136.5730 C   0  0  0  0  0  2  0  0  0  0  0  0
  191.6360  175.9470  138.0460 C   0  0  0  0  0  2  0  0  0  0  0  0
  1 26  1  1  0  0  0
  3 16  1  0  0  0  0
  4 15  1  6  0  0  0
  4 23  1  0  0  0  0
  5 15  1  0  0  0  0
  6 19  1  0  0  0  0
  7  3  2  0  0  0  0
  8 12  1  0  0  0  0
  9 27  1  0  0  0  0
 10 17  1  0  0  0  0
 11 20  1  0  0  0  0
 11  5  2  0  0  0  0
 13  9  1  0  0  0  0
 13 20  1  0  0  0  0
 14  2  1  0  0  0  0
 15 12  2  0  0  0  0
 16  8  1  0  0  0  0
 17 25  1  0  0  0  0
 18  1  1  0  0  0  0
 18  4  1  0  0  0  0
 19  5  1  0  0  0  0
 19  3  1  0  0  0  0
 20 18  1  0  0  0  0
 22 10  2  0  0  0  0
 22 24  1  0  0  0  0
 23 21  1  0  0  0  0
 24 13  1  0  0  0  0
 25  9  1  0  0  0  0
 25 14  1  0  0  0  0
 26 21  1  0  0  0  0
 27  2  1  0  0  0  0
 27  1  1  0  0  0  0
 28 17  1  0  0  0  0
 29 28  1  0  0  0  0
 30 34  1  0  0  0  0
 31 33  1  0  0  0  0
 31 32  1  0  0  0  0
 32 29  1  0  0  0  0
 32 34  1  0  0  0  0
 33 30  1  0  0  0  0
M  END
>  <MODEL>
5

>  <REMARK>
 VINA RESULT:      -8.1      3.723      5.616
  Name = 
  3 active torsions:
  status: ('A' for Active; 'I' for Inactive)
    1  A    between atoms: C_17  and  N_28
    2  A    between atoms: N_28  and  C_29
    3  A    between atoms: C_29  and  C_32
                            x       y       z     vdW  Elec       q    Type
                         _______ _______ _______ _____ _____    ______ ____

>  <TORSDO>
F 3

$$$$
=
 OpenBabel11122412243D

 34 40  0  0  1  0  0  0  0  0999 V2000
  189.0630  177.5790  138.1170 C   0  0  1  0  0  3  0  0  0  0  0  0
  187.3780  178.2160  139.9510 C   0  0  0  0  0  2  0  0  0  0  0  0
  193.9320  173.6180  136.5090 C   0  0  0  0  0  0  0  0  0  0  0  0
  190.7900  176.7980  136.4970 C   0  0  2  0  0  3  0  0  0  0  0  0
  192.9280  175.6790  137.5090 C   0  0  0  0  0  0  0  0  0  0  0  0
  194.8180  174.4160  138.7200 C   0  0  0  0  0  1  0  0  0  0  0  0
  193.8390  172.4560  136.9920 O   0  0  0  0  0  0  0  0  0  0  0  0
  193.7140  175.1170  134.5940 C   0  0  0  0  0  2  0  0  0  0  0  0
  189.6580  177.9130  140.4640 C   0  0  2  0  0  3  0  0  0  0  0  0
  190.5300  176.7970  143.3490 C   0  0  0  0  0  3  0  0  0  0  0  0
  192.5830  176.1540  138.7190 C   0  0  0  0  0  3  0  0  0  0  0  0
  192.4670  175.8180  135.0330 C   0  0  0  0  0  3  0  0  0  0  0  0
  190.9040  177.0250  140.3760 C   0  0  1  0  0  3  0  0  0  0  0  0
  187.5190  178.3620  141.4640 C   0  0  0  0  0  2  0  0  0  0  0  0
  192.0950  176.0520  136.3030 C   0  0  0  0  0  0  0  0  0  0  0  0
  193.7570  173.8070  135.1410 O   0  0  0  0  0  0  0  0  0  0  0  0
  189.1680  176.8560  142.6980 C   0  0  2  0  0  3  0  0  0  0  0  0
  190.3100  176.7050  137.9450 C   0  0  1  0  0  3  0  0  0  0  0  0
  194.1710  174.8090  137.3910 C   0  0  1  0  0  3  0  0  0  0  0  0
  191.4250  177.0840  138.9270 C   0  0  2  0  0  3  0  0  0  0  0  0
  188.6930  177.1830  135.6970 C   0  0  0  0  0  2  0  0  0  0  0  0
  191.7160  177.0510  142.7650 C   0  0  0  0  0  3  0  0  0  0  0  0
  189.7810  176.2830  135.6530 O   0  0  0  0  0  0  0  0  0  0  0  0
  191.9420  177.5450  141.3590 C   0  0  0  0  0  2  0  0  0  0  0  0
  188.9910  178.1040  141.8190 C   0  0  1  0  0  3  0  0  0  0  0  0
  188.0260  177.1590  137.0800 C   0  0  0  0  0  2  0  0  0  0  0  0
  188.5790  177.3980  139.5490 C   0  0  2  0  0  3  0  0  0  0  0  0
  188.1460  176.7960  143.7350 N   0  0  0  0  0  2  0  0  0  0  0  0
  188.6430  177.5590  144.8690 C   0  0  0  0  0  2  0  0  0  0  0  0
  189.4750  178.0440  147.8750 N   0  0  0  0  0  2  0  0  0  0  0  0
  186.9640  177.9600  146.9670 S   0  0  0  0  0  0  0  0  0  0  0  0
  188.2070  176.9090  146.1700 C   0  0  2  0  0  3  0  0  0  0  0  0
  188.1230  178.3460  148.3120 C   0  0  0  0  0  2  0  0  0  0  0  0
  189.3790  176.8040  147.1250 C   0  0  0  0  0  2  0  0  0  0  0  0
  1 26  1  6  0  0  0
  1 27  1  0  0  0  0
  2 14  1  0  0  0  0
  3  7  2  0  0  0  0
  3 19  1  0  0  0  0
  4 23  1  6  0  0  0
  4 18  1  0  0  0  0
  5 11  2  0  0  0  0
  8 12  1  0  0  0  0
  8 16  1  0  0  0  0
  9 25  1  0  0  0  0
 11 20  1  0  0  0  0
 12 15  2  0  0  0  0
 13  9  1  0  0  0  0
 13 24  1  0  0  0  0
 14 25  1  0  0  0  0
 15  4  1  0  0  0  0
 15  5  1  0  0  0  0
 16  3  1  0  0  0  0
 17 10  1  0  0  0  0
 17 28  1  0  0  0  0
 18  1  1  0  0  0  0
 18 20  1  0  0  0  0
 19  5  1  0  0  0  0
 19  6  1  0  0  0  0
 20 13  1  0  0  0  0
 21 26  1  0  0  0  0
 22 10  2  0  0  0  0
 23 21  1  0  0  0  0
 24 22  1  0  0  0  0
 25 17  1  0  0  0  0
 27  2  1  0  0  0  0
 27  9  1  0  0  0  0
 28 29  1  0  0  0  0
 29 32  1  0  0  0  0
 30 33  1  0  0  0  0
 31 33  1  0  0  0  0
 32 31  1  0  0  0  0
 32 34  1  0  0  0  0
 34 30  1  0  0  0  0
M  END
>  <MODEL>
6

>  <REMARK>
 VINA RESULT:      -8.1      5.970      8.767
  Name = 
  3 active torsions:
  status: ('A' for Active; 'I' for Inactive)
    1  A    between atoms: C_17  and  N_28
    2  A    between atoms: N_28  and  C_29
    3  A    between atoms: C_29  and  C_32
                            x       y       z     vdW  Elec       q    Type
                         _______ _______ _______ _____ _____    ______ ____

>  <TORSDO>
F 3

$$$$
=
 OpenBabel11122412243D

 34 40  0  0  1  0  0  0  0  0999 V2000
  185.5330  178.3790  143.1410 C   0  0  1  0  0  3  0  0  0  0  0  0
  185.3730  178.9160  140.6320 C   0  0  0  0  0  2  0  0  0  0  0  0
  189.4410  178.2010  148.3060 C   0  0  0  0  0  0  0  0  0  0  0  0
  185.9270  177.9080  145.5580 C   0  0  2  0  0  3  0  0  0  0  0  0
  188.3700  177.2700  146.2470 C   0  0  0  0  0  0  0  0  0  0  0  0
  190.8740  176.8920  146.7110 C   0  0  0  0  0  1  0  0  0  0  0  0
  190.3230  179.1020  148.3230 O   0  0  0  0  0  0  0  0  0  0  0  0
  187.3110  177.3330  149.1290 C   0  0  0  0  0  2  0  0  0  0  0  0
  187.1400  177.6020  141.4720 C   0  0  2  0  0  3  0  0  0  0  0  0
  190.0300  177.6960  140.0680 C   0  0  0  0  0  3  0  0  0  0  0  0
  188.6660  177.0760  144.9490 C   0  0  0  0  0  3  0  0  0  0  0  0
  186.4990  177.6120  147.9040 C   0  0  0  0  0  3  0  0  0  0  0  0
  188.2730  177.4450  142.4930 C   0  0  1  0  0  3  0  0  0  0  0  0
  186.3110  178.6280  139.4630 C   0  0  0  0  0  2  0  0  0  0  0  0
  186.9490  177.6120  146.6370 C   0  0  0  0  0  0  0  0  0  0  0  0
  188.3910  178.2530  149.2180 O   0  0  0  0  0  0  0  0  0  0  0  0
  188.8280  178.5910  139.8820 C   0  0  2  0  0  3  0  0  0  0  0  0
  186.6060  178.2150  144.2230 C   0  0  1  0  0  3  0  0  0  0  0  0
  189.4710  177.1030  147.2820 C   0  0  1  0  0  3  0  0  0  0  0  0
  187.6350  177.1370  143.8620 C   0  0  2  0  0  3  0  0  0  0  0  0
  184.0400  179.0560  145.0020 C   0  0  0  0  0  2  0  0  0  0  0  0
  190.1970  176.7530  141.0150 C   0  0  0  0  0  3  0  0  0  0  0  0
  185.1170  179.0090  145.9150 O   0  0  0  0  0  0  0  0  0  0  0  0
  189.1830  176.3130  142.0390 C   0  0  0  0  0  2  0  0  0  0  0  0
  187.5010  177.8250  140.0100 C   0  0  1  0  0  3  0  0  0  0  0  0
  184.5350  179.4370  143.6000 C   0  0  0  0  0  2  0  0  0  0  0  0
  186.2470  178.7530  141.8500 C   0  0  2  0  0  3  0  0  0  0  0  0
  188.9280  179.2540  138.5890 N   0  0  0  0  0  2  0  0  0  0  0  0
  189.5360  178.3060  137.6690 C   0  0  0  0  0  2  0  0  0  0  0  0
  189.8130  176.5770  135.0420 N   0  0  0  0  0  2  0  0  0  0  0  0
  187.9710  176.2070  136.9420 S   0  0  0  0  0  0  0  0  0  0  0  0
  188.5350  177.8960  136.6030 C   0  0  2  0  0  3  0  0  0  0  0  0
  188.8150  175.6040  135.4500 C   0  0  0  0  0  2  0  0  0  0  0  0
  189.1970  177.8780  135.2390 C   0  0  0  0  0  2  0  0  0  0  0  0
  1 26  1  1  0  0  0
  1 18  1  0  0  0  0
  2 27  1  0  0  0  0
  3  7  2  0  0  0  0
  3 16  1  0  0  0  0
  4 23  1  1  0  0  0
  4 15  1  0  0  0  0
  5 15  1  0  0  0  0
  5 19  1  0  0  0  0
  6 19  1  0  0  0  0
  8 16  1  0  0  0  0
  9 27  1  0  0  0  0
  9 13  1  0  0  0  0
 10 22  2  0  0  0  0
 11  5  2  0  0  0  0
 12  8  1  0  0  0  0
 13 20  1  0  0  0  0
 14 25  1  0  0  0  0
 14  2  1  0  0  0  0
 15 12  2  0  0  0  0
 17 25  1  0  0  0  0
 17 10  1  0  0  0  0
 18  4  1  0  0  0  0
 19  3  1  0  0  0  0
 20 18  1  0  0  0  0
 20 11  1  0  0  0  0
 21 23  1  0  0  0  0
 22 24  1  0  0  0  0
 24 13  1  0  0  0  0
 25  9  1  0  0  0  0
 26 21  1  0  0  0  0
 27  1  1  0  0  0  0
 28 17  1  0  0  0  0
 29 28  1  0  0  0  0
 30 34  1  0  0  0  0
 30 33  1  0  0  0  0
 32 31  1  0  0  0  0
 32 29  1  0  0  0  0
 33 31  1  0  0  0  0
 34 32  1  0  0  0  0
M  END
>  <MODEL>
7

>  <REMARK>
 VINA RESULT:      -8.0      4.678      8.630
  Name = 
  3 active torsions:
  status: ('A' for Active; 'I' for Inactive)
    1  A    between atoms: C_17  and  N_28
    2  A    between atoms: N_28  and  C_29
    3  A    between atoms: C_29  and  C_32
                            x       y       z     vdW  Elec       q    Type
                         _______ _______ _______ _____ _____    ______ ____

>  <TORSDO>
F 3

$$$$
=
 OpenBabel11122412243D

 34 40  0  0  1  0  0  0  0  0999 V2000
  183.7540  178.3830  144.2380 C   0  0  1  0  0  3  0  0  0  0  0  0
  181.5000  179.1920  143.3050 C   0  0  0  0  0  2  0  0  0  0  0  0
  190.1950  178.7020  143.6100 C   0  0  0  0  0  0  0  0  0  0  0  0
  186.0480  177.7220  144.9610 C   0  0  2  0  0  3  0  0  0  0  0  0
  187.9190  177.7850  143.1320 C   0  0  0  0  0  0  0  0  0  0  0  0
  189.6180  178.1430  141.2300 C   0  0  0  0  0  1  0  0  0  0  0  0
  190.6250  179.8210  143.2190 O   0  0  0  0  0  0  0  0  0  0  0  0
  189.8430  177.1090  145.4270 C   0  0  0  0  0  2  0  0  0  0  0  0
  183.1810  178.3880  141.8630 C   0  0  2  0  0  3  0  0  0  0  0  0
  183.4570  179.5730  138.8870 C   0  0  0  0  0  3  0  0  0  0  0  0
  186.9670  177.8780  142.1860 C   0  0  0  0  0  3  0  0  0  0  0  0
  188.3640  177.2910  145.5650 C   0  0  0  0  0  3  0  0  0  0  0  0
  184.6440  178.4480  141.4090 C   0  0  1  0  0  3  0  0  0  0  0  0
  180.9900  179.3770  141.8780 C   0  0  0  0  0  2  0  0  0  0  0  0
  187.5100  177.6090  144.5770 C   0  0  0  0  0  0  0  0  0  0  0  0
  190.4360  178.2960  144.9200 O   0  0  0  0  0  0  0  0  0  0  0  0
  182.6440  180.0660  140.0600 C   0  0  2  0  0  3  0  0  0  0  0  0
  185.2390  178.4100  143.8600 C   0  0  1  0  0  3  0  0  0  0  0  0
  189.3780  177.8240  142.7070 C   0  0  1  0  0  3  0  0  0  0  0  0
  185.5030  177.7680  142.4930 C   0  0  2  0  0  3  0  0  0  0  0  0
  184.5550  178.2930  146.5840 C   0  0  0  0  0  2  0  0  0  0  0  0
  184.3930  178.6040  138.9040 C   0  0  0  0  0  3  0  0  0  0  0  0
  185.8920  178.4550  146.1590 O   0  0  0  0  0  0  0  0  0  0  0  0
  184.7690  177.7310  140.0730 C   0  0  0  0  0  2  0  0  0  0  0  0
  182.1030  178.9160  140.9250 C   0  0  1  0  0  3  0  0  0  0  0  0
  183.5920  179.0030  145.6220 C   0  0  0  0  0  2  0  0  0  0  0  0
  182.9990  179.1390  143.1550 C   0  0  2  0  0  3  0  0  0  0  0  0
  181.5590  180.9030  139.5640 N   0  0  0  0  0  2  0  0  0  0  0  0
  181.5800  180.8120  138.1130 C   0  0  0  0  0  2  0  0  0  0  0  0
  181.1800  183.6860  136.8700 N   0  0  0  0  0  2  0  0  0  0  0  0
  180.4310  181.3940  135.7200 S   0  0  0  0  0  0  0  0  0  0  0  0
  180.3670  181.5150  137.5270 C   0  0  2  0  0  3  0  0  0  0  0  0
  180.7130  183.1840  135.5890 C   0  0  0  0  0  2  0  0  0  0  0  0
  180.3960  182.9900  137.8750 C   0  0  0  0  0  2  0  0  0  0  0  0
  1 26  1  1  0  0  0
  3 16  1  0  0  0  0
  4 15  1  6  0  0  0
  4 23  1  0  0  0  0
  5 15  1  0  0  0  0
  6 19  1  0  0  0  0
  7  3  2  0  0  0  0
  8 12  1  0  0  0  0
  9 27  1  0  0  0  0
 10 22  2  0  0  0  0
 10 17  1  0  0  0  0
 11 20  1  0  0  0  0
 11  5  2  0  0  0  0
 13  9  1  0  0  0  0
 13 20  1  0  0  0  0
 14  2  1  0  0  0  0
 15 12  2  0  0  0  0
 16  8  1  0  0  0  0
 17 25  1  0  0  0  0
 18  1  1  0  0  0  0
 18  4  1  0  0  0  0
 19  5  1  0  0  0  0
 19  3  1  0  0  0  0
 20 18  1  0  0  0  0
 22 24  1  0  0  0  0
 23 21  1  0  0  0  0
 24 13  1  0  0  0  0
 25  9  1  0  0  0  0
 25 14  1  0  0  0  0
 26 21  1  0  0  0  0
 27  2  1  0  0  0  0
 27  1  1  0  0  0  0
 28 17  1  0  0  0  0
 29 28  1  0  0  0  0
 30 34  1  0  0  0  0
 31 32  1  0  0  0  0
 32 34  1  0  0  0  0
 32 29  1  0  0  0  0
 33 31  1  0  0  0  0
 33 30  1  0  0  0  0
M  END
>  <MODEL>
8

>  <REMARK>
 VINA RESULT:      -7.8      5.036      8.739
  Name = 
  3 active torsions:
  status: ('A' for Active; 'I' for Inactive)
    1  A    between atoms: C_17  and  N_28
    2  A    between atoms: N_28  and  C_29
    3  A    between atoms: C_29  and  C_32
                            x       y       z     vdW  Elec       q    Type
                         _______ _______ _______ _____ _____    ______ ____

>  <TORSDO>
F 3

$$$$
=
 OpenBabel11122412243D

 34 40  0  0  1  0  0  0  0  0999 V2000
  187.2360  178.3050  141.8500 C   0  0  1  0  0  3  0  0  0  0  0  0
  189.7300  177.6820  141.8210 C   0  0  0  0  0  2  0  0  0  0  0  0
  181.4630  177.2740  139.0960 C   0  0  0  0  0  0  0  0  0  0  0  0
  184.7910  178.7640  141.6820 C   0  0  2  0  0  3  0  0  0  0  0  0
  183.6850  178.3940  139.3390 C   0  0  0  0  0  0  0  0  0  0  0  0
  182.7870  177.7450  137.0150 C   0  0  0  0  0  1  0  0  0  0  0  0
  181.2840  176.0940  138.6870 O   0  0  0  0  0  0  0  0  0  0  0  0
  181.0350  179.0030  140.7670 C   0  0  0  0  0  2  0  0  0  0  0  0
  188.5990  178.2160  139.8240 C   0  0  2  0  0  3  0  0  0  0  0  0
  189.4700  176.8310  137.0560 C   0  0  0  0  0  3  0  0  0  0  0  0
  184.9110  178.3450  138.7880 C   0  0  0  0  0  3  0  0  0  0  0  0
  182.3830  178.9860  141.4170 C   0  0  0  0  0  3  0  0  0  0  0  0
  187.3960  177.9750  138.9060 C   0  0  1  0  0  3  0  0  0  0  0  0
  190.7170  177.4650  140.6770 C   0  0  0  0  0  2  0  0  0  0  0  0
  183.5500  178.6990  140.8140 C   0  0  0  0  0  0  0  0  0  0  0  0
  180.7500  177.7310  140.2010 O   0  0  0  0  0  0  0  0  0  0  0  0
  189.8590  176.4970  138.4770 C   0  0  2  0  0  3  0  0  0  0  0  0
  185.9830  178.1000  140.9930 C   0  0  1  0  0  3  0  0  0  0  0  0
  182.4730  178.1760  138.4480 C   0  0  1  0  0  3  0  0  0  0  0  0
  186.1630  178.6260  139.5640 C   0  0  2  0  0  3  0  0  0  0  0  0
  185.6640  178.4530  143.7630 C   0  0  0  0  0  2  0  0  0  0  0  0
  188.5140  177.6950  136.6620 C   0  0  0  0  0  3  0  0  0  0  0  0
  184.5760  178.1260  142.9240 O   0  0  0  0  0  0  0  0  0  0  0  0
  187.6890  178.5930  137.5470 C   0  0  0  0  0  2  0  0  0  0  0  0
  189.9740  177.7480  139.3630 C   0  0  1  0  0  3  0  0  0  0  0  0
  186.9540  177.7910  143.2580 C   0  0  0  0  0  2  0  0  0  0  0  0
  188.3780  177.5680  141.1640 C   0  0  2  0  0  3  0  0  0  0  0  0
  191.1100  175.7500  138.4610 N   0  0  0  0  0  2  0  0  0  0  0  0
  191.9700  176.3800  137.4710 C   0  0  0  0  0  2  0  0  0  0  0  0
  194.8130  176.1680  136.1170 N   0  0  0  0  0  2  0  0  0  0  0  0
  193.6660  174.2610  137.5950 S   0  0  0  0  0  0  0  0  0  0  0  0
  192.6050  175.3250  136.5820 C   0  0  2  0  0  3  0  0  0  0  0  0
  195.1460  174.9100  136.7630 C   0  0  0  0  0  2  0  0  0  0  0  0
  193.4930  175.9790  135.5420 C   0  0  0  0  0  2  0  0  0  0  0  0
  1 26  1  1  0  0  0
  3 16  1  0  0  0  0
  4 15  1  6  0  0  0
  4 23  1  0  0  0  0
  5 15  1  0  0  0  0
  6 19  1  0  0  0  0
  7  3  2  0  0  0  0
  8 12  1  0  0  0  0
  9 27  1  0  0  0  0
 10 17  1  0  0  0  0
 11  5  2  0  0  0  0
 11 20  1  0  0  0  0
 13 20  1  0  0  0  0
 13  9  1  0  0  0  0
 14  2  1  0  0  0  0
 15 12  2  0  0  0  0
 16  8  1  0  0  0  0
 17 25  1  0  0  0  0
 18  4  1  0  0  0  0
 18  1  1  0  0  0  0
 19  3  1  0  0  0  0
 19  5  1  0  0  0  0
 20 18  1  0  0  0  0
 22 10  2  0  0  0  0
 22 24  1  0  0  0  0
 23 21  1  0  0  0  0
 24 13  1  0  0  0  0
 25  9  1  0  0  0  0
 25 14  1  0  0  0  0
 26 21  1  0  0  0  0
 27  2  1  0  0  0  0
 27  1  1  0  0  0  0
 28 17  1  0  0  0  0
 29 28  1  0  0  0  0
 30 33  1  0  0  0  0
 32 29  1  0  0  0  0
 32 31  1  0  0  0  0
 33 31  1  0  0  0  0
 34 30  1  0  0  0  0
 34 32  1  0  0  0  0
M  END
>  <MODEL>
9

>  <REMARK>
 VINA RESULT:      -7.5      4.606      6.179
  Name = 
  3 active torsions:
  status: ('A' for Active; 'I' for Inactive)
    1  A    between atoms: C_17  and  N_28
    2  A    between atoms: N_28  and  C_29
    3  A    between atoms: C_29  and  C_32
                            x       y       z     vdW  Elec       q    Type
                         _______ _______ _______ _____ _____    ______ ____

>  <TORSDO>
F 3

$$$$
