=
 OpenBabel11122412003D

 28 32  0  0  1  0  0  0  0  0999 V2000
  181.6890  178.9520  139.9070 C   0  0  0  0  0  0  0  0  0  0  0  0
  181.6550  175.5560  138.2050 O   0  0  0  0  0  1  0  0  0  0  0  0
  187.1870  178.8410  138.0540 O   0  0  0  0  0  0  0  0  0  0  0  0
  180.0140  180.6790  138.4670 C   0  0  0  0  0  3  0  0  0  0  0  0
  185.9100  177.0660  137.0080 C   0  0  2  0  0  3  0  0  0  0  0  0
  182.5240  178.1210  140.6530 O   0  0  0  0  0  0  0  0  0  0  0  0
  179.9390  176.9230  137.3060 C   0  0  0  0  0  1  0  0  0  0  0  0
  181.2650  176.2350  137.0460 C   0  0  1  0  0  0  0  0  0  0  0  0
  182.2830  174.6150  135.5010 C   0  0  0  0  0  0  0  0  0  0  0  0
  182.3560  177.2570  136.6000 C   0  0  2  0  0  3  0  0  0  0  0  0
  185.7920  179.2590  142.0610 C   0  0  0  0  0  1  0  0  0  0  0  0
  183.9160  177.5180  138.4120 C   0  0  1  0  0  3  0  0  0  0  0  0
  183.5090  175.3260  135.6470 N   0  0  0  0  0  2  0  0  0  0  0  0
  181.0100  175.2350  135.9340 C   0  0  0  0  0  2  0  0  0  0  0  0
  184.8510  178.6370  141.0510 C   0  0  2  0  0  3  0  0  0  0  0  0
  181.7670  178.9890  138.4930 C   0  0  0  0  0  0  0  0  0  0  0  0
  186.1190  178.1810  137.9590 C   0  0  0  0  0  0  0  0  0  0  0  0
  182.2790  173.4710  134.9790 O   0  0  0  0  0  0  0  0  0  0  0  0
  184.9270  179.3760  139.7950 N   0  0  0  0  0  2  0  0  0  0  0  0
  180.9340  179.8740  137.7920 C   0  0  0  0  0  3  0  0  0  0  0  0
  180.7690  179.7720  140.5750 C   0  0  0  0  0  3  0  0  0  0  0  0
  179.9310  180.6270  139.8580 C   0  0  0  0  0  3  0  0  0  0  0  0
  183.4300  178.6600  141.6050 C   0  0  0  0  0  2  0  0  0  0  0  0
  184.4940  176.5700  137.3490 C   0  0  1  0  0  3  0  0  0  0  0  0
  184.9800  178.4410  138.7470 N   0  0  0  0  0  0  0  0  0  0  0  0
  183.6310  176.6350  136.1670 N   0  0  2  0  0  0  0  0  0  0  0  0
  186.8290  176.0490  137.2640 O   0  0  0  0  0  1  0  0  0  0  0  0
  182.8010  178.2340  137.6880 C   0  0  2  0  0  3  0  0  0  0  0  0
  1 21  1  0  0  0  0
  1  6  1  0  0  0  0
  4 22  1  0  0  0  0
  5 27  1  1  0  0  0
  5 24  1  0  0  0  0
  5 17  1  0  0  0  0
  6 23  1  0  0  0  0
  8  7  1  1  0  0  0
  8  2  1  0  0  0  0
  9 13  1  0  0  0  0
  9 14  1  0  0  0  0
 10  8  1  0  0  0  0
 10 28  1  0  0  0  0
 12 25  1  0  0  0  0
 13 26  1  0  0  0  0
 14  8  1  0  0  0  0
 15 23  1  0  0  0  0
 15 11  1  0  0  0  0
 16  1  2  0  0  0  0
 17  3  2  0  0  0  0
 17 25  1  0  0  0  0
 18  9  2  0  0  0  0
 19 15  1  0  0  0  0
 20  4  2  0  0  0  0
 20 16  1  0  0  0  0
 22 21  2  0  0  0  0
 24 12  1  0  0  0  0
 25 19  1  0  0  0  0
 26 10  1  0  0  0  0
 26 24  1  0  0  0  0
 28 12  1  0  0  0  0
 28 16  1  0  0  0  0
M  END
>  <MODEL>
1

>  <REMARK>
 VINA RESULT:      -6.1      0.000      0.000
  Name = 
  0 active torsions:
  status: ('A' for Active; 'I' for Inactive)
                            x       y       z     vdW  Elec       q    Type
                         _______ _______ _______ _____ _____    ______ ____

>  <TORSDO>
F 0

$$$$
=
 OpenBabel11122412003D

 28 32  0  0  1  0  0  0  0  0999 V2000
  191.2840  174.9200  137.7310 C   0  0  0  0  0  0  0  0  0  0  0  0
  189.0520  176.0710  140.5800 O   0  0  0  0  0  1  0  0  0  0  0  0
  186.8290  176.9310  134.6030 O   0  0  0  0  0  0  0  0  0  0  0  0
  193.5660  176.5480  137.6810 C   0  0  0  0  0  3  0  0  0  0  0  0
  186.6260  177.6420  136.9110 C   0  0  2  0  0  3  0  0  0  0  0  0
  190.1670  174.0850  137.7290 O   0  0  0  0  0  0  0  0  0  0  0  0
  191.1770  177.1090  140.7540 C   0  0  0  0  0  1  0  0  0  0  0  0
  189.6990  177.3060  140.4760 C   0  0  1  0  0  0  0  0  0  0  0  0
  187.7830  178.6170  141.2870 C   0  0  0  0  0  0  0  0  0  0  0  0
  189.4670  177.9450  139.0720 C   0  0  2  0  0  3  0  0  0  0  0  0
  188.4550  172.9890  134.5940 C   0  0  0  0  0  1  0  0  0  0  0  0
  188.5530  176.2530  137.6280 C   0  0  1  0  0  3  0  0  0  0  0  0
  187.2920  178.6280  139.9480 N   0  0  0  0  0  2  0  0  0  0  0  0
  189.1890  178.2400  141.5580 C   0  0  0  0  0  2  0  0  0  0  0  0
  188.7190  173.8560  135.8070 C   0  0  2  0  0  3  0  0  0  0  0  0
  191.1480  176.3240  137.8550 C   0  0  0  0  0  0  0  0  0  0  0  0
  187.2330  176.8830  135.7940 C   0  0  0  0  0  0  0  0  0  0  0  0
  187.0290  178.9550  142.2350 O   0  0  0  0  0  0  0  0  0  0  0  0
  189.0370  175.2130  135.3750 N   0  0  0  0  0  2  0  0  0  0  0  0
  192.2990  177.1230  137.8080 C   0  0  0  0  0  3  0  0  0  0  0  0
  192.5590  174.3540  137.5930 C   0  0  0  0  0  3  0  0  0  0  0  0
  193.6950  175.1640  137.5740 C   0  0  0  0  0  3  0  0  0  0  0  0
  189.8730  173.2610  136.6080 C   0  0  0  0  0  2  0  0  0  0  0  0
  187.4330  177.1770  138.1360 C   0  0  1  0  0  3  0  0  0  0  0  0
  188.3340  176.1050  136.2040 N   0  0  0  0  0  0  0  0  0  0  0  0
  188.0590  178.3220  138.8010 N   0  0  2  0  0  0  0  0  0  0  0  0
  185.2920  177.2640  137.0680 O   0  0  0  0  0  1  0  0  0  0  0  0
  189.8150  177.0390  137.8910 C   0  0  2  0  0  3  0  0  0  0  0  0
  1 16  1  0  0  0  0
  3 17  2  0  0  0  0
  4 20  1  0  0  0  0
  5 27  1  1  0  0  0
  5 24  1  0  0  0  0
  6  1  1  0  0  0  0
  8  2  1  0  0  0  0
  8  7  1  1  0  0  0
  8 14  1  0  0  0  0
  9 14  1  0  0  0  0
  9 18  2  0  0  0  0
 10  8  1  0  0  0  0
 11 15  1  0  0  0  0
 12 28  1  0  0  0  0
 12 24  1  0  0  0  0
 13  9  1  0  0  0  0
 15 23  1  0  0  0  0
 16 28  1  0  0  0  0
 17 25  1  0  0  0  0
 17  5  1  0  0  0  0
 19 15  1  0  0  0  0
 19 25  1  0  0  0  0
 20 16  2  0  0  0  0
 21  1  2  0  0  0  0
 22 21  1  0  0  0  0
 22  4  2  0  0  0  0
 23  6  1  0  0  0  0
 24 26  1  0  0  0  0
 25 12  1  0  0  0  0
 26 10  1  0  0  0  0
 26 13  1  0  0  0  0
 28 10  1  0  0  0  0
M  END
>  <MODEL>
2

>  <REMARK>
 VINA RESULT:      -5.8      4.765      8.843
  Name = 
  0 active torsions:
  status: ('A' for Active; 'I' for Inactive)
                            x       y       z     vdW  Elec       q    Type
                         _______ _______ _______ _____ _____    ______ ____

>  <TORSDO>
F 0

$$$$
=
 OpenBabel11122412003D

 28 32  0  0  1  0  0  0  0  0999 V2000
  180.4610  178.6860  139.6660 C   0  0  0  0  0  0  0  0  0  0  0  0
  183.7100  176.9570  138.7250 O   0  0  0  0  0  1  0  0  0  0  0  0
  183.5840  180.0670  144.3580 O   0  0  0  0  0  0  0  0  0  0  0  0
  180.0410  180.8090  137.8840 C   0  0  0  0  0  3  0  0  0  0  0  0
  185.0220  179.1700  142.6240 C   0  0  2  0  0  3  0  0  0  0  0  0
  180.6320  177.6340  140.5650 O   0  0  0  0  0  0  0  0  0  0  0  0
  183.0790  178.4700  137.0120 C   0  0  0  0  0  1  0  0  0  0  0  0
  184.0750  178.1610  138.1120 C   0  0  1  0  0  0  0  0  0  0  0  0
  186.4910  177.8400  138.4400 C   0  0  0  0  0  0  0  0  0  0  0  0
  184.1470  179.3210  139.1530 C   0  0  2  0  0  3  0  0  0  0  0  0
  179.8910  177.9420  144.2150 C   0  0  0  0  0  1  0  0  0  0  0  0
  183.0960  178.5680  141.1810 C   0  0  1  0  0  3  0  0  0  0  0  0
  186.3370  178.4100  139.7370 N   0  0  0  0  0  2  0  0  0  0  0  0
  185.4190  177.9960  137.4300 C   0  0  0  0  0  2  0  0  0  0  0  0
  180.7330  177.9730  142.9570 C   0  0  2  0  0  3  0  0  0  0  0  0
  181.5320  179.5550  139.3450 C   0  0  0  0  0  0  0  0  0  0  0  0
  183.7180  179.5190  143.2320 C   0  0  0  0  0  0  0  0  0  0  0  0
  187.5490  177.2290  138.1440 O   0  0  0  0  0  0  0  0  0  0  0  0
  181.2760  179.3150  142.7680 N   0  0  0  0  0  2  0  0  0  0  0  0
  181.2970  180.6240  138.4680 C   0  0  0  0  0  3  0  0  0  0  0  0
  179.2030  178.8870  139.0830 C   0  0  0  0  0  3  0  0  0  0  0  0
  178.9950  179.9400  138.1920 C   0  0  0  0  0  3  0  0  0  0  0  0
  179.8710  177.5670  141.7650 C   0  0  0  0  0  2  0  0  0  0  0  0
  184.6250  178.4730  141.3110 C   0  0  1  0  0  3  0  0  0  0  0  0
  182.6270  179.1850  142.4030 N   0  0  0  0  0  0  0  0  0  0  0  0
  185.2200  179.1640  140.1650 N   0  0  2  0  0  0  0  0  0  0  0  0
  185.6960  178.2640  143.4420 O   0  0  0  0  0  1  0  0  0  0  0  0
  182.8920  179.4950  140.0060 C   0  0  2  0  0  3  0  0  0  0  0  0
  1  6  1  0  0  0  0
  4 22  2  0  0  0  0
  4 20  1  0  0  0  0
  5 17  1  0  0  0  0
  5 27  1  1  0  0  0
  6 23  1  0  0  0  0
  8  7  1  6  0  0  0
  8  2  1  0  0  0  0
  8 10  1  0  0  0  0
  9 13  1  0  0  0  0
 10 28  1  0  0  0  0
 10 26  1  0  0  0  0
 12 24  1  0  0  0  0
 12 25  1  0  0  0  0
 13 26  1  0  0  0  0
 14  8  1  0  0  0  0
 14  9  1  0  0  0  0
 15 11  1  0  0  0  0
 16  1  1  0  0  0  0
 16 28  1  0  0  0  0
 17  3  2  0  0  0  0
 18  9  2  0  0  0  0
 19 15  1  0  0  0  0
 20 16  2  0  0  0  0
 21  1  2  0  0  0  0
 22 21  1  0  0  0  0
 23 15  1  0  0  0  0
 24  5  1  0  0  0  0
 25 19  1  0  0  0  0
 25 17  1  0  0  0  0
 26 24  1  0  0  0  0
 28 12  1  0  0  0  0
M  END
>  <MODEL>
3

>  <REMARK>
 VINA RESULT:      -5.7      2.481      4.490
  Name = 
  0 active torsions:
  status: ('A' for Active; 'I' for Inactive)
                            x       y       z     vdW  Elec       q    Type
                         _______ _______ _______ _____ _____    ______ ____

>  <TORSDO>
F 0

$$$$
=
 OpenBabel11122412003D

 28 32  0  0  1  0  0  0  0  0999 V2000
  186.0650  177.8870  143.8160 C   0  0  0  0  0  0  0  0  0  0  0  0
  183.6910  176.9650  140.9980 O   0  0  0  0  0  1  0  0  0  0  0  0
  189.5870  178.9240  139.3220 O   0  0  0  0  0  0  0  0  0  0  0  0
  185.0860  180.1900  145.0790 C   0  0  0  0  0  3  0  0  0  0  0  0
  187.3070  178.6280  138.5540 C   0  0  2  0  0  3  0  0  0  0  0  0
  186.5780  176.7360  143.2180 O   0  0  0  0  0  0  0  0  0  0  0  0
  182.7030  178.6280  142.3700 C   0  0  0  0  0  1  0  0  0  0  0  0
  183.2900  178.3050  141.0100 C   0  0  1  0  0  0  0  0  0  0  0  0
  182.6850  178.3660  138.6270 C   0  0  0  0  0  0  0  0  0  0  0  0
  184.4850  179.2510  140.6700 C   0  0  2  0  0  3  0  0  0  0  0  0
  190.2240  176.2370  142.5710 C   0  0  0  0  0  1  0  0  0  0  0  0
  186.5130  177.9660  140.8090 C   0  0  1  0  0  3  0  0  0  0  0  0
  184.0520  178.6530  138.3420 N   0  0  0  0  0  2  0  0  0  0  0  0
  182.1700  178.5100  140.0080 C   0  0  0  0  0  2  0  0  0  0  0  0
  188.7980  176.6470  142.2670 C   0  0  2  0  0  3  0  0  0  0  0  0
  185.6110  178.9770  143.0350 C   0  0  0  0  0  0  0  0  0  0  0  0
  188.3890  178.6230  139.5650 C   0  0  0  0  0  0  0  0  0  0  0  0
  181.9100  178.0170  137.7000 O   0  0  0  0  0  0  0  0  0  0  0  0
  188.7550  178.0750  141.9700 N   0  0  0  0  0  2  0  0  0  0  0  0
  185.1430  180.1280  143.6850 C   0  0  0  0  0  3  0  0  0  0  0  0
  186.0130  177.9640  145.2140 C   0  0  0  0  0  3  0  0  0  0  0  0
  185.5200  179.1080  145.8440 C   0  0  0  0  0  3  0  0  0  0  0  0
  187.9140  176.3180  143.4660 C   0  0  0  0  0  2  0  0  0  0  0  0
  186.0850  178.1220  139.3410 C   0  0  1  0  0  3  0  0  0  0  0  0
  187.9300  178.2570  140.8460 N   0  0  0  0  0  0  0  0  0  0  0  0
  185.0000  179.1060  139.2870 N   0  0  2  0  0  0  0  0  0  0  0  0
  187.6080  177.7220  137.5370 O   0  0  0  0  0  1  0  0  0  0  0  0
  185.7320  179.0400  141.5270 C   0  0  2  0  0  3  0  0  0  0  0  0
  1 21  1  0  0  0  0
  2  8  1  0  0  0  0
  3 17  2  0  0  0  0
  4 22  1  0  0  0  0
  5 27  1  6  0  0  0
  5 24  1  0  0  0  0
  5 17  1  0  0  0  0
  6 23  1  0  0  0  0
  6  1  1  0  0  0  0
  8  7  1  1  0  0  0
  9 14  1  0  0  0  0
 10  8  1  0  0  0  0
 10 28  1  0  0  0  0
 12 25  1  0  0  0  0
 12 28  1  0  0  0  0
 13  9  1  0  0  0  0
 13 26  1  0  0  0  0
 14  8  1  0  0  0  0
 15 11  1  0  0  0  0
 15 23  1  0  0  0  0
 16 20  1  0  0  0  0
 16  1  2  0  0  0  0
 17 25  1  0  0  0  0
 18  9  2  0  0  0  0
 19 15  1  0  0  0  0
 20  4  2  0  0  0  0
 21 22  2  0  0  0  0
 24 12  1  0  0  0  0
 25 19  1  0  0  0  0
 26 24  1  0  0  0  0
 26 10  1  0  0  0  0
 28 16  1  0  0  0  0
M  END
>  <MODEL>
4

>  <REMARK>
 VINA RESULT:      -5.5      2.690      5.143
  Name = 
  0 active torsions:
  status: ('A' for Active; 'I' for Inactive)
                            x       y       z     vdW  Elec       q    Type
                         _______ _______ _______ _____ _____    ______ ____

>  <TORSDO>
F 0

$$$$
=
 OpenBabel11122412003D

 28 32  0  0  1  0  0  0  0  0999 V2000
  188.5450  176.8770  137.8080 C   0  0  0  0  0  0  0  0  0  0  0  0
  188.5090  173.1660  136.9980 O   0  0  0  0  0  1  0  0  0  0  0  0
  194.2700  176.0030  137.4260 O   0  0  0  0  0  0  0  0  0  0  0  0
  187.4370  178.2670  135.6410 C   0  0  0  0  0  3  0  0  0  0  0  0
  193.0650  174.0900  136.5490 C   0  0  2  0  0  3  0  0  0  0  0  0
  189.0950  176.2200  138.9090 O   0  0  0  0  0  0  0  0  0  0  0  0
  187.2000  174.3490  135.4130 C   0  0  0  0  0  1  0  0  0  0  0  0
  188.4640  173.5470  135.6530 C   0  0  1  0  0  0  0  0  0  0  0  0
  189.6110  171.5340  134.8260 C   0  0  0  0  0  0  0  0  0  0  0  0
  189.7350  174.3620  135.2570 C   0  0  2  0  0  3  0  0  0  0  0  0
  192.0760  177.5030  140.7600 C   0  0  0  0  0  1  0  0  0  0  0  0
  190.8730  174.9920  137.2800 C   0  0  1  0  0  3  0  0  0  0  0  0
  190.8470  172.1930  135.0940 N   0  0  0  0  0  2  0  0  0  0  0  0
  188.3520  172.3120  134.7790 C   0  0  0  0  0  2  0  0  0  0  0  0
  191.3200  176.6950  139.7270 C   0  0  2  0  0  3  0  0  0  0  0  0
  188.9390  176.5480  136.4880 C   0  0  0  0  0  0  0  0  0  0  0  0
  193.1820  175.3980  137.2330 C   0  0  0  0  0  0  0  0  0  0  0  0
  189.5940  170.2970  134.6030 O   0  0  0  0  0  0  0  0  0  0  0  0
  191.7550  177.0850  138.3900 N   0  0  0  0  0  2  0  0  0  0  0  0
  188.3870  177.2680  135.4190 C   0  0  0  0  0  3  0  0  0  0  0  0
  187.5990  177.8880  138.0210 C   0  0  0  0  0  3  0  0  0  0  0  0
  187.0420  178.5760  136.9420 C   0  0  0  0  0  3  0  0  0  0  0  0
  189.8230  176.9350  139.8990 C   0  0  0  0  0  2  0  0  0  0  0  0
  191.5620  173.7750  136.6420 C   0  0  1  0  0  3  0  0  0  0  0  0
  191.9330  175.9120  137.6360 N   0  0  0  0  0  0  0  0  0  0  0  0
  190.9960  173.5820  135.3050 N   0  0  2  0  0  0  0  0  0  0  0  0
  193.7840  173.1250  137.2530 O   0  0  0  0  0  1  0  0  0  0  0  0
  190.0350  175.5580  136.1590 C   0  0  2  0  0  3  0  0  0  0  0  0
  1 21  1  0  0  0  0
  1  6  1  0  0  0  0
  4 22  1  0  0  0  0
  5 24  1  0  0  0  0
  5 17  1  0  0  0  0
  5 27  1  1  0  0  0
  6 23  1  0  0  0  0
  8  7  1  6  0  0  0
  8  2  1  0  0  0  0
  9 13  1  0  0  0  0
 10 26  1  0  0  0  0
 10  8  1  0  0  0  0
 10 28  1  0  0  0  0
 12 25  1  0  0  0  0
 13 26  1  0  0  0  0
 14  9  1  0  0  0  0
 14  8  1  0  0  0  0
 15 23  1  0  0  0  0
 15 11  1  0  0  0  0
 16  1  2  0  0  0  0
 17  3  2  0  0  0  0
 17 25  1  0  0  0  0
 18  9  2  0  0  0  0
 19 15  1  0  0  0  0
 20  4  2  0  0  0  0
 20 16  1  0  0  0  0
 22 21  2  0  0  0  0
 24 12  1  0  0  0  0
 25 19  1  0  0  0  0
 26 24  1  0  0  0  0
 28 16  1  0  0  0  0
 28 12  1  0  0  0  0
M  END
>  <MODEL>
5

>  <REMARK>
 VINA RESULT:      -5.4      5.884      7.663
  Name = 
  0 active torsions:
  status: ('A' for Active; 'I' for Inactive)
                            x       y       z     vdW  Elec       q    Type
                         _______ _______ _______ _____ _____    ______ ____

>  <TORSDO>
F 0

$$$$
=
 OpenBabel11122412003D

 28 32  0  0  1  0  0  0  0  0999 V2000
  190.0750  177.3100  144.5130 C   0  0  0  0  0  0  0  0  0  0  0  0
  188.0860  179.4600  142.0930 O   0  0  0  0  0  1  0  0  0  0  0  0
  185.0120  177.3750  147.3490 O   0  0  0  0  0  0  0  0  0  0  0  0
  190.6680  174.8780  143.2520 C   0  0  0  0  0  3  0  0  0  0  0  0
  184.7280  178.2330  145.0990 C   0  0  2  0  0  3  0  0  0  0  0  0
  189.8060  178.5110  145.1690 O   0  0  0  0  0  0  0  0  0  0  0  0
  188.9870  177.5880  140.9510 C   0  0  0  0  0  1  0  0  0  0  0  0
  187.7300  178.2660  141.4580 C   0  0  1  0  0  0  0  0  0  0  0  0
  185.5710  179.1040  140.6310 C   0  0  0  0  0  0  0  0  0  0  0  0
  186.9320  177.3340  142.4220 C   0  0  2  0  0  3  0  0  0  0  0  0
  188.8150  178.6800  148.7680 C   0  0  0  0  0  1  0  0  0  0  0  0
  187.1680  178.1950  144.6540 C   0  0  1  0  0  3  0  0  0  0  0  0
  185.0080  178.7410  141.8890 N   0  0  0  0  0  2  0  0  0  0  0  0
  186.8940  178.5750  140.2300 C   0  0  0  0  0  2  0  0  0  0  0  0
  188.6130  178.6040  147.2700 C   0  0  2  0  0  3  0  0  0  0  0  0
  189.0640  176.6270  143.7950 C   0  0  0  0  0  0  0  0  0  0  0  0
  185.5140  177.7420  146.2540 C   0  0  0  0  0  0  0  0  0  0  0  0
  184.9300  179.8540  139.8490 O   0  0  0  0  0  0  0  0  0  0  0  0
  187.8860  177.3820  146.9380 N   0  0  0  0  0  2  0  0  0  0  0  0
  189.3750  175.4010  143.1880 C   0  0  0  0  0  3  0  0  0  0  0  0
  191.3670  176.7710  144.5790 C   0  0  0  0  0  3  0  0  0  0  0  0
  191.6640  175.5640  143.9470 C   0  0  0  0  0  3  0  0  0  0  0  0
  189.9720  178.6270  146.5770 C   0  0  0  0  0  2  0  0  0  0  0  0
  185.8080  178.6090  144.0690 C   0  0  1  0  0  3  0  0  0  0  0  0
  186.8990  177.7120  145.9920 N   0  0  0  0  0  0  0  0  0  0  0  0
  185.6070  177.8660  142.8230 N   0  0  2  0  0  0  0  0  0  0  0  0
  184.0200  179.3780  145.4640 O   0  0  0  0  0  1  0  0  0  0  0  0
  187.6150  177.0630  143.7610 C   0  0  2  0  0  3  0  0  0  0  0  0
  1 21  1  0  0  0  0
  1  6  1  0  0  0  0
  4 22  1  0  0  0  0
  5 27  1  1  0  0  0
  5 17  1  0  0  0  0
  6 23  1  0  0  0  0
  8  7  1  6  0  0  0
  8  2  1  0  0  0  0
  8 10  1  0  0  0  0
  9 13  1  0  0  0  0
 10 26  1  0  0  0  0
 10 28  1  0  0  0  0
 12 25  1  0  0  0  0
 13 26  1  0  0  0  0
 14  9  1  0  0  0  0
 14  8  1  0  0  0  0
 15 11  1  0  0  0  0
 16  1  2  0  0  0  0
 17  3  2  0  0  0  0
 18  9  2  0  0  0  0
 19 15  1  0  0  0  0
 20  4  2  0  0  0  0
 20 16  1  0  0  0  0
 22 21  2  0  0  0  0
 23 15  1  0  0  0  0
 24 12  1  0  0  0  0
 24  5  1  0  0  0  0
 25 17  1  0  0  0  0
 25 19  1  0  0  0  0
 26 24  1  0  0  0  0
 28 16  1  0  0  0  0
 28 12  1  0  0  0  0
M  END
>  <MODEL>
6

>  <REMARK>
 VINA RESULT:      -5.3      5.075      8.905
  Name = 
  0 active torsions:
  status: ('A' for Active; 'I' for Inactive)
                            x       y       z     vdW  Elec       q    Type
                         _______ _______ _______ _____ _____    ______ ____

>  <TORSDO>
F 0

$$$$
=
 OpenBabel11122412003D

 28 32  0  0  1  0  0  0  0  0999 V2000
  187.7730  176.4440  136.6310 C   0  0  0  0  0  0  0  0  0  0  0  0
  189.1310  176.0080  140.1510 O   0  0  0  0  0  1  0  0  0  0  0  0
  183.9420  179.7530  139.4690 O   0  0  0  0  0  0  0  0  0  0  0  0
  189.6560  177.8780  135.1280 C   0  0  0  0  0  3  0  0  0  0  0  0
  185.8150  179.2080  140.9090 C   0  0  2  0  0  3  0  0  0  0  0  0
  186.8170  175.7220  137.3440 O   0  0  0  0  0  0  0  0  0  0  0  0
  190.8420  176.8190  138.7240 C   0  0  0  0  0  1  0  0  0  0  0  0
  189.9270  177.1290  139.8920 C   0  0  1  0  0  0  0  0  0  0  0  0
  190.0380  177.8550  142.2390 C   0  0  0  0  0  0  0  0  0  0  0  0
  189.0490  178.3870  139.6060 C   0  0  2  0  0  3  0  0  0  0  0  0
  183.1460  176.3490  137.0280 C   0  0  0  0  0  1  0  0  0  0  0  0
  186.7890  177.6480  139.2440 C   0  0  1  0  0  3  0  0  0  0  0  0
  188.8030  178.5360  142.0310 N   0  0  0  0  0  2  0  0  0  0  0  0
  190.8340  177.3930  141.0800 C   0  0  0  0  0  2  0  0  0  0  0  0
  184.5390  176.4890  137.6050 C   0  0  2  0  0  3  0  0  0  0  0  0
  188.3840  177.5950  137.1840 C   0  0  0  0  0  0  0  0  0  0  0  0
  185.0080  179.1130  139.6710 C   0  0  0  0  0  0  0  0  0  0  0  0
  190.4640  177.6710  143.4080 O   0  0  0  0  0  0  0  0  0  0  0  0
  184.9700  177.8800  137.5040 N   0  0  0  0  0  2  0  0  0  0  0  0
  189.3080  178.3100  136.4090 C   0  0  0  0  0  3  0  0  0  0  0  0
  188.1210  176.0250  135.3400 C   0  0  0  0  0  3  0  0  0  0  0  0
  189.0630  176.7340  134.5940 C   0  0  0  0  0  3  0  0  0  0  0  0
  185.4930  175.5720  136.8460 C   0  0  0  0  0  2  0  0  0  0  0  0
  186.9460  178.1920  140.6740 C   0  0  1  0  0  3  0  0  0  0  0  0
  185.5710  178.2350  138.7240 N   0  0  0  0  0  0  0  0  0  0  0  0
  188.2510  178.8490  140.7680 N   0  0  2  0  0  0  0  0  0  0  0  0
  185.0500  178.8030  142.0020 O   0  0  0  0  0  1  0  0  0  0  0  0
  187.9930  178.1960  138.5180 C   0  0  2  0  0  3  0  0  0  0  0  0
  1 16  1  0  0  0  0
  1  6  1  0  0  0  0
  3 17  2  0  0  0  0
  4 20  1  0  0  0  0
  5 27  1  1  0  0  0
  8  7  1  6  0  0  0
  8  2  1  0  0  0  0
  8 14  1  0  0  0  0
  9 18  2  0  0  0  0
 10  8  1  0  0  0  0
 10 26  1  0  0  0  0
 11 15  1  0  0  0  0
 12 24  1  0  0  0  0
 13  9  1  0  0  0  0
 14  9  1  0  0  0  0
 16 28  1  0  0  0  0
 17  5  1  0  0  0  0
 19 15  1  0  0  0  0
 19 25  1  0  0  0  0
 20 16  2  0  0  0  0
 21  1  2  0  0  0  0
 22  4  2  0  0  0  0
 22 21  1  0  0  0  0
 23  6  1  0  0  0  0
 23 15  1  0  0  0  0
 24 26  1  0  0  0  0
 24  5  1  0  0  0  0
 25 12  1  0  0  0  0
 25 17  1  0  0  0  0
 26 13  1  0  0  0  0
 28 12  1  0  0  0  0
 28 10  1  0  0  0  0
M  END
>  <MODEL>
7

>  <REMARK>
 VINA RESULT:      -5.2      3.237      7.606
  Name = 
  0 active torsions:
  status: ('A' for Active; 'I' for Inactive)
                            x       y       z     vdW  Elec       q    Type
                         _______ _______ _______ _____ _____    ______ ____

>  <TORSDO>
F 0

$$$$
=
 OpenBabel11122412003D

 28 32  0  0  1  0  0  0  0  0999 V2000
  182.6700  177.4920  137.7310 C   0  0  0  0  0  0  0  0  0  0  0  0
  184.2320  174.1090  136.9900 O   0  0  0  0  0  1  0  0  0  0  0  0
  188.2610  179.0030  138.1050 O   0  0  0  0  0  0  0  0  0  0  0  0
  181.3760  178.3950  135.4140 C   0  0  0  0  0  3  0  0  0  0  0  0
  188.0480  176.8000  137.1150 C   0  0  2  0  0  3  0  0  0  0  0  0
  183.2950  177.0720  138.9050 O   0  0  0  0  0  0  0  0  0  0  0  0
  182.7680  174.7220  135.2290 C   0  0  0  0  0  1  0  0  0  0  0  0
  184.2070  174.4870  135.6440 C   0  0  1  0  0  0  0  0  0  0  0  0
  186.1600  173.1350  135.0090 C   0  0  0  0  0  0  0  0  0  0  0  0
  185.0810  175.7570  135.4000 C   0  0  2  0  0  3  0  0  0  0  0  0
  185.2500  179.3780  141.1010 C   0  0  0  0  0  1  0  0  0  0  0  0
  185.6060  176.7190  137.5410 C   0  0  1  0  0  3  0  0  0  0  0  0
  186.9820  174.2240  135.4220 N   0  0  0  0  0  2  0  0  0  0  0  0
  184.7120  173.3420  134.7850 C   0  0  0  0  0  2  0  0  0  0  0  0
  185.0190  178.3710  139.9940 C   0  0  2  0  0  3  0  0  0  0  0  0
  183.3240  177.3950  136.4790 C   0  0  0  0  0  0  0  0  0  0  0  0
  187.5420  178.0200  137.7840 C   0  0  0  0  0  0  0  0  0  0  0  0
  186.6720  172.0030  134.8070 O   0  0  0  0  0  0  0  0  0  0  0  0
  185.4240  178.9490  138.7170 N   0  0  0  0  0  2  0  0  0  0  0  0
  182.6680  177.8700  135.3340 C   0  0  0  0  0  3  0  0  0  0  0  0
  181.3780  178.0290  137.8010 C   0  0  0  0  0  3  0  0  0  0  0  0
  180.7310  178.4730  136.6480 C   0  0  0  0  0  3  0  0  0  0  0  0
  183.5430  177.9840  139.9670 C   0  0  0  0  0  2  0  0  0  0  0  0
  186.8010  175.9040  137.0200 C   0  0  1  0  0  3  0  0  0  0  0  0
  186.1520  177.9740  138.0140 N   0  0  0  0  0  0  0  0  0  0  0  0
  186.5320  175.5480  135.6240 N   0  0  2  0  0  0  0  0  0  0  0  0
  189.0010  176.1800  137.9230 O   0  0  0  0  0  1  0  0  0  0  0  0
  184.7580  176.9400  136.3110 C   0  0  2  0  0  3  0  0  0  0  0  0
  1 21  1  0  0  0  0
  1  6  1  0  0  0  0
  4 22  1  0  0  0  0
  5 17  1  0  0  0  0
  5 27  1  1  0  0  0
  6 23  1  0  0  0  0
  8  7  1  6  0  0  0
  8  2  1  0  0  0  0
  9 13  1  0  0  0  0
 10 26  1  0  0  0  0
 10  8  1  0  0  0  0
 10 28  1  0  0  0  0
 12 25  1  0  0  0  0
 13 26  1  0  0  0  0
 14  9  1  0  0  0  0
 14  8  1  0  0  0  0
 15 11  1  0  0  0  0
 16  1  2  0  0  0  0
 17 25  1  0  0  0  0
 17  3  2  0  0  0  0
 18  9  2  0  0  0  0
 19 15  1  0  0  0  0
 20  4  2  0  0  0  0
 20 16  1  0  0  0  0
 22 21  2  0  0  0  0
 23 15  1  0  0  0  0
 24  5  1  0  0  0  0
 24 12  1  0  0  0  0
 25 19  1  0  0  0  0
 26 24  1  0  0  0  0
 28 16  1  0  0  0  0
 28 12  1  0  0  0  0
M  END
>  <MODEL>
8

>  <REMARK>
 VINA RESULT:      -5.1      2.137      2.992
  Name = 
  0 active torsions:
  status: ('A' for Active; 'I' for Inactive)
                            x       y       z     vdW  Elec       q    Type
                         _______ _______ _______ _____ _____    ______ ____

>  <TORSDO>
F 0

$$$$
=
 OpenBabel11122412003D

 28 32  0  0  1  0  0  0  0  0999 V2000
  189.1680  175.8010  136.0220 C   0  0  0  0  0  0  0  0  0  0  0  0
  187.0450  178.8310  136.8850 O   0  0  0  0  0  1  0  0  0  0  0  0
  190.5470  176.2730  141.6400 O   0  0  0  0  0  0  0  0  0  0  0  0
  187.4560  173.6630  135.4230 C   0  0  0  0  0  3  0  0  0  0  0  0
  188.6390  177.6750  141.1200 C   0  0  2  0  0  3  0  0  0  0  0  0
  190.0510  176.8430  136.3060 O   0  0  0  0  0  0  0  0  0  0  0  0
  185.6790  177.1310  135.9530 C   0  0  0  0  0  1  0  0  0  0  0  0
  186.0280  177.9230  137.1970 C   0  0  1  0  0  0  0  0  0  0  0  0
  184.9620  179.3710  138.8750 C   0  0  0  0  0  0  0  0  0  0  0  0
  186.4550  176.9820  138.3670 C   0  0  2  0  0  3  0  0  0  0  0  0
  193.1820  176.3690  138.2890 C   0  0  0  0  0  1  0  0  0  0  0  0
  188.8250  177.2250  138.6880 C   0  0  1  0  0  3  0  0  0  0  0  0
  185.8830  178.8510  139.8310 N   0  0  0  0  0  2  0  0  0  0  0  0
  184.7700  178.6820  137.5790 C   0  0  0  0  0  2  0  0  0  0  0  0
  191.7230  176.6920  138.0450 C   0  0  2  0  0  3  0  0  0  0  0  0
  188.0570  175.5360  136.8590 C   0  0  0  0  0  0  0  0  0  0  0  0
  189.7640  176.7710  140.7890 C   0  0  0  0  0  0  0  0  0  0  0  0
  184.2920  180.4010  139.1440 O   0  0  0  0  0  0  0  0  0  0  0  0
  190.8870  175.7650  138.8020 N   0  0  0  0  0  2  0  0  0  0  0  0
  187.2240  174.4500  136.5530 C   0  0  0  0  0  3  0  0  0  0  0  0
  189.3980  175.0000  134.8960 C   0  0  0  0  0  3  0  0  0  0  0  0
  188.5430  173.9390  134.5940 C   0  0  0  0  0  3  0  0  0  0  0  0
  191.4270  176.5880  136.5520 C   0  0  0  0  0  2  0  0  0  0  0  0
  188.0620  178.0430  139.7420 C   0  0  1  0  0  3  0  0  0  0  0  0
  189.8590  176.5090  139.4070 N   0  0  0  0  0  0  0  0  0  0  0  0
  186.6470  177.6740  139.6640 N   0  0  2  0  0  0  0  0  0  0  0  0
  189.1260  178.8260  141.7390 O   0  0  0  0  0  1  0  0  0  0  0  0
  187.7880  176.2650  138.1570 C   0  0  2  0  0  3  0  0  0  0  0  0
  1  6  1  0  0  0  0
  1 16  1  0  0  0  0
  2  8  1  0  0  0  0
  4 20  1  0  0  0  0
  5 27  1  6  0  0  0
  6 23  1  0  0  0  0
  8  7  1  6  0  0  0
  8 14  1  0  0  0  0
  8 10  1  0  0  0  0
  9 18  2  0  0  0  0
  9 13  1  0  0  0  0
 10 26  1  0  0  0  0
 12 25  1  0  0  0  0
 12 24  1  0  0  0  0
 14  9  1  0  0  0  0
 15 11  1  0  0  0  0
 15 19  1  0  0  0  0
 16 28  1  0  0  0  0
 17  5  1  0  0  0  0
 17  3  2  0  0  0  0
 19 25  1  0  0  0  0
 20 16  2  0  0  0  0
 21  1  2  0  0  0  0
 22 21  1  0  0  0  0
 22  4  2  0  0  0  0
 23 15  1  0  0  0  0
 24  5  1  0  0  0  0
 25 17  1  0  0  0  0
 26 24  1  0  0  0  0
 26 13  1  0  0  0  0
 28 10  1  0  0  0  0
 28 12  1  0  0  0  0
M  END
>  <MODEL>
9

>  <REMARK>
 VINA RESULT:      -5.0      3.870      7.285
  Name = 
  0 active torsions:
  status: ('A' for Active; 'I' for Inactive)
                            x       y       z     vdW  Elec       q    Type
                         _______ _______ _______ _____ _____    ______ ____

>  <TORSDO>
F 0

$$$$
