=
 OpenBabel11122412143D

 34 41  0  0  1  0  0  0  0  0999 V2000
  185.4620  178.9780  140.9100 C   0  0  2  0  0  3  0  0  0  0  0  0
  187.1050  177.4880  141.9890 C   0  0  0  0  0  2  0  0  0  0  0  0
  179.1700  180.2590  140.7920 C   0  0  1  0  0  3  0  0  0  0  0  0
  183.2930  178.5010  139.8390 C   0  0  0  0  0  0  0  0  0  0  0  0
  181.3190  178.8530  141.3440 C   0  0  0  0  0  0  0  0  0  0  0  0
  178.9610  178.0070  142.0300 C   0  0  0  0  0  1  0  0  0  0  0  0
  179.5620  180.4550  142.2520 C   0  0  0  0  0  2  0  0  0  0  0  0
  180.9160  180.5750  139.0190 C   0  0  0  0  0  3  0  0  0  0  0  0
  185.7660  178.8280  143.3720 C   0  0  1  0  0  3  0  0  0  0  0  0
  185.7330  179.2160  146.2370 C   0  0  0  0  0  2  0  0  0  0  0  0
  182.1270  178.9010  142.3630 N   0  0  0  0  0  0  0  0  0  0  0  0
  181.0390  179.0930  138.8180 C   0  0  0  0  0  2  0  0  0  0  0  0
  184.2850  178.4270  143.5010 C   0  0  2  0  0  3  0  0  0  0  0  0
  187.6190  177.2770  143.3980 C   0  0  0  0  0  2  0  0  0  0  0  0
  181.7960  178.4110  139.9740 C   0  0  1  0  0  3  0  0  0  0  0  0
  180.0830  181.0940  139.9290 C   0  0  0  0  0  3  0  0  0  0  0  0
  186.8690  178.3840  145.6030 C   0  0  2  0  0  3  0  0  0  0  0  0
  184.1460  178.2240  141.0470 C   0  0  2  0  0  3  0  0  0  0  0  0
  179.8610  179.1370  141.5730 C   0  0  2  0  0  0  0  0  0  0  0  0
  183.5130  178.6580  142.2820 N   0  0  0  0  0  0  0  0  0  0  0  0
  185.3630  178.5770  138.5410 C   0  0  0  0  0  3  0  0  0  0  0  0
  184.3310  178.6220  146.0390 C   0  0  0  0  0  2  0  0  0  0  0  0
  183.8880  178.5700  138.6360 C   0  0  0  0  0  3  0  0  0  0  0  0
  183.6800  179.1080  144.7350 C   0  0  0  0  0  2  0  0  0  0  0  0
  186.4850  177.8170  144.2360 C   0  0  1  0  0  3  0  0  0  0  0  0
  186.0900  178.7250  139.6100 N   0  0  0  0  0  0  0  0  0  0  0  0
  186.3820  178.7530  142.0330 N   0  0  2  0  0  0  0  0  0  0  0  0
  187.2170  177.3400  146.4610 O   0  0  0  0  0  0  0  0  0  0  0  0
  188.5040  177.6550  146.9110 C   0  0  0  0  0  2  0  0  0  0  0  0
  191.7480  177.4960  146.1180 O   0  0  0  0  0  0  0  0  0  0  0  0
  190.3870  176.1190  147.4680 C   0  0  0  0  0  2  0  0  0  0  0  0
  189.5370  176.6750  146.3650 C   0  0  2  0  0  3  0  0  0  0  0  0
  191.7940  176.4200  147.0160 C   0  0  0  0  0  2  0  0  0  0  0  0
  190.5220  177.3680  145.4470 C   0  0  0  0  0  2  0  0  0  0  0  0
  1 26  1  6  0  0  0
  1 18  1  0  0  0  0
  1 27  1  0  0  0  0
  2 27  1  0  0  0  0
  2 14  1  0  0  0  0
  3 16  1  6  0  0  0
  3 19  1  0  0  0  0
  3  7  1  0  0  0  0
  4 15  1  0  0  0  0
  4 18  1  0  0  0  0
  5 19  1  0  0  0  0
  5 11  2  0  0  0  0
  8 16  2  0  0  0  0
  9 13  1  0  0  0  0
  9 25  1  0  0  0  0
 12  8  1  0  0  0  0
 12 15  1  0  0  0  0
 13 24  1  0  0  0  0
 14 25  1  0  0  0  0
 15  5  1  0  0  0  0
 17 10  1  0  0  0  0
 17 28  1  0  0  0  0
 18 20  1  0  0  0  0
 19  6  1  0  0  0  0
 19  7  1  0  0  0  0
 20 11  1  0  0  0  0
 20 13  1  0  0  0  0
 21 23  1  0  0  0  0
 21 26  2  0  0  0  0
 22 10  1  0  0  0  0
 23  4  2  0  0  0  0
 24 22  1  0  0  0  0
 25 17  1  0  0  0  0
 27  9  1  0  0  0  0
 28 29  1  0  0  0  0
 30 33  1  0  0  0  0
 32 29  1  0  0  0  0
 32 31  1  0  0  0  0
 33 31  1  0  0  0  0
 34 30  1  0  0  0  0
 34 32  1  0  0  0  0
M  END
>  <MODEL>
1

>  <REMARK>
 VINA RESULT:      -9.7      0.000      0.000
  Name = 
  3 active torsions:
  status: ('A' for Active; 'I' for Inactive)
    1  A    between atoms: C_17  and  O_28
    2  A    between atoms: O_28  and  C_29
    3  A    between atoms: C_29  and  C_32
                            x       y       z     vdW  Elec       q    Type
                         _______ _______ _______ _____ _____    ______ ____

>  <TORSDO>
F 3

$$$$
=
 OpenBabel11122412143D

 34 41  0  0  1  0  0  0  0  0999 V2000
  185.0360  179.1410  144.6070 C   0  0  2  0  0  3  0  0  0  0  0  0
  182.7730  178.5820  143.8000 C   0  0  0  0  0  2  0  0  0  0  0  0
  191.1890  177.4620  143.8530 C   0  0  1  0  0  3  0  0  0  0  0  0
  186.8810  177.7080  145.3950 C   0  0  0  0  0  0  0  0  0  0  0  0
  188.5850  177.1870  143.6330 C   0  0  0  0  0  0  0  0  0  0  0  0
  190.2010  175.3970  142.6670 C   0  0  0  0  0  1  0  0  0  0  0  0
  190.7380  177.8600  142.4530 C   0  0  0  0  0  2  0  0  0  0  0  0
  190.0200  178.4690  145.8310 C   0  0  0  0  0  3  0  0  0  0  0  0
  184.3750  179.2240  142.2120 C   0  0  1  0  0  3  0  0  0  0  0  0
  184.2020  179.6500  139.3580 C   0  0  0  0  0  2  0  0  0  0  0  0
  187.7580  177.6250  142.7280 N   0  0  0  0  0  0  0  0  0  0  0  0
  189.2730  177.1930  146.0910 C   0  0  0  0  0  2  0  0  0  0  0  0
  185.4880  178.2060  141.9000 C   0  0  2  0  0  3  0  0  0  0  0  0
  182.0390  178.6700  142.4780 C   0  0  0  0  0  2  0  0  0  0  0  0
  188.1450  176.9610  145.0670 C   0  0  1  0  0  3  0  0  0  0  0  0
  190.8690  178.5890  144.8030 C   0  0  0  0  0  3  0  0  0  0  0  0
  182.9080  179.3950  140.1610 C   0  0  2  0  0  3  0  0  0  0  0  0
  185.8430  177.8820  144.3200 C   0  0  2  0  0  3  0  0  0  0  0  0
  189.9720  176.7940  143.2050 C   0  0  2  0  0  0  0  0  0  0  0  0
  186.4340  178.0270  142.9990 N   0  0  0  0  0  0  0  0  0  0  0  0
  185.2550  178.6620  146.9530 C   0  0  0  0  0  3  0  0  0  0  0  0
  185.2010  178.4830  139.3870 C   0  0  0  0  0  2  0  0  0  0  0  0
  186.5440  177.9980  146.6630 C   0  0  0  0  0  3  0  0  0  0  0  0
  186.1660  178.5840  140.5780 C   0  0  0  0  0  2  0  0  0  0  0  0
  183.1730  178.6720  141.4820 C   0  0  1  0  0  3  0  0  0  0  0  0
  184.5380  179.1550  145.9860 N   0  0  0  0  0  0  0  0  0  0  0  0
  183.9730  179.3900  143.6220 N   0  0  2  0  0  0  0  0  0  0  0  0
  182.0190  178.6450  139.3890 O   0  0  0  0  0  0  0  0  0  0  0  0
  181.7020  179.4680  138.3020 C   0  0  0  0  0  2  0  0  0  0  0  0
  179.3620  180.0820  140.6100 O   0  0  0  0  0  0  0  0  0  0  0  0
  180.3200  181.4440  138.9370 C   0  0  0  0  0  2  0  0  0  0  0  0
  180.2900  180.0330  138.4290 C   0  0  2  0  0  3  0  0  0  0  0  0
  179.4160  181.4030  140.1440 C   0  0  0  0  0  2  0  0  0  0  0  0
  179.4860  179.2780  139.4670 C   0  0  0  0  0  2  0  0  0  0  0  0
  1 26  1  1  0  0  0
  3  7  1  6  0  0  0
  3 16  1  0  0  0  0
  4 23  2  0  0  0  0
  5 15  1  0  0  0  0
  6 19  1  0  0  0  0
  7 19  1  0  0  0  0
  8 12  1  0  0  0  0
  9 27  1  0  0  0  0
 10 22  1  0  0  0  0
 10 17  1  0  0  0  0
 11 20  1  0  0  0  0
 11  5  2  0  0  0  0
 13  9  1  0  0  0  0
 13 20  1  0  0  0  0
 14  2  1  0  0  0  0
 15  4  1  0  0  0  0
 15 12  1  0  0  0  0
 16  8  2  0  0  0  0
 17 25  1  0  0  0  0
 18  1  1  0  0  0  0
 18  4  1  0  0  0  0
 19  5  1  0  0  0  0
 19  3  1  0  0  0  0
 20 18  1  0  0  0  0
 22 24  1  0  0  0  0
 23 21  1  0  0  0  0
 24 13  1  0  0  0  0
 25  9  1  0  0  0  0
 25 14  1  0  0  0  0
 26 21  2  0  0  0  0
 27  2  1  0  0  0  0
 27  1  1  0  0  0  0
 28 17  1  0  0  0  0
 29 32  1  0  0  0  0
 29 28  1  0  0  0  0
 31 33  1  0  0  0  0
 32 31  1  0  0  0  0
 32 34  1  0  0  0  0
 33 30  1  0  0  0  0
 34 30  1  0  0  0  0
M  END
>  <MODEL>
2

>  <REMARK>
 VINA RESULT:      -9.3      2.986      9.027
  Name = 
  3 active torsions:
  status: ('A' for Active; 'I' for Inactive)
    1  A    between atoms: C_17  and  O_28
    2  A    between atoms: O_28  and  C_29
    3  A    between atoms: C_29  and  C_32
                            x       y       z     vdW  Elec       q    Type
                         _______ _______ _______ _____ _____    ______ ____

>  <TORSDO>
F 3

$$$$
=
 OpenBabel11122412143D

 34 41  0  0  1  0  0  0  0  0999 V2000
  184.9950  179.1460  144.5890 C   0  0  2  0  0  3  0  0  0  0  0  0
  182.7320  178.5720  143.7940 C   0  0  0  0  0  2  0  0  0  0  0  0
  191.1530  177.4960  143.8180 C   0  0  1  0  0  3  0  0  0  0  0  0
  186.8500  177.7260  145.3760 C   0  0  0  0  0  0  0  0  0  0  0  0
  188.5500  177.2060  143.6090 C   0  0  0  0  0  0  0  0  0  0  0  0
  190.1710  175.4210  142.6450 C   0  0  0  0  0  1  0  0  0  0  0  0
  190.6940  177.8860  142.4170 C   0  0  0  0  0  2  0  0  0  0  0  0
  189.9870  178.5050  145.7960 C   0  0  0  0  0  3  0  0  0  0  0  0
  184.3240  179.2160  142.1970 C   0  0  1  0  0  3  0  0  0  0  0  0
  184.1370  179.6290  139.3420 C   0  0  0  0  0  2  0  0  0  0  0  0
  187.7170  177.6360  142.7060 N   0  0  0  0  0  0  0  0  0  0  0  0
  189.2480  177.2260  146.0640 C   0  0  0  0  0  2  0  0  0  0  0  0
  185.4410  178.2020  141.8850 C   0  0  2  0  0  3  0  0  0  0  0  0
  181.9920  178.6510  142.4750 C   0  0  0  0  0  2  0  0  0  0  0  0
  188.1170  176.9840  145.0460 C   0  0  1  0  0  3  0  0  0  0  0  0
  190.8320  178.6250  144.7650 C   0  0  0  0  0  3  0  0  0  0  0  0
  182.8480  179.3700  140.1510 C   0  0  2  0  0  3  0  0  0  0  0  0
  185.8070  177.8900  144.3050 C   0  0  2  0  0  3  0  0  0  0  0  0
  189.9370  176.8190  143.1770 C   0  0  2  0  0  0  0  0  0  0  0  0
  186.3930  178.0330  142.9810 N   0  0  0  0  0  0  0  0  0  0  0  0
  185.2260  178.6780  146.9370 C   0  0  0  0  0  3  0  0  0  0  0  0
  185.1420  178.4670  139.3710 C   0  0  0  0  0  2  0  0  0  0  0  0
  186.5170  178.0190  146.6450 C   0  0  0  0  0  3  0  0  0  0  0  0
  186.1120  178.5780  140.5580 C   0  0  0  0  0  2  0  0  0  0  0  0
  183.1210  178.6540  141.4740 C   0  0  1  0  0  3  0  0  0  0  0  0
  184.5020  179.1630  145.9700 N   0  0  0  0  0  0  0  0  0  0  0  0
  183.9270  179.3850  143.6080 N   0  0  2  0  0  0  0  0  0  0  0  0
  181.9590  178.6130  139.3860 O   0  0  0  0  0  0  0  0  0  0  0  0
  181.8650  179.2900  138.1650 C   0  0  0  0  0  2  0  0  0  0  0  0
  182.6700  176.2650  136.9920 O   0  0  0  0  0  0  0  0  0  0  0  0
  180.5880  177.2560  137.4980 C   0  0  0  0  0  2  0  0  0  0  0  0
  181.5160  178.3350  137.0280 C   0  0  2  0  0  3  0  0  0  0  0  0
  181.3010  175.9840  137.1110 C   0  0  0  0  0  2  0  0  0  0  0  0
  182.7400  177.5910  136.5380 C   0  0  0  0  0  2  0  0  0  0  0  0
  1 26  1  1  0  0  0
  3  7  1  6  0  0  0
  3 16  1  0  0  0  0
  4 23  2  0  0  0  0
  5 15  1  0  0  0  0
  6 19  1  0  0  0  0
  7 19  1  0  0  0  0
  8 12  1  0  0  0  0
  9 27  1  0  0  0  0
 10 22  1  0  0  0  0
 10 17  1  0  0  0  0
 11 20  1  0  0  0  0
 11  5  2  0  0  0  0
 13  9  1  0  0  0  0
 13 20  1  0  0  0  0
 14  2  1  0  0  0  0
 15  4  1  0  0  0  0
 15 12  1  0  0  0  0
 16  8  2  0  0  0  0
 17 25  1  0  0  0  0
 18  1  1  0  0  0  0
 18  4  1  0  0  0  0
 19  5  1  0  0  0  0
 19  3  1  0  0  0  0
 20 18  1  0  0  0  0
 22 24  1  0  0  0  0
 23 21  1  0  0  0  0
 24 13  1  0  0  0  0
 25  9  1  0  0  0  0
 25 14  1  0  0  0  0
 26 21  2  0  0  0  0
 27  2  1  0  0  0  0
 27  1  1  0  0  0  0
 28 17  1  0  0  0  0
 29 28  1  0  0  0  0
 30 33  1  0  0  0  0
 32 31  1  0  0  0  0
 32 29  1  0  0  0  0
 33 31  1  0  0  0  0
 34 30  1  0  0  0  0
 34 32  1  0  0  0  0
M  END
>  <MODEL>
3

>  <REMARK>
 VINA RESULT:      -9.0      3.132      8.894
  Name = 
  3 active torsions:
  status: ('A' for Active; 'I' for Inactive)
    1  A    between atoms: C_17  and  O_28
    2  A    between atoms: O_28  and  C_29
    3  A    between atoms: C_29  and  C_32
                            x       y       z     vdW  Elec       q    Type
                         _______ _______ _______ _____ _____    ______ ____

>  <TORSDO>
F 3

$$$$
=
 OpenBabel11122412143D

 34 41  0  0  1  0  0  0  0  0999 V2000
  187.0960  178.7830  142.0670 C   0  0  2  0  0  3  0  0  0  0  0  0
  187.6470  177.5560  140.0000 C   0  0  0  0  0  2  0  0  0  0  0  0
  187.6200  178.3450  148.4530 C   0  0  1  0  0  3  0  0  0  0  0  0
  186.0340  178.0390  144.1650 C   0  0  0  0  0  0  0  0  0  0  0  0
  187.6650  177.4620  145.9790 C   0  0  0  0  0  0  0  0  0  0  0  0
  188.1980  175.8790  147.9680 C   0  0  0  0  0  1  0  0  0  0  0  0
  189.0580  178.2590  147.9550 C   0  0  0  0  0  2  0  0  0  0  0  0
  185.9250  179.5500  147.0510 C   0  0  0  0  0  3  0  0  0  0  0  0
  189.4050  178.0970  141.4550 C   0  0  1  0  0  3  0  0  0  0  0  0
  192.2640  177.7220  141.2530 C   0  0  0  0  0  2  0  0  0  0  0  0
  188.6210  177.4610  145.0950 N   0  0  0  0  0  0  0  0  0  0  0  0
  185.3190  178.2540  146.5970 C   0  0  0  0  0  2  0  0  0  0  0  0
  189.4850  177.3000  142.7710 C   0  0  2  0  0  3  0  0  0  0  0  0
  188.9190  177.1370  139.2930 C   0  0  0  0  0  2  0  0  0  0  0  0
  186.2060  177.5260  145.5690 C   0  0  1  0  0  3  0  0  0  0  0  0
  186.9800  179.5820  147.8740 C   0  0  0  0  0  3  0  0  0  0  0  0
  191.3750  177.4080  140.0300 C   0  0  2  0  0  3  0  0  0  0  0  0
  187.0780  177.6990  143.1370 C   0  0  2  0  0  3  0  0  0  0  0  0
  188.0290  177.2840  147.4270 C   0  0  2  0  0  0  0  0  0  0  0  0
  188.4140  177.6220  143.7100 N   0  0  0  0  0  0  0  0  0  0  0  0
  184.7150  178.9860  142.3380 C   0  0  0  0  0  3  0  0  0  0  0  0
  191.9740  176.8480  142.4830 C   0  0  0  0  0  2  0  0  0  0  0  0
  184.8710  178.5660  143.7460 C   0  0  0  0  0  3  0  0  0  0  0  0
  190.8850  177.4610  143.3770 C   0  0  0  0  0  2  0  0  0  0  0  0
  189.9240  177.1270  140.4190 C   0  0  1  0  0  3  0  0  0  0  0  0
  185.7490  179.0440  141.5500 N   0  0  0  0  0  0  0  0  0  0  0  0
  188.0710  178.5310  140.9970 N   0  0  2  0  0  0  0  0  0  0  0  0
  191.8950  176.3100  139.3430 O   0  0  0  0  0  0  0  0  0  0  0  0
  192.2210  176.7980  138.0730 C   0  0  0  0  0  2  0  0  0  0  0  0
  190.3740  174.0610  137.5500 O   0  0  0  0  0  0  0  0  0  0  0  0
  190.6190  176.0560  136.3130 C   0  0  0  0  0  2  0  0  0  0  0  0
  191.9240  175.7650  136.9900 C   0  0  2  0  0  3  0  0  0  0  0  0
  189.8510  174.7650  136.4560 C   0  0  0  0  0  2  0  0  0  0  0  0
  191.7390  174.3840  137.5820 C   0  0  0  0  0  2  0  0  0  0  0  0
  1 26  1  6  0  0  0
  1 18  1  0  0  0  0
  2 27  1  0  0  0  0
  3 16  1  6  0  0  0
  4 15  1  0  0  0  0
  5 19  1  0  0  0  0
  7  3  1  0  0  0  0
  8 16  2  0  0  0  0
  9 13  1  0  0  0  0
 10 22  1  0  0  0  0
 11  5  2  0  0  0  0
 12  8  1  0  0  0  0
 13 24  1  0  0  0  0
 13 20  1  0  0  0  0
 14  2  1  0  0  0  0
 14 25  1  0  0  0  0
 15  5  1  0  0  0  0
 15 12  1  0  0  0  0
 17 25  1  0  0  0  0
 17 10  1  0  0  0  0
 18 20  1  0  0  0  0
 18  4  1  0  0  0  0
 19  7  1  0  0  0  0
 19  6  1  0  0  0  0
 19  3  1  0  0  0  0
 20 11  1  0  0  0  0
 21 23  1  0  0  0  0
 22 24  1  0  0  0  0
 23  4  2  0  0  0  0
 25  9  1  0  0  0  0
 26 21  2  0  0  0  0
 27  9  1  0  0  0  0
 27  1  1  0  0  0  0
 28 17  1  0  0  0  0
 29 28  1  0  0  0  0
 30 34  1  0  0  0  0
 31 33  1  0  0  0  0
 31 32  1  0  0  0  0
 32 34  1  0  0  0  0
 32 29  1  0  0  0  0
 33 30  1  0  0  0  0
M  END
>  <MODEL>
4

>  <REMARK>
 VINA RESULT:      -9.0      3.847      7.808
  Name = 
  3 active torsions:
  status: ('A' for Active; 'I' for Inactive)
    1  A    between atoms: C_17  and  O_28
    2  A    between atoms: O_28  and  C_29
    3  A    between atoms: C_29  and  C_32
                            x       y       z     vdW  Elec       q    Type
                         _______ _______ _______ _____ _____    ______ ____

>  <TORSDO>
F 3

$$$$
=
 OpenBabel11122412143D

 34 41  0  0  1  0  0  0  0  0999 V2000
  185.3510  178.8590  139.9970 C   0  0  2  0  0  3  0  0  0  0  0  0
  186.7930  177.8200  141.7060 C   0  0  0  0  0  2  0  0  0  0  0  0
  179.3030  178.8220  137.8380 C   0  0  1  0  0  3  0  0  0  0  0  0
  183.7490  177.8720  138.4030 C   0  0  0  0  0  0  0  0  0  0  0  0
  181.3700  177.9270  139.1900 C   0  0  0  0  0  0  0  0  0  0  0  0
  179.0960  176.6750  139.2490 C   0  0  0  0  0  1  0  0  0  0  0  0
  179.1710  179.2030  139.3080 C   0  0  0  0  0  2  0  0  0  0  0  0
  181.4420  179.3520  136.6400 C   0  0  0  0  0  3  0  0  0  0  0  0
  184.8770  178.9600  142.4340 C   0  0  1  0  0  3  0  0  0  0  0  0
  183.8690  179.5480  145.0790 C   0  0  0  0  0  2  0  0  0  0  0  0
  181.7910  178.2150  140.3870 N   0  0  0  0  0  0  0  0  0  0  0  0
  181.8720  177.9140  136.6870 C   0  0  0  0  0  2  0  0  0  0  0  0
  183.5220  178.2770  142.1690 C   0  0  2  0  0  3  0  0  0  0  0  0
  186.8590  177.8240  143.2200 C   0  0  0  0  0  2  0  0  0  0  0  0
  182.3260  177.4890  138.0960 C   0  0  1  0  0  3  0  0  0  0  0  0
  180.2880  179.7580  137.1820 C   0  0  0  0  0  3  0  0  0  0  0  0
  185.2710  178.9190  144.9310 C   0  0  2  0  0  3  0  0  0  0  0  0
  184.2080  177.8650  139.8350 C   0  0  2  0  0  3  0  0  0  0  0  0
  179.8890  177.9260  138.9330 C   0  0  2  0  0  0  0  0  0  0  0  0
  183.1510  178.2540  140.7560 N   0  0  0  0  0  0  0  0  0  0  0  0
  186.0810  178.2690  137.7820 C   0  0  0  0  0  3  0  0  0  0  0  0
  182.7240  178.6680  144.5540 C   0  0  0  0  0  2  0  0  0  0  0  0
  184.6750  177.9700  137.4340 C   0  0  0  0  0  3  0  0  0  0  0  0
  182.4500  178.9120  143.0620 C   0  0  0  0  0  2  0  0  0  0  0  0
  185.4440  178.1840  143.6010 C   0  0  1  0  0  3  0  0  0  0  0  0
  186.3940  178.6410  138.9890 N   0  0  0  0  0  0  0  0  0  0  0  0
  185.8900  178.9110  141.3630 N   0  0  2  0  0  0  0  0  0  0  0  0
  185.5000  178.0340  145.9860 O   0  0  0  0  0  0  0  0  0  0  0  0
  186.4940  178.6430  146.7590 C   0  0  0  0  0  2  0  0  0  0  0  0
  189.7470  177.8740  146.8560 O   0  0  0  0  0  0  0  0  0  0  0  0
  188.1420  178.1510  148.5640 C   0  0  0  0  0  2  0  0  0  0  0  0
  187.4440  177.6080  147.3540 C   0  0  2  0  0  3  0  0  0  0  0  0
  189.6040  177.9520  148.2480 C   0  0  0  0  0  2  0  0  0  0  0  0
  188.5660  177.2730  146.3930 C   0  0  0  0  0  2  0  0  0  0  0  0
  1 26  1  6  0  0  0
  1 27  1  0  0  0  0
  2 14  1  0  0  0  0
  3 16  1  6  0  0  0
  3 19  1  0  0  0  0
  3  7  1  0  0  0  0
  4 18  1  0  0  0  0
  5 11  2  0  0  0  0
  8 12  1  0  0  0  0
  8 16  2  0  0  0  0
  9 25  1  0  0  0  0
 11 20  1  0  0  0  0
 12 15  1  0  0  0  0
 13  9  1  0  0  0  0
 13 24  1  0  0  0  0
 14 25  1  0  0  0  0
 15  4  1  0  0  0  0
 15  5  1  0  0  0  0
 17 10  1  0  0  0  0
 17 28  1  0  0  0  0
 18  1  1  0  0  0  0
 18 20  1  0  0  0  0
 19  5  1  0  0  0  0
 19  6  1  0  0  0  0
 19  7  1  0  0  0  0
 20 13  1  0  0  0  0
 21 26  2  0  0  0  0
 22 10  1  0  0  0  0
 23 21  1  0  0  0  0
 23  4  2  0  0  0  0
 24 22  1  0  0  0  0
 25 17  1  0  0  0  0
 27  2  1  0  0  0  0
 27  9  1  0  0  0  0
 28 29  1  0  0  0  0
 29 32  1  0  0  0  0
 30 33  1  0  0  0  0
 32 31  1  0  0  0  0
 33 31  1  0  0  0  0
 34 30  1  0  0  0  0
 34 32  1  0  0  0  0
M  END
>  <MODEL>
5

>  <REMARK>
 VINA RESULT:      -8.4      1.672      2.152
  Name = 
  3 active torsions:
  status: ('A' for Active; 'I' for Inactive)
    1  A    between atoms: C_17  and  O_28
    2  A    between atoms: O_28  and  C_29
    3  A    between atoms: C_29  and  C_32
                            x       y       z     vdW  Elec       q    Type
                         _______ _______ _______ _____ _____    ______ ____

>  <TORSDO>
F 3

$$$$
=
 OpenBabel11122412143D

 34 41  0  0  1  0  0  0  0  0999 V2000
  186.2860  178.8660  141.5790 C   0  0  2  0  0  3  0  0  0  0  0  0
  185.0220  178.2190  139.5630 C   0  0  0  0  0  2  0  0  0  0  0  0
  191.3750  177.1200  145.0860 C   0  0  1  0  0  3  0  0  0  0  0  0
  187.1020  177.5300  143.4850 C   0  0  0  0  0  0  0  0  0  0  0  0
  189.4960  176.8190  143.2740 C   0  0  0  0  0  0  0  0  0  0  0  0
  191.2270  174.9360  143.7250 C   0  0  0  0  0  1  0  0  0  0  0  0
  191.9480  177.3610  143.6940 C   0  0  0  0  0  2  0  0  0  0  0  0
  189.2890  178.3380  145.7620 C   0  0  0  0  0  3  0  0  0  0  0  0
  187.3080  178.6830  139.3210 C   0  0  1  0  0  3  0  0  0  0  0  0
  189.0210  178.7910  136.9940 C   0  0  0  0  0  2  0  0  0  0  0  0
  189.4670  177.1540  142.0170 N   0  0  0  0  0  0  0  0  0  0  0  0
  188.4610  177.0980  145.5910 C   0  0  0  0  0  2  0  0  0  0  0  0
  188.2900  177.6380  139.8820 C   0  0  2  0  0  3  0  0  0  0  0  0
  185.3050  178.1590  138.0760 C   0  0  0  0  0  2  0  0  0  0  0  0
  188.2300  176.7530  144.1070 C   0  0  1  0  0  3  0  0  0  0  0  0
  190.6040  178.3450  145.5110 C   0  0  0  0  0  3  0  0  0  0  0  0
  187.4980  178.6250  136.8010 C   0  0  2  0  0  3  0  0  0  0  0  0
  187.0000  177.5840  141.9850 C   0  0  2  0  0  3  0  0  0  0  0  0
  190.8060  176.3840  143.8690 C   0  0  2  0  0  0  0  0  0  0  0  0
  188.3060  177.5820  141.3420 N   0  0  0  0  0  0  0  0  0  0  0  0
  184.9280  178.6480  143.5520 C   0  0  0  0  0  3  0  0  0  0  0  0
  189.6890  177.6360  137.7560 C   0  0  0  0  0  2  0  0  0  0  0  0
  186.0560  177.9580  144.2130 C   0  0  0  0  0  3  0  0  0  0  0  0
  189.6790  177.8680  139.2740 C   0  0  0  0  0  2  0  0  0  0  0  0
  186.8100  178.0520  138.0410 C   0  0  1  0  0  3  0  0  0  0  0  0
  185.0270  179.0300  142.3120 N   0  0  0  0  0  0  0  0  0  0  0  0
  186.1140  179.0030  140.1260 N   0  0  2  0  0  0  0  0  0  0  0  0
  187.2540  177.7940  135.7060 O   0  0  0  0  0  0  0  0  0  0  0  0
  187.8510  176.5730  136.0380 C   0  0  0  0  0  2  0  0  0  0  0  0
  185.2890  174.7670  137.1990 O   0  0  0  0  0  0  0  0  0  0  0  0
  185.6330  175.8720  135.1420 C   0  0  0  0  0  2  0  0  0  0  0  0
  186.9630  175.3970  135.6440 C   0  0  2  0  0  3  0  0  0  0  0  0
  184.6440  175.1320  136.0090 C   0  0  0  0  0  2  0  0  0  0  0  0
  186.6260  174.5350  136.8430 C   0  0  0  0  0  2  0  0  0  0  0  0
  1 18  1  0  0  0  0
  1 26  1  1  0  0  0
  2 27  1  0  0  0  0
  3  7  1  6  0  0  0
  3 16  1  0  0  0  0
  4 15  1  0  0  0  0
  4 23  2  0  0  0  0
  5 19  1  0  0  0  0
  5 15  1  0  0  0  0
  6 19  1  0  0  0  0
  7 19  1  0  0  0  0
  9 13  1  0  0  0  0
  9 27  1  0  0  0  0
 10 22  1  0  0  0  0
 11  5  2  0  0  0  0
 12  8  1  0  0  0  0
 13 20  1  0  0  0  0
 14  2  1  0  0  0  0
 15 12  1  0  0  0  0
 16  8  2  0  0  0  0
 17 10  1  0  0  0  0
 17 25  1  0  0  0  0
 18  4  1  0  0  0  0
 19  3  1  0  0  0  0
 20 18  1  0  0  0  0
 20 11  1  0  0  0  0
 21 23  1  0  0  0  0
 22 24  1  0  0  0  0
 24 13  1  0  0  0  0
 25 14  1  0  0  0  0
 25  9  1  0  0  0  0
 26 21  2  0  0  0  0
 27  1  1  0  0  0  0
 28 29  1  0  0  0  0
 28 17  1  0  0  0  0
 31 32  1  0  0  0  0
 31 33  1  0  0  0  0
 32 29  1  0  0  0  0
 32 34  1  0  0  0  0
 33 30  1  0  0  0  0
 34 30  1  0  0  0  0
M  END
>  <MODEL>
6

>  <REMARK>
 VINA RESULT:      -8.0      3.938      8.993
  Name = 
  3 active torsions:
  status: ('A' for Active; 'I' for Inactive)
    1  A    between atoms: C_17  and  O_28
    2  A    between atoms: O_28  and  C_29
    3  A    between atoms: C_29  and  C_32
                            x       y       z     vdW  Elec       q    Type
                         _______ _______ _______ _____ _____    ______ ____

>  <TORSDO>
F 3

$$$$
=
 OpenBabel11122412143D

 34 41  0  0  1  0  0  0  0  0999 V2000
  183.9030  178.0930  141.3910 C   0  0  2  0  0  3  0  0  0  0  0  0
  183.8060  179.4000  143.4800 C   0  0  0  0  0  2  0  0  0  0  0  0
  187.7800  176.8550  136.4230 C   0  0  1  0  0  3  0  0  0  0  0  0
  184.5730  178.7300  139.1040 C   0  0  0  0  0  0  0  0  0  0  0  0
  186.9490  178.1590  138.5470 C   0  0  0  0  0  0  0  0  0  0  0  0
  189.0980  178.8950  137.2880 C   0  0  0  0  0  1  0  0  0  0  0  0
  188.5950  176.4410  137.6420 C   0  0  0  0  0  2  0  0  0  0  0  0
  185.2760  176.8080  136.5680 C   0  0  0  0  0  3  0  0  0  0  0  0
  185.5640  177.8690  143.2260 C   0  0  1  0  0  3  0  0  0  0  0  0
  187.6860  177.0530  145.0110 C   0  0  0  0  0  2  0  0  0  0  0  0
  187.1780  177.9560  139.8120 N   0  0  0  0  0  0  0  0  0  0  0  0
  185.2140  178.3030  136.6800 C   0  0  0  0  0  2  0  0  0  0  0  0
  186.6740  178.2490  142.2270 C   0  0  2  0  0  3  0  0  0  0  0  0
  184.5490  179.3950  144.8000 C   0  0  0  0  0  2  0  0  0  0  0  0
  185.6610  178.8020  138.0680 C   0  0  1  0  0  3  0  0  0  0  0  0
  186.4430  176.1590  136.4740 C   0  0  0  0  0  3  0  0  0  0  0  0
  186.5640  177.9690  145.5450 C   0  0  2  0  0  3  0  0  0  0  0  0
  184.9500  178.8210  140.5580 C   0  0  2  0  0  3  0  0  0  0  0  0
  188.0400  177.8460  137.5620 C   0  0  2  0  0  0  0  0  0  0  0  0
  186.2400  178.2060  140.8330 N   0  0  0  0  0  0  0  0  0  0  0  0
  182.2400  178.8470  139.8260 C   0  0  0  0  0  3  0  0  0  0  0  0
  188.5220  177.6730  143.8810 C   0  0  0  0  0  2  0  0  0  0  0  0
  183.2760  178.8420  138.7720 C   0  0  0  0  0  3  0  0  0  0  0  0
  187.9160  177.3900  142.4980 C   0  0  0  0  0  2  0  0  0  0  0  0
  185.8560  178.7370  144.4290 C   0  0  1  0  0  3  0  0  0  0  0  0
  182.5480  178.5390  141.0520 N   0  0  0  0  0  0  0  0  0  0  0  0
  184.1680  178.1440  142.8350 N   0  0  2  0  0  0  0  0  0  0  0  0
  187.0970  178.8720  146.4670 O   0  0  0  0  0  0  0  0  0  0  0  0
  186.7150  178.3780  147.7190 C   0  0  0  0  0  2  0  0  0  0  0  0
  189.3620  176.3410  147.5820 O   0  0  0  0  0  0  0  0  0  0  0  0
  189.1710  178.6460  148.0540 C   0  0  0  0  0  2  0  0  0  0  0  0
  187.9290  177.9650  148.5460 C   0  0  2  0  0  3  0  0  0  0  0  0
  190.1190  177.5020  147.7910 C   0  0  0  0  0  2  0  0  0  0  0  0
  188.2240  176.4880  148.3900 C   0  0  0  0  0  2  0  0  0  0  0  0
  1 26  1  1  0  0  0
  1 27  1  0  0  0  0
  2 14  1  0  0  0  0
  3 16  1  1  0  0  0
  3 19  1  0  0  0  0
  3  7  1  0  0  0  0
  4 18  1  0  0  0  0
  5 11  2  0  0  0  0
  6 19  1  0  0  0  0
  8 12  1  0  0  0  0
  9 25  1  0  0  0  0
 10 17  1  0  0  0  0
 11 20  1  0  0  0  0
 12 15  1  0  0  0  0
 13 24  1  0  0  0  0
 13  9  1  0  0  0  0
 15  5  1  0  0  0  0
 15  4  1  0  0  0  0
 16  8  2  0  0  0  0
 17 28  1  0  0  0  0
 18 20  1  0  0  0  0
 18  1  1  0  0  0  0
 19  7  1  0  0  0  0
 19  5  1  0  0  0  0
 20 13  1  0  0  0  0
 21 26  2  0  0  0  0
 22 10  1  0  0  0  0
 23  4  2  0  0  0  0
 23 21  1  0  0  0  0
 24 22  1  0  0  0  0
 25 14  1  0  0  0  0
 25 17  1  0  0  0  0
 27  9  1  0  0  0  0
 27  2  1  0  0  0  0
 28 29  1  0  0  0  0
 29 32  1  0  0  0  0
 30 33  1  0  0  0  0
 30 34  1  0  0  0  0
 31 32  1  0  0  0  0
 33 31  1  0  0  0  0
 34 32  1  0  0  0  0
M  END
>  <MODEL>
7

>  <REMARK>
 VINA RESULT:      -7.7      1.912      5.052
  Name = 
  3 active torsions:
  status: ('A' for Active; 'I' for Inactive)
    1  A    between atoms: C_17  and  O_28
    2  A    between atoms: O_28  and  C_29
    3  A    between atoms: C_29  and  C_32
                            x       y       z     vdW  Elec       q    Type
                         _______ _______ _______ _____ _____    ______ ____

>  <TORSDO>
F 3

$$$$
=
 OpenBabel11122412143D

 34 41  0  0  1  0  0  0  0  0999 V2000
  185.6740  177.7010  142.9670 C   0  0  2  0  0  3  0  0  0  0  0  0
  186.9610  178.5360  144.8980 C   0  0  0  0  0  2  0  0  0  0  0  0
  185.8090  177.5190  136.5490 C   0  0  1  0  0  3  0  0  0  0  0  0
  184.9910  178.8040  140.8700 C   0  0  0  0  0  0  0  0  0  0  0  0
  186.5210  178.3480  138.9380 C   0  0  0  0  0  0  0  0  0  0  0  0
  187.6370  179.3200  136.8040 C   0  0  0  0  0  1  0  0  0  0  0  0
  187.1130  176.8500  136.9670 C   0  0  0  0  0  2  0  0  0  0  0  0
  183.8590  177.4590  138.1260 C   0  0  0  0  0  3  0  0  0  0  0  0
  188.0400  177.0820  143.4080 C   0  0  1  0  0  3  0  0  0  0  0  0
  190.6740  175.8900  143.4400 C   0  0  0  0  0  2  0  0  0  0  0  0
  187.4040  177.8800  139.7710 N   0  0  0  0  0  0  0  0  0  0  0  0
  184.0670  178.8970  138.5010 C   0  0  0  0  0  2  0  0  0  0  0  0
  188.4170  177.6570  142.0300 C   0  0  2  0  0  3  0  0  0  0  0  0
  188.3180  178.2450  145.5070 C   0  0  0  0  0  2  0  0  0  0  0  0
  185.2880  179.0870  139.4220 C   0  0  1  0  0  3  0  0  0  0  0  0
  184.6650  176.8370  137.2570 C   0  0  0  0  0  3  0  0  0  0  0  0
  190.1900  176.6800  144.6750 C   0  0  2  0  0  3  0  0  0  0  0  0
  186.1400  178.5810  141.8150 C   0  0  2  0  0  3  0  0  0  0  0  0
  186.8000  178.2440  137.4650 C   0  0  2  0  0  0  0  0  0  0  0  0
  187.2620  177.9130  141.1730 N   0  0  0  0  0  0  0  0  0  0  0  0
  183.5300  178.7820  142.8310 C   0  0  0  0  0  3  0  0  0  0  0  0
  190.7840  176.7300  142.1580 C   0  0  0  0  0  2  0  0  0  0  0  0
  183.7650  178.9930  141.3860 C   0  0  0  0  0  3  0  0  0  0  0  0
  189.4650  176.7520  141.3710 C   0  0  0  0  0  2  0  0  0  0  0  0
  189.0780  177.6720  144.3360 C   0  0  1  0  0  3  0  0  0  0  0  0
  184.4410  178.2180  143.5690 N   0  0  0  0  0  0  0  0  0  0  0  0
  186.7220  177.4430  143.9640 N   0  0  2  0  0  0  0  0  0  0  0  0
  191.2670  177.3630  145.2440 O   0  0  0  0  0  0  0  0  0  0  0  0
  192.0560  176.3680  145.8320 C   0  0  0  0  0  2  0  0  0  0  0  0
  193.2190  176.6730  148.9520 O   0  0  0  0  0  0  0  0  0  0  0  0
  191.2060  177.3830  147.9450 C   0  0  0  0  0  2  0  0  0  0  0  0
  191.6370  176.1120  147.2770 C   0  0  2  0  0  3  0  0  0  0  0  0
  192.0710  177.4450  149.1790 C   0  0  0  0  0  2  0  0  0  0  0  0
  192.8050  175.6290  148.1110 C   0  0  0  0  0  2  0  0  0  0  0  0
  1 26  1  1  0  0  0
  1 27  1  0  0  0  0
  2 14  1  0  0  0  0
  3  7  1  1  0  0  0
  3 16  1  0  0  0  0
  3 19  1  0  0  0  0
  4 23  2  0  0  0  0
  4 18  1  0  0  0  0
  5 15  1  0  0  0  0
  5 11  2  0  0  0  0
  6 19  1  0  0  0  0
  7 19  1  0  0  0  0
  8 12  1  0  0  0  0
  9 27  1  0  0  0  0
  9 25  1  0  0  0  0
 10 17  1  0  0  0  0
 11 20  1  0  0  0  0
 12 15  1  0  0  0  0
 13  9  1  0  0  0  0
 15  4  1  0  0  0  0
 16  8  2  0  0  0  0
 17 28  1  0  0  0  0
 18  1  1  0  0  0  0
 19  5  1  0  0  0  0
 20 18  1  0  0  0  0
 20 13  1  0  0  0  0
 21 26  2  0  0  0  0
 22 10  1  0  0  0  0
 23 21  1  0  0  0  0
 24 13  1  0  0  0  0
 24 22  1  0  0  0  0
 25 17  1  0  0  0  0
 25 14  1  0  0  0  0
 27  2  1  0  0  0  0
 28 29  1  0  0  0  0
 29 32  1  0  0  0  0
 30 33  1  0  0  0  0
 31 33  1  0  0  0  0
 32 31  1  0  0  0  0
 32 34  1  0  0  0  0
 34 30  1  0  0  0  0
M  END
>  <MODEL>
8

>  <REMARK>
 VINA RESULT:      -7.4      2.443      5.060
  Name = 
  3 active torsions:
  status: ('A' for Active; 'I' for Inactive)
    1  A    between atoms: C_17  and  O_28
    2  A    between atoms: O_28  and  C_29
    3  A    between atoms: C_29  and  C_32
                            x       y       z     vdW  Elec       q    Type
                         _______ _______ _______ _____ _____    ______ ____

>  <TORSDO>
F 3

$$$$
=
 OpenBabel11122412143D

 34 41  0  0  1  0  0  0  0  0999 V2000
  188.0850  177.0890  142.4010 C   0  0  2  0  0  3  0  0  0  0  0  0
  190.5010  177.5630  142.2700 C   0  0  0  0  0  2  0  0  0  0  0  0
  182.4940  178.7440  139.7080 C   0  0  1  0  0  3  0  0  0  0  0  0
  186.1350  178.5950  142.4860 C   0  0  0  0  0  0  0  0  0  0  0  0
  185.0520  178.9810  140.2590 C   0  0  0  0  0  0  0  0  0  0  0  0
  183.8560  180.6970  138.7190 C   0  0  0  0  0  1  0  0  0  0  0  0
  183.3300  178.2280  138.5430 C   0  0  0  0  0  2  0  0  0  0  0  0
  182.9870  177.8960  142.0170 C   0  0  0  0  0  3  0  0  0  0  0  0
  189.4270  176.8030  140.3290 C   0  0  1  0  0  3  0  0  0  0  0  0
  190.4310  176.1410  137.7000 C   0  0  0  0  0  2  0  0  0  0  0  0
  186.0970  178.4640  139.6810 N   0  0  0  0  0  0  0  0  0  0  0  0
  183.6620  179.1830  142.3900 C   0  0  0  0  0  2  0  0  0  0  0  0
  188.4910  177.8000  139.6200 C   0  0  2  0  0  3  0  0  0  0  0  0
  191.5940  177.3610  141.2400 C   0  0  0  0  0  2  0  0  0  0  0  0
  185.0510  179.3220  141.7370 C   0  0  1  0  0  3  0  0  0  0  0  0
  182.4790  177.6970  140.7950 C   0  0  0  0  0  3  0  0  0  0  0  0
  191.4340  176.4530  138.8320 C   0  0  2  0  0  3  0  0  0  0  0  0
  187.4400  178.3250  141.7890 C   0  0  2  0  0  3  0  0  0  0  0  0
  183.8690  179.3470  139.4060 C   0  0  2  0  0  0  0  0  0  0  0  0
  187.2660  178.0760  140.3670 N   0  0  0  0  0  0  0  0  0  0  0  0
  187.1900  177.7620  144.5290 C   0  0  0  0  0  3  0  0  0  0  0  0
  189.5070  177.3130  137.3370 C   0  0  0  0  0  2  0  0  0  0  0  0
  186.0680  178.4090  143.8160 C   0  0  0  0  0  3  0  0  0  0  0  0
  188.2270  177.3190  138.1880 C   0  0  0  0  0  2  0  0  0  0  0  0
  190.8100  177.2850  139.9520 C   0  0  1  0  0  3  0  0  0  0  0  0
  188.1480  177.1860  143.8620 N   0  0  0  0  0  0  0  0  0  0  0  0
  189.3840  176.7520  141.8030 N   0  0  2  0  0  0  0  0  0  0  0  0
  192.5360  177.1290  138.3070 O   0  0  0  0  0  0  0  0  0  0  0  0
  193.6090  176.2440  138.4580 C   0  0  0  0  0  2  0  0  0  0  0  0
  195.6650  176.2020  135.8210 O   0  0  0  0  0  0  0  0  0  0  0  0
  195.0170  174.5160  137.3420 C   0  0  0  0  0  2  0  0  0  0  0  0
  193.8650  175.4590  137.1740 C   0  0  2  0  0  3  0  0  0  0  0  0
  195.9410  174.8820  136.2060 C   0  0  0  0  0  2  0  0  0  0  0  0
  194.2900  176.3750  136.0450 C   0  0  0  0  0  2  0  0  0  0  0  0
  1 26  1  1  0  0  0
  3  7  1  6  0  0  0
  3 16  1  0  0  0  0
  4 23  2  0  0  0  0
  5 15  1  0  0  0  0
  6 19  1  0  0  0  0
  7 19  1  0  0  0  0
  8 12  1  0  0  0  0
  9 27  1  0  0  0  0
 10 17  1  0  0  0  0
 11  5  2  0  0  0  0
 11 20  1  0  0  0  0
 13  9  1  0  0  0  0
 13 20  1  0  0  0  0
 14  2  1  0  0  0  0
 15 12  1  0  0  0  0
 15  4  1  0  0  0  0
 16  8  2  0  0  0  0
 17 25  1  0  0  0  0
 18  1  1  0  0  0  0
 18  4  1  0  0  0  0
 19  3  1  0  0  0  0
 19  5  1  0  0  0  0
 20 18  1  0  0  0  0
 22 10  1  0  0  0  0
 22 24  1  0  0  0  0
 23 21  1  0  0  0  0
 24 13  1  0  0  0  0
 25  9  1  0  0  0  0
 25 14  1  0  0  0  0
 26 21  2  0  0  0  0
 27  2  1  0  0  0  0
 27  1  1  0  0  0  0
 28 29  1  0  0  0  0
 28 17  1  0  0  0  0
 30 34  1  0  0  0  0
 30 33  1  0  0  0  0
 32 31  1  0  0  0  0
 32 29  1  0  0  0  0
 33 31  1  0  0  0  0
 34 32  1  0  0  0  0
M  END
>  <MODEL>
9

>  <REMARK>
 VINA RESULT:      -7.3      4.883      6.970
  Name = 
  3 active torsions:
  status: ('A' for Active; 'I' for Inactive)
    1  A    between atoms: C_17  and  O_28
    2  A    between atoms: O_28  and  C_29
    3  A    between atoms: C_29  and  C_32
                            x       y       z     vdW  Elec       q    Type
                         _______ _______ _______ _____ _____    ______ ____

>  <TORSDO>
F 3

$$$$
