=
 OpenBabel11122411123D

 31 35  0  0  1  0  0  0  0  0999 V2000
  190.0150  175.8480  142.6420 C   0  0  0  0  0  0  0  0  0  0  0  0
  186.6620  177.1470  143.7910 C   0  0  2  0  0  3  0  0  0  0  0  0
  186.8990  178.0640  144.9970 C   0  0  2  0  0  3  0  0  0  0  0  0
  187.8530  177.8530  147.2800 C   0  0  0  0  0  0  0  0  0  0  0  0
  187.9150  176.9580  142.9780 C   0  0  0  0  0  0  0  0  0  0  0  0
  190.3280  176.6290  141.4020 C   0  0  0  0  0  2  0  0  0  0  0  0
  187.8800  177.5020  145.9890 C   0  0  0  0  0  3  0  0  0  0  0  0
  185.8880  178.9020  141.9920 C   0  0  2  0  0  3  0  0  0  0  0  0
  190.8160  174.9620  143.0400 O   0  0  0  0  0  0  0  0  0  0  0  0
  184.6160  178.9470  144.6500 C   0  0  0  0  0  2  0  0  0  0  0  0
  188.8200  177.3430  148.1350 O   0  0  0  0  0  1  0  0  0  0  0  0
  187.3990  179.0820  141.8010 C   0  0  0  0  0  2  0  0  0  0  0  0
  185.5170  177.7220  142.9170 C   0  0  2  0  0  3  0  0  0  0  0  0
  188.7940  176.0770  143.3580 N   0  0  0  0  0  0  0  0  0  0  0  0
  186.7610  178.7280  147.8550 C   0  0  0  0  0  2  0  0  0  0  0  0
  188.1130  177.7420  141.6980 C   0  0  1  0  0  3  0  0  0  0  0  0
  189.5980  177.9680  141.4330 C   0  0  0  0  0  2  0  0  0  0  0  0
  184.3400  177.9770  143.6620 O   0  0  0  0  0  0  0  0  0  0  0  0
  185.5750  178.3760  145.6840 C   0  0  2  0  0  3  0  0  0  0  0  0
  185.8530  179.3720  146.7980 C   0  0  0  0  0  2  0  0  0  0  0  0
  183.1090  179.3170  141.4400 O   0  0  0  0  0  0  0  0  0  0  0  0
  183.8530  178.9800  140.4820 C   0  0  0  0  0  0  0  0  0  0  0  0
  185.2410  178.7120  140.7020 N   0  0  0  0  0  2  0  0  0  0  0  0
  180.3480  179.2490  139.0900 C   0  0  1  0  0  3  0  0  0  0  0  0
  182.6550  180.2260  138.6870 C   0  0  0  0  0  2  0  0  0  0  0  0
  182.8780  176.5080  139.4160 C   0  0  0  0  0  1  0  0  0  0  0  0
  179.8190  180.1090  140.2200 C   0  0  0  0  0  1  0  0  0  0  0  0
  181.2300  180.0820  138.1510 C   0  0  0  0  0  2  0  0  0  0  0  0
  182.3130  177.7590  138.9300 N   0  0  0  0  0  0  0  0  0  0  0  0
  183.2700  178.8760  139.0970 C   0  0  2  0  0  3  0  0  0  0  0  0
  181.0800  178.0310  139.6680 C   0  0  0  0  0  2  0  0  0  0  0  0
  1  9  2  0  0  0  0
  1 14  1  0  0  0  0
  2  5  1  6  0  0  0
  2  3  1  0  0  0  0
  3 19  1  0  0  0  0
  3  7  1  1  0  0  0
  4 15  1  0  0  0  0
  4 11  1  0  0  0  0
  5 14  2  0  0  0  0
  6 17  1  0  0  0  0
  6  1  1  0  0  0  0
  7  4  2  0  0  0  0
  8 23  1  6  0  0  0
  8 13  1  0  0  0  0
 12  8  1  0  0  0  0
 13 18  1  1  0  0  0
 13  2  1  0  0  0  0
 16 17  1  1  0  0  0
 16 12  1  0  0  0  0
 16  5  1  0  0  0  0
 18 10  1  0  0  0  0
 19 10  1  6  0  0  0
 19 20  1  0  0  0  0
 20 15  1  0  0  0  0
 22 23  1  0  0  0  0
 22 21  2  0  0  0  0
 24 31  1  0  0  0  0
 24 27  1  1  0  0  0
 25 30  1  0  0  0  0
 28 25  1  0  0  0  0
 28 24  1  0  0  0  0
 29 30  1  0  0  0  0
 29 26  1  0  0  0  0
 29 31  1  0  0  0  0
 30 22  1  1  0  0  0
M  END
>  <MODEL>
1

>  <REMARK>
 VINA RESULT:      -9.1      0.000      0.000
  Name = 
  2 active torsions:
  status: ('A' for Active; 'I' for Inactive)
    1  A    between atoms: C_5  and  C_30
    2  A    between atoms: C_10  and  N_16
                            x       y       z     vdW  Elec       q    Type
                         _______ _______ _______ _____ _____    ______ ____

>  <TORSDO>
F 2

$$$$
=
 OpenBabel11122411123D

 31 35  0  0  1  0  0  0  0  0999 V2000
  190.2760  176.8310  145.8800 C   0  0  0  0  0  0  0  0  0  0  0  0
  187.4510  177.3360  143.4270 C   0  0  2  0  0  3  0  0  0  0  0  0
  186.4850  178.3650  144.0250 C   0  0  2  0  0  3  0  0  0  0  0  0
  185.0620  178.5610  146.0500 C   0  0  0  0  0  0  0  0  0  0  0  0
  188.8110  177.4060  144.0690 C   0  0  0  0  0  0  0  0  0  0  0  0
  191.4370  177.5740  145.2910 C   0  0  0  0  0  2  0  0  0  0  0  0
  186.1980  178.1370  145.4830 C   0  0  0  0  0  3  0  0  0  0  0  0
  188.4460  178.7110  141.4180 C   0  0  2  0  0  3  0  0  0  0  0  0
  190.4220  176.2020  146.9600 O   0  0  0  0  0  0  0  0  0  0  0  0
  185.5200  178.6280  141.7640 C   0  0  0  0  0  2  0  0  0  0  0  0
  184.8800  178.3690  147.4130 O   0  0  0  0  0  1  0  0  0  0  0  0
  189.3870  179.2460  142.5050 C   0  0  0  0  0  2  0  0  0  0  0  0
  187.5520  177.5440  141.8940 C   0  0  2  0  0  3  0  0  0  0  0  0
  189.0120  176.8000  145.2030 N   0  0  0  0  0  0  0  0  0  0  0  0
  183.9390  179.1770  145.2450 C   0  0  0  0  0  2  0  0  0  0  0  0
  189.9440  178.1210  143.3660 C   0  0  1  0  0  3  0  0  0  0  0  0
  190.9310  178.6890  144.3810 C   0  0  0  0  0  2  0  0  0  0  0  0
  186.2840  177.5520  141.2610 O   0  0  0  0  0  0  0  0  0  0  0  0
  185.1860  178.3880  143.2290 C   0  0  2  0  0  3  0  0  0  0  0  0
  184.3150  179.4980  143.7920 C   0  0  0  0  0  2  0  0  0  0  0  0
  187.5340  178.7220  138.7050 O   0  0  0  0  0  0  0  0  0  0  0  0
  188.7160  178.3480  138.9240 C   0  0  0  0  0  0  0  0  0  0  0  0
  189.2160  178.2760  140.2630 N   0  0  0  0  0  2  0  0  0  0  0  0
  188.3320  176.0580  135.9400 C   0  0  1  0  0  3  0  0  0  0  0  0
  188.9590  178.4640  136.4470 C   0  0  0  0  0  2  0  0  0  0  0  0
  190.4980  176.1070  138.9940 C   0  0  0  0  0  1  0  0  0  0  0  0
  186.8170  176.1090  135.9250 C   0  0  0  0  0  1  0  0  0  0  0  0
  188.9170  177.3630  135.3860 C   0  0  0  0  0  2  0  0  0  0  0  0
  189.9810  176.5610  137.7100 N   0  0  0  0  0  0  0  0  0  0  0  0
  189.6050  177.9920  137.7620 C   0  0  2  0  0  3  0  0  0  0  0  0
  188.8210  175.7410  137.3590 C   0  0  0  0  0  2  0  0  0  0  0  0
  1  9  2  0  0  0  0
  2  3  1  0  0  0  0
  2  5  1  1  0  0  0
  3  7  1  1  0  0  0
  4 11  1  0  0  0  0
  5 14  2  0  0  0  0
  6  1  1  0  0  0  0
  7  4  2  0  0  0  0
  8 23  1  6  0  0  0
  8 13  1  0  0  0  0
  8 12  1  0  0  0  0
 13 18  1  1  0  0  0
 13  2  1  0  0  0  0
 14  1  1  0  0  0  0
 15  4  1  0  0  0  0
 16 12  1  1  0  0  0
 16  5  1  0  0  0  0
 16 17  1  0  0  0  0
 17  6  1  0  0  0  0
 18 10  1  0  0  0  0
 19 10  1  6  0  0  0
 19 20  1  0  0  0  0
 19  3  1  0  0  0  0
 20 15  1  0  0  0  0
 21 22  2  0  0  0  0
 22 23  1  0  0  0  0
 24 27  1  1  0  0  0
 24 31  1  0  0  0  0
 25 30  1  0  0  0  0
 28 24  1  0  0  0  0
 28 25  1  0  0  0  0
 29 30  1  0  0  0  0
 29 26  1  0  0  0  0
 30 22  1  1  0  0  0
 31 29  1  0  0  0  0
M  END
>  <MODEL>
2

>  <REMARK>
 VINA RESULT:      -8.4      3.273      4.959
  Name = 
  2 active torsions:
  status: ('A' for Active; 'I' for Inactive)
    1  A    between atoms: C_5  and  C_30
    2  A    between atoms: C_10  and  N_16
                            x       y       z     vdW  Elec       q    Type
                         _______ _______ _______ _____ _____    ______ ____

>  <TORSDO>
F 2

$$$$
=
 OpenBabel11122411123D

 31 35  0  0  1  0  0  0  0  0999 V2000
  190.8990  176.0820  143.2830 C   0  0  0  0  0  0  0  0  0  0  0  0
  187.2900  177.0990  143.7180 C   0  0  2  0  0  3  0  0  0  0  0  0
  187.2010  178.0070  144.9500 C   0  0  2  0  0  3  0  0  0  0  0  0
  187.6780  177.8250  147.3800 C   0  0  0  0  0  0  0  0  0  0  0  0
  188.6940  177.0220  143.1810 C   0  0  0  0  0  0  0  0  0  0  0  0
  191.3990  176.9080  142.1360 C   0  0  0  0  0  2  0  0  0  0  0  0
  187.9980  177.5020  146.1210 C   0  0  0  0  0  3  0  0  0  0  0  0
  186.7660  178.8240  141.8030 C   0  0  2  0  0  3  0  0  0  0  0  0
  191.6680  175.2520  143.8340 O   0  0  0  0  0  0  0  0  0  0  0  0
  184.9760  178.7200  144.1420 C   0  0  0  0  0  2  0  0  0  0  0  0
  188.4850  177.3740  148.4150 O   0  0  0  0  0  1  0  0  0  0  0  0
  188.2660  179.1220  141.9300 C   0  0  0  0  0  2  0  0  0  0  0  0
  186.3080  177.6010  142.6280 C   0  0  2  0  0  3  0  0  0  0  0  0
  189.5430  176.2030  143.7320 N   0  0  0  0  0  0  0  0  0  0  0  0
  186.4260  178.6030  147.7200 C   0  0  0  0  0  2  0  0  0  0  0  0
  189.0890  177.8420  141.9730 C   0  0  1  0  0  3  0  0  0  0  0  0
  190.5740  178.1860  142.0210 C   0  0  0  0  0  2  0  0  0  0  0  0
  184.9860  177.7510  143.1140 O   0  0  0  0  0  0  0  0  0  0  0  0
  185.7430  178.2030  145.3500 C   0  0  2  0  0  3  0  0  0  0  0  0
  185.7070  179.1960  146.5000 C   0  0  0  0  0  2  0  0  0  0  0  0
  184.2300  179.4070  140.6110 O   0  0  0  0  0  0  0  0  0  0  0  0
  185.1410  178.9650  139.8630 C   0  0  0  0  0  0  0  0  0  0  0  0
  186.4170  178.6100  140.4070 N   0  0  0  0  0  2  0  0  0  0  0  0
  183.5930  176.2640  137.7180 C   0  0  1  0  0  3  0  0  0  0  0  0
  183.3670  178.7580  138.1260 C   0  0  0  0  0  2  0  0  0  0  0  0
  187.0190  177.7260  138.0910 C   0  0  0  0  0  1  0  0  0  0  0  0
  182.7540  175.6710  138.8320 C   0  0  0  0  0  1  0  0  0  0  0  0
  182.9790  177.5820  137.2290 C   0  0  0  0  0  2  0  0  0  0  0  0
  185.6030  177.7000  137.7520 N   0  0  0  0  0  0  0  0  0  0  0  0
  184.8820  178.8270  138.3860 C   0  0  2  0  0  3  0  0  0  0  0  0
  185.0420  176.4240  138.1940 C   0  0  0  0  0  2  0  0  0  0  0  0
  1 14  1  0  0  0  0
  1  9  2  0  0  0  0
  2  5  1  6  0  0  0
  2  3  1  0  0  0  0
  3 19  1  0  0  0  0
  3  7  1  1  0  0  0
  4 15  1  0  0  0  0
  4 11  1  0  0  0  0
  5 14  2  0  0  0  0
  6  1  1  0  0  0  0
  7  4  2  0  0  0  0
  8 23  1  6  0  0  0
  8 12  1  0  0  0  0
  8 13  1  0  0  0  0
 13 18  1  1  0  0  0
 13  2  1  0  0  0  0
 16 12  1  1  0  0  0
 16 17  1  0  0  0  0
 16  5  1  0  0  0  0
 17  6  1  0  0  0  0
 18 10  1  0  0  0  0
 19 10  1  6  0  0  0
 19 20  1  0  0  0  0
 20 15  1  0  0  0  0
 22 23  1  0  0  0  0
 22 21  2  0  0  0  0
 24 31  1  0  0  0  0
 24 27  1  1  0  0  0
 25 30  1  0  0  0  0
 28 24  1  0  0  0  0
 28 25  1  0  0  0  0
 29 26  1  0  0  0  0
 29 31  1  0  0  0  0
 29 30  1  0  0  0  0
 30 22  1  1  0  0  0
M  END
>  <MODEL>
3

>  <REMARK>
 VINA RESULT:      -8.0      1.587      2.120
  Name = 
  2 active torsions:
  status: ('A' for Active; 'I' for Inactive)
    1  A    between atoms: C_5  and  C_30
    2  A    between atoms: C_10  and  N_16
                            x       y       z     vdW  Elec       q    Type
                         _______ _______ _______ _____ _____    ______ ____

>  <TORSDO>
F 2

$$$$
=
 OpenBabel11122411123D

 31 35  0  0  1  0  0  0  0  0999 V2000
  191.3690  176.0210  143.5930 C   0  0  0  0  0  0  0  0  0  0  0  0
  187.7280  177.0060  143.4460 C   0  0  2  0  0  3  0  0  0  0  0  0
  187.4250  177.8780  144.6700 C   0  0  2  0  0  3  0  0  0  0  0  0
  187.4910  177.6300  147.1400 C   0  0  0  0  0  0  0  0  0  0  0  0
  189.2030  176.9510  143.1500 C   0  0  0  0  0  0  0  0  0  0  0  0
  192.0450  176.8820  142.5700 C   0  0  0  0  0  2  0  0  0  0  0  0
  188.0200  177.3450  145.9440 C   0  0  0  0  0  3  0  0  0  0  0  0
  187.5150  178.7820  141.5190 C   0  0  2  0  0  3  0  0  0  0  0  0
  192.0430  175.1790  144.2430 O   0  0  0  0  0  0  0  0  0  0  0  0
  185.3600  178.6030  143.5200 C   0  0  0  0  0  2  0  0  0  0  0  0
  188.1190  177.1530  148.2830 O   0  0  0  0  0  1  0  0  0  0  0  0
  188.9690  179.0850  141.9020 C   0  0  0  0  0  2  0  0  0  0  0  0
  186.9370  177.5340  142.2210 C   0  0  2  0  0  3  0  0  0  0  0  0
  189.9560  176.1220  143.8120 N   0  0  0  0  0  0  0  0  0  0  0  0
  186.1920  178.3910  147.2870 C   0  0  0  0  0  2  0  0  0  0  0  0
  189.7860  177.8080  142.0470 C   0  0  1  0  0  3  0  0  0  0  0  0
  191.2390  178.1580  142.3520 C   0  0  0  0  0  2  0  0  0  0  0  0
  185.5510  177.6640  142.4830 O   0  0  0  0  0  0  0  0  0  0  0  0
  185.9190  178.0560  144.8250 C   0  0  2  0  0  3  0  0  0  0  0  0
  185.6820  179.0150  145.9800 C   0  0  0  0  0  2  0  0  0  0  0  0
  188.8510  176.7740  139.9760 O   0  0  0  0  0  0  0  0  0  0  0  0
  188.0680  177.5530  139.3710 C   0  0  0  0  0  0  0  0  0  0  0  0
  187.4060  178.6070  140.0780 N   0  0  0  0  0  2  0  0  0  0  0  0
  189.9910  175.8410  136.6020 C   0  0  1  0  0  3  0  0  0  0  0  0
  187.6550  175.8560  137.5940 C   0  0  0  0  0  2  0  0  0  0  0  0
  189.0550  179.3780  137.3980 C   0  0  0  0  0  1  0  0  0  0  0  0
  190.7320  174.8910  137.5200 C   0  0  0  0  0  1  0  0  0  0  0  0
  188.5330  175.3940  136.4310 C   0  0  0  0  0  2  0  0  0  0  0  0
  188.8400  177.9860  137.0290 N   0  0  0  0  0  0  0  0  0  0  0  0
  187.8210  177.3550  137.8980 C   0  0  2  0  0  3  0  0  0  0  0  0
  190.1130  177.2740  137.1380 C   0  0  0  0  0  2  0  0  0  0  0  0
  1 14  1  0  0  0  0
  1  9  2  0  0  0  0
  2  5  1  6  0  0  0
  2  3  1  0  0  0  0
  3 19  1  0  0  0  0
  3  7  1  1  0  0  0
  4 15  1  0  0  0  0
  4 11  1  0  0  0  0
  5 14  2  0  0  0  0
  6  1  1  0  0  0  0
  7  4  2  0  0  0  0
  8 23  1  6  0  0  0
  8 12  1  0  0  0  0
  8 13  1  0  0  0  0
 13 18  1  1  0  0  0
 13  2  1  0  0  0  0
 16 12  1  1  0  0  0
 16 17  1  0  0  0  0
 16  5  1  0  0  0  0
 17  6  1  0  0  0  0
 18 10  1  0  0  0  0
 19 10  1  6  0  0  0
 19 20  1  0  0  0  0
 20 15  1  0  0  0  0
 22 21  2  0  0  0  0
 22 23  1  0  0  0  0
 24 31  1  0  0  0  0
 24 27  1  1  0  0  0
 25 30  1  0  0  0  0
 28 24  1  0  0  0  0
 28 25  1  0  0  0  0
 29 31  1  0  0  0  0
 29 26  1  0  0  0  0
 29 30  1  0  0  0  0
 30 22  1  1  0  0  0
M  END
>  <MODEL>
4

>  <REMARK>
 VINA RESULT:      -7.8      3.273      4.763
  Name = 
  2 active torsions:
  status: ('A' for Active; 'I' for Inactive)
    1  A    between atoms: C_5  and  C_30
    2  A    between atoms: C_10  and  N_16
                            x       y       z     vdW  Elec       q    Type
                         _______ _______ _______ _____ _____    ______ ____

>  <TORSDO>
F 2

$$$$
=
 OpenBabel11122411123D

 31 35  0  0  1  0  0  0  0  0999 V2000
  185.4970  178.9890  144.7710 C   0  0  0  0  0  0  0  0  0  0  0  0
  189.1880  178.5130  144.1350 C   0  0  2  0  0  3  0  0  0  0  0  0
  189.7070  177.4690  145.1310 C   0  0  2  0  0  3  0  0  0  0  0  0
  189.8720  177.2340  147.5970 C   0  0  0  0  0  0  0  0  0  0  0  0
  187.6920  178.4380  143.9760 C   0  0  0  0  0  0  0  0  0  0  0  0
  184.8150  178.2610  143.6530 C   0  0  0  0  0  2  0  0  0  0  0  0
  189.1940  177.6720  146.5290 C   0  0  0  0  0  3  0  0  0  0  0  0
  189.3880  177.1760  141.8800 C   0  0  2  0  0  3  0  0  0  0  0  0
  184.8080  179.6010  145.6280 O   0  0  0  0  0  0  0  0  0  0  0  0
  191.7080  177.2400  143.6960 C   0  0  0  0  0  2  0  0  0  0  0  0
  189.3190  177.4020  148.8590 O   0  0  0  0  0  1  0  0  0  0  0  0
  188.0220  176.6260  142.3110 C   0  0  0  0  0  2  0  0  0  0  0  0
  189.8990  178.3300  142.7690 C   0  0  2  0  0  3  0  0  0  0  0  0
  186.9280  179.0260  144.8500 N   0  0  0  0  0  0  0  0  0  0  0  0
  191.2530  176.6260  147.4830 C   0  0  0  0  0  2  0  0  0  0  0  0
  187.0930  177.7400  142.7750 C   0  0  1  0  0  3  0  0  0  0  0  0
  185.7250  177.1590  143.1200 C   0  0  0  0  0  2  0  0  0  0  0  0
  191.3110  178.3270  142.8870 O   0  0  0  0  0  0  0  0  0  0  0  0
  191.2310  177.4550  145.1250 C   0  0  2  0  0  3  0  0  0  0  0  0
  191.6880  176.3310  146.0410 C   0  0  0  0  0  2  0  0  0  0  0  0
  190.8120  176.0270  139.6780 O   0  0  0  0  0  0  0  0  0  0  0  0
  190.0320  176.9860  139.4350 C   0  0  0  0  0  0  0  0  0  0  0  0
  189.3280  177.6330  140.5000 N   0  0  0  0  0  2  0  0  0  0  0  0
  186.9900  177.7800  137.3360 C   0  0  1  0  0  3  0  0  0  0  0  0
  189.2020  178.8380  137.9900 C   0  0  0  0  0  2  0  0  0  0  0  0
  189.6370  175.1330  137.2880 C   0  0  0  0  0  1  0  0  0  0  0  0
  186.1000  178.1250  138.5140 C   0  0  0  0  0  1  0  0  0  0  0  0
  187.9850  178.9160  137.0670 C   0  0  0  0  0  2  0  0  0  0  0  0
  189.0810  176.4750  137.1760 N   0  0  0  0  0  0  0  0  0  0  0  0
  189.8370  177.4360  138.0110 C   0  0  2  0  0  3  0  0  0  0  0  0
  187.6790  176.4330  137.5900 C   0  0  0  0  0  2  0  0  0  0  0  0
  1 14  1  0  0  0  0
  1  9  2  0  0  0  0
  2  5  1  6  0  0  0
  2  3  1  0  0  0  0
  3  7  1  1  0  0  0
  4 11  1  0  0  0  0
  5 14  2  0  0  0  0
  6  1  1  0  0  0  0
  7  4  2  0  0  0  0
  8 23  1  6  0  0  0
  8 12  1  0  0  0  0
  8 13  1  0  0  0  0
 13 18  1  1  0  0  0
 13  2  1  0  0  0  0
 15  4  1  0  0  0  0
 16 12  1  1  0  0  0
 16 17  1  0  0  0  0
 16  5  1  0  0  0  0
 17  6  1  0  0  0  0
 18 10  1  0  0  0  0
 19 10  1  6  0  0  0
 19  3  1  0  0  0  0
 19 20  1  0  0  0  0
 20 15  1  0  0  0  0
 22 21  2  0  0  0  0
 22 23  1  0  0  0  0
 24 31  1  0  0  0  0
 24 27  1  1  0  0  0
 25 30  1  0  0  0  0
 28 24  1  0  0  0  0
 28 25  1  0  0  0  0
 29 26  1  0  0  0  0
 29 31  1  0  0  0  0
 29 30  1  0  0  0  0
 30 22  1  1  0  0  0
M  END
>  <MODEL>
5

>  <REMARK>
 VINA RESULT:      -7.7      3.279      5.592
  Name = 
  2 active torsions:
  status: ('A' for Active; 'I' for Inactive)
    1  A    between atoms: C_5  and  C_30
    2  A    between atoms: C_10  and  N_16
                            x       y       z     vdW  Elec       q    Type
                         _______ _______ _______ _____ _____    ______ ____

>  <TORSDO>
F 2

$$$$
=
 OpenBabel11122411123D

 31 35  0  0  1  0  0  0  0  0999 V2000
  187.1690  178.6240  147.2860 C   0  0  0  0  0  0  0  0  0  0  0  0
  189.6950  177.8760  144.5830 C   0  0  2  0  0  3  0  0  0  0  0  0
  190.3720  176.5440  144.9240 C   0  0  2  0  0  3  0  0  0  0  0  0
  191.7470  175.6260  146.7770 C   0  0  0  0  0  0  0  0  0  0  0  0
  188.3820  178.0370  145.3020 C   0  0  0  0  0  0  0  0  0  0  0  0
  185.8380  178.3200  146.6670 C   0  0  0  0  0  2  0  0  0  0  0  0
  190.7480  176.4210  146.3750 C   0  0  0  0  0  3  0  0  0  0  0  0
  188.3210  177.1910  142.4480 C   0  0  2  0  0  3  0  0  0  0  0  0
  187.2230  179.0600  148.4650 O   0  0  0  0  0  0  0  0  0  0  0  0
  191.1730  176.4630  142.5870 C   0  0  0  0  0  2  0  0  0  0  0  0
  192.0100  175.5120  148.1360 O   0  0  0  0  0  1  0  0  0  0  0  0
  187.3020  176.7220  143.4950 C   0  0  0  0  0  2  0  0  0  0  0  0
  189.5020  177.9850  143.0480 C   0  0  2  0  0  3  0  0  0  0  0  0
  188.3780  178.4560  146.5340 N   0  0  0  0  0  0  0  0  0  0  0  0
  192.6470  174.9030  145.7990 C   0  0  0  0  0  2  0  0  0  0  0  0
  187.0830  177.7750  144.5720 C   0  0  1  0  0  3  0  0  0  0  0  0
  186.0090  177.3000  145.5460 C   0  0  0  0  0  2  0  0  0  0  0  0
  190.7060  177.7710  142.3320 O   0  0  0  0  0  0  0  0  0  0  0  0
  191.5980  176.3390  144.0430 C   0  0  2  0  0  3  0  0  0  0  0  0
  192.1620  174.9600  144.3440 C   0  0  0  0  0  2  0  0  0  0  0  0
  188.7170  177.0030  139.6190 O   0  0  0  0  0  0  0  0  0  0  0  0
  187.8710  177.8370  140.0390 C   0  0  0  0  0  0  0  0  0  0  0  0
  187.6610  178.0110  141.4430 N   0  0  0  0  0  2  0  0  0  0  0  0
  186.0280  176.9710  136.8530 C   0  0  1  0  0  3  0  0  0  0  0  0
  185.6070  178.1650  139.0530 C   0  0  0  0  0  2  0  0  0  0  0  0
  189.0560  179.0030  137.7070 C   0  0  0  0  0  1  0  0  0  0  0  0
  185.8020  175.5180  137.2180 C   0  0  0  0  0  1  0  0  0  0  0  0
  185.0780  177.8780  137.6460 C   0  0  0  0  0  2  0  0  0  0  0  0
  187.6430  178.6480  137.6810 N   0  0  0  0  0  0  0  0  0  0  0  0
  187.0710  178.6390  139.0460 C   0  0  2  0  0  3  0  0  0  0  0  0
  187.5050  177.3300  137.0620 C   0  0  0  0  0  2  0  0  0  0  0  0
  1  9  2  0  0  0  0
  2  3  1  0  0  0  0
  2  5  1  1  0  0  0
  3  7  1  1  0  0  0
  4 11  1  0  0  0  0
  5 14  2  0  0  0  0
  6  1  1  0  0  0  0
  7  4  2  0  0  0  0
  8 23  1  6  0  0  0
  8 13  1  0  0  0  0
  8 12  1  0  0  0  0
 13 18  1  6  0  0  0
 13  2  1  0  0  0  0
 14  1  1  0  0  0  0
 15  4  1  0  0  0  0
 16 12  1  6  0  0  0
 16  5  1  0  0  0  0
 16 17  1  0  0  0  0
 17  6  1  0  0  0  0
 18 10  1  0  0  0  0
 19 10  1  6  0  0  0
 19 20  1  0  0  0  0
 19  3  1  0  0  0  0
 20 15  1  0  0  0  0
 21 22  2  0  0  0  0
 22 23  1  0  0  0  0
 24 31  1  0  0  0  0
 24 27  1  1  0  0  0
 24 28  1  0  0  0  0
 28 25  1  0  0  0  0
 29 26  1  0  0  0  0
 29 30  1  0  0  0  0
 30 25  1  0  0  0  0
 30 22  1  1  0  0  0
 31 29  1  0  0  0  0
M  END
>  <MODEL>
6

>  <REMARK>
 VINA RESULT:      -7.6      3.159      5.436
  Name = 
  2 active torsions:
  status: ('A' for Active; 'I' for Inactive)
    1  A    between atoms: C_5  and  C_30
    2  A    between atoms: C_10  and  N_16
                            x       y       z     vdW  Elec       q    Type
                         _______ _______ _______ _____ _____    ______ ____

>  <TORSDO>
F 2

$$$$
=
 OpenBabel11122411123D

 31 35  0  0  1  0  0  0  0  0999 V2000
  191.2000  176.7870  145.0390 C   0  0  0  0  0  0  0  0  0  0  0  0
  187.7710  177.2600  143.5320 C   0  0  2  0  0  3  0  0  0  0  0  0
  186.9990  178.2450  144.4180 C   0  0  2  0  0  3  0  0  0  0  0  0
  186.2250  178.3490  146.7750 C   0  0  0  0  0  0  0  0  0  0  0  0
  189.2570  177.3580  143.7520 C   0  0  0  0  0  0  0  0  0  0  0  0
  192.1210  177.5800  144.1610 C   0  0  0  0  0  2  0  0  0  0  0  0
  187.1550  177.9740  145.8880 C   0  0  0  0  0  3  0  0  0  0  0  0
  188.1040  178.7120  141.3650 C   0  0  2  0  0  3  0  0  0  0  0  0
  191.6690  176.1380  146.0090 O   0  0  0  0  0  0  0  0  0  0  0  0
  185.4100  178.5300  142.5450 C   0  0  0  0  0  2  0  0  0  0  0  0
  186.4530  178.1200  148.1250 O   0  0  0  0  0  1  0  0  0  0  0  0
  189.3090  179.2510  142.1470 C   0  0  0  0  0  2  0  0  0  0  0  0
  187.4150  177.5080  142.0430 C   0  0  2  0  0  3  0  0  0  0  0  0
  189.7950  176.7320  144.7590 N   0  0  0  0  0  0  0  0  0  0  0  0
  184.9020  178.9480  146.3510 C   0  0  0  0  0  2  0  0  0  0  0  0
  190.1190  178.1240  142.7720 C   0  0  1  0  0  3  0  0  0  0  0  0
  191.3460  178.6990  143.4730 C   0  0  0  0  0  2  0  0  0  0  0  0
  186.0180  177.4910  141.8080 O   0  0  0  0  0  0  0  0  0  0  0  0
  185.5230  178.2450  144.0350 C   0  0  2  0  0  3  0  0  0  0  0  0
  184.8290  179.3150  144.8630 C   0  0  0  0  0  2  0  0  0  0  0  0
  186.4040  178.6280  139.0630 O   0  0  0  0  0  0  0  0  0  0  0  0
  187.6220  178.3490  138.9030 C   0  0  0  0  0  0  0  0  0  0  0  0
  188.5130  178.3280  140.0220 N   0  0  0  0  0  2  0  0  0  0  0  0
  186.3310  176.2690  136.0210 C   0  0  1  0  0  3  0  0  0  0  0  0
  187.1650  178.6240  136.4690 C   0  0  0  0  0  2  0  0  0  0  0  0
  189.2660  176.0740  138.3370 C   0  0  0  0  0  1  0  0  0  0  0  0
  184.8760  176.3520  136.4370 C   0  0  0  0  0  1  0  0  0  0  0  0
  186.7870  177.5960  135.4010 C   0  0  0  0  0  2  0  0  0  0  0  0
  188.4280  176.6210  137.2800 N   0  0  0  0  0  0  0  0  0  0  0  0
  188.1360  178.0530  137.5180 C   0  0  2  0  0  3  0  0  0  0  0  0
  187.1860  175.8500  137.2240 C   0  0  0  0  0  2  0  0  0  0  0  0
  1  9  2  0  0  0  0
  2  5  1  6  0  0  0
  2  3  1  0  0  0  0
  3  7  1  1  0  0  0
  4 11  1  0  0  0  0
  5 14  2  0  0  0  0
  6  1  1  0  0  0  0
  7  4  2  0  0  0  0
  8 23  1  6  0  0  0
  8 13  1  0  0  0  0
  8 12  1  0  0  0  0
 13 18  1  1  0  0  0
 13  2  1  0  0  0  0
 14  1  1  0  0  0  0
 15  4  1  0  0  0  0
 16 12  1  1  0  0  0
 16 17  1  0  0  0  0
 16  5  1  0  0  0  0
 17  6  1  0  0  0  0
 18 10  1  0  0  0  0
 19 10  1  6  0  0  0
 19  3  1  0  0  0  0
 19 20  1  0  0  0  0
 20 15  1  0  0  0  0
 22 21  2  0  0  0  0
 22 23  1  0  0  0  0
 24 27  1  1  0  0  0
 24 31  1  0  0  0  0
 25 30  1  0  0  0  0
 28 24  1  0  0  0  0
 28 25  1  0  0  0  0
 29 30  1  0  0  0  0
 29 26  1  0  0  0  0
 30 22  1  1  0  0  0
 31 29  1  0  0  0  0
M  END
>  <MODEL>
7

>  <REMARK>
 VINA RESULT:      -7.5      3.144      3.953
  Name = 
  2 active torsions:
  status: ('A' for Active; 'I' for Inactive)
    1  A    between atoms: C_5  and  C_30
    2  A    between atoms: C_10  and  N_16
                            x       y       z     vdW  Elec       q    Type
                         _______ _______ _______ _____ _____    ______ ____

>  <TORSDO>
F 2

$$$$
=
 OpenBabel11122411123D

 31 35  0  0  1  0  0  0  0  0999 V2000
  187.6910  179.0010  136.7660 C   0  0  0  0  0  0  0  0  0  0  0  0
  189.8030  178.1860  139.7880 C   0  0  2  0  0  3  0  0  0  0  0  0
  188.8920  177.5440  140.8410 C   0  0  2  0  0  3  0  0  0  0  0  0
  186.8780  178.1920  142.1410 C   0  0  0  0  0  0  0  0  0  0  0  0
  189.1990  178.1180  138.4100 C   0  0  0  0  0  0  0  0  0  0  0  0
  188.0400  177.9510  135.7560 C   0  0  0  0  0  2  0  0  0  0  0  0
  187.5730  178.2500  140.9990 C   0  0  0  0  0  3  0  0  0  0  0  0
  191.2980  176.1300  139.1180 C   0  0  2  0  0  3  0  0  0  0  0  0
  186.8670  179.9040  136.4680 O   0  0  0  0  0  0  0  0  0  0  0  0
  190.9350  176.7420  141.9780 C   0  0  0  0  0  2  0  0  0  0  0  0
  185.6410  178.8190  142.2070 O   0  0  0  0  0  1  0  0  0  0  0  0
  190.1170  175.8230  138.1880 C   0  0  0  0  0  2  0  0  0  0  0  0
  191.1950  177.5030  139.8170 C   0  0  2  0  0  3  0  0  0  0  0  0
  188.3170  179.0080  138.0560 N   0  0  0  0  0  0  0  0  0  0  0  0
  187.4260  177.5300  143.3870 C   0  0  0  0  0  2  0  0  0  0  0  0
  189.6660  177.0640  137.4310 C   0  0  1  0  0  3  0  0  0  0  0  0
  188.5440  176.6980  136.4640 C   0  0  0  0  0  2  0  0  0  0  0  0
  191.7660  177.4870  141.1120 O   0  0  0  0  0  0  0  0  0  0  0  0
  189.6140  177.4690  142.1810 C   0  0  2  0  0  3  0  0  0  0  0  0
  188.7120  176.7260  143.1530 C   0  0  0  0  0  2  0  0  0  0  0  0
  192.2270  173.8910  137.5930 O   0  0  0  0  0  0  0  0  0  0  0  0
  192.9340  174.9340  137.5940 C   0  0  0  0  0  0  0  0  0  0  0  0
  192.5470  176.0700  138.3740 N   0  0  0  0  0  2  0  0  0  0  0  0
  194.9220  172.3220  135.7180 C   0  0  1  0  0  3  0  0  0  0  0  0
  193.8500  174.5850  135.3040 C   0  0  0  0  0  2  0  0  0  0  0  0
  195.5380  174.4980  138.7030 C   0  0  0  0  0  1  0  0  0  0  0  0
  193.7580  171.3690  135.5390 C   0  0  0  0  0  1  0  0  0  0  0  0
  194.7930  173.5120  134.7580 C   0  0  0  0  0  2  0  0  0  0  0  0
  195.3030  174.1820  137.3000 N   0  0  0  0  0  0  0  0  0  0  0  0
  194.1820  174.9800  136.7540 C   0  0  2  0  0  3  0  0  0  0  0  0
  195.0140  172.7520  137.1880 C   0  0  0  0  0  2  0  0  0  0  0  0
  1 14  1  0  0  0  0
  2  5  1  6  0  0  0
  2 13  1  0  0  0  0
  2  3  1  0  0  0  0
  3  7  1  1  0  0  0
  3 19  1  0  0  0  0
  4 11  1  0  0  0  0
  4 15  1  0  0  0  0
  6 17  1  0  0  0  0
  6  1  1  0  0  0  0
  7  4  2  0  0  0  0
  8 23  1  6  0  0  0
  8 13  1  0  0  0  0
  9  1  2  0  0  0  0
 12  8  1  0  0  0  0
 13 18  1  1  0  0  0
 14  5  2  0  0  0  0
 16 17  1  6  0  0  0
 16 12  1  0  0  0  0
 16  5  1  0  0  0  0
 18 10  1  0  0  0  0
 19 10  1  6  0  0  0
 19 20  1  0  0  0  0
 20 15  1  0  0  0  0
 21 22  2  0  0  0  0
 22 23  1  0  0  0  0
 24 27  1  1  0  0  0
 24 31  1  0  0  0  0
 25 30  1  0  0  0  0
 28 25  1  0  0  0  0
 28 24  1  0  0  0  0
 29 26  1  0  0  0  0
 30 29  1  0  0  0  0
 30 22  1  1  0  0  0
 31 29  1  0  0  0  0
M  END
>  <MODEL>
8

>  <REMARK>
 VINA RESULT:      -7.2      5.077      9.385
  Name = 
  2 active torsions:
  status: ('A' for Active; 'I' for Inactive)
    1  A    between atoms: C_5  and  C_30
    2  A    between atoms: C_10  and  N_16
                            x       y       z     vdW  Elec       q    Type
                         _______ _______ _______ _____ _____    ______ ____

>  <TORSDO>
F 2

$$$$
=
 OpenBabel11122411123D

 31 35  0  0  1  0  0  0  0  0999 V2000
  179.6490  179.0900  142.5670 C   0  0  0  0  0  0  0  0  0  0  0  0
  183.2540  179.1810  141.4520 C   0  0  2  0  0  3  0  0  0  0  0  0
  184.0930  178.4500  142.5060 C   0  0  2  0  0  3  0  0  0  0  0  0
  184.6000  178.7070  144.9230 C   0  0  0  0  0  0  0  0  0  0  0  0
  181.7980  178.8080  141.5390 C   0  0  0  0  0  0  0  0  0  0  0  0
  179.0010  178.0560  141.6970 C   0  0  0  0  0  2  0  0  0  0  0  0
  183.7220  178.8110  143.9180 C   0  0  0  0  0  3  0  0  0  0  0  0
  183.4510  177.5110  139.4300 C   0  0  2  0  0  3  0  0  0  0  0  0
  178.9580  179.7140  143.4140 O   0  0  0  0  0  0  0  0  0  0  0  0
  185.9100  178.3270  140.8340 C   0  0  0  0  0  2  0  0  0  0  0  0
  184.1810  179.0020  146.2140 O   0  0  0  0  0  1  0  0  0  0  0  0
  182.2890  176.8120  140.1480 C   0  0  0  0  0  2  0  0  0  0  0  0
  183.8180  178.8820  140.0380 C   0  0  2  0  0  3  0  0  0  0  0  0
  181.0410  179.3990  142.4180 N   0  0  0  0  0  0  0  0  0  0  0  0
  186.0520  178.3490  144.6940 C   0  0  0  0  0  2  0  0  0  0  0  0
  181.2140  177.8040  140.5690 C   0  0  1  0  0  3  0  0  0  0  0  0
  180.0470  177.0590  141.2090 C   0  0  0  0  0  2  0  0  0  0  0  0
  185.2040  179.1570  139.9360 O   0  0  0  0  0  0  0  0  0  0  0  0
  185.5760  178.7120  142.2670 C   0  0  2  0  0  3  0  0  0  0  0  0
  186.3610  177.8780  143.2660 C   0  0  0  0  0  2  0  0  0  0  0  0
  185.0120  176.5470  137.2320 O   0  0  0  0  0  0  0  0  0  0  0  0
  183.9330  177.1420  136.9690 C   0  0  0  0  0  0  0  0  0  0  0  0
  183.1320  177.6880  138.0220 N   0  0  0  0  0  2  0  0  0  0  0  0
  180.7400  176.2690  135.1420 C   0  0  1  0  0  3  0  0  0  0  0  0
  182.3070  178.2440  135.4360 C   0  0  0  0  0  2  0  0  0  0  0  0
  184.2670  175.0120  135.0850 C   0  0  0  0  0  1  0  0  0  0  0  0
  179.8530  176.3680  136.3670 C   0  0  0  0  0  1  0  0  0  0  0  0
  181.1290  177.6680  134.6480 C   0  0  0  0  0  2  0  0  0  0  0  0
  183.1790  175.9620  134.8940 N   0  0  0  0  0  0  0  0  0  0  0  0
  183.4870  177.2600  135.5360 C   0  0  2  0  0  3  0  0  0  0  0  0
  181.9570  175.3900  135.4590 C   0  0  0  0  0  2  0  0  0  0  0  0
  1  9  2  0  0  0  0
  2  5  1  6  0  0  0
  2  3  1  0  0  0  0
  3  7  1  1  0  0  0
  4 11  1  0  0  0  0
  5 14  2  0  0  0  0
  6  1  1  0  0  0  0
  7  4  2  0  0  0  0
  8 23  1  6  0  0  0
  8 13  1  0  0  0  0
  8 12  1  0  0  0  0
 13 18  1  1  0  0  0
 13  2  1  0  0  0  0
 14  1  1  0  0  0  0
 15  4  1  0  0  0  0
 16 12  1  1  0  0  0
 16 17  1  0  0  0  0
 16  5  1  0  0  0  0
 17  6  1  0  0  0  0
 18 10  1  0  0  0  0
 19 10  1  6  0  0  0
 19  3  1  0  0  0  0
 19 20  1  0  0  0  0
 20 15  1  0  0  0  0
 22 21  2  0  0  0  0
 22 23  1  0  0  0  0
 24 31  1  0  0  0  0
 24 27  1  1  0  0  0
 25 30  1  0  0  0  0
 28 24  1  0  0  0  0
 28 25  1  0  0  0  0
 29 26  1  0  0  0  0
 29 31  1  0  0  0  0
 29 30  1  0  0  0  0
 30 22  1  1  0  0  0
M  END
>  <MODEL>
9

>  <REMARK>
 VINA RESULT:      -7.0      3.165      6.037
  Name = 
  2 active torsions:
  status: ('A' for Active; 'I' for Inactive)
    1  A    between atoms: C_5  and  C_30
    2  A    between atoms: C_10  and  N_16
                            x       y       z     vdW  Elec       q    Type
                         _______ _______ _______ _____ _____    ______ ____

>  <TORSDO>
F 2

$$$$
