=
 OpenBabel11122411043D

 31 35  0  0  1  0  0  0  0  0999 V2000
  184.3990  178.8120  144.8370 C   0  0  0  0  0  0  0  0  0  0  0  0
  187.8630  177.4130  143.9490 C   0  0  1  0  0  3  0  0  0  0  0  0
  188.5820  177.4340  145.2870 C   0  0  0  0  0  0  0  0  0  0  0  0
  187.2570  178.5080  138.7220 O   0  0  0  0  0  0  0  0  0  0  0  0
  188.4690  178.2520  138.9530 C   0  0  0  0  0  0  0  0  0  0  0  0
  188.6000  177.0660  147.6920 C   0  0  0  0  0  0  0  0  0  0  0  0
  186.5210  178.1250  143.8610 C   0  0  0  0  0  0  0  0  0  0  0  0
  183.9460  179.2230  143.5820 C   0  0  0  0  0  3  0  0  0  0  0  0
  187.9060  177.1390  146.4820 C   0  0  0  0  0  3  0  0  0  0  0  0
  188.1270  178.0650  141.4800 C   0  0  0  0  0  0  0  0  0  0  0  0
  183.5990  178.9410  145.9220 F   0  0  0  0  0  0  0  0  0  0  0  0
  190.6850  177.7810  144.1340 O   0  0  0  0  0  0  0  0  0  0  0  0
  187.9300  176.8040  148.8410 F   0  0  0  0  0  0  0  0  0  0  0  0
  186.8730  178.4060  141.4250 N   0  0  0  0  0  0  0  0  0  0  0  0
  188.7540  177.8000  142.7860 C   0  0  0  0  0  0  0  0  0  0  0  0
  188.9270  178.0130  140.2910 N   0  0  0  0  0  2  0  0  0  0  0  0
  185.6720  178.2530  144.9710 C   0  0  0  0  0  3  0  0  0  0  0  0
  189.9820  177.2540  147.7170 C   0  0  0  0  0  3  0  0  0  0  0  0
  186.0460  178.5300  142.5910 C   0  0  0  0  0  0  0  0  0  0  0  0
  184.7660  179.0790  142.4620 C   0  0  0  0  0  3  0  0  0  0  0  0
  190.0410  177.9200  142.9190 N   0  0  0  0  0  0  0  0  0  0  0  0
  189.9800  177.5780  145.3180 C   0  0  0  0  0  0  0  0  0  0  0  0
  190.6730  177.5030  146.5300 C   0  0  0  0  0  3  0  0  0  0  0  0
  188.6200  176.1930  135.7790 C   0  0  1  0  0  3  0  0  0  0  0  0
  188.7610  178.6010  136.4840 C   0  0  0  0  0  2  0  0  0  0  0  0
  190.8120  176.3870  138.9400 C   0  0  0  0  0  1  0  0  0  0  0  0
  187.7620  175.2030  135.3070 O   0  0  0  0  0  1  0  0  0  0  0  0
  187.8460  177.4970  135.9500 C   0  0  0  0  0  2  0  0  0  0  0  0
  190.1510  176.8370  137.6490 C   0  0  2  0  0  3  0  0  0  0  0  0
  189.4310  178.1910  137.8010 C   0  0  2  0  0  3  0  0  0  0  0  0
  189.2200  175.7520  137.1100 C   0  0  0  0  0  2  0  0  0  0  0  0
  1 17  1  0  0  0  0
  1 11  1  0  0  0  0
  2 15  1  6  0  0  0
  2  3  1  0  0  0  0
  3 22  2  0  0  0  0
  3  9  1  0  0  0  0
  4  5  2  0  0  0  0
  5 16  1  0  0  0  0
  6 18  1  0  0  0  0
  6 13  1  0  0  0  0
  7  2  1  0  0  0  0
  7 17  2  0  0  0  0
  8  1  2  0  0  0  0
  9  6  2  0  0  0  0
 10 15  1  0  0  0  0
 12 22  1  0  0  0  0
 14 10  2  0  0  0  0
 14 19  1  0  0  0  0
 15 21  2  0  0  0  0
 16 10  1  0  0  0  0
 19  7  1  0  0  0  0
 20 19  2  0  0  0  0
 20  8  1  0  0  0  0
 21 12  1  0  0  0  0
 22 23  1  0  0  0  0
 23 18  2  0  0  0  0
 24 27  1  1  0  0  0
 24 28  1  0  0  0  0
 24 31  1  0  0  0  0
 25 30  1  0  0  0  0
 28 25  1  0  0  0  0
 29 30  1  0  0  0  0
 29 26  1  1  0  0  0
 30  5  1  1  0  0  0
 31 29  1  0  0  0  0
M  END
>  <MODEL>
1

>  <REMARK>
 VINA RESULT:     -11.9      0.000      0.000
  Name = 
  1 active torsions:
  status: ('A' for Active; 'I' for Inactive)
    1  A    between atoms: C_5  and  C_30
                            x       y       z     vdW  Elec       q    Type
                         _______ _______ _______ _____ _____    ______ ____

>  <TORSDO>
F 1

$$$$
=
 OpenBabel11122411043D

 31 35  0  0  1  0  0  0  0  0999 V2000
  187.0230  178.2360  147.3700 C   0  0  0  0  0  0  0  0  0  0  0  0
  187.4110  177.3200  143.6620 C   0  0  1  0  0  3  0  0  0  0  0  0
  188.9170  177.3480  143.4690 C   0  0  0  0  0  0  0  0  0  0  0  0
  182.3260  178.6420  142.5300 O   0  0  0  0  0  0  0  0  0  0  0  0
  182.9700  178.5210  141.4550 C   0  0  0  0  0  0  0  0  0  0  0  0
  191.1660  176.8430  144.2500 C   0  0  0  0  0  0  0  0  0  0  0  0
  186.8590  177.8680  144.9690 C   0  0  0  0  0  0  0  0  0  0  0  0
  185.6940  178.6620  147.4040 C   0  0  0  0  0  3  0  0  0  0  0  0
  189.7890  176.9030  144.4760 C   0  0  0  0  0  3  0  0  0  0  0  0
  185.2070  178.1440  142.6360 C   0  0  0  0  0  0  0  0  0  0  0  0
  187.7530  178.2020  148.5100 F   0  0  0  0  0  0  0  0  0  0  0  0
  188.5940  178.0140  141.1610 O   0  0  0  0  0  0  0  0  0  0  0  0
  191.9970  176.4350  145.2390 F   0  0  0  0  0  0  0  0  0  0  0  0
  184.7120  178.3340  143.8240 N   0  0  0  0  0  0  0  0  0  0  0  0
  186.6470  177.8800  142.4790 C   0  0  0  0  0  0  0  0  0  0  0  0
  184.3810  178.2600  141.4690 N   0  0  0  0  0  2  0  0  0  0  0  0
  187.5950  177.8270  146.1630 C   0  0  0  0  0  3  0  0  0  0  0  0
  191.6850  177.1950  143.0030 C   0  0  0  0  0  3  0  0  0  0  0  0
  185.5090  178.2880  145.0170 C   0  0  0  0  0  0  0  0  0  0  0  0
  184.9390  178.6850  146.2300 C   0  0  0  0  0  3  0  0  0  0  0  0
  187.2320  178.1460  141.3490 N   0  0  0  0  0  0  0  0  0  0  0  0
  189.4460  177.6570  142.2040 C   0  0  0  0  0  0  0  0  0  0  0  0
  190.8250  177.5950  141.9790 C   0  0  0  0  0  3  0  0  0  0  0  0
  182.7510  176.3490  138.3610 C   0  0  1  0  0  3  0  0  0  0  0  0
  181.2130  177.5170  139.9690 C   0  0  0  0  0  2  0  0  0  0  0  0
  184.1920  179.8500  139.0660 C   0  0  0  0  0  1  0  0  0  0  0  0
  183.3690  175.1360  138.0680 O   0  0  0  0  0  1  0  0  0  0  0  0
  181.8920  176.1930  139.6130 C   0  0  0  0  0  2  0  0  0  0  0  0
  183.1520  178.7540  138.9160 C   0  0  2  0  0  3  0  0  0  0  0  0
  182.2360  178.6440  140.1500 C   0  0  2  0  0  3  0  0  0  0  0  0
  183.8150  177.4210  138.5760 C   0  0  0  0  0  2  0  0  0  0  0  0
  1  8  1  0  0  0  0
  1 11  1  0  0  0  0
  2 15  1  6  0  0  0
  2  7  1  0  0  0  0
  3  2  1  0  0  0  0
  3  9  1  0  0  0  0
  5 16  1  0  0  0  0
  5  4  2  0  0  0  0
  6  9  2  0  0  0  0
  6 13  1  0  0  0  0
  7 19  2  0  0  0  0
  7 17  1  0  0  0  0
 10 14  2  0  0  0  0
 12 21  1  0  0  0  0
 12 22  1  0  0  0  0
 14 19  1  0  0  0  0
 15 10  1  0  0  0  0
 16 10  1  0  0  0  0
 17  1  2  0  0  0  0
 18  6  1  0  0  0  0
 19 20  1  0  0  0  0
 20  8  2  0  0  0  0
 21 15  2  0  0  0  0
 22  3  2  0  0  0  0
 23 22  1  0  0  0  0
 23 18  2  0  0  0  0
 24 27  1  1  0  0  0
 24 31  1  0  0  0  0
 24 28  1  0  0  0  0
 25 30  1  0  0  0  0
 28 25  1  0  0  0  0
 29 26  1  1  0  0  0
 29 30  1  0  0  0  0
 30  5  1  1  0  0  0
 31 29  1  0  0  0  0
M  END
>  <MODEL>
2

>  <REMARK>
 VINA RESULT:     -11.4      3.106      4.871
  Name = 
  1 active torsions:
  status: ('A' for Active; 'I' for Inactive)
    1  A    between atoms: C_5  and  C_30
                            x       y       z     vdW  Elec       q    Type
                         _______ _______ _______ _____ _____    ______ ____

>  <TORSDO>
F 1

$$$$
=
 OpenBabel11122411043D

 31 35  0  0  1  0  0  0  0  0999 V2000
  187.2860  178.0920  147.4760 C   0  0  0  0  0  0  0  0  0  0  0  0
  187.4190  177.3220  143.7170 C   0  0  1  0  0  3  0  0  0  0  0  0
  188.9110  177.3110  143.4330 C   0  0  0  0  0  0  0  0  0  0  0  0
  182.3220  178.8500  142.9550 O   0  0  0  0  0  0  0  0  0  0  0  0
  182.8970  178.7540  141.8380 C   0  0  0  0  0  0  0  0  0  0  0  0
  191.1850  176.7030  144.0530 C   0  0  0  0  0  0  0  0  0  0  0  0
  186.9650  177.8320  145.0770 C   0  0  0  0  0  0  0  0  0  0  0  0
  185.9770  178.5580  147.6090 C   0  0  0  0  0  3  0  0  0  0  0  0
  189.8260  176.7970  144.3660 C   0  0  0  0  0  3  0  0  0  0  0  0
  185.1860  178.2580  142.8630 C   0  0  0  0  0  0  0  0  0  0  0  0
  188.0820  177.9870  148.5670 F   0  0  0  0  0  0  0  0  0  0  0  0
  188.4720  178.0840  141.1780 O   0  0  0  0  0  0  0  0  0  0  0  0
  192.0590  176.2270  144.9720 F   0  0  0  0  0  0  0  0  0  0  0  0
  184.7710  178.4130  144.0850 N   0  0  0  0  0  0  0  0  0  0  0  0
  186.6050  177.9560  142.6070 C   0  0  0  0  0  0  0  0  0  0  0  0
  184.2960  178.4480  141.7550 N   0  0  0  0  0  2  0  0  0  0  0  0
  187.7700  177.7170  146.2210 C   0  0  0  0  0  3  0  0  0  0  0  0
  191.6390  177.0910  142.7920 C   0  0  0  0  0  3  0  0  0  0  0  0
  185.6360  178.2910  145.2250 C   0  0  0  0  0  0  0  0  0  0  0  0
  185.1530  178.6550  146.4860 C   0  0  0  0  0  3  0  0  0  0  0  0
  187.1290  178.2510  141.4550 N   0  0  0  0  0  0  0  0  0  0  0  0
  189.3730  177.6570  142.1510 C   0  0  0  0  0  0  0  0  0  0  0  0
  190.7330  177.5610  141.8390 C   0  0  0  0  0  3  0  0  0  0  0  0
  179.7760  177.1220  140.4460 C   0  0  1  0  0  3  0  0  0  0  0  0
  180.6660  179.4280  140.9030 C   0  0  0  0  0  2  0  0  0  0  0  0
  183.4590  177.2260  139.3240 C   0  0  0  0  0  1  0  0  0  0  0  0
  178.9940  176.0910  140.9610 O   0  0  0  0  0  1  0  0  0  0  0  0
  179.7990  178.2850  141.4350 C   0  0  0  0  0  2  0  0  0  0  0  0
  182.0650  177.7360  139.6460 C   0  0  2  0  0  3  0  0  0  0  0  0
  182.0900  178.9560  140.5870 C   0  0  2  0  0  3  0  0  0  0  0  0
  181.1900  176.6100  140.1950 C   0  0  0  0  0  2  0  0  0  0  0  0
  1  8  1  0  0  0  0
  1 11  1  0  0  0  0
  2 15  1  6  0  0  0
  2  7  1  0  0  0  0
  3  2  1  0  0  0  0
  3  9  1  0  0  0  0
  5  4  2  0  0  0  0
  6  9  2  0  0  0  0
  6 13  1  0  0  0  0
  7 19  2  0  0  0  0
  7 17  1  0  0  0  0
 10 14  2  0  0  0  0
 12 21  1  0  0  0  0
 12 22  1  0  0  0  0
 14 19  1  0  0  0  0
 15 10  1  0  0  0  0
 16  5  1  0  0  0  0
 16 10  1  0  0  0  0
 17  1  2  0  0  0  0
 18  6  1  0  0  0  0
 19 20  1  0  0  0  0
 20  8  2  0  0  0  0
 21 15  2  0  0  0  0
 22  3  2  0  0  0  0
 23 22  1  0  0  0  0
 23 18  2  0  0  0  0
 24 27  1  1  0  0  0
 24 28  1  0  0  0  0
 25 28  1  0  0  0  0
 29 26  1  1  0  0  0
 29 31  1  0  0  0  0
 29 30  1  0  0  0  0
 30 25  1  0  0  0  0
 30  5  1  1  0  0  0
 31 24  1  0  0  0  0
M  END
>  <MODEL>
3

>  <REMARK>
 VINA RESULT:     -11.3      3.413      5.767
  Name = 
  1 active torsions:
  status: ('A' for Active; 'I' for Inactive)
    1  A    between atoms: C_5  and  C_30
                            x       y       z     vdW  Elec       q    Type
                         _______ _______ _______ _____ _____    ______ ____

>  <TORSDO>
F 1

$$$$
=
 OpenBabel11122411043D

 31 35  0  0  1  0  0  0  0  0999 V2000
  190.6650  176.6800  146.3790 C   0  0  0  0  0  0  0  0  0  0  0  0
  188.2330  178.2530  143.8580 C   0  0  1  0  0  3  0  0  0  0  0  0
  186.9260  178.2820  144.6320 C   0  0  0  0  0  0  0  0  0  0  0  0
  191.3950  177.0790  139.6740 O   0  0  0  0  0  0  0  0  0  0  0  0
  190.2530  177.4010  139.2510 C   0  0  0  0  0  0  0  0  0  0  0  0
  185.6870  178.6730  146.6900 C   0  0  0  0  0  0  0  0  0  0  0  0
  189.3900  177.4700  144.4620 C   0  0  0  0  0  0  0  0  0  0  0  0
  191.6810  176.2340  145.5310 C   0  0  0  0  0  3  0  0  0  0  0  0
  186.9020  178.5520  146.0100 C   0  0  0  0  0  3  0  0  0  0  0  0
  189.2500  177.5930  141.5950 C   0  0  0  0  0  0  0  0  0  0  0  0
  190.7820  176.5190  147.7180 F   0  0  0  0  0  0  0  0  0  0  0  0
  185.7070  178.0370  142.5520 O   0  0  0  0  0  0  0  0  0  0  0  0
  185.6800  178.9090  148.0240 F   0  0  0  0  0  0  0  0  0  0  0  0
  190.3330  177.1860  142.1880 N   0  0  0  0  0  0  0  0  0  0  0  0
  188.0530  177.9030  142.3950 C   0  0  0  0  0  0  0  0  0  0  0  0
  189.1830  177.6770  140.1650 N   0  0  0  0  0  2  0  0  0  0  0  0
  189.5360  177.3070  145.8480 C   0  0  0  0  0  3  0  0  0  0  0  0
  184.4830  178.5590  145.9940 C   0  0  0  0  0  3  0  0  0  0  0  0
  190.4320  177.0290  143.6120 C   0  0  0  0  0  0  0  0  0  0  0  0
  191.5640  176.4110  144.1510 C   0  0  0  0  0  3  0  0  0  0  0  0
  186.8780  177.8520  141.8420 N   0  0  0  0  0  0  0  0  0  0  0  0
  185.7080  178.2130  143.9340 C   0  0  0  0  0  0  0  0  0  0  0  0
  184.4940  178.3360  144.6160 C   0  0  0  0  0  3  0  0  0  0  0  0
  187.2200  176.9640  137.0270 C   0  0  1  0  0  3  0  0  0  0  0  0
  189.0550  178.6350  137.4220 C   0  0  0  0  0  2  0  0  0  0  0  0
  190.5260  175.0330  137.4380 C   0  0  0  0  0  1  0  0  0  0  0  0
  185.9070  176.6320  137.3510 O   0  0  0  0  0  1  0  0  0  0  0  0
  187.6100  178.2530  137.7470 C   0  0  0  0  0  2  0  0  0  0  0  0
  189.5940  176.1840  137.1020 C   0  0  2  0  0  3  0  0  0  0  0  0
  190.0290  177.5030  137.7690 C   0  0  2  0  0  3  0  0  0  0  0  0
  188.1480  175.8250  137.4360 C   0  0  0  0  0  2  0  0  0  0  0  0
  1 11  1  0  0  0  0
  2 15  1  6  0  0  0
  2  7  1  0  0  0  0
  2  3  1  0  0  0  0
  3  9  1  0  0  0  0
  5  4  2  0  0  0  0
  5 16  1  0  0  0  0
  6 13  1  0  0  0  0
  7 17  2  0  0  0  0
  8  1  2  0  0  0  0
  9  6  2  0  0  0  0
 10 14  2  0  0  0  0
 10 15  1  0  0  0  0
 12 22  1  0  0  0  0
 14 19  1  0  0  0  0
 16 10  1  0  0  0  0
 17  1  1  0  0  0  0
 18  6  1  0  0  0  0
 19 20  2  0  0  0  0
 19  7  1  0  0  0  0
 20  8  1  0  0  0  0
 21 15  2  0  0  0  0
 21 12  1  0  0  0  0
 22 23  1  0  0  0  0
 22  3  2  0  0  0  0
 23 18  2  0  0  0  0
 24 27  1  1  0  0  0
 24 31  1  0  0  0  0
 24 28  1  0  0  0  0
 25 28  1  0  0  0  0
 25 30  1  0  0  0  0
 29 31  1  0  0  0  0
 29 26  1  1  0  0  0
 29 30  1  0  0  0  0
 30  5  1  1  0  0  0
M  END
>  <MODEL>
4

>  <REMARK>
 VINA RESULT:     -10.9      1.810      4.083
  Name = 
  1 active torsions:
  status: ('A' for Active; 'I' for Inactive)
    1  A    between atoms: C_5  and  C_30
                            x       y       z     vdW  Elec       q    Type
                         _______ _______ _______ _____ _____    ______ ____

>  <TORSDO>
F 1

$$$$
=
 OpenBabel11122411043D

 31 35  0  0  1  0  0  0  0  0999 V2000
  185.2710  178.9650  143.6330 C   0  0  0  0  0  0  0  0  0  0  0  0
  188.5830  177.0940  143.1050 C   0  0  1  0  0  3  0  0  0  0  0  0
  189.2220  177.1560  144.4810 C   0  0  0  0  0  0  0  0  0  0  0  0
  188.4130  177.7600  137.7740 O   0  0  0  0  0  0  0  0  0  0  0  0
  189.5690  177.3880  138.1070 C   0  0  0  0  0  0  0  0  0  0  0  0
  189.0580  177.0150  146.9050 C   0  0  0  0  0  0  0  0  0  0  0  0
  187.3450  177.9460  142.8650 C   0  0  0  0  0  0  0  0  0  0  0  0
  184.9430  179.3070  142.3200 C   0  0  0  0  0  3  0  0  0  0  0  0
  188.4490  177.0540  145.6480 C   0  0  0  0  0  3  0  0  0  0  0  0
  189.0640  177.4780  140.6120 C   0  0  0  0  0  0  0  0  0  0  0  0
  184.4330  179.2870  144.6470 F   0  0  0  0  0  0  0  0  0  0  0  0
  191.4130  177.1460  143.4470 O   0  0  0  0  0  0  0  0  0  0  0  0
  188.2980  176.9410  148.0240 F   0  0  0  0  0  0  0  0  0  0  0  0
  187.8660  177.9560  140.4430 N   0  0  0  0  0  0  0  0  0  0  0  0
  189.5790  177.2650  141.9750 C   0  0  0  0  0  0  0  0  0  0  0  0
  189.9180  177.2220  139.4890 N   0  0  0  0  0  2  0  0  0  0  0  0
  186.4570  178.2760  143.9000 C   0  0  0  0  0  3  0  0  0  0  0  0
  190.4500  177.0410  147.0070 C   0  0  0  0  0  3  0  0  0  0  0  0
  186.9960  178.2840  141.5370 C   0  0  0  0  0  0  0  0  0  0  0  0
  185.8020  178.9650  141.2750 C   0  0  0  0  0  3  0  0  0  0  0  0
  190.8610  177.2460  142.1840 N   0  0  0  0  0  0  0  0  0  0  0  0
  190.6230  177.1380  144.5930 C   0  0  0  0  0  0  0  0  0  0  0  0
  191.2320  177.0960  145.8520 C   0  0  0  0  0  3  0  0  0  0  0  0
  190.5100  174.2880  136.1470 C   0  0  1  0  0  3  0  0  0  0  0  0
  189.9060  176.6900  135.7190 C   0  0  0  0  0  2  0  0  0  0  0  0
  192.3450  176.4620  138.7420 C   0  0  0  0  0  1  0  0  0  0  0  0
  190.0050  172.9920  136.2150 O   0  0  0  0  0  1  0  0  0  0  0  0
  189.3840  175.2530  135.7860 C   0  0  0  0  0  2  0  0  0  0  0  0
  191.6670  176.0930  137.4340 C   0  0  2  0  0  3  0  0  0  0  0  0
  190.5800  177.1070  137.0320 C   0  0  2  0  0  3  0  0  0  0  0  0
  191.1250  174.6660  137.4900 C   0  0  0  0  0  2  0  0  0  0  0  0
  1 17  1  0  0  0  0
  1 11  1  0  0  0  0
  2 15  1  6  0  0  0
  2  3  1  0  0  0  0
  3 22  2  0  0  0  0
  3  9  1  0  0  0  0
  4  5  2  0  0  0  0
  5 16  1  0  0  0  0
  6 18  1  0  0  0  0
  6 13  1  0  0  0  0
  7  2  1  0  0  0  0
  7 17  2  0  0  0  0
  8  1  2  0  0  0  0
  9  6  2  0  0  0  0
 10 15  1  0  0  0  0
 12 22  1  0  0  0  0
 14 10  2  0  0  0  0
 14 19  1  0  0  0  0
 15 21  2  0  0  0  0
 16 10  1  0  0  0  0
 19  7  1  0  0  0  0
 20 19  2  0  0  0  0
 20  8  1  0  0  0  0
 21 12  1  0  0  0  0
 22 23  1  0  0  0  0
 23 18  2  0  0  0  0
 24 27  1  1  0  0  0
 24 31  1  0  0  0  0
 25 28  1  0  0  0  0
 25 30  1  0  0  0  0
 28 24  1  0  0  0  0
 29 31  1  0  0  0  0
 29 26  1  1  0  0  0
 30 29  1  0  0  0  0
 30  5  1  1  0  0  0
M  END
>  <MODEL>
5

>  <REMARK>
 VINA RESULT:     -10.4      1.378      1.648
  Name = 
  1 active torsions:
  status: ('A' for Active; 'I' for Inactive)
    1  A    between atoms: C_5  and  C_30
                            x       y       z     vdW  Elec       q    Type
                         _______ _______ _______ _____ _____    ______ ____

>  <TORSDO>
F 1

$$$$
=
 OpenBabel11122411043D

 31 35  0  0  1  0  0  0  0  0999 V2000
  186.7720  178.4100  147.2340 C   0  0  0  0  0  0  0  0  0  0  0  0
  187.3860  177.3460  143.5960 C   0  0  1  0  0  3  0  0  0  0  0  0
  188.8960  177.4410  143.4730 C   0  0  0  0  0  0  0  0  0  0  0  0
  182.3040  178.3580  142.1660 O   0  0  0  0  0  0  0  0  0  0  0  0
  183.0060  178.2210  141.1290 C   0  0  0  0  0  0  0  0  0  0  0  0
  191.1260  177.0860  144.3810 C   0  0  0  0  0  0  0  0  0  0  0  0
  186.7440  177.9250  144.8480 C   0  0  0  0  0  0  0  0  0  0  0  0
  185.4240  178.7700  147.1850 C   0  0  0  0  0  3  0  0  0  0  0  0
  189.7380  177.0870  144.5400 C   0  0  0  0  0  3  0  0  0  0  0  0
  185.1970  178.0110  142.4300 C   0  0  0  0  0  0  0  0  0  0  0  0
  187.4460  178.4650  148.4070 F   0  0  0  0  0  0  0  0  0  0  0  0
  188.6550  177.9840  141.1230 O   0  0  0  0  0  0  0  0  0  0  0  0
  191.9250  176.7650  145.4270 F   0  0  0  0  0  0  0  0  0  0  0  0
  184.6360  178.2300  143.5820 N   0  0  0  0  0  0  0  0  0  0  0  0
  186.6540  177.8130  142.3530 C   0  0  0  0  0  0  0  0  0  0  0  0
  184.4250  178.0310  141.2210 N   0  0  0  0  0  2  0  0  0  0  0  0
  187.4220  177.9760  146.0760 C   0  0  0  0  0  3  0  0  0  0  0  0
  191.6880  177.4050  143.1450 C   0  0  0  0  0  3  0  0  0  0  0  0
  185.3750  178.2780  144.8130 C   0  0  0  0  0  0  0  0  0  0  0  0
  184.7270  178.7020  145.9770 C   0  0  0  0  0  3  0  0  0  0  0  0
  187.2800  178.0560  141.2410 N   0  0  0  0  0  0  0  0  0  0  0  0
  189.4710  177.7180  142.2210 C   0  0  0  0  0  0  0  0  0  0  0  0
  190.8610  177.7150  142.0630 C   0  0  0  0  0  3  0  0  0  0  0  0
  182.2350  180.9700  138.6420 C   0  0  1  0  0  3  0  0  0  0  0  0
  183.2940  178.6910  138.6790 C   0  0  0  0  0  2  0  0  0  0  0  0
  180.0600  178.6770  140.8420 C   0  0  0  0  0  1  0  0  0  0  0  0
  182.4950  182.3370  138.7020 O   0  0  0  0  0  1  0  0  0  0  0  0
  183.5500  180.1990  138.7270 C   0  0  0  0  0  2  0  0  0  0  0  0
  181.0330  179.0760  139.7470 C   0  0  2  0  0  3  0  0  0  0  0  0
  182.3310  178.2470  139.7860 C   0  0  2  0  0  3  0  0  0  0  0  0
  181.3120  180.5770  139.7900 C   0  0  0  0  0  2  0  0  0  0  0  0
  1 11  1  0  0  0  0
  2 15  1  6  0  0  0
  2  7  1  0  0  0  0
  3  2  1  0  0  0  0
  3  9  1  0  0  0  0
  5 16  1  0  0  0  0
  5  4  2  0  0  0  0
  6  9  2  0  0  0  0
  6 13  1  0  0  0  0
  7 17  1  0  0  0  0
  8  1  1  0  0  0  0
 10 14  2  0  0  0  0
 12 21  1  0  0  0  0
 12 22  1  0  0  0  0
 14 19  1  0  0  0  0
 15 10  1  0  0  0  0
 16 10  1  0  0  0  0
 17  1  2  0  0  0  0
 18  6  1  0  0  0  0
 19  7  2  0  0  0  0
 19 20  1  0  0  0  0
 20  8  2  0  0  0  0
 21 15  2  0  0  0  0
 22  3  2  0  0  0  0
 23 22  1  0  0  0  0
 23 18  2  0  0  0  0
 24 27  1  1  0  0  0
 24 28  1  0  0  0  0
 24 31  1  0  0  0  0
 25 28  1  0  0  0  0
 25 30  1  0  0  0  0
 29 30  1  0  0  0  0
 29 31  1  0  0  0  0
 29 26  1  1  0  0  0
 30  5  1  1  0  0  0
M  END
>  <MODEL>
6

>  <REMARK>
 VINA RESULT:     -10.3      3.309      5.433
  Name = 
  1 active torsions:
  status: ('A' for Active; 'I' for Inactive)
    1  A    between atoms: C_5  and  C_30
                            x       y       z     vdW  Elec       q    Type
                         _______ _______ _______ _____ _____    ______ ____

>  <TORSDO>
F 1

$$$$
=
 OpenBabel11122411043D

 31 35  0  0  1  0  0  0  0  0999 V2000
  185.4000  178.1000  145.9240 C   0  0  0  0  0  0  0  0  0  0  0  0
  184.5370  178.9880  142.2900 C   0  0  1  0  0  3  0  0  0  0  0  0
  183.0300  178.8030  142.2520 C   0  0  0  0  0  0  0  0  0  0  0  0
  189.5880  178.2150  140.6230 O   0  0  0  0  0  0  0  0  0  0  0  0
  188.8260  178.2730  139.6220 C   0  0  0  0  0  0  0  0  0  0  0  0
  180.8330  179.0640  143.2670 C   0  0  0  0  0  0  0  0  0  0  0  0
  185.2760  178.4950  143.5250 C   0  0  0  0  0  0  0  0  0  0  0  0
  186.7630  177.8150  145.8150 C   0  0  0  0  0  3  0  0  0  0  0  0
  182.2260  179.1480  143.3500 C   0  0  0  0  0  3  0  0  0  0  0  0
  186.6970  178.4060  141.0310 C   0  0  0  0  0  0  0  0  0  0  0  0
  184.7930  178.0500  147.1330 F   0  0  0  0  0  0  0  0  0  0  0  0
  183.1800  178.1860  139.9130 O   0  0  0  0  0  0  0  0  0  0  0  0
  180.0710  179.3780  144.3420 F   0  0  0  0  0  0  0  0  0  0  0  0
  187.3290  178.2640  142.1580 N   0  0  0  0  0  0  0  0  0  0  0  0
  185.2280  178.5180  141.0270 C   0  0  0  0  0  0  0  0  0  0  0  0
  187.4060  178.3840  139.7840 N   0  0  0  0  0  2  0  0  0  0  0  0
  184.6670  178.4520  144.7890 C   0  0  0  0  0  3  0  0  0  0  0  0
  180.2280  178.6670  142.0740 C   0  0  0  0  0  3  0  0  0  0  0  0
  186.6600  178.2190  143.4280 C   0  0  0  0  0  0  0  0  0  0  0  0
  187.3910  177.8780  144.5700 C   0  0  0  0  0  3  0  0  0  0  0  0
  184.5610  178.1970  139.9590 N   0  0  0  0  0  0  0  0  0  0  0  0
  182.4080  178.4460  141.0430 C   0  0  0  0  0  0  0  0  0  0  0  0
  181.0140  178.3640  140.9610 C   0  0  0  0  0  3  0  0  0  0  0  0
  187.6880  176.8510  136.3020 C   0  0  1  0  0  3  0  0  0  0  0  0
  188.5790  179.0080  137.2330 C   0  0  0  0  0  2  0  0  0  0  0  0
  190.5680  176.0110  138.7160 C   0  0  0  0  0  1  0  0  0  0  0  0
  186.5250  176.1580  135.9710 O   0  0  0  0  0  1  0  0  0  0  0  0
  187.3200  178.2290  136.8450 C   0  0  0  0  0  2  0  0  0  0  0  0
  189.7400  176.8160  137.7300 C   0  0  2  0  0  3  0  0  0  0  0  0
  189.4310  178.2340  138.2460 C   0  0  2  0  0  3  0  0  0  0  0  0
  188.4710  176.0590  137.3440 C   0  0  0  0  0  2  0  0  0  0  0  0
  1 11  1  0  0  0  0
  2 15  1  6  0  0  0
  2  7  1  0  0  0  0
  3  2  1  0  0  0  0
  3  9  1  0  0  0  0
  5 16  1  0  0  0  0
  5  4  2  0  0  0  0
  6  9  2  0  0  0  0
  6 13  1  0  0  0  0
  7 17  1  0  0  0  0
  8  1  1  0  0  0  0
 10 14  2  0  0  0  0
 12 21  1  0  0  0  0
 12 22  1  0  0  0  0
 14 19  1  0  0  0  0
 15 10  1  0  0  0  0
 16 10  1  0  0  0  0
 17  1  2  0  0  0  0
 18  6  1  0  0  0  0
 19  7  2  0  0  0  0
 19 20  1  0  0  0  0
 20  8  2  0  0  0  0
 21 15  2  0  0  0  0
 22  3  2  0  0  0  0
 23 22  1  0  0  0  0
 23 18  2  0  0  0  0
 24 27  1  1  0  0  0
 24 28  1  0  0  0  0
 24 31  1  0  0  0  0
 25 30  1  0  0  0  0
 28 25  1  0  0  0  0
 29 30  1  0  0  0  0
 29 26  1  1  0  0  0
 30  5  1  1  0  0  0
 31 29  1  0  0  0  0
M  END
>  <MODEL>
7

>  <REMARK>
 VINA RESULT:     -10.3      2.063      5.074
  Name = 
  1 active torsions:
  status: ('A' for Active; 'I' for Inactive)
    1  A    between atoms: C_5  and  C_30
                            x       y       z     vdW  Elec       q    Type
                         _______ _______ _______ _____ _____    ______ ____

>  <TORSDO>
F 1

$$$$
=
 OpenBabel11122411043D

 31 35  0  0  1  0  0  0  0  0999 V2000
  190.2840  176.7390  145.3050 C   0  0  0  0  0  0  0  0  0  0  0  0
  187.6690  178.5140  143.1240 C   0  0  1  0  0  3  0  0  0  0  0  0
  186.4280  178.4760  143.9970 C   0  0  0  0  0  0  0  0  0  0  0  0
  190.4900  177.7040  138.6200 O   0  0  0  0  0  0  0  0  0  0  0  0
  189.3200  178.0580  138.3170 C   0  0  0  0  0  0  0  0  0  0  0  0
  185.3550  178.6880  146.1710 C   0  0  0  0  0  0  0  0  0  0  0  0
  188.8670  177.6860  143.5660 C   0  0  0  0  0  0  0  0  0  0  0  0
  191.2280  176.3690  144.3450 C   0  0  0  0  0  3  0  0  0  0  0  0
  186.5120  178.6280  145.3900 C   0  0  0  0  0  3  0  0  0  0  0  0
  188.5040  178.0500  140.7400 C   0  0  0  0  0  0  0  0  0  0  0  0
  190.5050  176.4660  146.6120 F   0  0  0  0  0  0  0  0  0  0  0  0
  185.0480  178.4040  142.0060 O   0  0  0  0  0  0  0  0  0  0  0  0
  185.4530  178.8110  147.5170 F   0  0  0  0  0  0  0  0  0  0  0  0
  189.6280  177.5960  141.2100 N   0  0  0  0  0  0  0  0  0  0  0  0
  187.3740  178.2880  141.6550 C   0  0  0  0  0  0  0  0  0  0  0  0
  188.3250  178.2540  139.3320 N   0  0  0  0  0  2  0  0  0  0  0  0
  189.1200  177.4070  144.9180 C   0  0  0  0  0  3  0  0  0  0  0  0
  184.1000  178.6310  145.5650 C   0  0  0  0  0  3  0  0  0  0  0  0
  189.8370  177.3200  142.6040 C   0  0  0  0  0  0  0  0  0  0  0  0
  191.0050  176.6610  142.9980 C   0  0  0  0  0  3  0  0  0  0  0  0
  186.1590  178.2830  141.1930 N   0  0  0  0  0  0  0  0  0  0  0  0
  185.1590  178.4630  143.3930 C   0  0  0  0  0  0  0  0  0  0  0  0
  184.0010  178.5250  144.1760 C   0  0  0  0  0  3  0  0  0  0  0  0
  186.6480  176.6890  136.0100 C   0  0  1  0  0  3  0  0  0  0  0  0
  187.5920  178.9110  136.7080 C   0  0  0  0  0  2  0  0  0  0  0  0
  190.4840  176.3730  136.1320 C   0  0  0  0  0  1  0  0  0  0  0  0
  185.6350  175.7650  136.2550 O   0  0  0  0  0  1  0  0  0  0  0  0
  186.4810  177.8850  136.9430 C   0  0  0  0  0  2  0  0  0  0  0  0
  189.1240  177.0340  135.9840 C   0  0  2  0  0  3  0  0  0  0  0  0
  188.9810  178.2850  136.8710 C   0  0  2  0  0  3  0  0  0  0  0  0
  188.0040  176.0260  136.2320 C   0  0  0  0  0  2  0  0  0  0  0  0
  1 11  1  0  0  0  0
  2 15  1  6  0  0  0
  2  7  1  0  0  0  0
  2  3  1  0  0  0  0
  3  9  1  0  0  0  0
  5  4  2  0  0  0  0
  5 16  1  0  0  0  0
  6 13  1  0  0  0  0
  7 17  2  0  0  0  0
  8  1  2  0  0  0  0
  9  6  2  0  0  0  0
 10 14  2  0  0  0  0
 10 15  1  0  0  0  0
 12 22  1  0  0  0  0
 14 19  1  0  0  0  0
 16 10  1  0  0  0  0
 17  1  1  0  0  0  0
 18  6  1  0  0  0  0
 19 20  2  0  0  0  0
 19  7  1  0  0  0  0
 20  8  1  0  0  0  0
 21 15  2  0  0  0  0
 21 12  1  0  0  0  0
 22  3  2  0  0  0  0
 22 23  1  0  0  0  0
 23 18  2  0  0  0  0
 24 31  1  0  0  0  0
 24 27  1  1  0  0  0
 24 28  1  0  0  0  0
 25 30  1  0  0  0  0
 25 28  1  0  0  0  0
 29 26  1  1  0  0  0
 29 31  1  0  0  0  0
 29 30  1  0  0  0  0
 30  5  1  1  0  0  0
M  END
>  <MODEL>
8

>  <REMARK>
 VINA RESULT:     -10.3      1.921      4.044
  Name = 
  1 active torsions:
  status: ('A' for Active; 'I' for Inactive)
    1  A    between atoms: C_5  and  C_30
                            x       y       z     vdW  Elec       q    Type
                         _______ _______ _______ _____ _____    ______ ____

>  <TORSDO>
F 1

$$$$
=
 OpenBabel11122411043D

 31 35  0  0  1  0  0  0  0  0999 V2000
  185.4150  178.5620  146.5470 C   0  0  0  0  0  0  0  0  0  0  0  0
  187.6950  177.4890  143.6500 C   0  0  1  0  0  3  0  0  0  0  0  0
  189.0730  177.5110  144.2860 C   0  0  0  0  0  0  0  0  0  0  0  0
  184.0160  178.7520  139.9400 O   0  0  0  0  0  0  0  0  0  0  0  0
  185.1310  178.5870  139.3770 C   0  0  0  0  0  0  0  0  0  0  0  0
  190.5520  177.0440  146.1620 C   0  0  0  0  0  0  0  0  0  0  0  0
  186.5440  178.0920  144.4420 C   0  0  0  0  0  0  0  0  0  0  0  0
  184.2810  178.9870  145.8530 C   0  0  0  0  0  3  0  0  0  0  0  0
  189.2670  177.1110  145.6180 C   0  0  0  0  0  3  0  0  0  0  0  0
  186.3900  178.2640  141.5790 C   0  0  0  0  0  0  0  0  0  0  0  0
  185.4270  178.5790  147.9010 F   0  0  0  0  0  0  0  0  0  0  0  0
  190.0390  178.0770  142.1370 O   0  0  0  0  0  0  0  0  0  0  0  0
  190.7220  176.6800  147.4550 F   0  0  0  0  0  0  0  0  0  0  0  0
  185.3440  178.5040  142.3140 N   0  0  0  0  0  0  0  0  0  0  0  0
  187.6870  177.9960  142.2220 C   0  0  0  0  0  0  0  0  0  0  0  0
  186.3120  178.3280  140.1490 N   0  0  0  0  0  2  0  0  0  0  0  0
  186.5320  178.1030  145.8450 C   0  0  0  0  0  3  0  0  0  0  0  0
  191.6620  177.3420  145.3690 C   0  0  0  0  0  3  0  0  0  0  0  0
  185.3840  178.5110  143.7490 C   0  0  0  0  0  0  0  0  0  0  0  0
  184.2650  178.9590  144.4580 C   0  0  0  0  0  3  0  0  0  0  0  0
  188.7880  178.2150  141.5670 N   0  0  0  0  0  0  0  0  0  0  0  0
  190.2000  177.7670  143.4860 C   0  0  0  0  0  0  0  0  0  0  0  0
  191.4860  177.6970  144.0310 C   0  0  0  0  0  3  0  0  0  0  0  0
  184.9110  175.9900  136.6300 C   0  0  1  0  0  3  0  0  0  0  0  0
  183.8900  178.2070  137.2280 C   0  0  0  0  0  2  0  0  0  0  0  0
  187.7210  178.2960  137.9010 C   0  0  0  0  0  1  0  0  0  0  0  0
  184.7390  174.6100  136.7080 O   0  0  0  0  0  1  0  0  0  0  0  0
  183.7210  176.6870  137.2840 C   0  0  0  0  0  2  0  0  0  0  0  0
  186.3990  177.8950  137.2690 C   0  0  2  0  0  3  0  0  0  0  0  0
  185.2050  178.6520  137.8780 C   0  0  2  0  0  3  0  0  0  0  0  0
  186.2080  176.3810  137.3310 C   0  0  0  0  0  2  0  0  0  0  0  0
  1 11  1  0  0  0  0
  2 15  1  6  0  0  0
  2  3  1  0  0  0  0
  2  7  1  0  0  0  0
  3  9  1  0  0  0  0
  5  4  2  0  0  0  0
  5 16  1  0  0  0  0
  6 13  1  0  0  0  0
  7 17  1  0  0  0  0
  8  1  1  0  0  0  0
  9  6  2  0  0  0  0
 10 15  1  0  0  0  0
 10 14  2  0  0  0  0
 12 22  1  0  0  0  0
 14 19  1  0  0  0  0
 16 10  1  0  0  0  0
 17  1  2  0  0  0  0
 18  6  1  0  0  0  0
 19  7  2  0  0  0  0
 19 20  1  0  0  0  0
 20  8  2  0  0  0  0
 21 12  1  0  0  0  0
 21 15  2  0  0  0  0
 22 23  1  0  0  0  0
 22  3  2  0  0  0  0
 23 18  2  0  0  0  0
 24 27  1  1  0  0  0
 24 28  1  0  0  0  0
 24 31  1  0  0  0  0
 25 28  1  0  0  0  0
 25 30  1  0  0  0  0
 29 31  1  0  0  0  0
 29 30  1  0  0  0  0
 29 26  1  1  0  0  0
 30  5  1  1  0  0  0
M  END
>  <MODEL>
9

>  <REMARK>
 VINA RESULT:     -10.1      2.231      2.762
  Name = 
  1 active torsions:
  status: ('A' for Active; 'I' for Inactive)
    1  A    between atoms: C_5  and  C_30
                            x       y       z     vdW  Elec       q    Type
                         _______ _______ _______ _____ _____    ______ ____

>  <TORSDO>
F 1

$$$$
