=
 OpenBabel11122411523D

 28 32  0  0  1  0  0  0  0  0999 V2000
  183.7540  176.5850  138.6050 C   0  0  0  0  0  0  0  0  0  0  0  0
  186.3980  177.5870  141.7570 O   0  0  0  0  0  0  0  0  0  0  0  0
  179.6030  180.5900  139.9330 O   0  0  0  0  0  0  0  0  0  0  0  0
  185.4910  178.6840  137.9680 C   0  0  0  0  0  3  0  0  0  0  0  0
  180.6390  179.7580  142.1930 C   0  0  2  0  0  3  0  0  0  0  0  0
  182.6830  175.5600  138.8190 C   0  0  0  0  0  2  0  0  0  0  0  0
  185.4990  179.8830  141.5800 O   0  0  0  0  0  0  0  0  0  0  0  0
  185.3700  178.5540  142.2710 S   0  0  0  0  0  0  0  0  0  0  0  0
  184.2410  178.7820  144.8010 C   0  0  0  0  0  0  0  0  0  0  0  0
  183.7750  177.9000  142.1150 N   0  0  1  0  0  0  0  0  0  0  0  0
  178.9310  176.2210  138.2440 C   0  0  0  0  0  1  0  0  0  0  0  0
  181.9240  178.5200  140.8060 C   0  0  2  0  0  3  0  0  0  0  0  0
  183.0270  178.8130  144.2120 C   0  0  0  0  0  3  0  0  0  0  0  0
  185.5620  178.8150  144.0370 C   0  0  0  0  0  2  0  0  0  0  0  0
  180.1800  175.8940  139.0390 C   0  0  2  0  0  3  0  0  0  0  0  0
  183.9530  177.6320  139.5310 C   0  0  0  0  0  0  0  0  0  0  0  0
  179.5210  179.3560  140.8210 S   0  0  2  0  0  0  0  0  0  0  0  0
  184.3010  178.7280  146.2870 C   0  0  0  0  0  1  0  0  0  0  0  0
  180.2330  176.7570  140.3050 C   0  0  0  0  0  2  0  0  0  0  0  0
  184.7890  178.6980  139.1740 C   0  0  0  0  0  3  0  0  0  0  0  0
  184.4580  176.5760  137.3960 C   0  0  0  0  0  3  0  0  0  0  0  0
  185.3370  177.6150  137.0840 C   0  0  0  0  0  3  0  0  0  0  0  0
  181.4060  176.0410  138.1410 C   0  0  0  0  0  2  0  0  0  0  0  0
  181.5820  178.6550  142.2010 N   0  0  1  0  0  0  0  0  0  0  0  0
  180.6650  178.2000  140.0350 C   0  0  2  0  0  3  0  0  0  0  0  0
  182.9110  178.9080  142.7220 C   0  0  2  0  0  3  0  0  0  0  0  0
  179.8540  179.7770  143.4890 C   0  0  0  0  0  1  0  0  0  0  0  0
  183.1420  177.6390  140.8060 C   0  0  1  0  0  3  0  0  0  0  0  0
  1  6  1  0  0  0  0
  1 16  1  0  0  0  0
  2  8  2  0  0  0  0
  3 17  2  0  0  0  0
  4 20  1  0  0  0  0
  5 24  1  0  0  0  0
  5 27  1  1  0  0  0
  7  8  2  0  0  0  0
  8 14  1  0  0  0  0
  9 18  1  0  0  0  0
 10  8  1  6  0  0  0
 10 26  1  0  0  0  0
 11 15  1  0  0  0  0
 12 24  1  0  0  0  0
 13  9  2  0  0  0  0
 14  9  1  0  0  0  0
 15 19  1  0  0  0  0
 16 28  1  0  0  0  0
 17  5  1  0  0  0  0
 20 16  2  0  0  0  0
 21  1  2  0  0  0  0
 22 21  1  0  0  0  0
 22  4  2  0  0  0  0
 23  6  1  0  0  0  0
 23 15  1  0  0  0  0
 24 26  1  0  0  0  0
 25 19  1  0  0  0  0
 25 12  1  0  0  0  0
 25 17  1  0  0  0  0
 26 13  1  0  0  0  0
 28 12  1  0  0  0  0
 28 10  1  0  0  0  0
M  END
>  <MODEL>
1

>  <REMARK>
 VINA RESULT:      -6.5      0.000      0.000
  Name = 
  0 active torsions:
  status: ('A' for Active; 'I' for Inactive)
                            x       y       z     vdW  Elec       q    Type
                         _______ _______ _______ _____ _____    ______ ____

>  <TORSDO>
F 0

$$$$
=
 OpenBabel11122411523D

 28 32  0  0  1  0  0  0  0  0999 V2000
  184.2790  175.8900  137.6610 C   0  0  0  0  0  0  0  0  0  0  0  0
  186.2680  177.8780  140.8280 O   0  0  0  0  0  0  0  0  0  0  0  0
  179.2510  178.9950  137.9950 O   0  0  0  0  0  0  0  0  0  0  0  0
  185.5960  178.2230  136.8510 C   0  0  0  0  0  3  0  0  0  0  0  0
  180.1700  178.7290  140.4350 C   0  0  2  0  0  3  0  0  0  0  0  0
  183.4310  174.6880  137.9430 C   0  0  0  0  0  2  0  0  0  0  0  0
  184.9300  179.8660  140.2190 O   0  0  0  0  0  0  0  0  0  0  0  0
  185.0060  178.6470  141.0960 S   0  0  0  0  0  0  0  0  0  0  0  0
  183.5690  178.9520  143.4560 C   0  0  0  0  0  0  0  0  0  0  0  0
  183.6150  177.6350  140.9120 N   0  0  1  0  0  0  0  0  0  0  0  0
  179.7170  174.4010  136.9600 C   0  0  0  0  0  1  0  0  0  0  0  0
  181.8390  177.6390  139.3710 C   0  0  2  0  0  3  0  0  0  0  0  0
  182.4520  178.6280  142.7700 C   0  0  0  0  0  3  0  0  0  0  0  0
  184.9330  179.1790  142.8090 C   0  0  0  0  0  2  0  0  0  0  0  0
  180.9060  174.4740  137.8980 C   0  0  2  0  0  3  0  0  0  0  0  0
  184.1430  177.0690  138.4260 C   0  0  0  0  0  0  0  0  0  0  0  0
  179.3280  177.9040  139.0550 S   0  0  2  0  0  0  0  0  0  0  0  0
  183.4660  179.1110  144.9320 C   0  0  0  0  0  1  0  0  0  0  0  0
  180.6290  175.4890  139.0130 C   0  0  0  0  0  2  0  0  0  0  0  0
  184.7710  178.2400  137.9770 C   0  0  0  0  0  3  0  0  0  0  0  0
  185.1050  175.8790  136.5310 C   0  0  0  0  0  3  0  0  0  0  0  0
  185.7740  177.0380  136.1350 C   0  0  0  0  0  3  0  0  0  0  0  0
  182.1700  174.7720  137.0940 C   0  0  0  0  0  2  0  0  0  0  0  0
  181.3170  177.8790  140.6950 N   0  0  1  0  0  0  0  0  0  0  0  0
  180.7740  176.9420  138.5580 C   0  0  2  0  0  3  0  0  0  0  0  0
  182.4920  178.4940  141.2800 C   0  0  2  0  0  3  0  0  0  0  0  0
  179.2540  178.7430  141.6420 C   0  0  0  0  0  1  0  0  0  0  0  0
  183.2070  177.0650  139.6110 C   0  0  1  0  0  3  0  0  0  0  0  0
  1  6  1  0  0  0  0
  1 16  1  0  0  0  0
  2  8  2  0  0  0  0
  3 17  2  0  0  0  0
  4 20  1  0  0  0  0
  5 24  1  0  0  0  0
  5 27  1  1  0  0  0
  7  8  2  0  0  0  0
  8 14  1  0  0  0  0
  9 18  1  0  0  0  0
 10  8  1  6  0  0  0
 10 26  1  0  0  0  0
 11 15  1  0  0  0  0
 12 28  1  0  0  0  0
 12 24  1  0  0  0  0
 13  9  2  0  0  0  0
 14  9  1  0  0  0  0
 15 19  1  0  0  0  0
 16 28  1  0  0  0  0
 17  5  1  0  0  0  0
 20 16  2  0  0  0  0
 21  1  2  0  0  0  0
 22 21  1  0  0  0  0
 22  4  2  0  0  0  0
 23 15  1  0  0  0  0
 23  6  1  0  0  0  0
 24 26  1  0  0  0  0
 25 19  1  0  0  0  0
 25 17  1  0  0  0  0
 25 12  1  0  0  0  0
 26 13  1  0  0  0  0
 28 10  1  0  0  0  0
M  END
>  <MODEL>
2

>  <REMARK>
 VINA RESULT:      -5.8      1.389      1.669
  Name = 
  0 active torsions:
  status: ('A' for Active; 'I' for Inactive)
                            x       y       z     vdW  Elec       q    Type
                         _______ _______ _______ _____ _____    ______ ____

>  <TORSDO>
F 0

$$$$
=
 OpenBabel11122411523D

 28 32  0  0  1  0  0  0  0  0999 V2000
  185.2890  178.9020  144.0300 C   0  0  0  0  0  0  0  0  0  0  0  0
  188.9930  179.0090  141.9800 O   0  0  0  0  0  0  0  0  0  0  0  0
  182.4710  175.4760  140.1120 O   0  0  0  0  0  0  0  0  0  0  0  0
  186.9540  176.7360  144.6370 C   0  0  0  0  0  3  0  0  0  0  0  0
  184.1200  177.0070  138.7680 C   0  0  2  0  0  3  0  0  0  0  0  0
  184.2360  179.9250  143.7330 C   0  0  0  0  0  2  0  0  0  0  0  0
  188.4110  176.7650  141.1200 O   0  0  0  0  0  0  0  0  0  0  0  0
  188.3570  178.2440  140.8550 S   0  0  0  0  0  0  0  0  0  0  0  0
  188.2460  178.8250  138.1380 C   0  0  0  0  0  0  0  0  0  0  0  0
  186.7390  178.7880  140.5740 N   0  0  1  0  0  0  0  0  0  0  0  0
  180.6530  179.0570  142.6140 C   0  0  0  0  0  1  0  0  0  0  0  0
  184.6450  177.7520  140.8360 C   0  0  2  0  0  3  0  0  0  0  0  0
  186.9180  178.5880  138.1830 C   0  0  0  0  0  3  0  0  0  0  0  0
  189.2000  178.5680  139.3020 C   0  0  0  0  0  2  0  0  0  0  0  0
  182.0460  179.6410  142.4880 C   0  0  2  0  0  3  0  0  0  0  0  0
  185.9450  178.2130  142.9870 C   0  0  0  0  0  0  0  0  0  0  0  0
  182.5420  176.9290  139.6630 S   0  0  2  0  0  0  0  0  0  0  0  0
  188.8230  179.3570  136.8740 C   0  0  0  0  0  1  0  0  0  0  0  0
  182.6640  179.2330  141.1460 C   0  0  0  0  0  2  0  0  0  0  0  0
  186.7360  177.1010  143.3070 C   0  0  0  0  0  3  0  0  0  0  0  0
  185.5080  178.5310  145.3610 C   0  0  0  0  0  3  0  0  0  0  0  0
  186.3510  177.4610  145.6650 C   0  0  0  0  0  3  0  0  0  0  0  0
  182.8800  179.2320  143.7010 C   0  0  0  0  0  2  0  0  0  0  0  0
  184.8440  178.0680  139.4430 N   0  0  1  0  0  0  0  0  0  0  0  0
  183.1630  177.7870  141.1260 C   0  0  2  0  0  3  0  0  0  0  0  0
  186.2930  178.0160  139.4170 C   0  0  2  0  0  3  0  0  0  0  0  0
  183.8590  177.3950  137.3270 C   0  0  0  0  0  1  0  0  0  0  0  0
  185.6510  178.6040  141.5570 C   0  0  1  0  0  3  0  0  0  0  0  0
  1 21  1  0  0  0  0
  4 22  1  0  0  0  0
  5 27  1  6  0  0  0
  5 24  1  0  0  0  0
  5 17  1  0  0  0  0
  6  1  1  0  0  0  0
  8  7  2  0  0  0  0
  8  2  2  0  0  0  0
  9 13  2  0  0  0  0
  9 14  1  0  0  0  0
 10  8  1  1  0  0  0
 10 28  1  0  0  0  0
 12 25  1  0  0  0  0
 12 28  1  0  0  0  0
 13 26  1  0  0  0  0
 14  8  1  0  0  0  0
 15 11  1  0  0  0  0
 15 23  1  0  0  0  0
 16 20  1  0  0  0  0
 16  1  2  0  0  0  0
 17  3  2  0  0  0  0
 17 25  1  0  0  0  0
 18  9  1  0  0  0  0
 19 15  1  0  0  0  0
 20  4  2  0  0  0  0
 21 22  2  0  0  0  0
 23  6  1  0  0  0  0
 24 12  1  0  0  0  0
 25 19  1  0  0  0  0
 26 24  1  0  0  0  0
 26 10  1  0  0  0  0
 28 16  1  0  0  0  0
M  END
>  <MODEL>
3

>  <REMARK>
 VINA RESULT:      -5.3      2.664      5.812
  Name = 
  0 active torsions:
  status: ('A' for Active; 'I' for Inactive)
                            x       y       z     vdW  Elec       q    Type
                         _______ _______ _______ _____ _____    ______ ____

>  <TORSDO>
F 0

$$$$
=
 OpenBabel11122411523D

 28 32  0  0  1  0  0  0  0  0999 V2000
  186.4060  174.8570  136.6660 C   0  0  0  0  0  0  0  0  0  0  0  0
  182.6560  174.4080  134.7510 O   0  0  0  0  0  0  0  0  0  0  0  0
  184.4770  178.2870  141.0880 O   0  0  0  0  0  0  0  0  0  0  0  0
  184.8750  172.7580  137.7070 C   0  0  0  0  0  3  0  0  0  0  0  0
  183.0860  178.9050  138.9540 C   0  0  2  0  0  3  0  0  0  0  0  0
  187.3010  176.0030  136.3090 C   0  0  0  0  0  2  0  0  0  0  0  0
  181.6500  174.6500  136.9970 O   0  0  0  0  0  0  0  0  0  0  0  0
  182.0690  175.3690  135.7450 S   0  0  0  0  0  0  0  0  0  0  0  0
  180.6110  177.6990  135.3280 C   0  0  0  0  0  0  0  0  0  0  0  0
  183.1710  176.6590  136.0830 N   0  0  1  0  0  0  0  0  0  0  0  0
  188.6440  178.5580  138.8600 C   0  0  0  0  0  1  0  0  0  0  0  0
  184.3470  177.2770  138.0220 C   0  0  2  0  0  3  0  0  0  0  0  0
  181.4360  178.3230  136.1950 C   0  0  0  0  0  3  0  0  0  0  0  0
  180.6290  176.1960  135.0610 C   0  0  0  0  0  2  0  0  0  0  0  0
  187.8530  178.0750  137.6610 C   0  0  2  0  0  3  0  0  0  0  0  0
  185.0380  175.0640  136.9490 C   0  0  0  0  0  0  0  0  0  0  0  0
  184.6850  179.0690  139.7970 S   0  0  2  0  0  0  0  0  0  0  0  0
  179.6110  178.5220  134.5940 C   0  0  0  0  0  1  0  0  0  0  0  0
  186.4240  178.6250  137.7220 C   0  0  0  0  0  2  0  0  0  0  0  0
  184.3000  174.0150  137.5150 C   0  0  0  0  0  3  0  0  0  0  0  0
  186.9780  173.5950  136.8630 C   0  0  0  0  0  3  0  0  0  0  0  0
  186.2120  172.5430  137.3680 C   0  0  0  0  0  3  0  0  0  0  0  0
  187.9250  176.5510  137.5850 C   0  0  0  0  0  2  0  0  0  0  0  0
  183.4360  178.3370  137.6650 N   0  0  1  0  0  0  0  0  0  0  0  0
  185.5350  177.8890  138.7270 C   0  0  2  0  0  3  0  0  0  0  0  0
  182.4340  177.5370  136.9880 C   0  0  2  0  0  3  0  0  0  0  0  0
  182.4780  180.2800  138.7640 C   0  0  0  0  0  1  0  0  0  0  0  0
  184.4600  176.4490  136.7740 C   0  0  1  0  0  3  0  0  0  0  0  0
  1 21  2  0  0  0  0
  1 16  1  0  0  0  0
  2  8  2  0  0  0  0
  5 27  1  6  0  0  0
  5 17  1  0  0  0  0
  6  1  1  0  0  0  0
  6 23  1  0  0  0  0
  8  7  2  0  0  0  0
  9 13  2  0  0  0  0
 10  8  1  1  0  0  0
 10 28  1  0  0  0  0
 10 26  1  0  0  0  0
 12 25  1  0  0  0  0
 13 26  1  0  0  0  0
 14  9  1  0  0  0  0
 14  8  1  0  0  0  0
 15 19  1  0  0  0  0
 15 11  1  0  0  0  0
 16 20  2  0  0  0  0
 17  3  2  0  0  0  0
 18  9  1  0  0  0  0
 19 25  1  0  0  0  0
 20  4  1  0  0  0  0
 21 22  1  0  0  0  0
 22  4  2  0  0  0  0
 23 15  1  0  0  0  0
 24 12  1  0  0  0  0
 24  5  1  0  0  0  0
 25 17  1  0  0  0  0
 26 24  1  0  0  0  0
 28 16  1  0  0  0  0
 28 12  1  0  0  0  0
M  END
>  <MODEL>
4

>  <REMARK>
 VINA RESULT:      -5.1      3.797      6.866
  Name = 
  0 active torsions:
  status: ('A' for Active; 'I' for Inactive)
                            x       y       z     vdW  Elec       q    Type
                         _______ _______ _______ _____ _____    ______ ____

>  <TORSDO>
F 0

$$$$
=
 OpenBabel11122411523D

 28 32  0  0  1  0  0  0  0  0999 V2000
  185.8320  174.9250  136.8510 C   0  0  0  0  0  0  0  0  0  0  0  0
  184.6470  178.1780  139.2900 O   0  0  0  0  0  0  0  0  0  0  0  0
  180.4740  173.8140  134.5940 O   0  0  0  0  0  0  0  0  0  0  0  0
  185.8260  177.3770  135.5020 C   0  0  0  0  0  3  0  0  0  0  0  0
  180.1310  174.6090  137.0670 C   0  0  2  0  0  3  0  0  0  0  0  0
  185.7800  173.5270  137.3840 C   0  0  0  0  0  2  0  0  0  0  0  0
  182.9000  178.6160  137.5970 O   0  0  0  0  0  0  0  0  0  0  0  0
  183.2230  177.9190  138.8890 S   0  0  0  0  0  0  0  0  0  0  0  0
  180.9690  177.5200  140.4660 C   0  0  0  0  0  0  0  0  0  0  0  0
  182.9040  176.2210  138.8010 N   0  0  1  0  0  0  0  0  0  0  0  0
  183.8190  170.6610  135.7160 C   0  0  0  0  0  1  0  0  0  0  0  0
  182.3830  174.7930  137.0080 C   0  0  2  0  0  3  0  0  0  0  0  0
  180.6910  176.4290  139.7220 C   0  0  0  0  0  3  0  0  0  0  0  0
  182.0870  178.5100  140.1480 C   0  0  0  0  0  2  0  0  0  0  0  0
  184.1690  171.6580  136.8020 C   0  0  2  0  0  3  0  0  0  0  0  0
  184.7310  175.7980  136.9950 C   0  0  0  0  0  0  0  0  0  0  0  0
  180.6420  173.2390  135.9930 S   0  0  2  0  0  0  0  0  0  0  0  0
  180.1280  177.7870  141.6650 C   0  0  0  0  0  1  0  0  0  0  0  0
  182.9000  172.3690  137.2860 C   0  0  0  0  0  2  0  0  0  0  0  0
  184.7260  177.0000  136.2730 C   0  0  0  0  0  3  0  0  0  0  0  0
  186.9320  175.3060  136.0740 C   0  0  0  0  0  3  0  0  0  0  0  0
  186.9360  176.5360  135.4130 C   0  0  0  0  0  3  0  0  0  0  0  0
  185.2510  172.6070  136.2920 C   0  0  0  0  0  2  0  0  0  0  0  0
  181.2770  174.8100  137.9350 N   0  0  1  0  0  0  0  0  0  0  0  0
  182.4060  173.4480  136.3200 C   0  0  2  0  0  3  0  0  0  0  0  0
  181.4810  176.1360  138.4850 C   0  0  2  0  0  3  0  0  0  0  0  0
  178.9310  174.1810  137.8880 C   0  0  0  0  0  1  0  0  0  0  0  0
  183.5380  175.3390  137.7990 C   0  0  1  0  0  3  0  0  0  0  0  0
  1 16  1  0  0  0  0
  1  6  1  0  0  0  0
  3 17  2  0  0  0  0
  4 20  1  0  0  0  0
  5 27  1  1  0  0  0
  5 24  1  0  0  0  0
  7  8  2  0  0  0  0
  8  2  2  0  0  0  0
  8 14  1  0  0  0  0
  9 18  1  0  0  0  0
 10  8  1  6  0  0  0
 11 15  1  0  0  0  0
 12 28  1  0  0  0  0
 12 24  1  0  0  0  0
 13  9  2  0  0  0  0
 14  9  1  0  0  0  0
 15 19  1  0  0  0  0
 16 28  1  0  0  0  0
 17 25  1  0  0  0  0
 17  5  1  0  0  0  0
 20 16  2  0  0  0  0
 21  1  2  0  0  0  0
 22  4  2  0  0  0  0
 22 21  1  0  0  0  0
 23 15  1  0  0  0  0
 23  6  1  0  0  0  0
 24 26  1  0  0  0  0
 25 12  1  0  0  0  0
 25 19  1  0  0  0  0
 26 10  1  0  0  0  0
 26 13  1  0  0  0  0
 28 10  1  0  0  0  0
M  END
>  <MODEL>
5

>  <REMARK>
 VINA RESULT:      -5.1      3.702      5.438
  Name = 
  0 active torsions:
  status: ('A' for Active; 'I' for Inactive)
                            x       y       z     vdW  Elec       q    Type
                         _______ _______ _______ _____ _____    ______ ____

>  <TORSDO>
F 0

$$$$
=
 OpenBabel11122411523D

 28 32  0  0  1  0  0  0  0  0999 V2000
  188.7200  172.9410  136.2230 C   0  0  0  0  0  0  0  0  0  0  0  0
  191.2450  175.2710  138.6980 O   0  0  0  0  0  0  0  0  0  0  0  0
  185.0560  177.3340  134.7030 O   0  0  0  0  0  0  0  0  0  0  0  0
  190.7610  174.2360  134.8150 C   0  0  0  0  0  3  0  0  0  0  0  0
  185.8090  177.7640  137.1770 C   0  0  2  0  0  3  0  0  0  0  0  0
  187.5090  172.2730  136.8000 C   0  0  0  0  0  2  0  0  0  0  0  0
  190.6730  177.1770  137.2300 O   0  0  0  0  0  0  0  0  0  0  0  0
  190.3200  176.4370  138.4900 S   0  0  0  0  0  0  0  0  0  0  0  0
  189.0560  178.0670  140.3540 C   0  0  0  0  0  0  0  0  0  0  0  0
  188.6680  175.9240  138.4930 N   0  0  1  0  0  0  0  0  0  0  0  0
  183.9290  172.8050  135.4800 C   0  0  0  0  0  1  0  0  0  0  0  0
  187.0130  175.8840  136.8240 C   0  0  2  0  0  3  0  0  0  0  0  0
  187.9010  177.8690  139.6840 C   0  0  0  0  0  3  0  0  0  0  0  0
  190.4200  177.5860  139.8660 C   0  0  0  0  0  2  0  0  0  0  0  0
  185.0630  172.8610  136.4830 C   0  0  2  0  0  3  0  0  0  0  0  0
  188.9900  174.3030  136.4810 C   0  0  0  0  0  0  0  0  0  0  0  0
  184.7470  176.7760  136.0860 S   0  0  2  0  0  0  0  0  0  0  0  0
  189.0030  178.8110  141.6420 C   0  0  0  0  0  1  0  0  0  0  0  0
  185.1420  174.2600  137.1050 C   0  0  0  0  0  2  0  0  0  0  0  0
  189.9840  174.9460  135.7310 C   0  0  0  0  0  3  0  0  0  0  0  0
  189.5000  172.2340  135.3010 C   0  0  0  0  0  3  0  0  0  0  0  0
  190.5290  172.8760  134.6090 C   0  0  0  0  0  3  0  0  0  0  0  0
  186.3590  172.4110  135.8110 C   0  0  0  0  0  2  0  0  0  0  0  0
  186.5940  176.7690  137.8840 N   0  0  1  0  0  0  0  0  0  0  0  0
  185.7800  175.2970  136.1790 C   0  0  2  0  0  3  0  0  0  0  0  0
  187.9040  177.1620  138.3640 C   0  0  2  0  0  3  0  0  0  0  0  0
  184.9440  178.5320  138.1560 C   0  0  0  0  0  1  0  0  0  0  0  0
  188.1000  175.0520  137.4450 C   0  0  1  0  0  3  0  0  0  0  0  0
  1 16  1  0  0  0  0
  1  6  1  0  0  0  0
  3 17  2  0  0  0  0
  4 20  1  0  0  0  0
  5 24  1  0  0  0  0
  5 27  1  1  0  0  0
  7  8  2  0  0  0  0
  8  2  2  0  0  0  0
  8 14  1  0  0  0  0
  9 18  1  0  0  0  0
 10  8  1  6  0  0  0
 11 15  1  0  0  0  0
 12 28  1  0  0  0  0
 12 24  1  0  0  0  0
 13  9  2  0  0  0  0
 14  9  1  0  0  0  0
 15 19  1  0  0  0  0
 16 28  1  0  0  0  0
 17 25  1  0  0  0  0
 17  5  1  0  0  0  0
 20 16  2  0  0  0  0
 21  1  2  0  0  0  0
 22  4  2  0  0  0  0
 22 21  1  0  0  0  0
 23 15  1  0  0  0  0
 23  6  1  0  0  0  0
 24 26  1  0  0  0  0
 25 12  1  0  0  0  0
 25 19  1  0  0  0  0
 26 10  1  0  0  0  0
 26 13  1  0  0  0  0
 28 10  1  0  0  0  0
M  END
>  <MODEL>
6

>  <REMARK>
 VINA RESULT:      -5.0      5.269      6.894
  Name = 
  0 active torsions:
  status: ('A' for Active; 'I' for Inactive)
                            x       y       z     vdW  Elec       q    Type
                         _______ _______ _______ _____ _____    ______ ____

>  <TORSDO>
F 0

$$$$
=
 OpenBabel11122411523D

 28 32  0  0  1  0  0  0  0  0999 V2000
  191.3050  175.2100  138.1310 C   0  0  0  0  0  0  0  0  0  0  0  0
  191.5300  175.9880  142.2880 O   0  0  0  0  0  0  0  0  0  0  0  0
  187.5550  179.6050  136.8430 O   0  0  0  0  0  0  0  0  0  0  0  0
  193.2310  177.1280  138.7960 C   0  0  0  0  0  3  0  0  0  0  0  0
  186.9150  178.7010  139.2190 C   0  0  2  0  0  3  0  0  0  0  0  0
  190.2500  174.2940  137.5930 C   0  0  0  0  0  2  0  0  0  0  0  0
  191.1180  178.3570  141.7130 O   0  0  0  0  0  0  0  0  0  0  0  0
  190.4860  177.0530  142.1130 S   0  0  0  0  0  0  0  0  0  0  0  0
  188.0650  177.4140  143.4320 C   0  0  0  0  0  0  0  0  0  0  0  0
  189.2750  176.5530  140.9830 N   0  0  1  0  0  0  0  0  0  0  0  0
  187.7090  175.3030  134.8790 C   0  0  0  0  0  1  0  0  0  0  0  0
  188.6750  177.3320  138.8470 C   0  0  2  0  0  3  0  0  0  0  0  0
  187.4750  177.5540  142.2260 C   0  0  0  0  0  3  0  0  0  0  0  0
  189.5740  177.3130  143.6380 C   0  0  0  0  0  2  0  0  0  0  0  0
  188.1750  174.8670  136.2530 C   0  0  2  0  0  3  0  0  0  0  0  0
  190.9780  176.2430  139.0370 C   0  0  0  0  0  0  0  0  0  0  0  0
  186.8460  178.3930  137.4320 S   0  0  2  0  0  0  0  0  0  0  0  0
  187.1960  177.3680  144.6390 C   0  0  0  0  0  1  0  0  0  0  0  0
  187.5110  175.7330  137.3290 C   0  0  0  0  0  2  0  0  0  0  0  0
  191.9410  177.2210  139.3200 C   0  0  0  0  0  3  0  0  0  0  0  0
  192.6000  175.1230  137.6070 C   0  0  0  0  0  3  0  0  0  0  0  0
  193.5660  176.0700  137.9500 C   0  0  0  0  0  3  0  0  0  0  0  0
  189.7020  174.8870  136.3020 C   0  0  0  0  0  2  0  0  0  0  0  0
  187.5610  177.5130  139.7460 N   0  0  1  0  0  0  0  0  0  0  0  0
  188.1330  177.1260  137.4530 C   0  0  2  0  0  3  0  0  0  0  0  0
  188.3050  177.6440  140.9840 C   0  0  2  0  0  3  0  0  0  0  0  0
  185.5050  178.8070  139.7630 C   0  0  0  0  0  1  0  0  0  0  0  0
  189.5600  176.3400  139.5480 C   0  0  1  0  0  3  0  0  0  0  0  0
  1 16  1  0  0  0  0
  3 17  2  0  0  0  0
  4 20  1  0  0  0  0
  5 24  1  0  0  0  0
  5 27  1  1  0  0  0
  6  1  1  0  0  0  0
  7  8  2  0  0  0  0
  8  2  2  0  0  0  0
  8 14  1  0  0  0  0
  9 14  1  0  0  0  0
  9 18  1  0  0  0  0
 10 26  1  0  0  0  0
 10  8  1  1  0  0  0
 11 15  1  0  0  0  0
 12 28  1  0  0  0  0
 12 24  1  0  0  0  0
 13  9  2  0  0  0  0
 15 23  1  0  0  0  0
 15 19  1  0  0  0  0
 16 20  2  0  0  0  0
 16 28  1  0  0  0  0
 17 25  1  0  0  0  0
 17  5  1  0  0  0  0
 19 25  1  0  0  0  0
 21 22  1  0  0  0  0
 21  1  2  0  0  0  0
 22  4  2  0  0  0  0
 23  6  1  0  0  0  0
 24 26  1  0  0  0  0
 25 12  1  0  0  0  0
 26 13  1  0  0  0  0
 28 10  1  0  0  0  0
M  END
>  <MODEL>
7

>  <REMARK>
 VINA RESULT:      -4.9      5.054      7.063
  Name = 
  0 active torsions:
  status: ('A' for Active; 'I' for Inactive)
                            x       y       z     vdW  Elec       q    Type
                         _______ _______ _______ _____ _____    ______ ____

>  <TORSDO>
F 0

$$$$
=
 OpenBabel11122411523D

 28 32  0  0  1  0  0  0  0  0999 V2000
  186.4540  176.1060  137.1280 C   0  0  0  0  0  0  0  0  0  0  0  0
  185.9410  178.5800  140.5260 O   0  0  0  0  0  0  0  0  0  0  0  0
  181.2370  177.3450  134.6210 O   0  0  0  0  0  0  0  0  0  0  0  0
  187.2260  178.7600  136.6920 C   0  0  0  0  0  3  0  0  0  0  0  0
  180.8790  177.3530  137.2180 C   0  0  2  0  0  3  0  0  0  0  0  0
  185.9840  174.6840  137.1540 C   0  0  0  0  0  2  0  0  0  0  0  0
  184.5430  180.0190  139.0810 O   0  0  0  0  0  0  0  0  0  0  0  0
  184.5450  178.8780  140.0590 S   0  0  0  0  0  0  0  0  0  0  0  0
  182.1240  178.6370  141.4050 C   0  0  0  0  0  0  0  0  0  0  0  0
  183.7990  177.4630  139.3990 N   0  0  1  0  0  0  0  0  0  0  0  0
  183.5070  173.1930  134.6090 C   0  0  0  0  0  1  0  0  0  0  0  0
  183.0950  176.9050  137.2270 C   0  0  2  0  0  3  0  0  0  0  0  0
  181.6410  177.9730  140.3340 C   0  0  0  0  0  3  0  0  0  0  0  0
  183.4880  179.3200  141.4420 C   0  0  0  0  0  2  0  0  0  0  0  0
  184.0010  173.6400  135.9700 C   0  0  2  0  0  3  0  0  0  0  0  0
  185.6150  177.1570  137.5590 C   0  0  0  0  0  0  0  0  0  0  0  0
  181.1120  176.3220  135.7420 S   0  0  2  0  0  0  0  0  0  0  0  0
  181.2710  178.7240  142.6210 C   0  0  0  0  0  1  0  0  0  0  0  0
  182.9240  174.4810  136.6650 C   0  0  0  0  0  2  0  0  0  0  0  0
  185.9960  178.4780  137.2880 C   0  0  0  0  0  3  0  0  0  0  0  0
  187.6850  176.3940  136.5280 C   0  0  0  0  0  3  0  0  0  0  0  0
  188.0780  177.7180  136.3240 C   0  0  0  0  0  3  0  0  0  0  0  0
  185.3390  174.3590  135.8130 C   0  0  0  0  0  2  0  0  0  0  0  0
  181.9480  176.9300  138.1030 N   0  0  1  0  0  0  0  0  0  0  0  0
  182.8280  175.9090  136.1230 C   0  0  2  0  0  3  0  0  0  0  0  0
  182.4410  177.8900  139.0710 C   0  0  2  0  0  3  0  0  0  0  0  0
  179.5350  177.0360  137.8420 C   0  0  0  0  0  1  0  0  0  0  0  0
  184.2710  176.8160  138.1580 C   0  0  1  0  0  3  0  0  0  0  0  0
  1  6  1  0  0  0  0
  1 16  1  0  0  0  0
  3 17  2  0  0  0  0
  4 20  1  0  0  0  0
  5 27  1  1  0  0  0
  5 24  1  0  0  0  0
  7  8  2  0  0  0  0
  8  2  2  0  0  0  0
  8 14  1  0  0  0  0
  9 14  1  0  0  0  0
  9 18  1  0  0  0  0
 10  8  1  6  0  0  0
 11 15  1  0  0  0  0
 12 24  1  0  0  0  0
 12 28  1  0  0  0  0
 13  9  2  0  0  0  0
 15 19  1  0  0  0  0
 16 28  1  0  0  0  0
 17 25  1  0  0  0  0
 17  5  1  0  0  0  0
 20 16  2  0  0  0  0
 21  1  2  0  0  0  0
 22 21  1  0  0  0  0
 22  4  2  0  0  0  0
 23 15  1  0  0  0  0
 23  6  1  0  0  0  0
 24 26  1  0  0  0  0
 25 19  1  0  0  0  0
 25 12  1  0  0  0  0
 26 10  1  0  0  0  0
 26 13  1  0  0  0  0
 28 10  1  0  0  0  0
M  END
>  <MODEL>
8

>  <REMARK>
 VINA RESULT:      -4.9      2.781      4.256
  Name = 
  0 active torsions:
  status: ('A' for Active; 'I' for Inactive)
                            x       y       z     vdW  Elec       q    Type
                         _______ _______ _______ _____ _____    ______ ____

>  <TORSDO>
F 0

$$$$
=
 OpenBabel11122411523D

 28 32  0  0  1  0  0  0  0  0999 V2000
  188.8980  177.9840  137.1590 C   0  0  0  0  0  0  0  0  0  0  0  0
  192.9150  176.6600  137.3760 O   0  0  0  0  0  0  0  0  0  0  0  0
  186.4370  172.6010  137.0810 O   0  0  0  0  0  0  0  0  0  0  0  0
  189.7600  177.4860  139.7740 C   0  0  0  0  0  3  0  0  0  0  0  0
  188.7040  172.4440  135.7740 C   0  0  2  0  0  3  0  0  0  0  0  0
  188.2440  178.1860  135.8270 C   0  0  0  0  0  2  0  0  0  0  0  0
  192.0400  174.6830  138.5770 O   0  0  0  0  0  0  0  0  0  0  0  0
  192.4240  175.2470  137.2370 S   0  0  0  0  0  0  0  0  0  0  0  0
  193.1680  173.2680  135.4320 C   0  0  0  0  0  0  0  0  0  0  0  0
  191.1200  175.1550  136.1030 N   0  0  1  0  0  0  0  0  0  0  0  0
  184.9750  176.4530  134.7540 C   0  0  0  0  0  1  0  0  0  0  0  0
  188.8410  174.6280  136.3410 C   0  0  2  0  0  3  0  0  0  0  0  0
  191.8580  173.0560  135.1850 C   0  0  0  0  0  3  0  0  0  0  0  0
  193.6930  174.1950  136.5250 C   0  0  0  0  0  2  0  0  0  0  0  0
  186.4520  176.7880  134.7040 C   0  0  2  0  0  3  0  0  0  0  0  0
  189.6110  176.7990  137.4450 C   0  0  0  0  0  0  0  0  0  0  0  0
  186.9790  173.0090  135.7170 S   0  0  2  0  0  0  0  0  0  0  0  0
  194.1660  172.5440  134.5990 C   0  0  0  0  0  1  0  0  0  0  0  0
  187.2760  175.4990  134.6070 C   0  0  0  0  0  2  0  0  0  0  0  0
  189.9920  176.5450  138.7700 C   0  0  0  0  0  3  0  0  0  0  0  0
  188.6660  178.9230  138.1700 C   0  0  0  0  0  3  0  0  0  0  0  0
  189.1090  178.6830  139.4710 C   0  0  0  0  0  3  0  0  0  0  0  0
  186.8150  177.6630  135.9020 C   0  0  0  0  0  2  0  0  0  0  0  0
  189.4670  173.6450  135.4890 N   0  0  1  0  0  0  0  0  0  0  0  0
  187.3910  174.7540  135.9380 C   0  0  2  0  0  3  0  0  0  0  0  0
  190.8130  173.7290  136.0200 C   0  0  2  0  0  3  0  0  0  0  0  0
  188.9300  171.4180  134.6810 C   0  0  0  0  0  1  0  0  0  0  0  0
  189.8040  175.7820  136.3450 C   0  0  1  0  0  3  0  0  0  0  0  0
  1 16  2  0  0  0  0
  1 21  1  0  0  0  0
  5 27  1  6  0  0  0
  6 23  1  0  0  0  0
  6  1  1  0  0  0  0
  8  2  2  0  0  0  0
  8  7  2  0  0  0  0
  9 14  1  0  0  0  0
 10 28  1  0  0  0  0
 10  8  1  1  0  0  0
 12 28  1  0  0  0  0
 13  9  2  0  0  0  0
 13 26  1  0  0  0  0
 14  8  1  0  0  0  0
 15 11  1  0  0  0  0
 15 23  1  0  0  0  0
 16 20  1  0  0  0  0
 17  5  1  0  0  0  0
 17 25  1  0  0  0  0
 17  3  2  0  0  0  0
 18  9  1  0  0  0  0
 19 15  1  0  0  0  0
 19 25  1  0  0  0  0
 20  4  2  0  0  0  0
 21 22  2  0  0  0  0
 22  4  1  0  0  0  0
 24  5  1  0  0  0  0
 24 26  1  0  0  0  0
 24 12  1  0  0  0  0
 25 12  1  0  0  0  0
 26 10  1  0  0  0  0
 28 16  1  0  0  0  0
M  END
>  <MODEL>
9

>  <REMARK>
 VINA RESULT:      -4.9      7.342      9.811
  Name = 
  0 active torsions:
  status: ('A' for Active; 'I' for Inactive)
                            x       y       z     vdW  Elec       q    Type
                         _______ _______ _______ _____ _____    ______ ____

>  <TORSDO>
F 0

$$$$
