=
 OpenBabel11122410353D

 32 38  0  0  1  0  0  0  0  0999 V2000
  181.4490  178.2170  138.2610 C   0  0  1  0  0  3  0  0  0  0  0  0
  184.8930  179.0730  142.1210 C   0  0  1  0  0  3  0  0  0  0  0  0
  188.8490  177.6480  139.5650 C   0  0  0  0  0  3  0  0  0  0  0  0
  189.4710  177.2420  140.7420 C   0  0  0  0  0  3  0  0  0  0  0  0
  185.0730  178.9580  144.5590 C   0  0  0  0  0  0  0  0  0  0  0  0
  185.7510  178.5830  145.7120 C   0  0  0  0  0  0  0  0  0  0  0  0
  182.8530  178.6570  140.8160 N   0  0  1  0  0  0  0  0  0  0  0  0
  184.9250  179.2650  139.5990 C   0  0  0  0  0  2  0  0  0  0  0  0
  187.3350  177.7700  147.0180 C   0  0  0  0  0  0  0  0  0  0  0  0
  182.8470  178.8210  138.3030 C   0  0  2  0  0  3  0  0  0  0  0  0
  187.5780  178.2200  139.6140 C   0  0  0  0  0  3  0  0  0  0  0  0
  185.6790  178.9390  140.8530 C   0  0  0  0  0  0  0  0  0  0  0  0
  186.9060  178.3960  140.8370 C   0  0  0  0  0  0  0  0  0  0  0  0
  186.9240  178.1450  143.2440 C   0  0  0  0  0  0  0  0  0  0  0  0
  186.3740  178.2080  147.7680 N   0  0  0  0  0  0  0  0  0  0  0  0
  181.1330  177.3410  139.4850 C   0  0  0  0  0  2  0  0  0  0  0  0
  183.6320  178.4460  139.5740 C   0  0  2  0  0  3  0  0  0  0  0  0
  185.3620  178.7270  146.9370 N   0  0  0  0  0  2  0  0  0  0  0  0
  181.6100  177.8710  140.8490 C   0  0  0  0  0  2  0  0  0  0  0  0
  181.6250  179.6940  138.5760 C   0  0  1  0  0  3  0  0  0  0  0  0
  188.8220  177.4090  141.9650 C   0  0  0  0  0  3  0  0  0  0  0  0
  187.5340  177.9830  142.0410 C   0  0  0  0  0  0  0  0  0  0  0  0
  187.6030  177.7650  144.4300 C   0  0  0  0  0  2  0  0  0  0  0  0
  183.6390  178.2090  141.9680 C   0  0  0  0  0  2  0  0  0  0  0  0
  183.9440  179.5160  144.6470 O   0  0  0  0  0  0  0  0  0  0  0  0
  188.5860  177.1520  147.5320 C   0  0  0  0  0  1  0  0  0  0  0  0
  185.6540  178.7080  143.3310 N   0  0  0  0  0  0  0  0  0  0  0  0
  186.9690  177.9950  145.6370 C   0  0  0  0  0  0  0  0  0  0  0  0
  181.3350  180.4480  137.4380 O   0  0  0  0  0  0  0  0  0  0  0  0
  180.5150  181.4830  137.8930 C   0  0  0  0  0  3  0  0  0  0  0  0
  181.1740  182.8160  137.6040 C   0  0  0  0  0  1  0  0  0  0  0  0
  180.3030  181.3440  139.3870 C   0  0  0  0  0  1  0  0  0  0  0  0
  1 10  1  0  0  0  0
  1 20  1  0  0  0  0
  1 16  1  1  0  0  0
  2 24  1  6  0  0  0
  2 27  1  0  0  0  0
  3 11  2  0  0  0  0
  3  4  1  0  0  0  0
  4 21  2  0  0  0  0
  5 25  2  0  0  0  0
  5  6  1  0  0  0  0
  6 18  1  0  0  0  0
  7 19  1  6  0  0  0
  7 24  1  0  0  0  0
  8 12  1  0  0  0  0
  9 26  1  0  0  0  0
  9 15  2  0  0  0  0
 10 20  1  0  0  0  0
 10 17  1  0  0  0  0
 11 13  1  0  0  0  0
 12  2  1  0  0  0  0
 13 12  2  0  0  0  0
 13 22  1  0  0  0  0
 14 27  1  0  0  0  0
 14 23  1  0  0  0  0
 16 19  1  0  0  0  0
 17  8  1  0  0  0  0
 17  7  1  0  0  0  0
 18 15  1  0  0  0  0
 21 22  1  0  0  0  0
 22 14  2  0  0  0  0
 23 28  1  0  0  0  0
 27  5  1  0  0  0  0
 28  6  2  0  0  0  0
 28  9  1  0  0  0  0
 29 30  1  0  0  0  0
 29 20  1  0  0  0  0
 30 32  1  0  0  0  0
 31 30  1  0  0  0  0
M  END
>  <MODEL>
1

>  <REMARK>
 VINA RESULT:      -9.5      0.000      0.000
  Name = 
  2 active torsions:
  status: ('A' for Active; 'I' for Inactive)
    1  A    between atoms: C_20  and  O_29
    2  A    between atoms: O_29  and  C_30
                            x       y       z     vdW  Elec       q    Type
                         _______ _______ _______ _____ _____    ______ ____

>  <TORSDO>
F 2

$$$$
=
 OpenBabel11122410353D

 32 38  0  0  1  0  0  0  0  0999 V2000
  193.1720  174.8770  137.2360 C   0  0  1  0  0  3  0  0  0  0  0  0
  189.6590  177.8160  139.7890 C   0  0  1  0  0  3  0  0  0  0  0  0
  191.5090  176.9960  144.2740 C   0  0  0  0  0  3  0  0  0  0  0  0
  190.2440  177.1560  144.8320 C   0  0  0  0  0  3  0  0  0  0  0  0
  187.3020  178.4680  139.6860 C   0  0  0  0  0  0  0  0  0  0  0  0
  186.0670  178.6660  140.2920 C   0  0  0  0  0  0  0  0  0  0  0  0
  190.8360  176.4410  138.1280 N   0  0  1  0  0  0  0  0  0  0  0  0
  192.1120  177.2750  140.0830 C   0  0  0  0  0  2  0  0  0  0  0  0
  184.5210  178.7870  141.8630 C   0  0  0  0  0  0  0  0  0  0  0  0
  193.2740  175.8650  138.3920 C   0  0  2  0  0  3  0  0  0  0  0  0
  191.6830  177.1400  142.8990 C   0  0  0  0  0  3  0  0  0  0  0  0
  190.7950  177.5700  140.7340 C   0  0  0  0  0  0  0  0  0  0  0  0
  190.5990  177.4470  142.0560 C   0  0  0  0  0  0  0  0  0  0  0  0
  188.2350  177.9170  141.8410 C   0  0  0  0  0  0  0  0  0  0  0  0
  183.9770  179.1080  140.7320 N   0  0  0  0  0  0  0  0  0  0  0  0
  191.7470  174.3380  137.0280 C   0  0  0  0  0  2  0  0  0  0  0  0
  191.9230  176.1290  139.0850 C   0  0  2  0  0  3  0  0  0  0  0  0
  184.9620  179.0310  139.7280 N   0  0  0  0  0  0  0  0  0  0  0  0
  190.6010  175.3570  137.1620 C   0  0  0  0  0  2  0  0  0  0  0  0
  193.3270  176.3630  136.9500 C   0  0  1  0  0  3  0  0  0  0  0  0
  189.1570  177.4600  144.0140 C   0  0  0  0  0  3  0  0  0  0  0  0
  189.3060  177.6110  142.6180 C   0  0  0  0  0  0  0  0  0  0  0  0
  186.9680  178.1200  142.4440 C   0  0  0  0  0  3  0  0  0  0  0  0
  189.5760  176.6050  138.8570 C   0  0  0  0  0  2  0  0  0  0  0  0
  187.4300  178.6550  138.4450 O   0  0  0  0  0  0  0  0  0  0  0  0
  183.7980  178.7560  143.1620 C   0  0  0  0  0  1  0  0  0  0  0  0
  188.3710  178.0650  140.4630 N   0  0  0  0  0  0  0  0  0  0  0  0
  185.9150  178.4830  141.6260 C   0  0  0  0  0  0  0  0  0  0  0  0
  194.6530  176.6310  136.6050 O   0  0  0  0  0  0  0  0  0  0  0  0
  194.6470  176.7390  135.2130 C   0  0  0  0  0  3  0  0  0  0  0  0
  195.1080  175.4330  134.6010 C   0  0  0  0  0  1  0  0  0  0  0  0
  195.5850  177.8510  134.7870 C   0  0  0  0  0  1  0  0  0  0  0  0
  1 16  1  6  0  0  0
  1 10  1  0  0  0  0
  2 24  1  6  0  0  0
  2 27  1  0  0  0  0
  2 12  1  0  0  0  0
  3  4  1  0  0  0  0
  5  6  1  0  0  0  0
  5 27  1  0  0  0  0
  6 28  1  0  0  0  0
  7 19  1  6  0  0  0
  7 24  1  0  0  0  0
  7 17  1  0  0  0  0
  8 12  1  0  0  0  0
  9 26  1  0  0  0  0
 10 17  1  0  0  0  0
 11  3  2  0  0  0  0
 12 13  2  0  0  0  0
 13 22  1  0  0  0  0
 13 11  1  0  0  0  0
 14 23  1  0  0  0  0
 14 22  2  0  0  0  0
 15  9  2  0  0  0  0
 16 19  1  0  0  0  0
 17  8  1  0  0  0  0
 18  6  2  0  0  0  0
 18 15  1  0  0  0  0
 20  1  1  0  0  0  0
 20 10  1  0  0  0  0
 21  4  2  0  0  0  0
 22 21  1  0  0  0  0
 25  5  2  0  0  0  0
 27 14  1  0  0  0  0
 28  9  1  0  0  0  0
 28 23  2  0  0  0  0
 29 20  1  0  0  0  0
 30 29  1  0  0  0  0
 31 30  1  0  0  0  0
 32 30  1  0  0  0  0
M  END
>  <MODEL>
2

>  <REMARK>
 VINA RESULT:      -9.1      4.631      8.558
  Name = 
  2 active torsions:
  status: ('A' for Active; 'I' for Inactive)
    1  A    between atoms: C_20  and  O_29
    2  A    between atoms: O_29  and  C_30
                            x       y       z     vdW  Elec       q    Type
                         _______ _______ _______ _____ _____    ______ ____

>  <TORSDO>
F 2

$$$$
=
 OpenBabel11122410353D

 32 38  0  0  1  0  0  0  0  0999 V2000
  182.0660  176.6960  136.7720 C   0  0  1  0  0  3  0  0  0  0  0  0
  184.3720  178.6480  141.0570 C   0  0  1  0  0  3  0  0  0  0  0  0
  188.9830  177.9330  139.4950 C   0  0  0  0  0  3  0  0  0  0  0  0
  189.4130  177.7850  140.8100 C   0  0  0  0  0  3  0  0  0  0  0  0
  184.0540  178.7940  143.4800 C   0  0  0  0  0  0  0  0  0  0  0  0
  184.5360  178.6860  144.7790 C   0  0  0  0  0  0  0  0  0  0  0  0
  182.7810  177.6670  139.4620 N   0  0  1  0  0  0  0  0  0  0  0  0
  184.8950  178.6170  138.5830 C   0  0  0  0  0  2  0  0  0  0  0  0
  185.9400  178.3710  146.4530 C   0  0  0  0  0  0  0  0  0  0  0  0
  183.2710  177.6020  136.9930 C   0  0  2  0  0  3  0  0  0  0  0  0
  187.6410  178.2040  139.2300 C   0  0  0  0  0  3  0  0  0  0  0  0
  185.4180  178.5830  139.9870 C   0  0  0  0  0  0  0  0  0  0  0  0
  186.7050  178.3320  140.2730 C   0  0  0  0  0  0  0  0  0  0  0  0
  186.2660  178.3070  142.6520 C   0  0  0  0  0  0  0  0  0  0  0  0
  184.7750  178.6460  146.9460 N   0  0  0  0  0  0  0  0  0  0  0  0
  181.6850  175.8840  138.0210 C   0  0  0  0  0  2  0  0  0  0  0  0
  183.8300  177.5280  138.4270 C   0  0  2  0  0  3  0  0  0  0  0  0
  183.8770  178.8470  145.8800 N   0  0  0  0  0  2  0  0  0  0  0  0
  181.7460  176.6270  139.3670 C   0  0  0  0  0  2  0  0  0  0  0  0
  181.8670  178.1970  136.9160 C   0  0  1  0  0  3  0  0  0  0  0  0
  188.5000  177.9080  141.8580 C   0  0  0  0  0  3  0  0  0  0  0  0
  187.1360  178.1810  141.6170 C   0  0  0  0  0  0  0  0  0  0  0  0
  186.7430  178.1970  143.9840 C   0  0  0  0  0  2  0  0  0  0  0  0
  183.3810  177.5130  140.7900 C   0  0  0  0  0  2  0  0  0  0  0  0
  182.8430  179.0880  143.2810 O   0  0  0  0  0  0  0  0  0  0  0  0
  187.1540  178.1000  147.2680 C   0  0  0  0  0  1  0  0  0  0  0  0
  184.9190  178.5740  142.4250 N   0  0  0  0  0  0  0  0  0  0  0  0
  185.8360  178.3840  145.0100 C   0  0  0  0  0  0  0  0  0  0  0  0
  181.6760  178.7610  135.6540 O   0  0  0  0  0  0  0  0  0  0  0  0
  180.9390  179.9240  135.8890 C   0  0  0  0  0  3  0  0  0  0  0  0
  180.9070  180.2130  137.3760 C   0  0  0  0  0  1  0  0  0  0  0  0
  179.5220  179.7370  135.3850 C   0  0  0  0  0  1  0  0  0  0  0  0
  1 20  1  0  0  0  0
  1 10  1  0  0  0  0
  1 16  1  1  0  0  0
  2 24  1  6  0  0  0
  2 27  1  0  0  0  0
  3  4  1  0  0  0  0
  4 21  2  0  0  0  0
  5  6  1  0  0  0  0
  6 28  2  0  0  0  0
  6 18  1  0  0  0  0
  7 19  1  6  0  0  0
  7 24  1  0  0  0  0
  8 12  1  0  0  0  0
  9 15  2  0  0  0  0
  9 26  1  0  0  0  0
 10 17  1  0  0  0  0
 11  3  2  0  0  0  0
 11 13  1  0  0  0  0
 12 13  2  0  0  0  0
 12  2  1  0  0  0  0
 13 22  1  0  0  0  0
 14 23  1  0  0  0  0
 16 19  1  0  0  0  0
 17  8  1  0  0  0  0
 17  7  1  0  0  0  0
 18 15  1  0  0  0  0
 20 10  1  0  0  0  0
 22 21  1  0  0  0  0
 22 14  2  0  0  0  0
 23 28  1  0  0  0  0
 25  5  2  0  0  0  0
 27 14  1  0  0  0  0
 27  5  1  0  0  0  0
 28  9  1  0  0  0  0
 29 30  1  0  0  0  0
 29 20  1  0  0  0  0
 30 31  1  0  0  0  0
 32 30  1  0  0  0  0
M  END
>  <MODEL>
3

>  <REMARK>
 VINA RESULT:      -8.9      1.448      1.755
  Name = 
  2 active torsions:
  status: ('A' for Active; 'I' for Inactive)
    1  A    between atoms: C_20  and  O_29
    2  A    between atoms: O_29  and  C_30
                            x       y       z     vdW  Elec       q    Type
                         _______ _______ _______ _____ _____    ______ ____

>  <TORSDO>
F 2

$$$$
=
 OpenBabel11122410353D

 32 38  0  0  1  0  0  0  0  0999 V2000
  192.1620  175.0140  137.5830 C   0  0  1  0  0  3  0  0  0  0  0  0
  188.3880  178.0010  139.6650 C   0  0  1  0  0  3  0  0  0  0  0  0
  189.7620  177.3290  144.3420 C   0  0  0  0  0  3  0  0  0  0  0  0
  188.4460  177.4960  144.7600 C   0  0  0  0  0  3  0  0  0  0  0  0
  186.0520  178.6320  139.2970 C   0  0  0  0  0  0  0  0  0  0  0  0
  184.7600  178.8390  139.7640 C   0  0  0  0  0  0  0  0  0  0  0  0
  189.7390  176.5860  138.1780 N   0  0  1  0  0  0  0  0  0  0  0  0
  190.7990  177.4870  140.2290 C   0  0  0  0  0  2  0  0  0  0  0  0
  183.0570  178.9940  141.1610 C   0  0  0  0  0  0  0  0  0  0  0  0
  192.1380  176.0370  138.7130 C   0  0  2  0  0  3  0  0  0  0  0  0
  190.0790  177.4340  142.9880 C   0  0  0  0  0  3  0  0  0  0  0  0
  189.4200  177.7920  140.7300 C   0  0  0  0  0  0  0  0  0  0  0  0
  189.0880  177.7070  142.0280 C   0  0  0  0  0  0  0  0  0  0  0  0
  186.7570  178.1520  141.5530 C   0  0  0  0  0  0  0  0  0  0  0  0
  182.6330  179.2770  139.9700 N   0  0  0  0  0  0  0  0  0  0  0  0
  190.7680  174.4580  137.2440 C   0  0  0  0  0  2  0  0  0  0  0  0
  190.7210  176.3120  139.2530 C   0  0  2  0  0  3  0  0  0  0  0  0
  183.7180  179.1780  139.0780 N   0  0  0  0  0  0  0  0  0  0  0  0
  189.6110  175.4720  137.2270 C   0  0  0  0  0  2  0  0  0  0  0  0
  192.3390  176.4920  137.2700 C   0  0  1  0  0  3  0  0  0  0  0  0
  187.4490  177.7670  143.8230 C   0  0  0  0  0  3  0  0  0  0  0  0
  187.7420  177.8770  142.4470 C   0  0  0  0  0  0  0  0  0  0  0  0
  185.4330  178.3640  142.0150 C   0  0  0  0  0  3  0  0  0  0  0  0
  188.4080  176.7620  138.7670 C   0  0  0  0  0  2  0  0  0  0  0  0
  186.3080  178.7830  138.0710 O   0  0  0  0  0  0  0  0  0  0  0  0
  182.2030  178.9960  142.3790 C   0  0  0  0  0  1  0  0  0  0  0  0
  187.0360  178.2610  140.1940 N   0  0  0  0  0  0  0  0  0  0  0  0
  184.4690  178.6940  141.0800 C   0  0  0  0  0  0  0  0  0  0  0  0
  193.6920  176.7600  137.0570 O   0  0  0  0  0  0  0  0  0  0  0  0
  194.0630  175.9220  136.0040 C   0  0  0  0  0  3  0  0  0  0  0  0
  195.3090  175.1490  136.3850 C   0  0  0  0  0  1  0  0  0  0  0  0
  194.3480  176.7540  134.7690 C   0  0  0  0  0  1  0  0  0  0  0  0
  1 16  1  6  0  0  0
  1 10  1  0  0  0  0
  2 24  1  6  0  0  0
  2 27  1  0  0  0  0
  2 12  1  0  0  0  0
  3  4  1  0  0  0  0
  5  6  1  0  0  0  0
  5 27  1  0  0  0  0
  6 28  1  0  0  0  0
  7 19  1  6  0  0  0
  7 24  1  0  0  0  0
  7 17  1  0  0  0  0
  8 12  1  0  0  0  0
  9 26  1  0  0  0  0
 10 17  1  0  0  0  0
 11  3  2  0  0  0  0
 12 13  2  0  0  0  0
 13 22  1  0  0  0  0
 13 11  1  0  0  0  0
 14 23  1  0  0  0  0
 14 22  2  0  0  0  0
 15  9  2  0  0  0  0
 17  8  1  0  0  0  0
 18  6  2  0  0  0  0
 18 15  1  0  0  0  0
 19 16  1  0  0  0  0
 20  1  1  0  0  0  0
 20 10  1  0  0  0  0
 21  4  2  0  0  0  0
 22 21  1  0  0  0  0
 25  5  2  0  0  0  0
 27 14  1  0  0  0  0
 28  9  1  0  0  0  0
 28 23  2  0  0  0  0
 29 20  1  0  0  0  0
 30 31  1  0  0  0  0
 30 29  1  0  0  0  0
 32 30  1  0  0  0  0
M  END
>  <MODEL>
4

>  <REMARK>
 VINA RESULT:      -8.3      4.024      8.189
  Name = 
  2 active torsions:
  status: ('A' for Active; 'I' for Inactive)
    1  A    between atoms: C_20  and  O_29
    2  A    between atoms: O_29  and  C_30
                            x       y       z     vdW  Elec       q    Type
                         _______ _______ _______ _____ _____    ______ ____

>  <TORSDO>
F 2

$$$$
=
 OpenBabel11122410353D

 32 38  0  0  1  0  0  0  0  0999 V2000
  187.7690  178.7610  137.2160 C   0  0  1  0  0  3  0  0  0  0  0  0
  187.6460  177.2700  142.2410 C   0  0  1  0  0  3  0  0  0  0  0  0
  183.2800  179.3060  143.2440 C   0  0  0  0  0  3  0  0  0  0  0  0
  183.6630  179.4900  144.5690 C   0  0  0  0  0  3  0  0  0  0  0  0
  189.1400  176.9040  144.1460 C   0  0  0  0  0  0  0  0  0  0  0  0
  189.4610  177.0640  145.4880 C   0  0  0  0  0  0  0  0  0  0  0  0
  188.3520  177.8680  139.9650 N   0  0  1  0  0  0  0  0  0  0  0  0
  185.9300  177.5850  140.4110 C   0  0  0  0  0  2  0  0  0  0  0  0
  189.2870  177.6540  147.6080 C   0  0  0  0  0  0  0  0  0  0  0  0
  186.6730  178.2080  138.1180 C   0  0  2  0  0  3  0  0  0  0  0  0
  184.1550  178.6940  142.3480 C   0  0  0  0  0  3  0  0  0  0  0  0
  186.2540  177.6790  141.8710 C   0  0  0  0  0  0  0  0  0  0  0  0
  185.4280  178.2560  142.7580 C   0  0  0  0  0  0  0  0  0  0  0  0
  187.0410  178.0230  144.5460 C   0  0  0  0  0  0  0  0  0  0  0  0
  190.4180  177.0440  147.4470 N   0  0  0  0  0  0  0  0  0  0  0  0
  188.9470  179.3650  137.9990 C   0  0  0  0  0  2  0  0  0  0  0  0
  186.9940  178.3480  139.6180 C   0  0  2  0  0  3  0  0  0  0  0  0
  190.5310  176.6670  146.0950 N   0  0  0  0  0  0  0  0  0  0  0  0
  189.4110  178.5900  139.2450 C   0  0  0  0  0  2  0  0  0  0  0  0
  187.6130  177.2570  137.3800 C   0  0  1  0  0  3  0  0  0  0  0  0
  184.9200  179.0620  144.9950 C   0  0  0  0  0  3  0  0  0  0  0  0
  185.8260  178.4410  144.1080 C   0  0  0  0  0  0  0  0  0  0  0  0
  187.3850  178.1830  145.9130 C   0  0  0  0  0  3  0  0  0  0  0  0
  188.6050  178.1050  141.3890 C   0  0  0  0  0  2  0  0  0  0  0  0
  189.9380  176.3020  143.3760 O   0  0  0  0  0  0  0  0  0  0  0  0
  188.8050  178.1990  148.9050 C   0  0  0  0  0  1  0  0  0  0  0  0
  187.9420  177.4120  143.6790 N   0  0  0  0  0  0  0  0  0  0  0  0
  188.6090  177.6960  146.3310 C   0  0  0  0  0  0  0  0  0  0  0  0
  186.9560  176.7350  136.2650 O   0  0  0  0  0  0  0  0  0  0  0  0
  187.3080  175.3850  136.2410 C   0  0  0  0  0  3  0  0  0  0  0  0
  186.2560  174.5730  136.9690 C   0  0  0  0  0  1  0  0  0  0  0  0
  188.6470  175.1960  136.9260 C   0  0  0  0  0  1  0  0  0  0  0  0
  1 20  1  0  0  0  0
  1 16  1  1  0  0  0
  1 10  1  0  0  0  0
  2 24  1  6  0  0  0
  2 27  1  0  0  0  0
  3  4  1  0  0  0  0
  4 21  2  0  0  0  0
  5  6  1  0  0  0  0
  6 18  2  0  0  0  0
  6 28  1  0  0  0  0
  7 19  1  6  0  0  0
  7 24  1  0  0  0  0
  8 12  1  0  0  0  0
  9 26  1  0  0  0  0
 10 17  1  0  0  0  0
 11 13  1  0  0  0  0
 11  3  2  0  0  0  0
 12  2  1  0  0  0  0
 12 13  2  0  0  0  0
 13 22  1  0  0  0  0
 14 23  1  0  0  0  0
 15  9  2  0  0  0  0
 16 19  1  0  0  0  0
 17  7  1  0  0  0  0
 17  8  1  0  0  0  0
 18 15  1  0  0  0  0
 20 10  1  0  0  0  0
 22 14  2  0  0  0  0
 22 21  1  0  0  0  0
 23 28  2  0  0  0  0
 25  5  2  0  0  0  0
 27  5  1  0  0  0  0
 27 14  1  0  0  0  0
 28  9  1  0  0  0  0
 29 20  1  0  0  0  0
 30 29  1  0  0  0  0
 30 32  1  0  0  0  0
 30 31  1  0  0  0  0
M  END
>  <MODEL>
5

>  <REMARK>
 VINA RESULT:      -8.1      3.554      5.518
  Name = 
  2 active torsions:
  status: ('A' for Active; 'I' for Inactive)
    1  A    between atoms: C_20  and  O_29
    2  A    between atoms: O_29  and  C_30
                            x       y       z     vdW  Elec       q    Type
                         _______ _______ _______ _____ _____    ______ ____

>  <TORSDO>
F 2

$$$$
=
 OpenBabel11122410353D

 32 38  0  0  1  0  0  0  0  0999 V2000
  181.5720  179.9210  139.2880 C   0  0  1  0  0  3  0  0  0  0  0  0
  185.7960  177.8620  141.6150 C   0  0  1  0  0  3  0  0  0  0  0  0
  184.2370  178.6300  146.2180 C   0  0  0  0  0  3  0  0  0  0  0  0
  185.5530  178.7450  146.6520 C   0  0  0  0  0  3  0  0  0  0  0  0
  188.2150  177.6510  141.3060 C   0  0  0  0  0  0  0  0  0  0  0  0
  189.5140  177.7260  141.7920 C   0  0  0  0  0  0  0  0  0  0  0  0
  184.2330  178.8800  140.0150 N   0  0  1  0  0  0  0  0  0  0  0  0
  183.3210  177.9600  142.1290 C   0  0  0  0  0  2  0  0  0  0  0  0
  191.1910  178.0000  143.2020 C   0  0  0  0  0  0  0  0  0  0  0  0
  181.7650  179.0130  140.4960 C   0  0  2  0  0  3  0  0  0  0  0  0
  183.9690  178.3630  144.8760 C   0  0  0  0  0  3  0  0  0  0  0  0
  184.7240  177.9580  142.6570 C   0  0  0  0  0  0  0  0  0  0  0  0
  185.0110  178.2050  143.9440 C   0  0  0  0  0  0  0  0  0  0  0  0
  187.3920  178.1660  143.5140 C   0  0  0  0  0  0  0  0  0  0  0  0
  191.6810  177.7090  142.0390 N   0  0  0  0  0  0  0  0  0  0  0  0
  182.8430  180.6990  138.9100 C   0  0  0  0  0  2  0  0  0  0  0  0
  183.1980  179.0500  141.0610 C   0  0  2  0  0  3  0  0  0  0  0  0
  190.6130  177.5340  141.1380 N   0  0  0  0  0  0  0  0  0  0  0  0
  184.1690  179.9200  138.9770 C   0  0  0  0  0  2  0  0  0  0  0  0
  181.6770  178.4160  139.0940 C   0  0  1  0  0  3  0  0  0  0  0  0
  186.6010  178.5910  145.7440 C   0  0  0  0  0  3  0  0  0  0  0  0
  186.3570  178.3210  144.3800 C   0  0  0  0  0  0  0  0  0  0  0  0
  188.7240  178.2420  143.9950 C   0  0  0  0  0  3  0  0  0  0  0  0
  185.5630  179.0010  140.6200 C   0  0  0  0  0  2  0  0  0  0  0  0
  188.0130  177.3590  140.0950 O   0  0  0  0  0  0  0  0  0  0  0  0
  192.0090  178.2530  144.4180 C   0  0  0  0  0  1  0  0  0  0  0  0
  187.1630  177.9010  142.1670 N   0  0  0  0  0  0  0  0  0  0  0  0
  189.7490  178.0250  143.0930 C   0  0  0  0  0  0  0  0  0  0  0  0
  180.4010  177.8850  138.8990 O   0  0  0  0  0  0  0  0  0  0  0  0
  180.6190  176.6190  138.3520 C   0  0  0  0  0  3  0  0  0  0  0  0
  180.6750  175.5890  139.4620 C   0  0  0  0  0  1  0  0  0  0  0  0
  181.9330  176.6120  137.5970 C   0  0  0  0  0  1  0  0  0  0  0  0
  1 16  1  6  0  0  0
  1 10  1  0  0  0  0
  2 24  1  6  0  0  0
  2 27  1  0  0  0  0
  2 12  1  0  0  0  0
  3  4  1  0  0  0  0
  5  6  1  0  0  0  0
  5 27  1  0  0  0  0
  6 28  1  0  0  0  0
  7 19  1  6  0  0  0
  7 24  1  0  0  0  0
  7 17  1  0  0  0  0
  8 12  1  0  0  0  0
  9 26  1  0  0  0  0
 10 17  1  0  0  0  0
 11  3  2  0  0  0  0
 12 13  2  0  0  0  0
 13 22  1  0  0  0  0
 13 11  1  0  0  0  0
 14 23  1  0  0  0  0
 14 22  2  0  0  0  0
 15  9  2  0  0  0  0
 16 19  1  0  0  0  0
 17  8  1  0  0  0  0
 18  6  2  0  0  0  0
 18 15  1  0  0  0  0
 20  1  1  0  0  0  0
 20 10  1  0  0  0  0
 21  4  2  0  0  0  0
 22 21  1  0  0  0  0
 25  5  2  0  0  0  0
 27 14  1  0  0  0  0
 28  9  1  0  0  0  0
 28 23  2  0  0  0  0
 29 20  1  0  0  0  0
 30 29  1  0  0  0  0
 30 31  1  0  0  0  0
 32 30  1  0  0  0  0
M  END
>  <MODEL>
6

>  <REMARK>
 VINA RESULT:      -7.5      2.420      4.608
  Name = 
  2 active torsions:
  status: ('A' for Active; 'I' for Inactive)
    1  A    between atoms: C_20  and  O_29
    2  A    between atoms: O_29  and  C_30
                            x       y       z     vdW  Elec       q    Type
                         _______ _______ _______ _____ _____    ______ ____

>  <TORSDO>
F 2

$$$$
=
 OpenBabel11122410353D

 32 38  0  0  1  0  0  0  0  0999 V2000
  195.1510  173.5070  137.1450 C   0  0  1  0  0  3  0  0  0  0  0  0
  190.9650  176.6600  137.3170 C   0  0  1  0  0  3  0  0  0  0  0  0
  191.1900  177.5020  142.1600 C   0  0  0  0  0  3  0  0  0  0  0  0
  189.8100  177.6770  142.2000 C   0  0  0  0  0  3  0  0  0  0  0  0
  188.7780  176.9650  136.2600 C   0  0  0  0  0  0  0  0  0  0  0  0
  187.4100  177.1950  136.3390 C   0  0  0  0  0  0  0  0  0  0  0  0
  192.6430  174.9840  136.6740 N   0  0  1  0  0  0  0  0  0  0  0  0
  193.1760  176.5300  138.5370 C   0  0  0  0  0  2  0  0  0  0  0  0
  185.4220  177.6160  137.2030 C   0  0  0  0  0  0  0  0  0  0  0  0
  194.8500  174.8100  137.8750 C   0  0  2  0  0  3  0  0  0  0  0  0
  191.8190  177.2300  140.9460 C   0  0  0  0  0  3  0  0  0  0  0  0
  191.7150  176.8560  138.5990 C   0  0  0  0  0  0  0  0  0  0  0  0
  191.0830  177.1290  139.7510 C   0  0  0  0  0  0  0  0  0  0  0  0
  188.9290  177.2260  138.6530 C   0  0  0  0  0  0  0  0  0  0  0  0
  185.2920  177.5020  135.9190 N   0  0  0  0  0  0  0  0  0  0  0  0
  193.8840  172.7660  136.6870 C   0  0  0  0  0  2  0  0  0  0  0  0
  193.3430  175.1170  137.9730 C   0  0  2  0  0  3  0  0  0  0  0  0
  186.5590  177.2330  135.3660 N   0  0  0  0  0  0  0  0  0  0  0  0
  192.7550  173.6330  136.1030 C   0  0  0  0  0  2  0  0  0  0  0  0
  195.3860  174.8370  136.4460 C   0  0  1  0  0  3  0  0  0  0  0  0
  189.0630  177.5810  141.0270 C   0  0  0  0  0  3  0  0  0  0  0  0
  189.6750  177.3060  139.7850 C   0  0  0  0  0  0  0  0  0  0  0  0
  187.5310  177.4560  138.7180 C   0  0  0  0  0  3  0  0  0  0  0  0
  191.2090  175.2180  136.8670 C   0  0  0  0  0  2  0  0  0  0  0  0
  189.3180  176.7700  135.1360 O   0  0  0  0  0  0  0  0  0  0  0  0
  184.3020  177.9060  138.1370 C   0  0  0  0  0  1  0  0  0  0  0  0
  189.5230  176.9530  137.4230 N   0  0  0  0  0  0  0  0  0  0  0  0
  186.8160  177.4190  137.5360 C   0  0  0  0  0  0  0  0  0  0  0  0
  196.7480  175.1390  136.4720 O   0  0  0  0  0  0  0  0  0  0  0  0
  197.0850  175.3920  135.1400 C   0  0  0  0  0  3  0  0  0  0  0  0
  198.5830  175.2520  134.9600 C   0  0  0  0  0  1  0  0  0  0  0  0
  196.6670  176.8020  134.7710 C   0  0  0  0  0  1  0  0  0  0  0  0
  1 16  1  6  0  0  0
  1 10  1  0  0  0  0
  2 24  1  1  0  0  0
  2 27  1  0  0  0  0
  2 12  1  0  0  0  0
  3  4  1  0  0  0  0
  5  6  1  0  0  0  0
  5 27  1  0  0  0  0
  6 28  1  0  0  0  0
  7 19  1  1  0  0  0
  7 24  1  0  0  0  0
  7 17  1  0  0  0  0
  8 12  1  0  0  0  0
  9 28  1  0  0  0  0
  9 26  1  0  0  0  0
 10 17  1  0  0  0  0
 11  3  2  0  0  0  0
 12 13  2  0  0  0  0
 13 22  1  0  0  0  0
 13 11  1  0  0  0  0
 14 23  1  0  0  0  0
 14 22  2  0  0  0  0
 15  9  2  0  0  0  0
 17  8  1  0  0  0  0
 18 15  1  0  0  0  0
 18  6  2  0  0  0  0
 19 16  1  0  0  0  0
 20 29  1  0  0  0  0
 20  1  1  0  0  0  0
 20 10  1  0  0  0  0
 21  4  2  0  0  0  0
 22 21  1  0  0  0  0
 25  5  2  0  0  0  0
 27 14  1  0  0  0  0
 28 23  2  0  0  0  0
 30 29  1  0  0  0  0
 31 30  1  0  0  0  0
 32 30  1  0  0  0  0
M  END
>  <MODEL>
7

>  <REMARK>
 VINA RESULT:      -7.0      6.305     10.840
  Name = 
  2 active torsions:
  status: ('A' for Active; 'I' for Inactive)
    1  A    between atoms: C_20  and  O_29
    2  A    between atoms: O_29  and  C_30
                            x       y       z     vdW  Elec       q    Type
                         _______ _______ _______ _____ _____    ______ ____

>  <TORSDO>
F 2

$$$$
=
 OpenBabel11122410353D

 32 38  0  0  1  0  0  0  0  0999 V2000
  186.2150  177.2680  144.3750 C   0  0  1  0  0  3  0  0  0  0  0  0
  189.4700  177.8510  140.3050 C   0  0  1  0  0  3  0  0  0  0  0  0
  185.9500  177.8490  136.8660 C   0  0  0  0  0  3  0  0  0  0  0  0
  186.8410  177.3090  135.9450 C   0  0  0  0  0  3  0  0  0  0  0  0
  191.7130  177.2090  139.5670 C   0  0  0  0  0  0  0  0  0  0  0  0
  192.5810  176.7140  138.6010 C   0  0  0  0  0  0  0  0  0  0  0  0
  188.4950  177.3650  142.5080 N   0  0  1  0  0  0  0  0  0  0  0  0
  187.1290  178.6260  140.8690 C   0  0  0  0  0  2  0  0  0  0  0  0
  193.3100  175.9400  136.6660 C   0  0  0  0  0  0  0  0  0  0  0  0
  186.1620  178.1040  143.1020 C   0  0  2  0  0  3  0  0  0  0  0  0
  186.3800  178.1380  138.1610 C   0  0  0  0  0  3  0  0  0  0  0  0
  188.0910  178.1700  139.8140 C   0  0  0  0  0  0  0  0  0  0  0  0
  187.7070  177.8910  138.5580 C   0  0  0  0  0  0  0  0  0  0  0  0
  189.9140  177.0960  137.9640 C   0  0  0  0  0  0  0  0  0  0  0  0
  194.3120  175.9980  137.4850 N   0  0  0  0  0  0  0  0  0  0  0  0
  187.1970  176.0880  144.2810 C   0  0  0  0  0  2  0  0  0  0  0  0
  187.1220  177.6020  142.0070 C   0  0  2  0  0  3  0  0  0  0  0  0
  193.8490  176.4910  138.7190 N   0  0  0  0  0  2  0  0  0  0  0  0
  188.5420  176.3680  143.5880 C   0  0  0  0  0  2  0  0  0  0  0  0
  186.8770  178.6370  144.3410 C   0  0  1  0  0  3  0  0  0  0  0  0
  188.1610  177.0580  136.3190 C   0  0  0  0  0  3  0  0  0  0  0  0
  188.6220  177.3390  137.6240 C   0  0  0  0  0  0  0  0  0  0  0  0
  190.8110  176.5890  136.9890 C   0  0  0  0  0  2  0  0  0  0  0  0
  189.3230  176.8200  141.4270 C   0  0  0  0  0  2  0  0  0  0  0  0
  192.1510  177.5030  140.7130 O   0  0  0  0  0  0  0  0  0  0  0  0
  193.4030  175.4720  135.2570 C   0  0  0  0  0  1  0  0  0  0  0  0
  190.3780  177.3680  139.2480 N   0  0  0  0  0  0  0  0  0  0  0  0
  192.1300  176.4050  137.3610 C   0  0  0  0  0  0  0  0  0  0  0  0
  186.0550  179.5640  144.9830 O   0  0  0  0  0  0  0  0  0  0  0  0
  185.4080  178.8380  145.9840 C   0  0  0  0  0  3  0  0  0  0  0  0
  183.9090  179.0030  145.8430 C   0  0  0  0  0  1  0  0  0  0  0  0
  185.8420  179.3490  147.3440 C   0  0  0  0  0  1  0  0  0  0  0  0
  1 16  1  6  0  0  0
  2 24  1  1  0  0  0
  3 11  2  0  0  0  0
  4 21  2  0  0  0  0
  4  3  1  0  0  0  0
  5 25  2  0  0  0  0
  6 18  1  0  0  0  0
  6  5  1  0  0  0  0
  7 24  1  6  0  0  0
  7 19  1  0  0  0  0
  8 17  1  0  0  0  0
  9 28  1  0  0  0  0
  9 15  2  0  0  0  0
 10 20  1  0  0  0  0
 10  1  1  0  0  0  0
 11 13  1  0  0  0  0
 12  2  1  0  0  0  0
 12  8  1  0  0  0  0
 13 12  2  0  0  0  0
 14 27  1  0  0  0  0
 15 18  1  0  0  0  0
 17  7  1  0  0  0  0
 17 10  1  0  0  0  0
 19 16  1  0  0  0  0
 20  1  1  0  0  0  0
 20 29  1  0  0  0  0
 21 22  1  0  0  0  0
 22 14  2  0  0  0  0
 22 13  1  0  0  0  0
 23 28  1  0  0  0  0
 23 14  1  0  0  0  0
 26  9  1  0  0  0  0
 27  5  1  0  0  0  0
 27  2  1  0  0  0  0
 28  6  2  0  0  0  0
 29 30  1  0  0  0  0
 30 32  1  0  0  0  0
 31 30  1  0  0  0  0
M  END
>  <MODEL>
8

>  <REMARK>
 VINA RESULT:      -6.6      4.130      7.953
  Name = 
  2 active torsions:
  status: ('A' for Active; 'I' for Inactive)
    1  A    between atoms: C_20  and  O_29
    2  A    between atoms: O_29  and  C_30
                            x       y       z     vdW  Elec       q    Type
                         _______ _______ _______ _____ _____    ______ ____

>  <TORSDO>
F 2

$$$$
