=
 OpenBabel11122411583D

 28 32  0  0  1  0  0  0  0  0999 V2000
  186.8040  174.0980  136.7650 C   0  0  0  0  0  0  0  0  0  0  0  0
  188.7270  176.8030  138.7270 O   0  0  0  0  0  0  0  0  0  0  0  0
  182.6600  176.3010  139.6660 C   0  0  0  0  0  1  0  0  0  0  0  0
  188.3390  175.0600  134.6350 C   0  0  0  0  0  3  0  0  0  0  0  0
  182.8700  177.8120  137.7130 C   0  0  1  0  0  3  0  0  0  0  0  0
  185.9740  173.6170  137.8250 N   0  0  0  0  0  2  0  0  0  0  0  0
  188.7770  179.1830  138.1050 O   0  0  0  0  0  0  0  0  0  0  0  0
  187.9120  178.0590  138.6010 S   0  0  0  0  0  0  0  0  0  0  0  0
  185.8320  178.5460  140.3080 C   0  0  0  0  0  0  0  0  0  0  0  0
  186.5590  177.8210  137.4720 C   0  0  2  0  0  3  0  0  0  0  0  0
  183.4590  172.5290  135.7030 O   0  0  0  0  0  0  0  0  0  0  0  0
  184.6980  176.4720  136.8340 N   0  0  2  0  0  0  0  0  0  0  0  0
  185.0060  178.5360  139.3030 N   0  0  0  0  0  0  0  0  0  0  0  0
  187.2440  178.4770  140.1280 N   0  0  0  0  0  2  0  0  0  0  0  0
  183.8690  173.2710  136.6310 C   0  0  0  0  0  0  0  0  0  0  0  0
  186.8990  175.4790  136.5450 C   0  0  0  0  0  0  0  0  0  0  0  0
  182.6650  176.3820  138.1530 C   0  0  1  0  0  3  0  0  0  0  0  0
  185.2850  178.5670  141.6880 C   0  0  0  0  0  1  0  0  0  0  0  0
  183.3250  174.5590  136.7480 O   0  0  0  0  0  0  0  0  0  0  0  0
  187.6580  175.9560  135.4640 C   0  0  0  0  0  3  0  0  0  0  0  0
  187.4700  173.2020  135.9200 C   0  0  0  0  0  3  0  0  0  0  0  0
  188.2450  173.6850  134.8620 C   0  0  0  0  0  3  0  0  0  0  0  0
  184.8670  172.7020  137.6010 C   0  0  0  0  0  2  0  0  0  0  0  0
  184.2410  177.8480  137.0610 C   0  0  2  0  0  3  0  0  0  0  0  0
  183.8310  175.5780  137.6050 C   0  0  1  0  0  3  0  0  0  0  0  0
  185.3170  178.5960  137.8630 C   0  0  2  0  0  3  0  0  0  0  0  0
  181.8170  178.1780  136.6860 C   0  0  0  0  0  1  0  0  0  0  0  0
  186.0510  176.3980  137.3810 C   0  0  1  0  0  3  0  0  0  0  0  0
  1  6  1  0  0  0  0
  4 22  2  0  0  0  0
  4 20  1  0  0  0  0
  5 27  1  6  0  0  0
  5 17  1  0  0  0  0
  7  8  2  0  0  0  0
  8  2  2  0  0  0  0
  8 14  1  0  0  0  0
  9 18  1  0  0  0  0
 10 26  1  0  0  0  0
 10  8  1  1  0  0  0
 11 15  2  0  0  0  0
 12 24  1  0  0  0  0
 12 28  1  0  0  0  0
 12 25  1  0  0  0  0
 13  9  2  0  0  0  0
 14  9  1  0  0  0  0
 15 19  1  0  0  0  0
 15 23  1  0  0  0  0
 16  1  1  0  0  0  0
 16 28  1  0  0  0  0
 17  3  1  0  0  0  0
 19 25  1  0  0  0  0
 20 16  2  0  0  0  0
 21  1  2  0  0  0  0
 22 21  1  0  0  0  0
 23  6  1  0  0  0  0
 24  5  1  0  0  0  0
 24 26  1  0  0  0  0
 25 17  1  0  0  0  0
 26 13  1  0  0  0  0
 28 10  1  0  0  0  0
M  END
>  <MODEL>
1

>  <REMARK>
 VINA RESULT:      -6.0      0.000      0.000
  Name = 
  0 active torsions:
  status: ('A' for Active; 'I' for Inactive)
                            x       y       z     vdW  Elec       q    Type
                         _______ _______ _______ _____ _____    ______ ____

>  <TORSDO>
F 0

$$$$
=
 OpenBabel11122411583D

 28 32  0  0  1  0  0  0  0  0999 V2000
  182.4870  179.3500  142.7040 C   0  0  0  0  0  0  0  0  0  0  0  0
  184.6160  179.8710  139.5330 O   0  0  0  0  0  0  0  0  0  0  0  0
  178.9310  177.5960  138.8680 C   0  0  0  0  0  1  0  0  0  0  0  0
  184.8730  178.2820  143.6980 C   0  0  0  0  0  3  0  0  0  0  0  0
  180.3550  175.6130  139.2910 C   0  0  1  0  0  3  0  0  0  0  0  0
  181.2420  179.8490  142.2090 N   0  0  0  0  0  2  0  0  0  0  0  0
  185.8370  178.0710  138.3810 O   0  0  0  0  0  0  0  0  0  0  0  0
  184.4770  178.6050  138.7330 S   0  0  0  0  0  0  0  0  0  0  0  0
  182.3570  178.2540  137.0430 C   0  0  0  0  0  0  0  0  0  0  0  0
  183.5840  177.3730  139.6530 C   0  0  2  0  0  3  0  0  0  0  0  0
  179.3240  177.9390  144.3730 O   0  0  0  0  0  0  0  0  0  0  0  0
  181.6440  176.8510  140.9380 N   0  0  2  0  0  0  0  0  0  0  0  0
  181.9690  177.2300  137.7440 N   0  0  0  0  0  0  0  0  0  0  0  0
  183.5920  178.9190  137.2940 N   0  0  0  0  0  2  0  0  0  0  0  0
  179.6840  178.2540  143.2100 C   0  0  0  0  0  0  0  0  0  0  0  0
  183.2070  178.4250  141.9360 C   0  0  0  0  0  0  0  0  0  0  0  0
  179.4510  176.6430  139.9250 C   0  0  1  0  0  3  0  0  0  0  0  0
  181.4590  178.7840  135.9860 C   0  0  0  0  0  1  0  0  0  0  0  0
  179.7110  177.2570  142.2250 O   0  0  0  0  0  0  0  0  0  0  0  0
  184.3960  177.8790  142.4470 C   0  0  0  0  0  3  0  0  0  0  0  0
  182.9560  179.7360  143.9660 C   0  0  0  0  0  3  0  0  0  0  0  0
  184.1540  179.2090  144.4560 C   0  0  0  0  0  3  0  0  0  0  0  0
  179.9920  179.7000  142.9350 C   0  0  0  0  0  2  0  0  0  0  0  0
  181.7480  175.9100  139.8170 C   0  0  2  0  0  3  0  0  0  0  0  0
  180.2900  177.4100  140.9320 C   0  0  1  0  0  3  0  0  0  0  0  0
  182.7190  176.4920  138.7780 C   0  0  2  0  0  3  0  0  0  0  0  0
  179.9340  174.2290  139.7440 C   0  0  0  0  0  1  0  0  0  0  0  0
  182.5950  177.9250  140.6560 C   0  0  1  0  0  3  0  0  0  0  0  0
  1 21  1  0  0  0  0
  3 17  1  0  0  0  0
  4 22  1  0  0  0  0
  5 27  1  1  0  0  0
  5 24  1  0  0  0  0
  5 17  1  0  0  0  0
  6  1  1  0  0  0  0
  6 23  1  0  0  0  0
  7  8  2  0  0  0  0
  8  2  2  0  0  0  0
  9 14  1  0  0  0  0
  9 13  2  0  0  0  0
 10  8  1  6  0  0  0
 10 28  1  0  0  0  0
 13 26  1  0  0  0  0
 14  8  1  0  0  0  0
 15 11  2  0  0  0  0
 16 20  1  0  0  0  0
 16  1  2  0  0  0  0
 17 25  1  0  0  0  0
 18  9  1  0  0  0  0
 19 15  1  0  0  0  0
 20  4  2  0  0  0  0
 21 22  2  0  0  0  0
 23 15  1  0  0  0  0
 24 12  1  0  0  0  0
 25 12  1  0  0  0  0
 25 19  1  0  0  0  0
 26 10  1  0  0  0  0
 26 24  1  0  0  0  0
 28 12  1  0  0  0  0
 28 16  1  0  0  0  0
M  END
>  <MODEL>
2

>  <REMARK>
 VINA RESULT:      -5.7      4.148      6.955
  Name = 
  0 active torsions:
  status: ('A' for Active; 'I' for Inactive)
                            x       y       z     vdW  Elec       q    Type
                         _______ _______ _______ _____ _____    ______ ____

>  <TORSDO>
F 0

$$$$
=
 OpenBabel11122411583D

 28 32  0  0  1  0  0  0  0  0999 V2000
  185.3130  175.8600  136.7730 C   0  0  0  0  0  0  0  0  0  0  0  0
  181.8220  174.8420  135.4910 O   0  0  0  0  0  0  0  0  0  0  0  0
  182.3630  180.1950  138.4910 C   0  0  0  0  0  1  0  0  0  0  0  0
  185.3970  173.1880  137.5930 C   0  0  0  0  0  3  0  0  0  0  0  0
  182.0120  178.5090  140.2730 C   0  0  1  0  0  3  0  0  0  0  0  0
  185.2790  177.2410  136.4050 N   0  0  0  0  0  2  0  0  0  0  0  0
  180.0740  173.8390  136.9030 O   0  0  0  0  0  0  0  0  0  0  0  0
  180.8790  175.0800  136.6370 S   0  0  0  0  0  0  0  0  0  0  0  0
  179.8080  177.5580  137.0670 C   0  0  0  0  0  0  0  0  0  0  0  0
  181.7730  175.5220  138.1090 C   0  0  2  0  0  3  0  0  0  0  0  0
  187.5110  178.2130  138.8720 O   0  0  0  0  0  0  0  0  0  0  0  0
  183.4310  176.9250  139.0970 N   0  0  2  0  0  0  0  0  0  0  0  0
  180.3940  177.6090  138.2270 N   0  0  0  0  0  0  0  0  0  0  0  0
  179.8220  176.3820  136.2630 N   0  0  0  0  0  2  0  0  0  0  0  0
  186.3710  178.2530  138.3450 C   0  0  0  0  0  0  0  0  0  0  0  0
  184.2220  175.3090  137.4600 C   0  0  0  0  0  0  0  0  0  0  0  0
  183.0460  179.2860  139.4930 C   0  0  1  0  0  3  0  0  0  0  0  0
  179.1550  178.7820  136.5360 C   0  0  0  0  0  1  0  0  0  0  0  0
  185.2540  178.4160  139.1770 O   0  0  0  0  0  0  0  0  0  0  0  0
  184.2760  173.9720  137.8840 C   0  0  0  0  0  3  0  0  0  0  0  0
  186.4420  175.0790  136.5020 C   0  0  0  0  0  3  0  0  0  0  0  0
  186.4790  173.7410  136.9040 C   0  0  0  0  0  3  0  0  0  0  0  0
  186.2850  178.1950  136.8450 C   0  0  0  0  0  2  0  0  0  0  0  0
  182.1750  177.0620  139.8430 C   0  0  2  0  0  3  0  0  0  0  0  0
  183.9000  178.2700  138.7570 C   0  0  1  0  0  3  0  0  0  0  0  0
  181.0290  176.5120  138.9800 C   0  0  2  0  0  3  0  0  0  0  0  0
  182.3070  178.6280  141.7550 C   0  0  0  0  0  1  0  0  0  0  0  0
  183.0940  176.2200  137.8620 C   0  0  1  0  0  3  0  0  0  0  0  0
  1 16  1  0  0  0  0
  2  8  2  0  0  0  0
  3 17  1  0  0  0  0
  4 20  1  0  0  0  0
  5 27  1  1  0  0  0
  6  1  1  0  0  0  0
  6 23  1  0  0  0  0
  8  7  2  0  0  0  0
  9 13  2  0  0  0  0
 10  8  1  6  0  0  0
 10 26  1  0  0  0  0
 12 24  1  0  0  0  0
 13 26  1  0  0  0  0
 14  8  1  0  0  0  0
 14  9  1  0  0  0  0
 15 11  2  0  0  0  0
 15 19  1  0  0  0  0
 16 28  1  0  0  0  0
 16 20  2  0  0  0  0
 17  5  1  0  0  0  0
 18  9  1  0  0  0  0
 21  1  2  0  0  0  0
 21 22  1  0  0  0  0
 22  4  2  0  0  0  0
 23 15  1  0  0  0  0
 24  5  1  0  0  0  0
 25 12  1  0  0  0  0
 25 19  1  0  0  0  0
 25 17  1  0  0  0  0
 26 24  1  0  0  0  0
 28 10  1  0  0  0  0
 28 12  1  0  0  0  0
M  END
>  <MODEL>
3

>  <REMARK>
 VINA RESULT:      -5.3      2.670      5.424
  Name = 
  0 active torsions:
  status: ('A' for Active; 'I' for Inactive)
                            x       y       z     vdW  Elec       q    Type
                         _______ _______ _______ _____ _____    ______ ____

>  <TORSDO>
F 0

$$$$
=
 OpenBabel11122411583D

 28 32  0  0  1  0  0  0  0  0999 V2000
  185.5180  175.4730  136.5910 C   0  0  0  0  0  0  0  0  0  0  0  0
  182.4070  173.8370  135.0070 O   0  0  0  0  0  0  0  0  0  0  0  0
  181.7650  179.3890  137.5950 C   0  0  0  0  0  1  0  0  0  0  0  0
  185.8950  172.9050  137.6340 C   0  0  0  0  0  3  0  0  0  0  0  0
  181.4470  177.7870  139.4590 C   0  0  1  0  0  3  0  0  0  0  0  0
  185.3260  176.8050  136.1080 N   0  0  0  0  0  2  0  0  0  0  0  0
  180.6640  172.6640  136.2880 O   0  0  0  0  0  0  0  0  0  0  0  0
  181.3020  173.9960  136.0140 S   0  0  0  0  0  0  0  0  0  0  0  0
  179.8290  176.2970  136.1120 C   0  0  0  0  0  0  0  0  0  0  0  0
  181.9290  174.6680  137.5360 C   0  0  2  0  0  3  0  0  0  0  0  0
  187.0610  178.2730  138.7250 O   0  0  0  0  0  0  0  0  0  0  0  0
  183.2220  176.3740  138.5890 N   0  0  2  0  0  0  0  0  0  0  0  0
  180.2510  176.5150  137.3230 N   0  0  0  0  0  0  0  0  0  0  0  0
  180.1190  175.0890  135.4150 N   0  0  0  0  0  2  0  0  0  0  0  0
  186.0030  178.0980  138.0690 C   0  0  0  0  0  0  0  0  0  0  0  0
  184.4440  174.8020  137.1920 C   0  0  0  0  0  0  0  0  0  0  0  0
  182.4430  178.6650  138.7410 C   0  0  1  0  0  3  0  0  0  0  0  0
  179.0730  177.3660  135.4100 C   0  0  0  0  0  1  0  0  0  0  0  0
  184.7780  178.1360  138.7530 O   0  0  0  0  0  0  0  0  0  0  0  0
  184.6430  173.5200  137.7280 C   0  0  0  0  0  3  0  0  0  0  0  0
  186.7760  174.8630  136.5160 C   0  0  0  0  0  3  0  0  0  0  0  0
  186.9610  173.5760  137.0290 C   0  0  0  0  0  3  0  0  0  0  0  0
  186.1160  177.9310  136.5800 C   0  0  0  0  0  2  0  0  0  0  0  0
  181.8760  176.3590  139.1720 C   0  0  2  0  0  3  0  0  0  0  0  0
  183.5260  177.7520  138.1940 C   0  0  1  0  0  3  0  0  0  0  0  0
  180.9420  175.5820  138.2320 C   0  0  2  0  0  3  0  0  0  0  0  0
  181.5320  178.0460  140.9500 C   0  0  0  0  0  1  0  0  0  0  0  0
  183.1520  175.5470  137.3850 C   0  0  1  0  0  3  0  0  0  0  0  0
  1 16  1  0  0  0  0
  2  8  2  0  0  0  0
  3 17  1  0  0  0  0
  4 20  1  0  0  0  0
  5 27  1  1  0  0  0
  6 23  1  0  0  0  0
  6  1  1  0  0  0  0
  8  7  2  0  0  0  0
  9 13  2  0  0  0  0
 10  8  1  6  0  0  0
 10 26  1  0  0  0  0
 12 24  1  0  0  0  0
 13 26  1  0  0  0  0
 14  8  1  0  0  0  0
 14  9  1  0  0  0  0
 15 11  2  0  0  0  0
 15 19  1  0  0  0  0
 16 28  1  0  0  0  0
 16 20  2  0  0  0  0
 17  5  1  0  0  0  0
 18  9  1  0  0  0  0
 21  1  2  0  0  0  0
 21 22  1  0  0  0  0
 22  4  2  0  0  0  0
 23 15  1  0  0  0  0
 24  5  1  0  0  0  0
 25 12  1  0  0  0  0
 25 17  1  0  0  0  0
 25 19  1  0  0  0  0
 26 24  1  0  0  0  0
 28 10  1  0  0  0  0
 28 12  1  0  0  0  0
M  END
>  <MODEL>
4

>  <REMARK>
 VINA RESULT:      -5.2      2.669      5.468
  Name = 
  0 active torsions:
  status: ('A' for Active; 'I' for Inactive)
                            x       y       z     vdW  Elec       q    Type
                         _______ _______ _______ _____ _____    ______ ____

>  <TORSDO>
F 0

$$$$
=
 OpenBabel11122411583D

 28 32  0  0  1  0  0  0  0  0999 V2000
  189.4260  178.0720  139.6620 C   0  0  0  0  0  0  0  0  0  0  0  0
  193.2560  177.8610  139.2670 O   0  0  0  0  0  0  0  0  0  0  0  0
  189.7460  175.9160  134.5940 C   0  0  0  0  0  1  0  0  0  0  0  0
  189.9900  177.0310  142.1970 C   0  0  0  0  0  3  0  0  0  0  0  0
  189.9630  173.9440  136.0790 C   0  0  1  0  0  3  0  0  0  0  0  0
  189.1050  178.5610  138.3580 N   0  0  0  0  0  2  0  0  0  0  0  0
  194.5640  175.8010  139.5870 O   0  0  0  0  0  0  0  0  0  0  0  0
  193.5380  176.4860  138.7290 S   0  0  0  0  0  0  0  0  0  0  0  0
  193.4070  175.9890  136.0440 C   0  0  0  0  0  0  0  0  0  0  0  0
  192.0550  175.5060  138.6950 C   0  0  2  0  0  3  0  0  0  0  0  0
  185.9130  177.2120  138.3620 O   0  0  0  0  0  0  0  0  0  0  0  0
  189.7650  175.3620  138.0420 N   0  0  2  0  0  0  0  0  0  0  0  0
  192.4450  175.1380  136.2490 N   0  0  0  0  0  0  0  0  0  0  0  0
  194.1200  176.5990  137.1160 N   0  0  0  0  0  2  0  0  0  0  0  0
  187.0730  177.2870  137.8840 C   0  0  0  0  0  0  0  0  0  0  0  0
  190.2900  176.9740  139.7870 C   0  0  0  0  0  0  0  0  0  0  0  0
  189.1040  175.1330  135.7210 C   0  0  1  0  0  3  0  0  0  0  0  0
  193.7320  176.3840  134.6490 C   0  0  0  0  0  1  0  0  0  0  0  0
  187.6500  176.1290  137.3410 O   0  0  0  0  0  0  0  0  0  0  0  0
  190.5560  176.4460  141.0600 C   0  0  0  0  0  3  0  0  0  0  0  0
  188.8440  178.6430  140.8000 C   0  0  0  0  0  3  0  0  0  0  0  0
  189.1350  178.1280  142.0670 C   0  0  0  0  0  3  0  0  0  0  0  0
  187.7410  178.6340  137.8620 C   0  0  0  0  0  2  0  0  0  0  0  0
  190.5020  174.2310  137.4690 C   0  0  2  0  0  3  0  0  0  0  0  0
  189.0170  176.0060  136.9600 C   0  0  1  0  0  3  0  0  0  0  0  0
  192.0050  174.5460  137.5260 C   0  0  2  0  0  3  0  0  0  0  0  0
  189.1030  172.6970  136.1230 C   0  0  0  0  0  1  0  0  0  0  0  0
  190.7750  176.2980  138.5340 C   0  0  1  0  0  3  0  0  0  0  0  0
  1 16  2  0  0  0  0
  1 21  1  0  0  0  0
  3 17  1  0  0  0  0
  5 27  1  1  0  0  0
  5 24  1  0  0  0  0
  6  1  1  0  0  0  0
  8  2  2  0  0  0  0
  8  7  2  0  0  0  0
  9 13  2  0  0  0  0
  9 14  1  0  0  0  0
 10  8  1  6  0  0  0
 12 28  1  0  0  0  0
 13 26  1  0  0  0  0
 14  8  1  0  0  0  0
 15 11  2  0  0  0  0
 16 20  1  0  0  0  0
 17  5  1  0  0  0  0
 17 25  1  0  0  0  0
 18  9  1  0  0  0  0
 19 15  1  0  0  0  0
 20  4  2  0  0  0  0
 21 22  2  0  0  0  0
 22  4  1  0  0  0  0
 23 15  1  0  0  0  0
 23  6  1  0  0  0  0
 24 26  1  0  0  0  0
 24 12  1  0  0  0  0
 25 19  1  0  0  0  0
 25 12  1  0  0  0  0
 26 10  1  0  0  0  0
 28 10  1  0  0  0  0
 28 16  1  0  0  0  0
M  END
>  <MODEL>
5

>  <REMARK>
 VINA RESULT:      -5.1      4.239      7.079
  Name = 
  0 active torsions:
  status: ('A' for Active; 'I' for Inactive)
                            x       y       z     vdW  Elec       q    Type
                         _______ _______ _______ _____ _____    ______ ____

>  <TORSDO>
F 0

$$$$
=
 OpenBabel11122411583D

 28 32  0  0  1  0  0  0  0  0999 V2000
  182.2900  177.1820  138.6740 C   0  0  0  0  0  0  0  0  0  0  0  0
  182.2780  173.4820  137.5890 O   0  0  0  0  0  0  0  0  0  0  0  0
  187.6870  176.4210  137.8200 C   0  0  0  0  0  1  0  0  0  0  0  0
  180.1040  177.3270  136.9350 C   0  0  0  0  0  3  0  0  0  0  0  0
  186.8030  176.9090  135.5570 C   0  0  1  0  0  3  0  0  0  0  0  0
  183.4310  177.1480  139.5340 N   0  0  0  0  0  2  0  0  0  0  0  0
  182.4010  172.7320  135.2490 O   0  0  0  0  0  0  0  0  0  0  0  0
  183.1450  173.4120  136.3630 S   0  0  0  0  0  0  0  0  0  0  0  0
  185.8580  173.1570  136.5910 C   0  0  0  0  0  0  0  0  0  0  0  0
  183.6270  175.0400  135.8370 C   0  0  2  0  0  3  0  0  0  0  0  0
  184.1800  180.5030  139.0940 O   0  0  0  0  0  0  0  0  0  0  0  0
  184.5570  177.1490  136.4520 N   0  0  2  0  0  0  0  0  0  0  0  0
  186.0150  174.3010  135.9920 N   0  0  0  0  0  0  0  0  0  0  0  0
  184.5810  172.5360  136.7150 N   0  0  0  0  0  2  0  0  0  0  0  0
  184.4790  179.2860  138.9820 C   0  0  0  0  0  0  0  0  0  0  0  0
  182.3790  176.6140  137.3950 C   0  0  0  0  0  0  0  0  0  0  0  0
  186.9090  177.4110  136.9770 C   0  0  1  0  0  3  0  0  0  0  0  0
  187.0360  172.5060  137.2190 C   0  0  0  0  0  1  0  0  0  0  0  0
  185.2550  178.8850  137.8850 O   0  0  0  0  0  0  0  0  0  0  0  0
  181.2850  176.7040  136.5210 C   0  0  0  0  0  3  0  0  0  0  0  0
  181.1130  177.8240  139.0780 C   0  0  0  0  0  3  0  0  0  0  0  0
  180.0180  177.8870  138.2120 C   0  0  0  0  0  3  0  0  0  0  0  0
  184.0420  178.3500  140.0750 C   0  0  0  0  0  2  0  0  0  0  0  0
  185.3360  176.5830  135.3450 C   0  0  2  0  0  3  0  0  0  0  0  0
  185.4930  177.5310  137.5120 C   0  0  1  0  0  3  0  0  0  0  0  0
  185.0170  175.0830  135.2390 C   0  0  2  0  0  3  0  0  0  0  0  0
  187.2140  178.0120  134.6020 C   0  0  0  0  0  1  0  0  0  0  0  0
  183.7070  176.0670  136.9460 C   0  0  1  0  0  3  0  0  0  0  0  0
  1 21  1  0  0  0  0
  1  6  1  0  0  0  0
  4 22  1  0  0  0  0
  5 27  1  6  0  0  0
  5 17  1  0  0  0  0
  6 23  1  0  0  0  0
  7  8  2  0  0  0  0
  8 14  1  0  0  0  0
  8  2  2  0  0  0  0
  9 14  1  0  0  0  0
  9 18  1  0  0  0  0
 10  8  1  1  0  0  0
 10 28  1  0  0  0  0
 12 28  1  0  0  0  0
 12 25  1  0  0  0  0
 13  9  2  0  0  0  0
 15 11  2  0  0  0  0
 15 23  1  0  0  0  0
 16  1  2  0  0  0  0
 17 25  1  0  0  0  0
 17  3  1  0  0  0  0
 19 15  1  0  0  0  0
 20  4  2  0  0  0  0
 20 16  1  0  0  0  0
 22 21  2  0  0  0  0
 24  5  1  0  0  0  0
 24 12  1  0  0  0  0
 25 19  1  0  0  0  0
 26 24  1  0  0  0  0
 26 10  1  0  0  0  0
 26 13  1  0  0  0  0
 28 16  1  0  0  0  0
M  END
>  <MODEL>
6

>  <REMARK>
 VINA RESULT:      -4.9      2.383      6.233
  Name = 
  0 active torsions:
  status: ('A' for Active; 'I' for Inactive)
                            x       y       z     vdW  Elec       q    Type
                         _______ _______ _______ _____ _____    ______ ____

>  <TORSDO>
F 0

$$$$
=
 OpenBabel11122411583D

 28 32  0  0  1  0  0  0  0  0999 V2000
  181.6550  177.5940  139.7490 C   0  0  0  0  0  0  0  0  0  0  0  0
  180.0760  174.2940  138.5310 O   0  0  0  0  0  0  0  0  0  0  0  0
  186.0840  175.1860  137.5070 C   0  0  0  0  0  1  0  0  0  0  0  0
  179.3380  178.6970  138.6360 C   0  0  0  0  0  3  0  0  0  0  0  0
  184.9540  176.2420  135.5710 C   0  0  1  0  0  3  0  0  0  0  0  0
  182.8690  177.0630  140.2850 N   0  0  0  0  0  2  0  0  0  0  0  0
  179.3960  173.8670  136.2050 O   0  0  0  0  0  0  0  0  0  0  0  0
  180.5630  174.1020  137.1220 S   0  0  0  0  0  0  0  0  0  0  0  0
  182.9820  172.9230  136.6360 C   0  0  0  0  0  0  0  0  0  0  0  0
  181.4660  175.5290  136.5670 C   0  0  2  0  0  3  0  0  0  0  0  0
  184.6540  179.9990  139.8250 O   0  0  0  0  0  0  0  0  0  0  0  0
  183.2030  177.1000  137.0210 N   0  0  2  0  0  0  0  0  0  0  0  0
  183.4000  174.0170  136.0710 N   0  0  0  0  0  0  0  0  0  0  0  0
  181.6290  172.7560  137.0530 N   0  0  0  0  0  2  0  0  0  0  0  0
  184.4630  178.7790  139.5840 C   0  0  0  0  0  0  0  0  0  0  0  0
  181.2480  177.2060  138.4650 C   0  0  0  0  0  0  0  0  0  0  0  0
  185.5460  176.4840  136.9390 C   0  0  1  0  0  3  0  0  0  0  0  0
  183.9560  171.8360  136.9100 C   0  0  0  0  0  1  0  0  0  0  0  0
  184.7780  178.2920  138.3070 O   0  0  0  0  0  0  0  0  0  0  0  0
  180.0930  177.7750  137.9050 C   0  0  0  0  0  3  0  0  0  0  0  0
  180.9090  178.5330  140.4710 C   0  0  0  0  0  3  0  0  0  0  0  0
  179.7460  179.0760  139.9170 C   0  0  0  0  0  3  0  0  0  0  0  0
  183.9750  177.9070  140.7080 C   0  0  0  0  0  2  0  0  0  0  0  0
  183.4590  176.4590  135.7270 C   0  0  2  0  0  3  0  0  0  0  0  0
  184.4250  177.0000  137.8230 C   0  0  1  0  0  3  0  0  0  0  0  0
  182.6090  175.1820  135.6360 C   0  0  2  0  0  3  0  0  0  0  0  0
  185.5080  177.2610  134.5950 C   0  0  0  0  0  1  0  0  0  0  0  0
  182.1550  176.3110  137.6650 C   0  0  1  0  0  3  0  0  0  0  0  0
  1  6  1  0  0  0  0
  1 21  1  0  0  0  0
  4 22  1  0  0  0  0
  5 27  1  6  0  0  0
  5 24  1  0  0  0  0
  5 17  1  0  0  0  0
  6 23  1  0  0  0  0
  7  8  2  0  0  0  0
  8  2  2  0  0  0  0
  9 18  1  0  0  0  0
  9 14  1  0  0  0  0
 10  8  1  1  0  0  0
 10 28  1  0  0  0  0
 12 28  1  0  0  0  0
 12 25  1  0  0  0  0
 13  9  2  0  0  0  0
 14  8  1  0  0  0  0
 15 11  2  0  0  0  0
 15 23  1  0  0  0  0
 16  1  2  0  0  0  0
 17  3  1  0  0  0  0
 17 25  1  0  0  0  0
 19 15  1  0  0  0  0
 20 16  1  0  0  0  0
 20  4  2  0  0  0  0
 22 21  2  0  0  0  0
 24 12  1  0  0  0  0
 25 19  1  0  0  0  0
 26 24  1  0  0  0  0
 26 13  1  0  0  0  0
 26 10  1  0  0  0  0
 28 16  1  0  0  0  0
M  END
>  <MODEL>
7

>  <REMARK>
 VINA RESULT:      -4.9      3.054      6.868
  Name = 
  0 active torsions:
  status: ('A' for Active; 'I' for Inactive)
                            x       y       z     vdW  Elec       q    Type
                         _______ _______ _______ _____ _____    ______ ____

>  <TORSDO>
F 0

$$$$
=
 OpenBabel11122411583D

 28 32  0  0  1  0  0  0  0  0999 V2000
  183.9550  175.1740  137.0510 C   0  0  0  0  0  0  0  0  0  0  0  0
  187.2140  176.7060  138.4280 O   0  0  0  0  0  0  0  0  0  0  0  0
  181.9280  178.0880  141.2750 C   0  0  0  0  0  1  0  0  0  0  0  0
  185.0610  175.9270  134.5950 C   0  0  0  0  0  3  0  0  0  0  0  0
  182.1160  179.7580  139.4540 C   0  0  1  0  0  3  0  0  0  0  0  0
  183.3450  174.8190  138.2940 N   0  0  0  0  0  2  0  0  0  0  0  0
  187.9590  179.0050  137.9660 O   0  0  0  0  0  0  0  0  0  0  0  0
  186.9200  178.1630  138.6510 S   0  0  0  0  0  0  0  0  0  0  0  0
  185.7450  179.0080  140.9710 C   0  0  0  0  0  0  0  0  0  0  0  0
  185.3130  178.5870  138.0170 C   0  0  2  0  0  3  0  0  0  0  0  0
  180.1140  175.0110  137.0540 O   0  0  0  0  0  0  0  0  0  0  0  0
  182.9880  178.0620  137.9460 N   0  0  2  0  0  0  0  0  0  0  0  0
  184.7250  179.4470  140.2940 N   0  0  0  0  0  0  0  0  0  0  0  0
  186.9190  178.5080  140.3340 N   0  0  0  0  0  2  0  0  0  0  0  0
  181.0150  175.4030  137.8380 C   0  0  0  0  0  0  0  0  0  0  0  0
  184.4860  176.4620  136.8930 C   0  0  0  0  0  0  0  0  0  0  0  0
  181.5310  178.4230  139.8510 C   0  0  1  0  0  3  0  0  0  0  0  0
  185.6630  178.9690  142.4540 C   0  0  0  0  0  1  0  0  0  0  0  0
  181.0420  176.7570  138.2030 O   0  0  0  0  0  0  0  0  0  0  0  0
  185.0260  176.8400  135.6530 C   0  0  0  0  0  3  0  0  0  0  0  0
  183.9730  174.2690  135.9820 C   0  0  0  0  0  3  0  0  0  0  0  0
  184.5350  174.6440  134.7590 C   0  0  0  0  0  3  0  0  0  0  0  0
  181.9640  174.3760  138.3920 C   0  0  0  0  0  2  0  0  0  0  0  0
  183.1560  179.4500  138.3910 C   0  0  2  0  0  3  0  0  0  0  0  0
  182.1100  177.3860  138.9050 C   0  0  1  0  0  3  0  0  0  0  0  0
  184.6120  179.6480  138.8380 C   0  0  2  0  0  3  0  0  0  0  0  0
  181.0270  180.6240  138.8520 C   0  0  0  0  0  1  0  0  0  0  0  0
  184.3140  177.4510  138.0140 C   0  0  1  0  0  3  0  0  0  0  0  0
  1  6  1  0  0  0  0
  2  8  2  0  0  0  0
  4 22  2  0  0  0  0
  4 20  1  0  0  0  0
  5 27  1  6  0  0  0
  5 17  1  0  0  0  0
  6 23  1  0  0  0  0
  7  8  2  0  0  0  0
  8 14  1  0  0  0  0
  9 18  1  0  0  0  0
 10  8  1  1  0  0  0
 10 26  1  0  0  0  0
 11 15  2  0  0  0  0
 12 28  1  0  0  0  0
 12 24  1  0  0  0  0
 12 25  1  0  0  0  0
 13  9  2  0  0  0  0
 14  9  1  0  0  0  0
 15 19  1  0  0  0  0
 15 23  1  0  0  0  0
 16  1  1  0  0  0  0
 16 28  1  0  0  0  0
 17  3  1  0  0  0  0
 19 25  1  0  0  0  0
 20 16  2  0  0  0  0
 21  1  2  0  0  0  0
 22 21  1  0  0  0  0
 24 26  1  0  0  0  0
 24  5  1  0  0  0  0
 25 17  1  0  0  0  0
 26 13  1  0  0  0  0
 28 10  1  0  0  0  0
M  END
>  <MODEL>
8

>  <REMARK>
 VINA RESULT:      -4.8      2.229      2.674
  Name = 
  0 active torsions:
  status: ('A' for Active; 'I' for Inactive)
                            x       y       z     vdW  Elec       q    Type
                         _______ _______ _______ _____ _____    ______ ____

>  <TORSDO>
F 0

$$$$
=
 OpenBabel11122411583D

 28 32  0  0  1  0  0  0  0  0999 V2000
  185.2530  175.2510  137.1470 C   0  0  0  0  0  0  0  0  0  0  0  0
  184.9800  178.1880  139.6290 O   0  0  0  0  0  0  0  0  0  0  0  0
  179.8640  175.0230  138.3050 C   0  0  0  0  0  1  0  0  0  0  0  0
  186.8000  177.0820  135.7050 C   0  0  0  0  0  3  0  0  0  0  0  0
  180.0060  176.7550  136.5380 C   0  0  1  0  0  3  0  0  0  0  0  0
  184.4300  174.3100  137.8400 N   0  0  0  0  0  2  0  0  0  0  0  0
  184.1560  180.4280  139.0290 O   0  0  0  0  0  0  0  0  0  0  0  0
  183.7800  178.9820  139.1940 S   0  0  0  0  0  0  0  0  0  0  0  0
  181.2710  178.2780  140.0190 C   0  0  0  0  0  0  0  0  0  0  0  0
  183.1400  178.3650  137.6540 C   0  0  2  0  0  3  0  0  0  0  0  0
  183.5390  172.5890  134.9660 O   0  0  0  0  0  0  0  0  0  0  0  0
  182.4160  176.4660  136.4060 N   0  0  2  0  0  0  0  0  0  0  0  0
  180.9240  178.0700  138.7830 N   0  0  0  0  0  0  0  0  0  0  0  0
  182.5320  178.8430  140.3670 N   0  0  0  0  0  2  0  0  0  0  0  0
  183.2370  173.2870  135.9680 C   0  0  0  0  0  0  0  0  0  0  0  0
  184.7840  176.5580  136.9540 C   0  0  0  0  0  0  0  0  0  0  0  0
  180.3340  175.3250  136.8960 C   0  0  1  0  0  3  0  0  0  0  0  0
  180.3500  177.8570  141.1060 C   0  0  0  0  0  1  0  0  0  0  0  0
  182.1670  174.1880  135.8580 O   0  0  0  0  0  0  0  0  0  0  0  0
  185.5570  177.4680  136.2150 C   0  0  0  0  0  3  0  0  0  0  0  0
  186.4890  174.8610  136.6160 C   0  0  0  0  0  3  0  0  0  0  0  0
  187.2650  175.7800  135.9050 C   0  0  0  0  0  3  0  0  0  0  0  0
  183.9990  173.0560  137.2430 C   0  0  0  0  0  2  0  0  0  0  0  0
  181.3430  177.4670  136.4280 C   0  0  2  0  0  3  0  0  0  0  0  0
  181.8440  175.1840  136.8230 C   0  0  1  0  0  3  0  0  0  0  0  0
  181.6330  178.4710  137.5540 C   0  0  2  0  0  3  0  0  0  0  0  0
  179.3090  176.7890  135.1920 C   0  0  0  0  0  1  0  0  0  0  0  0
  183.3900  176.8930  137.4090 C   0  0  1  0  0  3  0  0  0  0  0  0
  1  6  1  0  0  0  0
  4 22  2  0  0  0  0
  4 20  1  0  0  0  0
  5 27  1  6  0  0  0
  5 17  1  0  0  0  0
  7  8  2  0  0  0  0
  8  2  2  0  0  0  0
  8 14  1  0  0  0  0
  9 14  1  0  0  0  0
  9 18  1  0  0  0  0
 10  8  1  1  0  0  0
 11 15  2  0  0  0  0
 12 24  1  0  0  0  0
 12 25  1  0  0  0  0
 12 28  1  0  0  0  0
 13  9  2  0  0  0  0
 15 23  1  0  0  0  0
 16  1  1  0  0  0  0
 16 28  1  0  0  0  0
 17  3  1  0  0  0  0
 19 15  1  0  0  0  0
 19 25  1  0  0  0  0
 20 16  2  0  0  0  0
 21  1  2  0  0  0  0
 22 21  1  0  0  0  0
 23  6  1  0  0  0  0
 24  5  1  0  0  0  0
 24 26  1  0  0  0  0
 25 17  1  0  0  0  0
 26 10  1  0  0  0  0
 26 13  1  0  0  0  0
 28 10  1  0  0  0  0
M  END
>  <MODEL>
9

>  <REMARK>
 VINA RESULT:      -4.7      2.425      3.162
  Name = 
  0 active torsions:
  status: ('A' for Active; 'I' for Inactive)
                            x       y       z     vdW  Elec       q    Type
                         _______ _______ _______ _____ _____    ______ ____

>  <TORSDO>
F 0

$$$$
