=
 OpenBabel11122411593D

 28 32  0  0  1  0  0  0  0  0999 V2000
  187.9850  176.9260  142.0900 C   0  0  2  0  0  3  0  0  0  0  0  0
  185.8970  177.6910  139.2440 O   0  0  0  0  0  0  0  0  0  0  0  0
  193.9760  177.1570  139.9530 O   0  0  0  0  0  0  0  0  0  0  0  0
  186.4500  179.3960  142.6080 C   0  0  0  0  0  2  0  0  0  0  0  0
  191.9810  176.2800  139.0350 N   0  0  0  0  0  0  0  0  0  0  0  0
  189.1650  176.0500  142.5360 C   0  0  0  0  0  2  0  0  0  0  0  0
  187.0900  179.0370  137.5590 O   0  0  0  0  0  0  0  0  0  0  0  0
  187.0340  177.7110  138.2620 S   0  0  0  0  0  0  0  0  0  0  0  0
  188.0750  175.7550  136.6050 C   0  0  0  0  0  0  0  0  0  0  0  0
  188.5530  177.3880  139.0630 C   0  0  0  0  0  0  0  0  0  0  0  0
  190.8420  178.8650  143.5930 O   0  0  0  0  0  0  0  0  0  0  0  0
  190.5140  177.5160  140.2560 C   0  0  1  0  0  3  0  0  0  0  0  0
  189.2260  175.7770  137.2910 C   0  0  0  0  0  3  0  0  0  0  0  0
  186.7930  176.3990  137.0740 C   0  0  0  0  0  2  0  0  0  0  0  0
  190.9420  177.6760  143.1960 C   0  0  0  0  0  0  0  0  0  0  0  0
  188.4360  178.2910  141.5010 C   0  0  2  0  0  3  0  0  0  0  0  0
  192.7180  177.0970  139.9450 C   0  0  0  0  0  0  0  0  0  0  0  0
  188.0200  174.9330  135.3690 C   0  0  0  0  0  1  0  0  0  0  0  0
  191.9010  177.3280  142.2000 N   0  0  0  0  0  2  0  0  0  0  0  0
  187.2820  179.2860  141.3400 C   0  0  0  0  0  2  0  0  0  0  0  0
  187.0230  177.0850  143.2740 C   0  0  0  0  0  2  0  0  0  0  0  0
  185.8800  178.0320  142.9500 C   0  0  0  0  0  2  0  0  0  0  0  0
  189.9870  176.6410  143.6920 C   0  0  0  0  0  2  0  0  0  0  0  0
  190.6370  176.6160  139.3230 C   0  0  1  0  0  3  0  0  0  0  0  0
  191.8280  177.8940  140.8590 C   0  0  2  0  0  3  0  0  0  0  0  0
  189.4260  176.5360  138.5360 C   0  0  0  0  0  0  0  0  0  0  0  0
  192.4790  175.7620  137.7720 C   0  0  0  0  0  1  0  0  0  0  0  0
  189.1970  178.2110  140.1620 C   0  0  2  0  0  3  0  0  0  0  0  0
  1  6  1  1  0  0  0
  1 21  1  0  0  0  0
  4 22  1  0  0  0  0
  5 24  1  0  0  0  0
  5 17  1  0  0  0  0
  6 23  1  0  0  0  0
  7  8  2  0  0  0  0
  8 10  1  0  0  0  0
  8  2  2  0  0  0  0
  9 14  1  0  0  0  0
  9 13  2  0  0  0  0
 10 28  1  0  0  0  0
 12 25  1  0  0  0  0
 13 26  1  0  0  0  0
 14  8  1  0  0  0  0
 15 11  2  0  0  0  0
 15 23  1  0  0  0  0
 16  1  1  0  0  0  0
 17  3  2  0  0  0  0
 17 25  1  0  0  0  0
 18  9  1  0  0  0  0
 19 15  1  0  0  0  0
 20 16  1  0  0  0  0
 20  4  1  0  0  0  0
 22 21  1  0  0  0  0
 24 12  1  0  0  0  0
 25 19  1  0  0  0  0
 26 10  2  0  0  0  0
 26 24  1  0  0  0  0
 27  5  1  0  0  0  0
 28 12  1  0  0  0  0
 28 16  1  0  0  0  0
M  END
>  <MODEL>
1

>  <REMARK>
 VINA RESULT:      -6.6      0.000      0.000
  Name = 
  0 active torsions:
  status: ('A' for Active; 'I' for Inactive)
                            x       y       z     vdW  Elec       q    Type
                         _______ _______ _______ _____ _____    ______ ____

>  <TORSDO>
F 0

$$$$
=
 OpenBabel11122411593D

 28 32  0  0  1  0  0  0  0  0999 V2000
  185.3520  175.3170  137.3610 C   0  0  2  0  0  3  0  0  0  0  0  0
  186.4270  178.4280  138.8460 O   0  0  0  0  0  0  0  0  0  0  0  0
  179.0060  175.2640  137.8560 O   0  0  0  0  0  0  0  0  0  0  0  0
  186.7140  176.9770  135.3330 C   0  0  0  0  0  2  0  0  0  0  0  0
  180.7240  175.9240  139.3430 N   0  0  0  0  0  0  0  0  0  0  0  0
  184.4490  174.0980  137.6030 C   0  0  0  0  0  2  0  0  0  0  0  0
  184.6640  180.1480  138.7640 O   0  0  0  0  0  0  0  0  0  0  0  0
  185.0570  178.8120  139.3270 S   0  0  0  0  0  0  0  0  0  0  0  0
  183.7800  178.4330  141.7520 C   0  0  0  0  0  0  0  0  0  0  0  0
  183.8800  177.6000  138.8830 C   0  0  0  0  0  0  0  0  0  0  0  0
  182.8790  174.6760  134.5940 O   0  0  0  0  0  0  0  0  0  0  0  0
  182.3510  176.2720  137.7930 C   0  0  1  0  0  3  0  0  0  0  0  0
  182.8840  177.6290  141.1620 C   0  0  0  0  0  3  0  0  0  0  0  0
  185.0710  178.8820  141.1130 C   0  0  0  0  0  2  0  0  0  0  0  0
  182.7880  174.1640  135.7400 C   0  0  0  0  0  0  0  0  0  0  0  0
  184.6130  176.4830  136.6500 C   0  0  2  0  0  3  0  0  0  0  0  0
  180.2070  175.5920  138.0540 C   0  0  0  0  0  0  0  0  0  0  0  0
  183.5530  178.7990  143.1740 C   0  0  0  0  0  1  0  0  0  0  0  0
  181.6200  174.3740  136.5300 N   0  0  0  0  0  2  0  0  0  0  0  0
  185.5630  177.5680  136.1320 C   0  0  0  0  0  2  0  0  0  0  0  0
  186.5980  174.8540  136.5950 C   0  0  0  0  0  2  0  0  0  0  0  0
  187.4940  176.0210  136.2160 C   0  0  0  0  0  2  0  0  0  0  0  0
  183.9470  173.4210  136.3190 C   0  0  0  0  0  2  0  0  0  0  0  0
  182.0520  176.3210  139.0600 C   0  0  1  0  0  3  0  0  0  0  0  0
  181.2400  175.7100  136.9670 C   0  0  2  0  0  3  0  0  0  0  0  0
  182.9820  177.1770  139.7660 C   0  0  0  0  0  0  0  0  0  0  0  0
  179.9330  176.3450  140.4870 C   0  0  0  0  0  1  0  0  0  0  0  0
  183.5060  177.1650  137.4790 C   0  0  2  0  0  3  0  0  0  0  0  0
  1 21  1  6  0  0  0
  1  6  1  0  0  0  0
  2  8  2  0  0  0  0
  3 17  2  0  0  0  0
  4 20  1  0  0  0  0
  4 22  1  0  0  0  0
  5 27  1  0  0  0  0
  7  8  2  0  0  0  0
  8 14  1  0  0  0  0
  9 18  1  0  0  0  0
 10  8  1  0  0  0  0
 10 26  2  0  0  0  0
 11 15  2  0  0  0  0
 12 24  1  0  0  0  0
 13  9  2  0  0  0  0
 14  9  1  0  0  0  0
 15 23  1  0  0  0  0
 15 19  1  0  0  0  0
 16  1  1  0  0  0  0
 16 28  1  0  0  0  0
 17  5  1  0  0  0  0
 19 25  1  0  0  0  0
 20 16  1  0  0  0  0
 22 21  1  0  0  0  0
 23  6  1  0  0  0  0
 24  5  1  0  0  0  0
 24 26  1  0  0  0  0
 25 12  1  0  0  0  0
 25 17  1  0  0  0  0
 26 13  1  0  0  0  0
 28 12  1  0  0  0  0
 28 10  1  0  0  0  0
M  END
>  <MODEL>
2

>  <REMARK>
 VINA RESULT:      -6.1      5.093      8.828
  Name = 
  0 active torsions:
  status: ('A' for Active; 'I' for Inactive)
                            x       y       z     vdW  Elec       q    Type
                         _______ _______ _______ _____ _____    ______ ____

>  <TORSDO>
F 0

$$$$
=
 OpenBabel11122411593D

 28 32  0  0  1  0  0  0  0  0999 V2000
  183.7810  176.6820  138.7080 C   0  0  2  0  0  3  0  0  0  0  0  0
  186.6230  177.7540  140.6620 O   0  0  0  0  0  0  0  0  0  0  0  0
  178.9470  180.4210  140.4880 O   0  0  0  0  0  0  0  0  0  0  0  0
  185.9090  177.6820  136.9190 C   0  0  0  0  0  2  0  0  0  0  0  0
  180.6690  179.3430  141.7000 N   0  0  0  0  0  0  0  0  0  0  0  0
  182.3000  176.2940  138.8220 C   0  0  0  0  0  2  0  0  0  0  0  0
  186.4160  180.1020  141.3810 O   0  0  0  0  0  0  0  0  0  0  0  0
  185.8360  178.7220  141.4990 S   0  0  0  0  0  0  0  0  0  0  0  0
  184.6090  178.4560  143.9640 C   0  0  0  0  0  0  0  0  0  0  0  0
  184.1550  178.7310  141.0230 C   0  0  0  0  0  0  0  0  0  0  0  0
  181.5080  178.6580  136.4480 O   0  0  0  0  0  0  0  0  0  0  0  0
  182.1360  179.0860  139.9810 C   0  0  1  0  0  3  0  0  0  0  0  0
  183.4090  178.6300  143.3940 C   0  0  0  0  0  3  0  0  0  0  0  0
  185.8830  178.1830  143.2020 C   0  0  0  0  0  2  0  0  0  0  0  0
  181.0980  177.9770  137.4230 C   0  0  0  0  0  0  0  0  0  0  0  0
  183.9900  178.2050  138.4800 C   0  0  2  0  0  3  0  0  0  0  0  0
  180.0680  179.8460  140.5060 C   0  0  0  0  0  0  0  0  0  0  0  0
  184.6690  178.3950  145.4480 C   0  0  0  0  0  1  0  0  0  0  0  0
  180.3470  178.5950  138.4660 N   0  0  0  0  0  2  0  0  0  0  0  0
  185.4210  178.5580  138.0610 C   0  0  0  0  0  2  0  0  0  0  0  0
  184.4240  175.8280  137.6070 C   0  0  0  0  0  2  0  0  0  0  0  0
  185.8680  176.2280  137.3530 C   0  0  0  0  0  2  0  0  0  0  0  0
  181.4840  176.5400  137.5440 C   0  0  0  0  0  2  0  0  0  0  0  0
  181.9350  178.8950  141.2530 C   0  0  1  0  0  3  0  0  0  0  0  0
  180.9320  179.6430  139.2920 C   0  0  2  0  0  3  0  0  0  0  0  0
  183.1940  178.7000  141.9400 C   0  0  0  0  0  0  0  0  0  0  0  0
  180.3410  179.7630  143.0520 C   0  0  0  0  0  1  0  0  0  0  0  0
  183.5950  179.1090  139.6650 C   0  0  2  0  0  3  0  0  0  0  0  0
  1 21  1  6  0  0  0
  1  6  1  0  0  0  0
  2  8  2  0  0  0  0
  3 17  2  0  0  0  0
  4 22  1  0  0  0  0
  4 20  1  0  0  0  0
  5 27  1  0  0  0  0
  7  8  2  0  0  0  0
  8 14  1  0  0  0  0
  9 18  1  0  0  0  0
 10  8  1  0  0  0  0
 10 26  2  0  0  0  0
 11 15  2  0  0  0  0
 12 24  1  0  0  0  0
 13  9  2  0  0  0  0
 14  9  1  0  0  0  0
 15 23  1  0  0  0  0
 15 19  1  0  0  0  0
 16  1  1  0  0  0  0
 16 28  1  0  0  0  0
 17  5  1  0  0  0  0
 19 25  1  0  0  0  0
 20 16  1  0  0  0  0
 22 21  1  0  0  0  0
 23  6  1  0  0  0  0
 24  5  1  0  0  0  0
 24 26  1  0  0  0  0
 25 12  1  0  0  0  0
 25 17  1  0  0  0  0
 26 13  1  0  0  0  0
 28 12  1  0  0  0  0
 28 10  1  0  0  0  0
M  END
>  <MODEL>
3

>  <REMARK>
 VINA RESULT:      -5.6      5.134      8.979
  Name = 
  0 active torsions:
  status: ('A' for Active; 'I' for Inactive)
                            x       y       z     vdW  Elec       q    Type
                         _______ _______ _______ _____ _____    ______ ____

>  <TORSDO>
F 0

$$$$
=
 OpenBabel11122411593D

 28 32  0  0  1  0  0  0  0  0999 V2000
  185.8040  175.8910  137.1730 C   0  0  2  0  0  3  0  0  0  0  0  0
  189.1150  177.2420  137.6790 O   0  0  0  0  0  0  0  0  0  0  0  0
  181.8870  179.5940  140.5580 O   0  0  0  0  0  0  0  0  0  0  0  0
  186.9200  176.8000  134.5940 C   0  0  0  0  0  2  0  0  0  0  0  0
  184.0290  178.6970  141.0060 N   0  0  0  0  0  0  0  0  0  0  0  0
  184.5360  175.4590  137.9240 C   0  0  0  0  0  2  0  0  0  0  0  0
  189.0560  179.6380  138.2570 O   0  0  0  0  0  0  0  0  0  0  0  0
  188.6780  178.2530  138.7010 S   0  0  0  0  0  0  0  0  0  0  0  0
  188.6060  178.1690  141.4650 C   0  0  0  0  0  0  0  0  0  0  0  0
  186.9550  178.1560  138.9740 C   0  0  0  0  0  0  0  0  0  0  0  0
  182.6620  177.5650  135.9460 O   0  0  0  0  0  0  0  0  0  0  0  0
  184.6660  178.3380  138.8520 C   0  0  1  0  0  3  0  0  0  0  0  0
  187.2680  178.2450  141.4400 C   0  0  0  0  0  3  0  0  0  0  0  0
  189.4650  177.8750  140.2600 C   0  0  0  0  0  2  0  0  0  0  0  0
  182.7430  176.9610  137.0470 C   0  0  0  0  0  0  0  0  0  0  0  0
  185.7900  177.3920  136.7760 C   0  0  2  0  0  3  0  0  0  0  0  0
  182.9530  179.0660  140.1430 C   0  0  0  0  0  0  0  0  0  0  0  0
  189.2800  178.2480  142.7870 C   0  0  0  0  0  1  0  0  0  0  0  0
  182.4510  177.6430  138.2640 N   0  0  0  0  0  2  0  0  0  0  0  0
  186.8880  177.7590  135.7730 C   0  0  0  0  0  2  0  0  0  0  0  0
  185.9930  174.9640  135.9660 C   0  0  0  0  0  2  0  0  0  0  0  0
  187.1680  175.3920  135.1030 C   0  0  0  0  0  2  0  0  0  0  0  0
  183.2480  175.5560  137.0920 C   0  0  0  0  0  2  0  0  0  0  0  0
  185.0250  178.2580  140.1010 C   0  0  1  0  0  3  0  0  0  0  0  0
  183.2480  178.7840  138.6950 C   0  0  2  0  0  3  0  0  0  0  0  0
  186.4660  178.1730  140.2090 C   0  0  0  0  0  0  0  0  0  0  0  0
  184.2620  179.2270  142.3390 C   0  0  0  0  0  1  0  0  0  0  0  0
  185.8570  178.3860  137.9530 C   0  0  2  0  0  3  0  0  0  0  0  0
  1 21  1  6  0  0  0
  1  6  1  0  0  0  0
  2  8  2  0  0  0  0
  4 22  1  0  0  0  0
  4 20  1  0  0  0  0
  5 27  1  0  0  0  0
  7  8  2  0  0  0  0
  8 10  1  0  0  0  0
  8 14  1  0  0  0  0
  9 18  1  0  0  0  0
 10 26  2  0  0  0  0
 11 15  2  0  0  0  0
 12 24  1  0  0  0  0
 13  9  2  0  0  0  0
 14  9  1  0  0  0  0
 15 23  1  0  0  0  0
 15 19  1  0  0  0  0
 16  1  1  0  0  0  0
 16 28  1  0  0  0  0
 17  3  2  0  0  0  0
 17  5  1  0  0  0  0
 19 25  1  0  0  0  0
 20 16  1  0  0  0  0
 22 21  1  0  0  0  0
 23  6  1  0  0  0  0
 24 26  1  0  0  0  0
 24  5  1  0  0  0  0
 25 12  1  0  0  0  0
 25 17  1  0  0  0  0
 26 13  1  0  0  0  0
 28 12  1  0  0  0  0
 28 10  1  0  0  0  0
M  END
>  <MODEL>
4

>  <REMARK>
 VINA RESULT:      -5.3      3.525      7.413
  Name = 
  0 active torsions:
  status: ('A' for Active; 'I' for Inactive)
                            x       y       z     vdW  Elec       q    Type
                         _______ _______ _______ _____ _____    ______ ____

>  <TORSDO>
F 0

$$$$
=
 OpenBabel11122411593D

 28 32  0  0  1  0  0  0  0  0999 V2000
  187.8890  175.2010  137.3550 C   0  0  2  0  0  3  0  0  0  0  0  0
  191.0240  175.6340  139.0940 O   0  0  0  0  0  0  0  0  0  0  0  0
  184.2510  180.1270  139.0940 O   0  0  0  0  0  0  0  0  0  0  0  0
  190.0810  175.5330  135.4030 C   0  0  0  0  0  2  0  0  0  0  0  0
  185.7260  178.7220  140.2960 N   0  0  0  0  0  0  0  0  0  0  0  0
  186.3680  175.2040  137.5660 C   0  0  0  0  0  2  0  0  0  0  0  0
  191.4510  177.9960  139.6550 O   0  0  0  0  0  0  0  0  0  0  0  0
  190.5560  176.8150  139.8970 S   0  0  0  0  0  0  0  0  0  0  0  0
  189.4590  177.0040  142.4300 C   0  0  0  0  0  0  0  0  0  0  0  0
  188.9030  177.2180  139.5010 C   0  0  0  0  0  0  0  0  0  0  0  0
  186.0370  177.5540  135.0710 O   0  0  0  0  0  0  0  0  0  0  0  0
  186.9730  178.0080  138.5320 C   0  0  1  0  0  3  0  0  0  0  0  0
  188.3050  177.4410  141.9050 C   0  0  0  0  0  3  0  0  0  0  0  0
  190.5750  176.3780  141.6300 C   0  0  0  0  0  2  0  0  0  0  0  0
  185.5330  177.0530  136.1100 C   0  0  0  0  0  0  0  0  0  0  0  0
  188.4530  176.6070  137.0120 C   0  0  2  0  0  3  0  0  0  0  0  0
  185.1940  179.2920  139.0990 C   0  0  0  0  0  0  0  0  0  0  0  0
  189.5960  177.0140  143.9090 C   0  0  0  0  0  1  0  0  0  0  0  0
  185.0260  177.8970  137.1410 N   0  0  0  0  0  2  0  0  0  0  0  0
  189.8970  176.5670  136.5030 C   0  0  0  0  0  2  0  0  0  0  0  0
  188.2300  174.1530  136.2890 C   0  0  0  0  0  2  0  0  0  0  0  0
  189.7090  174.1630  135.9400 C   0  0  0  0  0  2  0  0  0  0  0  0
  185.5590  175.5740  136.3140 C   0  0  0  0  0  2  0  0  0  0  0  0
  186.8120  177.9460  139.8230 C   0  0  1  0  0  3  0  0  0  0  0  0
  185.9030  178.8100  137.8630 C   0  0  2  0  0  3  0  0  0  0  0  0
  188.0230  177.4800  140.4620 C   0  0  0  0  0  0  0  0  0  0  0  0
  185.5980  179.2860  141.6290 C   0  0  0  0  0  1  0  0  0  0  0  0
  188.3690  177.6470  138.1480 C   0  0  2  0  0  3  0  0  0  0  0  0
  1 21  1  6  0  0  0
  1  6  1  0  0  0  0
  2  8  2  0  0  0  0
  3 17  2  0  0  0  0
  4 22  1  0  0  0  0
  4 20  1  0  0  0  0
  5 27  1  0  0  0  0
  7  8  2  0  0  0  0
  8 14  1  0  0  0  0
  9 18  1  0  0  0  0
 10  8  1  0  0  0  0
 10 26  2  0  0  0  0
 11 15  2  0  0  0  0
 12 24  1  0  0  0  0
 13  9  2  0  0  0  0
 14  9  1  0  0  0  0
 15 23  1  0  0  0  0
 15 19  1  0  0  0  0
 16  1  1  0  0  0  0
 16 28  1  0  0  0  0
 17  5  1  0  0  0  0
 19 25  1  0  0  0  0
 20 16  1  0  0  0  0
 22 21  1  0  0  0  0
 23  6  1  0  0  0  0
 24  5  1  0  0  0  0
 24 26  1  0  0  0  0
 25 12  1  0  0  0  0
 25 17  1  0  0  0  0
 26 13  1  0  0  0  0
 28 12  1  0  0  0  0
 28 10  1  0  0  0  0
M  END
>  <MODEL>
5

>  <REMARK>
 VINA RESULT:      -5.3      2.708      6.781
  Name = 
  0 active torsions:
  status: ('A' for Active; 'I' for Inactive)
                            x       y       z     vdW  Elec       q    Type
                         _______ _______ _______ _____ _____    ______ ____

>  <TORSDO>
F 0

$$$$
=
 OpenBabel11122411593D

 28 32  0  0  1  0  0  0  0  0999 V2000
  186.4550  177.0980  144.6270 C   0  0  2  0  0  3  0  0  0  0  0  0
  183.1630  178.5430  144.9730 O   0  0  0  0  0  0  0  0  0  0  0  0
  188.5530  178.9220  138.9010 O   0  0  0  0  0  0  0  0  0  0  0  0
  186.4170  178.9720  146.9100 C   0  0  0  0  0  2  0  0  0  0  0  0
  186.4470  178.1680  139.6700 N   0  0  0  0  0  0  0  0  0  0  0  0
  187.3380  176.2940  143.6620 C   0  0  0  0  0  2  0  0  0  0  0  0
  182.8900  180.5620  143.5840 O   0  0  0  0  0  0  0  0  0  0  0  0
  183.1170  179.0770  143.5690 S   0  0  0  0  0  0  0  0  0  0  0  0
  182.0900  178.0210  141.2270 C   0  0  0  0  0  0  0  0  0  0  0  0
  184.5930  178.7000  142.7130 C   0  0  0  0  0  0  0  0  0  0  0  0
  189.7550  178.7390  143.8520 O   0  0  0  0  0  0  0  0  0  0  0  0
  186.7320  178.6590  141.8720 C   0  0  1  0  0  3  0  0  0  0  0  0
  183.3240  177.9530  140.7080 C   0  0  0  0  0  3  0  0  0  0  0  0
  181.7920  178.2650  142.6870 C   0  0  0  0  0  2  0  0  0  0  0  0
  189.2680  177.8000  143.1700 C   0  0  0  0  0  0  0  0  0  0  0  0
  186.5640  178.6320  144.4090 C   0  0  2  0  0  3  0  0  0  0  0  0
  187.7620  178.6940  139.8540 C   0  0  0  0  0  0  0  0  0  0  0  0
  180.9440  177.7040  140.3360 C   0  0  0  0  0  1  0  0  0  0  0  0
  189.0260  177.9750  141.7760 N   0  0  0  0  0  2  0  0  0  0  0  0
  185.9400  179.4460  145.5470 C   0  0  0  0  0  2  0  0  0  0  0  0
  186.7980  176.6810  146.0630 C   0  0  0  0  0  2  0  0  0  0  0  0
  186.0450  177.5120  147.0880 C   0  0  0  0  0  2  0  0  0  0  0  0
  188.8440  176.5340  143.8380 C   0  0  0  0  0  2  0  0  0  0  0  0
  185.9110  178.1860  140.9790 C   0  0  1  0  0  3  0  0  0  0  0  0
  188.0770  178.9730  141.2990 C   0  0  2  0  0  3  0  0  0  0  0  0
  184.5510  178.2290  141.4710 C   0  0  0  0  0  0  0  0  0  0  0  0
  185.6840  178.2180  138.4340 C   0  0  0  0  0  1  0  0  0  0  0  0
  185.9950  179.1510  143.0730 C   0  0  2  0  0  3  0  0  0  0  0  0
  1  6  1  6  0  0  0
  1 21  1  0  0  0  0
  3 17  2  0  0  0  0
  4 22  1  0  0  0  0
  5 17  1  0  0  0  0
  5 24  1  0  0  0  0
  6 23  1  0  0  0  0
  8  7  2  0  0  0  0
  8  2  2  0  0  0  0
  9 14  1  0  0  0  0
 10 28  1  0  0  0  0
 10  8  1  0  0  0  0
 12 28  1  0  0  0  0
 13  9  2  0  0  0  0
 13 26  1  0  0  0  0
 14  8  1  0  0  0  0
 15 23  1  0  0  0  0
 15 11  2  0  0  0  0
 16  1  1  0  0  0  0
 16 20  1  0  0  0  0
 17 25  1  0  0  0  0
 18  9  1  0  0  0  0
 19 15  1  0  0  0  0
 20  4  1  0  0  0  0
 21 22  1  0  0  0  0
 24 26  1  0  0  0  0
 24 12  1  0  0  0  0
 25 19  1  0  0  0  0
 25 12  1  0  0  0  0
 26 10  2  0  0  0  0
 27  5  1  0  0  0  0
 28 16  1  0  0  0  0
M  END
>  <MODEL>
6

>  <REMARK>
 VINA RESULT:      -5.3      3.418      5.335
  Name = 
  0 active torsions:
  status: ('A' for Active; 'I' for Inactive)
                            x       y       z     vdW  Elec       q    Type
                         _______ _______ _______ _____ _____    ______ ____

>  <TORSDO>
F 0

$$$$
=
 OpenBabel11122411593D

 28 32  0  0  1  0  0  0  0  0999 V2000
  188.4820  175.8960  135.2330 C   0  0  2  0  0  3  0  0  0  0  0  0
  186.7440  172.7420  134.9550 O   0  0  0  0  0  0  0  0  0  0  0  0
  185.0800  179.3920  139.3210 O   0  0  0  0  0  0  0  0  0  0  0  0
  190.2250  173.7050  136.1760 C   0  0  0  0  0  2  0  0  0  0  0  0
  184.4660  177.9500  137.5500 N   0  0  0  0  0  0  0  0  0  0  0  0
  188.2630  177.4150  135.1970 C   0  0  0  0  0  2  0  0  0  0  0  0
  185.3980  172.2500  136.9600 O   0  0  0  0  0  0  0  0  0  0  0  0
  185.5730  173.1750  135.7900 S   0  0  0  0  0  0  0  0  0  0  0  0
  183.1200  174.2550  135.1060 C   0  0  0  0  0  0  0  0  0  0  0  0
  185.7800  174.8190  136.3460 C   0  0  0  0  0  0  0  0  0  0  0  0
  189.7720  177.6940  138.2790 O   0  0  0  0  0  0  0  0  0  0  0  0
  186.3840  176.7310  137.4700 C   0  0  1  0  0  3  0  0  0  0  0  0
  183.4420  175.3990  135.7260 C   0  0  0  0  0  3  0  0  0  0  0  0
  184.1030  173.1600  134.7740 C   0  0  0  0  0  2  0  0  0  0  0  0
  188.9680  178.2070  137.4580 C   0  0  0  0  0  0  0  0  0  0  0  0
  188.3190  175.2960  136.6560 C   0  0  2  0  0  3  0  0  0  0  0  0
  185.3800  178.4720  138.5140 C   0  0  0  0  0  0  0  0  0  0  0  0
  181.7320  174.1110  134.5940 C   0  0  0  0  0  1  0  0  0  0  0  0
  187.6990  178.6860  137.8990 N   0  0  0  0  0  2  0  0  0  0  0  0
  188.8300  173.8550  136.7630 C   0  0  0  0  0  2  0  0  0  0  0  0
  189.8530  175.5870  134.6170 C   0  0  0  0  0  2  0  0  0  0  0  0
  190.1960  174.1100  134.7140 C   0  0  0  0  0  2  0  0  0  0  0  0
  189.2950  178.2190  136.0010 C   0  0  0  0  0  2  0  0  0  0  0  0
  185.1950  176.8880  136.9630 C   0  0  1  0  0  3  0  0  0  0  0  0
  186.7160  177.7820  138.4800 C   0  0  2  0  0  3  0  0  0  0  0  0
  184.7760  175.6860  136.2750 C   0  0  0  0  0  0  0  0  0  0  0  0
  183.0180  178.0570  137.6140 C   0  0  0  0  0  1  0  0  0  0  0  0
  186.8900  175.3470  137.2340 C   0  0  2  0  0  3  0  0  0  0  0  0
  1 21  1  1  0  0  0
  1 16  1  0  0  0  0
  2  8  2  0  0  0  0
  4 20  1  0  0  0  0
  5 27  1  0  0  0  0
  5 17  1  0  0  0  0
  6  1  1  0  0  0  0
  6 23  1  0  0  0  0
  8 10  1  0  0  0  0
  8  7  2  0  0  0  0
  9 13  2  0  0  0  0
 10 28  1  0  0  0  0
 12 25  1  0  0  0  0
 13 26  1  0  0  0  0
 14  9  1  0  0  0  0
 14  8  1  0  0  0  0
 15 19  1  0  0  0  0
 15 11  2  0  0  0  0
 16 20  1  0  0  0  0
 16 28  1  0  0  0  0
 17  3  2  0  0  0  0
 18  9  1  0  0  0  0
 19 25  1  0  0  0  0
 21 22  1  0  0  0  0
 22  4  1  0  0  0  0
 23 15  1  0  0  0  0
 24 12  1  0  0  0  0
 24  5  1  0  0  0  0
 25 17  1  0  0  0  0
 26 10  2  0  0  0  0
 26 24  1  0  0  0  0
 28 12  1  0  0  0  0
M  END
>  <MODEL>
7

>  <REMARK>
 VINA RESULT:      -5.2      4.001      6.934
  Name = 
  0 active torsions:
  status: ('A' for Active; 'I' for Inactive)
                            x       y       z     vdW  Elec       q    Type
                         _______ _______ _______ _____ _____    ______ ____

>  <TORSDO>
F 0

$$$$
=
 OpenBabel11122411593D

 28 32  0  0  1  0  0  0  0  0999 V2000
  182.6670  175.8950  138.5550 C   0  0  2  0  0  3  0  0  0  0  0  0
  185.8010  177.2060  137.3290 O   0  0  0  0  0  0  0  0  0  0  0  0
  180.7950  179.8930  143.1400 O   0  0  0  0  0  0  0  0  0  0  0  0
  182.4070  176.6120  135.7010 C   0  0  0  0  0  2  0  0  0  0  0  0
  182.9020  178.9810  142.5720 N   0  0  0  0  0  0  0  0  0  0  0  0
  181.9160  175.5410  139.8470 C   0  0  0  0  0  2  0  0  0  0  0  0
  185.9970  179.6340  137.7030 O   0  0  0  0  0  0  0  0  0  0  0  0
  185.8930  178.2900  138.3650 S   0  0  0  0  0  0  0  0  0  0  0  0
  187.1490  178.3860  140.8280 C   0  0  0  0  0  0  0  0  0  0  0  0
  184.5100  178.2470  139.4320 C   0  0  0  0  0  0  0  0  0  0  0  0
  179.3000  177.5540  138.8650 O   0  0  0  0  0  0  0  0  0  0  0  0
  182.4390  178.4700  140.4050 C   0  0  1  0  0  3  0  0  0  0  0  0
  185.9610  178.4890  141.4390 C   0  0  0  0  0  3  0  0  0  0  0  0
  187.3330  177.9960  139.3820 C   0  0  0  0  0  2  0  0  0  0  0  0
  179.9040  177.0210  139.8310 C   0  0  0  0  0  0  0  0  0  0  0  0
  182.4470  177.3680  138.1130 C   0  0  2  0  0  3  0  0  0  0  0  0
  181.5400  179.3160  142.3040 C   0  0  0  0  0  0  0  0  0  0  0  0
  188.3720  178.5350  141.6600 C   0  0  0  0  0  1  0  0  0  0  0  0
  180.2200  177.7870  140.9920 N   0  0  0  0  0  2  0  0  0  0  0  0
  182.9290  177.6460  136.6860 C   0  0  0  0  0  2  0  0  0  0  0  0
  182.2680  174.8890  137.4680 C   0  0  0  0  0  2  0  0  0  0  0  0
  182.8840  175.2350  136.1230 C   0  0  0  0  0  2  0  0  0  0  0  0
  180.3860  175.6120  139.7250 C   0  0  0  0  0  2  0  0  0  0  0  0
  183.3510  178.4630  141.3340 C   0  0  1  0  0  3  0  0  0  0  0  0
  181.1120  178.9350  140.9130 C   0  0  2  0  0  3  0  0  0  0  0  0
  184.6690  178.3540  140.7470 C   0  0  0  0  0  0  0  0  0  0  0  0
  183.7360  179.5910  143.5950 C   0  0  0  0  0  1  0  0  0  0  0  0
  183.0550  178.4340  139.0460 C   0  0  2  0  0  3  0  0  0  0  0  0
  1 21  1  6  0  0  0
  1  6  1  0  0  0  0
  2  8  2  0  0  0  0
  4 22  1  0  0  0  0
  4 20  1  0  0  0  0
  5 27  1  0  0  0  0
  7  8  2  0  0  0  0
  8 14  1  0  0  0  0
  8 10  1  0  0  0  0
  9 13  2  0  0  0  0
  9 18  1  0  0  0  0
 10 26  2  0  0  0  0
 11 15  2  0  0  0  0
 12 25  1  0  0  0  0
 12 24  1  0  0  0  0
 14  9  1  0  0  0  0
 15 19  1  0  0  0  0
 16  1  1  0  0  0  0
 16 28  1  0  0  0  0
 17  5  1  0  0  0  0
 17  3  2  0  0  0  0
 20 16  1  0  0  0  0
 22 21  1  0  0  0  0
 23 15  1  0  0  0  0
 23  6  1  0  0  0  0
 24  5  1  0  0  0  0
 25 19  1  0  0  0  0
 25 17  1  0  0  0  0
 26 24  1  0  0  0  0
 26 13  1  0  0  0  0
 28 10  1  0  0  0  0
 28 12  1  0  0  0  0
M  END
>  <MODEL>
8

>  <REMARK>
 VINA RESULT:      -5.2      4.971      8.324
  Name = 
  0 active torsions:
  status: ('A' for Active; 'I' for Inactive)
                            x       y       z     vdW  Elec       q    Type
                         _______ _______ _______ _____ _____    ______ ____

>  <TORSDO>
F 0

$$$$
=
 OpenBabel11122411593D

 28 32  0  0  1  0  0  0  0  0999 V2000
  188.0560  177.5250  135.9980 C   0  0  2  0  0  3  0  0  0  0  0  0
  185.6880  175.1850  134.6000 O   0  0  0  0  0  0  0  0  0  0  0  0
  185.5360  179.4500  141.5170 O   0  0  0  0  0  0  0  0  0  0  0  0
  189.3120  174.8640  135.7360 C   0  0  0  0  0  2  0  0  0  0  0  0
  184.6020  179.0620  139.3780 N   0  0  0  0  0  0  0  0  0  0  0  0
  188.1630  178.9200  136.6320 C   0  0  0  0  0  2  0  0  0  0  0  0
  184.3000  174.1250  136.3400 O   0  0  0  0  0  0  0  0  0  0  0  0
  184.6480  175.4180  135.6590 S   0  0  0  0  0  0  0  0  0  0  0  0
  182.4670  177.1170  135.7600 C   0  0  0  0  0  0  0  0  0  0  0  0
  185.2060  176.5860  136.8320 C   0  0  0  0  0  0  0  0  0  0  0  0
  189.7470  177.5470  139.3630 O   0  0  0  0  0  0  0  0  0  0  0  0
  186.2190  177.6720  138.5880 C   0  0  1  0  0  3  0  0  0  0  0  0
  183.0340  177.7960  136.7670 C   0  0  0  0  0  3  0  0  0  0  0  0
  183.1920  176.1160  134.8940 C   0  0  0  0  0  2  0  0  0  0  0  0
  189.0550  178.5040  138.9260 C   0  0  0  0  0  0  0  0  0  0  0  0
  187.7940  176.4060  137.0430 C   0  0  2  0  0  3  0  0  0  0  0  0
  185.6210  178.9350  140.3700 C   0  0  0  0  0  0  0  0  0  0  0  0
  181.0730  177.4670  135.3860 C   0  0  0  0  0  1  0  0  0  0  0  0
  187.9240  178.9670  139.6600 N   0  0  0  0  0  2  0  0  0  0  0  0
  187.9910  174.9970  136.4760 C   0  0  0  0  0  2  0  0  0  0  0  0
  189.3210  177.2710  135.1680 C   0  0  0  0  0  2  0  0  0  0  0  0
  189.3460  175.8640  134.5950 C   0  0  0  0  0  2  0  0  0  0  0  0
  189.3540  179.0890  137.5860 C   0  0  0  0  0  2  0  0  0  0  0  0
  185.0820  178.2480  138.3240 C   0  0  1  0  0  3  0  0  0  0  0  0
  186.7810  178.0970  139.9060 C   0  0  2  0  0  3  0  0  0  0  0  0
  184.4070  177.5650  137.2410 C   0  0  0  0  0  0  0  0  0  0  0  0
  183.2110  179.3940  139.6350 C   0  0  0  0  0  1  0  0  0  0  0  0
  186.4170  176.4620  137.7360 C   0  0  2  0  0  3  0  0  0  0  0  0
  1 21  1  1  0  0  0
  1  6  1  0  0  0  0
  1 16  1  0  0  0  0
  2  8  2  0  0  0  0
  4 20  1  0  0  0  0
  5 27  1  0  0  0  0
  5 17  1  0  0  0  0
  6 23  1  0  0  0  0
  8  7  2  0  0  0  0
  8 10  1  0  0  0  0
  9 13  2  0  0  0  0
 10 26  2  0  0  0  0
 10 28  1  0  0  0  0
 12 25  1  0  0  0  0
 13 26  1  0  0  0  0
 14  8  1  0  0  0  0
 14  9  1  0  0  0  0
 15 11  2  0  0  0  0
 15 19  1  0  0  0  0
 16 28  1  0  0  0  0
 17  3  2  0  0  0  0
 18  9  1  0  0  0  0
 19 25  1  0  0  0  0
 20 16  1  0  0  0  0
 22 21  1  0  0  0  0
 22  4  1  0  0  0  0
 23 15  1  0  0  0  0
 24 12  1  0  0  0  0
 24  5  1  0  0  0  0
 25 17  1  0  0  0  0
 26 24  1  0  0  0  0
 28 12  1  0  0  0  0
M  END
>  <MODEL>
9

>  <REMARK>
 VINA RESULT:      -5.1      3.518      6.445
  Name = 
  0 active torsions:
  status: ('A' for Active; 'I' for Inactive)
                            x       y       z     vdW  Elec       q    Type
                         _______ _______ _______ _____ _____    ______ ____

>  <TORSDO>
F 0

$$$$
