=
 OpenBabel11122410253D

 30 35  0  0  1  0  0  0  0  0999 V2000
  186.4280  178.3750  144.7550 C   0  0  0  0  0  0  0  0  0  0  0  0
  186.6420  178.5830  147.2330 C   0  0  0  0  0  0  0  0  0  0  0  0
  190.2430  176.4800  144.4500 C   0  0  0  0  0  2  0  0  0  0  0  0
  187.0000  177.9850  143.5200 C   0  0  0  0  0  0  0  0  0  0  0  0
  185.0770  179.0340  144.7240 C   0  0  0  0  0  2  0  0  0  0  0  0
  184.1300  178.3850  141.3120 O   0  0  0  0  0  0  0  0  0  0  0  0
  188.3270  178.7740  140.9410 C   0  0  1  0  0  3  0  0  0  0  0  0
  184.8220  178.3150  142.3660 C   0  0  0  0  0  0  0  0  0  0  0  0
  189.4060  177.8860  141.4120 N   0  0  2  0  0  0  0  0  0  0  0  0
  190.2180  176.1440  142.9560 C   0  0  1  0  0  3  0  0  0  0  0  0
  184.1520  178.3560  143.7190 C   0  0  2  0  0  3  0  0  0  0  0  0
  186.2520  178.1430  142.2920 N   0  0  0  0  0  0  0  0  0  0  0  0
  187.3900  178.3680  148.3930 C   0  0  0  0  0  3  0  0  0  0  0  0
  189.9090  177.2770  140.1960 C   0  0  0  0  0  2  0  0  0  0  0  0
  188.6260  179.1880  139.5730 N   0  0  0  0  0  2  0  0  0  0  0  0
  185.4260  179.1670  147.3680 F   0  0  0  0  0  0  0  0  0  0  0  0
  188.9590  177.1830  144.6860 C   0  0  0  0  0  0  0  0  0  0  0  0
  188.6460  177.7670  148.3270 C   0  0  0  0  0  3  0  0  0  0  0  0
  187.1520  178.1920  145.9700 C   0  0  0  0  0  0  0  0  0  0  0  0
  188.2690  177.3870  143.5230 C   0  0  0  0  0  0  0  0  0  0  0  0
  190.1130  174.7630  142.7940 O   0  0  0  0  0  1  0  0  0  0  0  0
  188.9820  176.8240  142.3400 C   0  0  1  0  0  3  0  0  0  0  0  0
  189.6430  178.2670  139.0910 C   0  0  0  0  0  2  0  0  0  0  0  0
  186.3940  177.6950  139.9950 O   0  0  0  0  0  0  0  0  0  0  0  0
  189.1670  177.3740  147.0970 C   0  0  0  0  0  3  0  0  0  0  0  0
  188.4380  177.5820  145.9210 C   0  0  0  0  0  0  0  0  0  0  0  0
  186.9370  178.1820  141.0250 C   0  0  0  0  0  0  0  0  0  0  0  0
  182.8480  179.0930  143.6950 C   0  0  0  0  0  3  0  0  0  0  0  0
  180.4110  179.1970  143.8330 C   0  0  0  0  0  1  0  0  0  0  0  0
  181.6960  178.4470  143.8590 C   0  0  0  0  0  3  0  0  0  0  0  0
  1 19  1  0  0  0  0
  2 16  1  0  0  0  0
  2 13  1  0  0  0  0
  3 17  1  0  0  0  0
  4 20  1  0  0  0  0
  4  1  2  0  0  0  0
  5  1  1  0  0  0  0
  6  8  2  0  0  0  0
  7 15  1  6  0  0  0
  7 27  1  0  0  0  0
  7  9  1  0  0  0  0
  8 11  1  0  0  0  0
  9 14  1  6  0  0  0
  9 22  1  0  0  0  0
 10 21  1  1  0  0  0
 10  3  1  0  0  0  0
 11 28  1  6  0  0  0
 11  5  1  0  0  0  0
 12  8  1  0  0  0  0
 12  4  1  0  0  0  0
 17 26  1  0  0  0  0
 18 13  2  0  0  0  0
 19  2  2  0  0  0  0
 20 17  2  0  0  0  0
 22 10  1  0  0  0  0
 22 20  1  1  0  0  0
 23 15  1  0  0  0  0
 23 14  1  0  0  0  0
 24 27  2  0  0  0  0
 25 18  1  0  0  0  0
 26 19  1  0  0  0  0
 26 25  2  0  0  0  0
 27 12  1  0  0  0  0
 28 30  2  0  0  0  0
 29 30  1  0  0  0  0
M  END
>  <MODEL>
1

>  <REMARK>
 VINA RESULT:     -10.8      0.000      0.000
  Name = 
  1 active torsions:
  status: ('A' for Active; 'I' for Inactive)
    1  A    between atoms: C_11  and  C_28
                            x       y       z     vdW  Elec       q    Type
                         _______ _______ _______ _____ _____    ______ ____

>  <TORSDO>
F 1

$$$$
=
 OpenBabel11122410253D

 30 35  0  0  1  0  0  0  0  0999 V2000
  187.9400  177.8890  142.2210 C   0  0  0  0  0  0  0  0  0  0  0  0
  185.6740  178.2660  143.1970 C   0  0  0  0  0  0  0  0  0  0  0  0
  186.4950  178.5690  138.2610 C   0  0  0  0  0  2  0  0  0  0  0  0
  188.7610  177.7890  141.0720 C   0  0  0  0  0  0  0  0  0  0  0  0
  188.5730  177.6240  143.5590 C   0  0  0  0  0  2  0  0  0  0  0  0
  192.0500  177.6150  142.6280 O   0  0  0  0  0  0  0  0  0  0  0  0
  190.2580  176.0510  139.1280 C   0  0  1  0  0  3  0  0  0  0  0  0
  190.8040  177.7640  142.4900 C   0  0  0  0  0  0  0  0  0  0  0  0
  189.4000  176.7120  138.1270 N   0  0  2  0  0  0  0  0  0  0  0  0
  187.8310  178.5110  137.5120 C   0  0  1  0  0  3  0  0  0  0  0  0
  189.9630  178.2440  143.6480 C   0  0  2  0  0  3  0  0  0  0  0  0
  190.1770  177.5280  141.2120 N   0  0  0  0  0  0  0  0  0  0  0  0
  184.3220  178.5620  143.0060 C   0  0  0  0  0  3  0  0  0  0  0  0
  190.2600  176.8390  136.9650 C   0  0  0  0  0  2  0  0  0  0  0  0
  191.2520  175.2410  138.4310 N   0  0  0  0  0  2  0  0  0  0  0  0
  186.1030  178.0770  144.4690 F   0  0  0  0  0  0  0  0  0  0  0  0
  186.8600  178.3130  139.6750 C   0  0  0  0  0  0  0  0  0  0  0  0
  183.8140  178.7730  141.7260 C   0  0  0  0  0  3  0  0  0  0  0  0
  186.5500  178.1750  142.0860 C   0  0  0  0  0  0  0  0  0  0  0  0
  188.1870  178.0110  139.8120 C   0  0  0  0  0  0  0  0  0  0  0  0
  188.1530  179.7830  137.0400 O   0  0  0  0  0  1  0  0  0  0  0  0
  188.9090  178.0480  138.5080 C   0  0  1  0  0  3  0  0  0  0  0  0
  191.2530  175.7080  137.0540 C   0  0  0  0  0  2  0  0  0  0  0  0
  192.1330  177.3270  139.9360 O   0  0  0  0  0  0  0  0  0  0  0  0
  184.6570  178.6900  140.6200 C   0  0  0  0  0  3  0  0  0  0  0  0
  186.0140  178.3920  140.7840 C   0  0  0  0  0  0  0  0  0  0  0  0
  190.9290  176.9900  140.1070 C   0  0  0  0  0  0  0  0  0  0  0  0
  190.5590  177.8960  144.9780 C   0  0  0  0  0  3  0  0  0  0  0  0
  190.4920  176.8260  147.1720 C   0  0  0  0  0  1  0  0  0  0  0  0
  189.8820  177.1610  145.8570 C   0  0  0  0  0  3  0  0  0  0  0  0
  1  5  1  0  0  0  0
  2 16  1  0  0  0  0
  3 17  1  0  0  0  0
  4 12  1  0  0  0  0
  4  1  2  0  0  0  0
  5 11  1  0  0  0  0
  7 15  1  6  0  0  0
  7 27  1  0  0  0  0
  8  6  2  0  0  0  0
  8 11  1  0  0  0  0
  9 14  1  6  0  0  0
  9 22  1  0  0  0  0
  9  7  1  0  0  0  0
 10 21  1  1  0  0  0
 10  3  1  0  0  0  0
 10 22  1  0  0  0  0
 11 28  1  1  0  0  0
 12  8  1  0  0  0  0
 13  2  1  0  0  0  0
 14 23  1  0  0  0  0
 17 20  2  0  0  0  0
 17 26  1  0  0  0  0
 18 13  2  0  0  0  0
 19  1  1  0  0  0  0
 19  2  2  0  0  0  0
 20  4  1  0  0  0  0
 22 20  1  1  0  0  0
 23 15  1  0  0  0  0
 24 27  2  0  0  0  0
 25 26  2  0  0  0  0
 25 18  1  0  0  0  0
 26 19  1  0  0  0  0
 27 12  1  0  0  0  0
 28 30  2  0  0  0  0
 30 29  1  0  0  0  0
M  END
>  <MODEL>
2

>  <REMARK>
 VINA RESULT:     -10.1      2.557      5.865
  Name = 
  1 active torsions:
  status: ('A' for Active; 'I' for Inactive)
    1  A    between atoms: C_11  and  C_28
                            x       y       z     vdW  Elec       q    Type
                         _______ _______ _______ _____ _____    ______ ____

>  <TORSDO>
F 1

$$$$
=
 OpenBabel11122410253D

 30 35  0  0  1  0  0  0  0  0999 V2000
  185.8390  178.2440  142.7650 C   0  0  0  0  0  0  0  0  0  0  0  0
  186.7590  178.1720  145.0850 C   0  0  0  0  0  0  0  0  0  0  0  0
  181.8840  178.9490  144.2110 C   0  0  0  0  0  2  0  0  0  0  0  0
  184.7160  178.3620  141.9120 C   0  0  0  0  0  0  0  0  0  0  0  0
  187.1790  177.9950  142.1280 C   0  0  0  0  0  2  0  0  0  0  0  0
  186.3710  178.6280  138.6780 O   0  0  0  0  0  0  0  0  0  0  0  0
  182.7170  177.0350  140.1000 C   0  0  1  0  0  3  0  0  0  0  0  0
  186.1990  178.5780  139.9280 C   0  0  0  0  0  0  0  0  0  0  0  0
  181.7310  177.6130  141.0330 N   0  0  2  0  0  0  0  0  0  0  0  0
  181.1800  179.1650  142.8670 C   0  0  1  0  0  3  0  0  0  0  0  0
  187.3560  178.8300  140.8640 C   0  0  2  0  0  3  0  0  0  0  0  0
  184.8880  178.3300  140.4770 N   0  0  0  0  0  0  0  0  0  0  0  0
  186.5410  178.2520  146.4620 C   0  0  0  0  0  3  0  0  0  0  0  0
  180.6110  177.9610  140.1800 C   0  0  0  0  0  2  0  0  0  0  0  0
  182.0040  176.4510  138.9690 N   0  0  0  0  0  2  0  0  0  0  0  0
  188.0300  177.9690  144.6600 F   0  0  0  0  0  0  0  0  0  0  0  0
  183.2900  178.6590  143.8420 C   0  0  0  0  0  0  0  0  0  0  0  0
  185.2590  178.4650  146.9680 C   0  0  0  0  0  3  0  0  0  0  0  0
  185.6750  178.3050  144.1800 C   0  0  0  0  0  0  0  0  0  0  0  0
  183.4530  178.5730  142.4860 C   0  0  0  0  0  0  0  0  0  0  0  0
  180.8030  180.5030  142.7520 O   0  0  0  0  0  1  0  0  0  0  0  0
  182.1800  178.8190  141.7500 C   0  0  1  0  0  3  0  0  0  0  0  0
  180.6610  177.0070  139.0130 C   0  0  0  0  0  2  0  0  0  0  0  0
  183.6700  178.5450  138.4850 O   0  0  0  0  0  0  0  0  0  0  0  0
  184.1810  178.6000  146.0980 C   0  0  0  0  0  3  0  0  0  0  0  0
  184.3720  178.5190  144.7150 C   0  0  0  0  0  0  0  0  0  0  0  0
  183.7770  178.0030  139.6190 C   0  0  0  0  0  0  0  0  0  0  0  0
  188.6800  178.4940  140.2500 C   0  0  0  0  0  3  0  0  0  0  0  0
  190.7150  177.1530  140.0780 C   0  0  0  0  0  1  0  0  0  0  0  0
  189.4010  177.4710  140.7020 C   0  0  0  0  0  3  0  0  0  0  0  0
  1 19  1  0  0  0  0
  2 13  1  0  0  0  0
  4 20  1  0  0  0  0
  4  1  2  0  0  0  0
  5  1  1  0  0  0  0
  6  8  2  0  0  0  0
  7 15  1  6  0  0  0
  7  9  1  0  0  0  0
  8 12  1  0  0  0  0
  8 11  1  0  0  0  0
  9 14  1  6  0  0  0
  9 22  1  0  0  0  0
 10 21  1  6  0  0  0
 10  3  1  0  0  0  0
 11 28  1  6  0  0  0
 11  5  1  0  0  0  0
 12  4  1  0  0  0  0
 13 18  2  0  0  0  0
 15 23  1  0  0  0  0
 16  2  1  0  0  0  0
 17  3  1  0  0  0  0
 17 26  1  0  0  0  0
 19 26  1  0  0  0  0
 19  2  2  0  0  0  0
 20 17  2  0  0  0  0
 22 20  1  1  0  0  0
 22 10  1  0  0  0  0
 23 14  1  0  0  0  0
 24 27  2  0  0  0  0
 25 18  1  0  0  0  0
 26 25  2  0  0  0  0
 27  7  1  0  0  0  0
 27 12  1  0  0  0  0
 28 30  2  0  0  0  0
 29 30  1  0  0  0  0
M  END
>  <MODEL>
3

>  <REMARK>
 VINA RESULT:     -10.0      2.504      6.151
  Name = 
  1 active torsions:
  status: ('A' for Active; 'I' for Inactive)
    1  A    between atoms: C_11  and  C_28
                            x       y       z     vdW  Elec       q    Type
                         _______ _______ _______ _____ _____    ______ ____

>  <TORSDO>
F 1

$$$$
=
 OpenBabel11122410253D

 30 35  0  0  1  0  0  0  0  0999 V2000
  188.0140  177.5930  142.5980 C   0  0  0  0  0  0  0  0  0  0  0  0
  189.4590  176.9190  144.5190 C   0  0  0  0  0  0  0  0  0  0  0  0
  184.8370  178.7360  145.2130 C   0  0  0  0  0  2  0  0  0  0  0  0
  186.7670  178.0730  142.1330 C   0  0  0  0  0  0  0  0  0  0  0  0
  189.0490  177.2230  141.5720 C   0  0  0  0  0  2  0  0  0  0  0  0
  187.5470  178.6280  138.6180 O   0  0  0  0  0  0  0  0  0  0  0  0
  184.1190  177.5030  140.8300 C   0  0  1  0  0  3  0  0  0  0  0  0
  187.6960  178.3780  139.8460 C   0  0  0  0  0  0  0  0  0  0  0  0
  183.5670  178.0690  142.0750 N   0  0  2  0  0  0  0  0  0  0  0  0
  183.8800  179.3250  144.1720 C   0  0  1  0  0  3  0  0  0  0  0  0
  189.0820  178.2320  140.4280 C   0  0  2  0  0  3  0  0  0  0  0  0
  186.5500  178.2800  140.7180 N   0  0  0  0  0  0  0  0  0  0  0  0
  189.6280  176.7800  145.8990 C   0  0  0  0  0  3  0  0  0  0  0  0
  182.3760  178.7710  141.6380 C   0  0  0  0  0  2  0  0  0  0  0  0
  183.0230  177.2830  139.8900 N   0  0  0  0  0  2  0  0  0  0  0  0
  190.4950  176.5670  143.7200 F   0  0  0  0  0  0  0  0  0  0  0  0
  185.9950  178.2640  144.4160 C   0  0  0  0  0  0  0  0  0  0  0  0
  188.6050  177.1280  146.7800 C   0  0  0  0  0  3  0  0  0  0  0  0
  188.2390  177.4170  143.9950 C   0  0  0  0  0  0  0  0  0  0  0  0
  185.7790  178.4040  143.0720 C   0  0  0  0  0  0  0  0  0  0  0  0
  183.8040  180.7070  144.3430 O   0  0  0  0  0  1  0  0  0  0  0  0
  184.4510  179.0150  142.7770 C   0  0  1  0  0  3  0  0  0  0  0  0
  181.9020  178.0590  140.3960 C   0  0  0  0  0  2  0  0  0  0  0  0
  184.9440  179.0840  139.2120 O   0  0  0  0  0  0  0  0  0  0  0  0
  187.3990  177.6200  146.2870 C   0  0  0  0  0  3  0  0  0  0  0  0
  187.2040  177.7660  144.9090 C   0  0  0  0  0  0  0  0  0  0  0  0
  185.2120  178.3300  140.1870 C   0  0  0  0  0  0  0  0  0  0  0  0
  190.0880  177.7770  139.4170 C   0  0  0  0  0  3  0  0  0  0  0  0
  191.5550  176.0990  138.4180 C   0  0  0  0  0  1  0  0  0  0  0  0
  190.5550  176.5310  139.4320 C   0  0  0  0  0  3  0  0  0  0  0  0
  1 19  1  0  0  0  0
  2 13  1  0  0  0  0
  4  1  2  0  0  0  0
  4 20  1  0  0  0  0
  5  1  1  0  0  0  0
  6  8  2  0  0  0  0
  7 15  1  6  0  0  0
  7  9  1  0  0  0  0
  8 11  1  0  0  0  0
  8 12  1  0  0  0  0
  9 14  1  6  0  0  0
  9 22  1  0  0  0  0
 10 21  1  1  0  0  0
 10  3  1  0  0  0  0
 11 28  1  6  0  0  0
 11  5  1  0  0  0  0
 12  4  1  0  0  0  0
 13 18  2  0  0  0  0
 15 23  1  0  0  0  0
 16  2  1  0  0  0  0
 17 26  1  0  0  0  0
 17  3  1  0  0  0  0
 19  2  2  0  0  0  0
 19 26  1  0  0  0  0
 20 17  2  0  0  0  0
 22 20  1  1  0  0  0
 22 10  1  0  0  0  0
 23 14  1  0  0  0  0
 24 27  2  0  0  0  0
 25 18  1  0  0  0  0
 26 25  2  0  0  0  0
 27 12  1  0  0  0  0
 27  7  1  0  0  0  0
 28 30  2  0  0  0  0
 29 30  1  0  0  0  0
M  END
>  <MODEL>
4

>  <REMARK>
 VINA RESULT:     -10.0      2.267      5.678
  Name = 
  1 active torsions:
  status: ('A' for Active; 'I' for Inactive)
    1  A    between atoms: C_11  and  C_28
                            x       y       z     vdW  Elec       q    Type
                         _______ _______ _______ _____ _____    ______ ____

>  <TORSDO>
F 1

$$$$
=
 OpenBabel11122410253D

 30 35  0  0  1  0  0  0  0  0999 V2000
  189.0840  177.3030  143.6740 C   0  0  0  0  0  0  0  0  0  0  0  0
  190.9530  176.2060  144.9120 C   0  0  0  0  0  0  0  0  0  0  0  0
  187.0700  178.2810  147.3100 C   0  0  0  0  0  2  0  0  0  0  0  0
  187.8300  177.9590  143.7090 C   0  0  0  0  0  0  0  0  0  0  0  0
  189.6860  177.0160  142.3260 C   0  0  0  0  0  2  0  0  0  0  0  0
  187.5370  179.0030  140.2310 O   0  0  0  0  0  0  0  0  0  0  0  0
  184.8560  177.8380  143.2910 C   0  0  1  0  0  3  0  0  0  0  0  0
  188.0290  178.5470  141.3010 C   0  0  0  0  0  0  0  0  0  0  0  0
  184.8030  178.2420  144.7080 N   0  0  2  0  0  0  0  0  0  0  0  0
  185.9230  179.1120  146.7250 C   0  0  1  0  0  3  0  0  0  0  0  0
  189.4940  178.1890  141.3710 C   0  0  2  0  0  3  0  0  0  0  0  0
  187.2110  178.4090  142.4820 N   0  0  0  0  0  0  0  0  0  0  0  0
  191.5250  175.8320  146.1300 C   0  0  0  0  0  3  0  0  0  0  0  0
  183.6410  179.1060  144.7790 C   0  0  0  0  0  2  0  0  0  0  0  0
  183.5020  177.8690  142.7450 N   0  0  0  0  0  2  0  0  0  0  0  0
  191.6300  175.8990  143.7780 F   0  0  0  0  0  0  0  0  0  0  0  0
  187.8450  177.8460  146.1240 C   0  0  0  0  0  0  0  0  0  0  0  0
  190.8860  176.1210  147.3350 C   0  0  0  0  0  3  0  0  0  0  0  0
  189.7090  176.8860  144.8860 C   0  0  0  0  0  0  0  0  0  0  0  0
  187.2400  178.2190  144.9550 C   0  0  0  0  0  0  0  0  0  0  0  0
  186.0910  180.4490  147.0820 O   0  0  0  0  0  1  0  0  0  0  0  0
  185.9810  178.9820  145.1920 C   0  0  1  0  0  3  0  0  0  0  0  0
  182.7110  178.6480  143.6840 C   0  0  0  0  0  2  0  0  0  0  0  0
  185.3370  179.5820  141.7020 O   0  0  0  0  0  0  0  0  0  0  0  0
  189.6650  176.7890  147.3330 C   0  0  0  0  0  3  0  0  0  0  0  0
  189.0690  177.1710  146.1250 C   0  0  0  0  0  0  0  0  0  0  0  0
  185.7930  178.6600  142.4320 C   0  0  0  0  0  0  0  0  0  0  0  0
  190.0630  177.8180  140.0360 C   0  0  0  0  0  3  0  0  0  0  0  0
  191.2980  176.3330  138.5400 C   0  0  0  0  0  1  0  0  0  0  0  0
  190.7410  176.6840  139.8750 C   0  0  0  0  0  3  0  0  0  0  0  0
  1  4  2  0  0  0  0
  1 19  1  0  0  0  0
  2 13  1  0  0  0  0
  4 20  1  0  0  0  0
  5  1  1  0  0  0  0
  6  8  2  0  0  0  0
  7 27  1  6  0  0  0
  7  9  1  0  0  0  0
  8 11  1  0  0  0  0
  8 12  1  0  0  0  0
  9 14  1  6  0  0  0
  9 22  1  0  0  0  0
 10 21  1  6  0  0  0
 10  3  1  0  0  0  0
 11 28  1  6  0  0  0
 11  5  1  0  0  0  0
 12  4  1  0  0  0  0
 13 18  2  0  0  0  0
 15  7  1  0  0  0  0
 15 23  1  0  0  0  0
 16  2  1  0  0  0  0
 17 26  1  0  0  0  0
 17  3  1  0  0  0  0
 19  2  2  0  0  0  0
 19 26  1  0  0  0  0
 20 17  2  0  0  0  0
 22 20  1  1  0  0  0
 22 10  1  0  0  0  0
 23 14  1  0  0  0  0
 24 27  2  0  0  0  0
 25 18  1  0  0  0  0
 26 25  2  0  0  0  0
 27 12  1  0  0  0  0
 29 30  1  0  0  0  0
 30 28  2  0  0  0  0
M  END
>  <MODEL>
5

>  <REMARK>
 VINA RESULT:      -9.8      2.287      5.643
  Name = 
  1 active torsions:
  status: ('A' for Active; 'I' for Inactive)
    1  A    between atoms: C_11  and  C_28
                            x       y       z     vdW  Elec       q    Type
                         _______ _______ _______ _____ _____    ______ ____

>  <TORSDO>
F 1

$$$$
=
 OpenBabel11122410253D

 30 35  0  0  1  0  0  0  0  0999 V2000
  186.9510  178.0340  142.8670 C   0  0  0  0  0  0  0  0  0  0  0  0
  185.5550  178.1510  144.9330 C   0  0  0  0  0  0  0  0  0  0  0  0
  183.6740  179.2620  140.4200 C   0  0  0  0  0  2  0  0  0  0  0  0
  187.0410  178.1510  141.4590 C   0  0  0  0  0  0  0  0  0  0  0  0
  188.1800  177.5900  143.6120 C   0  0  0  0  0  2  0  0  0  0  0  0
  190.6460  177.8820  141.0060 O   0  0  0  0  0  0  0  0  0  0  0  0
  187.2140  176.8080  138.7750 C   0  0  1  0  0  3  0  0  0  0  0  0
  189.5200  177.9960  141.5680 C   0  0  0  0  0  0  0  0  0  0  0  0
  185.9890  177.5800  138.4910 N   0  0  2  0  0  0  0  0  0  0  0  0
  184.4140  179.3810  139.0830 C   0  0  1  0  0  3  0  0  0  0  0  0
  189.4360  178.2500  143.0540 C   0  0  2  0  0  3  0  0  0  0  0  0
  188.3060  177.9350  140.7920 N   0  0  0  0  0  0  0  0  0  0  0  0
  184.3190  178.4140  145.5290 C   0  0  0  0  0  3  0  0  0  0  0  0
  186.1150  177.9250  137.0880 C   0  0  0  0  0  2  0  0  0  0  0  0
  187.6560  176.1630  137.5430 N   0  0  0  0  0  2  0  0  0  0  0  0
  186.5790  177.7850  145.7420 F   0  0  0  0  0  0  0  0  0  0  0  0
  184.7150  178.8030  141.3710 C   0  0  0  0  0  0  0  0  0  0  0  0
  183.2250  178.8000  144.7580 C   0  0  0  0  0  3  0  0  0  0  0  0
  185.7120  178.2750  143.5290 C   0  0  0  0  0  0  0  0  0  0  0  0
  185.9010  178.5430  140.7410 C   0  0  0  0  0  0  0  0  0  0  0  0
  184.4970  180.7240  138.7180 O   0  0  0  0  0  1  0  0  0  0  0  0
  185.8320  178.8160  139.2770 C   0  0  1  0  0  3  0  0  0  0  0  0
  186.9550  176.8390  136.4640 C   0  0  0  0  0  2  0  0  0  0  0  0
  189.2900  178.0240  138.6660 O   0  0  0  0  0  0  0  0  0  0  0  0
  183.3560  178.9290  143.3780 C   0  0  0  0  0  3  0  0  0  0  0  0
  184.5820  178.6690  142.7560 C   0  0  0  0  0  0  0  0  0  0  0  0
  188.3410  177.6120  139.3880 C   0  0  0  0  0  0  0  0  0  0  0  0
  190.6240  177.7250  143.7990 C   0  0  0  0  0  3  0  0  0  0  0  0
  191.6800  176.6620  145.7280 C   0  0  0  0  0  1  0  0  0  0  0  0
  190.4870  177.1780  145.0040 C   0  0  0  0  0  3  0  0  0  0  0  0
  1 19  1  0  0  0  0
  1  5  1  0  0  0  0
  2 13  1  0  0  0  0
  2 16  1  0  0  0  0
  3 17  1  0  0  0  0
  4  1  2  0  0  0  0
  6  8  2  0  0  0  0
  7 15  1  6  0  0  0
  7 27  1  0  0  0  0
  8 11  1  0  0  0  0
  9 14  1  6  0  0  0
  9  7  1  0  0  0  0
  9 22  1  0  0  0  0
 10 21  1  1  0  0  0
 10 22  1  0  0  0  0
 10  3  1  0  0  0  0
 11  5  1  0  0  0  0
 11 28  1  1  0  0  0
 12  4  1  0  0  0  0
 12  8  1  0  0  0  0
 17 26  1  0  0  0  0
 18 13  2  0  0  0  0
 19  2  2  0  0  0  0
 20 17  2  0  0  0  0
 20  4  1  0  0  0  0
 22 20  1  1  0  0  0
 23 14  1  0  0  0  0
 23 15  1  0  0  0  0
 24 27  2  0  0  0  0
 25 18  1  0  0  0  0
 26 25  2  0  0  0  0
 26 19  1  0  0  0  0
 27 12  1  0  0  0  0
 28 30  2  0  0  0  0
 30 29  1  0  0  0  0
M  END
>  <MODEL>
6

>  <REMARK>
 VINA RESULT:      -9.2      2.258      5.593
  Name = 
  1 active torsions:
  status: ('A' for Active; 'I' for Inactive)
    1  A    between atoms: C_11  and  C_28
                            x       y       z     vdW  Elec       q    Type
                         _______ _______ _______ _____ _____    ______ ____

>  <TORSDO>
F 1

$$$$
=
 OpenBabel11122410253D

 30 35  0  0  1  0  0  0  0  0999 V2000
  186.4910  178.2710  142.8570 C   0  0  0  0  0  0  0  0  0  0  0  0
  186.1330  178.2530  140.3870 C   0  0  0  0  0  0  0  0  0  0  0  0
  190.7340  178.3120  142.3780 C   0  0  0  0  0  2  0  0  0  0  0  0
  187.3910  178.2480  143.9500 C   0  0  0  0  0  0  0  0  0  0  0  0
  185.0190  178.2530  143.1630 C   0  0  0  0  0  2  0  0  0  0  0  0
  185.0960  178.8830  146.7060 O   0  0  0  0  0  0  0  0  0  0  0  0
  188.6840  176.7010  146.1800 C   0  0  1  0  0  3  0  0  0  0  0  0
  185.5430  178.7610  145.5310 C   0  0  0  0  0  0  0  0  0  0  0  0
  189.9370  177.0870  145.5040 N   0  0  2  0  0  0  0  0  0  0  0  0
  191.1340  178.4680  143.8490 C   0  0  1  0  0  3  0  0  0  0  0  0
  184.6870  179.1510  144.3500 C   0  0  2  0  0  3  0  0  0  0  0  0
  186.8900  178.2970  145.3050 N   0  0  0  0  0  0  0  0  0  0  0  0
  186.6740  178.2480  139.0990 C   0  0  0  0  0  3  0  0  0  0  0  0
  190.8700  177.2920  146.5950 C   0  0  0  0  0  2  0  0  0  0  0  0
  189.0150  176.0580  147.4480 N   0  0  0  0  0  2  0  0  0  0  0  0
  184.7830  178.2620  140.5030 F   0  0  0  0  0  0  0  0  0  0  0  0
  189.2530  178.2530  142.4080 C   0  0  0  0  0  0  0  0  0  0  0  0
  188.0550  178.2440  138.9070 C   0  0  0  0  0  3  0  0  0  0  0  0
  186.9860  178.2530  141.5200 C   0  0  0  0  0  0  0  0  0  0  0  0
  188.7690  178.2430  143.6870 C   0  0  0  0  0  0  0  0  0  0  0  0
  191.6780  179.7360  144.0490 O   0  0  0  0  0  1  0  0  0  0  0  0
  189.8610  178.3200  144.7010 C   0  0  1  0  0  3  0  0  0  0  0  0
  190.4030  176.4010  147.7190 C   0  0  0  0  0  2  0  0  0  0  0  0
  187.6320  178.3970  147.5270 O   0  0  0  0  0  0  0  0  0  0  0  0
  188.9100  178.2450  140.0050 C   0  0  0  0  0  3  0  0  0  0  0  0
  188.3940  178.2470  141.3060 C   0  0  0  0  0  0  0  0  0  0  0  0
  187.7070  177.8360  146.3990 C   0  0  0  0  0  0  0  0  0  0  0  0
  183.2220  179.0440  144.6370 C   0  0  0  0  0  3  0  0  0  0  0  0
  180.8990  178.6850  143.9680 C   0  0  0  0  0  1  0  0  0  0  0  0
  182.3520  178.7880  143.6620 C   0  0  0  0  0  3  0  0  0  0  0  0
  1  5  1  0  0  0  0
  1  4  1  0  0  0  0
  2 16  1  0  0  0  0
  2 19  1  0  0  0  0
  3 17  1  0  0  0  0
  3 10  1  0  0  0  0
  4 12  1  0  0  0  0
  5 11  1  0  0  0  0
  7 27  1  1  0  0  0
  7 15  1  0  0  0  0
  8  6  2  0  0  0  0
  9  7  1  0  0  0  0
  9 14  1  1  0  0  0
 10 21  1  6  0  0  0
 10 22  1  0  0  0  0
 11 28  1  1  0  0  0
 11  8  1  0  0  0  0
 12  8  1  0  0  0  0
 12 27  1  0  0  0  0
 13  2  2  0  0  0  0
 14 23  1  0  0  0  0
 15 23  1  0  0  0  0
 17 20  1  0  0  0  0
 18 13  1  0  0  0  0
 18 25  2  0  0  0  0
 19  1  2  0  0  0  0
 20  4  2  0  0  0  0
 22 20  1  6  0  0  0
 22  9  1  0  0  0  0
 25 26  1  0  0  0  0
 26 19  1  0  0  0  0
 26 17  2  0  0  0  0
 27 24  2  0  0  0  0
 30 29  1  0  0  0  0
 30 28  2  0  0  0  0
M  END
>  <MODEL>
7

>  <REMARK>
 VINA RESULT:      -9.2      2.929      5.214
  Name = 
  1 active torsions:
  status: ('A' for Active; 'I' for Inactive)
    1  A    between atoms: C_11  and  C_28
                            x       y       z     vdW  Elec       q    Type
                         _______ _______ _______ _____ _____    ______ ____

>  <TORSDO>
F 1

$$$$
=
 OpenBabel11122410253D

 30 35  0  0  1  0  0  0  0  0999 V2000
  185.8340  178.6150  140.6470 C   0  0  0  0  0  0  0  0  0  0  0  0
  188.3050  178.5030  140.3130 C   0  0  0  0  0  0  0  0  0  0  0  0
  185.1000  177.4380  136.6080 C   0  0  0  0  0  2  0  0  0  0  0  0
  184.5330  178.5030  140.1000 C   0  0  0  0  0  0  0  0  0  0  0  0
  185.9550  179.0390  142.0850 C   0  0  0  0  0  2  0  0  0  0  0  0
  182.5250  178.7310  143.1310 O   0  0  0  0  0  0  0  0  0  0  0  0
  182.0510  179.8570  139.0790 C   0  0  1  0  0  3  0  0  0  0  0  0
  183.5280  178.6280  142.3710 C   0  0  0  0  0  0  0  0  0  0  0  0
  182.3420  179.1020  137.8470 N   0  0  2  0  0  0  0  0  0  0  0  0
  183.5740  177.3170  136.6750 C   0  0  1  0  0  3  0  0  0  0  0  0
  184.8970  178.3670  142.9530 C   0  0  2  0  0  3  0  0  0  0  0  0
  183.3730  178.7070  140.9390 N   0  0  0  0  0  0  0  0  0  0  0  0
  189.3890  178.2530  139.4680 C   0  0  0  0  0  3  0  0  0  0  0  0
  181.0290  178.7620  137.3310 C   0  0  0  0  0  2  0  0  0  0  0  0
  180.7500  180.5030  138.9360 N   0  0  0  0  0  2  0  0  0  0  0  0
  188.5740  178.8530  141.5950 F   0  0  0  0  0  0  0  0  0  0  0  0
  185.4890  177.8790  137.9690 C   0  0  0  0  0  0  0  0  0  0  0  0
  189.1850  177.8830  138.1400 C   0  0  0  0  0  3  0  0  0  0  0  0
  186.9780  178.3840  139.8280 C   0  0  0  0  0  0  0  0  0  0  0  0
  184.3970  178.1280  138.7550 C   0  0  0  0  0  0  0  0  0  0  0  0
  183.2110  175.9740  136.5700 O   0  0  0  0  0  1  0  0  0  0  0  0
  183.1160  177.8640  138.0390 C   0  0  1  0  0  3  0  0  0  0  0  0
  180.0960  179.8400  137.8200 C   0  0  0  0  0  2  0  0  0  0  0  0
  181.0310  178.6170  140.8740 O   0  0  0  0  0  0  0  0  0  0  0  0
  187.8910  177.7600  137.6430 C   0  0  0  0  0  3  0  0  0  0  0  0
  186.7880  178.0080  138.4680 C   0  0  0  0  0  0  0  0  0  0  0  0
  182.1000  179.0370  140.3510 C   0  0  0  0  0  0  0  0  0  0  0  0
  185.0350  178.8740  144.3550 C   0  0  0  0  0  3  0  0  0  0  0  0
  185.8850  178.7300  146.6420 C   0  0  0  0  0  1  0  0  0  0  0  0
  185.7600  178.2090  145.2530 C   0  0  0  0  0  3  0  0  0  0  0  0
  1  5  1  0  0  0  0
  2 16  1  0  0  0  0
  3 10  1  0  0  0  0
  3 17  1  0  0  0  0
  4  1  1  0  0  0  0
  4 12  1  0  0  0  0
  5 11  1  0  0  0  0
  7 15  1  6  0  0  0
  7 27  1  0  0  0  0
  8 11  1  0  0  0  0
  8  6  2  0  0  0  0
  9 14  1  1  0  0  0
  9 22  1  0  0  0  0
  9  7  1  0  0  0  0
 10 21  1  1  0  0  0
 10 22  1  0  0  0  0
 11 28  1  1  0  0  0
 12  8  1  0  0  0  0
 13  2  2  0  0  0  0
 14 23  1  0  0  0  0
 17 26  2  0  0  0  0
 17 20  1  0  0  0  0
 18 13  1  0  0  0  0
 19  2  1  0  0  0  0
 19  1  2  0  0  0  0
 20  4  2  0  0  0  0
 22 20  1  1  0  0  0
 23 15  1  0  0  0  0
 25 18  2  0  0  0  0
 25 26  1  0  0  0  0
 26 19  1  0  0  0  0
 27 24  2  0  0  0  0
 27 12  1  0  0  0  0
 28 30  2  0  0  0  0
 30 29  1  0  0  0  0
M  END
>  <MODEL>
8

>  <REMARK>
 VINA RESULT:      -8.4      3.716      6.872
  Name = 
  1 active torsions:
  status: ('A' for Active; 'I' for Inactive)
    1  A    between atoms: C_11  and  C_28
                            x       y       z     vdW  Elec       q    Type
                         _______ _______ _______ _____ _____    ______ ____

>  <TORSDO>
F 1

$$$$
=
 OpenBabel11122410253D

 30 35  0  0  1  0  0  0  0  0999 V2000
  186.4370  178.2090  142.2280 C   0  0  0  0  0  0  0  0  0  0  0  0
  185.5230  178.2930  144.5490 C   0  0  0  0  0  0  0  0  0  0  0  0
  182.6810  179.3730  140.5630 C   0  0  0  0  0  2  0  0  0  0  0  0
  186.2150  178.3320  140.8350 C   0  0  0  0  0  0  0  0  0  0  0  0
  187.8070  177.7900  142.6840 C   0  0  0  0  0  2  0  0  0  0  0  0
  189.6390  178.1400  139.6050 O   0  0  0  0  0  0  0  0  0  0  0  0
  185.8250  176.9990  138.1690 C   0  0  1  0  0  3  0  0  0  0  0  0
  188.6610  178.2290  140.4000 C   0  0  0  0  0  0  0  0  0  0  0  0
  184.5530  177.7450  138.1650 N   0  0  2  0  0  0  0  0  0  0  0  0
  183.1080  179.5110  139.0980 C   0  0  1  0  0  3  0  0  0  0  0  0
  188.8980  178.4780  141.8700 C   0  0  2  0  0  3  0  0  0  0  0  0
  187.3080  178.1440  139.9070 N   0  0  0  0  0  0  0  0  0  0  0  0
  184.4430  178.5280  145.4030 C   0  0  0  0  0  3  0  0  0  0  0  0
  184.3620  178.0960  136.7700 C   0  0  0  0  0  2  0  0  0  0  0  0
  186.0000  176.3650  136.8660 N   0  0  0  0  0  2  0  0  0  0  0  0
  186.7070  177.9470  145.1130 F   0  0  0  0  0  0  0  0  0  0  0  0
  183.9130  178.9350  141.2610 C   0  0  0  0  0  0  0  0  0  0  0  0
  183.1980  178.8930  144.8920 C   0  0  0  0  0  3  0  0  0  0  0  0
  185.3670  178.4230  143.1460 C   0  0  0  0  0  0  0  0  0  0  0  0
  184.9390  178.7010  140.3860 C   0  0  0  0  0  0  0  0  0  0  0  0
  183.0830  180.8560  138.7330 O   0  0  0  0  0  1  0  0  0  0  0  0
  184.5460  178.9750  138.9740 C   0  0  1  0  0  3  0  0  0  0  0  0
  185.0670  177.0290  135.9700 C   0  0  0  0  0  2  0  0  0  0  0  0
  187.8020  178.2580  137.6180 O   0  0  0  0  0  0  0  0  0  0  0  0
  183.0230  179.0280  143.5170 C   0  0  0  0  0  3  0  0  0  0  0  0
  184.0890  178.7950  142.6410 C   0  0  0  0  0  0  0  0  0  0  0  0
  187.0420  177.8240  138.5270 C   0  0  0  0  0  0  0  0  0  0  0  0
  190.2310  177.9760  142.3340 C   0  0  0  0  0  3  0  0  0  0  0  0
  191.6550  176.4160  143.5600 C   0  0  0  0  0  1  0  0  0  0  0  0
  190.3210  176.8990  143.1100 C   0  0  0  0  0  3  0  0  0  0  0  0
  1  5  1  0  0  0  0
  1 19  1  0  0  0  0
  2 16  1  0  0  0  0
  2 13  1  0  0  0  0
  3 17  1  0  0  0  0
  4  1  2  0  0  0  0
  6  8  2  0  0  0  0
  7 15  1  6  0  0  0
  7 27  1  0  0  0  0
  8 11  1  0  0  0  0
  9 14  1  6  0  0  0
  9  7  1  0  0  0  0
  9 22  1  0  0  0  0
 10 21  1  1  0  0  0
 10  3  1  0  0  0  0
 11 28  1  1  0  0  0
 11  5  1  0  0  0  0
 12  8  1  0  0  0  0
 12  4  1  0  0  0  0
 17 26  1  0  0  0  0
 18 13  2  0  0  0  0
 19  2  2  0  0  0  0
 20  4  1  0  0  0  0
 20 17  2  0  0  0  0
 22 10  1  0  0  0  0
 22 20  1  1  0  0  0
 23 14  1  0  0  0  0
 23 15  1  0  0  0  0
 24 27  2  0  0  0  0
 25 18  1  0  0  0  0
 26 19  1  0  0  0  0
 26 25  2  0  0  0  0
 27 12  1  0  0  0  0
 28 30  2  0  0  0  0
 30 29  1  0  0  0  0
M  END
>  <MODEL>
9

>  <REMARK>
 VINA RESULT:      -8.4      2.684      5.990
  Name = 
  1 active torsions:
  status: ('A' for Active; 'I' for Inactive)
    1  A    between atoms: C_11  and  C_28
                            x       y       z     vdW  Elec       q    Type
                         _______ _______ _______ _____ _____    ______ ____

>  <TORSDO>
F 1

$$$$
