=
 OpenBabel11122410413D

 32 38  0  0  1  0  0  0  0  0999 V2000
  188.0130  178.3330  136.9260 C   0  0  1  0  0  3  0  0  0  0  0  0
  187.6240  177.9250  142.1930 C   0  0  0  0  0  0  0  0  0  0  0  0
  182.9310  178.9680  143.0840 C   0  0  0  0  0  3  0  0  0  0  0  0
  183.1640  178.8860  144.4550 C   0  0  0  0  0  3  0  0  0  0  0  0
  189.1720  177.5070  144.1190 C   0  0  0  0  0  0  0  0  0  0  0  0
  189.3260  177.4430  145.4990 C   0  0  0  0  0  0  0  0  0  0  0  0
  188.3020  177.4570  139.7970 C   0  0  1  0  0  3  0  0  0  0  0  0
  185.9990  178.2510  140.2450 C   0  0  0  0  0  2  0  0  0  0  0  0
  188.8260  177.5130  147.6060 C   0  0  0  0  0  0  0  0  0  0  0  0
  186.8210  178.3990  137.8810 C   0  0  2  0  0  3  0  0  0  0  0  0
  183.9760  178.7520  142.1870 C   0  0  0  0  0  3  0  0  0  0  0  0
  186.3190  178.2420  141.7280 C   0  0  0  0  0  0  0  0  0  0  0  0
  185.2720  178.4510  142.6430 C   0  0  0  0  0  0  0  0  0  0  0  0
  186.7970  178.0570  144.5130 C   0  0  0  0  0  0  0  0  0  0  0  0
  190.1380  177.2050  147.4840 N   0  0  0  0  0  0  0  0  0  0  0  0
  189.3830  178.3340  137.6390 C   0  0  0  0  0  2  0  0  0  0  0  0
  187.2230  178.4550  139.3690 C   0  0  2  0  0  3  0  0  0  0  0  0
  190.4460  177.1600  146.1910 N   0  0  0  0  0  0  0  0  0  0  0  0
  189.5040  177.4000  138.8510 C   0  0  0  0  0  2  0  0  0  0  0  0
  187.1730  177.0890  137.1860 C   0  0  1  0  0  3  0  0  0  0  0  0
  184.4430  178.5880  144.9260 C   0  0  0  0  0  3  0  0  0  0  0  0
  185.5100  178.3670  144.0340 C   0  0  0  0  0  0  0  0  0  0  0  0
  187.0200  177.9750  145.9070 C   0  0  0  0  0  3  0  0  0  0  0  0
  188.7610  177.8170  141.1980 C   0  0  0  0  0  2  0  0  0  0  0  0
  190.2750  177.2470  143.3130 O   0  0  0  0  0  1  0  0  0  0  0  0
  188.1110  177.6500  148.9040 C   0  0  0  0  0  1  0  0  0  0  0  0
  187.8780  177.8290  143.5910 C   0  0  0  0  0  0  0  0  0  0  0  0
  188.2930  177.6670  146.3510 C   0  0  2  0  0  3  0  0  0  0  0  0
  186.2250  176.8730  136.0210 C   0  0  0  0  0  2  0  0  0  0  0  0
  185.3600  175.6480  136.2610 C   0  0  1  0  0  3  0  0  0  0  0  0
  186.1380  174.5990  137.0340 C   0  0  0  0  0  1  0  0  0  0  0  0
  184.2340  176.0160  136.9940 O   0  0  0  0  0  1  0  0  0  0  0  0
  1 20  1  0  0  0  0
  1 16  1  1  0  0  0
  1 10  1  0  0  0  0
  2 27  1  0  0  0  0
  3  4  1  0  0  0  0
  4 21  2  0  0  0  0
  5  6  1  0  0  0  0
  6 18  2  0  0  0  0
  6 28  1  0  0  0  0
  7 19  1  6  0  0  0
  7 24  1  0  0  0  0
  8 12  1  0  0  0  0
  9 26  1  0  0  0  0
 10 17  1  0  0  0  0
 11 13  1  0  0  0  0
 11  3  2  0  0  0  0
 12  2  2  0  0  0  0
 12 13  1  0  0  0  0
 13 22  2  0  0  0  0
 14 23  2  0  0  0  0
 15  9  2  0  0  0  0
 16 19  1  0  0  0  0
 17  7  1  0  0  0  0
 17  8  1  0  0  0  0
 18 15  1  0  0  0  0
 20 10  1  0  0  0  0
 22 14  1  0  0  0  0
 22 21  1  0  0  0  0
 23 28  1  0  0  0  0
 24  2  1  0  0  0  0
 25  5  1  0  0  0  0
 27  5  2  0  0  0  0
 27 14  1  0  0  0  0
 28  9  1  0  0  0  0
 29 30  1  0  0  0  0
 29 20  1  0  0  0  0
 30 32  1  0  0  0  0
 30 31  1  0  0  0  0
M  END
>  <MODEL>
1

>  <REMARK>
 VINA RESULT:     -10.9      0.000      0.000
  Name = 
  2 active torsions:
  status: ('A' for Active; 'I' for Inactive)
    1  A    between atoms: C_20  and  C_29
    2  A    between atoms: C_29  and  C_30
                            x       y       z     vdW  Elec       q    Type
                         _______ _______ _______ _____ _____    ______ ____

>  <TORSDO>
F 2

$$$$
=
 OpenBabel11122410413D

 32 38  0  0  1  0  0  0  0  0999 V2000
  180.1020  178.7550  141.5610 C   0  0  1  0  0  3  0  0  0  0  0  0
  184.9030  178.3530  143.7660 C   0  0  0  0  0  0  0  0  0  0  0  0
  187.9210  178.1730  139.9240 C   0  0  0  0  0  3  0  0  0  0  0  0
  189.0070  177.9760  140.7750 C   0  0  0  0  0  3  0  0  0  0  0  0
  185.8450  178.1150  146.0760 C   0  0  0  0  0  0  0  0  0  0  0  0
  186.9760  177.9160  146.8600 C   0  0  0  0  0  0  0  0  0  0  0  0
  182.5040  179.0630  143.3590 C   0  0  1  0  0  3  0  0  0  0  0  0
  183.9820  178.7000  141.4050 C   0  0  0  0  0  2  0  0  0  0  0  0
  189.0530  177.6020  147.3880 C   0  0  0  0  0  0  0  0  0  0  0  0
  181.5130  178.7800  140.9740 C   0  0  2  0  0  3  0  0  0  0  0  0
  186.6390  178.3140  140.4540 C   0  0  0  0  0  3  0  0  0  0  0  0
  185.1190  178.3960  142.3620 C   0  0  0  0  0  0  0  0  0  0  0  0
  186.4180  178.2590  141.8410 C   0  0  0  0  0  0  0  0  0  0  0  0
  187.3220  178.0120  144.0990 C   0  0  0  0  0  0  0  0  0  0  0  0
  188.3210  177.6470  148.5250 N   0  0  0  0  0  0  0  0  0  0  0  0
  180.0550  178.3520  143.0510 C   0  0  0  0  0  2  0  0  0  0  0  0
  182.6120  178.3950  141.9860 C   0  0  2  0  0  3  0  0  0  0  0  0
  187.0450  177.8410  148.2020 N   0  0  0  0  0  2  0  0  0  0  0  0
  181.0950  179.0250  143.9570 C   0  0  0  0  0  2  0  0  0  0  0  0
  180.7950  180.0850  141.2950 C   0  0  1  0  0  3  0  0  0  0  0  0
  188.8070  177.9200  142.1540 C   0  0  0  0  0  3  0  0  0  0  0  0
  187.5190  178.0600  142.7060 C   0  0  0  0  0  0  0  0  0  0  0  0
  188.4320  177.8140  144.9530 C   0  0  0  0  0  3  0  0  0  0  0  0
  183.4850  178.3880  144.3000 C   0  0  0  0  0  2  0  0  0  0  0  0
  184.6160  178.2710  146.7080 O   0  0  0  0  0  1  0  0  0  0  0  0
  190.5270  177.4020  147.3440 C   0  0  0  0  0  1  0  0  0  0  0  0
  186.0010  178.1610  144.6510 C   0  0  0  0  0  0  0  0  0  0  0  0
  188.2120  177.7720  146.3170 C   0  0  0  0  0  0  0  0  0  0  0  0
  180.2520  180.6840  140.0100 C   0  0  0  0  0  2  0  0  0  0  0  0
  181.2330  180.4740  138.8700 C   0  0  1  0  0  3  0  0  0  0  0  0
  180.4960  180.0440  137.6160 C   0  0  0  0  0  1  0  0  0  0  0  0
  181.9090  181.6670  138.6190 O   0  0  0  0  0  1  0  0  0  0  0  0
  1 16  1  1  0  0  0
  2 24  1  0  0  0  0
  2 27  1  0  0  0  0
  3 11  2  0  0  0  0
  3  4  1  0  0  0  0
  4 21  2  0  0  0  0
  5 25  1  0  0  0  0
  5  6  1  0  0  0  0
  6 18  1  0  0  0  0
  7 19  1  1  0  0  0
  7 24  1  0  0  0  0
  8 17  1  0  0  0  0
  8 12  1  0  0  0  0
  9 15  2  0  0  0  0
 10 20  1  0  0  0  0
 10  1  1  0  0  0  0
 10 17  1  0  0  0  0
 11 13  1  0  0  0  0
 12  2  2  0  0  0  0
 13 12  1  0  0  0  0
 13 22  2  0  0  0  0
 14 27  1  0  0  0  0
 14 23  2  0  0  0  0
 16 19  1  0  0  0  0
 17  7  1  0  0  0  0
 18 15  1  0  0  0  0
 20  1  1  0  0  0  0
 21 22  1  0  0  0  0
 22 14  1  0  0  0  0
 23 28  1  0  0  0  0
 26  9  1  0  0  0  0
 27  5  2  0  0  0  0
 28  6  2  0  0  0  0
 28  9  1  0  0  0  0
 29 20  1  0  0  0  0
 30 29  1  0  0  0  0
 31 30  1  0  0  0  0
 32 30  1  0  0  0  0
M  END
>  <MODEL>
2

>  <REMARK>
 VINA RESULT:     -10.6      2.669      5.550
  Name = 
  2 active torsions:
  status: ('A' for Active; 'I' for Inactive)
    1  A    between atoms: C_20  and  C_29
    2  A    between atoms: C_29  and  C_30
                            x       y       z     vdW  Elec       q    Type
                         _______ _______ _______ _____ _____    ______ ____

>  <TORSDO>
F 2

$$$$
=
 OpenBabel11122410413D

 32 38  0  0  1  0  0  0  0  0999 V2000
  189.1840  177.7000  147.9120 C   0  0  1  0  0  3  0  0  0  0  0  0
  186.4210  178.1560  143.4150 C   0  0  0  0  0  0  0  0  0  0  0  0
  189.8240  177.7470  139.9280 C   0  0  0  0  0  3  0  0  0  0  0  0
  188.8630  177.9990  138.9500 C   0  0  0  0  0  3  0  0  0  0  0  0
  184.0480  178.6270  142.7620 C   0  0  0  0  0  0  0  0  0  0  0  0
  183.1480  178.8710  141.7300 C   0  0  0  0  0  0  0  0  0  0  0  0
  187.0610  177.5060  145.7790 C   0  0  1  0  0  3  0  0  0  0  0  0
  188.8290  177.5700  144.0470 C   0  0  0  0  0  2  0  0  0  0  0  0
  182.3870  179.1560  139.7210 C   0  0  0  0  0  0  0  0  0  0  0  0
  189.5730  177.5450  146.4410 C   0  0  2  0  0  3  0  0  0  0  0  0
  189.4560  177.7260  141.2730 C   0  0  0  0  0  3  0  0  0  0  0  0
  187.7700  177.9370  143.0250 C   0  0  0  0  0  0  0  0  0  0  0  0
  188.1250  177.9550  141.6640 C   0  0  0  0  0  0  0  0  0  0  0  0
  185.8100  178.4310  141.0420 C   0  0  0  0  0  0  0  0  0  0  0  0
  181.3600  179.2780  140.5930 N   0  0  0  0  0  0  0  0  0  0  0  0
  187.7690  178.2790  148.1240 C   0  0  0  0  0  2  0  0  0  0  0  0
  188.4730  178.0000  145.4600 C   0  0  2  0  0  3  0  0  0  0  0  0
  181.8260  179.1020  141.8270 N   0  0  0  0  0  0  0  0  0  0  0  0
  186.6620  177.6750  147.2480 C   0  0  0  0  0  2  0  0  0  0  0  0
  189.2050  176.3190  147.2690 C   0  0  1  0  0  3  0  0  0  0  0  0
  187.5380  178.2270  139.3200 C   0  0  0  0  0  3  0  0  0  0  0  0
  187.1500  178.2090  140.6730 C   0  0  2  0  0  3  0  0  0  0  0  0
  184.8440  178.6820  140.0390 C   0  0  0  0  0  3  0  0  0  0  0  0
  186.0800  178.2460  144.8880 C   0  0  0  0  0  2  0  0  0  0  0  0
  183.5710  178.6010  144.0680 O   0  0  0  0  0  1  0  0  0  0  0  0
  182.2570  179.2860  138.2450 C   0  0  0  0  0  1  0  0  0  0  0  0
  185.4250  178.4050  142.4290 C   0  0  0  0  0  0  0  0  0  0  0  0
  183.5340  178.8950  140.4280 C   0  0  0  0  0  0  0  0  0  0  0  0
  190.4740  175.5950  147.6780 C   0  0  0  0  0  2  0  0  0  0  0  0
  191.6980  176.3730  147.2280 C   0  0  1  0  0  3  0  0  0  0  0  0
  192.8580  176.1180  148.1710 C   0  0  0  0  0  1  0  0  0  0  0  0
  192.0540  175.9670  145.9430 O   0  0  0  0  0  1  0  0  0  0  0  0
  1 16  1  6  0  0  0
  2 24  1  0  0  0  0
  3 11  2  0  0  0  0
  4 21  2  0  0  0  0
  4  3  1  0  0  0  0
  5 25  1  0  0  0  0
  6 18  1  0  0  0  0
  6  5  2  0  0  0  0
  7 24  1  6  0  0  0
  7 19  1  0  0  0  0
  8 17  1  0  0  0  0
  9 28  2  0  0  0  0
  9 15  1  0  0  0  0
 10 20  1  0  0  0  0
 10  1  1  0  0  0  0
 11 13  1  0  0  0  0
 12  2  1  0  0  0  0
 12  8  1  0  0  0  0
 13 12  2  0  0  0  0
 14 27  1  0  0  0  0
 15 18  2  0  0  0  0
 17  7  1  0  0  0  0
 17 10  1  0  0  0  0
 19 16  1  0  0  0  0
 20 29  1  0  0  0  0
 20  1  1  0  0  0  0
 21 22  1  0  0  0  0
 22 14  1  0  0  0  0
 22 13  1  0  0  0  0
 23 28  1  0  0  0  0
 23 14  2  0  0  0  0
 26  9  1  0  0  0  0
 27  5  1  0  0  0  0
 27  2  2  0  0  0  0
 28  6  1  0  0  0  0
 30 29  1  0  0  0  0
 30 31  1  0  0  0  0
 32 30  1  0  0  0  0
M  END
>  <MODEL>
3

>  <REMARK>
 VINA RESULT:     -10.3      3.358      8.312
  Name = 
  2 active torsions:
  status: ('A' for Active; 'I' for Inactive)
    1  A    between atoms: C_20  and  C_29
    2  A    between atoms: C_29  and  C_30
                            x       y       z     vdW  Elec       q    Type
                         _______ _______ _______ _____ _____    ______ ____

>  <TORSDO>
F 2

$$$$
=
 OpenBabel11122410413D

 32 38  0  0  1  0  0  0  0  0999 V2000
  181.0270  179.5460  139.0300 C   0  0  1  0  0  3  0  0  0  0  0  0
  185.5100  178.4060  141.6130 C   0  0  0  0  0  0  0  0  0  0  0  0
  184.1940  178.5520  146.3200 C   0  0  0  0  0  3  0  0  0  0  0  0
  185.5160  178.3330  146.7050 C   0  0  0  0  0  3  0  0  0  0  0  0
  187.9110  177.9990  141.0250 C   0  0  0  0  0  0  0  0  0  0  0  0
  189.2050  177.7840  141.4870 C   0  0  0  0  0  0  0  0  0  0  0  0
  183.6730  178.3660  139.8680 C   0  0  1  0  0  3  0  0  0  0  0  0
  183.0490  178.7130  142.2400 C   0  0  0  0  0  2  0  0  0  0  0  0
  190.8500  177.5000  142.8680 C   0  0  0  0  0  0  0  0  0  0  0  0
  181.3320  179.2950  140.5070 C   0  0  2  0  0  3  0  0  0  0  0  0
  183.8670  178.6260  144.9660 C   0  0  0  0  0  3  0  0  0  0  0  0
  184.5120  178.5640  142.6130 C   0  0  0  0  0  0  0  0  0  0  0  0
  184.8540  178.4820  143.9740 C   0  0  0  0  0  0  0  0  0  0  0  0
  187.1960  178.1020  143.3870 C   0  0  0  0  0  0  0  0  0  0  0  0
  191.3300  177.4260  141.6050 N   0  0  0  0  0  0  0  0  0  0  0  0
  182.2880  179.6770  138.1480 C   0  0  0  0  0  2  0  0  0  0  0  0
  182.8400  179.2230  140.8240 C   0  0  2  0  0  3  0  0  0  0  0  0
  190.3210  177.5990  140.7550 N   0  0  0  0  0  0  0  0  0  0  0  0
  183.3810  178.6270  138.3880 C   0  0  0  0  0  2  0  0  0  0  0  0
  180.8220  178.1600  139.6270 C   0  0  1  0  0  3  0  0  0  0  0  0
  186.5070  178.1880  145.7340 C   0  0  0  0  0  3  0  0  0  0  0  0
  186.1950  178.2590  144.3630 C   0  0  2  0  0  3  0  0  0  0  0  0
  188.5330  177.8780  143.7900 C   0  0  0  0  0  3  0  0  0  0  0  0
  185.1420  178.6120  140.1580 C   0  0  0  0  0  2  0  0  0  0  0  0
  187.6900  178.0270  139.6520 O   0  0  0  0  0  1  0  0  0  0  0  0
  191.6810  177.3510  144.0940 C   0  0  0  0  0  1  0  0  0  0  0  0
  186.8630  178.1730  141.9880 C   0  0  0  0  0  0  0  0  0  0  0  0
  189.4980  177.7260  142.8110 C   0  0  0  0  0  0  0  0  0  0  0  0
  179.3450  177.9450  139.8980 C   0  0  0  0  0  2  0  0  0  0  0  0
  179.1250  176.6330  140.6320 C   0  0  1  0  0  3  0  0  0  0  0  0
  180.1120  175.5890  140.1470 C   0  0  0  0  0  1  0  0  0  0  0  0
  179.3050  176.8350  141.9990 O   0  0  0  0  0  1  0  0  0  0  0  0
  1 16  1  6  0  0  0
  1 20  1  0  0  0  0
  1 10  1  0  0  0  0
  2 27  2  0  0  0  0
  2 12  1  0  0  0  0
  3  4  1  0  0  0  0
  5  6  2  0  0  0  0
  5 27  1  0  0  0  0
  6 28  1  0  0  0  0
  7 19  1  6  0  0  0
  7 24  1  0  0  0  0
  7 17  1  0  0  0  0
  8 12  1  0  0  0  0
  9 26  1  0  0  0  0
 10 17  1  0  0  0  0
 11  3  2  0  0  0  0
 12 13  2  0  0  0  0
 13 22  1  0  0  0  0
 13 11  1  0  0  0  0
 14 23  2  0  0  0  0
 14 22  1  0  0  0  0
 15  9  1  0  0  0  0
 16 19  1  0  0  0  0
 17  8  1  0  0  0  0
 18  6  1  0  0  0  0
 18 15  2  0  0  0  0
 20 29  1  0  0  0  0
 20 10  1  0  0  0  0
 21  4  2  0  0  0  0
 22 21  1  0  0  0  0
 24  2  1  0  0  0  0
 25  5  1  0  0  0  0
 27 14  1  0  0  0  0
 28  9  2  0  0  0  0
 28 23  1  0  0  0  0
 29 30  1  0  0  0  0
 30 32  1  0  0  0  0
 31 30  1  0  0  0  0
M  END
>  <MODEL>
4

>  <REMARK>
 VINA RESULT:     -10.1      3.111      4.915
  Name = 
  2 active torsions:
  status: ('A' for Active; 'I' for Inactive)
    1  A    between atoms: C_20  and  C_29
    2  A    between atoms: C_29  and  C_30
                            x       y       z     vdW  Elec       q    Type
                         _______ _______ _______ _____ _____    ______ ____

>  <TORSDO>
F 2

$$$$
=
 OpenBabel11122410413D

 32 38  0  0  1  0  0  0  0  0999 V2000
  191.7370  175.6580  147.0840 C   0  0  1  0  0  3  0  0  0  0  0  0
  188.1280  177.5650  143.7060 C   0  0  0  0  0  0  0  0  0  0  0  0
  184.3150  178.6280  146.5760 C   0  0  0  0  0  3  0  0  0  0  0  0
  183.5600  178.9780  145.4580 C   0  0  0  0  0  3  0  0  0  0  0  0
  187.9190  177.8700  141.2280 C   0  0  0  0  0  0  0  0  0  0  0  0
  187.1040  178.2360  140.1620 C   0  0  0  0  0  0  0  0  0  0  0  0
  190.3550  177.0910  144.8190 C   0  0  1  0  0  3  0  0  0  0  0  0
  188.3500  177.3650  146.2460 C   0  0  0  0  0  2  0  0  0  0  0  0
  185.3550  178.9200  139.0820 C   0  0  0  0  0  0  0  0  0  0  0  0
  190.3640  176.2980  147.2930 C   0  0  2  0  0  3  0  0  0  0  0  0
  185.6300  178.1910  146.4180 C   0  0  0  0  0  3  0  0  0  0  0  0
  187.5390  177.6470  144.9960 C   0  0  0  0  0  0  0  0  0  0  0  0
  186.2130  178.0950  145.1420 C   0  0  0  0  0  0  0  0  0  0  0  0
  186.0170  178.3730  142.7210 C   0  0  0  0  0  0  0  0  0  0  0  0
  186.3420  178.6720  138.1910 N   0  0  0  0  0  0  0  0  0  0  0  0
  192.0550  175.3350  145.6080 C   0  0  0  0  0  2  0  0  0  0  0  0
  189.5680  176.4940  145.9860 C   0  0  2  0  0  3  0  0  0  0  0  0
  187.4170  178.2530  138.8530 N   0  0  0  0  0  0  0  0  0  0  0  0
  191.7240  176.4410  144.5970 C   0  0  0  0  0  2  0  0  0  0  0  0
  191.6270  177.1460  147.3890 C   0  0  1  0  0  3  0  0  0  0  0  0
  184.1230  178.8900  144.1850 C   0  0  0  0  0  3  0  0  0  0  0  0
  185.4490  178.4510  144.0070 C   0  0  2  0  0  3  0  0  0  0  0  0
  185.2410  178.7330  141.5950 C   0  0  0  0  0  3  0  0  0  0  0  0
  189.5150  176.9720  143.5600 C   0  0  0  0  0  2  0  0  0  0  0  0
  189.2250  177.4750  140.9610 O   0  0  0  0  0  1  0  0  0  0  0  0
  183.9970  179.4100  138.7190 C   0  0  0  0  0  1  0  0  0  0  0  0
  187.3750  177.9270  142.5540 C   0  0  0  0  0  0  0  0  0  0  0  0
  185.8230  178.6490  140.3430 C   0  0  0  0  0  0  0  0  0  0  0  0
  191.9570  177.3830  148.8510 C   0  0  0  0  0  2  0  0  0  0  0  0
  193.2800  176.7290  149.2100 C   0  0  1  0  0  3  0  0  0  0  0  0
  193.9480  177.4840  150.3430 C   0  0  0  0  0  1  0  0  0  0  0  0
  193.0490  175.4130  149.6080 O   0  0  0  0  0  1  0  0  0  0  0  0
  1 16  1  6  0  0  0
  1 10  1  0  0  0  0
  1 20  1  0  0  0  0
  2 12  1  0  0  0  0
  4  3  1  0  0  0  0
  5 27  1  0  0  0  0
  6 28  1  0  0  0  0
  6  5  2  0  0  0  0
  7 24  1  6  0  0  0
  7 17  1  0  0  0  0
  9 28  2  0  0  0  0
 10 20  1  0  0  0  0
 11  3  2  0  0  0  0
 12 13  2  0  0  0  0
 12  8  1  0  0  0  0
 13 11  1  0  0  0  0
 14 22  1  0  0  0  0
 15 18  2  0  0  0  0
 15  9  1  0  0  0  0
 17  8  1  0  0  0  0
 17 10  1  0  0  0  0
 18  6  1  0  0  0  0
 19  7  1  0  0  0  0
 19 16  1  0  0  0  0
 20 29  1  0  0  0  0
 21  4  2  0  0  0  0
 22 21  1  0  0  0  0
 22 13  1  0  0  0  0
 23 14  2  0  0  0  0
 24  2  1  0  0  0  0
 25  5  1  0  0  0  0
 26  9  1  0  0  0  0
 27 14  1  0  0  0  0
 27  2  2  0  0  0  0
 28 23  1  0  0  0  0
 29 30  1  0  0  0  0
 30 32  1  0  0  0  0
 30 31  1  0  0  0  0
M  END
>  <MODEL>
5

>  <REMARK>
 VINA RESULT:      -9.1      3.267      8.054
  Name = 
  2 active torsions:
  status: ('A' for Active; 'I' for Inactive)
    1  A    between atoms: C_20  and  C_29
    2  A    between atoms: C_29  and  C_30
                            x       y       z     vdW  Elec       q    Type
                         _______ _______ _______ _____ _____    ______ ____

>  <TORSDO>
F 2

$$$$
=
 OpenBabel11122410413D

 32 38  0  0  1  0  0  0  0  0999 V2000
  190.1860  177.9870  146.3280 C   0  0  1  0  0  3  0  0  0  0  0  0
  185.7500  178.3330  143.4530 C   0  0  0  0  0  0  0  0  0  0  0  0
  187.3660  178.3370  138.8390 C   0  0  0  0  0  3  0  0  0  0  0  0
  186.0670  178.5320  138.3750 C   0  0  0  0  0  3  0  0  0  0  0  0
  183.2980  178.6110  143.8930 C   0  0  0  0  0  0  0  0  0  0  0  0
  182.0310  178.8050  143.3540 C   0  0  0  0  0  0  0  0  0  0  0  0
  187.3760  177.6710  145.2800 C   0  0  1  0  0  3  0  0  0  0  0  0
  188.2320  177.9450  142.9730 C   0  0  0  0  0  2  0  0  0  0  0  0
  180.4710  179.0830  141.8770 C   0  0  0  0  0  0  0  0  0  0  0  0
  189.9230  177.9120  144.8240 C   0  0  2  0  0  3  0  0  0  0  0  0
  187.6080  178.2420  140.2090 C   0  0  0  0  0  3  0  0  0  0  0  0
  186.8160  178.2470  142.5180 C   0  0  0  0  0  0  0  0  0  0  0  0
  186.5580  178.3390  141.1390 C   0  0  0  0  0  0  0  0  0  0  0  0
  184.1710  178.6250  141.5820 C   0  0  0  0  0  0  0  0  0  0  0  0
  179.9070  179.0860  143.1060 N   0  0  0  0  0  0  0  0  0  0  0  0
  188.9600  178.4310  147.1540 C   0  0  0  0  0  2  0  0  0  0  0  0
  188.4820  178.2980  144.4290 C   0  0  2  0  0  3  0  0  0  0  0  0
  180.8630  178.9140  144.0150 N   0  0  0  0  0  2  0  0  0  0  0  0
  187.6300  177.7580  146.7880 C   0  0  0  0  0  2  0  0  0  0  0  0
  190.0250  176.6340  145.6470 C   0  0  1  0  0  3  0  0  0  0  0  0
  185.0120  178.6290  139.2830 C   0  0  0  0  0  3  0  0  0  0  0  0
  185.2390  178.5350  140.6690 C   0  0  0  0  0  0  0  0  0  0  0  0
  182.8560  178.8200  141.0980 C   0  0  0  0  0  3  0  0  0  0  0  0
  186.0620  178.3470  144.9360 C   0  0  0  0  0  2  0  0  0  0  0  0
  183.4250  178.5020  145.2730 O   0  0  0  0  0  1  0  0  0  0  0  0
  179.7170  179.2470  140.6040 C   0  0  0  0  0  1  0  0  0  0  0  0
  184.4150  178.5230  142.9970 C   0  0  0  0  0  0  0  0  0  0  0  0
  181.8250  178.9040  142.0160 C   0  0  0  0  0  0  0  0  0  0  0  0
  191.3940  176.0130  145.4350 C   0  0  0  0  0  2  0  0  0  0  0  0
  191.6520  175.7900  143.9550 C   0  0  1  0  0  3  0  0  0  0  0  0
  190.3960  175.2800  143.2740 C   0  0  0  0  0  1  0  0  0  0  0  0
  192.0350  176.9950  143.3680 O   0  0  0  0  0  1  0  0  0  0  0  0
  1 16  1  1  0  0  0
  2 24  1  0  0  0  0
  3 11  1  0  0  0  0
  4  3  2  0  0  0  0
  4 21  1  0  0  0  0
  5 25  1  0  0  0  0
  6  5  1  0  0  0  0
  6 18  1  0  0  0  0
  7 24  1  1  0  0  0
  7 19  1  0  0  0  0
  8 17  1  0  0  0  0
  9 28  1  0  0  0  0
  9 15  2  0  0  0  0
 10 20  1  0  0  0  0
 10  1  1  0  0  0  0
 11 13  2  0  0  0  0
 12  8  1  0  0  0  0
 12  2  2  0  0  0  0
 13 12  1  0  0  0  0
 14 27  1  0  0  0  0
 15 18  1  0  0  0  0
 17 10  1  0  0  0  0
 17  7  1  0  0  0  0
 19 16  1  0  0  0  0
 20  1  1  0  0  0  0
 21 22  2  0  0  0  0
 22 13  1  0  0  0  0
 22 14  1  0  0  0  0
 23 14  2  0  0  0  0
 23 28  1  0  0  0  0
 26  9  1  0  0  0  0
 27  2  1  0  0  0  0
 27  5  2  0  0  0  0
 28  6  2  0  0  0  0
 29 20  1  0  0  0  0
 30 29  1  0  0  0  0
 31 30  1  0  0  0  0
 32 30  1  0  0  0  0
M  END
>  <MODEL>
6

>  <REMARK>
 VINA RESULT:      -8.6      3.354      7.425
  Name = 
  2 active torsions:
  status: ('A' for Active; 'I' for Inactive)
    1  A    between atoms: C_20  and  C_29
    2  A    between atoms: C_29  and  C_30
                            x       y       z     vdW  Elec       q    Type
                         _______ _______ _______ _____ _____    ______ ____

>  <TORSDO>
F 2

$$$$
=
 OpenBabel11122410413D

 32 38  0  0  1  0  0  0  0  0999 V2000
  191.2100  175.7940  137.2620 C   0  0  1  0  0  3  0  0  0  0  0  0
  188.8270  177.2670  141.7580 C   0  0  0  0  0  0  0  0  0  0  0  0
  192.0240  175.9850  145.2280 C   0  0  0  0  0  3  0  0  0  0  0  0
  191.1220  176.3780  146.2150 C   0  0  0  0  0  3  0  0  0  0  0  0
  186.6140  178.2330  142.4280 C   0  0  0  0  0  0  0  0  0  0  0  0
  185.7690  178.6020  143.4690 C   0  0  0  0  0  0  0  0  0  0  0  0
  189.6280  177.2820  139.3530 C   0  0  1  0  0  3  0  0  0  0  0  0
  191.1340  176.3800  141.1000 C   0  0  0  0  0  2  0  0  0  0  0  0
  185.0540  178.9320  145.4870 C   0  0  0  0  0  0  0  0  0  0  0  0
  191.6760  175.8160  138.7180 C   0  0  2  0  0  3  0  0  0  0  0  0
  191.6780  176.1070  143.8820 C   0  0  0  0  0  3  0  0  0  0  0  0
  190.0880  176.7340  142.1400 C   0  0  0  0  0  0  0  0  0  0  0  0
  190.4270  176.6220  143.5000 C   0  0  0  0  0  0  0  0  0  0  0  0
  188.2570  177.5500  144.1400 C   0  0  0  0  0  0  0  0  0  0  0  0
  184.0970  179.3330  144.6200 N   0  0  0  0  0  0  0  0  0  0  0  0
  189.7030  176.0770  137.0860 C   0  0  0  0  0  2  0  0  0  0  0  0
  190.5460  176.1160  139.7240 C   0  0  2  0  0  3  0  0  0  0  0  0
  184.5350  179.1330  143.3790 N   0  0  0  0  0  0  0  0  0  0  0  0
  189.1460  177.2540  137.9000 C   0  0  0  0  0  2  0  0  0  0  0  0
  192.0120  176.9770  137.7890 C   0  0  1  0  0  3  0  0  0  0  0  0
  189.8770  176.8920  145.8540 C   0  0  0  0  0  3  0  0  0  0  0  0
  189.5120  177.0220  144.5010 C   0  0  0  0  0  0  0  0  0  0  0  0
  187.3520  177.9470  145.1520 C   0  0  0  0  0  3  0  0  0  0  0  0
  188.4360  177.2730  140.2940 C   0  0  0  0  0  2  0  0  0  0  0  0
  186.1810  178.4220  141.1200 O   0  0  0  0  0  1  0  0  0  0  0  0
  184.9310  179.0030  146.9680 C   0  0  0  0  0  1  0  0  0  0  0  0
  187.8970  177.6820  142.7530 C   0  0  0  0  0  0  0  0  0  0  0  0
  186.1270  178.4640  144.7710 C   0  0  2  0  0  3  0  0  0  0  0  0
  193.4540  176.8480  137.3330 C   0  0  0  0  0  2  0  0  0  0  0  0
  193.8990  175.3970  137.3810 C   0  0  1  0  0  3  0  0  0  0  0  0
  194.4460  174.9710  136.0320 C   0  0  0  0  0  1  0  0  0  0  0  0
  194.8950  175.2540  138.3450 O   0  0  0  0  0  1  0  0  0  0  0  0
  1 16  1  1  0  0  0
  1 20  1  0  0  0  0
  1 10  1  0  0  0  0
  2 12  2  0  0  0  0
  2 27  1  0  0  0  0
  3  4  1  0  0  0  0
  5 27  2  0  0  0  0
  5  6  1  0  0  0  0
  6 28  1  0  0  0  0
  7 19  1  6  0  0  0
  7 17  1  0  0  0  0
  7 24  1  0  0  0  0
  8 12  1  0  0  0  0
  9 26  1  0  0  0  0
 10 17  1  0  0  0  0
 11  3  2  0  0  0  0
 12 13  1  0  0  0  0
 13 11  1  0  0  0  0
 13 22  2  0  0  0  0
 14 22  1  0  0  0  0
 14 23  2  0  0  0  0
 15  9  2  0  0  0  0
 16 19  1  0  0  0  0
 17  8  1  0  0  0  0
 18  6  2  0  0  0  0
 18 15  1  0  0  0  0
 20 10  1  0  0  0  0
 21  4  2  0  0  0  0
 22 21  1  0  0  0  0
 24  2  1  0  0  0  0
 25  5  1  0  0  0  0
 27 14  1  0  0  0  0
 28 23  1  0  0  0  0
 28  9  1  0  0  0  0
 29 30  1  0  0  0  0
 29 20  1  0  0  0  0
 30 32  1  0  0  0  0
 31 30  1  0  0  0  0
M  END
>  <MODEL>
7

>  <REMARK>
 VINA RESULT:      -8.3      3.209      5.525
  Name = 
  2 active torsions:
  status: ('A' for Active; 'I' for Inactive)
    1  A    between atoms: C_20  and  C_29
    2  A    between atoms: C_29  and  C_30
                            x       y       z     vdW  Elec       q    Type
                         _______ _______ _______ _____ _____    ______ ____

>  <TORSDO>
F 2

$$$$
=
 OpenBabel11122410413D

 32 38  0  0  1  0  0  0  0  0999 V2000
  190.1090  176.6380  146.7890 C   0  0  1  0  0  3  0  0  0  0  0  0
  188.4390  177.7330  141.8820 C   0  0  0  0  0  0  0  0  0  0  0  0
  183.6680  178.6280  142.4630 C   0  0  0  0  0  3  0  0  0  0  0  0
  183.5170  178.7650  141.0840 C   0  0  0  0  0  3  0  0  0  0  0  0
  189.4160  177.7480  139.5740 C   0  0  0  0  0  0  0  0  0  0  0  0
  189.1870  177.8990  138.2110 C   0  0  0  0  0  0  0  0  0  0  0  0
  189.8930  177.6500  143.9560 C   0  0  1  0  0  3  0  0  0  0  0  0
  187.4380  177.8300  144.2330 C   0  0  0  0  0  2  0  0  0  0  0  0
  188.1260  178.2520  136.3550 C   0  0  0  0  0  0  0  0  0  0  0  0
  188.7690  177.1280  146.2400 C   0  0  2  0  0  3  0  0  0  0  0  0
  184.9220  178.3370  143.0000 C   0  0  0  0  0  3  0  0  0  0  0  0
  187.3040  177.8800  142.7230 C   0  0  0  0  0  0  0  0  0  0  0  0
  186.0460  178.1790  142.1700 C   0  0  0  0  0  0  0  0  0  0  0  0
  187.0090  178.1740  139.9220 C   0  0  0  0  0  0  0  0  0  0  0  0
  189.4300  178.0310  136.0710 N   0  0  0  0  0  0  0  0  0  0  0  0
  191.1080  176.2030  145.6950 C   0  0  0  0  0  2  0  0  0  0  0  0
  188.6800  177.0880  144.7000 C   0  0  2  0  0  3  0  0  0  0  0  0
  190.0830  177.8150  137.2100 N   0  0  0  0  0  0  0  0  0  0  0  0
  191.2360  177.1480  144.4930 C   0  0  0  0  0  2  0  0  0  0  0  0
  189.7840  178.1270  146.7820 C   0  0  1  0  0  3  0  0  0  0  0  0
  184.6210  178.6120  140.2460 C   0  0  0  0  0  3  0  0  0  0  0  0
  185.8950  178.3190  140.7710 C   0  0  2  0  0  3  0  0  0  0  0  0
  186.8430  178.3180  138.5250 C   0  0  0  0  0  3  0  0  0  0  0  0
  189.7590  177.2990  142.4850 C   0  0  0  0  0  2  0  0  0  0  0  0
  190.7120  177.4860  140.0060 O   0  0  0  0  0  1  0  0  0  0  0  0
  187.0800  178.5340  135.3350 C   0  0  0  0  0  1  0  0  0  0  0  0
  188.3060  177.8790  140.4720 C   0  0  0  0  0  0  0  0  0  0  0  0
  187.9530  178.1720  137.7140 C   0  0  0  0  0  0  0  0  0  0  0  0
  189.3660  178.5550  148.1770 C   0  0  0  0  0  2  0  0  0  0  0  0
  187.8970  178.2510  148.4070 C   0  0  1  0  0  3  0  0  0  0  0  0
  187.6590  177.8780  149.8580 C   0  0  0  0  0  1  0  0  0  0  0  0
  187.1390  179.3780  148.0930 O   0  0  0  0  0  1  0  0  0  0  0  0
  1 16  1  6  0  0  0
  2 24  1  0  0  0  0
  2 12  1  0  0  0  0
  3 11  2  0  0  0  0
  4  3  1  0  0  0  0
  5 25  1  0  0  0  0
  5 27  1  0  0  0  0
  6  5  2  0  0  0  0
  7 24  1  6  0  0  0
  7 19  1  0  0  0  0
  7 17  1  0  0  0  0
  8 17  1  0  0  0  0
  9 28  2  0  0  0  0
 10 20  1  0  0  0  0
 10  1  1  0  0  0  0
 12  8  1  0  0  0  0
 13 12  2  0  0  0  0
 13 11  1  0  0  0  0
 14 27  1  0  0  0  0
 14 22  1  0  0  0  0
 15  9  1  0  0  0  0
 15 18  2  0  0  0  0
 17 10  1  0  0  0  0
 18  6  1  0  0  0  0
 19 16  1  0  0  0  0
 20  1  1  0  0  0  0
 20 29  1  0  0  0  0
 21 22  1  0  0  0  0
 21  4  2  0  0  0  0
 22 13  1  0  0  0  0
 23 14  2  0  0  0  0
 26  9  1  0  0  0  0
 27  2  2  0  0  0  0
 28  6  1  0  0  0  0
 28 23  1  0  0  0  0
 29 30  1  0  0  0  0
 30 31  1  0  0  0  0
 32 30  1  0  0  0  0
M  END
>  <MODEL>
8

>  <REMARK>
 VINA RESULT:      -8.3      3.115      7.756
  Name = 
  2 active torsions:
  status: ('A' for Active; 'I' for Inactive)
    1  A    between atoms: C_20  and  C_29
    2  A    between atoms: C_29  and  C_30
                            x       y       z     vdW  Elec       q    Type
                         _______ _______ _______ _____ _____    ______ ____

>  <TORSDO>
F 2

$$$$
=
 OpenBabel11122410413D

 32 38  0  0  1  0  0  0  0  0999 V2000
  191.0820  176.5280  141.3410 C   0  0  1  0  0  3  0  0  0  0  0  0
  186.1000  178.3270  141.4260 C   0  0  0  0  0  0  0  0  0  0  0  0
  184.9220  178.2310  146.1710 C   0  0  0  0  0  3  0  0  0  0  0  0
  183.6220  178.6280  145.8650 C   0  0  0  0  0  3  0  0  0  0  0  0
  184.3660  179.0010  139.7470 C   0  0  0  0  0  0  0  0  0  0  0  0
  183.0510  179.3950  139.5220 C   0  0  0  0  0  0  0  0  0  0  0  0
  188.5420  178.0630  140.8040 C   0  0  1  0  0  3  0  0  0  0  0  0
  187.8800  177.7480  143.1690 C   0  0  0  0  0  2  0  0  0  0  0  0
  180.9940  179.9410  139.9280 C   0  0  0  0  0  0  0  0  0  0  0  0
  190.1310  176.8810  142.4860 C   0  0  2  0  0  3  0  0  0  0  0  0
  185.8550  178.0570  145.1480 C   0  0  0  0  0  3  0  0  0  0  0  0
  186.4540  178.0920  142.7820 C   0  0  0  0  0  0  0  0  0  0  0  0
  185.5050  178.2760  143.8040 C   0  0  0  0  0  0  0  0  0  0  0  0
  183.8180  178.9160  142.1540 C   0  0  0  0  0  0  0  0  0  0  0  0
  181.2050  180.0170  138.5940 N   0  0  0  0  0  0  0  0  0  0  0  0
  190.4070  176.5150  139.9530 C   0  0  0  0  0  2  0  0  0  0  0  0
  188.6840  177.1530  142.0260 C   0  0  2  0  0  3  0  0  0  0  0  0
  182.4690  179.6830  138.3420 N   0  0  0  0  0  0  0  0  0  0  0  0
  189.4820  177.7020  139.6500 C   0  0  0  0  0  2  0  0  0  0  0  0
  191.1480  177.9040  141.9920 C   0  0  1  0  0  3  0  0  0  0  0  0
  183.2580  178.8510  144.5370 C   0  0  0  0  0  3  0  0  0  0  0  0
  184.1870  178.6810  143.4920 C   0  0  2  0  0  3  0  0  0  0  0  0
  182.4970  179.3210  141.8570 C   0  0  0  0  0  3  0  0  0  0  0  0
  187.1000  178.0130  140.3320 C   0  0  0  0  0  2  0  0  0  0  0  0
  185.2220  178.8850  138.6580 O   0  0  0  0  0  1  0  0  0  0  0  0
  179.6990  180.2450  140.5930 C   0  0  0  0  0  1  0  0  0  0  0  0
  184.7790  178.7430  141.0960 C   0  0  0  0  0  0  0  0  0  0  0  0
  182.1610  179.5470  140.5350 C   0  0  0  0  0  0  0  0  0  0  0  0
  192.3190  177.9470  142.9560 C   0  0  0  0  0  2  0  0  0  0  0  0
  191.9170  178.6320  144.2500 C   0  0  1  0  0  3  0  0  0  0  0  0
  190.9310  179.7500  143.9690 C   0  0  0  0  0  1  0  0  0  0  0  0
  191.3230  177.6990  145.0990 O   0  0  0  0  0  1  0  0  0  0  0  0
  1 16  1  6  0  0  0
  1 20  1  0  0  0  0
  1 10  1  0  0  0  0
  2 12  1  0  0  0  0
  4  3  1  0  0  0  0
  5 27  1  0  0  0  0
  6  5  2  0  0  0  0
  6 28  1  0  0  0  0
  7 19  1  6  0  0  0
  7 17  1  0  0  0  0
  9 28  2  0  0  0  0
  9 26  1  0  0  0  0
 11  3  2  0  0  0  0
 12  8  1  0  0  0  0
 12 13  2  0  0  0  0
 13 11  1  0  0  0  0
 14 22  1  0  0  0  0
 15  9  1  0  0  0  0
 17 10  1  0  0  0  0
 17  8  1  0  0  0  0
 18 15  2  0  0  0  0
 18  6  1  0  0  0  0
 19 16  1  0  0  0  0
 20 10  1  0  0  0  0
 20 29  1  0  0  0  0
 21  4  2  0  0  0  0
 22 13  1  0  0  0  0
 22 21  1  0  0  0  0
 23 14  2  0  0  0  0
 24  7  1  0  0  0  0
 24  2  1  0  0  0  0
 25  5  1  0  0  0  0
 27  2  2  0  0  0  0
 27 14  1  0  0  0  0
 28 23  1  0  0  0  0
 29 30  1  0  0  0  0
 30 32  1  0  0  0  0
 31 30  1  0  0  0  0
M  END
>  <MODEL>
9

>  <REMARK>
 VINA RESULT:      -8.3      3.798      6.827
  Name = 
  2 active torsions:
  status: ('A' for Active; 'I' for Inactive)
    1  A    between atoms: C_20  and  C_29
    2  A    between atoms: C_29  and  C_30
                            x       y       z     vdW  Elec       q    Type
                         _______ _______ _______ _____ _____    ______ ____

>  <TORSDO>
F 2

$$$$
