=
 OpenBabel11122410483D

 32 37  0  0  1  0  0  0  0  0999 V2000
  190.8110  175.7960  137.6220 O   0  0  0  0  0  0  0  0  0  0  0  0
  188.2840  177.8190  141.3170 C   0  0  0  0  0  0  0  0  0  0  0  0
  190.3240  176.9580  145.6090 C   0  0  0  0  0  3  0  0  0  0  0  0
  189.1150  177.1700  146.2680 C   0  0  0  0  0  3  0  0  0  0  0  0
  185.7940  178.3780  141.1660 C   0  0  0  0  0  0  0  0  0  0  0  0
  184.5330  178.5220  141.8880 C   0  0  0  0  0  0  0  0  0  0  0  0
  189.8300  178.0530  139.3380 C   0  0  1  0  0  3  0  0  0  0  0  0
  190.7910  177.3080  141.4840 C   0  0  0  0  0  2  0  0  0  0  0  0
  183.0110  178.6000  143.5720 C   0  0  2  0  0  3  0  0  0  0  0  0
  192.0960  176.9110  139.3640 C   0  0  0  0  0  2  0  0  0  0  0  0
  190.3900  177.0650  144.2560 N   0  0  0  0  0  0  0  0  0  0  0  0
  189.4180  177.4760  142.1040 C   0  0  0  0  0  0  0  0  0  0  0  0
  189.3000  177.3780  143.4970 C   0  0  0  0  0  0  0  0  0  0  0  0
  186.9200  177.9280  143.3600 C   0  0  0  0  0  0  0  0  0  0  0  0
  182.2790  178.8040  142.3100 N   0  0  0  0  0  0  0  0  0  0  0  0
  189.9680  176.7860  137.0590 C   0  0  0  0  0  2  0  0  0  0  0  0
  190.7130  177.0000  140.0010 C   0  0  2  0  0  3  0  0  0  0  0  0
  183.2690  178.7560  141.3110 N   0  0  0  0  0  0  0  0  0  0  0  0
  189.9370  178.1350  137.8070 C   0  0  0  0  0  2  0  0  0  0  0  0
  191.9810  176.3880  137.9980 N   0  0  0  0  0  0  0  0  0  0  0  0
  187.9830  177.4920  145.5210 C   0  0  0  0  0  3  0  0  0  0  0  0
  188.0560  177.6010  144.1230 C   0  0  0  0  0  0  0  0  0  0  0  0
  185.6010  178.1640  144.0870 C   0  0  0  0  0  2  0  0  0  0  0  0
  188.4010  177.8420  139.8040 C   0  0  0  0  0  2  0  0  0  0  0  0
  185.8060  178.5450  139.9180 O   0  0  0  0  0  0  0  0  0  0  0  0
  182.8540  179.8270  144.4520 C   0  0  0  0  0  1  0  0  0  0  0  0
  187.0280  178.0410  141.9430 C   0  0  0  0  0  0  0  0  0  0  0  0
  184.4380  178.4240  143.1800 C   0  0  0  0  0  0  0  0  0  0  0  0
  193.0930  176.3330  137.0900 C   0  0  0  0  0  3  0  0  0  0  0  0
  193.9710  175.3290  137.0050 C   0  0  0  0  0  0  0  0  0  0  0  0
  195.0600  175.4150  135.9980 C   0  0  0  0  0  1  0  0  0  0  0  0
  193.9070  174.2160  137.8350 O   0  0  0  0  0  1  0  0  0  0  0  0
  1 20  1  0  0  0  0
  2 27  2  0  0  0  0
  2 12  1  0  0  0  0
  3  4  1  0  0  0  0
  5  6  1  0  0  0  0
  5 27  1  0  0  0  0
  6 28  2  0  0  0  0
  7 19  1  6  0  0  0
  7 24  1  0  0  0  0
  7 17  1  0  0  0  0
  8 12  1  0  0  0  0
  9 26  1  1  0  0  0
 11  3  2  0  0  0  0
 12 13  2  0  0  0  0
 13 22  1  0  0  0  0
 13 11  1  0  0  0  0
 14 23  1  0  0  0  0
 14 22  2  0  0  0  0
 15  9  1  0  0  0  0
 16  1  1  0  0  0  0
 16 19  1  0  0  0  0
 17 10  1  6  0  0  0
 17  8  1  0  0  0  0
 18  6  1  0  0  0  0
 18 15  2  0  0  0  0
 20 10  1  0  0  0  0
 21  4  2  0  0  0  0
 22 21  1  0  0  0  0
 24  2  1  0  0  0  0
 25  5  2  0  0  0  0
 27 14  1  0  0  0  0
 28  9  1  0  0  0  0
 28 23  1  0  0  0  0
 29 20  1  0  0  0  0
 30 29  2  0  0  0  0
 30 32  1  0  0  0  0
 31 30  1  0  0  0  0
M  END
>  <MODEL>
1

>  <REMARK>
 VINA RESULT:     -10.2      0.000      0.000
  Name = 
  1 active torsions:
  status: ('A' for Active; 'I' for Inactive)
    1  A    between atoms: N_20  and  C_29
                            x       y       z     vdW  Elec       q    Type
                         _______ _______ _______ _____ _____    ______ ____

>  <TORSDO>
F 1

$$$$
=
 OpenBabel11122410483D

 32 37  0  0  1  0  0  0  0  0999 V2000
  189.7770  176.1060  138.8500 O   0  0  0  0  0  0  0  0  0  0  0  0
  186.4240  178.2720  141.7120 C   0  0  0  0  0  0  0  0  0  0  0  0
  187.4930  177.8620  146.4040 C   0  0  0  0  0  3  0  0  0  0  0  0
  186.1610  178.0580  146.7640 C   0  0  0  0  0  3  0  0  0  0  0  0
  184.0100  178.6790  140.9760 C   0  0  0  0  0  0  0  0  0  0  0  0
  182.6160  178.8110  141.3900 C   0  0  0  0  0  0  0  0  0  0  0  0
  188.3600  178.4340  140.1040 C   0  0  1  0  0  3  0  0  0  0  0  0
  188.8480  177.9130  142.4660 C   0  0  0  0  0  2  0  0  0  0  0  0
  180.7570  178.9370  142.6890 C   0  0  2  0  0  3  0  0  0  0  0  0
  190.6030  177.4230  140.7240 C   0  0  0  0  0  2  0  0  0  0  0  0
  187.8530  177.8660  145.0940 N   0  0  0  0  0  0  0  0  0  0  0  0
  187.3670  178.0530  142.7550 C   0  0  0  0  0  0  0  0  0  0  0  0
  186.9470  178.0590  144.0910 C   0  0  0  0  0  0  0  0  0  0  0  0
  184.6380  178.4650  143.3920 C   0  0  0  0  0  0  0  0  0  0  0  0
  180.3160  179.0020  141.2850 N   0  0  0  0  0  2  0  0  0  0  0  0
  189.0450  177.0010  138.0320 C   0  0  0  0  0  2  0  0  0  0  0  0
  189.1120  177.4850  141.0340 C   0  0  2  0  0  3  0  0  0  0  0  0
  181.5030  178.9290  140.5340 N   0  0  0  0  0  0  0  0  0  0  0  0
  188.8000  178.4010  138.6320 C   0  0  0  0  0  2  0  0  0  0  0  0
  190.8120  176.7890  139.4170 N   0  0  0  0  0  0  0  0  0  0  0  0
  185.2120  178.2580  145.7630 C   0  0  0  0  0  3  0  0  0  0  0  0
  185.5880  178.2620  144.4110 C   0  0  0  0  0  0  0  0  0  0  0  0
  183.1830  178.6840  143.7910 C   0  0  0  0  0  3  0  0  0  0  0  0
  186.8710  178.1820  140.2660 C   0  0  0  0  0  2  0  0  0  0  0  0
  184.2920  178.7480  139.7500 O   0  0  0  0  0  0  0  0  0  0  0  0
  180.3660  180.2190  143.4020 C   0  0  0  0  0  1  0  0  0  0  0  0
  185.0530  178.4720  142.0290 C   0  0  0  0  0  0  0  0  0  0  0  0
  182.2410  178.8090  142.6340 C   0  0  0  0  0  0  0  0  0  0  0  0
  192.0990  176.7240  138.7810 C   0  0  0  0  0  3  0  0  0  0  0  0
  192.5760  175.6700  138.1110 C   0  0  0  0  0  0  0  0  0  0  0  0
  193.9240  175.7660  137.4950 C   0  0  0  0  0  1  0  0  0  0  0  0
  191.8610  174.4860  137.9860 O   0  0  0  0  0  1  0  0  0  0  0  0
  1 20  1  0  0  0  0
  2 27  2  0  0  0  0
  2 12  1  0  0  0  0
  3  4  1  0  0  0  0
  5  6  1  0  0  0  0
  5 27  1  0  0  0  0
  6 28  1  0  0  0  0
  7 19  1  6  0  0  0
  7 24  1  0  0  0  0
  7 17  1  0  0  0  0
  8 12  1  0  0  0  0
  9 26  1  1  0  0  0
 11  3  2  0  0  0  0
 12 13  2  0  0  0  0
 13 22  1  0  0  0  0
 13 11  1  0  0  0  0
 14 23  1  0  0  0  0
 14 22  2  0  0  0  0
 15  9  1  0  0  0  0
 16 19  1  0  0  0  0
 16  1  1  0  0  0  0
 17 10  1  6  0  0  0
 17  8  1  0  0  0  0
 18 15  1  0  0  0  0
 18  6  2  0  0  0  0
 20 10  1  0  0  0  0
 21  4  2  0  0  0  0
 22 21  1  0  0  0  0
 24  2  1  0  0  0  0
 25  5  2  0  0  0  0
 27 14  1  0  0  0  0
 28  9  1  0  0  0  0
 28 23  2  0  0  0  0
 29 20  1  0  0  0  0
 30 29  2  0  0  0  0
 31 30  1  0  0  0  0
 32 30  1  0  0  0  0
M  END
>  <MODEL>
2

>  <REMARK>
 VINA RESULT:     -10.0      1.482      2.195
  Name = 
  1 active torsions:
  status: ('A' for Active; 'I' for Inactive)
    1  A    between atoms: N_20  and  C_29
                            x       y       z     vdW  Elec       q    Type
                         _______ _______ _______ _____ _____    ______ ____

>  <TORSDO>
F 1

$$$$
=
 OpenBabel11122410483D

 32 37  0  0  1  0  0  0  0  0999 V2000
  182.8290  177.2900  139.7130 O   0  0  0  0  0  0  0  0  0  0  0  0
  186.7500  178.1520  142.5420 C   0  0  0  0  0  0  0  0  0  0  0  0
  190.8980  177.5030  140.1560 C   0  0  0  0  0  3  0  0  0  0  0  0
  191.5940  177.2990  141.3460 C   0  0  0  0  0  3  0  0  0  0  0  0
  186.6960  177.9920  145.0940 C   0  0  0  0  0  0  0  0  0  0  0  0
  187.4470  177.7030  146.3110 C   0  0  0  0  0  0  0  0  0  0  0  0
  184.7830  179.0030  141.2130 C   0  0  1  0  0  3  0  0  0  0  0  0
  186.8260  178.3610  139.9880 C   0  0  0  0  0  2  0  0  0  0  0  0
  189.1540  177.1850  147.7190 C   0  0  2  0  0  3  0  0  0  0  0  0
  184.6570  178.5540  138.7180 C   0  0  0  0  0  2  0  0  0  0  0  0
  189.5630  177.7530  140.1830 N   0  0  0  0  0  0  0  0  0  0  0  0
  187.4800  178.0720  141.3240 C   0  0  0  0  0  0  0  0  0  0  0  0
  188.8570  177.8130  141.3490 C   0  0  0  0  0  0  0  0  0  0  0  0
  188.8140  177.6740  143.7910 C   0  0  0  0  0  0  0  0  0  0  0  0
  187.9300  177.2910  148.5330 N   0  0  0  0  0  0  0  0  0  0  0  0
  182.3840  178.0490  140.8240 C   0  0  0  0  0  2  0  0  0  0  0  0
  185.3200  178.1850  140.0410 C   0  0  2  0  0  3  0  0  0  0  0  0
  186.9180  177.6210  147.6140 N   0  0  0  0  0  0  0  0  0  0  0  0
  183.2670  179.2560  141.2000 C   0  0  0  0  0  2  0  0  0  0  0  0
  183.2460  178.1520  138.7420 N   0  0  0  0  0  0  0  0  0  0  0  0
  190.9020  177.3550  142.5550 C   0  0  0  0  0  3  0  0  0  0  0  0
  189.5220  177.6130  142.5770 C   0  0  0  0  0  0  0  0  0  0  0  0
  189.5810  177.4550  145.0900 C   0  0  0  0  0  2  0  0  0  0  0  0
  185.2460  178.3510  142.5030 C   0  0  0  0  0  2  0  0  0  0  0  0
  185.4710  178.2730  145.1830 O   0  0  0  0  0  0  0  0  0  0  0  0
  190.1580  178.2270  148.1750 C   0  0  0  0  0  1  0  0  0  0  0  0
  187.4150  177.9470  143.7820 C   0  0  0  0  0  0  0  0  0  0  0  0
  188.7240  177.4600  146.3180 C   0  0  0  0  0  0  0  0  0  0  0  0
  182.3200  178.5010  137.7000 C   0  0  0  0  0  3  0  0  0  0  0  0
  181.7250  179.6900  137.5630 C   0  0  0  0  0  0  0  0  0  0  0  0
  180.8010  179.9000  136.4190 C   0  0  0  0  0  1  0  0  0  0  0  0
  181.9300  180.7300  138.4620 O   0  0  0  0  0  1  0  0  0  0  0  0
  1 16  1  0  0  0  0
  2 27  1  0  0  0  0
  3 11  2  0  0  0  0
  3  4  1  0  0  0  0
  4 21  2  0  0  0  0
  5 25  2  0  0  0  0
  5  6  1  0  0  0  0
  6 28  2  0  0  0  0
  6 18  1  0  0  0  0
  7 19  1  1  0  0  0
  7 24  1  0  0  0  0
  8 17  1  0  0  0  0
  8 12  1  0  0  0  0
  9 26  1  1  0  0  0
  9 15  1  0  0  0  0
 10 20  1  0  0  0  0
 11 13  1  0  0  0  0
 12 13  1  0  0  0  0
 12  2  2  0  0  0  0
 13 22  2  0  0  0  0
 14 23  1  0  0  0  0
 16 19  1  0  0  0  0
 17 10  1  6  0  0  0
 17  7  1  0  0  0  0
 18 15  2  0  0  0  0
 20  1  1  0  0  0  0
 21 22  1  0  0  0  0
 22 14  1  0  0  0  0
 23 28  1  0  0  0  0
 24  2  1  0  0  0  0
 27 14  2  0  0  0  0
 27  5  1  0  0  0  0
 28  9  1  0  0  0  0
 29 20  1  0  0  0  0
 30 29  2  0  0  0  0
 30 32  1  0  0  0  0
 31 30  1  0  0  0  0
M  END
>  <MODEL>
3

>  <REMARK>
 VINA RESULT:      -9.4      3.535      7.140
  Name = 
  1 active torsions:
  status: ('A' for Active; 'I' for Inactive)
    1  A    between atoms: N_20  and  C_29
                            x       y       z     vdW  Elec       q    Type
                         _______ _______ _______ _____ _____    ______ ____

>  <TORSDO>
F 1

$$$$
=
 OpenBabel11122410483D

 32 37  0  0  1  0  0  0  0  0999 V2000
  182.9840  180.4430  139.1530 O   0  0  0  0  0  0  0  0  0  0  0  0
  185.9850  178.1410  142.2870 C   0  0  0  0  0  0  0  0  0  0  0  0
  184.5540  178.6280  146.8740 C   0  0  0  0  0  3  0  0  0  0  0  0
  185.8410  178.3720  147.3420 C   0  0  0  0  0  3  0  0  0  0  0  0
  188.4300  177.6180  141.7530 C   0  0  0  0  0  0  0  0  0  0  0  0
  189.7770  177.4250  142.2810 C   0  0  0  0  0  0  0  0  0  0  0  0
  184.1830  178.0590  140.5250 C   0  0  1  0  0  3  0  0  0  0  0  0
  183.5260  178.6160  142.8370 C   0  0  0  0  0  2  0  0  0  0  0  0
  191.5150  177.2210  143.7290 C   0  0  2  0  0  3  0  0  0  0  0  0
  181.9450  179.1770  140.9550 C   0  0  0  0  0  2  0  0  0  0  0  0
  184.3030  178.6320  145.5380 N   0  0  0  0  0  0  0  0  0  0  0  0
  184.9700  178.4090  143.2470 C   0  0  0  0  0  0  0  0  0  0  0  0
  185.2790  178.3920  144.6140 C   0  0  0  0  0  0  0  0  0  0  0  0
  187.6160  177.8760  144.1090 C   0  0  0  0  0  0  0  0  0  0  0  0
  192.0670  177.1280  142.3660 N   0  0  0  0  0  2  0  0  0  0  0  0
  183.7380  179.5100  138.4000 C   0  0  0  0  0  2  0  0  0  0  0  0
  183.4020  179.0470  141.3870 C   0  0  2  0  0  3  0  0  0  0  0  0
  190.9500  177.2500  141.5200 N   0  0  0  0  0  0  0  0  0  0  0  0
  183.8670  178.1030  139.0220 C   0  0  0  0  0  2  0  0  0  0  0  0
  181.8740  179.8120  139.6350 N   0  0  0  0  0  0  0  0  0  0  0  0
  186.8590  178.1230  146.4230 C   0  0  0  0  0  3  0  0  0  0  0  0
  186.5950  178.1290  145.0450 C   0  0  0  0  0  0  0  0  0  0  0  0
  189.0210  177.5920  144.6270 C   0  0  0  0  0  3  0  0  0  0  0  0
  185.6630  178.2430  140.8080 C   0  0  0  0  0  2  0  0  0  0  0  0
  188.2470  177.5550  140.5080 O   0  0  0  0  0  0  0  0  0  0  0  0
  191.7870  175.9270  144.4740 C   0  0  0  0  0  1  0  0  0  0  0  0
  187.3150  177.8790  142.7160 C   0  0  0  0  0  0  0  0  0  0  0  0
  190.0480  177.4170  143.5510 C   0  0  0  0  0  0  0  0  0  0  0  0
  180.6490  179.9330  138.8940 C   0  0  0  0  0  3  0  0  0  0  0  0
  180.2190  181.0440  138.2890 C   0  0  0  0  0  0  0  0  0  0  0  0
  178.9330  181.0030  137.5470 C   0  0  0  0  0  1  0  0  0  0  0  0
  180.9260  182.2380  138.3450 O   0  0  0  0  0  1  0  0  0  0  0  0
  1 20  1  0  0  0  0
  2 27  2  0  0  0  0
  2 12  1  0  0  0  0
  3  4  1  0  0  0  0
  5  6  1  0  0  0  0
  5 27  1  0  0  0  0
  6 28  1  0  0  0  0
  7 19  1  6  0  0  0
  7 24  1  0  0  0  0
  7 17  1  0  0  0  0
  8 12  1  0  0  0  0
  9 26  1  1  0  0  0
 11  3  2  0  0  0  0
 12 13  2  0  0  0  0
 13 22  1  0  0  0  0
 13 11  1  0  0  0  0
 14 23  1  0  0  0  0
 14 22  2  0  0  0  0
 15  9  1  0  0  0  0
 16 19  1  0  0  0  0
 16  1  1  0  0  0  0
 17 10  1  6  0  0  0
 17  8  1  0  0  0  0
 18  6  2  0  0  0  0
 18 15  1  0  0  0  0
 20 10  1  0  0  0  0
 21  4  2  0  0  0  0
 22 21  1  0  0  0  0
 24  2  1  0  0  0  0
 25  5  2  0  0  0  0
 27 14  1  0  0  0  0
 28  9  1  0  0  0  0
 28 23  2  0  0  0  0
 29 20  1  0  0  0  0
 30 32  1  0  0  0  0
 30 29  2  0  0  0  0
 31 30  1  0  0  0  0
M  END
>  <MODEL>
4

>  <REMARK>
 VINA RESULT:      -9.1      3.383      7.989
  Name = 
  1 active torsions:
  status: ('A' for Active; 'I' for Inactive)
    1  A    between atoms: N_20  and  C_29
                            x       y       z     vdW  Elec       q    Type
                         _______ _______ _______ _____ _____    ______ ____

>  <TORSDO>
F 1

$$$$
=
 OpenBabel11122410483D

 32 37  0  0  1  0  0  0  0  0999 V2000
  189.0080  178.6310  147.1820 O   0  0  0  0  0  0  0  0  0  0  0  0
  185.9570  178.0430  143.3780 C   0  0  0  0  0  0  0  0  0  0  0  0
  188.2890  178.0680  139.1490 C   0  0  0  0  0  3  0  0  0  0  0  0
  187.1280  178.4290  138.4680 C   0  0  0  0  0  3  0  0  0  0  0  0
  183.4700  178.6280  143.4780 C   0  0  0  0  0  0  0  0  0  0  0  0
  182.2940  179.0750  142.7380 C   0  0  0  0  0  0  0  0  0  0  0  0
  187.1880  177.0890  145.3620 C   0  0  1  0  0  3  0  0  0  0  0  0
  188.4390  177.4100  143.2590 C   0  0  0  0  0  2  0  0  0  0  0  0
  180.9390  179.7280  141.0350 C   0  0  2  0  0  3  0  0  0  0  0  0
  189.7250  177.1240  145.4080 C   0  0  0  0  0  2  0  0  0  0  0  0
  188.2630  177.8970  140.4970 N   0  0  0  0  0  0  0  0  0  0  0  0
  187.1490  177.8820  142.6190 C   0  0  0  0  0  0  0  0  0  0  0  0
  187.1240  178.0680  141.2300 C   0  0  0  0  0  0  0  0  0  0  0  0
  184.7410  178.6130  141.3180 C   0  0  0  0  0  0  0  0  0  0  0  0
  180.1560  179.8230  142.2800 N   0  0  0  0  0  0  0  0  0  0  0  0
  187.8030  178.0910  147.6930 C   0  0  0  0  0  2  0  0  0  0  0  0
  188.4610  177.6720  144.7540 C   0  0  2  0  0  3  0  0  0  0  0  0
  181.0390  179.3990  143.2900 N   0  0  0  0  0  0  0  0  0  0  0  0
  187.2060  176.9180  146.8890 C   0  0  0  0  0  2  0  0  0  0  0  0
  189.8120  177.5990  146.7940 N   0  0  0  0  0  0  0  0  0  0  0  0
  185.9480  178.6110  139.1890 C   0  0  0  0  0  3  0  0  0  0  0  0
  185.9270  178.4340  140.5810 C   0  0  0  0  0  0  0  0  0  0  0  0
  183.4730  179.0030  140.5680 C   0  0  0  0  0  2  0  0  0  0  0  0
  186.0090  177.9210  144.8890 C   0  0  0  0  0  2  0  0  0  0  0  0
  183.3730  178.4300  144.7190 O   0  0  0  0  0  0  0  0  0  0  0  0
  180.2870  178.7240  140.1030 C   0  0  0  0  0  1  0  0  0  0  0  0
  184.7490  178.4160  142.7290 C   0  0  0  0  0  0  0  0  0  0  0  0
  182.2880  179.2480  141.4500 C   0  0  0  0  0  0  0  0  0  0  0  0
  190.8100  177.1310  147.7160 C   0  0  0  0  0  3  0  0  0  0  0  0
  191.8490  176.3520  147.3990 C   0  0  0  0  0  0  0  0  0  0  0  0
  192.8050  175.9660  148.4680 C   0  0  0  0  0  1  0  0  0  0  0  0
  192.0560  175.8810  146.1080 O   0  0  0  0  0  1  0  0  0  0  0  0
  1 16  1  0  0  0  0
  2 24  1  0  0  0  0
  3 11  1  0  0  0  0
  4  3  2  0  0  0  0
  4 21  1  0  0  0  0
  5 25  2  0  0  0  0
  6 18  1  0  0  0  0
  6  5  1  0  0  0  0
  7 24  1  1  0  0  0
  7 19  1  0  0  0  0
  9 26  1  6  0  0  0
  9 28  1  0  0  0  0
  9 15  1  0  0  0  0
 10 20  1  0  0  0  0
 11 13  2  0  0  0  0
 12  8  1  0  0  0  0
 12  2  2  0  0  0  0
 13 12  1  0  0  0  0
 14 27  2  0  0  0  0
 15 18  2  0  0  0  0
 17  8  1  6  0  0  0
 17  7  1  0  0  0  0
 17 10  1  0  0  0  0
 19 16  1  0  0  0  0
 20  1  1  0  0  0  0
 20 29  1  0  0  0  0
 21 22  2  0  0  0  0
 22 13  1  0  0  0  0
 22 14  1  0  0  0  0
 23 14  1  0  0  0  0
 23 28  1  0  0  0  0
 27  2  1  0  0  0  0
 27  5  1  0  0  0  0
 28  6  2  0  0  0  0
 30 29  2  0  0  0  0
 30 31  1  0  0  0  0
 32 30  1  0  0  0  0
M  END
>  <MODEL>
5

>  <REMARK>
 VINA RESULT:      -9.0      3.614      6.572
  Name = 
  1 active torsions:
  status: ('A' for Active; 'I' for Inactive)
    1  A    between atoms: N_20  and  C_29
                            x       y       z     vdW  Elec       q    Type
                         _______ _______ _______ _____ _____    ______ ____

>  <TORSDO>
F 1

$$$$
=
 OpenBabel11122410483D

 32 37  0  0  1  0  0  0  0  0999 V2000
  190.1510  176.3710  145.1590 O   0  0  0  0  0  0  0  0  0  0  0  0
  190.8760  177.2460  140.3810 C   0  0  0  0  0  0  0  0  0  0  0  0
  186.7270  177.8810  137.9930 C   0  0  0  0  0  3  0  0  0  0  0  0
  187.3270  177.5390  136.7820 C   0  0  0  0  0  3  0  0  0  0  0  0
  192.9800  176.5100  139.1280 C   0  0  0  0  0  0  0  0  0  0  0  0
  193.5540  176.0910  137.8530 C   0  0  0  0  0  0  0  0  0  0  0  0
  190.9480  178.0170  142.7810 C   0  0  1  0  0  3  0  0  0  0  0  0
  188.7720  178.0320  141.6180 C   0  0  0  0  0  2  0  0  0  0  0  0
  193.7650  175.5750  135.6510 C   0  0  2  0  0  3  0  0  0  0  0  0
  188.8050  178.1240  144.1370 C   0  0  0  0  0  2  0  0  0  0  0  0
  187.4560  177.8820  139.1390 N   0  0  0  0  0  0  0  0  0  0  0  0
  189.4910  177.5690  140.3660 C   0  0  0  0  0  0  0  0  0  0  0  0
  188.7820  177.5550  139.1580 C   0  0  0  0  0  0  0  0  0  0  0  0
  190.7960  176.8660  137.9530 C   0  0  0  0  0  0  0  0  0  0  0  0
  195.0570  175.2820  136.2960 N   0  0  0  0  0  0  0  0  0  0  0  0
  191.5010  176.7720  145.0080 C   0  0  0  0  0  2  0  0  0  0  0  0
  189.4860  177.5900  142.8810 C   0  0  2  0  0  3  0  0  0  0  0  0
  194.8680  175.6280  137.6460 N   0  0  0  0  0  0  0  0  0  0  0  0
  191.7320  177.9990  144.1030 C   0  0  0  0  0  2  0  0  0  0  0  0
  189.3850  177.4880  145.3250 N   0  0  0  0  0  0  0  0  0  0  0  0
  188.6800  177.2020  136.7690 C   0  0  0  0  0  3  0  0  0  0  0  0
  189.4290  177.2040  137.9550 C   0  0  0  0  0  0  0  0  0  0  0  0
  191.4490  176.4990  136.6250 C   0  0  0  0  0  2  0  0  0  0  0  0
  191.6170  177.1830  141.7030 C   0  0  0  0  0  2  0  0  0  0  0  0
  193.7190  176.5460  140.1490 O   0  0  0  0  0  0  0  0  0  0  0  0
  193.9590  176.6470  134.5940 C   0  0  0  0  0  1  0  0  0  0  0  0
  191.5320  176.8870  139.1720 C   0  0  0  0  0  0  0  0  0  0  0  0
  192.8820  176.0780  136.7410 C   0  0  0  0  0  0  0  0  0  0  0  0
  189.0590  177.8960  146.6640 C   0  0  0  0  0  3  0  0  0  0  0  0
  187.8500  177.8010  147.2260 C   0  0  0  0  0  0  0  0  0  0  0  0
  187.6780  178.2540  148.6310 C   0  0  0  0  0  1  0  0  0  0  0  0
  186.7490  177.3090  146.5370 O   0  0  0  0  0  1  0  0  0  0  0  0
  1 20  1  0  0  0  0
  2 24  1  0  0  0  0
  3 11  2  0  0  0  0
  4  3  1  0  0  0  0
  5 27  1  0  0  0  0
  5 25  2  0  0  0  0
  6  5  1  0  0  0  0
  7 24  1  6  0  0  0
  7 17  1  0  0  0  0
  7 19  1  0  0  0  0
  9 26  1  6  0  0  0
  9 15  1  0  0  0  0
  9 28  1  0  0  0  0
 10 20  1  0  0  0  0
 11 13  1  0  0  0  0
 12  2  1  0  0  0  0
 12  8  1  0  0  0  0
 13 12  2  0  0  0  0
 14 22  2  0  0  0  0
 14 27  1  0  0  0  0
 15 18  2  0  0  0  0
 16  1  1  0  0  0  0
 17  8  1  6  0  0  0
 17 10  1  0  0  0  0
 18  6  1  0  0  0  0
 19 16  1  0  0  0  0
 20 29  1  0  0  0  0
 21  4  2  0  0  0  0
 21 22  1  0  0  0  0
 22 13  1  0  0  0  0
 23 28  1  0  0  0  0
 23 14  1  0  0  0  0
 27  2  2  0  0  0  0
 28  6  2  0  0  0  0
 29 30  2  0  0  0  0
 30 31  1  0  0  0  0
 32 30  1  0  0  0  0
M  END
>  <MODEL>
6

>  <REMARK>
 VINA RESULT:      -8.9      3.048      8.967
  Name = 
  1 active torsions:
  status: ('A' for Active; 'I' for Inactive)
    1  A    between atoms: N_20  and  C_29
                            x       y       z     vdW  Elec       q    Type
                         _______ _______ _______ _____ _____    ______ ____

>  <TORSDO>
F 1

$$$$
=
 OpenBabel11122410483D

 32 37  0  0  1  0  0  0  0  0999 V2000
  181.6430  177.5510  140.7030 O   0  0  0  0  0  0  0  0  0  0  0  0
  186.0300  178.2280  142.8050 C   0  0  0  0  0  0  0  0  0  0  0  0
  189.6550  177.7900  139.6430 C   0  0  0  0  0  3  0  0  0  0  0  0
  190.5600  177.5030  140.6630 C   0  0  0  0  0  3  0  0  0  0  0  0
  186.4540  177.8750  145.3020 C   0  0  0  0  0  0  0  0  0  0  0  0
  187.4180  177.5020  146.3330 C   0  0  0  0  0  0  0  0  0  0  0  0
  183.8550  179.1610  141.9350 C   0  0  1  0  0  3  0  0  0  0  0  0
  185.6280  178.6280  140.3050 C   0  0  0  0  0  2  0  0  0  0  0  0
  189.3540  176.8920  147.3530 C   0  0  2  0  0  3  0  0  0  0  0  0
  183.2610  178.8990  139.4820 C   0  0  0  0  0  2  0  0  0  0  0  0
  188.3500  178.0270  139.9380 N   0  0  0  0  0  0  0  0  0  0  0  0
  186.5190  178.2450  141.4690 C   0  0  0  0  0  0  0  0  0  0  0  0
  187.8750  177.9950  141.2170 C   0  0  0  0  0  0  0  0  0  0  0  0
  188.2880  177.6720  143.6070 C   0  0  0  0  0  0  0  0  0  0  0  0
  188.3050  176.9280  148.3870 N   0  0  0  0  0  0  0  0  0  0  0  0
  181.4190  178.2210  141.9310 C   0  0  0  0  0  2  0  0  0  0  0  0
  184.1580  178.4380  140.6260 C   0  0  2  0  0  3  0  0  0  0  0  0
  187.1410  177.3190  147.7020 N   0  0  0  0  0  0  0  0  0  0  0  0
  182.3650  179.4030  142.2250 C   0  0  0  0  0  2  0  0  0  0  0  0
  181.8770  178.4860  139.7380 N   0  0  0  0  0  0  0  0  0  0  0  0
  190.1060  177.4630  141.9810 C   0  0  0  0  0  3  0  0  0  0  0  0
  188.7560  177.7080  142.2800 C   0  0  0  0  0  0  0  0  0  0  0  0
  189.2840  177.3630  144.7190 C   0  0  0  0  0  2  0  0  0  0  0  0
  184.5470  178.4170  143.0630 C   0  0  0  0  0  2  0  0  0  0  0  0
  185.2690  178.1400  145.6400 O   0  0  0  0  0  0  0  0  0  0  0  0
  190.4330  177.9050  147.6900 C   0  0  0  0  0  1  0  0  0  0  0  0
  186.9140  177.9350  143.8790 C   0  0  0  0  0  0  0  0  0  0  0  0
  188.6710  177.2680  146.0820 C   0  0  0  0  0  0  0  0  0  0  0  0
  180.7750  178.9060  138.9170 C   0  0  0  0  0  3  0  0  0  0  0  0
  180.1620  180.0910  138.9950 C   0  0  0  0  0  0  0  0  0  0  0  0
  179.0430  180.3800  138.0610 C   0  0  0  0  0  1  0  0  0  0  0  0
  180.5270  181.0540  139.9270 O   0  0  0  0  0  1  0  0  0  0  0  0
  1 16  1  0  0  0  0
  2 24  1  0  0  0  0
  2 27  1  0  0  0  0
  3 11  2  0  0  0  0
  3  4  1  0  0  0  0
  4 21  2  0  0  0  0
  5 25  2  0  0  0  0
  5  6  1  0  0  0  0
  6 18  1  0  0  0  0
  7 19  1  1  0  0  0
  7 24  1  0  0  0  0
  8 17  1  0  0  0  0
  8 12  1  0  0  0  0
  9 26  1  1  0  0  0
  9 15  1  0  0  0  0
 10 20  1  0  0  0  0
 11 13  1  0  0  0  0
 12  2  2  0  0  0  0
 13 12  1  0  0  0  0
 13 22  2  0  0  0  0
 14 27  2  0  0  0  0
 14 23  1  0  0  0  0
 16 19  1  0  0  0  0
 17 10  1  6  0  0  0
 17  7  1  0  0  0  0
 18 15  2  0  0  0  0
 20  1  1  0  0  0  0
 21 22  1  0  0  0  0
 22 14  1  0  0  0  0
 23 28  1  0  0  0  0
 27  5  1  0  0  0  0
 28  6  2  0  0  0  0
 28  9  1  0  0  0  0
 29 30  2  0  0  0  0
 29 20  1  0  0  0  0
 30 32  1  0  0  0  0
 31 30  1  0  0  0  0
M  END
>  <MODEL>
7

>  <REMARK>
 VINA RESULT:      -8.9      3.758      7.977
  Name = 
  1 active torsions:
  status: ('A' for Active; 'I' for Inactive)
    1  A    between atoms: N_20  and  C_29
                            x       y       z     vdW  Elec       q    Type
                         _______ _______ _______ _____ _____    ______ ____

>  <TORSDO>
F 1

$$$$
=
 OpenBabel11122410483D

 32 37  0  0  1  0  0  0  0  0999 V2000
  188.9130  178.5900  146.1900 O   0  0  0  0  0  0  0  0  0  0  0  0
  186.5710  178.0160  141.9110 C   0  0  0  0  0  0  0  0  0  0  0  0
  189.5980  178.1070  138.1490 C   0  0  0  0  0  3  0  0  0  0  0  0
  188.5680  178.4650  137.2810 C   0  0  0  0  0  3  0  0  0  0  0  0
  184.0980  178.5760  141.5850 C   0  0  0  0  0  0  0  0  0  0  0  0
  183.0620  179.0200  140.6570 C   0  0  0  0  0  0  0  0  0  0  0  0
  187.4510  177.0520  144.0690 C   0  0  1  0  0  3  0  0  0  0  0  0
  189.0430  177.4070  142.2170 C   0  0  0  0  0  2  0  0  0  0  0  0
  182.0150  179.6790  138.7520 C   0  0  2  0  0  3  0  0  0  0  0  0
  189.9420  177.1100  144.5540 C   0  0  0  0  0  2  0  0  0  0  0  0
  189.3410  177.9210  139.4700 N   0  0  0  0  0  0  0  0  0  0  0  0
  187.8780  177.8730  141.3680 C   0  0  0  0  0  0  0  0  0  0  0  0
  188.0910  178.0740  139.9980 C   0  0  0  0  0  0  0  0  0  0  0  0
  185.7230  178.5960  139.6770 C   0  0  0  0  0  0  0  0  0  0  0  0
  181.0280  179.7530  139.8430 N   0  0  0  0  0  0  0  0  0  0  0  0
  187.6430  178.0340  146.4810 C   0  0  0  0  0  2  0  0  0  0  0  0
  188.8040  177.6520  143.6960 C   0  0  2  0  0  3  0  0  0  0  0  0
  181.7270  179.3270  140.9870 N   0  0  0  0  0  0  0  0  0  0  0  0
  187.2070  176.8640  145.5750 C   0  0  0  0  0  2  0  0  0  0  0  0
  189.7830  177.5700  145.9370 N   0  0  0  0  0  0  0  0  0  0  0  0
  187.2800  178.6280  137.7890 C   0  0  0  0  0  3  0  0  0  0  0  0
  187.0200  178.4360  139.1550 C   0  0  0  0  0  0  0  0  0  0  0  0
  184.5990  178.9820  138.7220 C   0  0  0  0  0  2  0  0  0  0  0  0
  186.3630  177.8780  143.4080 C   0  0  0  0  0  2  0  0  0  0  0  0
  183.7900  178.3640  142.7880 O   0  0  0  0  0  0  0  0  0  0  0  0
  181.5440  178.6790  137.7110 C   0  0  0  0  0  1  0  0  0  0  0  0
  185.4890  178.3840  141.0670 C   0  0  0  0  0  0  0  0  0  0  0  0
  183.2770  179.2070  139.3890 C   0  0  0  0  0  0  0  0  0  0  0  0
  190.6110  177.1010  147.0140 C   0  0  0  0  0  3  0  0  0  0  0  0
  191.6640  176.2900  146.8800 C   0  0  0  0  0  0  0  0  0  0  0  0
  192.4310  175.9070  148.0930 C   0  0  0  0  0  1  0  0  0  0  0  0
  192.0560  175.7800  145.6480 O   0  0  0  0  0  1  0  0  0  0  0  0
  1 16  1  0  0  0  0
  2 24  1  0  0  0  0
  3 11  2  0  0  0  0
  4 21  2  0  0  0  0
  4  3  1  0  0  0  0
  5 25  2  0  0  0  0
  6 18  1  0  0  0  0
  6  5  1  0  0  0  0
  7 24  1  1  0  0  0
  7 19  1  0  0  0  0
  9 26  1  6  0  0  0
  9 28  1  0  0  0  0
  9 15  1  0  0  0  0
 10 20  1  0  0  0  0
 11 13  1  0  0  0  0
 12  2  1  0  0  0  0
 12  8  1  0  0  0  0
 13 12  2  0  0  0  0
 14 27  1  0  0  0  0
 15 18  2  0  0  0  0
 17  8  1  6  0  0  0
 17  7  1  0  0  0  0
 17 10  1  0  0  0  0
 19 16  1  0  0  0  0
 20  1  1  0  0  0  0
 20 29  1  0  0  0  0
 21 22  1  0  0  0  0
 22 14  2  0  0  0  0
 22 13  1  0  0  0  0
 23 28  1  0  0  0  0
 23 14  1  0  0  0  0
 27  5  1  0  0  0  0
 27  2  2  0  0  0  0
 28  6  2  0  0  0  0
 30 29  2  0  0  0  0
 30 31  1  0  0  0  0
 32 30  1  0  0  0  0
M  END
>  <MODEL>
8

>  <REMARK>
 VINA RESULT:      -8.8      3.077      6.353
  Name = 
  1 active torsions:
  status: ('A' for Active; 'I' for Inactive)
    1  A    between atoms: N_20  and  C_29
                            x       y       z     vdW  Elec       q    Type
                         _______ _______ _______ _____ _____    ______ ____

>  <TORSDO>
F 1

$$$$
=
 OpenBabel11122410483D

 32 37  0  0  1  0  0  0  0  0999 V2000
  189.3370  179.1490  138.7490 O   0  0  0  0  0  0  0  0  0  0  0  0
  187.3230  177.9420  143.0630 C   0  0  0  0  0  0  0  0  0  0  0  0
  182.6140  179.0040  143.2370 C   0  0  0  0  0  3  0  0  0  0  0  0
  182.6360  179.0410  144.6300 C   0  0  0  0  0  3  0  0  0  0  0  0
  188.6720  177.7240  145.2240 C   0  0  0  0  0  0  0  0  0  0  0  0
  188.6670  177.8420  146.6790 C   0  0  0  0  0  0  0  0  0  0  0  0
  188.2640  177.2660  140.8230 C   0  0  1  0  0  3  0  0  0  0  0  0
  185.9490  178.1140  140.9050 C   0  0  0  0  0  2  0  0  0  0  0  0
  187.9590  178.1750  148.8120 C   0  0  2  0  0  3  0  0  0  0  0  0
  187.1530  178.0750  138.6900 C   0  0  0  0  0  2  0  0  0  0  0  0
  183.7520  178.7310  142.5450 N   0  0  0  0  0  0  0  0  0  0  0  0
  186.0880  178.2130  142.4100 C   0  0  0  0  0  0  0  0  0  0  0  0
  184.9420  178.4880  143.1680 C   0  0  0  0  0  0  0  0  0  0  0  0
  186.2250  178.2650  145.2390 C   0  0  0  0  0  0  0  0  0  0  0  0
  189.4110  177.9290  148.8640 N   0  0  0  0  0  0  0  0  0  0  0  0
  190.2120  178.2280  139.3750 C   0  0  0  0  0  2  0  0  0  0  0  0
  187.2850  178.2550  140.1990 C   0  0  2  0  0  3  0  0  0  0  0  0
  189.7880  177.7220  147.5250 N   0  0  0  0  0  0  0  0  0  0  0  0
  189.5360  176.9920  140.0050 C   0  0  0  0  0  2  0  0  0  0  0  0
  188.4110  178.4470  138.0340 N   0  0  0  0  0  0  0  0  0  0  0  0
  183.8360  178.7960  145.2960 C   0  0  0  0  0  3  0  0  0  0  0  0
  185.0080  178.5150  144.5770 C   0  0  0  0  0  0  0  0  0  0  0  0
  186.2410  178.3010  146.7630 C   0  0  0  0  0  2  0  0  0  0  0  0
  188.5760  177.7280  142.2350 C   0  0  0  0  0  2  0  0  0  0  0  0
  189.7430  177.4130  144.6390 O   0  0  0  0  0  0  0  0  0  0  0  0
  187.2350  177.0930  149.5910 C   0  0  0  0  0  1  0  0  0  0  0  0
  187.3960  177.9730  144.4820 C   0  0  0  0  0  0  0  0  0  0  0  0
  187.5970  178.1020  147.3670 C   0  0  0  0  0  0  0  0  0  0  0  0
  188.6490  178.2400  136.6330 C   0  0  0  0  0  3  0  0  0  0  0  0
  188.9960  177.0770  136.0720 C   0  0  0  0  0  0  0  0  0  0  0  0
  189.1920  177.0230  134.6000 C   0  0  0  0  0  1  0  0  0  0  0  0
  189.1950  175.9240  136.8200 O   0  0  0  0  0  1  0  0  0  0  0  0
  1 16  1  0  0  0  0
  2 27  1  0  0  0  0
  3  4  1  0  0  0  0
  4 21  2  0  0  0  0
  5  6  1  0  0  0  0
  6 28  2  0  0  0  0
  6 18  1  0  0  0  0
  7 19  1  6  0  0  0
  7 24  1  0  0  0  0
  8 12  1  0  0  0  0
  9 15  1  0  0  0  0
  9 26  1  1  0  0  0
 11 13  1  0  0  0  0
 11  3  2  0  0  0  0
 12  2  2  0  0  0  0
 12 13  1  0  0  0  0
 13 22  2  0  0  0  0
 14 23  1  0  0  0  0
 16 19  1  0  0  0  0
 17 10  1  6  0  0  0
 17  7  1  0  0  0  0
 17  8  1  0  0  0  0
 18 15  2  0  0  0  0
 20 10  1  0  0  0  0
 20  1  1  0  0  0  0
 22 14  1  0  0  0  0
 22 21  1  0  0  0  0
 23 28  1  0  0  0  0
 24  2  1  0  0  0  0
 25  5  2  0  0  0  0
 27  5  1  0  0  0  0
 27 14  2  0  0  0  0
 28  9  1  0  0  0  0
 29 20  1  0  0  0  0
 30 29  2  0  0  0  0
 30 32  1  0  0  0  0
 31 30  1  0  0  0  0
M  END
>  <MODEL>
9

>  <REMARK>
 VINA RESULT:      -8.8      2.447      5.313
  Name = 
  1 active torsions:
  status: ('A' for Active; 'I' for Inactive)
    1  A    between atoms: N_20  and  C_29
                            x       y       z     vdW  Elec       q    Type
                         _______ _______ _______ _____ _____    ______ ____

>  <TORSDO>
F 1

$$$$
