=
 OpenBabel11122411563D

 28 32  0  0  1  0  0  0  0  0999 V2000
  189.3990  178.1350  138.0330 C   0  0  0  0  0  0  0  0  0  0  0  0
  192.3720  175.9390  134.5940 F   0  0  0  0  0  0  0  0  0  0  0  0
  186.6370  174.5530  137.2320 O   0  0  0  0  0  0  0  0  0  0  0  0
  189.9240  176.8400  140.4590 C   0  0  0  0  0  3  0  0  0  0  0  0
  188.7920  173.6650  136.7060 C   0  0  0  0  0  0  0  0  0  0  0  0
  189.0980  178.7350  136.8110 O   0  0  0  0  0  0  0  0  0  0  0  0
  193.9230  176.7320  136.1830 C   0  0  0  0  0  1  0  0  0  0  0  0
  192.9600  175.6230  135.8090 C   0  0  1  0  0  0  0  0  0  0  0  0
  192.7640  173.1820  135.4890 C   0  0  1  0  0  3  0  0  0  0  0  0
  191.9030  175.4750  136.9270 C   0  0  2  0  0  3  0  0  0  0  0  0
  186.2110  177.5250  137.6020 C   0  0  0  0  0  1  0  0  0  0  0  0
  189.7030  175.7000  135.8630 C   0  0  1  0  0  3  0  0  0  0  0  0
  192.0590  172.9940  136.6930 O   0  0  0  0  0  0  0  0  0  0  0  0
  193.7470  174.3330  135.6430 C   0  0  0  0  0  2  0  0  0  0  0  0
  186.8410  177.9610  136.2910 C   0  0  2  0  0  3  0  0  0  0  0  0
  190.2120  176.9920  138.0470 C   0  0  0  0  0  0  0  0  0  0  0  0
  187.8100  174.7080  136.8010 C   0  0  0  0  0  0  0  0  0  0  0  0
  193.5220  171.9170  135.1500 C   0  0  0  0  0  1  0  0  0  0  0  0
  187.4370  176.8010  135.4780 C   0  0  0  0  0  2  0  0  0  0  0  0
  190.4580  176.3410  139.2680 C   0  0  0  0  0  3  0  0  0  0  0  0
  188.8620  178.6320  139.2300 C   0  0  0  0  0  3  0  0  0  0  0  0
  189.1290  177.9870  140.4400 C   0  0  0  0  0  3  0  0  0  0  0  0
  187.7830  179.1550  136.4730 C   0  0  0  0  0  2  0  0  0  0  0  0
  190.0020  174.1880  136.0210 C   0  0  1  0  0  3  0  0  0  0  0  0
  188.3050  175.9240  136.2660 N   0  0  0  0  0  0  0  0  0  0  0  0
  191.2140  174.1040  136.9340 C   0  0  2  0  0  3  0  0  0  0  0  0
  188.6300  172.4770  137.0920 O   0  0  0  0  0  0  0  0  0  0  0  0
  190.7430  176.4530  136.7320 C   0  0  1  0  0  3  0  0  0  0  0  0
  1 16  2  0  0  0  0
  1 21  1  0  0  0  0
  2  8  1  0  0  0  0
  5 17  1  0  0  0  0
  5 27  2  0  0  0  0
  6  1  1  0  0  0  0
  8  7  1  1  0  0  0
  8 10  1  0  0  0  0
  9 18  1  1  0  0  0
  9 14  1  0  0  0  0
  9 13  1  0  0  0  0
 10 26  1  0  0  0  0
 12 24  1  0  0  0  0
 12 25  1  0  0  0  0
 12 28  1  0  0  0  0
 13 26  1  0  0  0  0
 14  8  1  0  0  0  0
 15 23  1  0  0  0  0
 15 11  1  0  0  0  0
 16 20  1  0  0  0  0
 17  3  2  0  0  0  0
 19 25  1  0  0  0  0
 19 15  1  0  0  0  0
 20  4  2  0  0  0  0
 21 22  2  0  0  0  0
 22  4  1  0  0  0  0
 23  6  1  0  0  0  0
 24  5  1  0  0  0  0
 24 26  1  0  0  0  0
 25 17  1  0  0  0  0
 28 10  1  0  0  0  0
 28 16  1  0  0  0  0
M  END
>  <MODEL>
1

>  <REMARK>
 VINA RESULT:      -6.1      0.000      0.000
  Name = 
  0 active torsions:
  status: ('A' for Active; 'I' for Inactive)
                            x       y       z     vdW  Elec       q    Type
                         _______ _______ _______ _____ _____    ______ ____

>  <TORSDO>
F 0

$$$$
=
 OpenBabel11122411563D

 28 32  0  0  1  0  0  0  0  0999 V2000
  181.2490  179.0930  137.7240 C   0  0  0  0  0  0  0  0  0  0  0  0
  185.6830  176.8000  138.4800 F   0  0  0  0  0  0  0  0  0  0  0  0
  180.7450  178.5640  142.2580 O   0  0  0  0  0  0  0  0  0  0  0  0
  181.6480  181.7910  138.3560 C   0  0  0  0  0  3  0  0  0  0  0  0
  183.1210  178.6430  142.0130 C   0  0  0  0  0  0  0  0  0  0  0  0
  181.0420  177.7380  137.4670 O   0  0  0  0  0  0  0  0  0  0  0  0
  186.2220  178.4460  136.8790 C   0  0  0  0  0  1  0  0  0  0  0  0
  186.0070  178.1420  138.3490 C   0  0  1  0  0  0  0  0  0  0  0  0
  187.0380  178.3100  140.5860 C   0  0  1  0  0  3  0  0  0  0  0  0
  184.8820  179.0510  138.8930 C   0  0  2  0  0  3  0  0  0  0  0  0
  178.9310  178.2180  139.8630 C   0  0  0  0  0  1  0  0  0  0  0  0
  183.1900  177.5760  139.8830 C   0  0  1  0  0  3  0  0  0  0  0  0
  186.2080  179.3750  140.9830 O   0  0  0  0  0  0  0  0  0  0  0  0
  187.3090  178.3980  139.0920 C   0  0  0  0  0  2  0  0  0  0  0  0
  179.6120  176.9840  139.2990 C   0  0  2  0  0  3  0  0  0  0  0  0
  182.4580  179.4960  138.3100 C   0  0  0  0  0  0  0  0  0  0  0  0
  181.7860  178.3350  141.5870 C   0  0  0  0  0  0  0  0  0  0  0  0
  188.3500  178.3890  141.3390 C   0  0  0  0  0  1  0  0  0  0  0  0
  180.8620  176.5570  140.0850 C   0  0  0  0  0  2  0  0  0  0  0  0
  182.6420  180.8510  138.6360 C   0  0  0  0  0  3  0  0  0  0  0  0
  180.2520  180.0390  137.4460 C   0  0  0  0  0  3  0  0  0  0  0  0
  180.4540  181.3850  137.7580 C   0  0  0  0  0  3  0  0  0  0  0  0
  179.8210  177.0820  137.7850 C   0  0  0  0  0  2  0  0  0  0  0  0
  184.0920  178.0990  141.0290 C   0  0  1  0  0  3  0  0  0  0  0  0
  181.7930  177.6570  140.3400 N   0  0  0  0  0  0  0  0  0  0  0  0
  184.9200  179.2180  140.4170 C   0  0  2  0  0  3  0  0  0  0  0  0
  183.4240  179.2330  143.0840 O   0  0  0  0  0  0  0  0  0  0  0  0
  183.5020  178.4450  138.6370 C   0  0  1  0  0  3  0  0  0  0  0  0
  1 16  1  0  0  0  0
  4 20  1  0  0  0  0
  5 27  2  0  0  0  0
  6  1  1  0  0  0  0
  6 23  1  0  0  0  0
  8  7  1  6  0  0  0
  8  2  1  0  0  0  0
  8 10  1  0  0  0  0
  8 14  1  0  0  0  0
  9 13  1  0  0  0  0
  9 18  1  1  0  0  0
 10 26  1  0  0  0  0
 12 25  1  0  0  0  0
 12 24  1  0  0  0  0
 14  9  1  0  0  0  0
 15 11  1  0  0  0  0
 15 19  1  0  0  0  0
 16 20  2  0  0  0  0
 16 28  1  0  0  0  0
 17  5  1  0  0  0  0
 17  3  2  0  0  0  0
 19 25  1  0  0  0  0
 21  1  2  0  0  0  0
 21 22  1  0  0  0  0
 22  4  2  0  0  0  0
 23 15  1  0  0  0  0
 24  5  1  0  0  0  0
 25 17  1  0  0  0  0
 26 13  1  0  0  0  0
 26 24  1  0  0  0  0
 28 10  1  0  0  0  0
 28 12  1  0  0  0  0
M  END
>  <MODEL>
2

>  <REMARK>
 VINA RESULT:      -5.7      5.776      8.645
  Name = 
  0 active torsions:
  status: ('A' for Active; 'I' for Inactive)
                            x       y       z     vdW  Elec       q    Type
                         _______ _______ _______ _____ _____    ______ ____

>  <TORSDO>
F 0

$$$$
=
 OpenBabel11122411563D

 28 32  0  0  1  0  0  0  0  0999 V2000
  180.0000  179.0950  136.9830 C   0  0  0  0  0  0  0  0  0  0  0  0
  181.3840  174.5370  138.6570 F   0  0  0  0  0  0  0  0  0  0  0  0
  183.8950  180.4840  138.9830 O   0  0  0  0  0  0  0  0  0  0  0  0
  181.3990  179.5070  134.5940 C   0  0  0  0  0  3  0  0  0  0  0  0
  184.3770  178.2040  138.4520 C   0  0  0  0  0  0  0  0  0  0  0  0
  179.3520  178.9100  138.2040 O   0  0  0  0  0  0  0  0  0  0  0  0
  180.4920  174.0550  136.5270 C   0  0  0  0  0  1  0  0  0  0  0  0
  181.7050  174.5210  137.3070 C   0  0  1  0  0  0  0  0  0  0  0  0
  184.1080  174.1010  137.6880 C   0  0  1  0  0  3  0  0  0  0  0  0
  182.1170  175.9250  136.8080 C   0  0  2  0  0  3  0  0  0  0  0  0
  181.0740  181.5650  138.8460 C   0  0  0  0  0  1  0  0  0  0  0  0
  182.1570  177.3970  138.7710 C   0  0  1  0  0  3  0  0  0  0  0  0
  184.5110  175.2290  136.9490 O   0  0  0  0  0  0  0  0  0  0  0  0
  182.8320  173.5250  137.0930 C   0  0  0  0  0  2  0  0  0  0  0  0
  180.4300  180.4980  139.7140 C   0  0  2  0  0  3  0  0  0  0  0  0
  180.9940  178.1850  136.5970 C   0  0  0  0  0  0  0  0  0  0  0  0
  183.5170  179.2930  138.8210 C   0  0  0  0  0  0  0  0  0  0  0  0
  185.2020  173.0540  137.6400 C   0  0  0  0  0  1  0  0  0  0  0  0
  181.4050  179.3970  140.1610 C   0  0  0  0  0  2  0  0  0  0  0  0
  181.7010  178.4090  135.4020 C   0  0  0  0  0  3  0  0  0  0  0  0
  179.7010  180.1990  136.1710 C   0  0  0  0  0  3  0  0  0  0  0  0
  180.3970  180.4010  134.9770 C   0  0  0  0  0  3  0  0  0  0  0  0
  179.1210  179.9780  139.1130 C   0  0  0  0  0  2  0  0  0  0  0  0
  183.6100  176.9330  138.4960 C   0  0  1  0  0  3  0  0  0  0  0  0
  182.1950  178.8390  139.0620 N   0  0  0  0  0  0  0  0  0  0  0  0
  183.5760  176.2780  137.1240 C   0  0  2  0  0  3  0  0  0  0  0  0
  185.6050  178.3040  138.1880 O   0  0  0  0  0  0  0  0  0  0  0  0
  181.3250  177.0240  137.5160 C   0  0  1  0  0  3  0  0  0  0  0  0
  1  6  1  0  0  0  0
  4 22  2  0  0  0  0
  4 20  1  0  0  0  0
  5 24  1  0  0  0  0
  5 17  1  0  0  0  0
  6 23  1  0  0  0  0
  8  7  1  6  0  0  0
  8  2  1  0  0  0  0
  9 18  1  6  0  0  0
 10 26  1  0  0  0  0
 10  8  1  0  0  0  0
 10 28  1  0  0  0  0
 11 15  1  0  0  0  0
 12 25  1  0  0  0  0
 13 26  1  0  0  0  0
 13  9  1  0  0  0  0
 14  8  1  0  0  0  0
 14  9  1  0  0  0  0
 15 19  1  0  0  0  0
 16  1  1  0  0  0  0
 16 28  1  0  0  0  0
 17  3  2  0  0  0  0
 17 25  1  0  0  0  0
 20 16  2  0  0  0  0
 21  1  2  0  0  0  0
 22 21  1  0  0  0  0
 23 15  1  0  0  0  0
 24 12  1  0  0  0  0
 25 19  1  0  0  0  0
 26 24  1  0  0  0  0
 27  5  2  0  0  0  0
 28 12  1  0  0  0  0
M  END
>  <MODEL>
3

>  <REMARK>
 VINA RESULT:      -5.4      6.346      9.152
  Name = 
  0 active torsions:
  status: ('A' for Active; 'I' for Inactive)
                            x       y       z     vdW  Elec       q    Type
                         _______ _______ _______ _____ _____    ______ ____

>  <TORSDO>
F 0

$$$$
=
 OpenBabel11122411563D

 28 32  0  0  1  0  0  0  0  0999 V2000
  181.7890  175.7900  136.3200 C   0  0  0  0  0  0  0  0  0  0  0  0
  186.6440  175.2390  137.5910 F   0  0  0  0  0  0  0  0  0  0  0  0
  181.7740  178.9580  139.6450 O   0  0  0  0  0  0  0  0  0  0  0  0
  181.6790  177.9920  134.5950 C   0  0  0  0  0  3  0  0  0  0  0  0
  184.0560  178.9720  138.9360 C   0  0  0  0  0  0  0  0  0  0  0  0
  181.8420  174.7310  137.2260 O   0  0  0  0  0  0  0  0  0  0  0  0
  186.7040  175.0550  135.2400 C   0  0  0  0  0  1  0  0  0  0  0  0
  186.6760  175.9960  136.4290 C   0  0  1  0  0  0  0  0  0  0  0  0
  187.8290  177.9110  137.4780 C   0  0  1  0  0  3  0  0  0  0  0  0
  185.4370  176.9130  136.3170 C   0  0  2  0  0  3  0  0  0  0  0  0
  179.8800  176.7570  138.7970 C   0  0  0  0  0  1  0  0  0  0  0  0
  184.1670  176.6520  138.4010 C   0  0  1  0  0  3  0  0  0  0  0  0
  186.8340  178.8300  137.0960 O   0  0  0  0  0  0  0  0  0  0  0  0
  187.9530  176.8190  136.4260 C   0  0  0  0  0  2  0  0  0  0  0  0
  180.7510  175.5920  139.2340 C   0  0  2  0  0  3  0  0  0  0  0  0
  182.9340  176.5770  136.1270 C   0  0  0  0  0  0  0  0  0  0  0  0
  182.7810  178.3600  139.1830 C   0  0  0  0  0  0  0  0  0  0  0  0
  189.1540  178.6320  137.6120 C   0  0  0  0  0  1  0  0  0  0  0  0
  182.1210  176.0200  139.7830 C   0  0  0  0  0  2  0  0  0  0  0  0
  182.8640  177.6890  135.2700 C   0  0  0  0  0  3  0  0  0  0  0  0
  180.6000  176.0980  135.6420 C   0  0  0  0  0  3  0  0  0  0  0  0
  180.5480  177.1940  134.7790 C   0  0  0  0  0  3  0  0  0  0  0  0
  180.8110  174.4890  138.1740 C   0  0  0  0  0  2  0  0  0  0  0  0
  185.0340  177.9300  138.5300 C   0  0  1  0  0  3  0  0  0  0  0  0
  182.8250  176.9670  138.9170 N   0  0  0  0  0  0  0  0  0  0  0  0
  185.5640  178.2070  137.1320 C   0  0  2  0  0  3  0  0  0  0  0  0
  184.3170  180.1940  139.0940 O   0  0  0  0  0  0  0  0  0  0  0  0
  184.1930  176.2450  136.9050 C   0  0  1  0  0  3  0  0  0  0  0  0
  1  6  1  0  0  0  0
  4 22  2  0  0  0  0
  4 20  1  0  0  0  0
  5 27  2  0  0  0  0
  5 17  1  0  0  0  0
  6 23  1  0  0  0  0
  8  7  1  6  0  0  0
  8  2  1  0  0  0  0
  9 18  1  6  0  0  0
 10  8  1  0  0  0  0
 10 28  1  0  0  0  0
 10 26  1  0  0  0  0
 11 15  1  0  0  0  0
 12 24  1  0  0  0  0
 12 25  1  0  0  0  0
 13 26  1  0  0  0  0
 13  9  1  0  0  0  0
 14  8  1  0  0  0  0
 14  9  1  0  0  0  0
 15 19  1  0  0  0  0
 16  1  1  0  0  0  0
 16 28  1  0  0  0  0
 17  3  2  0  0  0  0
 20 16  2  0  0  0  0
 21  1  2  0  0  0  0
 22 21  1  0  0  0  0
 23 15  1  0  0  0  0
 24  5  1  0  0  0  0
 25 17  1  0  0  0  0
 25 19  1  0  0  0  0
 26 24  1  0  0  0  0
 28 12  1  0  0  0  0
M  END
>  <MODEL>
4

>  <REMARK>
 VINA RESULT:      -5.2      4.397      7.625
  Name = 
  0 active torsions:
  status: ('A' for Active; 'I' for Inactive)
                            x       y       z     vdW  Elec       q    Type
                         _______ _______ _______ _____ _____    ______ ____

>  <TORSDO>
F 0

$$$$
=
 OpenBabel11122411563D

 28 32  0  0  1  0  0  0  0  0999 V2000
  180.8260  177.6100  137.7330 C   0  0  0  0  0  0  0  0  0  0  0  0
  184.0860  173.8060  137.1040 F   0  0  0  0  0  0  0  0  0  0  0  0
  184.4680  179.8120  139.4610 O   0  0  0  0  0  0  0  0  0  0  0  0
  181.1800  179.3120  135.5380 C   0  0  0  0  0  3  0  0  0  0  0  0
  185.4790  178.2530  137.9580 C   0  0  0  0  0  0  0  0  0  0  0  0
  180.6970  176.7900  138.8540 O   0  0  0  0  0  0  0  0  0  0  0  0
  182.7770  173.6920  135.1450 C   0  0  0  0  0  1  0  0  0  0  0  0
  183.9500  174.3560  135.8390 C   0  0  1  0  0  0  0  0  0  0  0  0
  186.3470  174.9030  135.6100 C   0  0  1  0  0  3  0  0  0  0  0  0
  183.6970  175.8800  135.9090 C   0  0  2  0  0  3  0  0  0  0  0  0
  181.5580  179.5700  140.2510 C   0  0  0  0  0  1  0  0  0  0  0  0
  183.8690  176.5230  138.2700 C   0  0  1  0  0  3  0  0  0  0  0  0
  186.1010  176.2640  135.3530 O   0  0  0  0  0  0  0  0  0  0  0  0
  185.2130  174.0590  135.0470 C   0  0  0  0  0  2  0  0  0  0  0  0
  181.6110  178.1170  140.6890 C   0  0  2  0  0  3  0  0  0  0  0  0
  181.8880  177.3840  136.8450 C   0  0  0  0  0  0  0  0  0  0  0  0
  184.4720  178.6930  138.8820 C   0  0  0  0  0  0  0  0  0  0  0  0
  187.6490  174.4960  134.9520 C   0  0  0  0  0  1  0  0  0  0  0  0
  182.9820  177.4570  140.4700 C   0  0  0  0  0  2  0  0  0  0  0  0
  182.0650  178.2530  135.7540 C   0  0  0  0  0  3  0  0  0  0  0  0
  179.9410  178.6760  137.5150 C   0  0  0  0  0  3  0  0  0  0  0  0
  180.1160  179.5210  136.4170 C   0  0  0  0  0  3  0  0  0  0  0  0
  180.4270  177.3090  140.1490 C   0  0  0  0  0  2  0  0  0  0  0  0
  185.2280  176.8340  137.5930 C   0  0  1  0  0  3  0  0  0  0  0  0
  183.5210  177.6690  139.1250 N   0  0  0  0  0  0  0  0  0  0  0  0
  184.9800  176.7000  136.0990 C   0  0  2  0  0  3  0  0  0  0  0  0
  186.4550  178.9440  137.5620 O   0  0  0  0  0  0  0  0  0  0  0  0
  182.8550  176.2500  137.1300 C   0  0  1  0  0  3  0  0  0  0  0  0
  1  6  1  0  0  0  0
  4 20  2  0  0  0  0
  4 22  1  0  0  0  0
  5 17  1  0  0  0  0
  6 23  1  0  0  0  0
  8  7  1  6  0  0  0
  8 10  1  0  0  0  0
  8  2  1  0  0  0  0
  9 18  1  6  0  0  0
 10 26  1  0  0  0  0
 10 28  1  0  0  0  0
 11 15  1  0  0  0  0
 12 25  1  0  0  0  0
 13  9  1  0  0  0  0
 13 26  1  0  0  0  0
 14  9  1  0  0  0  0
 14  8  1  0  0  0  0
 16 28  1  0  0  0  0
 16  1  2  0  0  0  0
 17 25  1  0  0  0  0
 17  3  2  0  0  0  0
 19 15  1  0  0  0  0
 20 16  1  0  0  0  0
 21  1  1  0  0  0  0
 22 21  2  0  0  0  0
 23 15  1  0  0  0  0
 24  5  1  0  0  0  0
 24 12  1  0  0  0  0
 25 19  1  0  0  0  0
 26 24  1  0  0  0  0
 27  5  2  0  0  0  0
 28 12  1  0  0  0  0
M  END
>  <MODEL>
5

>  <REMARK>
 VINA RESULT:      -5.0      4.690      7.863
  Name = 
  0 active torsions:
  status: ('A' for Active; 'I' for Inactive)
                            x       y       z     vdW  Elec       q    Type
                         _______ _______ _______ _____ _____    ______ ____

>  <TORSDO>
F 0

$$$$
=
 OpenBabel11122411563D

 28 32  0  0  1  0  0  0  0  0999 V2000
  180.7730  178.4010  137.8910 C   0  0  0  0  0  0  0  0  0  0  0  0
  180.7260  173.4200  138.7170 F   0  0  0  0  0  0  0  0  0  0  0  0
  185.3360  177.8820  137.9340 O   0  0  0  0  0  0  0  0  0  0  0  0
  181.1080  178.7310  135.1320 C   0  0  0  0  0  3  0  0  0  0  0  0
  184.5830  175.7290  137.2200 C   0  0  0  0  0  0  0  0  0  0  0  0
  180.6660  178.2310  139.2720 O   0  0  0  0  0  0  0  0  0  0  0  0
  178.9320  173.7100  137.2140 C   0  0  0  0  0  1  0  0  0  0  0  0
  180.4310  173.5490  137.3680 C   0  0  1  0  0  0  0  0  0  0  0  0
  182.3770  172.2260  136.6200 C   0  0  1  0  0  3  0  0  0  0  0  0
  181.1360  174.7770  136.7500 C   0  0  2  0  0  3  0  0  0  0  0  0
  183.4170  179.9110  139.0940 C   0  0  0  0  0  1  0  0  0  0  0  0
  182.5710  175.7300  138.4980 C   0  0  1  0  0  3  0  0  0  0  0  0
  182.8650  173.2530  135.7900 O   0  0  0  0  0  0  0  0  0  0  0  0
  180.8570  172.2740  136.6590 C   0  0  0  0  0  2  0  0  0  0  0  0
  182.8100  179.0030  140.1480 C   0  0  2  0  0  3  0  0  0  0  0  0
  181.0550  177.2860  137.0900 C   0  0  0  0  0  0  0  0  0  0  0  0
  184.4760  176.9620  137.9470 C   0  0  0  0  0  0  0  0  0  0  0  0
  182.8240  170.8860  136.0740 C   0  0  0  0  0  1  0  0  0  0  0  0
  183.3400  177.5610  140.0970 C   0  0  0  0  0  2  0  0  0  0  0  0
  181.2360  177.4650  135.7070 C   0  0  0  0  0  3  0  0  0  0  0  0
  180.6470  179.6720  137.3110 C   0  0  0  0  0  3  0  0  0  0  0  0
  180.8100  179.8340  135.9340 C   0  0  0  0  0  3  0  0  0  0  0  0
  181.2840  179.1150  140.1970 C   0  0  0  0  0  2  0  0  0  0  0  0
  183.4550  174.8360  137.5930 C   0  0  1  0  0  3  0  0  0  0  0  0
  183.3090  176.9780  138.7540 N   0  0  0  0  0  0  0  0  0  0  0  0
  182.6010  174.5130  136.3780 C   0  0  2  0  0  3  0  0  0  0  0  0
  185.5180  175.4290  136.4320 O   0  0  0  0  0  0  0  0  0  0  0  0
  181.2270  175.9310  137.7500 C   0  0  1  0  0  3  0  0  0  0  0  0
  1  6  1  0  0  0  0
  3 17  2  0  0  0  0
  4 20  2  0  0  0  0
  4 22  1  0  0  0  0
  5 24  1  0  0  0  0
  5 17  1  0  0  0  0
  6 23  1  0  0  0  0
  8  7  1  6  0  0  0
  8  2  1  0  0  0  0
  9 18  1  6  0  0  0
  9 14  1  0  0  0  0
 10  8  1  0  0  0  0
 10 28  1  0  0  0  0
 11 15  1  0  0  0  0
 12 25  1  0  0  0  0
 13 26  1  0  0  0  0
 13  9  1  0  0  0  0
 14  8  1  0  0  0  0
 15 23  1  0  0  0  0
 16 28  1  0  0  0  0
 16  1  2  0  0  0  0
 17 25  1  0  0  0  0
 19 15  1  0  0  0  0
 20 16  1  0  0  0  0
 21  1  1  0  0  0  0
 22 21  2  0  0  0  0
 24 12  1  0  0  0  0
 25 19  1  0  0  0  0
 26 10  1  0  0  0  0
 26 24  1  0  0  0  0
 27  5  2  0  0  0  0
 28 12  1  0  0  0  0
M  END
>  <MODEL>
6

>  <REMARK>
 VINA RESULT:      -4.6      6.451      9.034
  Name = 
  0 active torsions:
  status: ('A' for Active; 'I' for Inactive)
                            x       y       z     vdW  Elec       q    Type
                         _______ _______ _______ _____ _____    ______ ____

>  <TORSDO>
F 0

$$$$
=
 OpenBabel11122411563D

 28 32  0  0  1  0  0  0  0  0999 V2000
  180.3180  174.8620  137.5630 C   0  0  0  0  0  0  0  0  0  0  0  0
  184.5460  172.1200  137.8760 F   0  0  0  0  0  0  0  0  0  0  0  0
  183.1970  178.4380  137.7030 O   0  0  0  0  0  0  0  0  0  0  0  0
  180.0300  175.5470  134.8640 C   0  0  0  0  0  3  0  0  0  0  0  0
  184.5590  176.7210  136.7500 C   0  0  0  0  0  0  0  0  0  0  0  0
  180.4990  174.5680  138.9140 O   0  0  0  0  0  0  0  0  0  0  0  0
  183.2400  170.8810  136.3510 C   0  0  0  0  0  1  0  0  0  0  0  0
  184.1870  172.0500  136.5370 C   0  0  1  0  0  0  0  0  0  0  0  0
  186.2900  173.0550  135.7230 C   0  0  1  0  0  3  0  0  0  0  0  0
  183.4870  173.3460  136.0710 C   0  0  2  0  0  3  0  0  0  0  0  0
  180.5410  177.7950  139.0000 C   0  0  0  0  0  1  0  0  0  0  0  0
  183.5700  174.9180  137.9530 C   0  0  1  0  0  3  0  0  0  0  0  0
  185.6290  174.0790  135.0190 O   0  0  0  0  0  0  0  0  0  0  0  0
  185.4410  171.7940  135.7170 C   0  0  0  0  0  2  0  0  0  0  0  0
  181.0540  176.7160  139.9360 C   0  0  2  0  0  3  0  0  0  0  0  0
  181.3540  174.5760  136.6620 C   0  0  0  0  0  0  0  0  0  0  0  0
  183.5130  177.2230  137.5950 C   0  0  0  0  0  0  0  0  0  0  0  0
  187.6210  172.7680  135.0590 C   0  0  0  0  0  1  0  0  0  0  0  0
  182.5480  176.4040  139.7550 C   0  0  0  0  0  2  0  0  0  0  0  0
  181.2050  174.9370  135.3110 C   0  0  0  0  0  3  0  0  0  0  0  0
  179.1400  175.4760  137.1110 C   0  0  0  0  0  3  0  0  0  0  0  0
  178.9960  175.8130  135.7640 C   0  0  0  0  0  3  0  0  0  0  0  0
  180.1470  175.4820  139.9450 C   0  0  0  0  0  2  0  0  0  0  0  0
  184.7340  175.2660  136.9920 C   0  0  1  0  0  3  0  0  0  0  0  0
  182.9320  176.1800  138.3600 N   0  0  0  0  0  0  0  0  0  0  0  0
  184.4670  174.4740  135.7230 C   0  0  2  0  0  3  0  0  0  0  0  0
  185.2580  177.4180  135.9670 O   0  0  0  0  0  0  0  0  0  0  0  0
  182.6320  173.9500  137.1860 C   0  0  1  0  0  3  0  0  0  0  0  0
  1  6  1  0  0  0  0
  4 20  2  0  0  0  0
  4 22  1  0  0  0  0
  5 24  1  0  0  0  0
  5 17  1  0  0  0  0
  6 23  1  0  0  0  0
  8  7  1  6  0  0  0
  8  2  1  0  0  0  0
  9 18  1  6  0  0  0
 10  8  1  0  0  0  0
 10 28  1  0  0  0  0
 11 15  1  0  0  0  0
 12 25  1  0  0  0  0
 13  9  1  0  0  0  0
 13 26  1  0  0  0  0
 14  9  1  0  0  0  0
 14  8  1  0  0  0  0
 15 23  1  0  0  0  0
 16 28  1  0  0  0  0
 16  1  2  0  0  0  0
 17  3  2  0  0  0  0
 17 25  1  0  0  0  0
 19 15  1  0  0  0  0
 20 16  1  0  0  0  0
 21  1  1  0  0  0  0
 22 21  2  0  0  0  0
 24 12  1  0  0  0  0
 25 19  1  0  0  0  0
 26 10  1  0  0  0  0
 26 24  1  0  0  0  0
 27  5  2  0  0  0  0
 28 12  1  0  0  0  0
M  END
>  <MODEL>
7

>  <REMARK>
 VINA RESULT:      -4.6      5.302      8.234
  Name = 
  0 active torsions:
  status: ('A' for Active; 'I' for Inactive)
                            x       y       z     vdW  Elec       q    Type
                         _______ _______ _______ _____ _____    ______ ____

>  <TORSDO>
F 0

$$$$
=
 OpenBabel11122411563D

 28 32  0  0  1  0  0  0  0  0999 V2000
  186.5140  175.4520  136.6380 C   0  0  0  0  0  0  0  0  0  0  0  0
  183.4170  177.1090  140.2650 F   0  0  0  0  0  0  0  0  0  0  0  0
  182.6250  174.1130  134.5940 O   0  0  0  0  0  0  0  0  0  0  0  0
  186.5450  177.4410  134.6690 C   0  0  0  0  0  3  0  0  0  0  0  0
  181.8930  175.9530  135.9310 C   0  0  0  0  0  0  0  0  0  0  0  0
  186.4480  174.4380  137.5940 O   0  0  0  0  0  0  0  0  0  0  0  0
  185.0460  178.8110  140.1620 C   0  0  0  0  0  1  0  0  0  0  0  0
  183.7700  178.2520  139.5640 C   0  0  1  0  0  0  0  0  0  0  0  0
  181.4490  178.8200  138.9430 C   0  0  1  0  0  3  0  0  0  0  0  0
  184.0050  177.9480  138.0670 C   0  0  2  0  0  3  0  0  0  0  0  0
  185.3530  172.8700  134.9920 C   0  0  0  0  0  1  0  0  0  0  0  0
  183.4250  175.5890  137.7200 C   0  0  1  0  0  3  0  0  0  0  0  0
  181.7340  178.8560  137.5660 O   0  0  0  0  0  0  0  0  0  0  0  0
  182.6640  179.2810  139.7340 C   0  0  0  0  0  2  0  0  0  0  0  0
  185.2270  172.6350  136.4870 C   0  0  2  0  0  3  0  0  0  0  0  0
  185.6220  176.5300  136.7300 C   0  0  0  0  0  0  0  0  0  0  0  0
  182.7230  174.8210  135.6310 C   0  0  0  0  0  0  0  0  0  0  0  0
  180.2810  179.7390  139.2370 C   0  0  0  0  0  1  0  0  0  0  0  0
  183.9160  173.1690  137.0860 C   0  0  0  0  0  2  0  0  0  0  0  0
  185.6370  177.5170  135.7280 C   0  0  0  0  0  3  0  0  0  0  0  0
  187.4230  175.3770  135.5720 C   0  0  0  0  0  3  0  0  0  0  0  0
  187.4400  176.3730  134.5940 C   0  0  0  0  0  3  0  0  0  0  0  0
  186.4880  173.0610  137.2460 C   0  0  0  0  0  2  0  0  0  0  0  0
  182.2050  176.4450  137.2980 C   0  0  1  0  0  3  0  0  0  0  0  0
  183.6180  174.5490  136.6970 N   0  0  0  0  0  0  0  0  0  0  0  0
  182.7080  177.8790  137.2510 C   0  0  2  0  0  3  0  0  0  0  0  0
  181.0000  176.4200  135.1760 O   0  0  0  0  0  0  0  0  0  0  0  0
  184.6220  176.5630  137.8700 C   0  0  1  0  0  3  0  0  0  0  0  0
  1 16  1  0  0  0  0
  1  6  1  0  0  0  0
  3 17  2  0  0  0  0
  4 20  1  0  0  0  0
  5 24  1  0  0  0  0
  8 14  1  0  0  0  0
  8  7  1  1  0  0  0
  8  2  1  0  0  0  0
  9 18  1  6  0  0  0
  9 14  1  0  0  0  0
 10  8  1  0  0  0  0
 11 15  1  0  0  0  0
 12 28  1  0  0  0  0
 13  9  1  0  0  0  0
 15 19  1  0  0  0  0
 15 23  1  0  0  0  0
 16 28  1  0  0  0  0
 17  5  1  0  0  0  0
 17 25  1  0  0  0  0
 20 16  2  0  0  0  0
 21  1  2  0  0  0  0
 22  4  2  0  0  0  0
 22 21  1  0  0  0  0
 23  6  1  0  0  0  0
 24 12  1  0  0  0  0
 25 19  1  0  0  0  0
 25 12  1  0  0  0  0
 26 24  1  0  0  0  0
 26 13  1  0  0  0  0
 26 10  1  0  0  0  0
 27  5  2  0  0  0  0
 28 10  1  0  0  0  0
M  END
>  <MODEL>
8

>  <REMARK>
 VINA RESULT:      -4.6      4.675      8.243
  Name = 
  0 active torsions:
  status: ('A' for Active; 'I' for Inactive)
                            x       y       z     vdW  Elec       q    Type
                         _______ _______ _______ _____ _____    ______ ____

>  <TORSDO>
F 0

$$$$
=
 OpenBabel11122411563D

 28 32  0  0  1  0  0  0  0  0999 V2000
  182.0340  179.3260  138.6780 C   0  0  0  0  0  0  0  0  0  0  0  0
  185.4370  177.5030  135.4240 F   0  0  0  0  0  0  0  0  0  0  0  0
  179.5480  175.6910  137.3740 O   0  0  0  0  0  0  0  0  0  0  0  0
  182.3830  177.8930  141.0570 C   0  0  0  0  0  3  0  0  0  0  0  0
  181.7860  174.9360  137.0130 C   0  0  0  0  0  0  0  0  0  0  0  0
  181.8260  179.9960  137.4720 O   0  0  0  0  0  0  0  0  0  0  0  0
  186.7830  178.2530  137.2100 C   0  0  0  0  0  1  0  0  0  0  0  0
  185.9180  177.1310  136.6710 C   0  0  1  0  0  0  0  0  0  0  0  0
  185.8780  174.7120  136.1780 C   0  0  1  0  0  3  0  0  0  0  0  0
  184.7650  176.8610  137.6640 C   0  0  2  0  0  3  0  0  0  0  0  0
  178.9390  178.6100  137.8870 C   0  0  0  0  0  1  0  0  0  0  0  0
  182.6730  177.0610  136.3990 C   0  0  1  0  0  3  0  0  0  0  0  0
  185.0680  174.4110  137.2890 O   0  0  0  0  0  0  0  0  0  0  0  0
  186.7820  175.8910  136.5030 C   0  0  0  0  0  2  0  0  0  0  0  0
  179.6720  179.1610  136.6770 C   0  0  2  0  0  3  0  0  0  0  0  0
  182.8980  178.2220  138.7000 C   0  0  0  0  0  0  0  0  0  0  0  0
  180.7480  175.9260  137.0740 C   0  0  0  0  0  0  0  0  0  0  0  0
  186.7290  173.5060  135.8360 C   0  0  0  0  0  1  0  0  0  0  0  0
  180.4030  178.0860  135.8570 C   0  0  0  0  0  2  0  0  0  0  0  0
  183.0550  177.5000  139.8970 C   0  0  0  0  0  3  0  0  0  0  0  0
  181.3580  179.7160  139.8430 C   0  0  0  0  0  3  0  0  0  0  0  0
  181.5370  179.0030  141.0300 C   0  0  0  0  0  3  0  0  0  0  0  0
  180.5310  180.3800  137.0290 C   0  0  0  0  0  2  0  0  0  0  0  0
  183.0300  175.5560  136.4890 C   0  0  1  0  0  3  0  0  0  0  0  0
  181.2320  177.1970  136.6710 N   0  0  0  0  0  0  0  0  0  0  0  0
  184.1490  175.4640  137.5140 C   0  0  2  0  0  3  0  0  0  0  0  0
  181.6470  173.7180  137.3040 O   0  0  0  0  0  0  0  0  0  0  0  0
  183.5830  177.7980  137.4150 C   0  0  1  0  0  3  0  0  0  0  0  0
  1 16  2  0  0  0  0
  1 21  1  0  0  0  0
  2  8  1  0  0  0  0
  5 17  1  0  0  0  0
  5 27  2  0  0  0  0
  6  1  1  0  0  0  0
  8  7  1  1  0  0  0
  8 10  1  0  0  0  0
  9 18  1  1  0  0  0
  9 14  1  0  0  0  0
  9 13  1  0  0  0  0
 12 24  1  0  0  0  0
 12 25  1  0  0  0  0
 12 28  1  0  0  0  0
 13 26  1  0  0  0  0
 14  8  1  0  0  0  0
 15 23  1  0  0  0  0
 15 11  1  0  0  0  0
 16 20  1  0  0  0  0
 17  3  2  0  0  0  0
 19 25  1  0  0  0  0
 19 15  1  0  0  0  0
 20  4  2  0  0  0  0
 21 22  2  0  0  0  0
 22  4  1  0  0  0  0
 23  6  1  0  0  0  0
 24  5  1  0  0  0  0
 24 26  1  0  0  0  0
 25 17  1  0  0  0  0
 26 10  1  0  0  0  0
 28 10  1  0  0  0  0
 28 16  1  0  0  0  0
M  END
>  <MODEL>
9

>  <REMARK>
 VINA RESULT:      -4.4      4.922      7.292
  Name = 
  0 active torsions:
  status: ('A' for Active; 'I' for Inactive)
                            x       y       z     vdW  Elec       q    Type
                         _______ _______ _______ _____ _____    ______ ____

>  <TORSDO>
F 0

$$$$
