=
 OpenBabel11122411183D

 31 35  0  0  1  0  0  0  0  0999 V2000
  190.0580  175.9900  142.8180 C   0  0  0  0  0  0  0  0  0  0  0  0
  186.6270  177.0440  144.0910 C   0  0  2  0  0  3  0  0  0  0  0  0
  186.8730  177.7470  145.4190 C   0  0  0  0  0  0  0  0  0  0  0  0
  188.1790  178.1200  147.4490 C   0  0  0  0  0  0  0  0  0  0  0  0
  187.8710  176.9600  143.2400 C   0  0  0  0  0  0  0  0  0  0  0  0
  190.2280  176.8430  141.7230 C   0  0  0  0  0  3  0  0  0  0  0  0
  187.9590  177.4700  146.1510 C   0  0  0  0  0  3  0  0  0  0  0  0
  185.9520  178.9820  142.7150 N   0  0  0  0  0  0  0  0  0  0  0  0
  191.0320  175.1100  143.1490 F   0  0  0  0  0  0  0  0  0  0  0  0
  184.6030  178.7630  145.3020 O   0  0  0  0  0  0  0  0  0  0  0  0
  189.1540  177.7720  148.1640 O   0  0  0  0  0  0  0  0  0  0  0  0
  186.9230  178.6880  141.6560 C   0  0  0  0  0  2  0  0  0  0  0  0
  185.4830  177.7110  143.2910 C   0  0  2  0  0  3  0  0  0  0  0  0
  188.8820  176.0470  143.5710 C   0  0  0  0  0  3  0  0  0  0  0  0
  187.2880  179.2410  147.8990 C   0  0  0  0  0  2  0  0  0  0  0  0
  188.0460  177.8160  142.1350 C   0  0  0  0  0  0  0  0  0  0  0  0
  189.2200  177.7450  141.3770 C   0  0  0  0  0  3  0  0  0  0  0  0
  184.2700  177.9130  144.2080 C   0  0  0  0  0  2  0  0  0  0  0  0
  185.8150  178.6310  145.9780 C   0  0  0  0  0  0  0  0  0  0  0  0
  186.0000  179.2990  147.1210 C   0  0  0  0  0  3  0  0  0  0  0  0
  184.2730  177.6920  140.8870 O   0  0  0  0  0  0  0  0  0  0  0  0
  184.0330  178.8990  141.1610 C   0  0  0  0  0  0  0  0  0  0  0  0
  184.8620  179.6050  142.0830 N   0  0  0  0  0  2  0  0  0  0  0  0
  181.5860  178.0030  138.4120 C   0  0  1  0  0  3  0  0  0  0  0  0
  181.5490  178.9060  140.7540 C   0  0  0  0  0  2  0  0  0  0  0  0
  184.3470  180.4850  138.7930 O   0  0  0  0  0  1  0  0  0  0  0  0
  181.4670  176.8460  137.6440 O   0  0  0  0  0  1  0  0  0  0  0  0
  181.4130  177.6530  139.8870 C   0  0  0  0  0  2  0  0  0  0  0  0
  183.1000  179.8990  139.0160 C   0  0  2  0  0  3  0  0  0  0  0  0
  182.8840  179.6180  140.5130 C   0  0  2  0  0  3  0  0  0  0  0  0
  182.9550  178.6320  138.1760 C   0  0  0  0  0  2  0  0  0  0  0  0
  1  9  1  0  0  0  0
  1 14  1  0  0  0  0
  2  5  1  6  0  0  0
  2  3  1  0  0  0  0
  3 19  1  0  0  0  0
  3  7  2  0  0  0  0
  4 15  1  0  0  0  0
  4 11  2  0  0  0  0
  5 14  2  0  0  0  0
  6  1  2  0  0  0  0
  7  4  1  0  0  0  0
  8 13  1  0  0  0  0
 10 19  1  0  0  0  0
 12 16  1  0  0  0  0
 12  8  1  0  0  0  0
 13  2  1  0  0  0  0
 13 18  1  1  0  0  0
 16  5  1  0  0  0  0
 17  6  1  0  0  0  0
 17 16  2  0  0  0  0
 18 10  1  0  0  0  0
 19 20  2  0  0  0  0
 20 15  1  0  0  0  0
 21 22  2  0  0  0  0
 22 23  1  0  0  0  0
 23  8  1  0  0  0  0
 24 27  1  6  0  0  0
 24 28  1  0  0  0  0
 28 25  1  0  0  0  0
 29 26  1  1  0  0  0
 29 30  1  0  0  0  0
 30 25  1  0  0  0  0
 30 22  1  6  0  0  0
 31 24  1  0  0  0  0
 31 29  1  0  0  0  0
M  END
>  <MODEL>
1

>  <REMARK>
 VINA RESULT:      -8.5      0.000      0.000
  Name = 
  2 active torsions:
  status: ('A' for Active; 'I' for Inactive)
    1  A    between atoms: C_5  and  C_30
    2  A    between atoms: N_10  and  N_16
                            x       y       z     vdW  Elec       q    Type
                         _______ _______ _______ _____ _____    ______ ____

>  <TORSDO>
F 2

$$$$
=
 OpenBabel11122411183D

 31 35  0  0  1  0  0  0  0  0999 V2000
  186.8270  178.0830  147.1100 C   0  0  0  0  0  0  0  0  0  0  0  0
  189.8550  178.2690  144.8090 C   0  0  2  0  0  3  0  0  0  0  0  0
  190.6930  177.0370  145.1220 C   0  0  0  0  0  0  0  0  0  0  0  0
  191.4550  175.2780  146.6370 C   0  0  0  0  0  0  0  0  0  0  0  0
  188.4290  178.1370  145.2860 C   0  0  0  0  0  0  0  0  0  0  0  0
  185.7980  177.8130  146.2040 C   0  0  0  0  0  3  0  0  0  0  0  0
  190.6210  176.4450  146.3200 C   0  0  0  0  0  3  0  0  0  0  0  0
  189.0420  177.6570  142.5580 N   0  0  0  0  0  0  0  0  0  0  0  0
  186.5550  178.1850  148.4330 F   0  0  0  0  0  0  0  0  0  0  0  0
  191.9190  177.3250  142.9740 O   0  0  0  0  0  0  0  0  0  0  0  0
  191.4430  174.8000  147.7990 O   0  0  0  0  0  0  0  0  0  0  0  0
  187.6370  177.9010  142.8960 C   0  0  0  0  0  2  0  0  0  0  0  0
  189.8800  178.6130  143.3010 C   0  0  2  0  0  3  0  0  0  0  0  0
  188.1360  178.2480  146.6520 C   0  0  0  0  0  3  0  0  0  0  0  0
  192.2710  174.6140  145.5660 C   0  0  0  0  0  2  0  0  0  0  0  0
  187.3880  177.8660  144.3750 C   0  0  0  0  0  0  0  0  0  0  0  0
  186.0770  177.7160  144.8390 C   0  0  0  0  0  3  0  0  0  0  0  0
  191.3300  178.6100  142.8010 C   0  0  0  0  0  2  0  0  0  0  0  0
  191.7150  176.5870  144.1390 C   0  0  0  0  0  0  0  0  0  0  0  0
  192.4480  175.4890  144.3530 C   0  0  0  0  0  3  0  0  0  0  0  0
  190.2960  175.9460  140.7350 O   0  0  0  0  0  0  0  0  0  0  0  0
  189.8140  177.0270  140.2970 C   0  0  0  0  0  0  0  0  0  0  0  0
  189.1690  177.9370  141.1870 N   0  0  0  0  0  2  0  0  0  0  0  0
  187.4370  176.8250  137.3550 C   0  0  1  0  0  3  0  0  0  0  0  0
  188.9560  178.4990  138.4460 C   0  0  0  0  0  2  0  0  0  0  0  0
  190.6210  175.1260  138.3070 O   0  0  0  0  0  1  0  0  0  0  0  0
  186.1210  176.3720  137.2810 O   0  0  0  0  0  1  0  0  0  0  0  0
  187.5180  177.9890  138.3380 C   0  0  0  0  0  2  0  0  0  0  0  0
  189.7870  176.1700  137.9020 C   0  0  2  0  0  3  0  0  0  0  0  0
  189.9250  177.3800  138.8420 C   0  0  2  0  0  3  0  0  0  0  0  0
  188.3420  175.6850  137.8120 C   0  0  0  0  0  2  0  0  0  0  0  0
  1  9  1  0  0  0  0
  2  3  1  6  0  0  0
  2  5  1  0  0  0  0
  3  7  2  0  0  0  0
  4 11  2  0  0  0  0
  5 14  2  0  0  0  0
  6  1  2  0  0  0  0
  7  4  1  0  0  0  0
  8 12  1  0  0  0  0
  8 13  1  0  0  0  0
 10 19  1  0  0  0  0
 12 16  1  0  0  0  0
 13 18  1  6  0  0  0
 13  2  1  0  0  0  0
 14  1  1  0  0  0  0
 15  4  1  0  0  0  0
 16 17  2  0  0  0  0
 16  5  1  0  0  0  0
 17  6  1  0  0  0  0
 18 10  1  0  0  0  0
 19 20  2  0  0  0  0
 19  3  1  0  0  0  0
 20 15  1  0  0  0  0
 22 21  2  0  0  0  0
 22 23  1  0  0  0  0
 23  8  1  0  0  0  0
 24 27  1  1  0  0  0
 24 31  1  0  0  0  0
 24 28  1  0  0  0  0
 25 30  1  0  0  0  0
 28 25  1  0  0  0  0
 29 26  1  1  0  0  0
 29 30  1  0  0  0  0
 30 22  1  1  0  0  0
 31 29  1  0  0  0  0
M  END
>  <MODEL>
2

>  <REMARK>
 VINA RESULT:      -8.3      3.880      5.780
  Name = 
  2 active torsions:
  status: ('A' for Active; 'I' for Inactive)
    1  A    between atoms: C_5  and  C_30
    2  A    between atoms: N_10  and  N_16
                            x       y       z     vdW  Elec       q    Type
                         _______ _______ _______ _____ _____    ______ ____

>  <TORSDO>
F 2

$$$$
=
 OpenBabel11122411183D

 31 35  0  0  1  0  0  0  0  0999 V2000
  183.5350  178.9370  144.2520 C   0  0  0  0  0  0  0  0  0  0  0  0
  182.5860  178.1730  140.6430 C   0  0  2  0  0  3  0  0  0  0  0  0
  181.5550  179.2220  140.2530 C   0  0  0  0  0  0  0  0  0  0  0  0
  179.7750  180.8030  140.8020 C   0  0  0  0  0  0  0  0  0  0  0  0
  183.3940  178.5760  141.8540 C   0  0  0  0  0  0  0  0  0  0  0  0
  184.8460  179.3990  144.1080 C   0  0  0  0  0  3  0  0  0  0  0  0
  180.7960  179.8170  141.1800 C   0  0  0  0  0  3  0  0  0  0  0  0
  184.4900  178.9270  139.2610 N   0  0  0  0  0  0  0  0  0  0  0  0
  182.9630  178.8900  145.4790 F   0  0  0  0  0  0  0  0  0  0  0  0
  181.9380  178.7020  137.8470 O   0  0  0  0  0  0  0  0  0  0  0  0
  179.0080  181.2750  141.6790 O   0  0  0  0  0  0  0  0  0  0  0  0
  185.4220  178.9570  140.3930 C   0  0  0  0  0  2  0  0  0  0  0  0
  183.5310  177.8300  139.4680 C   0  0  2  0  0  3  0  0  0  0  0  0
  182.8130  178.5240  143.1290 C   0  0  0  0  0  3  0  0  0  0  0  0
  179.6840  181.2970  139.3880 C   0  0  0  0  0  2  0  0  0  0  0  0
  184.7160  179.0410  141.7140 C   0  0  0  0  0  0  0  0  0  0  0  0
  185.4380  179.4400  142.8440 C   0  0  0  0  0  3  0  0  0  0  0  0
  182.6990  177.5540  138.2080 C   0  0  0  0  0  2  0  0  0  0  0  0
  181.2810  179.4670  138.8110 C   0  0  0  0  0  0  0  0  0  0  0  0
  180.4120  180.4040  138.4180 C   0  0  0  0  0  3  0  0  0  0  0  0
  187.2100  178.2850  139.3620 O   0  0  0  0  0  0  0  0  0  0  0  0
  186.6470  178.3000  138.2340 C   0  0  0  0  0  0  0  0  0  0  0  0
  185.2620  178.6270  138.1260 N   0  0  0  0  0  2  0  0  0  0  0  0
  189.6790  176.1550  137.4870 C   0  0  1  0  0  3  0  0  0  0  0  0
  187.3520  176.5080  136.6140 C   0  0  0  0  0  2  0  0  0  0  0  0
  188.9490  179.8150  137.4390 O   0  0  0  0  0  1  0  0  0  0  0  0
  190.4640  175.3690  138.3290 O   0  0  0  0  0  1  0  0  0  0  0  0
  188.2380  175.6540  137.5230 C   0  0  0  0  0  2  0  0  0  0  0  0
  188.8820  178.4810  137.0330 C   0  0  2  0  0  3  0  0  0  0  0  0
  187.4240  177.9930  136.9860 C   0  0  2  0  0  3  0  0  0  0  0  0
  189.7430  177.6090  137.9440 C   0  0  0  0  0  2  0  0  0  0  0  0
  1  9  1  0  0  0  0
  2  3  1  6  0  0  0
  2  5  1  0  0  0  0
  3  7  2  0  0  0  0
  4  7  1  0  0  0  0
  4 11  2  0  0  0  0
  5 14  1  0  0  0  0
  6  1  1  0  0  0  0
  8 13  1  0  0  0  0
  8 12  1  0  0  0  0
 10 18  1  0  0  0  0
 10 19  1  0  0  0  0
 12 16  1  0  0  0  0
 13 18  1  6  0  0  0
 13  2  1  0  0  0  0
 14  1  2  0  0  0  0
 15  4  1  0  0  0  0
 16  5  2  0  0  0  0
 16 17  1  0  0  0  0
 17  6  2  0  0  0  0
 19  3  1  0  0  0  0
 20 19  2  0  0  0  0
 20 15  1  0  0  0  0
 22 21  2  0  0  0  0
 23 22  1  0  0  0  0
 23  8  1  0  0  0  0
 24 28  1  0  0  0  0
 24 31  1  0  0  0  0
 24 27  1  1  0  0  0
 25 30  1  0  0  0  0
 25 28  1  0  0  0  0
 29 26  1  1  0  0  0
 29 31  1  0  0  0  0
 30 29  1  0  0  0  0
 30 22  1  1  0  0  0
M  END
>  <MODEL>
3

>  <REMARK>
 VINA RESULT:      -8.3      3.897      7.263
  Name = 
  2 active torsions:
  status: ('A' for Active; 'I' for Inactive)
    1  A    between atoms: C_5  and  C_30
    2  A    between atoms: N_10  and  N_16
                            x       y       z     vdW  Elec       q    Type
                         _______ _______ _______ _____ _____    ______ ____

>  <TORSDO>
F 2

$$$$
=
 OpenBabel11122411183D

 31 35  0  0  1  0  0  0  0  0999 V2000
  191.4220  176.8270  145.1140 C   0  0  0  0  0  0  0  0  0  0  0  0
  187.8150  176.9840  143.9030 C   0  0  2  0  0  3  0  0  0  0  0  0
  187.0570  177.7830  144.9550 C   0  0  0  0  0  0  0  0  0  0  0  0
  186.7400  178.5760  147.2440 C   0  0  0  0  0  0  0  0  0  0  0  0
  189.3080  177.1970  143.9780 C   0  0  0  0  0  0  0  0  0  0  0  0
  192.0690  177.6460  144.1850 C   0  0  0  0  0  3  0  0  0  0  0  0
  187.4900  177.8360  146.2200 C   0  0  0  0  0  3  0  0  0  0  0  0
  187.7880  178.6120  142.0460 N   0  0  0  0  0  0  0  0  0  0  0  0
  192.1280  176.2510  146.1170 F   0  0  0  0  0  0  0  0  0  0  0  0
  185.2020  178.1530  143.3360 O   0  0  0  0  0  0  0  0  0  0  0  0
  187.1120  178.5300  148.4440 O   0  0  0  0  0  0  0  0  0  0  0  0
  189.2370  178.5430  141.8380 C   0  0  0  0  0  2  0  0  0  0  0  0
  187.3080  177.2880  142.4750 C   0  0  2  0  0  3  0  0  0  0  0  0
  190.0480  176.6000  145.0090 C   0  0  0  0  0  3  0  0  0  0  0  0
  185.5740  179.4380  146.8570 C   0  0  0  0  0  2  0  0  0  0  0  0
  189.9640  178.0210  143.0430 C   0  0  0  0  0  0  0  0  0  0  0  0
  191.3430  178.2320  143.1460 C   0  0  0  0  0  3  0  0  0  0  0  0
  185.7760  177.2000  142.4470 C   0  0  0  0  0  2  0  0  0  0  0  0
  185.7400  178.3770  144.6030 C   0  0  0  0  0  0  0  0  0  0  0  0
  185.0550  179.1180  145.4800 C   0  0  0  0  0  3  0  0  0  0  0  0
  188.5330  177.3140  139.6840 O   0  0  0  0  0  0  0  0  0  0  0  0
  187.6390  178.2000  139.6140 C   0  0  0  0  0  0  0  0  0  0  0  0
  187.2260  178.8970  140.7890 N   0  0  0  0  0  2  0  0  0  0  0  0
  187.6600  176.5970  136.1820 C   0  0  1  0  0  3  0  0  0  0  0  0
  186.0010  177.4870  137.8420 C   0  0  0  0  0  2  0  0  0  0  0  0
  188.9830  179.7730  137.6290 O   0  0  0  0  0  1  0  0  0  0  0  0
  188.2930  175.4430  135.7230 O   0  0  0  0  0  1  0  0  0  0  0  0
  186.7020  176.2340  137.3130 C   0  0  0  0  0  2  0  0  0  0  0  0
  188.0270  178.8570  137.1880 C   0  0  2  0  0  3  0  0  0  0  0  0
  187.0070  178.5490  138.2980 C   0  0  2  0  0  3  0  0  0  0  0  0
  188.7080  177.5890  136.6770 C   0  0  0  0  0  2  0  0  0  0  0  0
  1  9  1  0  0  0  0
  2  5  1  6  0  0  0
  2  3  1  0  0  0  0
  3  7  2  0  0  0  0
  4 11  2  0  0  0  0
  5 14  2  0  0  0  0
  6  1  2  0  0  0  0
  7  4  1  0  0  0  0
  8 13  1  0  0  0  0
 10 19  1  0  0  0  0
 12  8  1  0  0  0  0
 12 16  1  0  0  0  0
 13 18  1  1  0  0  0
 13  2  1  0  0  0  0
 14  1  1  0  0  0  0
 15  4  1  0  0  0  0
 16 17  2  0  0  0  0
 16  5  1  0  0  0  0
 17  6  1  0  0  0  0
 18 10  1  0  0  0  0
 19  3  1  0  0  0  0
 19 20  2  0  0  0  0
 20 15  1  0  0  0  0
 22 21  2  0  0  0  0
 22 23  1  0  0  0  0
 23  8  1  0  0  0  0
 24 27  1  1  0  0  0
 24 31  1  0  0  0  0
 24 28  1  0  0  0  0
 25 30  1  0  0  0  0
 28 25  1  0  0  0  0
 29 26  1  1  0  0  0
 29 30  1  0  0  0  0
 30 22  1  1  0  0  0
 31 29  1  0  0  0  0
M  END
>  <MODEL>
4

>  <REMARK>
 VINA RESULT:      -8.2      3.005      3.632
  Name = 
  2 active torsions:
  status: ('A' for Active; 'I' for Inactive)
    1  A    between atoms: C_5  and  C_30
    2  A    between atoms: N_10  and  N_16
                            x       y       z     vdW  Elec       q    Type
                         _______ _______ _______ _____ _____    ______ ____

>  <TORSDO>
F 2

$$$$
=
 OpenBabel11122411183D

 31 35  0  0  1  0  0  0  0  0999 V2000
  191.1820  177.3810  141.3330 C   0  0  0  0  0  0  0  0  0  0  0  0
  189.1120  177.8710  138.1740 C   0  0  2  0  0  3  0  0  0  0  0  0
  189.0120  176.4970  137.5250 C   0  0  0  0  0  0  0  0  0  0  0  0
  189.8710  174.2520  137.0890 C   0  0  0  0  0  0  0  0  0  0  0  0
  189.4990  177.7960  139.6320 C   0  0  0  0  0  0  0  0  0  0  0  0
  190.2240  177.5700  142.3320 C   0  0  0  0  0  3  0  0  0  0  0  0
  189.9470  175.5650  137.7440 C   0  0  0  0  0  3  0  0  0  0  0  0
  186.7740  178.1470  138.9240 N   0  0  0  0  0  0  0  0  0  0  0  0
  192.4610  177.0850  141.6680 F   0  0  0  0  0  0  0  0  0  0  0  0
  187.0970  177.2900  136.1450 O   0  0  0  0  0  0  0  0  0  0  0  0
  190.8100  173.4290  137.2320 O   0  0  0  0  0  0  0  0  0  0  0  0
  187.1550  178.4650  140.3040 C   0  0  0  0  0  2  0  0  0  0  0  0
  187.8030  178.6790  138.0150 C   0  0  2  0  0  3  0  0  0  0  0  0
  190.8220  177.4970  139.9880 C   0  0  0  0  0  3  0  0  0  0  0  0
  188.6520  173.8640  136.3050 C   0  0  0  0  0  2  0  0  0  0  0  0
  188.5370  177.9870  140.6420 C   0  0  0  0  0  0  0  0  0  0  0  0
  188.9070  177.8830  141.9870 C   0  0  0  0  0  3  0  0  0  0  0  0
  187.3490  178.6320  136.5500 C   0  0  0  0  0  2  0  0  0  0  0  0
  187.9500  176.2500  136.5130 C   0  0  0  0  0  0  0  0  0  0  0  0
  187.7980  175.0500  135.9440 C   0  0  0  0  0  3  0  0  0  0  0  0
  184.3210  176.8800  138.4790 O   0  0  0  0  0  0  0  0  0  0  0  0
  184.3470  178.1400  138.4640 C   0  0  0  0  0  0  0  0  0  0  0  0
  185.5750  178.8360  138.6810 N   0  0  0  0  0  2  0  0  0  0  0  0
  180.6880  177.6130  139.2890 C   0  0  1  0  0  3  0  0  0  0  0  0
  182.4340  179.4040  139.5020 C   0  0  0  0  0  2  0  0  0  0  0  0
  182.7070  177.7090  136.1510 O   0  0  0  0  0  1  0  0  0  0  0  0
  180.0490  176.5710  139.9590 O   0  0  0  0  0  1  0  0  0  0  0  0
  181.7110  178.2620  140.2170 C   0  0  0  0  0  2  0  0  0  0  0  0
  182.0860  178.2010  137.3010 C   0  0  2  0  0  3  0  0  0  0  0  0
  183.0960  178.9290  138.2040 C   0  0  2  0  0  3  0  0  0  0  0  0
  181.3780  177.0690  138.0420 C   0  0  0  0  0  2  0  0  0  0  0  0
  1  9  1  0  0  0  0
  1  6  1  0  0  0  0
  2  3  1  1  0  0  0
  2  5  1  0  0  0  0
  3  7  2  0  0  0  0
  4 11  2  0  0  0  0
  4  7  1  0  0  0  0
  5 14  1  0  0  0  0
  5 16  2  0  0  0  0
  8 12  1  0  0  0  0
 10 19  1  0  0  0  0
 10 18  1  0  0  0  0
 12 16  1  0  0  0  0
 13 18  1  6  0  0  0
 13  2  1  0  0  0  0
 13  8  1  0  0  0  0
 14  1  2  0  0  0  0
 15  4  1  0  0  0  0
 16 17  1  0  0  0  0
 17  6  2  0  0  0  0
 19  3  1  0  0  0  0
 20 15  1  0  0  0  0
 20 19  2  0  0  0  0
 22 21  2  0  0  0  0
 22 23  1  0  0  0  0
 23  8  1  0  0  0  0
 24 27  1  1  0  0  0
 24 28  1  0  0  0  0
 25 28  1  0  0  0  0
 29 26  1  6  0  0  0
 29 31  1  0  0  0  0
 29 30  1  0  0  0  0
 30 22  1  1  0  0  0
 30 25  1  0  0  0  0
 31 24  1  0  0  0  0
M  END
>  <MODEL>
5

>  <REMARK>
 VINA RESULT:      -8.2      3.882      6.236
  Name = 
  2 active torsions:
  status: ('A' for Active; 'I' for Inactive)
    1  A    between atoms: C_5  and  C_30
    2  A    between atoms: N_10  and  N_16
                            x       y       z     vdW  Elec       q    Type
                         _______ _______ _______ _____ _____    ______ ____

>  <TORSDO>
F 2

$$$$
=
 OpenBabel11122411183D

 31 35  0  0  1  0  0  0  0  0999 V2000
  191.2600  176.4630  144.1700 C   0  0  0  0  0  0  0  0  0  0  0  0
  187.4980  176.9830  143.8810 C   0  0  2  0  0  3  0  0  0  0  0  0
  187.0860  177.7440  145.1340 C   0  0  0  0  0  0  0  0  0  0  0  0
  187.3900  178.3620  147.4770 C   0  0  0  0  0  0  0  0  0  0  0  0
  188.9800  177.0800  143.6060 C   0  0  0  0  0  0  0  0  0  0  0  0
  191.7410  177.3090  143.1670 C   0  0  0  0  0  3  0  0  0  0  0  0
  187.8070  177.6580  146.2570 C   0  0  0  0  0  3  0  0  0  0  0  0
  187.1810  178.7590  142.1940 N   0  0  0  0  0  0  0  0  0  0  0  0
  192.1270  175.7560  144.9340 F   0  0  0  0  0  0  0  0  0  0  0  0
  184.9420  178.3810  144.0390 O   0  0  0  0  0  0  0  0  0  0  0  0
  188.0290  178.1890  148.5470 O   0  0  0  0  0  0  0  0  0  0  0  0
  188.5290  178.6020  141.6370 C   0  0  0  0  0  2  0  0  0  0  0  0
  186.6980  177.4420  142.6400 C   0  0  2  0  0  3  0  0  0  0  0  0
  189.8850  176.3470  144.3860 C   0  0  0  0  0  3  0  0  0  0  0  0
  186.2490  179.3350  147.4400 C   0  0  0  0  0  2  0  0  0  0  0  0
  189.4690  177.9300  142.5940 C   0  0  0  0  0  0  0  0  0  0  0  0
  190.8470  178.0310  142.3740 C   0  0  0  0  0  3  0  0  0  0  0  0
  185.2020  177.4670  142.9780 C   0  0  0  0  0  2  0  0  0  0  0  0
  185.7810  178.4590  145.1500 C   0  0  0  0  0  0  0  0  0  0  0  0
  185.3930  179.1710  146.2130 C   0  0  0  0  0  3  0  0  0  0  0  0
  187.2690  177.6510  139.6270 O   0  0  0  0  0  0  0  0  0  0  0  0
  186.4480  178.5840  139.8410 C   0  0  0  0  0  0  0  0  0  0  0  0
  186.3670  179.1880  141.1320 N   0  0  0  0  0  2  0  0  0  0  0  0
  183.3470  177.2230  138.1440 C   0  0  1  0  0  3  0  0  0  0  0  0
  184.1280  179.3460  139.2320 C   0  0  0  0  0  2  0  0  0  0  0  0
  186.8620  177.8990  137.0870 O   0  0  0  0  0  1  0  0  0  0  0  0
  182.6440  176.0370  138.3520 O   0  0  0  0  0  1  0  0  0  0  0  0
  183.3530  178.0420  139.4320 C   0  0  0  0  0  2  0  0  0  0  0  0
  185.5580  178.1910  137.4910 C   0  0  2  0  0  3  0  0  0  0  0  0
  185.5560  179.0860  138.7420 C   0  0  2  0  0  3  0  0  0  0  0  0
  184.7760  176.8990  137.7180 C   0  0  0  0  0  2  0  0  0  0  0  0
  1 14  1  0  0  0  0
  1  9  1  0  0  0  0
  2  5  1  6  0  0  0
  2  3  1  0  0  0  0
  3 19  1  0  0  0  0
  3  7  2  0  0  0  0
  4 11  2  0  0  0  0
  5 14  2  0  0  0  0
  6  1  2  0  0  0  0
  7  4  1  0  0  0  0
  8 13  1  0  0  0  0
 10 19  1  0  0  0  0
 12  8  1  0  0  0  0
 12 16  1  0  0  0  0
 13 18  1  1  0  0  0
 13  2  1  0  0  0  0
 15  4  1  0  0  0  0
 16  5  1  0  0  0  0
 17 16  2  0  0  0  0
 17  6  1  0  0  0  0
 18 10  1  0  0  0  0
 19 20  2  0  0  0  0
 20 15  1  0  0  0  0
 21 22  2  0  0  0  0
 22 23  1  0  0  0  0
 23  8  1  0  0  0  0
 24 27  1  1  0  0  0
 24 28  1  0  0  0  0
 25 28  1  0  0  0  0
 29 26  1  1  0  0  0
 29 31  1  0  0  0  0
 29 30  1  0  0  0  0
 30 25  1  0  0  0  0
 30 22  1  1  0  0  0
 31 24  1  0  0  0  0
M  END
>  <MODEL>
6

>  <REMARK>
 VINA RESULT:      -8.1      1.728      2.007
  Name = 
  2 active torsions:
  status: ('A' for Active; 'I' for Inactive)
    1  A    between atoms: C_5  and  C_30
    2  A    between atoms: N_10  and  N_16
                            x       y       z     vdW  Elec       q    Type
                         _______ _______ _______ _____ _____    ______ ____

>  <TORSDO>
F 2

$$$$
=
 OpenBabel11122411183D

 31 35  0  0  1  0  0  0  0  0999 V2000
  184.5980  178.6790  139.0960 C   0  0  0  0  0  0  0  0  0  0  0  0
  188.3790  178.2940  139.3350 C   0  0  2  0  0  3  0  0  0  0  0  0
  188.6440  177.6040  140.6660 C   0  0  0  0  0  0  0  0  0  0  0  0
  188.0470  177.0730  142.9750 C   0  0  0  0  0  0  0  0  0  0  0  0
  186.9520  178.1280  138.8700 C   0  0  0  0  0  0  0  0  0  0  0  0
  184.2840  177.7740  138.0790 C   0  0  0  0  0  3  0  0  0  0  0  0
  187.7750  177.7080  141.6780 C   0  0  0  0  0  3  0  0  0  0  0  0
  188.9790  176.4620  137.7900 N   0  0  0  0  0  0  0  0  0  0  0  0
  183.6130  179.3840  139.7030 F   0  0  0  0  0  0  0  0  0  0  0  0
  190.9350  177.0040  139.8970 O   0  0  0  0  0  0  0  0  0  0  0  0
  187.2650  177.2670  143.9400 O   0  0  0  0  0  0  0  0  0  0  0  0
  187.7140  176.5430  137.0530 C   0  0  0  0  0  2  0  0  0  0  0  0
  189.3540  177.8150  138.2350 C   0  0  2  0  0  3  0  0  0  0  0  0
  185.9270  178.8580  139.4880 C   0  0  0  0  0  3  0  0  0  0  0  0
  189.2140  176.1440  143.1350 C   0  0  0  0  0  2  0  0  0  0  0  0
  186.6320  177.2180  137.8430 C   0  0  0  0  0  0  0  0  0  0  0  0
  185.3000  177.0540  137.4470 C   0  0  0  0  0  3  0  0  0  0  0  0
  190.7910  177.8610  138.7700 C   0  0  0  0  0  2  0  0  0  0  0  0
  189.9570  176.9410  140.8890 C   0  0  0  0  0  0  0  0  0  0  0  0
  190.2220  176.2900  142.0260 C   0  0  0  0  0  3  0  0  0  0  0  0
  189.8340  173.8070  137.5910 O   0  0  0  0  0  0  0  0  0  0  0  0
  190.3400  174.6520  136.8030 C   0  0  0  0  0  0  0  0  0  0  0  0
  189.9420  176.0210  136.8670 N   0  0  0  0  0  2  0  0  0  0  0  0
  194.1040  175.0330  136.6040 C   0  0  1  0  0  3  0  0  0  0  0  0
  192.3720  173.2290  136.3820 C   0  0  0  0  0  2  0  0  0  0  0  0
  191.2010  176.3750  134.6790 O   0  0  0  0  0  1  0  0  0  0  0  0
  195.0030  175.6350  137.4820 O   0  0  0  0  0  1  0  0  0  0  0  0
  193.3740  173.9010  137.3220 C   0  0  0  0  0  2  0  0  0  0  0  0
  192.1090  175.4240  135.1470 C   0  0  2  0  0  3  0  0  0  0  0  0
  191.3770  174.2380  135.7990 C   0  0  2  0  0  3  0  0  0  0  0  0
  193.1040  176.0730  136.1070 C   0  0  0  0  0  2  0  0  0  0  0  0
  1 14  1  0  0  0  0
  1  9  1  0  0  0  0
  2  5  1  6  0  0  0
  2  3  1  0  0  0  0
  3 19  1  0  0  0  0
  3  7  2  0  0  0  0
  4 15  1  0  0  0  0
  4 11  2  0  0  0  0
  5 14  2  0  0  0  0
  6  1  2  0  0  0  0
  7  4  1  0  0  0  0
  8 13  1  0  0  0  0
 10 19  1  0  0  0  0
 12  8  1  0  0  0  0
 12 16  1  0  0  0  0
 13 18  1  1  0  0  0
 13  2  1  0  0  0  0
 16  5  1  0  0  0  0
 17 16  2  0  0  0  0
 17  6  1  0  0  0  0
 18 10  1  0  0  0  0
 19 20  2  0  0  0  0
 20 15  1  0  0  0  0
 22 23  1  0  0  0  0
 22 21  2  0  0  0  0
 23  8  1  0  0  0  0
 24 28  1  0  0  0  0
 24 27  1  1  0  0  0
 25 28  1  0  0  0  0
 29 26  1  1  0  0  0
 29 30  1  0  0  0  0
 29 31  1  0  0  0  0
 30 25  1  0  0  0  0
 30 22  1  1  0  0  0
 31 24  1  0  0  0  0
M  END
>  <MODEL>
7

>  <REMARK>
 VINA RESULT:      -7.8      5.367      8.257
  Name = 
  2 active torsions:
  status: ('A' for Active; 'I' for Inactive)
    1  A    between atoms: C_5  and  C_30
    2  A    between atoms: N_10  and  N_16
                            x       y       z     vdW  Elec       q    Type
                         _______ _______ _______ _____ _____    ______ ____

>  <TORSDO>
F 2

$$$$
=
 OpenBabel11122411183D

 31 35  0  0  1  0  0  0  0  0999 V2000
  189.0680  177.8910  143.5430 C   0  0  0  0  0  0  0  0  0  0  0  0
  186.7610  178.9210  140.6930 C   0  0  2  0  0  3  0  0  0  0  0  0
  187.1170  178.0160  139.5220 C   0  0  0  0  0  0  0  0  0  0  0  0
  188.6910  176.6280  138.2730 C   0  0  0  0  0  0  0  0  0  0  0  0
  187.2420  178.3740  142.0160 C   0  0  0  0  0  0  0  0  0  0  0  0
  188.1720  177.2880  144.4300 C   0  0  0  0  0  3  0  0  0  0  0  0
  188.3350  177.4710  139.4210 C   0  0  0  0  0  3  0  0  0  0  0  0
  184.5330  178.0150  141.2560 N   0  0  0  0  0  0  0  0  0  0  0  0
  190.3870  177.9490  143.8480 F   0  0  0  0  0  0  0  0  0  0  0  0
  184.9600  178.5960  138.4200 O   0  0  0  0  0  0  0  0  0  0  0  0
  189.8700  176.2080  138.1500 O   0  0  0  0  0  0  0  0  0  0  0  0
  184.8620  177.8270  142.6720 C   0  0  0  0  0  2  0  0  0  0  0  0
  185.2430  179.2060  140.7590 C   0  0  2  0  0  3  0  0  0  0  0  0
  188.6040  178.4350  142.3430 C   0  0  0  0  0  3  0  0  0  0  0  0
  187.6440  176.2110  137.2820 C   0  0  0  0  0  2  0  0  0  0  0  0
  186.3420  177.7670  142.9130 C   0  0  0  0  0  0  0  0  0  0  0  0
  186.8110  177.2370  144.1200 C   0  0  0  0  0  3  0  0  0  0  0  0
  184.7420  179.6320  139.3730 C   0  0  0  0  0  2  0  0  0  0  0  0
  186.1500  177.8690  138.4010 C   0  0  0  0  0  0  0  0  0  0  0  0
  186.4020  177.0570  137.3690 C   0  0  0  0  0  3  0  0  0  0  0  0
  182.7220  176.5020  139.7550 O   0  0  0  0  0  0  0  0  0  0  0  0
  182.2700  177.4680  140.4280 C   0  0  0  0  0  0  0  0  0  0  0  0
  183.1530  178.2750  141.2070 N   0  0  0  0  0  2  0  0  0  0  0  0
  179.2960  176.1010  138.5220 C   0  0  1  0  0  3  0  0  0  0  0  0
  179.9460  176.6210  140.8900 C   0  0  0  0  0  2  0  0  0  0  0  0
  181.1350  179.3480  138.5840 O   0  0  0  0  0  1  0  0  0  0  0  0
  179.2170  175.0890  137.5670 O   0  0  0  0  0  1  0  0  0  0  0  0
  179.8400  175.5260  139.8270 C   0  0  0  0  0  2  0  0  0  0  0  0
  180.3100  178.3240  139.0520 C   0  0  2  0  0  3  0  0  0  0  0  0
  180.8050  177.7950  140.4090 C   0  0  2  0  0  3  0  0  0  0  0  0
  180.2110  177.2100  138.0120 C   0  0  0  0  0  2  0  0  0  0  0  0
  1  9  1  0  0  0  0
  1  6  1  0  0  0  0
  2  3  1  6  0  0  0
  2 13  1  0  0  0  0
  2  5  1  0  0  0  0
  4  7  1  0  0  0  0
  5 14  1  0  0  0  0
  5 16  2  0  0  0  0
  7  3  2  0  0  0  0
  8 12  1  0  0  0  0
 10 18  1  0  0  0  0
 11  4  2  0  0  0  0
 12 16  1  0  0  0  0
 13 18  1  6  0  0  0
 13  8  1  0  0  0  0
 14  1  2  0  0  0  0
 15 20  1  0  0  0  0
 15  4  1  0  0  0  0
 16 17  1  0  0  0  0
 17  6  2  0  0  0  0
 19 10  1  0  0  0  0
 19  3  1  0  0  0  0
 20 19  2  0  0  0  0
 21 22  2  0  0  0  0
 22 23  1  0  0  0  0
 23  8  1  0  0  0  0
 24 27  1  6  0  0  0
 24 28  1  0  0  0  0
 28 25  1  0  0  0  0
 29 26  1  6  0  0  0
 29 30  1  0  0  0  0
 30 22  1  6  0  0  0
 30 25  1  0  0  0  0
 31 24  1  0  0  0  0
 31 29  1  0  0  0  0
M  END
>  <MODEL>
8

>  <REMARK>
 VINA RESULT:      -7.8      2.942      5.083
  Name = 
  2 active torsions:
  status: ('A' for Active; 'I' for Inactive)
    1  A    between atoms: C_5  and  C_30
    2  A    between atoms: N_10  and  N_16
                            x       y       z     vdW  Elec       q    Type
                         _______ _______ _______ _____ _____    ______ ____

>  <TORSDO>
F 2

$$$$
=
 OpenBabel11122411183D

 31 35  0  0  1  0  0  0  0  0999 V2000
  190.2560  176.9440  146.1190 C   0  0  0  0  0  0  0  0  0  0  0  0
  187.6520  177.1630  143.3480 C   0  0  2  0  0  3  0  0  0  0  0  0
  186.5180  178.0110  143.9090 C   0  0  0  0  0  0  0  0  0  0  0  0
  185.1900  178.8750  145.7680 C   0  0  0  0  0  0  0  0  0  0  0  0
  188.9410  177.3390  144.1160 C   0  0  0  0  0  0  0  0  0  0  0  0
  191.2930  177.7200  145.5950 C   0  0  0  0  0  3  0  0  0  0  0  0
  186.3060  178.0870  145.2280 C   0  0  0  0  0  3  0  0  0  0  0  0
  188.5620  178.7390  141.6780 N   0  0  0  0  0  0  0  0  0  0  0  0
  190.3840  176.3780  147.3430 F   0  0  0  0  0  0  0  0  0  0  0  0
  185.6590  178.3850  141.6020 O   0  0  0  0  0  0  0  0  0  0  0  0
  184.9510  178.8530  147.0020 O   0  0  0  0  0  0  0  0  0  0  0  0
  189.9350  178.6250  142.1790 C   0  0  0  0  0  2  0  0  0  0  0  0
  187.8890  177.4410  141.8460 C   0  0  2  0  0  3  0  0  0  0  0  0
  189.0860  176.7510  145.3800 C   0  0  0  0  0  3  0  0  0  0  0  0
  184.3760  179.7570  144.8670 C   0  0  0  0  0  2  0  0  0  0  0  0
  189.9900  178.1180  143.5910 C   0  0  0  0  0  0  0  0  0  0  0  0
  191.1640  178.2960  144.3290 C   0  0  0  0  0  3  0  0  0  0  0  0
  186.5490  177.3930  141.1000 C   0  0  0  0  0  2  0  0  0  0  0  0
  185.5440  178.6300  142.9700 C   0  0  0  0  0  0  0  0  0  0  0  0
  184.5550  179.4130  143.4120 C   0  0  0  0  0  3  0  0  0  0  0  0
  189.8720  177.0520  139.8720 O   0  0  0  0  0  0  0  0  0  0  0  0
  189.3440  178.1050  139.4220 C   0  0  0  0  0  0  0  0  0  0  0  0
  188.6690  179.0030  140.3020 N   0  0  0  0  0  2  0  0  0  0  0  0
  187.6530  176.7600  136.3100 C   0  0  1  0  0  3  0  0  0  0  0  0
  188.1020  178.9710  137.4110 C   0  0  0  0  0  2  0  0  0  0  0  0
  191.1420  176.7610  137.6360 O   0  0  0  0  0  1  0  0  0  0  0  0
  186.7110  175.7440  136.1560 O   0  0  0  0  0  1  0  0  0  0  0  0
  187.0830  177.8470  137.2170 C   0  0  0  0  0  2  0  0  0  0  0  0
  189.9680  177.2880  137.0950 C   0  0  2  0  0  3  0  0  0  0  0  0
  189.4310  178.4410  137.9600 C   0  0  2  0  0  3  0  0  0  0  0  0
  188.9290  176.1830  136.9160 C   0  0  0  0  0  2  0  0  0  0  0  0
  1  9  1  0  0  0  0
  2  3  1  1  0  0  0
  2  5  1  0  0  0  0
  3  7  2  0  0  0  0
  4 11  2  0  0  0  0
  5 14  1  0  0  0  0
  6  1  1  0  0  0  0
  7  4  1  0  0  0  0
  8 13  1  0  0  0  0
  8 12  1  0  0  0  0
 10 19  1  0  0  0  0
 12 16  1  0  0  0  0
 13 18  1  6  0  0  0
 13  2  1  0  0  0  0
 14  1  2  0  0  0  0
 15  4  1  0  0  0  0
 16  5  2  0  0  0  0
 16 17  1  0  0  0  0
 17  6  2  0  0  0  0
 18 10  1  0  0  0  0
 19 20  2  0  0  0  0
 19  3  1  0  0  0  0
 20 15  1  0  0  0  0
 22 21  2  0  0  0  0
 22 23  1  0  0  0  0
 23  8  1  0  0  0  0
 24 27  1  1  0  0  0
 24 31  1  0  0  0  0
 24 28  1  0  0  0  0
 25 30  1  0  0  0  0
 28 25  1  0  0  0  0
 29 26  1  1  0  0  0
 29 30  1  0  0  0  0
 30 22  1  1  0  0  0
 31 29  1  0  0  0  0
M  END
>  <MODEL>
9

>  <REMARK>
 VINA RESULT:      -7.8      3.323      4.665
  Name = 
  2 active torsions:
  status: ('A' for Active; 'I' for Inactive)
    1  A    between atoms: C_5  and  C_30
    2  A    between atoms: N_10  and  N_16
                            x       y       z     vdW  Elec       q    Type
                         _______ _______ _______ _____ _____    ______ ____

>  <TORSDO>
F 2

$$$$
