=
 OpenBabel11122411343D

 37 43  0  0  1  0  0  0  0  0999 V2000
  190.6220  178.0240  143.9320 C   0  0  0  0  0  0  0  0  0  0  0  0
  186.5940  177.9540  142.7630 C   0  0  0  0  0  0  0  0  0  0  0  0
  185.9700  178.9570  139.0510 O   0  0  0  0  0  0  0  0  0  0  0  0
  188.1410  177.8540  144.6140 C   0  0  0  0  0  0  0  0  0  0  0  0
  186.7060  177.9250  141.2780 C   0  0  1  0  0  3  0  0  0  0  0  0
  187.8520  177.7880  143.2580 C   0  0  0  0  0  0  0  0  0  0  0  0
  185.7210  178.8430  140.4640 C   0  0  2  0  0  3  0  0  0  0  0  0
  187.0650  177.9390  145.5100 C   0  0  0  0  0  3  0  0  0  0  0  0
  188.8430  177.6810  142.1830 C   0  0  2  0  0  3  0  0  0  0  0  0
  191.2050  176.6300  143.7720 C   0  0  0  0  0  1  0  0  0  0  0  0
  184.1500  178.1800  143.1720 N   0  0  0  0  0  2  0  0  0  0  0  0
  185.7450  178.0010  145.0190 C   0  0  0  0  0  3  0  0  0  0  0  0
  190.0580  178.5150  142.5780 C   0  0  0  0  0  2  0  0  0  0  0  0
  187.4210  177.8190  137.3370 C   0  0  1  0  0  3  0  0  0  0  0  0
  186.6480  177.8100  138.6250 C   0  0  1  0  0  3  0  0  0  0  0  0
  185.4950  178.0340  143.6330 C   0  0  0  0  0  0  0  0  0  0  0  0
  188.1420  178.2000  141.0050 N   0  0  1  0  0  0  0  0  0  0  0  0
  189.5690  178.0020  145.0720 C   0  0  0  0  0  2  0  0  0  0  0  0
  184.2660  178.4130  140.7250 C   0  0  1  0  0  3  0  0  0  0  0  0
  191.7430  178.9550  144.3440 C   0  0  0  0  0  1  0  0  0  0  0  0
  188.0970  178.2680  138.6300 C   0  0  1  0  0  3  0  0  0  0  0  0
  188.5740  177.4570  139.8160 C   0  0  0  0  0  2  0  0  0  0  0  0
  183.7690  179.0020  142.0350 C   0  0  0  0  0  2  0  0  0  0  0  0
  182.8790  177.8000  138.7360 C   0  0  0  0  0  3  0  0  0  0  0  0
  183.3230  178.7910  139.6180 C   0  0  0  0  0  0  0  0  0  0  0  0
  182.8990  180.1180  139.4410 C   0  0  0  0  0  3  0  0  0  0  0  0
  181.6160  181.7570  138.2210 O   0  0  0  0  0  1  0  0  0  0  0  0
  181.5920  179.4500  137.5160 C   0  0  0  0  0  3  0  0  0  0  0  0
  182.0340  180.4450  138.3920 C   0  0  0  0  0  0  0  0  0  0  0  0
  182.0140  178.1290  137.6870 C   0  0  0  0  0  3  0  0  0  0  0  0
  188.3450  173.6330  136.3800 O   0  0  0  0  0  0  0  0  0  0  0  0
  187.2860  173.9510  136.9840 C   0  0  0  0  0  0  0  0  0  0  0  0
  187.8470  176.4350  136.9630 C   0  0  0  0  0  0  0  0  0  0  0  0
  187.0040  175.3230  137.2900 N   0  0  0  0  0  2  0  0  0  0  0  0
  188.9600  176.2580  136.3970 O   0  0  0  0  0  0  0  0  0  0  0  0
  185.0610  173.2430  137.7500 C   0  0  0  0  0  1  0  0  0  0  0  0
  186.3900  172.9480  137.3490 O   0  0  0  0  0  0  0  0  0  0  0  0
  1 20  1  0  0  0  0
  1 18  1  0  0  0  0
  2  6  2  0  0  0  0
  2 16  1  0  0  0  0
  4 18  1  0  0  0  0
  4  8  2  0  0  0  0
  5  2  1  1  0  0  0
  6  4  1  0  0  0  0
  7  3  1  6  0  0  0
  7 19  1  0  0  0  0
  7  5  1  0  0  0  0
  9 13  1  1  0  0  0
  9  6  1  0  0  0  0
 10  1  1  0  0  0  0
 11 16  1  0  0  0  0
 12  8  1  0  0  0  0
 13  1  1  0  0  0  0
 14 33  1  1  0  0  0
 14 15  1  0  0  0  0
 14 21  1  0  0  0  0
 15 21  1  0  0  0  0
 15  3  1  6  0  0  0
 16 12  2  0  0  0  0
 17 22  1  6  0  0  0
 17  5  1  0  0  0  0
 17  9  1  0  0  0  0
 19 25  1  6  0  0  0
 19 23  1  0  0  0  0
 21 22  1  1  0  0  0
 23 11  1  0  0  0  0
 24 25  1  0  0  0  0
 26 25  2  0  0  0  0
 27 29  1  0  0  0  0
 28 30  1  0  0  0  0
 28 29  2  0  0  0  0
 29 26  1  0  0  0  0
 30 24  2  0  0  0  0
 31 32  2  0  0  0  0
 32 34  1  0  0  0  0
 32 37  1  0  0  0  0
 33 34  1  0  0  0  0
 35 33  2  0  0  0  0
 37 36  1  0  0  0  0
M  END
>  <MODEL>
1

>  <REMARK>
 VINA RESULT:      -9.6      0.000      0.000
  Name = 
  3 active torsions:
  status: ('A' for Active; 'I' for Inactive)
    1  A    between atoms: C_4  and  O_37
    2  A    between atoms: C_8  and  C_18
    3  A    between atoms: C_23  and  C_30
                            x       y       z     vdW  Elec       q    Type
                         _______ _______ _______ _____ _____    ______ ____

>  <TORSDO>
F 3

$$$$
=
 OpenBabel11122411343D

 37 43  0  0  1  0  0  0  0  0999 V2000
  190.7380  178.0650  144.0420 C   0  0  0  0  0  0  0  0  0  0  0  0
  186.7100  177.9420  142.8770 C   0  0  0  0  0  0  0  0  0  0  0  0
  186.0690  178.9390  139.1670 O   0  0  0  0  0  0  0  0  0  0  0  0
  188.2600  177.8610  144.7270 C   0  0  0  0  0  0  0  0  0  0  0  0
  186.8210  177.9160  141.3920 C   0  0  1  0  0  3  0  0  0  0  0  0
  187.9710  177.7930  143.3710 C   0  0  0  0  0  0  0  0  0  0  0  0
  185.8230  178.8210  140.5790 C   0  0  2  0  0  3  0  0  0  0  0  0
  187.1840  177.9310  145.6240 C   0  0  0  0  0  3  0  0  0  0  0  0
  188.9620  177.7000  142.2950 C   0  0  2  0  0  3  0  0  0  0  0  0
  191.3390  176.6780  143.8800 C   0  0  0  0  0  1  0  0  0  0  0  0
  184.2640  178.1350  143.2890 N   0  0  0  0  0  2  0  0  0  0  0  0
  185.8630  177.9760  145.1340 C   0  0  0  0  0  3  0  0  0  0  0  0
  190.1660  178.5490  142.6890 C   0  0  0  0  0  2  0  0  0  0  0  0
  187.5340  177.8220  137.4500 C   0  0  1  0  0  3  0  0  0  0  0  0
  186.7620  177.8020  138.7390 C   0  0  1  0  0  3  0  0  0  0  0  0
  185.6100  178.0070  143.7490 C   0  0  0  0  0  0  0  0  0  0  0  0
  188.2530  178.2090  141.1180 N   0  0  1  0  0  0  0  0  0  0  0  0
  189.6870  178.0280  145.1830 C   0  0  0  0  0  2  0  0  0  0  0  0
  184.3740  178.3710  140.8410 C   0  0  1  0  0  3  0  0  0  0  0  0
  191.8460  179.0100  144.4540 C   0  0  0  0  0  1  0  0  0  0  0  0
  188.2040  178.2790  138.7420 C   0  0  1  0  0  3  0  0  0  0  0  0
  188.6930  177.4740  139.9280 C   0  0  0  0  0  2  0  0  0  0  0  0
  183.8710  178.9530  142.1520 C   0  0  0  0  0  2  0  0  0  0  0  0
  182.9840  177.7400  138.8600 C   0  0  0  0  0  3  0  0  0  0  0  0
  183.4250  178.7370  139.7360 C   0  0  0  0  0  0  0  0  0  0  0  0
  182.9930  180.0610  139.5530 C   0  0  0  0  0  3  0  0  0  0  0  0
  181.6960  181.6860  138.3290 O   0  0  0  0  0  1  0  0  0  0  0  0
  181.6830  179.3750  137.6360 C   0  0  0  0  0  3  0  0  0  0  0  0
  182.1220  180.3770  138.5050 C   0  0  0  0  0  0  0  0  0  0  0  0
  182.1130  178.0570  137.8130 C   0  0  0  0  0  3  0  0  0  0  0  0
  189.1430  173.9310  136.1980 O   0  0  0  0  0  0  0  0  0  0  0  0
  189.7410  175.0070  135.9290 C   0  0  0  0  0  0  0  0  0  0  0  0
  187.9770  176.4440  137.0750 C   0  0  0  0  0  0  0  0  0  0  0  0
  189.1970  176.2680  136.3440 N   0  0  0  0  0  2  0  0  0  0  0  0
  187.2530  175.4550  137.3720 O   0  0  0  0  0  0  0  0  0  0  0  0
  192.1400  175.5070  135.7450 C   0  0  0  0  0  1  0  0  0  0  0  0
  190.9410  174.9550  135.2230 O   0  0  0  0  0  0  0  0  0  0  0  0
  1 20  1  0  0  0  0
  1 18  1  0  0  0  0
  2  6  2  0  0  0  0
  2 16  1  0  0  0  0
  4 18  1  0  0  0  0
  4  8  2  0  0  0  0
  5  2  1  1  0  0  0
  6  4  1  0  0  0  0
  7  3  1  6  0  0  0
  7 19  1  0  0  0  0
  7  5  1  0  0  0  0
  9 13  1  1  0  0  0
  9  6  1  0  0  0  0
 10  1  1  0  0  0  0
 11 16  1  0  0  0  0
 12  8  1  0  0  0  0
 13  1  1  0  0  0  0
 14 33  1  1  0  0  0
 14 15  1  0  0  0  0
 14 21  1  0  0  0  0
 15 21  1  0  0  0  0
 15  3  1  6  0  0  0
 16 12  2  0  0  0  0
 17 22  1  6  0  0  0
 17  5  1  0  0  0  0
 17  9  1  0  0  0  0
 19 25  1  6  0  0  0
 19 23  1  0  0  0  0
 21 22  1  1  0  0  0
 23 11  1  0  0  0  0
 24 25  1  0  0  0  0
 26 25  2  0  0  0  0
 27 29  1  0  0  0  0
 28 30  1  0  0  0  0
 28 29  2  0  0  0  0
 29 26  1  0  0  0  0
 30 24  2  0  0  0  0
 32 31  2  0  0  0  0
 32 34  1  0  0  0  0
 33 35  2  0  0  0  0
 34 33  1  0  0  0  0
 37 36  1  0  0  0  0
 37 32  1  0  0  0  0
M  END
>  <MODEL>
2

>  <REMARK>
 VINA RESULT:      -9.3      1.129      1.720
  Name = 
  3 active torsions:
  status: ('A' for Active; 'I' for Inactive)
    1  A    between atoms: C_4  and  O_37
    2  A    between atoms: C_8  and  C_18
    3  A    between atoms: C_23  and  C_30
                            x       y       z     vdW  Elec       q    Type
                         _______ _______ _______ _____ _____    ______ ____

>  <TORSDO>
F 3

$$$$
=
 OpenBabel11122411343D

 37 43  0  0  1  0  0  0  0  0999 V2000
  190.7820  177.9980  143.9780 C   0  0  0  0  0  0  0  0  0  0  0  0
  186.6130  177.9570  143.5190 C   0  0  0  0  0  0  0  0  0  0  0  0
  185.3600  179.1380  140.0250 O   0  0  0  0  0  0  0  0  0  0  0  0
  188.4560  177.7770  145.0680 C   0  0  0  0  0  0  0  0  0  0  0  0
  186.4670  178.0020  142.0370 C   0  0  1  0  0  3  0  0  0  0  0  0
  187.9380  177.7760  143.7800 C   0  0  0  0  0  0  0  0  0  0  0  0
  185.3570  178.9520  141.4520 C   0  0  2  0  0  3  0  0  0  0  0  0
  187.5510  177.8090  146.1390 C   0  0  0  0  0  3  0  0  0  0  0  0
  188.7280  177.7290  142.5460 C   0  0  2  0  0  3  0  0  0  0  0  0
  191.3270  176.6180  143.6490 C   0  0  0  0  0  1  0  0  0  0  0  0
  184.2770  178.1450  144.3540 N   0  0  0  0  0  2  0  0  0  0  0  0
  186.1660  177.8860  145.8870 C   0  0  0  0  0  3  0  0  0  0  0  0
  189.9940  178.5510  142.7670 C   0  0  0  0  0  2  0  0  0  0  0  0
  186.4910  178.0970  138.0310 C   0  0  1  0  0  3  0  0  0  0  0  0
  185.9520  178.0190  139.4310 C   0  0  1  0  0  3  0  0  0  0  0  0
  185.6800  177.9860  144.5680 C   0  0  0  0  0  0  0  0  0  0  0  0
  187.8350  178.3000  141.5340 N   0  0  1  0  0  0  0  0  0  0  0  0
  189.9420  177.9120  145.2790 C   0  0  0  0  0  2  0  0  0  0  0  0
  183.9690  178.4990  141.9370 C   0  0  1  0  0  3  0  0  0  0  0  0
  191.9590  178.9150  144.2360 C   0  0  0  0  0  1  0  0  0  0  0  0
  187.3800  178.4860  139.2090 C   0  0  1  0  0  3  0  0  0  0  0  0
  188.0540  177.6210  140.2530 C   0  0  0  0  0  2  0  0  0  0  0  0
  183.7070  179.0190  143.3420 C   0  0  0  0  0  2  0  0  0  0  0  0
  181.5600  179.0540  141.5560 C   0  0  0  0  0  3  0  0  0  0  0  0
  182.8500  178.9240  141.0300 C   0  0  0  0  0  0  0  0  0  0  0  0
  183.0700  179.1720  139.6660 C   0  0  0  0  0  3  0  0  0  0  0  0
  182.2290  179.7970  137.4920 O   0  0  0  0  0  1  0  0  0  0  0  0
  180.7210  179.6810  139.3720 C   0  0  0  0  0  3  0  0  0  0  0  0
  182.0070  179.5510  138.8400 C   0  0  0  0  0  0  0  0  0  0  0  0
  180.4970  179.4320  140.7290 C   0  0  0  0  0  3  0  0  0  0  0  0
  187.8740  174.2310  136.4700 O   0  0  0  0  0  0  0  0  0  0  0  0
  188.6320  175.2370  136.4990 C   0  0  0  0  0  0  0  0  0  0  0  0
  186.8440  176.7360  137.5210 C   0  0  0  0  0  0  0  0  0  0  0  0
  188.1610  176.4910  137.0100 N   0  0  0  0  0  2  0  0  0  0  0  0
  185.9670  175.8290  137.5090 O   0  0  0  0  0  0  0  0  0  0  0  0
  190.8280  174.1360  136.5470 C   0  0  0  0  0  1  0  0  0  0  0  0
  189.9380  175.1120  136.0290 O   0  0  0  0  0  0  0  0  0  0  0  0
  1 20  1  0  0  0  0
  1 18  1  0  0  0  0
  2  6  2  0  0  0  0
  2 16  1  0  0  0  0
  4 18  1  0  0  0  0
  4  8  2  0  0  0  0
  5  2  1  1  0  0  0
  6  4  1  0  0  0  0
  7  3  1  6  0  0  0
  7 19  1  0  0  0  0
  7  5  1  0  0  0  0
  9 13  1  1  0  0  0
  9  6  1  0  0  0  0
 10  1  1  0  0  0  0
 11 16  1  0  0  0  0
 12  8  1  0  0  0  0
 13  1  1  0  0  0  0
 14 33  1  1  0  0  0
 14 21  1  0  0  0  0
 14 15  1  0  0  0  0
 15  3  1  6  0  0  0
 16 12  2  0  0  0  0
 17 22  1  6  0  0  0
 17  5  1  0  0  0  0
 17  9  1  0  0  0  0
 19 25  1  6  0  0  0
 19 23  1  0  0  0  0
 21 15  1  0  0  0  0
 21 22  1  1  0  0  0
 23 11  1  0  0  0  0
 25 24  1  0  0  0  0
 26 25  2  0  0  0  0
 27 29  1  0  0  0  0
 28 30  1  0  0  0  0
 29 28  2  0  0  0  0
 29 26  1  0  0  0  0
 30 24  2  0  0  0  0
 31 32  2  0  0  0  0
 32 34  1  0  0  0  0
 34 33  1  0  0  0  0
 35 33  2  0  0  0  0
 37 32  1  0  0  0  0
 37 36  1  0  0  0  0
M  END
>  <MODEL>
3

>  <REMARK>
 VINA RESULT:      -7.9      1.357      1.856
  Name = 
  3 active torsions:
  status: ('A' for Active; 'I' for Inactive)
    1  A    between atoms: C_4  and  O_37
    2  A    between atoms: C_8  and  C_18
    3  A    between atoms: C_23  and  C_30
                            x       y       z     vdW  Elec       q    Type
                         _______ _______ _______ _____ _____    ______ ____

>  <TORSDO>
F 3

$$$$
=
 OpenBabel11122411343D

 37 43  0  0  1  0  0  0  0  0999 V2000
  190.5200  177.9780  143.6830 C   0  0  0  0  0  0  0  0  0  0  0  0
  186.3380  177.9200  144.0000 C   0  0  0  0  0  0  0  0  0  0  0  0
  184.4620  179.3790  140.9140 O   0  0  0  0  0  0  0  0  0  0  0  0
  188.4350  177.6320  145.1610 C   0  0  0  0  0  0  0  0  0  0  0  0
  185.9200  178.0900  142.5810 C   0  0  1  0  0  3  0  0  0  0  0  0
  187.6870  177.7350  143.9960 C   0  0  0  0  0  0  0  0  0  0  0  0
  184.7230  179.0710  142.2950 C   0  0  2  0  0  3  0  0  0  0  0  0
  187.7450  177.5610  146.3790 C   0  0  0  0  0  3  0  0  0  0  0  0
  188.2350  177.8050  142.6380 C   0  0  2  0  0  3  0  0  0  0  0  0
  190.9910  176.6380  143.1410 C   0  0  0  0  0  1  0  0  0  0  0  0
  184.1970  178.0040  145.2660 N   0  0  0  0  0  2  0  0  0  0  0  0
  186.3370  177.6400  146.3950 C   0  0  0  0  0  3  0  0  0  0  0  0
  189.5220  178.6220  142.6910 C   0  0  0  0  0  2  0  0  0  0  0  0
  185.2020  178.5280  138.6630 C   0  0  1  0  0  3  0  0  0  0  0  0
  184.9310  178.3230  140.1260 C   0  0  1  0  0  3  0  0  0  0  0  0
  185.6160  177.8460  145.2030 C   0  0  0  0  0  0  0  0  0  0  0  0
  187.1720  178.4490  141.8620 N   0  0  1  0  0  0  0  0  0  0  0  0
  189.9350  177.7690  145.1050 C   0  0  0  0  0  2  0  0  0  0  0  0
  183.4480  178.5600  142.9880 C   0  0  1  0  0  3  0  0  0  0  0  0
  191.7260  178.8850  143.7980 C   0  0  0  0  0  1  0  0  0  0  0  0
  186.2950  178.8270  139.6860 C   0  0  1  0  0  3  0  0  0  0  0  0
  187.1470  177.8850  140.5080 C   0  0  0  0  0  2  0  0  0  0  0  0
  183.4510  178.9540  144.4560 C   0  0  0  0  0  2  0  0  0  0  0  0
  181.2400  179.7280  143.1220 C   0  0  0  0  0  3  0  0  0  0  0  0
  182.1810  179.0460  142.3430 C   0  0  0  0  0  0  0  0  0  0  0  0
  181.9160  178.8120  140.9850 C   0  0  0  0  0  3  0  0  0  0  0  0
  180.4640  179.0290  139.0700 O   0  0  0  0  0  1  0  0  0  0  0  0
  179.7870  179.9430  141.1980 C   0  0  0  0  0  3  0  0  0  0  0  0
  180.7210  179.2610  140.4140 C   0  0  0  0  0  0  0  0  0  0  0  0
  180.0450  180.1770  142.5510 C   0  0  0  0  0  3  0  0  0  0  0  0
  185.5810  174.5920  136.7510 O   0  0  0  0  0  0  0  0  0  0  0  0
  184.5350  174.9240  137.3700 C   0  0  0  0  0  0  0  0  0  0  0  0
  185.4500  177.2210  137.9800 C   0  0  0  0  0  0  0  0  0  0  0  0
  184.4320  176.2130  137.9900 N   0  0  0  0  0  2  0  0  0  0  0  0
  186.5670  177.0070  137.4350 O   0  0  0  0  0  0  0  0  0  0  0  0
  182.8160  173.5500  136.2770 C   0  0  0  0  0  1  0  0  0  0  0  0
  183.4770  174.0200  137.4420 O   0  0  0  0  0  0  0  0  0  0  0  0
  1 20  1  0  0  0  0
  1 18  1  0  0  0  0
  2 16  1  0  0  0  0
  4  8  2  0  0  0  0
  5  2  1  1  0  0  0
  6  2  2  0  0  0  0
  6  4  1  0  0  0  0
  7  3  1  6  0  0  0
  7  5  1  0  0  0  0
  7 19  1  0  0  0  0
  8 12  1  0  0  0  0
  9 13  1  1  0  0  0
  9  6  1  0  0  0  0
 10  1  1  0  0  0  0
 13  1  1  0  0  0  0
 14 33  1  6  0  0  0
 14 21  1  0  0  0  0
 14 15  1  0  0  0  0
 15  3  1  1  0  0  0
 16 11  1  0  0  0  0
 16 12  2  0  0  0  0
 17 22  1  6  0  0  0
 17  5  1  0  0  0  0
 17  9  1  0  0  0  0
 18  4  1  0  0  0  0
 19 25  1  6  0  0  0
 19 23  1  0  0  0  0
 21 15  1  0  0  0  0
 21 22  1  6  0  0  0
 23 11  1  0  0  0  0
 25 24  2  0  0  0  0
 26 25  1  0  0  0  0
 27 29  1  0  0  0  0
 28 30  2  0  0  0  0
 29 26  2  0  0  0  0
 29 28  1  0  0  0  0
 30 24  1  0  0  0  0
 31 32  2  0  0  0  0
 32 37  1  0  0  0  0
 32 34  1  0  0  0  0
 33 34  1  0  0  0  0
 35 33  2  0  0  0  0
 36 37  1  0  0  0  0
M  END
>  <MODEL>
4

>  <REMARK>
 VINA RESULT:      -7.8      1.894      2.457
  Name = 
  3 active torsions:
  status: ('A' for Active; 'I' for Inactive)
    1  A    between atoms: C_4  and  O_37
    2  A    between atoms: C_8  and  C_18
    3  A    between atoms: C_23  and  C_30
                            x       y       z     vdW  Elec       q    Type
                         _______ _______ _______ _____ _____    ______ ____

>  <TORSDO>
F 3

$$$$
=
 OpenBabel11122411343D

 37 43  0  0  1  0  0  0  0  0999 V2000
  183.1310  179.3200  138.8010 C   0  0  0  0  0  0  0  0  0  0  0  0
  185.9510  176.8140  136.9670 C   0  0  0  0  0  0  0  0  0  0  0  0
  189.6560  177.6470  137.8310 O   0  0  0  0  0  0  0  0  0  0  0  0
  183.6370  177.4990  137.0470 C   0  0  0  0  0  0  0  0  0  0  0  0
  187.1630  177.0580  137.7970 C   0  0  1  0  0  3  0  0  0  0  0  0
  184.9130  177.4390  137.5900 C   0  0  0  0  0  0  0  0  0  0  0  0
  188.5340  177.2160  137.0410 C   0  0  2  0  0  3  0  0  0  0  0  0
  183.3810  176.7510  135.8880 C   0  0  0  0  0  3  0  0  0  0  0  0
  185.3550  178.1390  138.8000 C   0  0  2  0  0  3  0  0  0  0  0  0
  182.6610  178.6700  140.0920 C   0  0  0  0  0  1  0  0  0  0  0  0
  186.7700  175.3510  135.1290 N   0  0  0  0  0  2  0  0  0  0  0  0
  184.4190  176.0080  135.2890 C   0  0  0  0  0  3  0  0  0  0  0  0
  184.6670  179.5000  138.8340 C   0  0  0  0  0  2  0  0  0  0  0  0
  190.1830  177.9520  140.2740 C   0  0  1  0  0  3  0  0  0  0  0  0
  189.4320  177.2790  139.1610 C   0  0  1  0  0  3  0  0  0  0  0  0
  185.7270  176.0510  135.8090 C   0  0  0  0  0  0  0  0  0  0  0  0
  186.8090  178.2280  138.6440 N   0  0  1  0  0  0  0  0  0  0  0  0
  182.6300  178.4750  137.6000 C   0  0  0  0  0  2  0  0  0  0  0  0
  188.8690  175.9180  136.2840 C   0  0  1  0  0  3  0  0  0  0  0  0
  182.4940  180.6900  138.7100 C   0  0  0  0  0  1  0  0  0  0  0  0
  188.8790  178.5590  139.7640 C   0  0  1  0  0  3  0  0  0  0  0  0
  187.4480  178.1030  139.9580 C   0  0  0  0  0  2  0  0  0  0  0  0
  188.1180  175.8710  134.9630 C   0  0  0  0  0  2  0  0  0  0  0  0
  190.8970  176.2670  134.8630 C   0  0  0  0  0  3  0  0  0  0  0  0
  190.3380  175.7370  136.0300 C   0  0  0  0  0  0  0  0  0  0  0  0
  191.1530  175.0290  136.9290 C   0  0  0  0  0  3  0  0  0  0  0  0
  193.3160  174.1610  137.5520 O   0  0  0  0  0  1  0  0  0  0  0  0
  193.0670  175.3950  135.4930 C   0  0  0  0  0  3  0  0  0  0  0  0
  192.5140  174.8600  136.6600 C   0  0  0  0  0  0  0  0  0  0  0  0
  192.2600  176.0970  134.5950 C   0  0  0  0  0  3  0  0  0  0  0  0
  189.4420  176.1740  144.2210 O   0  0  0  0  0  0  0  0  0  0  0  0
  189.2720  177.4050  144.0120 C   0  0  0  0  0  0  0  0  0  0  0  0
  189.9710  177.2360  141.5690 C   0  0  0  0  0  0  0  0  0  0  0  0
  189.5220  177.9660  142.7170 N   0  0  0  0  0  2  0  0  0  0  0  0
  190.2250  176.0020  141.6470 O   0  0  0  0  0  0  0  0  0  0  0  0
  187.6880  177.8810  145.8300 C   0  0  0  0  0  1  0  0  0  0  0  0
  188.8330  178.2130  145.0590 O   0  0  0  0  0  0  0  0  0  0  0  0
  1 13  1  0  0  0  0
  1 10  1  0  0  0  0
  2  6  1  0  0  0  0
  4  6  2  0  0  0  0
  4 18  1  0  0  0  0
  5  2  1  6  0  0  0
  5 17  1  0  0  0  0
  6  9  1  0  0  0  0
  7  5  1  0  0  0  0
  7  3  1  1  0  0  0
  8  4  1  0  0  0  0
  9 13  1  6  0  0  0
 11 16  1  0  0  0  0
 12 16  1  0  0  0  0
 12  8  2  0  0  0  0
 14 33  1  1  0  0  0
 15  3  1  6  0  0  0
 15 21  1  0  0  0  0
 15 14  1  0  0  0  0
 16  2  2  0  0  0  0
 17  9  1  0  0  0  0
 17 22  1  1  0  0  0
 18  1  1  0  0  0  0
 19 25  1  6  0  0  0
 19  7  1  0  0  0  0
 20  1  1  0  0  0  0
 21 22  1  1  0  0  0
 21 14  1  0  0  0  0
 23 11  1  0  0  0  0
 23 19  1  0  0  0  0
 24 25  1  0  0  0  0
 25 26  2  0  0  0  0
 28 29  2  0  0  0  0
 29 26  1  0  0  0  0
 29 27  1  0  0  0  0
 30 24  2  0  0  0  0
 30 28  1  0  0  0  0
 32 31  2  0  0  0  0
 32 37  1  0  0  0  0
 33 35  2  0  0  0  0
 33 34  1  0  0  0  0
 34 32  1  0  0  0  0
 37 36  1  0  0  0  0
M  END
>  <MODEL>
5

>  <REMARK>
 VINA RESULT:      -7.2      3.056      8.171
  Name = 
  3 active torsions:
  status: ('A' for Active; 'I' for Inactive)
    1  A    between atoms: C_4  and  O_37
    2  A    between atoms: C_8  and  C_18
    3  A    between atoms: C_23  and  C_30
                            x       y       z     vdW  Elec       q    Type
                         _______ _______ _______ _____ _____    ______ ____

>  <TORSDO>
F 3

$$$$
=
 OpenBabel11122411343D

 37 43  0  0  1  0  0  0  0  0999 V2000
  179.8850  178.9220  142.6200 C   0  0  0  0  0  0  0  0  0  0  0  0
  182.2180  177.2230  139.5760 C   0  0  0  0  0  0  0  0  0  0  0  0
  185.7780  178.7620  139.2170 O   0  0  0  0  0  0  0  0  0  0  0  0
  180.0160  177.3890  140.5510 C   0  0  0  0  0  0  0  0  0  0  0  0
  183.5900  177.6580  139.9620 C   0  0  1  0  0  3  0  0  0  0  0  0
  181.3920  177.5630  140.6040 C   0  0  0  0  0  0  0  0  0  0  0  0
  184.5360  178.1620  138.8100 C   0  0  2  0  0  3  0  0  0  0  0  0
  179.4850  176.6920  139.4560 C   0  0  0  0  0  3  0  0  0  0  0  0
  182.1210  178.2490  141.6750 C   0  0  2  0  0  3  0  0  0  0  0  0
  180.0440  178.0920  143.8830 C   0  0  0  0  0  1  0  0  0  0  0  0
  182.5430  176.1100  137.3740 N   0  0  0  0  0  2  0  0  0  0  0  0
  180.3400  176.2350  138.4320 C   0  0  0  0  0  3  0  0  0  0  0  0
  181.2700  179.4240  142.1460 C   0  0  0  0  0  2  0  0  0  0  0  0
  187.1070  178.9910  141.3430 C   0  0  1  0  0  3  0  0  0  0  0  0
  186.1260  178.2570  140.4740 C   0  0  1  0  0  3  0  0  0  0  0  0
  181.7200  176.5180  138.4690 C   0  0  0  0  0  0  0  0  0  0  0  0
  183.3760  178.6580  141.0410 N   0  0  1  0  0  0  0  0  0  0  0  0
  179.1320  178.0820  141.5560 C   0  0  0  0  0  2  0  0  0  0  0  0
  184.7870  177.0260  137.8020 C   0  0  1  0  0  3  0  0  0  0  0  0
  179.0340  180.1280  142.9570 C   0  0  0  0  0  1  0  0  0  0  0  0
  185.6230  179.3400  141.4110 C   0  0  1  0  0  3  0  0  0  0  0  0
  184.4660  178.5760  142.0190 C   0  0  0  0  0  2  0  0  0  0  0  0
  183.6230  176.9170  136.8300 C   0  0  0  0  0  2  0  0  0  0  0  0
  186.0510  177.8780  135.8190 C   0  0  0  0  0  3  0  0  0  0  0  0
  186.0680  177.1820  137.0320 C   0  0  0  0  0  0  0  0  0  0  0  0
  187.2710  176.6270  137.4950 C   0  0  0  0  0  3  0  0  0  0  0  0
  189.6330  176.2240  137.2120 O   0  0  0  0  0  1  0  0  0  0  0  0
  188.4210  177.4720  135.5400 C   0  0  0  0  0  3  0  0  0  0  0  0
  188.4450  176.7730  136.7500 C   0  0  0  0  0  0  0  0  0  0  0  0
  187.2250  178.0240  135.0740 C   0  0  0  0  0  3  0  0  0  0  0  0
  188.0870  176.7440  144.9890 O   0  0  0  0  0  0  0  0  0  0  0  0
  187.3530  177.7680  145.0250 C   0  0  0  0  0  0  0  0  0  0  0  0
  187.5140  178.1500  142.5120 C   0  0  0  0  0  0  0  0  0  0  0  0
  187.0470  178.4890  143.8240 N   0  0  0  0  0  2  0  0  0  0  0  0
  188.2930  177.1750  142.3350 O   0  0  0  0  0  0  0  0  0  0  0  0
  185.6810  179.0030  146.3350 C   0  0  0  0  0  1  0  0  0  0  0  0
  186.8400  178.1890  146.2500 O   0  0  0  0  0  0  0  0  0  0  0  0
  1 20  1  0  0  0  0
  1 10  1  0  0  0  0
  2  6  1  0  0  0  0
  4  6  2  0  0  0  0
  4 18  1  0  0  0  0
  5  2  1  6  0  0  0
  5 17  1  0  0  0  0
  6  9  1  0  0  0  0
  7  3  1  1  0  0  0
  7  5  1  0  0  0  0
  8  4  1  0  0  0  0
  9 13  1  6  0  0  0
 11 16  1  0  0  0  0
 12 16  1  0  0  0  0
 12  8  2  0  0  0  0
 13  1  1  0  0  0  0
 14 21  1  0  0  0  0
 14 33  1  1  0  0  0
 15  3  1  6  0  0  0
 15 14  1  0  0  0  0
 15 21  1  0  0  0  0
 16  2  2  0  0  0  0
 17  9  1  0  0  0  0
 17 22  1  1  0  0  0
 18  1  1  0  0  0  0
 19 25  1  6  0  0  0
 19  7  1  0  0  0  0
 21 22  1  1  0  0  0
 23 11  1  0  0  0  0
 23 19  1  0  0  0  0
 24 25  1  0  0  0  0
 25 26  2  0  0  0  0
 28 29  2  0  0  0  0
 29 27  1  0  0  0  0
 29 26  1  0  0  0  0
 30 28  1  0  0  0  0
 30 24  2  0  0  0  0
 31 32  2  0  0  0  0
 32 37  1  0  0  0  0
 33 34  1  0  0  0  0
 34 32  1  0  0  0  0
 35 33  2  0  0  0  0
 37 36  1  0  0  0  0
M  END
>  <MODEL>
6

>  <REMARK>
 VINA RESULT:      -6.7      2.945      7.397
  Name = 
  3 active torsions:
  status: ('A' for Active; 'I' for Inactive)
    1  A    between atoms: C_4  and  O_37
    2  A    between atoms: C_8  and  C_18
    3  A    between atoms: C_23  and  C_30
                            x       y       z     vdW  Elec       q    Type
                         _______ _______ _______ _____ _____    ______ ____

>  <TORSDO>
F 3

$$$$
