=
 OpenBabel11122412123D

 34 41  0  0  1  0  0  0  0  0999 V2000
  182.5480  178.9880  143.5300 C   0  0  1  0  0  3  0  0  0  0  0  0
  183.8810  179.0380  145.5510 C   0  0  0  0  0  2  0  0  0  0  0  0
  181.4490  178.2180  137.0770 C   0  0  2  0  0  3  0  0  0  0  0  0
  181.2760  178.8010  141.3870 C   0  0  0  0  0  0  0  0  0  0  0  0
  182.4040  178.0810  139.2890 C   0  0  1  0  0  3  0  0  0  0  0  0
  183.5070  177.7250  136.9180 C   0  0  0  0  0  2  0  0  0  0  0  0
  182.3130  177.6740  135.9640 C   0  0  0  0  0  2  0  0  0  0  0  0
  180.2280  180.0620  138.2500 C   0  0  0  0  0  2  0  0  0  0  0  0
  184.8640  178.9010  143.5210 C   0  0  2  0  0  3  0  0  0  0  0  0
  187.3030  177.0460  143.0210 C   0  0  0  0  0  2  0  0  0  0  0  0
  183.7110  177.9110  140.0950 C   0  0  0  0  0  2  0  0  0  0  0  0
  180.1580  179.0730  139.2590 O   0  0  0  0  0  0  0  0  0  0  0  0
  184.9280  178.2710  142.1200 C   0  0  1  0  0  3  0  0  0  0  0  0
  185.3800  178.9870  145.8310 C   0  0  0  0  0  2  0  0  0  0  0  0
  181.4080  179.0880  139.9230 C   0  0  1  0  0  3  0  0  0  0  0  0
  180.6090  179.4670  136.8720 C   0  0  0  0  0  2  0  0  0  0  0  0
  186.7840  177.4390  144.4180 C   0  0  2  0  0  3  0  0  0  0  0  0
  182.5140  178.3560  142.1240 C   0  0  1  0  0  3  0  0  0  0  0  0
  182.6760  178.5590  137.8760 C   0  0  1  0  0  3  0  0  0  0  0  0
  183.7340  178.6790  141.3520 N   0  0  2  0  0  0  0  0  0  0  0  0
  180.0960  178.7490  143.5290 C   0  0  0  0  0  3  0  0  0  0  0  0
  187.5120  178.2440  142.0910 C   0  0  0  0  0  2  0  0  0  0  0  0
  180.1260  178.9520  142.0610 C   0  0  0  0  0  3  0  0  0  0  0  0
  186.2180  178.6830  141.3890 C   0  0  0  0  0  2  0  0  0  0  0  0
  186.0460  178.7920  144.4750 C   0  0  1  0  0  3  0  0  0  0  0  0
  181.2380  178.7140  144.2290 C   0  0  0  0  0  3  0  0  0  0  0  0
  183.6940  178.4330  144.2410 N   0  0  2  0  0  0  0  0  0  0  0  0
  187.9510  177.4470  145.3960 C   0  0  0  0  0  2  0  0  0  0  0  0
  189.2350  177.8450  144.6870 C   0  0  0  0  0  2  0  0  0  0  0  0
  190.9140  176.1780  147.4420 C   0  0  0  0  0  2  0  0  0  0  0  0
  191.4110  176.7090  145.1480 C   0  0  0  0  0  2  0  0  0  0  0  0
  190.4150  177.7410  145.6360 C   0  0  0  0  0  3  0  0  0  0  0  0
  192.0120  176.1210  146.4010 C   0  0  0  0  0  2  0  0  0  0  0  0
  189.9470  177.2610  146.9960 C   0  0  0  0  0  2  0  0  0  0  0  0
  1 26  1  1  0  0  0
  1 27  1  0  0  0  0
  2 14  1  0  0  0  0
  3  7  1  6  0  0  0
  3 19  1  0  0  0  0
  4 23  2  0  0  0  0
  4 18  1  0  0  0  0
  5 15  1  0  0  0  0
  5 11  1  1  0  0  0
  6 19  1  0  0  0  0
  7  6  1  0  0  0  0
  8 12  1  0  0  0  0
  9 27  1  0  0  0  0
  9 25  1  0  0  0  0
 10 17  1  0  0  0  0
 11 20  1  0  0  0  0
 12 15  1  0  0  0  0
 13  9  1  0  0  0  0
 15  4  1  0  0  0  0
 16  3  1  0  0  0  0
 16  8  1  0  0  0  0
 17 25  1  0  0  0  0
 17 28  1  0  0  0  0
 18  1  1  0  0  0  0
 19  5  1  0  0  0  0
 20 13  1  0  0  0  0
 20 18  1  0  0  0  0
 21 26  2  0  0  0  0
 22 10  1  0  0  0  0
 23 21  1  0  0  0  0
 24 22  1  0  0  0  0
 24 13  1  0  0  0  0
 25 14  1  0  0  0  0
 27  2  1  0  0  0  0
 29 28  1  0  0  0  0
 29 32  1  0  0  0  0
 31 32  1  0  0  0  0
 31 33  1  0  0  0  0
 32 34  1  0  0  0  0
 33 30  1  0  0  0  0
 34 30  1  0  0  0  0
M  END
>  <MODEL>
1

>  <REMARK>
 VINA RESULT:     -10.3      0.000      0.000
  Name = 
  3 active torsions:
  status: ('A' for Active; 'I' for Inactive)
    1  A    between atoms: C_17  and  C_28
    2  A    between atoms: C_28  and  C_29
    3  A    between atoms: C_29  and  C_32
                            x       y       z     vdW  Elec       q    Type
                         _______ _______ _______ _____ _____    ______ ____

>  <TORSDO>
F 3

$$$$
=
 OpenBabel11122412123D

 34 41  0  0  1  0  0  0  0  0999 V2000
  183.6140  178.5760  143.4830 C   0  0  1  0  0  3  0  0  0  0  0  0
  181.2770  179.0810  143.0980 C   0  0  0  0  0  2  0  0  0  0  0  0
  189.8900  177.5120  141.7720 C   0  0  2  0  0  3  0  0  0  0  0  0
  186.0660  178.1690  143.7450 C   0  0  0  0  0  0  0  0  0  0  0  0
  187.5930  178.2540  141.7820 C   0  0  1  0  0  3  0  0  0  0  0  0
  189.2780  177.9130  139.7800 C   0  0  0  0  0  2  0  0  0  0  0  0
  190.6270  177.7090  140.4690 C   0  0  0  0  0  2  0  0  0  0  0  0
  188.9250  176.0890  143.5920 C   0  0  0  0  0  2  0  0  0  0  0  0
  182.6610  178.6280  141.3720 C   0  0  2  0  0  3  0  0  0  0  0  0
  182.5250  180.2350  138.7180 C   0  0  0  0  0  2  0  0  0  0  0  0
  186.3800  178.6280  140.9030 C   0  0  0  0  0  2  0  0  0  0  0  0
  188.3230  177.3220  143.9340 O   0  0  0  0  0  0  0  0  0  0  0  0
  184.0110  178.8360  140.6650 C   0  0  1  0  0  3  0  0  0  0  0  0
  180.4100  179.1890  141.8480 C   0  0  0  0  0  2  0  0  0  0  0  0
  187.2120  177.4790  143.0720 C   0  0  1  0  0  3  0  0  0  0  0  0
  190.1120  176.2660  142.6130 C   0  0  0  0  0  2  0  0  0  0  0  0
  181.4310  180.2590  139.8040 C   0  0  2  0  0  3  0  0  0  0  0  0
  185.0100  178.7870  142.8630 C   0  0  1  0  0  3  0  0  0  0  0  0
  188.5880  177.3940  141.0280 C   0  0  1  0  0  3  0  0  0  0  0  0
  185.0840  178.2440  141.4900 N   0  0  2  0  0  0  0  0  0  0  0  0
  184.7150  178.8370  145.6720 C   0  0  0  0  0  3  0  0  0  0  0  0
  182.9470  178.8220  138.3100 C   0  0  0  0  0  2  0  0  0  0  0  0
  185.9290  178.2280  145.0790 C   0  0  0  0  0  3  0  0  0  0  0  0
  183.9970  178.2190  139.2550 C   0  0  0  0  0  2  0  0  0  0  0  0
  181.3570  178.9850  140.6710 C   0  0  1  0  0  3  0  0  0  0  0  0
  183.6290  179.0540  144.9160 C   0  0  0  0  0  3  0  0  0  0  0  0
  182.6480  179.2950  142.6600 N   0  0  2  0  0  0  0  0  0  0  0  0
  180.0830  180.5110  139.1430 C   0  0  0  0  0  2  0  0  0  0  0  0
  179.7190  181.9840  139.2250 C   0  0  0  0  0  2  0  0  0  0  0  0
  181.0030  183.5500  136.2120 C   0  0  0  0  0  2  0  0  0  0  0  0
  179.8310  181.5250  136.7740 C   0  0  0  0  0  2  0  0  0  0  0  0
  179.4830  182.5480  137.8360 C   0  0  0  0  0  3  0  0  0  0  0  0
  180.3400  182.3320  135.6040 C   0  0  0  0  0  2  0  0  0  0  0  0
  180.4000  183.7320  137.5930 C   0  0  0  0  0  2  0  0  0  0  0  0
  1 26  1  1  0  0  0
  3  7  1  6  0  0  0
  3 16  1  0  0  0  0
  4 23  2  0  0  0  0
  5 11  1  6  0  0  0
  5 15  1  0  0  0  0
  6  7  1  0  0  0  0
  6 19  1  0  0  0  0
  8 12  1  0  0  0  0
  9 27  1  0  0  0  0
 10 17  1  0  0  0  0
 11 20  1  0  0  0  0
 13  9  1  0  0  0  0
 13 20  1  0  0  0  0
 14  2  1  0  0  0  0
 15  4  1  0  0  0  0
 15 12  1  0  0  0  0
 16  8  1  0  0  0  0
 17 25  1  0  0  0  0
 18  1  1  0  0  0  0
 18  4  1  0  0  0  0
 19  3  1  0  0  0  0
 19  5  1  0  0  0  0
 20 18  1  0  0  0  0
 22 10  1  0  0  0  0
 22 24  1  0  0  0  0
 23 21  1  0  0  0  0
 24 13  1  0  0  0  0
 25  9  1  0  0  0  0
 25 14  1  0  0  0  0
 26 21  2  0  0  0  0
 27  2  1  0  0  0  0
 27  1  1  0  0  0  0
 28 29  1  0  0  0  0
 28 17  1  0  0  0  0
 30 34  1  0  0  0  0
 31 32  1  0  0  0  0
 32 29  1  0  0  0  0
 33 30  1  0  0  0  0
 33 31  1  0  0  0  0
 34 32  1  0  0  0  0
M  END
>  <MODEL>
2

>  <REMARK>
 VINA RESULT:     -10.0      2.497      8.661
  Name = 
  3 active torsions:
  status: ('A' for Active; 'I' for Inactive)
    1  A    between atoms: C_17  and  C_28
    2  A    between atoms: C_28  and  C_29
    3  A    between atoms: C_29  and  C_32
                            x       y       z     vdW  Elec       q    Type
                         _______ _______ _______ _____ _____    ______ ____

>  <TORSDO>
F 3

$$$$
=
 OpenBabel11122412123D

 34 41  0  0  1  0  0  0  0  0999 V2000
  190.8090  177.1330  143.1010 C   0  0  1  0  0  3  0  0  0  0  0  0
  192.2890  176.8770  141.2010 C   0  0  0  0  0  2  0  0  0  0  0  0
  185.0630  178.2510  146.1290 C   0  0  2  0  0  3  0  0  0  0  0  0
  189.1510  177.3210  144.9610 C   0  0  0  0  0  0  0  0  0  0  0  0
  186.7320  177.6610  144.4890 C   0  0  1  0  0  3  0  0  0  0  0  0
  184.2200  178.4130  144.1880 C   0  0  0  0  0  2  0  0  0  0  0  0
  183.6500  178.3560  145.6050 C   0  0  0  0  0  2  0  0  0  0  0  0
  187.1290  179.2050  147.1710 C   0  0  0  0  0  2  0  0  0  0  0  0
  190.1960  177.6830  140.9350 C   0  0  2  0  0  3  0  0  0  0  0  0
  188.4200  176.8280  138.5350 C   0  0  0  0  0  2  0  0  0  0  0  0
  187.0560  177.5960  142.9810 C   0  0  0  0  0  2  0  0  0  0  0  0
  187.6500  177.9620  146.7460 O   0  0  0  0  0  0  0  0  0  0  0  0
  188.6910  177.5900  141.2370 C   0  0  1  0  0  3  0  0  0  0  0  0
  192.1480  177.1450  139.7060 C   0  0  0  0  0  2  0  0  0  0  0  0
  187.9360  178.0960  145.3670 C   0  0  1  0  0  3  0  0  0  0  0  0
  185.5800  179.2220  147.1770 C   0  0  0  0  0  2  0  0  0  0  0  0
  189.9410  176.5850  138.6190 C   0  0  2  0  0  3  0  0  0  0  0  0
  189.3230  177.0120  143.4950 C   0  0  1  0  0  3  0  0  0  0  0  0
  185.6020  178.6300  144.7780 C   0  0  1  0  0  3  0  0  0  0  0  0
  188.4660  177.8870  142.6670 N   0  0  2  0  0  0  0  0  0  0  0  0
  191.3180  176.2530  145.3450 C   0  0  0  0  0  3  0  0  0  0  0  0
  188.0170  178.2730  138.8380 C   0  0  0  0  0  2  0  0  0  0  0  0
  190.0910  176.9260  145.8340 C   0  0  0  0  0  3  0  0  0  0  0  0
  187.8880  178.5500  140.3430 C   0  0  0  0  0  2  0  0  0  0  0  0
  190.7060  177.5930  139.5030 C   0  0  1  0  0  3  0  0  0  0  0  0
  191.6430  176.3010  144.0450 C   0  0  0  0  0  3  0  0  0  0  0  0
  190.9370  176.7070  141.7110 N   0  0  2  0  0  0  0  0  0  0  0  0
  190.5220  176.5890  137.2130 C   0  0  0  0  0  2  0  0  0  0  0  0
  190.5270  175.1820  136.6370 C   0  0  0  0  0  2  0  0  0  0  0  0
  194.0840  175.9040  136.5290 C   0  0  0  0  0  2  0  0  0  0  0  0
  192.6620  174.2330  137.5190 C   0  0  0  0  0  2  0  0  0  0  0  0
  191.9440  174.7580  136.2920 C   0  0  0  0  0  3  0  0  0  0  0  0
  194.1100  174.6100  137.3150 C   0  0  0  0  0  2  0  0  0  0  0  0
  192.7430  175.9560  135.8180 C   0  0  0  0  0  2  0  0  0  0  0  0
  1 18  1  0  0  0  0
  1 26  1  1  0  0  0
  2 27  1  0  0  0  0
  3  7  1  6  0  0  0
  3 16  1  0  0  0  0
  4 15  1  0  0  0  0
  4 23  2  0  0  0  0
  5 11  1  6  0  0  0
  5 19  1  0  0  0  0
  5 15  1  0  0  0  0
  6 19  1  0  0  0  0
  6  7  1  0  0  0  0
  8 16  1  0  0  0  0
  9 13  1  0  0  0  0
  9 27  1  0  0  0  0
 10 17  1  0  0  0  0
 10 22  1  0  0  0  0
 12  8  1  0  0  0  0
 13 20  1  0  0  0  0
 14  2  1  0  0  0  0
 15 12  1  0  0  0  0
 17 25  1  0  0  0  0
 18  4  1  0  0  0  0
 19  3  1  0  0  0  0
 20 11  1  0  0  0  0
 20 18  1  0  0  0  0
 21 23  1  0  0  0  0
 22 24  1  0  0  0  0
 24 13  1  0  0  0  0
 25 14  1  0  0  0  0
 25  9  1  0  0  0  0
 26 21  2  0  0  0  0
 27  1  1  0  0  0  0
 28 17  1  0  0  0  0
 29 28  1  0  0  0  0
 30 33  1  0  0  0  0
 32 29  1  0  0  0  0
 32 31  1  0  0  0  0
 33 31  1  0  0  0  0
 34 32  1  0  0  0  0
 34 30  1  0  0  0  0
M  END
>  <MODEL>
3

>  <REMARK>
 VINA RESULT:      -9.8      4.772      8.559
  Name = 
  3 active torsions:
  status: ('A' for Active; 'I' for Inactive)
    1  A    between atoms: C_17  and  C_28
    2  A    between atoms: C_28  and  C_29
    3  A    between atoms: C_29  and  C_32
                            x       y       z     vdW  Elec       q    Type
                         _______ _______ _______ _____ _____    ______ ____

>  <TORSDO>
F 3

$$$$
=
 OpenBabel11122412123D

 34 41  0  0  1  0  0  0  0  0999 V2000
  188.9620  177.2940  137.6670 C   0  0  1  0  0  3  0  0  0  0  0  0
  187.2790  178.2150  139.1440 C   0  0  0  0  0  2  0  0  0  0  0  0
  194.7420  174.5190  136.1370 C   0  0  2  0  0  3  0  0  0  0  0  0
  190.7390  176.2250  136.2730 C   0  0  0  0  0  0  0  0  0  0  0  0
  192.7650  175.2320  137.3240 C   0  0  1  0  0  3  0  0  0  0  0  0
  195.1340  174.4960  138.2220 C   0  0  0  0  0  2  0  0  0  0  0  0
  195.8230  173.9040  136.9930 C   0  0  0  0  0  2  0  0  0  0  0  0
  193.8540  176.2790  134.5940 C   0  0  0  0  0  2  0  0  0  0  0  0
  189.3540  177.7500  139.9040 C   0  0  2  0  0  3  0  0  0  0  0  0
  189.8100  176.4520  142.6890 C   0  0  0  0  0  2  0  0  0  0  0  0
  192.1830  175.6030  138.7050 C   0  0  0  0  0  2  0  0  0  0  0  0
  192.6400  175.6240  134.9030 O   0  0  0  0  0  0  0  0  0  0  0  0
  190.5510  176.7880  139.9880 C   0  0  1  0  0  3  0  0  0  0  0  0
  187.2610  178.5950  140.6220 C   0  0  0  0  0  2  0  0  0  0  0  0
  192.2280  176.1150  136.1650 C   0  0  1  0  0  3  0  0  0  0  0  0
  195.0920  175.4300  134.9720 C   0  0  0  0  0  2  0  0  0  0  0  0
  188.4810  177.0870  142.2340 C   0  0  2  0  0  3  0  0  0  0  0  0
  190.1450  176.3050  137.6570 C   0  0  1  0  0  3  0  0  0  0  0  0
  194.2760  175.3460  137.3030 C   0  0  1  0  0  3  0  0  0  0  0  0
  191.1730  176.6740  138.6530 N   0  0  2  0  0  0  0  0  0  0  0  0
  188.4760  176.4980  135.3860 C   0  0  0  0  0  3  0  0  0  0  0  0
  191.0240  177.3570  142.4630 C   0  0  0  0  0  2  0  0  0  0  0  0
  189.9310  176.2850  135.2030 C   0  0  0  0  0  3  0  0  0  0  0  0
  191.5740  177.2680  141.0320 C   0  0  0  0  0  2  0  0  0  0  0  0
  188.6250  178.1910  141.1670 C   0  0  1  0  0  3  0  0  0  0  0  0
  187.9980  176.9270  136.5630 C   0  0  0  0  0  3  0  0  0  0  0  0
  188.3490  177.2420  138.9900 N   0  0  2  0  0  0  0  0  0  0  0  0
  187.7540  177.6400  143.4520 C   0  0  0  0  0  2  0  0  0  0  0  0
  188.1280  176.8520  144.6970 C   0  0  0  0  0  2  0  0  0  0  0  0
  187.8990  177.6590  148.2290 C   0  0  0  0  0  2  0  0  0  0  0  0
  189.6530  177.3490  146.6100 C   0  0  0  0  0  2  0  0  0  0  0  0
  188.4200  177.7950  145.8500 C   0  0  0  0  0  3  0  0  0  0  0  0
  189.3990  177.7570  148.0410 C   0  0  0  0  0  2  0  0  0  0  0  0
  187.2790  177.7640  146.8480 C   0  0  0  0  0  2  0  0  0  0  0  0
  1 26  1  6  0  0  0
  1 27  1  0  0  0  0
  2 14  1  0  0  0  0
  3 16  1  6  0  0  0
  3  7  1  0  0  0  0
  3 19  1  0  0  0  0
  4 18  1  0  0  0  0
  5 11  1  1  0  0  0
  7  6  1  0  0  0  0
  8 12  1  0  0  0  0
  8 16  1  0  0  0  0
  9 13  1  0  0  0  0
  9 25  1  0  0  0  0
 12 15  1  0  0  0  0
 13 24  1  0  0  0  0
 14 25  1  0  0  0  0
 15  4  1  0  0  0  0
 15  5  1  0  0  0  0
 17 10  1  0  0  0  0
 17 28  1  0  0  0  0
 18  1  1  0  0  0  0
 18 20  1  0  0  0  0
 19  5  1  0  0  0  0
 19  6  1  0  0  0  0
 20 11  1  0  0  0  0
 20 13  1  0  0  0  0
 21 26  2  0  0  0  0
 22 10  1  0  0  0  0
 23 21  1  0  0  0  0
 23  4  2  0  0  0  0
 24 22  1  0  0  0  0
 25 17  1  0  0  0  0
 27  2  1  0  0  0  0
 27  9  1  0  0  0  0
 28 29  1  0  0  0  0
 29 32  1  0  0  0  0
 31 33  1  0  0  0  0
 32 31  1  0  0  0  0
 32 34  1  0  0  0  0
 33 30  1  0  0  0  0
 34 30  1  0  0  0  0
M  END
>  <MODEL>
4

>  <REMARK>
 VINA RESULT:      -9.6      6.104      8.961
  Name = 
  3 active torsions:
  status: ('A' for Active; 'I' for Inactive)
    1  A    between atoms: C_17  and  C_28
    2  A    between atoms: C_28  and  C_29
    3  A    between atoms: C_29  and  C_32
                            x       y       z     vdW  Elec       q    Type
                         _______ _______ _______ _____ _____    ______ ____

>  <TORSDO>
F 3

$$$$
=
 OpenBabel11122412123D

 34 41  0  0  1  0  0  0  0  0999 V2000
  187.5620  178.2510  139.8450 C   0  0  1  0  0  3  0  0  0  0  0  0
  185.7110  178.7660  138.3710 C   0  0  0  0  0  2  0  0  0  0  0  0
  190.4730  177.0230  145.6290 C   0  0  2  0  0  3  0  0  0  0  0  0
  189.3580  177.6220  141.4640 C   0  0  0  0  0  0  0  0  0  0  0  0
  188.8370  177.2460  143.8690 C   0  0  1  0  0  3  0  0  0  0  0  0
  188.5410  177.2010  146.4910 C   0  0  0  0  0  2  0  0  0  0  0  0
  189.9100  176.7530  147.0050 C   0  0  0  0  0  2  0  0  0  0  0  0
  191.7290  178.4140  143.9700 C   0  0  0  0  0  2  0  0  0  0  0  0
  185.4750  178.8990  140.6130 C   0  0  2  0  0  3  0  0  0  0  0  0
  182.9020  177.8970  142.0370 C   0  0  0  0  0  2  0  0  0  0  0  0
  187.3500  177.5150  143.5490 C   0  0  0  0  0  2  0  0  0  0  0  0
  191.1510  177.4780  143.0810 O   0  0  0  0  0  0  0  0  0  0  0  0
  185.6950  178.2890  142.0080 C   0  0  1  0  0  3  0  0  0  0  0  0
  184.2650  179.1970  138.5990 C   0  0  0  0  0  2  0  0  0  0  0  0
  189.8190  177.9020  142.8610 C   0  0  1  0  0  3  0  0  0  0  0  0
  191.6710  177.9380  145.4430 C   0  0  0  0  0  2  0  0  0  0  0  0
  183.0160  178.1390  140.5180 C   0  0  2  0  0  3  0  0  0  0  0  0
  187.8710  177.6080  141.2110 C   0  0  1  0  0  3  0  0  0  0  0  0
  189.2140  177.7520  145.2470 C   0  0  1  0  0  3  0  0  0  0  0  0
  187.1420  178.2810  142.3080 N   0  0  2  0  0  0  0  0  0  0  0  0
  189.6750  177.2500  139.0680 C   0  0  0  0  0  3  0  0  0  0  0  0
  183.3940  179.0780  142.8790 C   0  0  0  0  0  2  0  0  0  0  0  0
  190.2040  177.4180  140.4430 C   0  0  0  0  0  3  0  0  0  0  0  0
  184.9160  179.0690  143.0810 C   0  0  0  0  0  2  0  0  0  0  0  0
  184.0680  179.1910  140.1100 C   0  0  1  0  0  3  0  0  0  0  0  0
  188.4110  177.5940  138.7830 C   0  0  0  0  0  3  0  0  0  0  0  0
  186.1330  178.1020  139.5950 N   0  0  2  0  0  0  0  0  0  0  0  0
  181.6510  178.5380  139.9760 C   0  0  0  0  0  2  0  0  0  0  0  0
  180.5550  177.7280  140.6490 C   0  0  0  0  0  2  0  0  0  0  0  0
  179.4680  179.9530  143.3040 C   0  0  0  0  0  2  0  0  0  0  0  0
  179.8220  180.0980  140.9280 C   0  0  0  0  0  2  0  0  0  0  0  0
  179.5050  178.6510  141.2420 C   0  0  0  0  0  3  0  0  0  0  0  0
  179.3090  180.8770  142.1150 C   0  0  0  0  0  2  0  0  0  0  0  0
  179.5100  178.5380  142.7540 C   0  0  0  0  0  2  0  0  0  0  0  0
  1 26  1  6  0  0  0
  1 18  1  0  0  0  0
  2 14  1  0  0  0  0
  2 27  1  0  0  0  0
  3 16  1  1  0  0  0
  3  7  1  0  0  0  0
  4 15  1  0  0  0  0
  5 11  1  6  0  0  0
  5 19  1  0  0  0  0
  6  7  1  0  0  0  0
  8 16  1  0  0  0  0
  9 13  1  0  0  0  0
 10 22  1  0  0  0  0
 12  8  1  0  0  0  0
 13 20  1  0  0  0  0
 13 24  1  0  0  0  0
 14 25  1  0  0  0  0
 15 12  1  0  0  0  0
 15  5  1  0  0  0  0
 17 10  1  0  0  0  0
 18  4  1  0  0  0  0
 18 20  1  0  0  0  0
 19  3  1  0  0  0  0
 19  6  1  0  0  0  0
 20 11  1  0  0  0  0
 21 23  1  0  0  0  0
 22 24  1  0  0  0  0
 23  4  2  0  0  0  0
 25 17  1  0  0  0  0
 25  9  1  0  0  0  0
 26 21  2  0  0  0  0
 27  1  1  0  0  0  0
 27  9  1  0  0  0  0
 28 17  1  0  0  0  0
 28 29  1  0  0  0  0
 29 32  1  0  0  0  0
 31 32  1  0  0  0  0
 31 33  1  0  0  0  0
 32 34  1  0  0  0  0
 33 30  1  0  0  0  0
 34 30  1  0  0  0  0
M  END
>  <MODEL>
5

>  <REMARK>
 VINA RESULT:      -9.6      2.753      9.198
  Name = 
  3 active torsions:
  status: ('A' for Active; 'I' for Inactive)
    1  A    between atoms: C_17  and  C_28
    2  A    between atoms: C_28  and  C_29
    3  A    between atoms: C_29  and  C_32
                            x       y       z     vdW  Elec       q    Type
                         _______ _______ _______ _____ _____    ______ ____

>  <TORSDO>
F 3

$$$$
=
 OpenBabel11122412123D

 34 41  0  0  1  0  0  0  0  0999 V2000
  190.9220  177.1460  143.6330 C   0  0  1  0  0  3  0  0  0  0  0  0
  192.5680  176.8780  141.8770 C   0  0  0  0  0  2  0  0  0  0  0  0
  184.9200  178.2600  146.1180 C   0  0  2  0  0  3  0  0  0  0  0  0
  189.1020  177.3440  145.3340 C   0  0  0  0  0  0  0  0  0  0  0  0
  186.7330  177.6630  144.6420 C   0  0  1  0  0  3  0  0  0  0  0  0
  184.2550  178.3940  144.1080 C   0  0  0  0  0  2  0  0  0  0  0  0
  183.5590  178.3500  145.4680 C   0  0  0  0  0  2  0  0  0  0  0  0
  186.8780  179.2400  147.3300 C   0  0  0  0  0  2  0  0  0  0  0  0
  190.5030  177.6670  141.4140 C   0  0  2  0  0  3  0  0  0  0  0  0
  188.9560  176.7730  138.8740 C   0  0  0  0  0  2  0  0  0  0  0  0
  187.1920  177.5830  143.1700 C   0  0  0  0  0  2  0  0  0  0  0  0
  187.4430  177.9950  146.9690 O   0  0  0  0  0  0  0  0  0  0  0  0
  188.9780  177.5670  141.5800 C   0  0  1  0  0  3  0  0  0  0  0  0
  192.5600  177.1280  140.3720 C   0  0  0  0  0  2  0  0  0  0  0  0
  187.8510  178.1150  145.6190 C   0  0  1  0  0  3  0  0  0  0  0  0
  185.3350  179.2460  147.1970 C   0  0  0  0  0  2  0  0  0  0  0  0
  190.4630  176.5420  139.0980 C   0  0  2  0  0  3  0  0  0  0  0  0
  189.4070  177.0190  143.8930 C   0  0  1  0  0  3  0  0  0  0  0  0
  185.5760  178.6260  144.8160 C   0  0  1  0  0  3  0  0  0  0  0  0
  188.6230  177.8790  142.9800 N   0  0  2  0  0  0  0  0  0  0  0  0
  191.2320  176.2950  145.9240 C   0  0  0  0  0  3  0  0  0  0  0  0
  188.5190  178.2180  139.1220 C   0  0  0  0  0  2  0  0  0  0  0  0
  189.9620  176.9650  146.2920 C   0  0  0  0  0  3  0  0  0  0  0  0
  188.2530  178.5120  140.6060 C   0  0  0  0  0  2  0  0  0  0  0  0
  191.1400  177.5640  140.0340 C   0  0  1  0  0  3  0  0  0  0  0  0
  191.6720  176.3300  144.6580 C   0  0  0  0  0  3  0  0  0  0  0  0
  191.1770  176.7050  142.2650 N   0  0  2  0  0  0  0  0  0  0  0  0
  191.1700  176.5330  137.7490 C   0  0  0  0  0  2  0  0  0  0  0  0
  191.5850  175.1190  137.3770 C   0  0  0  0  0  2  0  0  0  0  0  0
  188.3050  174.1490  136.1600 C   0  0  0  0  0  2  0  0  0  0  0  0
  190.0160  175.7200  135.5300 C   0  0  0  0  0  2  0  0  0  0  0  0
  190.7030  174.5860  136.2630 C   0  0  0  0  0  3  0  0  0  0  0  0
  188.6860  175.1550  135.0940 C   0  0  0  0  0  2  0  0  0  0  0  0
  189.5940  173.7290  136.8430 C   0  0  0  0  0  2  0  0  0  0  0  0
  1 18  1  0  0  0  0
  1 26  1  1  0  0  0
  2 27  1  0  0  0  0
  3  7  1  6  0  0  0
  3 16  1  0  0  0  0
  4 15  1  0  0  0  0
  4 23  2  0  0  0  0
  5 11  1  6  0  0  0
  5 19  1  0  0  0  0
  5 15  1  0  0  0  0
  6 19  1  0  0  0  0
  6  7  1  0  0  0  0
  9 13  1  0  0  0  0
  9 27  1  0  0  0  0
 10 17  1  0  0  0  0
 10 22  1  0  0  0  0
 12  8  1  0  0  0  0
 13 20  1  0  0  0  0
 14  2  1  0  0  0  0
 15 12  1  0  0  0  0
 16  8  1  0  0  0  0
 17 25  1  0  0  0  0
 18  4  1  0  0  0  0
 19  3  1  0  0  0  0
 20 11  1  0  0  0  0
 20 18  1  0  0  0  0
 21 23  1  0  0  0  0
 22 24  1  0  0  0  0
 24 13  1  0  0  0  0
 25 14  1  0  0  0  0
 25  9  1  0  0  0  0
 26 21  2  0  0  0  0
 27  1  1  0  0  0  0
 28 17  1  0  0  0  0
 29 28  1  0  0  0  0
 30 34  1  0  0  0  0
 31 32  1  0  0  0  0
 32 34  1  0  0  0  0
 32 29  1  0  0  0  0
 33 31  1  0  0  0  0
 33 30  1  0  0  0  0
M  END
>  <MODEL>
6

>  <REMARK>
 VINA RESULT:      -9.5      4.360      8.668
  Name = 
  3 active torsions:
  status: ('A' for Active; 'I' for Inactive)
    1  A    between atoms: C_17  and  C_28
    2  A    between atoms: C_28  and  C_29
    3  A    between atoms: C_29  and  C_32
                            x       y       z     vdW  Elec       q    Type
                         _______ _______ _______ _____ _____    ______ ____

>  <TORSDO>
F 3

$$$$
=
 OpenBabel11122412123D

 34 41  0  0  1  0  0  0  0  0999 V2000
  187.2950  178.2520  140.0920 C   0  0  1  0  0  3  0  0  0  0  0  0
  185.3950  178.8390  138.7100 C   0  0  0  0  0  2  0  0  0  0  0  0
  190.4490  176.9700  145.7360 C   0  0  2  0  0  3  0  0  0  0  0  0
  189.1420  177.5580  141.6260 C   0  0  0  0  0  0  0  0  0  0  0  0
  188.7340  177.2490  144.0620 C   0  0  1  0  0  3  0  0  0  0  0  0
  188.5790  177.2620  146.6960 C   0  0  0  0  0  2  0  0  0  0  0  0
  189.9490  176.7530  147.1450 C   0  0  0  0  0  2  0  0  0  0  0  0
  191.6830  178.2660  143.9860 C   0  0  0  0  0  2  0  0  0  0  0  0
  185.2880  179.0210  140.9590 C   0  0  2  0  0  3  0  0  0  0  0  0
  182.7490  178.1780  142.5370 C   0  0  0  0  0  2  0  0  0  0  0  0
  187.2470  177.5900  143.8170 C   0  0  0  0  0  2  0  0  0  0  0  0
  191.0110  177.3470  143.1470 O   0  0  0  0  0  0  0  0  0  0  0  0
  185.5530  178.4230  142.3520 C   0  0  1  0  0  3  0  0  0  0  0  0
  183.9880  179.3480  139.0070 C   0  0  0  0  0  2  0  0  0  0  0  0
  189.6920  177.8360  142.9910 C   0  0  1  0  0  3  0  0  0  0  0  0
  191.6810  177.8180  145.4690 C   0  0  0  0  0  2  0  0  0  0  0  0
  182.7920  178.3880  141.0100 C   0  0  2  0  0  3  0  0  0  0  0  0
  187.6450  177.6170  141.4530 C   0  0  1  0  0  3  0  0  0  0  0  0
  189.2110  177.7570  145.4080 C   0  0  1  0  0  3  0  0  0  0  0  0
  187.0120  178.3450  142.5730 N   0  0  2  0  0  0  0  0  0  0  0  0
  189.3090  177.1300  139.2240 C   0  0  0  0  0  3  0  0  0  0  0  0
  183.3460  179.3440  143.3280 C   0  0  0  0  0  2  0  0  0  0  0  0
  189.9190  177.2930  140.5650 C   0  0  0  0  0  3  0  0  0  0  0  0
  184.8740  179.2600  143.4500 C   0  0  0  0  0  2  0  0  0  0  0  0
  183.8730  179.3780  140.5260 C   0  0  1  0  0  3  0  0  0  0  0  0
  188.0510  177.5340  139.0000 C   0  0  0  0  0  3  0  0  0  0  0  0
  185.8490  178.1740  139.9230 N   0  0  2  0  0  0  0  0  0  0  0  0
  181.4220  178.8490  140.5340 C   0  0  0  0  0  2  0  0  0  0  0  0
  180.3550  177.8430  140.9340 C   0  0  0  0  0  2  0  0  0  0  0  0
  181.1510  176.5420  137.6390 C   0  0  0  0  0  2  0  0  0  0  0  0
  180.7990  175.6410  139.8420 C   0  0  0  0  0  2  0  0  0  0  0  0
  180.0180  176.9370  139.7630 C   0  0  0  0  0  3  0  0  0  0  0  0
  181.0410  175.2420  138.4070 C   0  0  0  0  0  2  0  0  0  0  0  0
  180.4310  177.5960  138.4620 C   0  0  0  0  0  2  0  0  0  0  0  0
  1 26  1  6  0  0  0
  1 18  1  0  0  0  0
  2 14  1  0  0  0  0
  2 27  1  0  0  0  0
  3 16  1  1  0  0  0
  3  7  1  0  0  0  0
  4 15  1  0  0  0  0
  5 11  1  6  0  0  0
  5 19  1  0  0  0  0
  6  7  1  0  0  0  0
  8 16  1  0  0  0  0
  9 13  1  0  0  0  0
 10 22  1  0  0  0  0
 12  8  1  0  0  0  0
 13 20  1  0  0  0  0
 13 24  1  0  0  0  0
 14 25  1  0  0  0  0
 15 12  1  0  0  0  0
 15  5  1  0  0  0  0
 17 10  1  0  0  0  0
 18  4  1  0  0  0  0
 18 20  1  0  0  0  0
 19  3  1  0  0  0  0
 19  6  1  0  0  0  0
 20 11  1  0  0  0  0
 21 23  1  0  0  0  0
 22 24  1  0  0  0  0
 23  4  2  0  0  0  0
 25  9  1  0  0  0  0
 25 17  1  0  0  0  0
 26 21  2  0  0  0  0
 27  1  1  0  0  0  0
 27  9  1  0  0  0  0
 28 29  1  0  0  0  0
 28 17  1  0  0  0  0
 30 33  1  0  0  0  0
 30 34  1  0  0  0  0
 32 31  1  0  0  0  0
 32 29  1  0  0  0  0
 33 31  1  0  0  0  0
 34 32  1  0  0  0  0
M  END
>  <MODEL>
7

>  <REMARK>
 VINA RESULT:      -9.3      2.755      9.184
  Name = 
  3 active torsions:
  status: ('A' for Active; 'I' for Inactive)
    1  A    between atoms: C_17  and  C_28
    2  A    between atoms: C_28  and  C_29
    3  A    between atoms: C_29  and  C_32
                            x       y       z     vdW  Elec       q    Type
                         _______ _______ _______ _____ _____    ______ ____

>  <TORSDO>
F 3

$$$$
=
 OpenBabel11122412123D

 34 41  0  0  1  0  0  0  0  0999 V2000
  189.8870  177.4410  143.2790 C   0  0  1  0  0  3  0  0  0  0  0  0
  192.0550  177.0470  142.2770 C   0  0  0  0  0  2  0  0  0  0  0  0
  183.4030  178.6280  143.2950 C   0  0  2  0  0  3  0  0  0  0  0  0
  187.5760  177.7560  144.1770 C   0  0  0  0  0  0  0  0  0  0  0  0
  185.6230  177.9380  142.6450 C   0  0  1  0  0  3  0  0  0  0  0  0
  183.5150  178.5440  141.1780 C   0  0  0  0  0  2  0  0  0  0  0  0
  182.3730  178.6150  142.1910 C   0  0  0  0  0  2  0  0  0  0  0  0
  184.7980  179.7780  145.0260 C   0  0  0  0  0  2  0  0  0  0  0  0
  190.3080  177.7280  141.0190 C   0  0  2  0  0  3  0  0  0  0  0  0
  189.7790  176.5430  138.1970 C   0  0  0  0  0  2  0  0  0  0  0  0
  186.5840  177.7250  141.4550 C   0  0  0  0  0  2  0  0  0  0  0  0
  185.4430  178.5190  145.0240 O   0  0  0  0  0  0  0  0  0  0  0  0
  188.8250  177.6020  140.6310 C   0  0  1  0  0  3  0  0  0  0  0  0
  192.5970  177.1460  140.8540 C   0  0  0  0  0  2  0  0  0  0  0  0
  186.3140  178.5170  143.9090 C   0  0  1  0  0  3  0  0  0  0  0  0
  183.4090  179.7270  144.3440 C   0  0  0  0  0  2  0  0  0  0  0  0
  191.1000  176.3780  138.9740 C   0  0  2  0  0  3  0  0  0  0  0  0
  188.3800  177.2990  142.9850 C   0  0  1  0  0  3  0  0  0  0  0  0
  184.4910  178.8820  142.2890 C   0  0  1  0  0  3  0  0  0  0  0  0
  187.9890  178.0410  141.7680 N   0  0  2  0  0  0  0  0  0  0  0  0
  189.3350  176.8310  145.6020 C   0  0  0  0  0  3  0  0  0  0  0  0
  189.2960  177.9940  138.1210 C   0  0  0  0  0  2  0  0  0  0  0  0
  188.0250  177.4990  145.4150 C   0  0  0  0  0  3  0  0  0  0  0  0
  188.5120  178.4250  139.3690 C   0  0  0  0  0  2  0  0  0  0  0  0
  191.4010  177.5070  139.9820 C   0  0  1  0  0  3  0  0  0  0  0  0
  190.2060  176.7530  144.5850 C   0  0  0  0  0  3  0  0  0  0  0  0
  190.6160  176.8750  142.1500 N   0  0  2  0  0  0  0  0  0  0  0  0
  192.2470  176.2550  137.9810 C   0  0  0  0  0  2  0  0  0  0  0  0
  192.4260  174.8070  137.5530 C   0  0  0  0  0  2  0  0  0  0  0  0
  195.6900  173.7250  138.7190 C   0  0  0  0  0  2  0  0  0  0  0  0
  194.1090  173.0360  137.0400 C   0  0  0  0  0  2  0  0  0  0  0  0
  193.8890  174.5160  137.2750 C   0  0  0  0  0  3  0  0  0  0  0  0
  195.4940  172.7560  137.5710 C   0  0  0  0  0  2  0  0  0  0  0  0
  194.7290  174.8780  138.4840 C   0  0  0  0  0  2  0  0  0  0  0  0
  1 26  1  1  0  0  0
  3  7  1  6  0  0  0
  3 16  1  0  0  0  0
  4 23  2  0  0  0  0
  5 11  1  6  0  0  0
  5 15  1  0  0  0  0
  6  7  1  0  0  0  0
  6 19  1  0  0  0  0
  9 27  1  0  0  0  0
 10 17  1  0  0  0  0
 11 20  1  0  0  0  0
 12  8  1  0  0  0  0
 13  9  1  0  0  0  0
 13 20  1  0  0  0  0
 14  2  1  0  0  0  0
 15  4  1  0  0  0  0
 15 12  1  0  0  0  0
 16  8  1  0  0  0  0
 17 25  1  0  0  0  0
 18  1  1  0  0  0  0
 18  4  1  0  0  0  0
 19  5  1  0  0  0  0
 19  3  1  0  0  0  0
 20 18  1  0  0  0  0
 22 10  1  0  0  0  0
 22 24  1  0  0  0  0
 23 21  1  0  0  0  0
 24 13  1  0  0  0  0
 25 14  1  0  0  0  0
 25  9  1  0  0  0  0
 26 21  2  0  0  0  0
 27  2  1  0  0  0  0
 27  1  1  0  0  0  0
 28 17  1  0  0  0  0
 29 28  1  0  0  0  0
 31 32  1  0  0  0  0
 31 33  1  0  0  0  0
 32 29  1  0  0  0  0
 32 34  1  0  0  0  0
 33 30  1  0  0  0  0
 34 30  1  0  0  0  0
M  END
>  <MODEL>
8

>  <REMARK>
 VINA RESULT:      -9.0      4.741      7.401
  Name = 
  3 active torsions:
  status: ('A' for Active; 'I' for Inactive)
    1  A    between atoms: C_17  and  C_28
    2  A    between atoms: C_28  and  C_29
    3  A    between atoms: C_29  and  C_32
                            x       y       z     vdW  Elec       q    Type
                         _______ _______ _______ _____ _____    ______ ____

>  <TORSDO>
F 3

$$$$
=
 OpenBabel11122412123D

 34 41  0  0  1  0  0  0  0  0999 V2000
  188.7850  177.7300  139.1500 C   0  0  1  0  0  3  0  0  0  0  0  0
  187.4100  178.0770  137.1870 C   0  0  0  0  0  2  0  0  0  0  0  0
  190.0200  177.2190  145.6040 C   0  0  2  0  0  3  0  0  0  0  0  0
  190.0630  177.2910  141.2520 C   0  0  0  0  0  0  0  0  0  0  0  0
  188.9140  177.2360  143.4590 C   0  0  1  0  0  3  0  0  0  0  0  0
  187.9410  177.5340  145.8940 C   0  0  0  0  0  2  0  0  0  0  0  0
  189.1050  177.1380  146.8030 C   0  0  0  0  0  2  0  0  0  0  0  0
  191.7310  178.3670  144.1820 C   0  0  0  0  0  2  0  0  0  0  0  0
  186.6020  178.5010  139.2530 C   0  0  2  0  0  3  0  0  0  0  0  0
  183.7020  177.7280  140.0530 C   0  0  0  0  0  2  0  0  0  0  0  0
  187.5770  177.4820  142.7260 C   0  0  0  0  0  2  0  0  0  0  0  0
  191.3620  177.3320  143.2920 O   0  0  0  0  0  0  0  0  0  0  0  0
  186.4210  178.0740  140.7190 C   0  0  1  0  0  3  0  0  0  0  0  0
  185.9770  178.5540  136.9700 C   0  0  0  0  0  2  0  0  0  0  0  0
  190.1550  177.7430  142.6770 C   0  0  1  0  0  3  0  0  0  0  0  0
  191.2670  178.0860  145.6330 C   0  0  0  0  0  2  0  0  0  0  0  0
  184.2200  177.7700  138.6020 C   0  0  2  0  0  3  0  0  0  0  0  0
  188.6950  177.2650  140.6170 C   0  0  1  0  0  3  0  0  0  0  0  0
  188.9410  177.9100  144.8170 C   0  0  1  0  0  3  0  0  0  0  0  0
  187.7370  178.0840  141.3910 N   0  0  2  0  0  0  0  0  0  0  0  0
  190.9770  176.6080  139.0890 C   0  0  0  0  0  3  0  0  0  0  0  0
  184.0120  179.0000  140.8460 C   0  0  0  0  0  2  0  0  0  0  0  0
  191.1350  176.9450  140.5240 C   0  0  0  0  0  3  0  0  0  0  0  0
  185.4270  178.9970  141.4450 C   0  0  0  0  0  2  0  0  0  0  0  0
  185.3910  178.7460  138.3630 C   0  0  1  0  0  3  0  0  0  0  0  0
  189.8490  176.9300  138.4390 C   0  0  0  0  0  3  0  0  0  0  0  0
  187.4650  177.5710  138.5500 N   0  0  2  0  0  0  0  0  0  0  0  0
  183.0650  178.1140  137.6720 C   0  0  0  0  0  2  0  0  0  0  0  0
  181.7420  177.6930  138.2920 C   0  0  0  0  0  2  0  0  0  0  0  0
  180.3120  180.4730  140.1390 C   0  0  0  0  0  2  0  0  0  0  0  0
  181.5230  180.1720  138.0810 C   0  0  0  0  0  2  0  0  0  0  0  0
  180.7910  178.8750  138.3590 C   0  0  0  0  0  3  0  0  0  0  0  0
  180.8100  181.2100  138.9130 C   0  0  0  0  0  2  0  0  0  0  0  0
  180.2240  179.0050  139.7590 C   0  0  0  0  0  2  0  0  0  0  0  0
  1 26  1  6  0  0  0
  1 18  1  0  0  0  0
  2 27  1  0  0  0  0
  3 16  1  1  0  0  0
  3  7  1  0  0  0  0
  4 15  1  0  0  0  0
  5 11  1  6  0  0  0
  5 19  1  0  0  0  0
  6  7  1  0  0  0  0
  8 16  1  0  0  0  0
  9 13  1  0  0  0  0
 10 22  1  0  0  0  0
 12  8  1  0  0  0  0
 13 20  1  0  0  0  0
 13 24  1  0  0  0  0
 14  2  1  0  0  0  0
 14 25  1  0  0  0  0
 15 12  1  0  0  0  0
 15  5  1  0  0  0  0
 17 10  1  0  0  0  0
 18  4  1  0  0  0  0
 18 20  1  0  0  0  0
 19  3  1  0  0  0  0
 19  6  1  0  0  0  0
 20 11  1  0  0  0  0
 21 23  1  0  0  0  0
 22 24  1  0  0  0  0
 23  4  2  0  0  0  0
 25 17  1  0  0  0  0
 25  9  1  0  0  0  0
 26 21  2  0  0  0  0
 27  1  1  0  0  0  0
 27  9  1  0  0  0  0
 28 29  1  0  0  0  0
 28 17  1  0  0  0  0
 29 32  1  0  0  0  0
 31 32  1  0  0  0  0
 31 33  1  0  0  0  0
 32 34  1  0  0  0  0
 33 30  1  0  0  0  0
 34 30  1  0  0  0  0
M  END
>  <MODEL>
9

>  <REMARK>
 VINA RESULT:      -8.9      3.134      9.600
  Name = 
  3 active torsions:
  status: ('A' for Active; 'I' for Inactive)
    1  A    between atoms: C_17  and  C_28
    2  A    between atoms: C_28  and  C_29
    3  A    between atoms: C_29  and  C_32
                            x       y       z     vdW  Elec       q    Type
                         _______ _______ _______ _____ _____    ______ ____

>  <TORSDO>
F 3

$$$$
