=
 OpenBabel11122410233D

 30 35  0  0  1  0  0  0  0  0999 V2000
  189.5510  177.0050  143.6010 C   0  0  1  0  0  3  0  0  0  0  0  0
  191.4020  175.9600  145.0140 C   0  0  0  0  0  0  0  0  0  0  0  0
  187.5820  178.3410  147.2490 C   0  0  0  0  0  2  0  0  0  0  0  0
  188.2660  177.8650  143.6490 C   0  0  1  0  0  3  0  0  0  0  0  0
  190.4760  177.6280  142.5630 C   0  0  0  0  0  2  0  0  0  0  0  0
  187.8370  177.8600  140.0030 O   0  0  0  0  0  0  0  0  0  0  0  0
  185.0660  177.7510  143.0170 C   0  0  1  0  0  3  0  0  0  0  0  0
  188.3680  177.7700  141.1440 C   0  0  0  0  0  0  0  0  0  0  0  0
  184.9970  178.0420  144.5170 C   0  0  2  0  0  3  0  0  0  0  0  0
  186.3140  178.6890  146.5660 C   0  0  0  0  0  0  0  0  0  0  0  0
  189.8090  177.7290  141.2640 N   0  0  0  0  0  0  0  0  0  0  0  0
  187.4860  177.5960  142.3610 C   0  0  2  0  0  3  0  0  0  0  0  0
  191.9940  175.6920  146.2530 C   0  0  0  0  0  3  0  0  0  0  0  0
  184.0020  179.1800  144.6460 C   0  0  0  0  0  2  0  0  0  0  0  0
  183.7310  178.2000  142.4420 C   0  0  0  0  0  2  0  0  0  0  0  0
  191.9700  175.4200  143.8670 O   0  0  0  0  0  1  0  0  0  0  0  0
  188.4460  178.0860  146.0370 C   0  0  2  0  0  3  0  0  0  0  0  0
  191.4330  176.1960  147.4290 C   0  0  0  0  0  3  0  0  0  0  0  0
  190.2440  176.7590  144.9410 C   0  0  0  0  0  0  0  0  0  0  0  0
  187.5110  177.5870  144.9500 C   0  0  1  0  0  3  0  0  0  0  0  0
  185.3350  179.1920  147.1770 O   0  0  0  0  0  0  0  0  0  0  0  0
  186.2780  178.3430  145.1750 N   0  0  0  0  0  0  0  0  0  0  0  0
  182.9940  178.9420  143.5440 C   0  0  0  0  0  2  0  0  0  0  0  0
  186.3860  179.9100  142.5030 C   0  0  0  0  0  1  0  0  0  0  0  0
  190.2690  176.9620  147.3750 C   0  0  0  0  0  3  0  0  0  0  0  0
  189.6570  177.2190  146.1430 C   0  0  0  0  0  0  0  0  0  0  0  0
  186.2050  178.4150  142.2430 C   0  0  2  0  0  3  0  0  0  0  0  0
  190.6560  177.8180  140.0820 C   0  0  0  0  0  2  0  0  0  0  0  0
  190.4400  176.4190  138.0520 C   0  0  0  0  0  1  0  0  0  0  0  0
  190.8900  176.4370  139.4980 C   0  0  0  0  0  2  0  0  0  0  0  0
  1  5  1  6  0  0  0
  1  4  1  0  0  0  0
  1 19  1  0  0  0  0
  2 13  1  0  0  0  0
  4 20  1  0  0  0  0
  6  8  2  0  0  0  0
  7  9  1  0  0  0  0
  8 11  1  0  0  0  0
  8 12  1  0  0  0  0
  9 14  1  0  0  0  0
  9 22  1  0  0  0  0
 10 21  2  0  0  0  0
 10  3  1  0  0  0  0
 11  5  1  0  0  0  0
 12  4  1  0  0  0  0
 13 18  2  0  0  0  0
 15  7  1  0  0  0  0
 15 23  1  0  0  0  0
 16  2  1  0  0  0  0
 17 26  1  0  0  0  0
 17  3  1  0  0  0  0
 19  2  2  0  0  0  0
 19 26  1  0  0  0  0
 20 22  1  0  0  0  0
 20 17  1  0  0  0  0
 22 10  1  0  0  0  0
 23 14  1  0  0  0  0
 25 18  1  0  0  0  0
 26 25  2  0  0  0  0
 27 12  1  0  0  0  0
 27 24  1  0  0  0  0
 27  7  1  0  0  0  0
 28 11  1  0  0  0  0
 29 30  1  0  0  0  0
 30 28  1  0  0  0  0
M  END
>  <MODEL>
1

>  <REMARK>
 VINA RESULT:     -10.1      0.000      0.000
  Name = 
  2 active torsions:
  status: ('A' for Active; 'I' for Inactive)
    1  A    between atoms: N_11  and  C_28
    2  A    between atoms: C_28  and  C_30
                            x       y       z     vdW  Elec       q    Type
                         _______ _______ _______ _____ _____    ______ ____

>  <TORSDO>
F 2

$$$$
=
 OpenBabel11122410233D

 30 35  0  0  1  0  0  0  0  0999 V2000
  186.6200  177.9310  142.0500 C   0  0  1  0  0  3  0  0  0  0  0  0
  187.7570  177.4410  144.2830 C   0  0  0  0  0  0  0  0  0  0  0  0
  183.0350  179.1580  144.1960 C   0  0  0  0  0  2  0  0  0  0  0  0
  185.3430  178.4990  141.3880 C   0  0  1  0  0  3  0  0  0  0  0  0
  187.8140  178.6350  141.4150 C   0  0  0  0  0  2  0  0  0  0  0  0
  186.6260  178.0580  137.9760 O   0  0  0  0  0  0  0  0  0  0  0  0
  182.8370  177.6490  139.4770 C   0  0  1  0  0  3  0  0  0  0  0  0
  186.5870  178.1910  139.2300 C   0  0  0  0  0  0  0  0  0  0  0  0
  182.0510  178.0600  140.7230 C   0  0  2  0  0  3  0  0  0  0  0  0
  182.1810  179.1630  142.9850 C   0  0  0  0  0  0  0  0  0  0  0  0
  187.8040  178.4680  139.9610 N   0  0  0  0  0  0  0  0  0  0  0  0
  185.2840  177.9500  139.9610 C   0  0  2  0  0  3  0  0  0  0  0  0
  187.7530  177.4230  145.6810 C   0  0  0  0  0  3  0  0  0  0  0  0
  180.9520  178.9680  140.2060 C   0  0  0  0  0  2  0  0  0  0  0  0
  181.8600  177.7490  138.3150 C   0  0  0  0  0  2  0  0  0  0  0  0
  188.8570  176.9280  143.6070 O   0  0  0  0  0  1  0  0  0  0  0  0
  184.3830  178.9780  143.5390 C   0  0  2  0  0  3  0  0  0  0  0  0
  186.6510  177.9060  146.3910 C   0  0  0  0  0  3  0  0  0  0  0  0
  186.6550  177.9650  143.5780 C   0  0  0  0  0  0  0  0  0  0  0  0
  184.1290  178.1920  142.2660 C   0  0  1  0  0  3  0  0  0  0  0  0
  180.9680  179.5030  143.0170 O   0  0  0  0  0  0  0  0  0  0  0  0
  182.8330  178.6870  141.8000 N   0  0  0  0  0  0  0  0  0  0  0  0
  180.6030  178.4190  138.8420 C   0  0  0  0  0  2  0  0  0  0  0  0
  183.9130  179.9810  139.1990 C   0  0  0  0  0  1  0  0  0  0  0  0
  185.5400  178.3990  145.7070 C   0  0  0  0  0  3  0  0  0  0  0  0
  185.5260  178.4030  144.3070 C   0  0  0  0  0  0  0  0  0  0  0  0
  184.0920  178.4630  139.1600 C   0  0  2  0  0  3  0  0  0  0  0  0
  189.0720  178.6230  139.2620 C   0  0  0  0  0  2  0  0  0  0  0  0
  190.9390  177.2680  140.1590 C   0  0  0  0  0  1  0  0  0  0  0  0
  189.7900  177.2880  139.1740 C   0  0  0  0  0  2  0  0  0  0  0  0
  1  5  1  6  0  0  0
  1 19  1  0  0  0  0
  2 13  1  0  0  0  0
  4  1  1  0  0  0  0
  4 20  1  0  0  0  0
  6  8  2  0  0  0  0
  7  9  1  0  0  0  0
  8 11  1  0  0  0  0
  8 12  1  0  0  0  0
  9 22  1  0  0  0  0
 10 21  2  0  0  0  0
 10  3  1  0  0  0  0
 11  5  1  0  0  0  0
 12  4  1  0  0  0  0
 13 18  2  0  0  0  0
 14  9  1  0  0  0  0
 15 23  1  0  0  0  0
 15  7  1  0  0  0  0
 16  2  1  0  0  0  0
 17  3  1  0  0  0  0
 17 26  1  0  0  0  0
 19  2  2  0  0  0  0
 19 26  1  0  0  0  0
 20 17  1  0  0  0  0
 22 20  1  0  0  0  0
 22 10  1  0  0  0  0
 23 14  1  0  0  0  0
 25 18  1  0  0  0  0
 26 25  2  0  0  0  0
 27 24  1  0  0  0  0
 27  7  1  0  0  0  0
 27 12  1  0  0  0  0
 28 11  1  0  0  0  0
 30 28  1  0  0  0  0
 30 29  1  0  0  0  0
M  END
>  <MODEL>
2

>  <REMARK>
 VINA RESULT:      -9.1      2.661      4.205
  Name = 
  2 active torsions:
  status: ('A' for Active; 'I' for Inactive)
    1  A    between atoms: N_11  and  C_28
    2  A    between atoms: C_28  and  C_30
                            x       y       z     vdW  Elec       q    Type
                         _______ _______ _______ _____ _____    ______ ____

>  <TORSDO>
F 2

$$$$
=
 OpenBabel11122410233D

 30 35  0  0  1  0  0  0  0  0999 V2000
  187.1260  178.2430  140.5710 C   0  0  1  0  0  3  0  0  0  0  0  0
  184.8200  179.0800  139.8630 C   0  0  0  0  0  0  0  0  0  0  0  0
  185.6350  177.7030  144.6270 C   0  0  0  0  0  2  0  0  0  0  0  0
  187.9410  177.6440  141.7410 C   0  0  1  0  0  3  0  0  0  0  0  0
  187.3500  177.3490  139.3570 C   0  0  0  0  0  2  0  0  0  0  0  0
  191.0130  177.3240  139.7550 O   0  0  0  0  0  0  0  0  0  0  0  0
  190.4730  178.2750  143.7030 C   0  0  1  0  0  3  0  0  0  0  0  0
  189.7940  177.4410  140.0620 C   0  0  0  0  0  0  0  0  0  0  0  0
  189.3760  178.1690  144.7640 C   0  0  2  0  0  3  0  0  0  0  0  0
  186.9830  177.5220  145.2150 C   0  0  0  0  0  0  0  0  0  0  0  0
  188.7770  177.2300  139.0550 N   0  0  0  0  0  0  0  0  0  0  0  0
  189.4200  177.9080  141.4520 C   0  0  2  0  0  3  0  0  0  0  0  0
  183.4820  179.3690  140.1480 C   0  0  0  0  0  3  0  0  0  0  0  0
  189.9530  177.2550  145.8280 C   0  0  0  0  0  2  0  0  0  0  0  0
  191.7840  178.0170  144.4300 C   0  0  0  0  0  2  0  0  0  0  0  0
  185.3180  179.3750  138.6000 O   0  0  0  0  0  1  0  0  0  0  0  0
  186.0010  177.6600  143.1630 C   0  0  2  0  0  3  0  0  0  0  0  0
  182.9560  179.1100  141.4160 C   0  0  0  0  0  3  0  0  0  0  0  0
  185.6450  178.5040  140.8490 C   0  0  0  0  0  0  0  0  0  0  0  0
  187.4180  178.1990  143.0680 C   0  0  1  0  0  3  0  0  0  0  0  0
  187.1580  177.2770  146.4380 O   0  0  0  0  0  0  0  0  0  0  0  0
  188.0610  177.7120  144.2890 N   0  0  0  0  0  0  0  0  0  0  0  0
  191.4360  177.5500  145.8330 C   0  0  0  0  0  2  0  0  0  0  0  0
  190.0940  175.8660  142.8520 C   0  0  0  0  0  1  0  0  0  0  0  0
  183.7700  178.5700  142.4120 C   0  0  0  0  0  3  0  0  0  0  0  0
  185.1160  178.2950  142.1440 C   0  0  0  0  0  0  0  0  0  0  0  0
  190.3590  177.3310  142.5050 C   0  0  2  0  0  3  0  0  0  0  0  0
  189.1440  176.8560  137.6950 C   0  0  0  0  0  2  0  0  0  0  0  0
  189.0300  179.2470  137.0660 C   0  0  0  0  0  1  0  0  0  0  0  0
  188.5690  177.8510  136.7040 C   0  0  0  0  0  2  0  0  0  0  0  0
  1  5  1  6  0  0  0
  1 19  1  0  0  0  0
  1  4  1  0  0  0  0
  2 13  2  0  0  0  0
  2 19  1  0  0  0  0
  3 10  1  0  0  0  0
  4 20  1  0  0  0  0
  6  8  2  0  0  0  0
  7 15  1  0  0  0  0
  7  9  1  0  0  0  0
  8 12  1  0  0  0  0
  9 14  1  0  0  0  0
 10 21  2  0  0  0  0
 11  5  1  0  0  0  0
 11  8  1  0  0  0  0
 12  4  1  0  0  0  0
 12 27  1  0  0  0  0
 13 18  1  0  0  0  0
 14 23  1  0  0  0  0
 15 23  1  0  0  0  0
 16  2  1  0  0  0  0
 17  3  1  0  0  0  0
 18 25  2  0  0  0  0
 19 26  2  0  0  0  0
 20 17  1  0  0  0  0
 20 22  1  0  0  0  0
 22  9  1  0  0  0  0
 22 10  1  0  0  0  0
 26 25  1  0  0  0  0
 26 17  1  0  0  0  0
 27 24  1  0  0  0  0
 27  7  1  0  0  0  0
 28 11  1  0  0  0  0
 30 29  1  0  0  0  0
 30 28  1  0  0  0  0
M  END
>  <MODEL>
3

>  <REMARK>
 VINA RESULT:      -8.7      1.877      5.733
  Name = 
  2 active torsions:
  status: ('A' for Active; 'I' for Inactive)
    1  A    between atoms: N_11  and  C_28
    2  A    between atoms: C_28  and  C_30
                            x       y       z     vdW  Elec       q    Type
                         _______ _______ _______ _____ _____    ______ ____

>  <TORSDO>
F 2

$$$$
=
 OpenBabel11122410233D

 30 35  0  0  1  0  0  0  0  0999 V2000
  188.0350  177.6940  142.4980 C   0  0  1  0  0  3  0  0  0  0  0  0
  186.8170  177.7340  144.7420 C   0  0  0  0  0  0  0  0  0  0  0  0
  184.4630  179.2840  140.5810 C   0  0  0  0  0  2  0  0  0  0  0  0
  187.9280  178.0730  141.0030 C   0  0  1  0  0  3  0  0  0  0  0  0
  189.3470  178.2670  143.0200 C   0  0  0  0  0  2  0  0  0  0  0  0
  191.3240  176.9190  140.2190 O   0  0  0  0  0  0  0  0  0  0  0  0
  187.8760  176.7670  138.0120 C   0  0  1  0  0  3  0  0  0  0  0  0
  190.3190  177.3240  140.8650 C   0  0  0  0  0  0  0  0  0  0  0  0
  186.4960  177.4250  138.0030 C   0  0  2  0  0  3  0  0  0  0  0  0
  184.9430  179.0020  139.2080 C   0  0  0  0  0  0  0  0  0  0  0  0
  190.4790  177.7830  142.2270 N   0  0  0  0  0  0  0  0  0  0  0  0
  188.9440  177.2220  140.2400 C   0  0  2  0  0  3  0  0  0  0  0  0
  185.6910  178.0260  145.5180 C   0  0  0  0  0  3  0  0  0  0  0  0
  186.4310  178.1710  136.6840 C   0  0  0  0  0  2  0  0  0  0  0  0
  188.2630  176.5850  136.5520 C   0  0  0  0  0  2  0  0  0  0  0  0
  187.9040  177.1100  145.3400 O   0  0  0  0  0  1  0  0  0  0  0  0
  185.7330  178.9940  141.3450 C   0  0  2  0  0  3  0  0  0  0  0  0
  184.5710  178.6290  144.9420 C   0  0  0  0  0  3  0  0  0  0  0  0
  186.8370  178.0660  143.3720 C   0  0  0  0  0  0  0  0  0  0  0  0
  186.4750  177.9400  140.5420 C   0  0  1  0  0  3  0  0  0  0  0  0
  184.2790  179.3140  138.1840 O   0  0  0  0  0  0  0  0  0  0  0  0
  186.1870  178.2910  139.1510 N   0  0  0  0  0  0  0  0  0  0  0  0
  187.2310  177.3260  135.7190 C   0  0  0  0  0  2  0  0  0  0  0  0
  189.1090  179.0030  138.4000 C   0  0  0  0  0  1  0  0  0  0  0  0
  184.5640  178.9340  143.5810 C   0  0  0  0  0  3  0  0  0  0  0  0
  185.6770  178.6280  142.7900 C   0  0  0  0  0  0  0  0  0  0  0  0
  188.9880  177.5180  138.7450 C   0  0  2  0  0  3  0  0  0  0  0  0
  191.7930  177.8080  142.8540 C   0  0  0  0  0  2  0  0  0  0  0  0
  191.6800  176.7530  145.0890 C   0  0  0  0  0  1  0  0  0  0  0  0
  191.6610  178.0700  144.3430 C   0  0  0  0  0  2  0  0  0  0  0  0
  1  5  1  1  0  0  0
  1 19  1  0  0  0  0
  2 16  1  0  0  0  0
  2 13  1  0  0  0  0
  3 17  1  0  0  0  0
  4  1  1  0  0  0  0
  6  8  2  0  0  0  0
  7 27  1  0  0  0  0
  8 11  1  0  0  0  0
  9  7  1  0  0  0  0
  9 22  1  0  0  0  0
 10  3  1  0  0  0  0
 11 28  1  0  0  0  0
 11  5  1  0  0  0  0
 12  8  1  0  0  0  0
 12  4  1  0  0  0  0
 14  9  1  0  0  0  0
 15  7  1  0  0  0  0
 17 26  1  0  0  0  0
 18 13  2  0  0  0  0
 19  2  2  0  0  0  0
 20  4  1  0  0  0  0
 20 17  1  0  0  0  0
 21 10  2  0  0  0  0
 22 10  1  0  0  0  0
 22 20  1  0  0  0  0
 23 15  1  0  0  0  0
 23 14  1  0  0  0  0
 24 27  1  0  0  0  0
 25 18  1  0  0  0  0
 26 19  1  0  0  0  0
 26 25  2  0  0  0  0
 27 12  1  0  0  0  0
 28 30  1  0  0  0  0
 30 29  1  0  0  0  0
M  END
>  <MODEL>
4

>  <REMARK>
 VINA RESULT:      -8.5      2.442      5.735
  Name = 
  2 active torsions:
  status: ('A' for Active; 'I' for Inactive)
    1  A    between atoms: N_11  and  C_28
    2  A    between atoms: C_28  and  C_30
                            x       y       z     vdW  Elec       q    Type
                         _______ _______ _______ _____ _____    ______ ____

>  <TORSDO>
F 2

$$$$
=
 OpenBabel11122410233D

 30 35  0  0  1  0  0  0  0  0999 V2000
  185.4520  178.6950  142.3700 C   0  0  1  0  0  3  0  0  0  0  0  0
  184.8550  179.0070  144.8330 C   0  0  0  0  0  0  0  0  0  0  0  0
  188.9420  176.3760  143.5580 C   0  0  0  0  0  2  0  0  0  0  0  0
  186.4270  177.9980  141.3920 C   0  0  1  0  0  3  0  0  0  0  0  0
  184.0360  178.3840  141.9010 C   0  0  0  0  0  2  0  0  0  0  0  0
  184.7390  179.3020  138.4030 O   0  0  0  0  0  0  0  0  0  0  0  0
  188.7100  178.6280  139.1460 C   0  0  1  0  0  3  0  0  0  0  0  0
  184.9530  178.9420  139.5940 C   0  0  0  0  0  0  0  0  0  0  0  0
  189.5700  177.8440  140.1390 C   0  0  2  0  0  3  0  0  0  0  0  0
  189.5570  176.4080  142.2100 C   0  0  0  0  0  0  0  0  0  0  0  0
  183.8440  178.8020  140.5110 N   0  0  0  0  0  0  0  0  0  0  0  0
  186.3790  178.7680  140.0710 C   0  0  2  0  0  3  0  0  0  0  0  0
  185.0950  178.7730  146.1900 C   0  0  0  0  0  3  0  0  0  0  0  0
  190.3170  176.8330  139.2920 C   0  0  0  0  0  2  0  0  0  0  0  0
  189.4270  178.5340  137.8080 C   0  0  0  0  0  2  0  0  0  0  0  0
  183.8140  179.8520  144.4700 O   0  0  0  0  0  1  0  0  0  0  0  0
  187.5880  176.9500  143.2190 C   0  0  2  0  0  3  0  0  0  0  0  0
  186.1500  177.9490  146.5900 C   0  0  0  0  0  3  0  0  0  0  0  0
  185.6650  178.3960  143.8540 C   0  0  0  0  0  0  0  0  0  0  0  0
  187.8080  177.8800  142.0390 C   0  0  1  0  0  3  0  0  0  0  0  0
  190.6400  175.8200  141.9480 O   0  0  0  0  0  0  0  0  0  0  0  0
  188.8510  177.2150  141.2580 N   0  0  0  0  0  0  0  0  0  0  0  0
  190.5560  177.5310  137.9730 C   0  0  0  0  0  2  0  0  0  0  0  0
  187.0740  176.6640  138.7780 C   0  0  0  0  0  1  0  0  0  0  0  0
  186.9800  177.3640  145.6340 C   0  0  0  0  0  3  0  0  0  0  0  0
  186.7610  177.6070  144.2730 C   0  0  0  0  0  0  0  0  0  0  0  0
  187.2620  178.1670  138.9830 C   0  0  2  0  0  3  0  0  0  0  0  0
  182.4780  179.0460  140.0700 C   0  0  0  0  0  2  0  0  0  0  0  0
  181.9370  176.7070  139.4680 C   0  0  0  0  0  1  0  0  0  0  0  0
  181.5980  177.8520  140.3980 C   0  0  0  0  0  2  0  0  0  0  0  0
  1  5  1  6  0  0  0
  1 19  1  0  0  0  0
  2 13  1  0  0  0  0
  4 20  1  0  0  0  0
  4  1  1  0  0  0  0
  6  8  2  0  0  0  0
  7  9  1  0  0  0  0
  8 12  1  0  0  0  0
  8 11  1  0  0  0  0
  9 22  1  0  0  0  0
 10  3  1  0  0  0  0
 11  5  1  0  0  0  0
 12  4  1  0  0  0  0
 13 18  2  0  0  0  0
 14  9  1  0  0  0  0
 15 23  1  0  0  0  0
 15  7  1  0  0  0  0
 16  2  1  0  0  0  0
 17  3  1  0  0  0  0
 17 26  1  0  0  0  0
 19 26  1  0  0  0  0
 19  2  2  0  0  0  0
 20 17  1  0  0  0  0
 21 10  2  0  0  0  0
 22 20  1  0  0  0  0
 22 10  1  0  0  0  0
 23 14  1  0  0  0  0
 24 27  1  0  0  0  0
 25 18  1  0  0  0  0
 26 25  2  0  0  0  0
 27  7  1  0  0  0  0
 27 12  1  0  0  0  0
 28 30  1  0  0  0  0
 28 11  1  0  0  0  0
 29 30  1  0  0  0  0
M  END
>  <MODEL>
5

>  <REMARK>
 VINA RESULT:      -8.4      2.257      6.176
  Name = 
  2 active torsions:
  status: ('A' for Active; 'I' for Inactive)
    1  A    between atoms: N_11  and  C_28
    2  A    between atoms: C_28  and  C_30
                            x       y       z     vdW  Elec       q    Type
                         _______ _______ _______ _____ _____    ______ ____

>  <TORSDO>
F 2

$$$$
=
 OpenBabel11122410233D

 30 35  0  0  1  0  0  0  0  0999 V2000
  188.6290  177.3700  143.6870 C   0  0  1  0  0  3  0  0  0  0  0  0
  190.0730  176.6140  145.6520 C   0  0  0  0  0  0  0  0  0  0  0  0
  185.5880  178.7190  146.4970 C   0  0  0  0  0  2  0  0  0  0  0  0
  187.3190  178.0930  143.2940 C   0  0  1  0  0  3  0  0  0  0  0  0
  189.7610  178.0200  142.9000 C   0  0  0  0  0  2  0  0  0  0  0  0
  187.9640  177.8150  139.6900 O   0  0  0  0  0  0  0  0  0  0  0  0
  184.4590  177.6050  141.7990 C   0  0  1  0  0  3  0  0  0  0  0  0
  188.1490  177.8520  140.9380 C   0  0  0  0  0  0  0  0  0  0  0  0
  183.9360  177.9810  143.1860 C   0  0  2  0  0  3  0  0  0  0  0  0
  184.5470  178.8890  145.4560 C   0  0  0  0  0  0  0  0  0  0  0  0
  189.4910  177.9700  141.4620 N   0  0  0  0  0  0  0  0  0  0  0  0
  186.9700  177.6640  141.8680 C   0  0  2  0  0  3  0  0  0  0  0  0
  190.3010  176.4880  147.0260 C   0  0  0  0  0  3  0  0  0  0  0  0
  182.8560  179.0140  142.9270 C   0  0  0  0  0  2  0  0  0  0  0  0
  183.3150  177.8760  140.8330 C   0  0  0  0  0  2  0  0  0  0  0  0
  190.9900  176.0670  144.7640 O   0  0  0  0  0  1  0  0  0  0  0  0
  186.7830  178.4800  145.6060 C   0  0  2  0  0  3  0  0  0  0  0  0
  189.3850  177.0040  147.9460 C   0  0  0  0  0  3  0  0  0  0  0  0
  188.9230  177.2820  145.1840 C   0  0  0  0  0  0  0  0  0  0  0  0
  186.2460  177.8190  144.3490 C   0  0  1  0  0  3  0  0  0  0  0  0
  183.3950  179.3250  145.7190 O   0  0  0  0  0  0  0  0  0  0  0  0
  184.9430  178.4540  144.1480 N   0  0  0  0  0  0  0  0  0  0  0  0
  182.2330  178.6050  141.6120 C   0  0  0  0  0  2  0  0  0  0  0  0
  185.6890  179.8540  141.4860 C   0  0  0  0  0  1  0  0  0  0  0  0
  188.2270  177.6380  147.4980 C   0  0  0  0  0  3  0  0  0  0  0  0
  187.9790  177.7530  146.1250 C   0  0  0  0  0  0  0  0  0  0  0  0
  185.7140  178.3350  141.3200 C   0  0  2  0  0  3  0  0  0  0  0  0
  190.6340  178.0730  140.5640 C   0  0  0  0  0  2  0  0  0  0  0  0
  192.9440  177.2910  140.1430 C   0  0  0  0  0  1  0  0  0  0  0  0
  191.8520  177.4120  141.1840 C   0  0  0  0  0  2  0  0  0  0  0  0
  1  5  1  6  0  0  0
  1 19  1  0  0  0  0
  2 13  1  0  0  0  0
  4  1  1  0  0  0  0
  4 20  1  0  0  0  0
  6  8  2  0  0  0  0
  7  9  1  0  0  0  0
  8 11  1  0  0  0  0
  8 12  1  0  0  0  0
  9 22  1  0  0  0  0
 10 21  2  0  0  0  0
 10  3  1  0  0  0  0
 11  5  1  0  0  0  0
 12  4  1  0  0  0  0
 13 18  2  0  0  0  0
 14  9  1  0  0  0  0
 15 23  1  0  0  0  0
 15  7  1  0  0  0  0
 16  2  1  0  0  0  0
 17 26  1  0  0  0  0
 17  3  1  0  0  0  0
 19  2  2  0  0  0  0
 19 26  1  0  0  0  0
 20 17  1  0  0  0  0
 22 20  1  0  0  0  0
 22 10  1  0  0  0  0
 23 14  1  0  0  0  0
 25 18  1  0  0  0  0
 26 25  2  0  0  0  0
 27 24  1  0  0  0  0
 27  7  1  0  0  0  0
 27 12  1  0  0  0  0
 28 30  1  0  0  0  0
 28 11  1  0  0  0  0
 29 30  1  0  0  0  0
M  END
>  <MODEL>
6

>  <REMARK>
 VINA RESULT:      -7.8      1.270      1.693
  Name = 
  2 active torsions:
  status: ('A' for Active; 'I' for Inactive)
    1  A    between atoms: N_11  and  C_28
    2  A    between atoms: C_28  and  C_30
                            x       y       z     vdW  Elec       q    Type
                         _______ _______ _______ _____ _____    ______ ____

>  <TORSDO>
F 2

$$$$
=
 OpenBabel11122410233D

 30 35  0  0  1  0  0  0  0  0999 V2000
  186.0950  178.1860  141.4870 C   0  0  1  0  0  3  0  0  0  0  0  0
  184.7890  178.2450  139.2940 C   0  0  0  0  0  0  0  0  0  0  0  0
  189.8000  177.8780  139.2180 C   0  0  0  0  0  2  0  0  0  0  0  0
  187.5130  178.1690  142.1050 C   0  0  1  0  0  3  0  0  0  0  0  0
  185.3150  179.3050  142.1670 C   0  0  0  0  0  2  0  0  0  0  0  0
  186.2690  178.2290  145.5590 O   0  0  0  0  0  0  0  0  0  0  0  0
  189.5090  176.3330  143.9210 C   0  0  1  0  0  3  0  0  0  0  0  0
  186.3200  178.3570  144.3040 C   0  0  0  0  0  0  0  0  0  0  0  0
  190.3550  176.4090  142.6490 C   0  0  2  0  0  3  0  0  0  0  0  0
  190.6180  177.5090  140.3970 C   0  0  0  0  0  0  0  0  0  0  0  0
  185.3020  179.1220  143.6190 N   0  0  0  0  0  0  0  0  0  0  0  0
  187.3870  177.6180  143.5260 C   0  0  2  0  0  3  0  0  0  0  0  0
  184.7420  178.2540  137.8970 C   0  0  0  0  0  3  0  0  0  0  0  0
  191.7460  176.7770  143.1300 C   0  0  0  0  0  2  0  0  0  0  0  0
  190.4770  176.0020  145.0470 C   0  0  0  0  0  2  0  0  0  0  0  0
  183.5970  178.2160  140.0070 O   0  0  0  0  0  1  0  0  0  0  0  0
  188.5180  178.2530  139.9220 C   0  0  2  0  0  3  0  0  0  0  0  0
  185.9220  178.2570  137.1490 C   0  0  0  0  0  3  0  0  0  0  0  0
  186.0300  178.2600  139.9610 C   0  0  0  0  0  0  0  0  0  0  0  0
  188.4670  177.4080  141.1820 C   0  0  1  0  0  3  0  0  0  0  0  0
  191.8620  177.3240  140.3240 O   0  0  0  0  0  0  0  0  0  0  0  0
  189.8660  177.3200  141.6030 N   0  0  0  0  0  0  0  0  0  0  0  0
  191.8810  176.1080  144.4780 C   0  0  0  0  0  2  0  0  0  0  0  0
  189.4920  178.8950  144.2470 C   0  0  0  0  0  1  0  0  0  0  0  0
  187.1580  178.2390  137.7950 C   0  0  0  0  0  3  0  0  0  0  0  0
  187.2160  178.2100  139.1930 C   0  0  0  0  0  0  0  0  0  0  0  0
  188.7080  177.5830  144.2860 C   0  0  2  0  0  3  0  0  0  0  0  0
  184.2300  179.7690  144.3640 C   0  0  0  0  0  2  0  0  0  0  0  0
  182.0130  179.0030  143.5770 C   0  0  0  0  0  1  0  0  0  0  0  0
  183.0960  178.7900  144.6120 C   0  0  0  0  0  2  0  0  0  0  0  0
  1  4  1  0  0  0  0
  1  5  1  1  0  0  0
  2 19  1  0  0  0  0
  2 16  1  0  0  0  0
  3 17  1  0  0  0  0
  3 10  1  0  0  0  0
  4 12  1  0  0  0  0
  5 11  1  0  0  0  0
  7 27  1  0  0  0  0
  7 15  1  0  0  0  0
  8  6  2  0  0  0  0
  9 14  1  0  0  0  0
  9  7  1  0  0  0  0
 10 22  1  0  0  0  0
 11  8  1  0  0  0  0
 11 28  1  0  0  0  0
 12 27  1  0  0  0  0
 12  8  1  0  0  0  0
 13  2  2  0  0  0  0
 14 23  1  0  0  0  0
 17 20  1  0  0  0  0
 18 25  2  0  0  0  0
 18 13  1  0  0  0  0
 19  1  1  0  0  0  0
 20 22  1  0  0  0  0
 20  4  1  0  0  0  0
 21 10  2  0  0  0  0
 22  9  1  0  0  0  0
 23 15  1  0  0  0  0
 24 27  1  0  0  0  0
 25 26  1  0  0  0  0
 26 17  1  0  0  0  0
 26 19  2  0  0  0  0
 28 30  1  0  0  0  0
 29 30  1  0  0  0  0
M  END
>  <MODEL>
7

>  <REMARK>
 VINA RESULT:      -7.7      2.170      7.380
  Name = 
  2 active torsions:
  status: ('A' for Active; 'I' for Inactive)
    1  A    between atoms: N_11  and  C_28
    2  A    between atoms: C_28  and  C_30
                            x       y       z     vdW  Elec       q    Type
                         _______ _______ _______ _____ _____    ______ ____

>  <TORSDO>
F 2

$$$$
=
 OpenBabel11122410233D

 30 35  0  0  1  0  0  0  0  0999 V2000
  188.1970  177.4190  143.8310 C   0  0  1  0  0  3  0  0  0  0  0  0
  186.1550  177.7490  145.3270 C   0  0  0  0  0  0  0  0  0  0  0  0
  185.9310  179.0030  140.4650 C   0  0  0  0  0  2  0  0  0  0  0  0
  188.7670  177.6530  142.4120 C   0  0  1  0  0  3  0  0  0  0  0  0
  189.2130  177.9690  144.8250 C   0  0  0  0  0  2  0  0  0  0  0  0
  192.0550  176.2430  143.2390 O   0  0  0  0  0  0  0  0  0  0  0  0
  189.8630  176.0590  139.7830 C   0  0  1  0  0  3  0  0  0  0  0  0
  190.9120  176.7650  143.3630 C   0  0  0  0  0  0  0  0  0  0  0  0
  188.6820  176.7880  139.1380 C   0  0  2  0  0  3  0  0  0  0  0  0
  186.9180  178.5590  139.4530 C   0  0  0  0  0  0  0  0  0  0  0  0
  190.5240  177.3480  144.6280 N   0  0  0  0  0  0  0  0  0  0  0  0
  189.9270  176.6750  142.2180 C   0  0  2  0  0  3  0  0  0  0  0  0
  184.8390  178.1780  145.5250 C   0  0  0  0  0  3  0  0  0  0  0  0
  189.2490  177.4010  137.8730 C   0  0  0  0  0  2  0  0  0  0  0  0
  190.8110  175.7130  138.6450 C   0  0  0  0  0  2  0  0  0  0  0  0
  186.8260  177.1300  146.3740 O   0  0  0  0  0  1  0  0  0  0  0  0
  186.7270  178.7210  141.7170 C   0  0  2  0  0  3  0  0  0  0  0  0
  184.1270  178.7810  144.4850 C   0  0  0  0  0  3  0  0  0  0  0  0
  186.7820  177.9410  144.0800 C   0  0  0  0  0  0  0  0  0  0  0  0
  187.6390  177.5540  141.3830 C   0  0  1  0  0  3  0  0  0  0  0  0
  186.7800  178.8030  138.2250 O   0  0  0  0  0  0  0  0  0  0  0  0
  187.9980  177.7790  139.9830 N   0  0  0  0  0  0  0  0  0  0  0  0
  190.3010  176.4220  137.4030 C   0  0  0  0  0  2  0  0  0  0  0  0
  191.0150  178.2530  140.5110 C   0  0  0  0  0  1  0  0  0  0  0  0
  184.7230  178.9480  143.2360 C   0  0  0  0  0  3  0  0  0  0  0  0
  186.0330  178.5050  143.0210 C   0  0  0  0  0  0  0  0  0  0  0  0
  190.6250  176.8190  140.8690 C   0  0  2  0  0  3  0  0  0  0  0  0
  191.4470  177.3640  145.7550 C   0  0  0  0  0  2  0  0  0  0  0  0
  192.0700  175.6280  147.4050 C   0  0  0  0  0  1  0  0  0  0  0  0
  190.9320  176.4700  146.8690 C   0  0  0  0  0  2  0  0  0  0  0  0
  1 19  1  0  0  0  0
  1  5  1  1  0  0  0
  2 13  1  0  0  0  0
  2 16  1  0  0  0  0
  3 17  1  0  0  0  0
  4  1  1  0  0  0  0
  6  8  2  0  0  0  0
  7 27  1  0  0  0  0
  8 11  1  0  0  0  0
  9  7  1  0  0  0  0
  9 22  1  0  0  0  0
 10 22  1  0  0  0  0
 10  3  1  0  0  0  0
 11  5  1  0  0  0  0
 11 28  1  0  0  0  0
 12  4  1  0  0  0  0
 12  8  1  0  0  0  0
 14  9  1  0  0  0  0
 15  7  1  0  0  0  0
 17 26  1  0  0  0  0
 18 13  2  0  0  0  0
 19  2  2  0  0  0  0
 20 17  1  0  0  0  0
 20  4  1  0  0  0  0
 21 10  2  0  0  0  0
 22 20  1  0  0  0  0
 23 14  1  0  0  0  0
 23 15  1  0  0  0  0
 24 27  1  0  0  0  0
 25 18  1  0  0  0  0
 26 25  2  0  0  0  0
 26 19  1  0  0  0  0
 27 12  1  0  0  0  0
 28 30  1  0  0  0  0
 30 29  1  0  0  0  0
M  END
>  <MODEL>
8

>  <REMARK>
 VINA RESULT:      -7.7      1.605      6.216
  Name = 
  2 active torsions:
  status: ('A' for Active; 'I' for Inactive)
    1  A    between atoms: N_11  and  C_28
    2  A    between atoms: C_28  and  C_30
                            x       y       z     vdW  Elec       q    Type
                         _______ _______ _______ _____ _____    ______ ____

>  <TORSDO>
F 2

$$$$
=
 OpenBabel11122410233D

 30 35  0  0  1  0  0  0  0  0999 V2000
  187.1060  177.8100  140.6440 C   0  0  1  0  0  3  0  0  0  0  0  0
  188.8230  176.9510  138.9610 C   0  0  0  0  0  0  0  0  0  0  0  0
  190.2340  178.0060  143.6680 C   0  0  0  0  0  2  0  0  0  0  0  0
  186.9150  178.3490  142.0810 C   0  0  1  0  0  3  0  0  0  0  0  0
  186.4340  178.7960  139.6960 C   0  0  0  0  0  2  0  0  0  0  0  0
  183.3130  178.9130  141.6500 O   0  0  0  0  0  0  0  0  0  0  0  0
  185.4470  177.6620  144.9150 C   0  0  1  0  0  3  0  0  0  0  0  0
  184.5350  178.7340  141.3890 C   0  0  0  0  0  0  0  0  0  0  0  0
  186.8990  177.6550  145.3970 C   0  0  2  0  0  3  0  0  0  0  0  0
  189.2870  178.1890  144.7920 C   0  0  0  0  0  0  0  0  0  0  0  0
  185.0260  178.9840  140.0520 N   0  0  0  0  0  0  0  0  0  0  0  0
  185.4440  178.1560  142.4520 C   0  0  2  0  0  3  0  0  0  0  0  0
  190.1320  176.5980  138.6200 C   0  0  0  0  0  3  0  0  0  0  0  0
  186.8960  178.5080  146.6510 C   0  0  0  0  0  2  0  0  0  0  0  0
  184.5980  177.9090  146.1520 C   0  0  0  0  0  2  0  0  0  0  0  0
  187.8100  176.7650  138.0280 O   0  0  0  0  0  1  0  0  0  0  0  0
  189.2740  178.1670  142.5140 C   0  0  2  0  0  3  0  0  0  0  0  0
  191.1690  176.7480  139.5440 C   0  0  0  0  0  3  0  0  0  0  0  0
  188.5420  177.4810  140.2370 C   0  0  0  0  0  0  0  0  0  0  0  0
  187.9260  177.6830  143.0180 C   0  0  1  0  0  3  0  0  0  0  0  0
  189.6730  178.3500  145.9800 O   0  0  0  0  0  0  0  0  0  0  0  0
  187.9040  178.1010  144.4200 N   0  0  0  0  0  0  0  0  0  0  0  0
  185.5460  178.2620  147.2850 C   0  0  0  0  0  2  0  0  0  0  0  0
  185.5670  180.1120  144.1070 C   0  0  0  0  0  1  0  0  0  0  0  0
  190.9010  177.2400  140.8200 C   0  0  0  0  0  3  0  0  0  0  0  0
  189.5910  177.5780  141.1800 C   0  0  0  0  0  0  0  0  0  0  0  0
  185.0890  178.6860  143.8370 C   0  0  2  0  0  3  0  0  0  0  0  0
  184.1320  179.4670  139.0090 C   0  0  0  0  0  2  0  0  0  0  0  0
  182.0770  178.4550  138.0720 C   0  0  0  0  0  1  0  0  0  0  0  0
  183.5760  178.3000  138.2110 C   0  0  0  0  0  2  0  0  0  0  0  0
  1  5  1  6  0  0  0
  1  4  1  0  0  0  0
  2 19  1  0  0  0  0
  3 10  1  0  0  0  0
  4 12  1  0  0  0  0
  4 20  1  0  0  0  0
  5 11  1  0  0  0  0
  7  9  1  0  0  0  0
  7 15  1  0  0  0  0
  8  6  2  0  0  0  0
  8 12  1  0  0  0  0
  9 14  1  0  0  0  0
 10 21  2  0  0  0  0
 11  8  1  0  0  0  0
 12 27  1  0  0  0  0
 13  2  2  0  0  0  0
 13 18  1  0  0  0  0
 14 23  1  0  0  0  0
 15 23  1  0  0  0  0
 16  2  1  0  0  0  0
 17 20  1  0  0  0  0
 17  3  1  0  0  0  0
 18 25  2  0  0  0  0
 19  1  1  0  0  0  0
 19 26  2  0  0  0  0
 20 22  1  0  0  0  0
 22 10  1  0  0  0  0
 22  9  1  0  0  0  0
 25 26  1  0  0  0  0
 26 17  1  0  0  0  0
 27 24  1  0  0  0  0
 27  7  1  0  0  0  0
 28 11  1  0  0  0  0
 29 30  1  0  0  0  0
 30 28  1  0  0  0  0
M  END
>  <MODEL>
9

>  <REMARK>
 VINA RESULT:      -7.4      2.349      4.997
  Name = 
  2 active torsions:
  status: ('A' for Active; 'I' for Inactive)
    1  A    between atoms: N_11  and  C_28
    2  A    between atoms: C_28  and  C_30
                            x       y       z     vdW  Elec       q    Type
                         _______ _______ _______ _____ _____    ______ ____

>  <TORSDO>
F 2

$$$$
