=
 OpenBabel11122412193D

 34 40  0  0  0  0  0  0  0  0999 V2000
  185.2920  178.6100  140.7600 C   0  0  0  0  0  0  0  0  0  0  0  0
  187.4350  178.1780  141.9680 C   0  0  0  0  0  3  0  0  0  0  0  0
  180.1390  176.9070  140.0720 O   0  0  0  0  0  0  0  0  0  0  0  0
  183.0630  179.0710  139.8390 C   0  0  0  0  0  0  0  0  0  0  0  0
  181.1800  179.2890  141.2910 C   0  0  0  0  0  0  0  0  0  0  0  0
  179.1290  178.0350  141.9480 C   0  0  0  0  0  2  0  0  0  0  0  0
  178.9310  177.0920  140.7600 C   0  0  0  0  0  2  0  0  0  0  0  0
  179.6700  178.8070  138.6200 C   0  0  0  0  0  2  0  0  0  0  0  0
  185.5650  178.4260  143.1650 C   0  0  0  0  0  0  0  0  0  0  0  0
  185.5450  178.2420  146.2290 C   0  0  0  0  0  3  0  0  0  0  0  0
  181.9950  179.0760  142.4030 C   0  0  0  0  0  3  0  0  0  0  0  0
  180.9150  179.6680  138.8460 C   0  0  0  0  0  2  0  0  0  0  0  0
  184.1990  178.6470  143.3970 C   0  0  0  0  0  0  0  0  0  0  0  0
  187.7700  178.0430  143.2670 N   0  0  0  0  0  0  0  0  0  0  0  0
  181.7190  179.2980  140.0240 N   0  0  0  0  0  0  0  0  0  0  0  0
  179.9080  177.2970  138.7410 C   0  0  0  0  0  2  0  0  0  0  0  0
  186.6640  178.1040  145.4050 C   0  0  0  0  0  0  0  0  0  0  0  0
  183.9120  178.8550  140.9480 C   0  0  0  0  0  0  0  0  0  0  0  0
  179.7020  179.3930  141.5340 C   0  0  0  0  0  2  0  0  0  0  0  0
  183.3680  178.8630  142.2600 C   0  0  0  0  0  0  0  0  0  0  0  0
  184.8830  178.2240  138.3370 C   0  0  0  0  0  2  0  0  0  0  0  0
  184.2170  178.4880  145.9100 C   0  0  0  0  0  3  0  0  0  0  0  0
  183.6620  179.1270  138.4490 C   0  0  0  0  0  2  0  0  0  0  0  0
  183.6260  178.6660  144.6690 C   0  0  0  0  0  3  0  0  0  0  0  0
  186.6430  178.1920  144.0070 C   0  0  0  0  0  0  0  0  0  0  0  0
  185.9090  178.6240  139.3880 C   0  0  0  0  0  2  0  0  0  0  0  0
  186.0820  178.4120  141.8910 C   0  0  0  0  0  0  0  0  0  0  0  0
  187.9690  177.8430  146.0500 C   0  0  0  0  0  3  0  0  0  0  0  0
  188.8450  176.9430  145.6060 C   0  0  0  0  0  3  0  0  0  0  0  0
  192.2950  176.0080  146.7370 C   0  0  0  0  0  2  0  0  0  0  0  0
  190.3010  177.0730  147.6500 C   0  0  0  0  0  2  0  0  0  0  0  0
  190.0970  176.7250  146.2630 N   0  0  0  0  0  0  0  0  0  0  0  0
  191.7690  176.8060  147.9240 C   0  0  0  0  0  2  0  0  0  0  0  0
  191.2670  176.1520  145.6300 C   0  0  0  0  0  2  0  0  0  0  0  0
  1 18  1  0  0  0  0
  1 27  2  0  0  0  0
  2 14  2  0  0  0  0
  3  7  1  0  0  0  0
  4 15  1  0  0  0  0
  4 18  2  0  0  0  0
  5 19  1  0  0  0  0
  5 11  2  0  0  0  0
  7  6  1  0  0  0  0
  8 16  1  0  0  0  0
  8 12  1  0  0  0  0
  9 13  1  0  0  0  0
  9 25  2  0  0  0  0
 12 15  1  0  0  0  0
 13 24  1  0  0  0  0
 14 25  1  0  0  0  0
 15  5  1  0  0  0  0
 16  3  1  0  0  0  0
 17 28  1  0  0  0  0
 17 10  2  0  0  0  0
 18 20  1  0  0  0  0
 19  6  1  0  0  0  0
 20 11  1  0  0  0  0
 20 13  2  0  0  0  0
 21 23  1  0  0  0  0
 21 26  1  0  0  0  0
 22 10  1  0  0  0  0
 23  4  1  0  0  0  0
 24 22  2  0  0  0  0
 25 17  1  0  0  0  0
 26  1  1  0  0  0  0
 27  2  1  0  0  0  0
 27  9  1  0  0  0  0
 29 28  2  0  0  0  0
 29 32  1  0  0  0  0
 30 33  1  0  0  0  0
 31 33  1  0  0  0  0
 32 31  1  0  0  0  0
 34 32  1  0  0  0  0
 34 30  1  0  0  0  0
M  END
>  <MODEL>
1

>  <REMARK>
 VINA RESULT:      -9.9      0.000      0.000
  Name = 
  2 active torsions:
  status: ('A' for Active; 'I' for Inactive)
    1  A    between atoms: C_17  and  C_28
    2  A    between atoms: C_29  and  N_32
                            x       y       z     vdW  Elec       q    Type
                         _______ _______ _______ _____ _____    ______ ____

>  <TORSDO>
F 2

$$$$
=
 OpenBabel11122412193D

 34 40  0  0  0  0  0  0  0  0999 V2000
  186.8710  178.2450  140.3540 C   0  0  0  0  0  0  0  0  0  0  0  0
  188.9860  177.8010  141.6060 C   0  0  0  0  0  3  0  0  0  0  0  0
  181.7220  176.5730  139.5630 O   0  0  0  0  0  0  0  0  0  0  0  0
  184.6640  178.7180  139.3860 C   0  0  0  0  0  0  0  0  0  0  0  0
  182.7530  178.9500  140.8000 C   0  0  0  0  0  0  0  0  0  0  0  0
  180.6810  177.7100  141.4160 C   0  0  0  0  0  2  0  0  0  0  0  0
  180.5020  176.7660  140.2270 C   0  0  0  0  0  2  0  0  0  0  0  0
  181.2960  178.4720  138.0990 C   0  0  0  0  0  2  0  0  0  0  0  0
  187.0940  178.0630  142.7640 C   0  0  0  0  0  0  0  0  0  0  0  0
  187.0100  177.8850  145.8280 C   0  0  0  0  0  3  0  0  0  0  0  0
  183.5440  178.7340  141.9280 C   0  0  0  0  0  3  0  0  0  0  0  0
  182.5400  179.3260  138.3490 C   0  0  0  0  0  2  0  0  0  0  0  0
  185.7250  178.2930  142.9680 C   0  0  0  0  0  0  0  0  0  0  0  0
  189.2940  177.6670  142.9120 N   0  0  0  0  0  0  0  0  0  0  0  0
  183.3180  178.9540  139.5440 N   0  0  0  0  0  0  0  0  0  0  0  0
  181.5220  176.9620  138.2280 C   0  0  0  0  0  2  0  0  0  0  0  0
  188.1450  177.7380  145.0260 C   0  0  0  0  0  0  0  0  0  0  0  0
  185.4890  178.4980  140.5140 C   0  0  0  0  0  0  0  0  0  0  0  0
  181.2720  179.0640  141.0120 C   0  0  0  0  0  2  0  0  0  0  0  0
  184.9180  178.5120  141.8140 C   0  0  0  0  0  0  0  0  0  0  0  0
  186.5090  177.8560  137.9230 C   0  0  0  0  0  2  0  0  0  0  0  0
  185.6900  178.1390  145.4810 C   0  0  0  0  0  3  0  0  0  0  0  0
  185.2920  178.7670  138.0090 C   0  0  0  0  0  2  0  0  0  0  0  0
  185.1260  178.3180  144.2280 C   0  0  0  0  0  3  0  0  0  0  0  0
  188.1530  177.8240  143.6290 C   0  0  0  0  0  0  0  0  0  0  0  0
  187.5160  178.2520  138.9950 C   0  0  0  0  0  2  0  0  0  0  0  0
  187.6360  178.0440  141.5010 C   0  0  0  0  0  0  0  0  0  0  0  0
  189.4350  177.4710  145.6980 C   0  0  0  0  0  3  0  0  0  0  0  0
  189.5370  176.9760  146.9310 C   0  0  0  0  0  3  0  0  0  0  0  0
  192.7570  176.9690  148.8490 C   0  0  0  0  0  2  0  0  0  0  0  0
  191.6610  175.6480  147.1180 C   0  0  0  0  0  2  0  0  0  0  0  0
  190.8070  176.7340  147.5410 N   0  0  0  0  0  0  0  0  0  0  0  0
  192.8340  175.6570  148.0800 C   0  0  0  0  0  2  0  0  0  0  0  0
  191.3630  177.5220  148.6220 C   0  0  0  0  0  2  0  0  0  0  0  0
  1 18  1  0  0  0  0
  1 27  2  0  0  0  0
  2 14  2  0  0  0  0
  3  7  1  0  0  0  0
  4 15  1  0  0  0  0
  4 18  2  0  0  0  0
  5 19  1  0  0  0  0
  5 11  2  0  0  0  0
  7  6  1  0  0  0  0
  8 16  1  0  0  0  0
  8 12  1  0  0  0  0
  9 13  1  0  0  0  0
  9 25  2  0  0  0  0
 12 15  1  0  0  0  0
 13 24  1  0  0  0  0
 14 25  1  0  0  0  0
 15  5  1  0  0  0  0
 16  3  1  0  0  0  0
 17 28  1  0  0  0  0
 17 10  2  0  0  0  0
 18 20  1  0  0  0  0
 19  6  1  0  0  0  0
 20 11  1  0  0  0  0
 20 13  2  0  0  0  0
 21 23  1  0  0  0  0
 21 26  1  0  0  0  0
 22 10  1  0  0  0  0
 23  4  1  0  0  0  0
 24 22  2  0  0  0  0
 25 17  1  0  0  0  0
 26  1  1  0  0  0  0
 27  2  1  0  0  0  0
 27  9  1  0  0  0  0
 28 29  2  0  0  0  0
 29 32  1  0  0  0  0
 31 32  1  0  0  0  0
 31 33  1  0  0  0  0
 32 34  1  0  0  0  0
 33 30  1  0  0  0  0
 34 30  1  0  0  0  0
M  END
>  <MODEL>
2

>  <REMARK>
 VINA RESULT:      -9.5      1.256      1.753
  Name = 
  2 active torsions:
  status: ('A' for Active; 'I' for Inactive)
    1  A    between atoms: C_17  and  C_28
    2  A    between atoms: C_29  and  N_32
                            x       y       z     vdW  Elec       q    Type
                         _______ _______ _______ _____ _____    ______ ____

>  <TORSDO>
F 2

$$$$
=
 OpenBabel11122412193D

 34 40  0  0  0  0  0  0  0  0999 V2000
  185.1980  178.4090  140.1030 C   0  0  0  0  0  0  0  0  0  0  0  0
  187.2980  178.1510  141.4310 C   0  0  0  0  0  3  0  0  0  0  0  0
  180.1840  176.3920  139.2510 O   0  0  0  0  0  0  0  0  0  0  0  0
  182.9960  178.7030  139.0550 C   0  0  0  0  0  0  0  0  0  0  0  0
  181.0340  178.8800  140.4040 C   0  0  0  0  0  0  0  0  0  0  0  0
  179.0220  177.5440  141.0200 C   0  0  0  0  0  2  0  0  0  0  0  0
  178.9350  176.5400  139.8710 C   0  0  0  0  0  2  0  0  0  0  0  0
  179.6880  178.1950  137.6890 C   0  0  0  0  0  2  0  0  0  0  0  0
  185.3590  178.3480  142.5240 C   0  0  0  0  0  0  0  0  0  0  0  0
  185.1940  178.3010  145.5890 C   0  0  0  0  0  3  0  0  0  0  0  0
  181.8020  178.7630  141.5620 C   0  0  0  0  0  3  0  0  0  0  0  0
  180.8720  179.1340  137.9340 C   0  0  0  0  0  2  0  0  0  0  0  0
  183.9730  178.5030  142.6800 C   0  0  0  0  0  0  0  0  0  0  0  0
  187.5730  178.0940  142.7500 N   0  0  0  0  0  0  0  0  0  0  0  0
  181.6340  178.8630  139.1650 N   0  0  0  0  0  0  0  0  0  0  0  0
  180.0010  176.7090  137.8940 C   0  0  0  0  0  2  0  0  0  0  0  0
  186.3590  178.1880  144.8270 C   0  0  0  0  0  0  0  0  0  0  0  0
  183.7990  178.5840  140.2130 C   0  0  0  0  0  0  0  0  0  0  0  0
  179.5420  178.9130  140.5710 C   0  0  0  0  0  2  0  0  0  0  0  0
  183.1890  178.6210  141.4950 C   0  0  0  0  0  0  0  0  0  0  0  0
  184.9330  177.8920  137.6840 C   0  0  0  0  0  2  0  0  0  0  0  0
  183.8730  178.4580  145.1960 C   0  0  0  0  0  3  0  0  0  0  0  0
  183.6610  178.7300  137.6950 C   0  0  0  0  0  2  0  0  0  0  0  0
  183.3360  178.5460  143.9210 C   0  0  0  0  0  3  0  0  0  0  0  0
  186.4040  178.2120  143.4270 C   0  0  0  0  0  0  0  0  0  0  0  0
  185.8820  178.3960  138.7630 C   0  0  0  0  0  2  0  0  0  0  0  0
  185.9390  178.3060  141.2780 C   0  0  0  0  0  0  0  0  0  0  0  0
  187.6430  178.0300  145.5450 C   0  0  0  0  0  3  0  0  0  0  0  0
  188.4890  177.0240  145.3320 C   0  0  0  0  0  3  0  0  0  0  0  0
  191.3550  177.0390  147.7480 C   0  0  0  0  0  2  0  0  0  0  0  0
  190.9500  176.5200  145.4010 C   0  0  0  0  0  2  0  0  0  0  0  0
  189.7200  176.9120  146.0500 N   0  0  0  0  0  0  0  0  0  0  0  0
  191.9750  176.4000  146.5120 C   0  0  0  0  0  2  0  0  0  0  0  0
  189.8690  177.1670  147.4690 C   0  0  0  0  0  2  0  0  0  0  0  0
  1 18  1  0  0  0  0
  1 27  2  0  0  0  0
  2 14  2  0  0  0  0
  3  7  1  0  0  0  0
  4 15  1  0  0  0  0
  4 18  2  0  0  0  0
  5 19  1  0  0  0  0
  5 11  2  0  0  0  0
  7  6  1  0  0  0  0
  8 16  1  0  0  0  0
  8 12  1  0  0  0  0
  9 13  1  0  0  0  0
  9 25  2  0  0  0  0
 12 15  1  0  0  0  0
 13 24  1  0  0  0  0
 14 25  1  0  0  0  0
 15  5  1  0  0  0  0
 16  3  1  0  0  0  0
 17 28  1  0  0  0  0
 17 10  2  0  0  0  0
 18 20  1  0  0  0  0
 19  6  1  0  0  0  0
 20 11  1  0  0  0  0
 20 13  2  0  0  0  0
 21 23  1  0  0  0  0
 21 26  1  0  0  0  0
 22 10  1  0  0  0  0
 23  4  1  0  0  0  0
 24 22  2  0  0  0  0
 25 17  1  0  0  0  0
 26  1  1  0  0  0  0
 27  2  1  0  0  0  0
 27  9  1  0  0  0  0
 29 28  2  0  0  0  0
 29 32  1  0  0  0  0
 31 32  1  0  0  0  0
 31 33  1  0  0  0  0
 32 34  1  0  0  0  0
 33 30  1  0  0  0  0
 34 30  1  0  0  0  0
M  END
>  <MODEL>
3

>  <REMARK>
 VINA RESULT:      -9.2      0.771      1.052
  Name = 
  2 active torsions:
  status: ('A' for Active; 'I' for Inactive)
    1  A    between atoms: C_17  and  C_28
    2  A    between atoms: C_29  and  N_32
                            x       y       z     vdW  Elec       q    Type
                         _______ _______ _______ _____ _____    ______ ____

>  <TORSDO>
F 2

$$$$
=
 OpenBabel11122412193D

 34 40  0  0  0  0  0  0  0  0999 V2000
  182.4320  178.6400  143.3690 C   0  0  0  0  0  0  0  0  0  0  0  0
  184.2080  178.2920  145.0900 C   0  0  0  0  0  3  0  0  0  0  0  0
  180.7990  181.8170  139.2260 O   0  0  0  0  0  0  0  0  0  0  0  0
  180.8990  178.9510  141.4750 C   0  0  0  0  0  0  0  0  0  0  0  0
  181.7500  179.1090  139.2500 C   0  0  0  0  0  0  0  0  0  0  0  0
  182.0940  180.8100  137.4610 C   0  0  0  0  0  2  0  0  0  0  0  0
  181.1050  181.9050  137.8600 C   0  0  0  0  0  2  0  0  0  0  0  0
  178.9310  180.3210  138.7710 C   0  0  0  0  0  2  0  0  0  0  0  0
  184.8140  178.4470  142.9460 C   0  0  0  0  0  0  0  0  0  0  0  0
  187.7460  178.2590  142.0540 C   0  0  0  0  0  3  0  0  0  0  0  0
  183.0530  178.9440  139.7210 C   0  0  0  0  0  3  0  0  0  0  0  0
  179.2940  179.1190  139.6450 C   0  0  0  0  0  2  0  0  0  0  0  0
  184.6420  178.6010  141.5620 C   0  0  0  0  0  0  0  0  0  0  0  0
  185.5500  178.1670  145.0430 N   0  0  0  0  0  0  0  0  0  0  0  0
  180.6870  179.0980  140.1240 N   0  0  0  0  0  0  0  0  0  0  0  0
  179.4040  181.6730  139.3170 C   0  0  0  0  0  2  0  0  0  0  0  0
  187.2780  178.1690  143.3680 C   0  0  0  0  0  0  0  0  0  0  0  0
  182.2090  178.7800  141.9790 C   0  0  0  0  0  0  0  0  0  0  0  0
  181.5830  179.4040  137.7870 C   0  0  0  0  0  2  0  0  0  0  0  0
  183.3100  178.7700  141.0820 C   0  0  0  0  0  0  0  0  0  0  0  0
  180.1090  179.4160  143.8090 C   0  0  0  0  0  2  0  0  0  0  0  0
  187.0560  178.4440  140.8650 C   0  0  0  0  0  3  0  0  0  0  0  0
  179.7260  178.8940  142.4310 C   0  0  0  0  0  2  0  0  0  0  0  0
  185.6950  178.5940  140.6470 C   0  0  0  0  0  3  0  0  0  0  0  0
  185.9330  178.2600  143.7460 C   0  0  0  0  0  0  0  0  0  0  0  0
  181.2880  178.6150  144.3460 C   0  0  0  0  0  2  0  0  0  0  0  0
  183.7430  178.4660  143.8070 C   0  0  0  0  0  0  0  0  0  0  0  0
  188.2740  177.9650  144.4430 C   0  0  0  0  0  3  0  0  0  0  0  0
  189.1080  176.9280  144.4890 C   0  0  0  0  0  3  0  0  0  0  0  0
  191.0830  176.8130  147.6720 C   0  0  0  0  0  2  0  0  0  0  0  0
  191.4230  176.3830  145.2970 C   0  0  0  0  0  2  0  0  0  0  0  0
  190.0550  176.7710  145.5490 N   0  0  0  0  0  0  0  0  0  0  0  0
  192.0540  176.2080  146.6660 C   0  0  0  0  0  2  0  0  0  0  0  0
  189.7580  176.9740  146.9520 C   0  0  0  0  0  2  0  0  0  0  0  0
  1 27  2  0  0  0  0
  1 26  1  0  0  0  0
  3 16  1  0  0  0  0
  4 18  2  0  0  0  0
  4 23  1  0  0  0  0
  5 11  2  0  0  0  0
  5 15  1  0  0  0  0
  6 19  1  0  0  0  0
  6  7  1  0  0  0  0
  7  3  1  0  0  0  0
  8 16  1  0  0  0  0
  8 12  1  0  0  0  0
  9 25  2  0  0  0  0
  9 27  1  0  0  0  0
 10 17  2  0  0  0  0
 11 20  1  0  0  0  0
 12 15  1  0  0  0  0
 13  9  1  0  0  0  0
 14  2  2  0  0  0  0
 15  4  1  0  0  0  0
 17 25  1  0  0  0  0
 17 28  1  0  0  0  0
 18  1  1  0  0  0  0
 19  5  1  0  0  0  0
 20 13  2  0  0  0  0
 20 18  1  0  0  0  0
 21 26  1  0  0  0  0
 22 10  1  0  0  0  0
 23 21  1  0  0  0  0
 24 22  2  0  0  0  0
 24 13  1  0  0  0  0
 25 14  1  0  0  0  0
 27  2  1  0  0  0  0
 28 29  2  0  0  0  0
 29 32  1  0  0  0  0
 31 32  1  0  0  0  0
 31 33  1  0  0  0  0
 32 34  1  0  0  0  0
 33 30  1  0  0  0  0
 34 30  1  0  0  0  0
M  END
>  <MODEL>
4

>  <REMARK>
 VINA RESULT:      -9.2      1.568      3.677
  Name = 
  2 active torsions:
  status: ('A' for Active; 'I' for Inactive)
    1  A    between atoms: C_17  and  C_28
    2  A    between atoms: C_29  and  N_32
                            x       y       z     vdW  Elec       q    Type
                         _______ _______ _______ _____ _____    ______ ____

>  <TORSDO>
F 2

$$$$
=
 OpenBabel11122412193D

 34 40  0  0  0  0  0  0  0  0999 V2000
  184.7960  178.5370  142.5360 C   0  0  0  0  0  0  0  0  0  0  0  0
  187.2870  178.3780  142.4260 C   0  0  0  0  0  3  0  0  0  0  0  0
  180.4150  181.2390  140.6830 O   0  0  0  0  0  0  0  0  0  0  0  0
  182.3490  178.6390  142.3530 C   0  0  0  0  0  0  0  0  0  0  0  0
  181.2960  178.5480  140.2120 C   0  0  0  0  0  0  0  0  0  0  0  0
  180.0920  180.0380  138.6180 C   0  0  0  0  0  2  0  0  0  0  0  0
  179.6220  181.1740  139.5280 C   0  0  0  0  0  2  0  0  0  0  0  0
  178.9310  179.7060  141.8590 C   0  0  0  0  0  2  0  0  0  0  0  0
  186.1260  178.2930  140.5190 C   0  0  0  0  0  0  0  0  0  0  0  0
  187.4880  178.0000  137.7840 C   0  0  0  0  0  3  0  0  0  0  0  0
  182.5390  178.4330  139.5890 C   0  0  0  0  0  3  0  0  0  0  0  0
  179.9100  178.6070  142.2770 C   0  0  0  0  0  2  0  0  0  0  0  0
  184.9880  178.2920  139.6980 C   0  0  0  0  0  0  0  0  0  0  0  0
  188.1760  178.2450  141.4210 N   0  0  0  0  0  0  0  0  0  0  0  0
  181.2090  178.6360  141.5830 N   0  0  0  0  0  0  0  0  0  0  0  0
  179.5430  181.1080  141.7780 C   0  0  0  0  0  2  0  0  0  0  0  0
  188.1330  178.0580  139.0220 C   0  0  0  0  0  0  0  0  0  0  0  0
  183.6220  178.5230  141.7470 C   0  0  0  0  0  0  0  0  0  0  0  0
  180.0940  178.6780  139.3220 C   0  0  0  0  0  2  0  0  0  0  0  0
  183.7190  178.4110  140.3350 C   0  0  0  0  0  0  0  0  0  0  0  0
  183.4740  179.3620  144.4740 C   0  0  0  0  0  2  0  0  0  0  0  0
  186.1370  178.0540  137.4700 C   0  0  0  0  0  3  0  0  0  0  0  0
  182.2510  178.6910  143.8630 C   0  0  0  0  0  2  0  0  0  0  0  0
  185.0400  178.1820  138.3080 C   0  0  0  0  0  3  0  0  0  0  0  0
  187.4850  178.1930  140.2560 C   0  0  0  0  0  0  0  0  0  0  0  0
  184.7310  178.6230  144.0360 C   0  0  0  0  0  2  0  0  0  0  0  0
  186.0220  178.4100  141.8850 C   0  0  0  0  0  0  0  0  0  0  0  0
  189.6100  177.9720  139.0360 C   0  0  0  0  0  3  0  0  0  0  0  0
  190.2830  176.8230  138.9920 C   0  0  0  0  0  3  0  0  0  0  0  0
  193.9650  177.1330  139.6200 C   0  0  0  0  0  2  0  0  0  0  0  0
  192.4740  176.2590  137.9000 C   0  0  0  0  0  2  0  0  0  0  0  0
  191.7120  176.7880  139.0080 N   0  0  0  0  0  0  0  0  0  0  0  0
  193.9210  176.2860  138.3550 C   0  0  0  0  0  2  0  0  0  0  0  0
  192.5330  177.2610  140.1040 C   0  0  0  0  0  2  0  0  0  0  0  0
  1 26  1  0  0  0  0
  3 16  1  0  0  0  0
  4 23  1  0  0  0  0
  5 15  1  0  0  0  0
  6 19  1  0  0  0  0
  6  7  1  0  0  0  0
  7  3  1  0  0  0  0
  8 12  1  0  0  0  0
  9 27  1  0  0  0  0
 10 17  2  0  0  0  0
 11  5  2  0  0  0  0
 11 20  1  0  0  0  0
 13 20  2  0  0  0  0
 13  9  1  0  0  0  0
 14  2  2  0  0  0  0
 15 12  1  0  0  0  0
 15  4  1  0  0  0  0
 16  8  1  0  0  0  0
 17 28  1  0  0  0  0
 17 25  1  0  0  0  0
 18  4  2  0  0  0  0
 18  1  1  0  0  0  0
 19  5  1  0  0  0  0
 20 18  1  0  0  0  0
 22 10  1  0  0  0  0
 22 24  2  0  0  0  0
 23 21  1  0  0  0  0
 24 13  1  0  0  0  0
 25  9  2  0  0  0  0
 25 14  1  0  0  0  0
 26 21  1  0  0  0  0
 27  2  1  0  0  0  0
 27  1  2  0  0  0  0
 29 32  1  0  0  0  0
 29 28  2  0  0  0  0
 30 34  1  0  0  0  0
 31 33  1  0  0  0  0
 31 32  1  0  0  0  0
 32 34  1  0  0  0  0
 33 30  1  0  0  0  0
M  END
>  <MODEL>
5

>  <REMARK>
 VINA RESULT:      -8.3      3.019      5.279
  Name = 
  2 active torsions:
  status: ('A' for Active; 'I' for Inactive)
    1  A    between atoms: C_17  and  C_28
    2  A    between atoms: C_29  and  N_32
                            x       y       z     vdW  Elec       q    Type
                         _______ _______ _______ _____ _____    ______ ____

>  <TORSDO>
F 2

$$$$
=
 OpenBabel11122412193D

 34 40  0  0  0  0  0  0  0  0999 V2000
  188.9200  177.7770  141.6310 C   0  0  0  0  0  0  0  0  0  0  0  0
  186.9470  178.2830  143.0770 C   0  0  0  0  0  3  0  0  0  0  0  0
  190.8220  174.5310  137.6590 O   0  0  0  0  0  0  0  0  0  0  0  0
  190.6840  177.3390  139.9790 C   0  0  0  0  0  0  0  0  0  0  0  0
  190.1740  177.3280  137.6460 C   0  0  0  0  0  0  0  0  0  0  0  0
  189.9300  175.7180  135.7600 C   0  0  0  0  0  2  0  0  0  0  0  0
  190.7230  174.5100  136.2600 C   0  0  0  0  0  2  0  0  0  0  0  0
  192.8880  175.8190  137.5510 C   0  0  0  0  0  2  0  0  0  0  0  0
  186.6650  178.2460  140.8610 C   0  0  0  0  0  0  0  0  0  0  0  0
  183.9440  178.7810  139.5450 C   0  0  0  0  0  3  0  0  0  0  0  0
  188.8400  177.6280  137.9210 C   0  0  0  0  0  3  0  0  0  0  0  0
  192.5250  177.0340  138.4070 C   0  0  0  0  0  2  0  0  0  0  0  0
  187.0320  178.1050  139.5140 C   0  0  0  0  0  0  0  0  0  0  0  0
  185.6500  178.5590  142.8320 N   0  0  0  0  0  0  0  0  0  0  0  0
  191.0850  177.2000  138.6700 N   0  0  0  0  0  0  0  0  0  0  0  0
  192.1940  174.5170  137.9660 C   0  0  0  0  0  2  0  0  0  0  0  0
  184.2100  178.7880  140.9160 C   0  0  0  0  0  0  0  0  0  0  0  0
  189.3370  177.6450  140.2860 C   0  0  0  0  0  0  0  0  0  0  0  0
  190.5340  177.0500  136.2150 C   0  0  0  0  0  2  0  0  0  0  0  0
  188.3960  177.7980  139.2340 C   0  0  0  0  0  0  0  0  0  0  0  0
  191.0490  176.7360  142.3860 C   0  0  0  0  0  2  0  0  0  0  0  0
  184.7860  178.5470  138.4670 C   0  0  0  0  0  3  0  0  0  0  0  0
  191.6940  177.2430  141.1030 C   0  0  0  0  0  2  0  0  0  0  0  0
  186.1400  178.2500  138.4510 C   0  0  0  0  0  3  0  0  0  0  0  0
  185.4630  178.5390  141.4890 C   0  0  0  0  0  0  0  0  0  0  0  0
  189.8950  177.6520  142.7690 C   0  0  0  0  0  2  0  0  0  0  0  0
  187.5830  178.0870  141.8720 C   0  0  0  0  0  0  0  0  0  0  0  0
  183.0880  179.0780  141.8360 C   0  0  0  0  0  3  0  0  0  0  0  0
  181.8260  178.7300  141.5930 C   0  0  0  0  0  3  0  0  0  0  0  0
  179.2940  178.9420  144.3490 C   0  0  0  0  0  2  0  0  0  0  0  0
  179.7770  180.0390  142.2260 C   0  0  0  0  0  2  0  0  0  0  0  0
  180.7730  179.0320  142.5120 N   0  0  0  0  0  0  0  0  0  0  0  0
  178.9310  180.1400  143.4820 C   0  0  0  0  0  2  0  0  0  0  0  0
  180.5920  178.3850  143.7960 C   0  0  0  0  0  2  0  0  0  0  0  0
  1 27  2  0  0  0  0
  1 26  1  0  0  0  0
  3 16  1  0  0  0  0
  4 18  2  0  0  0  0
  4 23  1  0  0  0  0
  5 11  2  0  0  0  0
  5 15  1  0  0  0  0
  6 19  1  0  0  0  0
  6  7  1  0  0  0  0
  7  3  1  0  0  0  0
  8 16  1  0  0  0  0
  8 12  1  0  0  0  0
  9 25  2  0  0  0  0
  9 27  1  0  0  0  0
 10 17  2  0  0  0  0
 11 20  1  0  0  0  0
 12 15  1  0  0  0  0
 13  9  1  0  0  0  0
 14  2  2  0  0  0  0
 15  4  1  0  0  0  0
 17 25  1  0  0  0  0
 17 28  1  0  0  0  0
 18  1  1  0  0  0  0
 19  5  1  0  0  0  0
 20 13  2  0  0  0  0
 20 18  1  0  0  0  0
 21 26  1  0  0  0  0
 22 10  1  0  0  0  0
 23 21  1  0  0  0  0
 24 22  2  0  0  0  0
 24 13  1  0  0  0  0
 25 14  1  0  0  0  0
 27  2  1  0  0  0  0
 29 28  2  0  0  0  0
 29 32  1  0  0  0  0
 31 32  1  0  0  0  0
 31 33  1  0  0  0  0
 32 34  1  0  0  0  0
 33 30  1  0  0  0  0
 34 30  1  0  0  0  0
M  END
>  <MODEL>
6

>  <REMARK>
 VINA RESULT:      -8.3      4.084      8.981
  Name = 
  2 active torsions:
  status: ('A' for Active; 'I' for Inactive)
    1  A    between atoms: C_17  and  C_28
    2  A    between atoms: C_29  and  N_32
                            x       y       z     vdW  Elec       q    Type
                         _______ _______ _______ _____ _____    ______ ____

>  <TORSDO>
F 2

$$$$
=
 OpenBabel11122412193D

 34 40  0  0  0  0  0  0  0  0999 V2000
  187.9770  177.8100  139.7570 C   0  0  0  0  0  0  0  0  0  0  0  0
  186.2940  178.6400  138.1080 C   0  0  0  0  0  3  0  0  0  0  0  0
  190.4920  178.8960  144.4930 O   0  0  0  0  0  0  0  0  0  0  0  0
  189.4130  176.9960  141.5760 C   0  0  0  0  0  0  0  0  0  0  0  0
  188.5760  176.8710  143.8080 C   0  0  0  0  0  0  0  0  0  0  0  0
  188.8210  178.0330  145.9990 C   0  0  0  0  0  2  0  0  0  0  0  0
  190.1740  178.7290  145.8480 C   0  0  0  0  0  2  0  0  0  0  0  0
  191.6160  176.7360  144.4290 C   0  0  0  0  0  2  0  0  0  0  0  0
  185.6850  178.4410  140.2490 C   0  0  0  0  0  0  0  0  0  0  0  0
  182.8650  179.1620  141.2240 C   0  0  0  0  0  3  0  0  0  0  0  0
  187.3360  177.3500  143.3850 C   0  0  0  0  0  3  0  0  0  0  0  0
  190.8640  176.0430  143.2910 C   0  0  0  0  0  2  0  0  0  0  0  0
  185.8330  178.1430  141.6120 C   0  0  0  0  0  0  0  0  0  0  0  0
  185.0070  179.0310  138.1970 N   0  0  0  0  0  0  0  0  0  0  0  0
  189.5960  176.6860  142.9030 N   0  0  0  0  0  0  0  0  0  0  0  0
  191.7270  178.2580  144.2870 C   0  0  0  0  0  2  0  0  0  0  0  0
  183.3290  179.2520  139.9090 C   0  0  0  0  0  0  0  0  0  0  0  0
  188.1650  177.4810  141.1190 C   0  0  0  0  0  0  0  0  0  0  0  0
  188.7690  176.6800  145.2850 C   0  0  0  0  0  2  0  0  0  0  0  0
  187.1010  177.6560  142.0430 C   0  0  0  0  0  0  0  0  0  0  0  0
  190.4390  177.7230  139.4060 C   0  0  0  0  0  2  0  0  0  0  0  0
  183.5120  178.7460  142.3790 C   0  0  0  0  0  3  0  0  0  0  0  0
  190.5210  176.7490  140.5730 C   0  0  0  0  0  2  0  0  0  0  0  0
  184.8130  178.2990  142.5510 C   0  0  0  0  0  3  0  0  0  0  0  0
  184.6230  178.9160  139.4930 C   0  0  0  0  0  0  0  0  0  0  0  0
  189.0720  177.6090  138.7450 C   0  0  0  0  0  2  0  0  0  0  0  0
  186.7240  178.2750  139.3640 C   0  0  0  0  0  0  0  0  0  0  0  0
  182.3880  179.7380  138.8770 C   0  0  0  0  0  3  0  0  0  0  0  0
  182.1360  181.0270  138.6550 C   0  0  0  0  0  3  0  0  0  0  0  0
  179.9500  181.5590  135.6570 C   0  0  0  0  0  2  0  0  0  0  0  0
  180.5720  182.7430  137.6960 C   0  0  0  0  0  2  0  0  0  0  0  0
  181.2180  181.4510  137.6450 N   0  0  0  0  0  0  0  0  0  0  0  0
  179.5980  182.7550  136.5320 C   0  0  0  0  0  2  0  0  0  0  0  0
  180.8390  180.6580  136.4940 C   0  0  0  0  0  2  0  0  0  0  0  0
  1 18  1  0  0  0  0
  2 14  2  0  0  0  0
  2 27  1  0  0  0  0
  3  7  1  0  0  0  0
  4 15  1  0  0  0  0
  5 19  1  0  0  0  0
  7  6  1  0  0  0  0
  9 13  1  0  0  0  0
 10 22  1  0  0  0  0
 11  5  2  0  0  0  0
 12  8  1  0  0  0  0
 13 20  2  0  0  0  0
 13 24  1  0  0  0  0
 14 25  1  0  0  0  0
 15 12  1  0  0  0  0
 15  5  1  0  0  0  0
 16  8  1  0  0  0  0
 16  3  1  0  0  0  0
 17 10  2  0  0  0  0
 18  4  2  0  0  0  0
 18 20  1  0  0  0  0
 19  6  1  0  0  0  0
 20 11  1  0  0  0  0
 21 23  1  0  0  0  0
 22 24  2  0  0  0  0
 23  4  1  0  0  0  0
 25 17  1  0  0  0  0
 25  9  2  0  0  0  0
 26 21  1  0  0  0  0
 26  1  1  0  0  0  0
 27  1  2  0  0  0  0
 27  9  1  0  0  0  0
 28 17  1  0  0  0  0
 29 28  2  0  0  0  0
 30 34  1  0  0  0  0
 30 33  1  0  0  0  0
 32 31  1  0  0  0  0
 32 29  1  0  0  0  0
 33 31  1  0  0  0  0
 34 32  1  0  0  0  0
M  END
>  <MODEL>
7

>  <REMARK>
 VINA RESULT:      -8.2      2.975      9.353
  Name = 
  2 active torsions:
  status: ('A' for Active; 'I' for Inactive)
    1  A    between atoms: C_17  and  C_28
    2  A    between atoms: C_29  and  N_32
                            x       y       z     vdW  Elec       q    Type
                         _______ _______ _______ _____ _____    ______ ____

>  <TORSDO>
F 2

$$$$
=
 OpenBabel11122412193D

 34 40  0  0  0  0  0  0  0  0999 V2000
  189.8750  177.5350  140.0190 C   0  0  0  0  0  0  0  0  0  0  0  0
  191.2030  177.2710  142.1180 C   0  0  0  0  0  3  0  0  0  0  0  0
  185.5150  175.7390  137.2450 O   0  0  0  0  0  0  0  0  0  0  0  0
  188.3410  177.8640  138.1290 C   0  0  0  0  0  0  0  0  0  0  0  0
  186.0190  178.2630  138.5170 C   0  0  0  0  0  0  0  0  0  0  0  0
  183.8270  177.0980  138.3000 C   0  0  0  0  0  2  0  0  0  0  0  0
  184.1380  176.0080  137.2740 C   0  0  0  0  0  2  0  0  0  0  0  0
  185.8690  177.4310  135.5280 C   0  0  0  0  0  2  0  0  0  0  0  0
  189.0110  177.6680  142.2830 C   0  0  0  0  0  0  0  0  0  0  0  0
  187.5850  177.8860  144.9930 C   0  0  0  0  0  3  0  0  0  0  0  0
  186.2240  178.2000  139.8950 C   0  0  0  0  0  3  0  0  0  0  0  0
  186.9200  178.3180  136.1980 C   0  0  0  0  0  2  0  0  0  0  0  0
  187.7040  177.9120  141.8340 C   0  0  0  0  0  0  0  0  0  0  0  0
  190.9000  177.3090  143.4310 N   0  0  0  0  0  0  0  0  0  0  0  0
  187.0760  178.1090  137.6480 N   0  0  0  0  0  0  0  0  0  0  0  0
  185.9390  175.9510  135.9220 C   0  0  0  0  0  2  0  0  0  0  0  0
  188.9470  177.6450  144.7980 C   0  0  0  0  0  0  0  0  0  0  0  0
  188.5770  177.7970  139.5220 C   0  0  0  0  0  0  0  0  0  0  0  0
  184.6020  178.3940  138.0400 C   0  0  0  0  0  2  0  0  0  0  0  0
  187.4960  177.9750  140.4250 C   0  0  0  0  0  0  0  0  0  0  0  0
  190.5950  176.8330  137.7430 C   0  0  0  0  0  2  0  0  0  0  0  0
  186.5650  178.0830  144.0730 C   0  0  0  0  0  3  0  0  0  0  0  0
  189.5110  177.7390  137.1750 C   0  0  0  0  0  2  0  0  0  0  0  0
  186.6160  178.0950  142.6880 C   0  0  0  0  0  3  0  0  0  0  0  0
  189.5710  177.5490  143.5470 C   0  0  0  0  0  0  0  0  0  0  0  0
  191.0490  177.3710  139.0930 C   0  0  0  0  0  2  0  0  0  0  0  0
  190.0490  177.4890  141.4000 C   0  0  0  0  0  0  0  0  0  0  0  0
  189.7980  177.4750  145.9960 C   0  0  0  0  0  3  0  0  0  0  0  0
  190.8900  176.7140  146.0240 C   0  0  0  0  0  3  0  0  0  0  0  0
  192.7350  177.0200  149.2720 C   0  0  0  0  0  2  0  0  0  0  0  0
  192.6000  175.4790  147.3890 C   0  0  0  0  0  2  0  0  0  0  0  0
  191.6830  176.5800  147.2060 N   0  0  0  0  0  0  0  0  0  0  0  0
  193.1420  175.6310  148.7980 C   0  0  0  0  0  2  0  0  0  0  0  0
  191.6550  177.5020  148.3230 C   0  0  0  0  0  2  0  0  0  0  0  0
  1 27  2  0  0  0  0
  2 14  2  0  0  0  0
  3  7  1  0  0  0  0
  4 18  2  0  0  0  0
  5 11  2  0  0  0  0
  7  6  1  0  0  0  0
  8 16  1  0  0  0  0
  8 12  1  0  0  0  0
  9 25  2  0  0  0  0
 11 20  1  0  0  0  0
 12 15  1  0  0  0  0
 13  9  1  0  0  0  0
 13 24  1  0  0  0  0
 14 25  1  0  0  0  0
 15  4  1  0  0  0  0
 15  5  1  0  0  0  0
 16  3  1  0  0  0  0
 17 10  2  0  0  0  0
 17 28  1  0  0  0  0
 18  1  1  0  0  0  0
 18 20  1  0  0  0  0
 19  6  1  0  0  0  0
 19  5  1  0  0  0  0
 20 13  2  0  0  0  0
 21 26  1  0  0  0  0
 22 10  1  0  0  0  0
 23 21  1  0  0  0  0
 23  4  1  0  0  0  0
 24 22  2  0  0  0  0
 25 17  1  0  0  0  0
 26  1  1  0  0  0  0
 27  2  1  0  0  0  0
 27  9  1  0  0  0  0
 28 29  2  0  0  0  0
 29 32  1  0  0  0  0
 31 33  1  0  0  0  0
 32 31  1  0  0  0  0
 32 34  1  0  0  0  0
 33 30  1  0  0  0  0
 34 30  1  0  0  0  0
M  END
>  <MODEL>
8

>  <REMARK>
 VINA RESULT:      -8.0      3.212      4.670
  Name = 
  2 active torsions:
  status: ('A' for Active; 'I' for Inactive)
    1  A    between atoms: C_17  and  C_28
    2  A    between atoms: C_29  and  N_32
                            x       y       z     vdW  Elec       q    Type
                         _______ _______ _______ _____ _____    ______ ____

>  <TORSDO>
F 2

$$$$
=
 OpenBabel11122412193D

 34 40  0  0  0  0  0  0  0  0999 V2000
  188.9420  177.7260  142.5740 C   0  0  0  0  0  0  0  0  0  0  0  0
  187.7720  178.5120  140.5130 C   0  0  0  0  0  3  0  0  0  0  0  0
  189.9290  178.8330  147.8400 O   0  0  0  0  0  0  0  0  0  0  0  0
  189.8270  176.9400  144.7270 C   0  0  0  0  0  0  0  0  0  0  0  0
  188.3860  176.7410  146.6210 C   0  0  0  0  0  0  0  0  0  0  0  0
  187.9340  177.8730  148.7940 C   0  0  0  0  0  2  0  0  0  0  0  0
  189.2400  178.6280  149.0450 C   0  0  0  0  0  2  0  0  0  0  0  0
  191.1200  176.7230  148.0950 C   0  0  0  0  0  2  0  0  0  0  0  0
  186.5800  178.2500  142.3840 C   0  0  0  0  0  0  0  0  0  0  0  0
  183.5680  178.8330  142.5050 C   0  0  0  0  0  3  0  0  0  0  0  0
  187.3010  177.1740  145.8590 C   0  0  0  0  0  3  0  0  0  0  0  0
  190.7620  176.0200  146.7840 C   0  0  0  0  0  2  0  0  0  0  0  0
  186.3410  177.9350  143.7300 C   0  0  0  0  0  0  0  0  0  0  0  0
  186.4970  178.8470  140.2270 N   0  0  0  0  0  0  0  0  0  0  0  0
  189.6320  176.6150  146.0490 N   0  0  0  0  0  0  0  0  0  0  0  0
  191.1980  178.2510  147.9980 C   0  0  0  0  0  2  0  0  0  0  0  0
  184.3870  178.9660  141.3800 C   0  0  0  0  0  0  0  0  0  0  0  0
  188.7440  177.3800  143.9310 C   0  0  0  0  0  0  0  0  0  0  0  0
  188.1530  176.5320  148.0890 C   0  0  0  0  0  2  0  0  0  0  0  0
  187.4510  177.4940  144.5080 C   0  0  0  0  0  0  0  0  0  0  0  0
  191.4020  177.7490  142.9510 C   0  0  0  0  0  2  0  0  0  0  0  0
  183.8720  178.4240  143.7950 C   0  0  0  0  0  3  0  0  0  0  0  0
  191.1870  176.7590  144.0870 C   0  0  0  0  0  2  0  0  0  0  0  0
  185.0860  178.0300  144.3340 C   0  0  0  0  0  3  0  0  0  0  0  0
  185.7610  178.6930  141.3550 C   0  0  0  0  0  0  0  0  0  0  0  0
  190.2910  177.5890  141.9210 C   0  0  0  0  0  2  0  0  0  0  0  0
  187.8370  178.1440  141.8370 C   0  0  0  0  0  0  0  0  0  0  0  0
  183.7640  179.4300  140.1220 C   0  0  0  0  0  3  0  0  0  0  0  0
  182.4880  179.2130  139.8070 C   0  0  0  0  0  3  0  0  0  0  0  0
  181.1320  179.7730  136.3570 C   0  0  0  0  0  2  0  0  0  0  0  0
  181.6670  181.0830  138.3430 C   0  0  0  0  0  2  0  0  0  0  0  0
  181.9270  179.6810  138.5780 N   0  0  0  0  0  0  0  0  0  0  0  0
  180.9690  181.1460  136.9970 C   0  0  0  0  0  2  0  0  0  0  0  0
  181.5640  178.8290  137.4630 C   0  0  0  0  0  2  0  0  0  0  0  0
  1 18  1  0  0  0  0
  2 27  1  0  0  0  0
  3 16  1  0  0  0  0
  3  7  1  0  0  0  0
  4 15  1  0  0  0  0
  5 19  1  0  0  0  0
  6  7  1  0  0  0  0
  9 13  1  0  0  0  0
 10 22  1  0  0  0  0
 11  5  2  0  0  0  0
 12  8  1  0  0  0  0
 13 24  1  0  0  0  0
 13 20  2  0  0  0  0
 14  2  2  0  0  0  0
 14 25  1  0  0  0  0
 15  5  1  0  0  0  0
 15 12  1  0  0  0  0
 16  8  1  0  0  0  0
 17 10  2  0  0  0  0
 18 20  1  0  0  0  0
 18  4  2  0  0  0  0
 19  6  1  0  0  0  0
 20 11  1  0  0  0  0
 21 23  1  0  0  0  0
 22 24  2  0  0  0  0
 23  4  1  0  0  0  0
 25 17  1  0  0  0  0
 25  9  2  0  0  0  0
 26  1  1  0  0  0  0
 26 21  1  0  0  0  0
 27  9  1  0  0  0  0
 27  1  2  0  0  0  0
 28 17  1  0  0  0  0
 29 28  2  0  0  0  0
 30 33  1  0  0  0  0
 30 34  1  0  0  0  0
 31 32  1  0  0  0  0
 32 29  1  0  0  0  0
 33 31  1  0  0  0  0
 34 32  1  0  0  0  0
M  END
>  <MODEL>
9

>  <REMARK>
 VINA RESULT:      -8.0      2.843      9.335
  Name = 
  2 active torsions:
  status: ('A' for Active; 'I' for Inactive)
    1  A    between atoms: C_17  and  C_28
    2  A    between atoms: C_29  and  N_32
                            x       y       z     vdW  Elec       q    Type
                         _______ _______ _______ _____ _____    ______ ____

>  <TORSDO>
F 2

$$$$
