=
 OpenBabel11122411303D

 37 43  0  0  1  0  0  0  0  0999 V2000
  188.7480  176.6020  141.0740 C   0  0  0  0  0  2  0  0  0  0  0  0
  184.9960  178.5800  141.8630 C   0  0  0  0  0  0  0  0  0  0  0  0
  187.0980  177.8480  145.3920 C   0  0  0  0  0  0  0  0  0  0  0  0
  189.9340  176.2660  140.2860 N   0  0  0  0  0  0  0  0  0  0  0  0
  190.8970  177.9220  145.1420 C   0  0  0  0  0  2  0  0  0  0  0  0
  184.9700  178.4340  144.3960 C   0  0  0  0  0  0  0  0  0  0  0  0
  188.3320  177.4240  144.9210 C   0  0  0  0  0  0  0  0  0  0  0  0
  190.8550  178.4170  141.3050 C   0  0  2  0  0  3  0  0  0  0  0  0
  186.2920  178.0230  144.3070 C   0  0  0  0  0  0  0  0  0  0  0  0
  189.5990  177.3950  145.7270 C   0  0  0  0  0  0  0  0  0  0  0  0
  184.4300  178.6220  145.6760 C   0  0  0  0  0  3  0  0  0  0  0  0
  190.8110  177.4370  140.1140 C   0  0  0  0  0  2  0  0  0  0  0  0
  186.8990  177.6730  143.1740 N   0  0  0  0  0  0  0  0  0  0  0  0
  185.5240  179.9930  141.6820 C   0  0  0  0  0  1  0  0  0  0  0  0
  187.2550  177.4810  147.8720 C   0  0  0  0  0  3  0  0  0  0  0  0
  185.2320  178.3820  146.8120 C   0  0  0  0  0  3  0  0  0  0  0  0
  186.1780  177.5870  141.9010 C   0  0  0  0  0  2  0  0  0  0  0  0
  191.0800  177.7610  142.6840 C   0  0  1  0  0  3  0  0  0  0  0  0
  190.7670  178.6940  143.8430 C   0  0  0  0  0  2  0  0  0  0  0  0
  186.5790  177.9800  146.6810 C   0  0  0  0  0  0  0  0  0  0  0  0
  188.1510  177.2580  143.5120 C   0  0  0  0  0  0  0  0  0  0  0  0
  184.1360  178.5070  143.1450 C   0  0  0  0  0  2  0  0  0  0  0  0
  189.6510  177.0570  147.0470 C   0  0  0  0  0  0  0  0  0  0  0  0
  184.1210  178.2410  140.6750 C   0  0  0  0  0  1  0  0  0  0  0  0
  190.4560  176.4420  142.8760 N   0  0  0  0  0  2  0  0  0  0  0  0
  189.7300  179.2500  141.2950 O   0  0  0  0  0  1  0  0  0  0  0  0
  189.0210  176.4190  142.5760 C   0  0  2  0  0  3  0  0  0  0  0  0
  188.5140  177.0700  147.9980 C   0  0  0  0  0  3  0  0  0  0  0  0
  191.6400  175.5360  147.3140 C   0  0  0  0  0  3  0  0  0  0  0  0
  190.9490  176.7000  147.6900 C   0  0  0  0  0  0  0  0  0  0  0  0
  191.5360  177.5590  148.6360 C   0  0  0  0  0  3  0  0  0  0  0  0
  193.3500  178.1300  150.1670 N   0  0  0  0  0  1  0  0  0  0  0  0
  193.4430  176.0850  148.8380 C   0  0  0  0  0  3  0  0  0  0  0  0
  192.7730  177.2510  149.2110 C   0  0  0  0  0  0  0  0  0  0  0  0
  192.8790  175.2300  147.8860 C   0  0  0  0  0  3  0  0  0  0  0  0
  190.4770  175.2010  138.2800 O   0  0  0  0  0  1  0  0  0  0  0  0
  189.4760  175.9080  138.9550 C   0  0  0  0  0  2  0  0  0  0  0  0
  2 17  1  0  0  0  0
  2 22  1  0  0  0  0
  3 20  1  0  0  0  0
  4  1  1  0  0  0  0
  5 10  1  0  0  0  0
  6 11  2  0  0  0  0
  7  3  1  0  0  0  0
  7 10  1  0  0  0  0
  8 26  1  1  0  0  0
  8 18  1  0  0  0  0
  9  6  1  0  0  0  0
  9  3  2  0  0  0  0
 10 23  2  0  0  0  0
 11 16  1  0  0  0  0
 12  4  1  0  0  0  0
 12  8  1  0  0  0  0
 13 21  1  0  0  0  0
 13  9  1  0  0  0  0
 14  2  1  0  0  0  0
 15 28  2  0  0  0  0
 17 13  1  0  0  0  0
 18 25  1  0  0  0  0
 18 19  1  1  0  0  0
 19  5  1  0  0  0  0
 20 16  2  0  0  0  0
 20 15  1  0  0  0  0
 21  7  2  0  0  0  0
 22  6  1  0  0  0  0
 23 30  1  0  0  0  0
 23 28  1  0  0  0  0
 24  2  1  0  0  0  0
 27  1  1  6  0  0  0
 27 25  1  0  0  0  0
 27 21  1  0  0  0  0
 29 30  2  0  0  0  0
 29 35  1  0  0  0  0
 30 31  1  0  0  0  0
 31 34  2  0  0  0  0
 33 34  1  0  0  0  0
 34 32  1  0  0  0  0
 35 33  2  0  0  0  0
 36 37  1  0  0  0  0
 37  4  1  0  0  0  0
M  END
>  <MODEL>
1

>  <REMARK>
 VINA RESULT:      -6.6      0.000      0.000
  Name = 
  2 active torsions:
  status: ('A' for Active; 'I' for Inactive)
    1  A    between atoms: N_4  and  C_37
    2  A    between atoms: C_23  and  C_30
                            x       y       z     vdW  Elec       q    Type
                         _______ _______ _______ _____ _____    ______ ____

>  <TORSDO>
F 2

$$$$
=
 OpenBabel11122411303D

 37 43  0  0  1  0  0  0  0  0999 V2000
  180.7640  176.7930  139.4580 C   0  0  0  0  0  2  0  0  0  0  0  0
  180.5840  178.8130  143.2660 C   0  0  0  0  0  0  0  0  0  0  0  0
  184.4940  178.6410  141.8220 C   0  0  0  0  0  0  0  0  0  0  0  0
  180.2530  176.3600  138.1570 N   0  0  0  0  0  0  0  0  0  0  0  0
  184.9030  178.7300  138.0360 C   0  0  0  0  0  2  0  0  0  0  0  0
  183.0670  179.0430  143.7360 C   0  0  0  0  0  0  0  0  0  0  0  0
  184.3140  178.1690  140.5300 C   0  0  0  0  0  0  0  0  0  0  0  0
  181.0880  178.6510  137.4020 C   0  0  2  0  0  3  0  0  0  0  0  0
  183.2720  178.6420  142.4240 C   0  0  0  0  0  0  0  0  0  0  0  0
  185.3250  178.2770  139.4230 C   0  0  0  0  0  0  0  0  0  0  0  0
  184.1910  179.4110  144.4880 C   0  0  0  0  0  3  0  0  0  0  0  0
  180.0660  177.5050  137.2490 C   0  0  0  0  0  2  0  0  0  0  0  0
  182.3270  178.1360  141.6330 N   0  0  0  0  0  0  0  0  0  0  0  0
  180.2910  180.1910  142.6970 C   0  0  0  0  0  1  0  0  0  0  0  0
  186.9910  178.6470  142.1050 C   0  0  0  0  0  3  0  0  0  0  0  0
  185.4720  179.3530  143.9000 C   0  0  0  0  0  3  0  0  0  0  0  0
  180.9750  177.8530  142.1210 C   0  0  0  0  0  2  0  0  0  0  0  0
  182.5670  178.2100  137.4290 C   0  0  1  0  0  3  0  0  0  0  0  0
  183.5020  179.3000  137.9280 C   0  0  0  0  0  2  0  0  0  0  0  0
  185.6390  178.9540  142.5560 C   0  0  0  0  0  0  0  0  0  0  0  0
  182.9360  177.7940  140.4630 C   0  0  0  0  0  0  0  0  0  0  0  0
  181.6930  178.9180  144.3370 C   0  0  0  0  0  2  0  0  0  0  0  0
  186.6680  178.1390  139.6070 C   0  0  0  0  0  0  0  0  0  0  0  0
  179.3250  178.2900  143.9240 C   0  0  0  0  0  1  0  0  0  0  0  0
  182.8390  176.9250  138.0930 N   0  0  0  0  0  2  0  0  0  0  0  0
  180.7580  179.4580  138.4970 O   0  0  0  0  0  1  0  0  0  0  0  0
  182.3010  176.8380  139.4540 C   0  0  2  0  0  3  0  0  0  0  0  0
  187.3940  178.2770  140.8920 C   0  0  0  0  0  3  0  0  0  0  0  0
  188.5310  178.8590  138.0730 C   0  0  0  0  0  3  0  0  0  0  0  0
  187.5730  177.9000  138.4450 C   0  0  0  0  0  0  0  0  0  0  0  0
  187.5280  176.6810  137.7440 C   0  0  0  0  0  3  0  0  0  0  0  0
  188.3420  175.1980  135.9840 N   0  0  0  0  0  1  0  0  0  0  0  0
  189.3410  177.4010  136.3130 C   0  0  0  0  0  3  0  0  0  0  0  0
  188.4030  176.4360  136.6810 C   0  0  0  0  0  0  0  0  0  0  0  0
  189.4080  178.6110  137.0110 C   0  0  0  0  0  3  0  0  0  0  0  0
  179.0050  174.7490  139.2950 O   0  0  0  0  0  1  0  0  0  0  0  0
  178.9310  175.8030  138.3790 C   0  0  0  0  0  2  0  0  0  0  0  0
  2 24  1  0  0  0  0
  2 22  1  0  0  0  0
  3  9  2  0  0  0  0
  3 20  1  0  0  0  0
  4 37  1  0  0  0  0
  4  1  1  0  0  0  0
  5 10  1  0  0  0  0
  6 22  1  0  0  0  0
  6 11  2  0  0  0  0
  7  3  1  0  0  0  0
  8 18  1  0  0  0  0
  8 26  1  1  0  0  0
  9  6  1  0  0  0  0
 10 23  2  0  0  0  0
 10  7  1  0  0  0  0
 12  8  1  0  0  0  0
 12  4  1  0  0  0  0
 13 17  1  0  0  0  0
 13  9  1  0  0  0  0
 14  2  1  0  0  0  0
 15 20  1  0  0  0  0
 16 11  1  0  0  0  0
 17  2  1  0  0  0  0
 18 19  1  1  0  0  0
 18 25  1  0  0  0  0
 19  5  1  0  0  0  0
 20 16  2  0  0  0  0
 21  7  2  0  0  0  0
 21 13  1  0  0  0  0
 23 28  1  0  0  0  0
 25 27  1  0  0  0  0
 27  1  1  6  0  0  0
 27 21  1  0  0  0  0
 28 15  2  0  0  0  0
 29 30  1  0  0  0  0
 30 23  1  0  0  0  0
 31 30  2  0  0  0  0
 32 34  1  0  0  0  0
 33 34  2  0  0  0  0
 33 35  1  0  0  0  0
 34 31  1  0  0  0  0
 35 29  2  0  0  0  0
 37 36  1  0  0  0  0
M  END
>  <MODEL>
2

>  <REMARK>
 VINA RESULT:      -6.4      5.668      8.553
  Name = 
  2 active torsions:
  status: ('A' for Active; 'I' for Inactive)
    1  A    between atoms: N_4  and  C_37
    2  A    between atoms: C_23  and  C_30
                            x       y       z     vdW  Elec       q    Type
                         _______ _______ _______ _____ _____    ______ ____

>  <TORSDO>
F 2

$$$$
=
 OpenBabel11122411303D

 37 43  0  0  1  0  0  0  0  0999 V2000
  188.6810  174.7590  136.4890 C   0  0  0  0  0  2  0  0  0  0  0  0
  185.0920  176.9940  135.6300 C   0  0  0  0  0  0  0  0  0  0  0  0
  186.5910  177.9240  139.4100 C   0  0  0  0  0  0  0  0  0  0  0  0
  189.9220  174.0570  136.1590 N   0  0  0  0  0  0  0  0  0  0  0  0
  190.3740  177.7530  139.8170 C   0  0  0  0  0  2  0  0  0  0  0  0
  184.6990  178.0460  137.9050 C   0  0  0  0  0  0  0  0  0  0  0  0
  187.8260  177.2910  139.4060 C   0  0  0  0  0  0  0  0  0  0  0  0
  190.9200  176.4050  136.2330 C   0  0  2  0  0  3  0  0  0  0  0  0
  185.9680  177.5990  138.2430 C   0  0  0  0  0  0  0  0  0  0  0  0
  188.9580  177.6010  140.3430 C   0  0  0  0  0  0  0  0  0  0  0  0
  184.0100  178.8250  138.8440 C   0  0  0  0  0  3  0  0  0  0  0  0
  190.9350  174.9850  135.6290 C   0  0  0  0  0  2  0  0  0  0  0  0
  186.6850  176.7420  137.5170 N   0  0  0  0  0  0  0  0  0  0  0  0
  185.7910  178.1420  134.9210 C   0  0  0  0  0  1  0  0  0  0  0  0
  186.3610  178.7500  141.7720 C   0  0  0  0  0  3  0  0  0  0  0  0
  184.6150  179.1160  140.0850 C   0  0  0  0  0  3  0  0  0  0  0  0
  186.1430  176.0960  136.3190 C   0  0  0  0  0  2  0  0  0  0  0  0
  190.8780  176.4600  137.7750 C   0  0  1  0  0  3  0  0  0  0  0  0
  190.5100  177.8350  138.3090 C   0  0  0  0  0  2  0  0  0  0  0  0
  185.9160  178.6570  140.3870 C   0  0  0  0  0  0  0  0  0  0  0  0
  187.8260  176.4940  138.2180 C   0  0  0  0  0  0  0  0  0  0  0  0
  184.0600  177.5530  136.6340 C   0  0  0  0  0  2  0  0  0  0  0  0
  188.7880  177.9150  141.6590 C   0  0  0  0  0  0  0  0  0  0  0  0
  184.3590  176.1690  134.5940 C   0  0  0  0  0  1  0  0  0  0  0  0
  190.0940  175.4030  138.4330 N   0  0  0  0  0  2  0  0  0  0  0  0
  189.9040  177.1720  135.6500 O   0  0  0  0  0  1  0  0  0  0  0  0
  188.7210  175.2880  137.9320 C   0  0  2  0  0  3  0  0  0  0  0  0
  187.5380  178.4060  142.2870 C   0  0  0  0  0  3  0  0  0  0  0  0
  190.4700  179.0360  143.1610 C   0  0  0  0  0  3  0  0  0  0  0  0
  189.9380  177.8580  142.6080 C   0  0  0  0  0  0  0  0  0  0  0  0
  190.4660  176.6200  143.0160 C   0  0  0  0  0  3  0  0  0  0  0  0
  192.0390  175.3000  144.3370 N   0  0  0  0  0  1  0  0  0  0  0  0
  192.0440  177.7370  144.4700 C   0  0  0  0  0  3  0  0  0  0  0  0
  191.5170  176.5600  143.9370 C   0  0  0  0  0  0  0  0  0  0  0  0
  191.5180  178.9750  144.0850 C   0  0  0  0  0  3  0  0  0  0  0  0
  188.8390  172.0780  135.5600 O   0  0  0  0  0  1  0  0  0  0  0  0
  189.6170  173.1340  135.0790 C   0  0  0  0  0  2  0  0  0  0  0  0
  2 17  1  0  0  0  0
  2 22  1  0  0  0  0
  3 20  1  0  0  0  0
  4  1  1  0  0  0  0
  5 10  1  0  0  0  0
  6  9  1  0  0  0  0
  6 11  2  0  0  0  0
  7  3  1  0  0  0  0
  7 10  1  0  0  0  0
  8 26  1  6  0  0  0
  8 18  1  0  0  0  0
  9  3  2  0  0  0  0
 10 23  2  0  0  0  0
 11 16  1  0  0  0  0
 12  4  1  0  0  0  0
 12  8  1  0  0  0  0
 13 21  1  0  0  0  0
 13  9  1  0  0  0  0
 14  2  1  0  0  0  0
 15 28  2  0  0  0  0
 16 20  2  0  0  0  0
 17 13  1  0  0  0  0
 18 19  1  6  0  0  0
 18 25  1  0  0  0  0
 19  5  1  0  0  0  0
 20 15  1  0  0  0  0
 21  7  2  0  0  0  0
 22  6  1  0  0  0  0
 23 28  1  0  0  0  0
 23 30  1  0  0  0  0
 24  2  1  0  0  0  0
 27  1  1  6  0  0  0
 27 21  1  0  0  0  0
 27 25  1  0  0  0  0
 29 35  1  0  0  0  0
 30 31  1  0  0  0  0
 30 29  2  0  0  0  0
 31 34  2  0  0  0  0
 34 32  1  0  0  0  0
 34 33  1  0  0  0  0
 35 33  2  0  0  0  0
 37 36  1  0  0  0  0
 37  4  1  0  0  0  0
M  END
>  <MODEL>
3

>  <REMARK>
 VINA RESULT:      -6.2      3.482      5.733
  Name = 
  2 active torsions:
  status: ('A' for Active; 'I' for Inactive)
    1  A    between atoms: N_4  and  C_37
    2  A    between atoms: C_23  and  C_30
                            x       y       z     vdW  Elec       q    Type
                         _______ _______ _______ _____ _____    ______ ____

>  <TORSDO>
F 2

$$$$
=
 OpenBabel11122411303D

 37 43  0  0  1  0  0  0  0  0999 V2000
  188.0140  178.6480  138.8190 C   0  0  0  0  0  2  0  0  0  0  0  0
  189.2900  177.3440  142.7280 C   0  0  0  0  0  0  0  0  0  0  0  0
  185.2290  178.2970  142.6970 C   0  0  0  0  0  0  0  0  0  0  0  0
  188.0470  178.6980  137.3570 N   0  0  0  0  0  0  0  0  0  0  0  0
  183.3700  177.6650  139.4330 C   0  0  0  0  0  2  0  0  0  0  0  0
  187.1890  177.8670  144.0510 C   0  0  0  0  0  0  0  0  0  0  0  0
  184.9740  178.4720  141.3450 C   0  0  0  0  0  0  0  0  0  0  0  0
  186.5820  176.6170  137.5510 C   0  0  2  0  0  3  0  0  0  0  0  0
  186.5670  178.0750  142.8290 C   0  0  0  0  0  0  0  0  0  0  0  0
  183.6120  178.4470  140.7130 C   0  0  0  0  0  0  0  0  0  0  0  0
  186.4010  177.9470  145.2070 C   0  0  0  0  0  3  0  0  0  0  0  0
  187.6540  177.4050  136.7700 C   0  0  0  0  0  2  0  0  0  0  0  0
  187.2040  178.1660  141.6630 N   0  0  0  0  0  0  0  0  0  0  0  0
  189.0830  175.8600  142.4720 C   0  0  0  0  0  1  0  0  0  0  0  0
  183.0840  179.0030  143.7980 C   0  0  0  0  0  3  0  0  0  0  0  0
  185.0260  178.2410  145.0920 C   0  0  0  0  0  3  0  0  0  0  0  0
  188.6670  178.1590  141.5750 C   0  0  0  0  0  2  0  0  0  0  0  0
  185.3380  177.4330  137.9600 C   0  0  1  0  0  3  0  0  0  0  0  0
  184.4890  176.7340  139.0100 C   0  0  0  0  0  2  0  0  0  0  0  0
  184.4240  178.4310  143.8290 C   0  0  0  0  0  0  0  0  0  0  0  0
  186.2620  178.4500  140.7220 C   0  0  0  0  0  0  0  0  0  0  0  0
  188.6870  177.7240  144.0990 C   0  0  0  0  0  2  0  0  0  0  0  0
  182.4950  178.9670  141.2970 C   0  0  0  0  0  0  0  0  0  0  0  0
  190.7790  177.6190  142.7630 C   0  0  0  0  0  1  0  0  0  0  0  0
  185.5840  178.8390  138.3190 N   0  0  0  0  0  2  0  0  0  0  0  0
  187.1600  175.9530  138.6400 O   0  0  0  0  0  1  0  0  0  0  0  0
  186.6160  179.0140  139.3460 C   0  0  2  0  0  3  0  0  0  0  0  0
  182.3150  179.2510  142.7410 C   0  0  0  0  0  3  0  0  0  0  0  0
  180.1090  178.4620  140.6720 C   0  0  0  0  0  3  0  0  0  0  0  0
  181.2690  179.2340  140.4900 C   0  0  0  0  0  0  0  0  0  0  0  0
  181.2330  180.3060  139.5800 C   0  0  0  0  0  3  0  0  0  0  0  0
  180.0550  181.6720  137.9340 N   0  0  0  0  0  1  0  0  0  0  0  0
  178.9310  179.8040  139.0320 C   0  0  0  0  0  3  0  0  0  0  0  0
  180.0730  180.5850  138.8510 C   0  0  0  0  0  0  0  0  0  0  0  0
  178.9470  178.7450  139.9450 C   0  0  0  0  0  3  0  0  0  0  0  0
  190.2000  177.7980  137.3050 O   0  0  0  0  0  1  0  0  0  0  0  0
  189.4290  178.9130  136.9670 C   0  0  0  0  0  2  0  0  0  0  0  0
  2 24  1  0  0  0  0
  2 22  1  0  0  0  0
  3  9  2  0  0  0  0
  3 20  1  0  0  0  0
  4  1  1  0  0  0  0
  5 10  1  0  0  0  0
  6 22  1  0  0  0  0
  6 11  2  0  0  0  0
  7  3  1  0  0  0  0
  8 18  1  0  0  0  0
  8 26  1  1  0  0  0
  9  6  1  0  0  0  0
 10 23  2  0  0  0  0
 10  7  1  0  0  0  0
 12  4  1  0  0  0  0
 12  8  1  0  0  0  0
 13  9  1  0  0  0  0
 14  2  1  0  0  0  0
 15 20  1  0  0  0  0
 16 11  1  0  0  0  0
 17 13  1  0  0  0  0
 17  2  1  0  0  0  0
 18 25  1  0  0  0  0
 18 19  1  1  0  0  0
 19  5  1  0  0  0  0
 20 16  2  0  0  0  0
 21  7  2  0  0  0  0
 21 13  1  0  0  0  0
 23 28  1  0  0  0  0
 25 27  1  0  0  0  0
 27  1  1  6  0  0  0
 27 21  1  0  0  0  0
 28 15  2  0  0  0  0
 30 29  1  0  0  0  0
 30 23  1  0  0  0  0
 31 30  2  0  0  0  0
 32 34  1  0  0  0  0
 33 35  1  0  0  0  0
 34 33  2  0  0  0  0
 34 31  1  0  0  0  0
 35 29  2  0  0  0  0
 37 36  1  0  0  0  0
 37  4  1  0  0  0  0
M  END
>  <MODEL>
4

>  <REMARK>
 VINA RESULT:      -6.0      3.465      8.419
  Name = 
  2 active torsions:
  status: ('A' for Active; 'I' for Inactive)
    1  A    between atoms: N_4  and  C_37
    2  A    between atoms: C_23  and  C_30
                            x       y       z     vdW  Elec       q    Type
                         _______ _______ _______ _____ _____    ______ ____

>  <TORSDO>
F 2

$$$$
=
 OpenBabel11122411303D

 37 43  0  0  1  0  0  0  0  0999 V2000
  184.1810  179.7520  139.0940 C   0  0  0  0  0  2  0  0  0  0  0  0
  187.0510  177.6700  136.6360 C   0  0  0  0  0  0  0  0  0  0  0  0
  188.1930  177.6540  140.6490 C   0  0  0  0  0  0  0  0  0  0  0  0
  182.8510  180.2380  139.4630 N   0  0  0  0  0  0  0  0  0  0  0  0
  185.3720  177.6170  143.2080 C   0  0  0  0  0  2  0  0  0  0  0  0
  188.8790  177.2930  138.3550 C   0  0  0  0  0  0  0  0  0  0  0  0
  187.0670  178.1600  141.2810 C   0  0  0  0  0  0  0  0  0  0  0  0
  182.6210  177.9200  140.5060 C   0  0  2  0  0  3  0  0  0  0  0  0
  187.9600  177.7090  139.3080 C   0  0  0  0  0  0  0  0  0  0  0  0
  186.7620  178.0180  142.7450 C   0  0  0  0  0  0  0  0  0  0  0  0
  190.1300  176.8490  138.8060 C   0  0  0  0  0  3  0  0  0  0  0  0
  181.9530  179.1230  139.8090 C   0  0  0  0  0  2  0  0  0  0  0  0
  186.7900  178.2810  139.0280 N   0  0  0  0  0  0  0  0  0  0  0  0
  186.3520  176.3220  136.6890 C   0  0  0  0  0  1  0  0  0  0  0  0
  189.8890  177.5030  142.4960 C   0  0  0  0  0  3  0  0  0  0  0  0
  190.4110  176.8480  140.1890 C   0  0  0  0  0  3  0  0  0  0  0  0
  186.4030  178.6290  137.6580 C   0  0  0  0  0  2  0  0  0  0  0  0
  183.5340  178.2780  141.6980 C   0  0  1  0  0  3  0  0  0  0  0  0
  184.4330  177.1280  142.1220 C   0  0  0  0  0  2  0  0  0  0  0  0
  189.4430  177.2630  141.1290 C   0  0  0  0  0  0  0  0  0  0  0  0
  186.2210  178.6120  140.2200 C   0  0  0  0  0  0  0  0  0  0  0  0
  188.5630  177.4820  136.8960 C   0  0  0  0  0  2  0  0  0  0  0  0
  187.7070  178.0780  143.7260 C   0  0  0  0  0  0  0  0  0  0  0  0
  186.8680  178.2490  135.2490 C   0  0  0  0  0  1  0  0  0  0  0  0
  184.2930  179.5320  141.5690 N   0  0  0  0  0  2  0  0  0  0  0  0
  183.2720  177.1110  139.5670 O   0  0  0  0  0  1  0  0  0  0  0  0
  185.0790  179.6220  140.3350 C   0  0  2  0  0  3  0  0  0  0  0  0
  189.1650  177.8740  143.5490 C   0  0  0  0  0  3  0  0  0  0  0  0
  186.0620  178.8420  145.4730 C   0  0  0  0  0  3  0  0  0  0  0  0
  187.3130  178.2890  145.1490 C   0  0  0  0  0  0  0  0  0  0  0  0
  188.1610  177.8770  146.1930 C   0  0  0  0  0  3  0  0  0  0  0  0
  188.6490  177.6140  148.5710 N   0  0  0  0  0  1  0  0  0  0  0  0
  186.5390  178.5960  147.8370 C   0  0  0  0  0  3  0  0  0  0  0  0
  187.7790  178.0350  147.5280 C   0  0  0  0  0  0  0  0  0  0  0  0
  185.6790  178.9960  146.8090 C   0  0  0  0  0  3  0  0  0  0  0  0
  181.3560  181.8420  138.6620 O   0  0  0  0  0  1  0  0  0  0  0  0
  182.2800  180.8640  138.2830 C   0  0  0  0  0  2  0  0  0  0  0  0
  1  4  1  0  0  0  0
  2 14  1  0  0  0  0
  2 22  1  0  0  0  0
  2 17  1  0  0  0  0
  3 20  1  0  0  0  0
  3  7  1  0  0  0  0
  4 12  1  0  0  0  0
  6 11  2  0  0  0  0
  6  9  1  0  0  0  0
  7 10  1  0  0  0  0
  8 26  1  6  0  0  0
  8 18  1  0  0  0  0
  9  3  2  0  0  0  0
 10  5  1  0  0  0  0
 10 23  2  0  0  0  0
 11 16  1  0  0  0  0
 12  8  1  0  0  0  0
 13  9  1  0  0  0  0
 13 21  1  0  0  0  0
 15 28  2  0  0  0  0
 16 20  2  0  0  0  0
 17 13  1  0  0  0  0
 18 19  1  6  0  0  0
 19  5  1  0  0  0  0
 20 15  1  0  0  0  0
 21 27  1  0  0  0  0
 21  7  2  0  0  0  0
 22  6  1  0  0  0  0
 23 30  1  0  0  0  0
 24  2  1  0  0  0  0
 25 18  1  0  0  0  0
 27  1  1  6  0  0  0
 27 25  1  0  0  0  0
 28 23  1  0  0  0  0
 29 35  1  0  0  0  0
 30 29  2  0  0  0  0
 30 31  1  0  0  0  0
 31 34  2  0  0  0  0
 34 33  1  0  0  0  0
 34 32  1  0  0  0  0
 35 33  2  0  0  0  0
 37 36  1  0  0  0  0
 37  4  1  0  0  0  0
M  END
>  <MODEL>
5

>  <REMARK>
 VINA RESULT:      -5.8      3.220      6.597
  Name = 
  2 active torsions:
  status: ('A' for Active; 'I' for Inactive)
    1  A    between atoms: N_4  and  C_37
    2  A    between atoms: C_23  and  C_30
                            x       y       z     vdW  Elec       q    Type
                         _______ _______ _______ _____ _____    ______ ____

>  <TORSDO>
F 2

$$$$
=
 OpenBabel11122411303D

 37 43  0  0  1  0  0  0  0  0999 V2000
  190.1430  175.8440  138.6800 C   0  0  0  0  0  2  0  0  0  0  0  0
  186.9330  178.1680  136.9740 C   0  0  0  0  0  0  0  0  0  0  0  0
  186.8040  178.2320  141.1430 C   0  0  0  0  0  0  0  0  0  0  0  0
  191.4800  175.2530  138.7200 N   0  0  0  0  0  0  0  0  0  0  0  0
  190.1550  178.0240  142.9410 C   0  0  0  0  0  2  0  0  0  0  0  0
  185.6120  178.6690  139.0820 C   0  0  0  0  0  0  0  0  0  0  0  0
  188.0070  177.6340  141.4880 C   0  0  0  0  0  0  0  0  0  0  0  0
  192.1370  177.5350  139.6550 C   0  0  2  0  0  3  0  0  0  0  0  0
  186.6990  178.1730  139.7860 C   0  0  0  0  0  0  0  0  0  0  0  0
  188.6680  177.7370  142.8330 C   0  0  0  0  0  0  0  0  0  0  0  0
  184.5470  179.2040  139.8180 C   0  0  0  0  0  3  0  0  0  0  0  0
  192.5200  176.2900  138.8280 C   0  0  0  0  0  2  0  0  0  0  0  0
  187.7180  177.5140  139.2360 N   0  0  0  0  0  0  0  0  0  0  0  0
  187.7270  179.4570  136.8440 C   0  0  0  0  0  1  0  0  0  0  0  0
  185.6240  178.4950  143.3460 C   0  0  0  0  0  3  0  0  0  0  0  0
  184.6100  179.2130  141.2280 C   0  0  0  0  0  3  0  0  0  0  0  0
  187.7330  177.1510  137.8170 C   0  0  0  0  0  2  0  0  0  0  0  0
  191.5150  177.2370  141.0360 C   0  0  1  0  0  3  0  0  0  0  0  0
  190.8380  178.4490  141.6560 C   0  0  0  0  0  2  0  0  0  0  0  0
  185.7420  178.7150  141.9100 C   0  0  0  0  0  0  0  0  0  0  0  0
  188.5320  177.1280  140.2580 C   0  0  0  0  0  0  0  0  0  0  0  0
  185.5490  178.4700  137.5910 C   0  0  0  0  0  2  0  0  0  0  0  0
  187.9870  177.7400  144.0150 C   0  0  0  0  0  0  0  0  0  0  0  0
  186.7290  177.5910  135.5890 C   0  0  0  0  0  1  0  0  0  0  0  0
  190.6520  176.0470  141.1070 N   0  0  0  0  0  2  0  0  0  0  0  0
  191.3420  178.4010  138.8950 O   0  0  0  0  0  1  0  0  0  0  0  0
  189.5850  176.0310  140.1010 C   0  0  2  0  0  3  0  0  0  0  0  0
  186.5500  178.0590  144.1950 C   0  0  0  0  0  3  0  0  0  0  0  0
  188.0190  177.5910  146.5280 C   0  0  0  0  0  3  0  0  0  0  0  0
  188.6970  177.4850  145.3010 C   0  0  0  0  0  0  0  0  0  0  0  0
  190.0400  177.0670  145.3050 C   0  0  0  0  0  3  0  0  0  0  0  0
  192.0560  176.3660  146.4900 N   0  0  0  0  0  1  0  0  0  0  0  0
  190.0170  176.9070  147.7180 C   0  0  0  0  0  3  0  0  0  0  0  0
  190.6970  176.7850  146.5060 C   0  0  0  0  0  0  0  0  0  0  0  0
  188.6760  177.3060  147.7290 C   0  0  0  0  0  3  0  0  0  0  0  0
  190.6740  173.6760  137.2000 O   0  0  0  0  0  1  0  0  0  0  0  0
  191.6970  174.5960  137.4430 C   0  0  0  0  0  2  0  0  0  0  0  0
  1  4  1  0  0  0  0
  2 22  1  0  0  0  0
  2 17  1  0  0  0  0
  3  7  1  0  0  0  0
  3 20  1  0  0  0  0
  4 12  1  0  0  0  0
  6  9  1  0  0  0  0
  6 11  2  0  0  0  0
  7 10  1  0  0  0  0
  8 26  1  6  0  0  0
  8 18  1  0  0  0  0
  9  3  2  0  0  0  0
 10  5  1  0  0  0  0
 10 23  2  0  0  0  0
 11 16  1  0  0  0  0
 12  8  1  0  0  0  0
 13  9  1  0  0  0  0
 13 21  1  0  0  0  0
 14  2  1  0  0  0  0
 15 28  2  0  0  0  0
 16 20  2  0  0  0  0
 17 13  1  0  0  0  0
 18 25  1  0  0  0  0
 18 19  1  6  0  0  0
 19  5  1  0  0  0  0
 20 15  1  0  0  0  0
 21  7  2  0  0  0  0
 22  6  1  0  0  0  0
 23 28  1  0  0  0  0
 23 30  1  0  0  0  0
 24  2  1  0  0  0  0
 27  1  1  6  0  0  0
 27 21  1  0  0  0  0
 27 25  1  0  0  0  0
 29 35  1  0  0  0  0
 30 31  1  0  0  0  0
 30 29  2  0  0  0  0
 31 34  2  0  0  0  0
 32 34  1  0  0  0  0
 33 35  2  0  0  0  0
 34 33  1  0  0  0  0
 36 37  1  0  0  0  0
 37  4  1  0  0  0  0
M  END
>  <MODEL>
6

>  <REMARK>
 VINA RESULT:      -5.6      2.110      3.970
  Name = 
  2 active torsions:
  status: ('A' for Active; 'I' for Inactive)
    1  A    between atoms: N_4  and  C_37
    2  A    between atoms: C_23  and  C_30
                            x       y       z     vdW  Elec       q    Type
                         _______ _______ _______ _____ _____    ______ ____

>  <TORSDO>
F 2

$$$$
=
 OpenBabel11122411303D

 37 43  0  0  1  0  0  0  0  0999 V2000
  186.7270  177.2490  137.5910 C   0  0  0  0  0  2  0  0  0  0  0  0
  183.1630  179.3270  138.8530 C   0  0  0  0  0  0  0  0  0  0  0  0
  185.5300  178.2550  142.1160 C   0  0  0  0  0  0  0  0  0  0  0  0
  187.8200  176.9190  136.6770 N   0  0  0  0  0  0  0  0  0  0  0  0
  189.2920  178.1810  141.5230 C   0  0  0  0  0  2  0  0  0  0  0  0
  183.3550  179.0030  141.3620 C   0  0  0  0  0  0  0  0  0  0  0  0
  186.6950  177.8130  141.5070 C   0  0  0  0  0  0  0  0  0  0  0  0
  188.9340  178.9490  137.7490 C   0  0  2  0  0  3  0  0  0  0  0  0
  184.6410  178.5420  141.1240 C   0  0  0  0  0  0  0  0  0  0  0  0
  188.0260  177.6710  142.1890 C   0  0  0  0  0  0  0  0  0  0  0  0
  182.9410  179.1230  142.6950 C   0  0  0  0  0  3  0  0  0  0  0  0
  188.7360  178.0590  136.5040 C   0  0  0  0  0  2  0  0  0  0  0  0
  185.1270  178.2470  139.9200 N   0  0  0  0  0  0  0  0  0  0  0  0
  183.7430  180.7260  138.7180 C   0  0  0  0  0  1  0  0  0  0  0  0
  185.8880  177.7060  144.5410 C   0  0  0  0  0  3  0  0  0  0  0  0
  183.8270  178.7680  143.7340 C   0  0  0  0  0  3  0  0  0  0  0  0
  184.2930  178.2840  138.7150 C   0  0  0  0  0  2  0  0  0  0  0  0
  189.2480  178.1880  139.0540 C   0  0  1  0  0  3  0  0  0  0  0  0
  189.0860  179.0490  140.2970 C   0  0  0  0  0  2  0  0  0  0  0  0
  185.1350  178.3170  143.4530 C   0  0  0  0  0  0  0  0  0  0  0  0
  186.3820  177.7560  140.1120 C   0  0  0  0  0  0  0  0  0  0  0  0
  182.4180  179.2010  140.2000 C   0  0  0  0  0  2  0  0  0  0  0  0
  188.1770  177.2380  143.4730 C   0  0  0  0  0  0  0  0  0  0  0  0
  182.1700  179.1130  137.7300 C   0  0  0  0  0  1  0  0  0  0  0  0
  188.5780  176.8870  139.2140 N   0  0  0  0  0  2  0  0  0  0  0  0
  187.8560  179.8290  137.8980 O   0  0  0  0  0  1  0  0  0  0  0  0
  187.1230  176.9480  139.0460 C   0  0  2  0  0  3  0  0  0  0  0  0
  187.1310  177.2330  144.5240 C   0  0  0  0  0  3  0  0  0  0  0  0
  190.3650  176.0360  143.1400 C   0  0  0  0  0  3  0  0  0  0  0  0
  189.5080  176.7800  143.9690 C   0  0  0  0  0  0  0  0  0  0  0  0
  189.9550  177.1440  145.2520 C   0  0  0  0  0  3  0  0  0  0  0  0
  191.6530  177.1280  147.0060 N   0  0  0  0  0  1  0  0  0  0  0  0
  192.0550  176.0030  144.8770 C   0  0  0  0  0  3  0  0  0  0  0  0
  191.2180  176.7530  145.7050 C   0  0  0  0  0  0  0  0  0  0  0  0
  191.6310  175.6490  143.5930 C   0  0  0  0  0  3  0  0  0  0  0  0
  186.8690  177.8890  134.7790 O   0  0  0  0  0  1  0  0  0  0  0  0
  187.2290  176.6760  135.3720 C   0  0  0  0  0  2  0  0  0  0  0  0
  2 22  1  0  0  0  0
  3 20  1  0  0  0  0
  4  1  1  0  0  0  0
  5 10  1  0  0  0  0
  6 11  2  0  0  0  0
  7  3  1  0  0  0  0
  7 10  1  0  0  0  0
  8 26  1  1  0  0  0
  8 18  1  0  0  0  0
  9  6  1  0  0  0  0
  9  3  2  0  0  0  0
 10 23  2  0  0  0  0
 11 16  1  0  0  0  0
 12  4  1  0  0  0  0
 12  8  1  0  0  0  0
 13 21  1  0  0  0  0
 13  9  1  0  0  0  0
 14  2  1  0  0  0  0
 17  2  1  0  0  0  0
 17 13  1  0  0  0  0
 18 25  1  0  0  0  0
 18 19  1  1  0  0  0
 19  5  1  0  0  0  0
 20 16  2  0  0  0  0
 20 15  1  0  0  0  0
 21  7  2  0  0  0  0
 22  6  1  0  0  0  0
 23 30  1  0  0  0  0
 23 28  1  0  0  0  0
 24  2  1  0  0  0  0
 27  1  1  6  0  0  0
 27 25  1  0  0  0  0
 27 21  1  0  0  0  0
 28 15  2  0  0  0  0
 29 35  2  0  0  0  0
 29 30  1  0  0  0  0
 30 31  2  0  0  0  0
 31 34  1  0  0  0  0
 33 34  2  0  0  0  0
 34 32  1  0  0  0  0
 35 33  1  0  0  0  0
 36 37  1  0  0  0  0
 37  4  1  0  0  0  0
M  END
>  <MODEL>
7

>  <REMARK>
 VINA RESULT:      -5.6      2.516      3.933
  Name = 
  2 active torsions:
  status: ('A' for Active; 'I' for Inactive)
    1  A    between atoms: N_4  and  C_37
    2  A    between atoms: C_23  and  C_30
                            x       y       z     vdW  Elec       q    Type
                         _______ _______ _______ _____ _____    ______ ____

>  <TORSDO>
F 2

$$$$
=
 OpenBabel11122411303D

 37 43  0  0  1  0  0  0  0  0999 V2000
  185.6940  177.1300  136.9030 C   0  0  0  0  0  2  0  0  0  0  0  0
  182.1400  179.1310  138.3100 C   0  0  0  0  0  0  0  0  0  0  0  0
  184.8290  178.4440  141.4250 C   0  0  0  0  0  0  0  0  0  0  0  0
  186.7220  176.7790  135.9230 N   0  0  0  0  0  0  0  0  0  0  0  0
  188.5260  178.5020  140.5090 C   0  0  0  0  0  2  0  0  0  0  0  0
  182.5600  179.0220  140.8100 C   0  0  0  0  0  0  0  0  0  0  0  0
  185.9610  178.0100  140.7500 C   0  0  0  0  0  0  0  0  0  0  0  0
  187.8090  178.9410  136.7330 C   0  0  2  0  0  3  0  0  0  0  0  0
  183.8450  178.6060  140.4960 C   0  0  0  0  0  0  0  0  0  0  0  0
  187.3510  177.9880  141.3210 C   0  0  0  0  0  0  0  0  0  0  0  0
  182.2540  179.2310  142.1620 C   0  0  0  0  0  3  0  0  0  0  0  0
  187.5560  177.9440  135.5830 C   0  0  0  0  0  2  0  0  0  0  0  0
  184.2430  178.2370  139.2790 N   0  0  0  0  0  0  0  0  0  0  0  0
  182.6290  180.5400  138.0180 C   0  0  0  0  0  1  0  0  0  0  0  0
  185.4210  178.1130  143.8440 C   0  0  0  0  0  3  0  0  0  0  0  0
  183.2430  179.0050  143.1430 C   0  0  0  0  0  3  0  0  0  0  0  0
  183.3090  178.1350  138.1550 C   0  0  0  0  0  2  0  0  0  0  0  0
  188.2730  178.3050  138.0600 C   0  0  1  0  0  3  0  0  0  0  0  0
  188.1700  179.2560  139.2420 C   0  0  0  0  0  2  0  0  0  0  0  0
  184.5460  178.5960  142.7830 C   0  0  0  0  0  0  0  0  0  0  0  0
  185.5350  177.8240  139.3980 C   0  0  0  0  0  0  0  0  0  0  0  0
  181.5190  179.0790  139.7240 C   0  0  0  0  0  2  0  0  0  0  0  0
  187.6340  177.6690  142.6160 C   0  0  0  0  0  0  0  0  0  0  0  0
  181.0690  178.7780  137.3000 C   0  0  0  0  0  1  0  0  0  0  0  0
  187.6920  176.9910  138.3780 N   0  0  0  0  0  2  0  0  0  0  0  0
  186.7010  179.7780  136.9080 O   0  0  0  0  0  1  0  0  0  0  0  0
  186.2260  176.9680  138.3360 C   0  0  2  0  0  3  0  0  0  0  0  0
  186.6820  177.7000  143.7530 C   0  0  0  0  0  3  0  0  0  0  0  0
  189.5080  176.0070  142.8740 C   0  0  0  0  0  3  0  0  0  0  0  0
  189.0240  177.3180  143.0260 C   0  0  0  0  0  0  0  0  0  0  0  0
  189.8970  178.3090  143.5100 C   0  0  0  0  0  3  0  0  0  0  0  0
  192.0830  179.0080  144.3440 N   0  0  0  0  0  1  0  0  0  0  0  0
  191.6790  176.6850  143.7110 C   0  0  0  0  0  3  0  0  0  0  0  0
  191.2150  177.9930  143.8560 C   0  0  0  0  0  0  0  0  0  0  0  0
  190.8270  175.6930  143.2160 C   0  0  0  0  0  3  0  0  0  0  0  0
  184.7360  176.9130  134.7050 O   0  0  0  0  0  1  0  0  0  0  0  0
  186.0370  176.4020  134.6990 C   0  0  0  0  0  2  0  0  0  0  0  0
  2 22  1  0  0  0  0
  3 20  1  0  0  0  0
  4  1  1  0  0  0  0
  5 10  1  0  0  0  0
  6 11  2  0  0  0  0
  7 10  1  0  0  0  0
  7  3  1  0  0  0  0
  8 26  1  1  0  0  0
  8 18  1  0  0  0  0
  9  6  1  0  0  0  0
  9  3  2  0  0  0  0
 10 23  2  0  0  0  0
 11 16  1  0  0  0  0
 12  4  1  0  0  0  0
 12  8  1  0  0  0  0
 13 21  1  0  0  0  0
 13  9  1  0  0  0  0
 14  2  1  0  0  0  0
 17  2  1  0  0  0  0
 17 13  1  0  0  0  0
 18 25  1  0  0  0  0
 18 19  1  1  0  0  0
 19  5  1  0  0  0  0
 20 16  2  0  0  0  0
 20 15  1  0  0  0  0
 21  7  2  0  0  0  0
 22  6  1  0  0  0  0
 23 30  1  0  0  0  0
 23 28  1  0  0  0  0
 24  2  1  0  0  0  0
 27  1  1  6  0  0  0
 27 25  1  0  0  0  0
 27 21  1  0  0  0  0
 28 15  2  0  0  0  0
 29 30  2  0  0  0  0
 29 35  1  0  0  0  0
 30 31  1  0  0  0  0
 31 34  2  0  0  0  0
 33 34  1  0  0  0  0
 34 32  1  0  0  0  0
 35 33  2  0  0  0  0
 37 36  1  0  0  0  0
 37  4  1  0  0  0  0
M  END
>  <MODEL>
8

>  <REMARK>
 VINA RESULT:      -5.5      3.309      5.072
  Name = 
  2 active torsions:
  status: ('A' for Active; 'I' for Inactive)
    1  A    between atoms: N_4  and  C_37
    2  A    between atoms: C_23  and  C_30
                            x       y       z     vdW  Elec       q    Type
                         _______ _______ _______ _____ _____    ______ ____

>  <TORSDO>
F 2

$$$$
=
 OpenBabel11122411303D

 37 43  0  0  1  0  0  0  0  0999 V2000
  188.6640  176.6550  137.7310 C   0  0  0  0  0  2  0  0  0  0  0  0
  192.3490  175.3250  135.9240 C   0  0  0  0  0  0  0  0  0  0  0  0
  189.2970  172.5350  135.3770 C   0  0  0  0  0  0  0  0  0  0  0  0
  187.6900  177.6450  138.1910 N   0  0  0  0  0  0  0  0  0  0  0  0
  185.7670  173.9300  135.0680 C   0  0  0  0  0  2  0  0  0  0  0  0
  191.6790  172.9590  135.2970 C   0  0  0  0  0  0  0  0  0  0  0  0
  188.1780  173.2260  135.8190 C   0  0  0  0  0  0  0  0  0  0  0  0
  186.9050  177.5620  135.7640 C   0  0  2  0  0  3  0  0  0  0  0  0
  190.3780  173.3310  135.6060 C   0  0  0  0  0  0  0  0  0  0  0  0
  186.7560  172.8620  135.4990 C   0  0  0  0  0  0  0  0  0  0  0  0
  191.8840  171.6750  134.7760 C   0  0  0  0  0  3  0  0  0  0  0  0
  187.0980  178.3780  137.0580 C   0  0  0  0  0  2  0  0  0  0  0  0
  190.0440  174.4580  136.2310 N   0  0  0  0  0  0  0  0  0  0  0  0
  192.1310  176.0260  134.5940 C   0  0  0  0  0  1  0  0  0  0  0  0
  188.4300  170.2140  134.9610 C   0  0  0  0  0  3  0  0  0  0  0  0
  190.7820  170.8130  134.5940 C   0  0  0  0  0  3  0  0  0  0  0  0
  191.0510  175.3830  136.7570 C   0  0  0  0  0  2  0  0  0  0  0  0
  186.2170  176.1930  135.9500 C   0  0  1  0  0  3  0  0  0  0  0  0
  186.3630  175.2850  134.7390 C   0  0  0  0  0  2  0  0  0  0  0  0
  189.4700  171.2330  134.9040 C   0  0  0  0  0  0  0  0  0  0  0  0
  188.6950  174.4170  136.4190 C   0  0  0  0  0  0  0  0  0  0  0  0
  192.8140  173.8730  135.6760 C   0  0  0  0  0  2  0  0  0  0  0  0
  186.3020  171.5800  135.4160 C   0  0  0  0  0  0  0  0  0  0  0  0
  193.4390  176.0590  136.6770 C   0  0  0  0  0  1  0  0  0  0  0  0
  186.5380  175.4780  137.1960 N   0  0  0  0  0  2  0  0  0  0  0  0
  188.1150  177.4530  135.0690 O   0  0  0  0  0  1  0  0  0  0  0  0
  187.9770  175.3130  137.4270 C   0  0  2  0  0  3  0  0  0  0  0  0
  187.1320  170.3690  135.2080 C   0  0  0  0  0  3  0  0  0  0  0  0
  184.2980  170.2370  134.6930 C   0  0  0  0  0  3  0  0  0  0  0  0
  184.8390  171.2880  135.4520 C   0  0  0  0  0  0  0  0  0  0  0  0
  183.9870  172.0200  136.2990 C   0  0  0  0  0  3  0  0  0  0  0  0
  181.7750  172.4740  137.2290 N   0  0  0  0  0  1  0  0  0  0  0  0
  182.0950  170.6840  135.6000 C   0  0  0  0  0  3  0  0  0  0  0  0
  182.6220  171.7230  136.3680 C   0  0  0  0  0  0  0  0  0  0  0  0
  182.9330  169.9380  134.7650 C   0  0  0  0  0  3  0  0  0  0  0  0
  188.9970  179.5780  138.1240 O   0  0  0  0  0  1  0  0  0  0  0  0
  188.4170  178.6310  138.9720 C   0  0  0  0  0  2  0  0  0  0  0  0
  1  4  1  0  0  0  0
  2 24  1  0  0  0  0
  2 17  1  0  0  0  0
  3  9  1  0  0  0  0
  3  7  1  0  0  0  0
  4 37  1  0  0  0  0
  5 10  1  0  0  0  0
  6  9  2  0  0  0  0
  6 22  1  0  0  0  0
  7 21  2  0  0  0  0
  8 26  1  1  0  0  0
  8 18  1  0  0  0  0
  8 12  1  0  0  0  0
  9 13  1  0  0  0  0
 10  7  1  0  0  0  0
 11  6  1  0  0  0  0
 12  4  1  0  0  0  0
 13 21  1  0  0  0  0
 13 17  1  0  0  0  0
 14  2  1  0  0  0  0
 15 28  2  0  0  0  0
 16 11  2  0  0  0  0
 16 20  1  0  0  0  0
 18 19  1  6  0  0  0
 18 25  1  0  0  0  0
 19  5  1  0  0  0  0
 20 15  1  0  0  0  0
 20  3  2  0  0  0  0
 21 27  1  0  0  0  0
 22  2  1  0  0  0  0
 23 30  1  0  0  0  0
 23 10  2  0  0  0  0
 25 27  1  0  0  0  0
 27  1  1  6  0  0  0
 28 23  1  0  0  0  0
 29 35  2  0  0  0  0
 29 30  1  0  0  0  0
 30 31  2  0  0  0  0
 31 34  1  0  0  0  0
 33 34  2  0  0  0  0
 34 32  1  0  0  0  0
 35 33  1  0  0  0  0
 36 37  1  0  0  0  0
M  END
>  <MODEL>
9

>  <REMARK>
 VINA RESULT:      -5.5      7.038     11.726
  Name = 
  2 active torsions:
  status: ('A' for Active; 'I' for Inactive)
    1  A    between atoms: N_4  and  C_37
    2  A    between atoms: C_23  and  C_30
                            x       y       z     vdW  Elec       q    Type
                         _______ _______ _______ _____ _____    ______ ____

>  <TORSDO>
F 2

$$$$
