=
 OpenBabel11122410433D

 32 38  0  0  1  0  0  0  0  0999 V2000
  181.9840  176.3450  137.0210 C   0  0  1  0  0  3  0  0  0  0  0  0
  184.4860  178.6920  141.0700 C   0  0  1  0  0  3  0  0  0  0  0  0
  188.8630  178.0100  138.8830 C   0  0  0  0  0  3  0  0  0  0  0  0
  189.4340  177.8400  140.1520 O   0  0  0  0  0  0  0  0  0  0  0  0
  184.3930  179.1550  143.5370 C   0  0  0  0  0  0  0  0  0  0  0  0
  185.0840  179.3480  144.8540 C   0  0  1  0  0  3  0  0  0  0  0  0
  182.7910  177.4930  139.6800 C   0  0  1  0  0  3  0  0  0  0  0  0
  184.7120  178.6810  138.5400 C   0  0  0  0  0  2  0  0  0  0  0  0
  186.3560  177.8310  146.0430 C   0  0  0  0  0  0  0  0  0  0  0  0
  183.0740  177.4160  137.1010 C   0  0  2  0  0  3  0  0  0  0  0  0
  187.5670  178.2950  138.7550 C   0  0  0  0  0  3  0  0  0  0  0  0
  185.4080  178.6730  139.8690 C   0  0  0  0  0  0  0  0  0  0  0  0
  186.7270  178.4310  139.9640 C   0  0  0  0  0  0  0  0  0  0  0  0
  186.5660  178.4270  142.5030 C   0  0  0  0  0  0  0  0  0  0  0  0
  185.2050  178.0520  146.8380 N   0  0  0  0  0  2  0  0  0  0  0  0
  181.7910  175.5440  138.3290 C   0  0  0  0  0  2  0  0  0  0  0  0
  183.7620  177.4860  138.4790 C   0  0  2  0  0  3  0  0  0  0  0  0
  184.2790  178.8750  146.0690 C   0  0  0  0  0  2  0  0  0  0  0  0
  181.7700  176.3540  139.6340 C   0  0  0  0  0  2  0  0  0  0  0  0
  181.6020  177.8150  137.1200 C   0  0  1  0  0  3  0  0  0  0  0  0
  188.6830  177.9720  141.3290 C   0  0  0  0  0  3  0  0  0  0  0  0
  187.3720  178.2570  141.2820 C   0  0  0  0  0  0  0  0  0  0  0  0
  187.1120  178.2440  143.7170 C   0  0  0  0  0  3  0  0  0  0  0  0
  183.5550  177.4790  141.0040 C   0  0  0  0  0  2  0  0  0  0  0  0
  183.1620  179.4090  143.4330 O   0  0  0  0  0  0  0  0  0  0  0  0
  187.3940  176.8210  146.3910 C   0  0  0  0  0  1  0  0  0  0  0  0
  185.1650  178.7730  142.3730 N   0  0  0  0  0  0  0  0  0  0  0  0
  186.2920  178.4890  144.9040 C   0  0  0  0  0  0  0  0  0  0  0  0
  181.2060  178.3240  135.7480 C   0  0  0  0  0  2  0  0  0  0  0  0
  180.9220  179.7830  135.8140 C   0  0  0  0  0  0  0  0  0  0  0  0
  180.7540  180.5120  134.6450 O   0  0  0  0  0  0  0  0  0  0  0  0
  180.8660  180.3630  136.9300 O   0  0  0  0  0  1  0  0  0  0  0  0
  1 10  1  0  0  0  0
  1 20  1  0  0  0  0
  1 16  1  1  0  0  0
  2 24  1  1  0  0  0
  2 27  1  0  0  0  0
  3  4  1  0  0  0  0
  4 21  1  0  0  0  0
  5  6  1  0  0  0  0
  6 28  1  0  0  0  0
  6 18  1  1  0  0  0
  7 19  1  6  0  0  0
  7 24  1  0  0  0  0
  8 12  1  0  0  0  0
  9 26  1  0  0  0  0
  9 15  1  0  0  0  0
 10 20  1  0  0  0  0
 10 17  1  0  0  0  0
 11  3  2  0  0  0  0
 11 13  1  0  0  0  0
 12 13  2  0  0  0  0
 12  2  1  0  0  0  0
 13 22  1  0  0  0  0
 14 23  2  0  0  0  0
 16 19  1  0  0  0  0
 17  8  1  0  0  0  0
 17  7  1  0  0  0  0
 18 15  1  0  0  0  0
 22 21  2  0  0  0  0
 22 14  1  0  0  0  0
 23 28  1  0  0  0  0
 25  5  2  0  0  0  0
 27 14  1  0  0  0  0
 27  5  1  0  0  0  0
 28  9  2  0  0  0  0
 29 30  1  0  0  0  0
 29 20  1  0  0  0  0
 30 32  1  0  0  0  0
 31 30  2  0  0  0  0
M  END
>  <MODEL>
1

>  <REMARK>
 VINA RESULT:      -7.4      0.000      0.000
  Name = 
  2 active torsions:
  status: ('A' for Active; 'I' for Inactive)
    1  A    between atoms: C_20  and  C_29
    2  A    between atoms: C_29  and  C_30
                            x       y       z     vdW  Elec       q    Type
                         _______ _______ _______ _____ _____    ______ ____

>  <TORSDO>
F 2

$$$$
=
 OpenBabel11122410433D

 32 38  0  0  1  0  0  0  0  0999 V2000
  194.7640  173.1240  137.3230 C   0  0  1  0  0  3  0  0  0  0  0  0
  190.9460  176.8020  137.0860 C   0  0  1  0  0  3  0  0  0  0  0  0
  191.0430  177.3530  141.9960 C   0  0  0  0  0  3  0  0  0  0  0  0
  189.6620  177.5940  141.9620 O   0  0  0  0  0  0  0  0  0  0  0  0
  188.9410  177.5850  135.7930 C   0  0  0  0  0  0  0  0  0  0  0  0
  187.5790  178.2120  135.7510 C   0  0  1  0  0  3  0  0  0  0  0  0
  192.4540  174.8850  136.5460 C   0  0  1  0  0  3  0  0  0  0  0  0
  193.0880  176.4730  138.4120 C   0  0  0  0  0  2  0  0  0  0  0  0
  185.6160  177.4400  136.6910 C   0  0  0  0  0  0  0  0  0  0  0  0
  194.5990  174.5070  137.9590 C   0  0  2  0  0  3  0  0  0  0  0  0
  191.7210  177.1450  140.8670 C   0  0  0  0  0  3  0  0  0  0  0  0
  191.6540  176.9170  138.4200 C   0  0  0  0  0  0  0  0  0  0  0  0
  191.0090  177.1680  139.5720 C   0  0  0  0  0  0  0  0  0  0  0  0
  188.8300  177.5070  138.3030 C   0  0  0  0  0  0  0  0  0  0  0  0
  185.4090  177.3680  135.2930 N   0  0  0  0  0  2  0  0  0  0  0  0
  193.4510  172.5230  136.7730 C   0  0  0  0  0  2  0  0  0  0  0  0
  193.1480  175.0280  137.9190 C   0  0  2  0  0  3  0  0  0  0  0  0
  186.6710  177.6860  134.6340 C   0  0  0  0  0  2  0  0  0  0  0  0
  192.5440  173.4690  135.9720 C   0  0  0  0  0  2  0  0  0  0  0  0
  195.2470  174.3650  136.5850 C   0  0  1  0  0  3  0  0  0  0  0  0
  188.9440  177.6400  140.7590 C   0  0  0  0  0  3  0  0  0  0  0  0
  189.5560  177.4390  139.5830 C   0  0  0  0  0  0  0  0  0  0  0  0
  187.5040  177.7190  138.2770 C   0  0  0  0  0  3  0  0  0  0  0  0
  190.9980  175.3470  136.6170 C   0  0  0  0  0  2  0  0  0  0  0  0
  189.5660  177.3750  134.7170 O   0  0  0  0  0  0  0  0  0  0  0  0
  184.6290  176.9230  137.6800 C   0  0  0  0  0  1  0  0  0  0  0  0
  189.5680  177.3180  137.0700 N   0  0  0  0  0  0  0  0  0  0  0  0
  186.8350  177.8470  136.9810 C   0  0  0  0  0  0  0  0  0  0  0  0
  196.7510  174.4820  136.7300 C   0  0  0  0  0  2  0  0  0  0  0  0
  197.2460  175.6390  135.9350 C   0  0  0  0  0  0  0  0  0  0  0  0
  196.4140  176.7230  135.6930 O   0  0  0  0  0  1  0  0  0  0  0  0
  198.4100  175.6200  135.4550 O   0  0  0  0  0  0  0  0  0  0  0  0
  1 16  1  6  0  0  0
  1 10  1  0  0  0  0
  2 24  1  1  0  0  0
  2 12  1  0  0  0  0
  4  3  1  0  0  0  0
  5 27  1  0  0  0  0
  6 18  1  6  0  0  0
  6  5  1  0  0  0  0
  6 28  1  0  0  0  0
  7 19  1  1  0  0  0
  7 24  1  0  0  0  0
  7 17  1  0  0  0  0
  8 12  1  0  0  0  0
  9 28  2  0  0  0  0
  9 26  1  0  0  0  0
 11  3  2  0  0  0  0
 12 13  2  0  0  0  0
 13 22  1  0  0  0  0
 13 11  1  0  0  0  0
 14 22  1  0  0  0  0
 15  9  1  0  0  0  0
 17 10  1  0  0  0  0
 17  8  1  0  0  0  0
 18 15  1  0  0  0  0
 19 16  1  0  0  0  0
 20 29  1  0  0  0  0
 20  1  1  0  0  0  0
 20 10  1  0  0  0  0
 21  4  1  0  0  0  0
 22 21  2  0  0  0  0
 23 14  2  0  0  0  0
 25  5  2  0  0  0  0
 27  2  1  0  0  0  0
 27 14  1  0  0  0  0
 28 23  1  0  0  0  0
 30 29  1  0  0  0  0
 31 30  1  0  0  0  0
 32 30  2  0  0  0  0
M  END
>  <MODEL>
2

>  <REMARK>
 VINA RESULT:      -7.4      5.380     10.266
  Name = 
  2 active torsions:
  status: ('A' for Active; 'I' for Inactive)
    1  A    between atoms: C_20  and  C_29
    2  A    between atoms: C_29  and  C_30
                            x       y       z     vdW  Elec       q    Type
                         _______ _______ _______ _____ _____    ______ ____

>  <TORSDO>
F 2

$$$$
=
 OpenBabel11122410433D

 32 38  0  0  1  0  0  0  0  0999 V2000
  191.8420  173.7690  136.7490 C   0  0  1  0  0  3  0  0  0  0  0  0
  188.8240  177.6340  138.7800 C   0  0  1  0  0  3  0  0  0  0  0  0
  191.3530  177.5060  143.0220 C   0  0  0  0  0  3  0  0  0  0  0  0
  190.1670  177.8190  143.7000 O   0  0  0  0  0  0  0  0  0  0  0  0
  186.5440  178.6860  138.7290 C   0  0  0  0  0  0  0  0  0  0  0  0
  185.4130  179.3800  139.4260 C   0  0  1  0  0  3  0  0  0  0  0  0
  189.6570  175.7340  137.3870 C   0  0  1  0  0  3  0  0  0  0  0  0
  191.2890  177.0190  138.8320 C   0  0  0  0  0  2  0  0  0  0  0  0
  184.0810  178.5880  141.1390 C   0  0  0  0  0  0  0  0  0  0  0  0
  192.1610  175.0590  137.5090 C   0  0  2  0  0  3  0  0  0  0  0  0
  191.3700  177.4190  141.6920 C   0  0  0  0  0  3  0  0  0  0  0  0
  190.0990  177.5300  139.5910 C   0  0  0  0  0  0  0  0  0  0  0  0
  190.1260  177.6540  140.9290 C   0  0  0  0  0  0  0  0  0  0  0  0
  187.6580  178.2720  140.9440 C   0  0  0  0  0  0  0  0  0  0  0  0
  183.2150  178.7170  140.0270 N   0  0  0  0  0  2  0  0  0  0  0  0
  190.3700  173.3160  136.8670 C   0  0  0  0  0  2  0  0  0  0  0  0
  190.9420  175.6530  138.2420 C   0  0  2  0  0  3  0  0  0  0  0  0
  184.0250  179.0570  138.8620 C   0  0  0  0  0  2  0  0  0  0  0  0
  189.2990  174.4070  136.7140 C   0  0  0  0  0  2  0  0  0  0  0  0
  192.0400  175.0730  135.9880 C   0  0  1  0  0  3  0  0  0  0  0  0
  188.9650  178.0640  143.0210 C   0  0  0  0  0  3  0  0  0  0  0  0
  188.9020  177.9940  141.6830 C   0  0  0  0  0  0  0  0  0  0  0  0
  186.5190  178.5530  141.5980 C   0  0  0  0  0  3  0  0  0  0  0  0
  188.4800  176.2550  138.2120 C   0  0  0  0  0  2  0  0  0  0  0  0
  186.5410  178.5930  137.4710 O   0  0  0  0  0  0  0  0  0  0  0  0
  183.6480  177.9920  142.4330 C   0  0  0  0  0  1  0  0  0  0  0  0
  187.6790  178.2160  139.4960 N   0  0  0  0  0  0  0  0  0  0  0  0
  185.3240  178.8890  140.8230 C   0  0  0  0  0  0  0  0  0  0  0  0
  193.4270  175.0930  135.3780 C   0  0  0  0  0  2  0  0  0  0  0  0
  194.3540  175.8600  136.2560 C   0  0  0  0  0  0  0  0  0  0  0  0
  195.2910  175.1900  137.0290 O   0  0  0  0  0  1  0  0  0  0  0  0
  194.2640  177.1140  136.3210 O   0  0  0  0  0  0  0  0  0  0  0  0
  1 16  1  1  0  0  0
  1 10  1  0  0  0  0
  2 24  1  1  0  0  0
  2 27  1  0  0  0  0
  2 12  1  0  0  0  0
  3  4  1  0  0  0  0
  5  6  1  0  0  0  0
  5 27  1  0  0  0  0
  6 18  1  6  0  0  0
  6 28  1  0  0  0  0
  7 19  1  1  0  0  0
  7 24  1  0  0  0  0
  7 17  1  0  0  0  0
  8 12  1  0  0  0  0
  9 26  1  0  0  0  0
 10 17  1  0  0  0  0
 11  3  2  0  0  0  0
 12 13  2  0  0  0  0
 13 22  1  0  0  0  0
 13 11  1  0  0  0  0
 14 23  2  0  0  0  0
 14 22  1  0  0  0  0
 15  9  1  0  0  0  0
 17  8  1  0  0  0  0
 18 15  1  0  0  0  0
 19 16  1  0  0  0  0
 20  1  1  0  0  0  0
 20 10  1  0  0  0  0
 21  4  1  0  0  0  0
 22 21  2  0  0  0  0
 25  5  2  0  0  0  0
 27 14  1  0  0  0  0
 28  9  2  0  0  0  0
 28 23  1  0  0  0  0
 29 20  1  0  0  0  0
 29 30  1  0  0  0  0
 30 32  2  0  0  0  0
 30 31  1  0  0  0  0
M  END
>  <MODEL>
3

>  <REMARK>
 VINA RESULT:      -7.1      3.598      7.663
  Name = 
  2 active torsions:
  status: ('A' for Active; 'I' for Inactive)
    1  A    between atoms: C_20  and  C_29
    2  A    between atoms: C_29  and  C_30
                            x       y       z     vdW  Elec       q    Type
                         _______ _______ _______ _____ _____    ______ ____

>  <TORSDO>
F 2

$$$$
=
 OpenBabel11122410433D

 32 38  0  0  1  0  0  0  0  0999 V2000
  186.0520  177.2390  144.3320 C   0  0  1  0  0  3  0  0  0  0  0  0
  189.7060  177.8310  140.5290 C   0  0  1  0  0  3  0  0  0  0  0  0
  186.2520  177.4240  137.0190 C   0  0  0  0  0  3  0  0  0  0  0  0
  187.2000  176.7840  136.2080 O   0  0  0  0  0  0  0  0  0  0  0  0
  192.1190  177.4630  139.9390 C   0  0  0  0  0  0  0  0  0  0  0  0
  193.1800  177.1340  138.9310 C   0  0  1  0  0  3  0  0  0  0  0  0
  188.5790  177.3520  142.7080 C   0  0  1  0  0  3  0  0  0  0  0  0
  187.3250  178.6280  140.9180 C   0  0  0  0  0  2  0  0  0  0  0  0
  193.4660  175.1790  137.7360 C   0  0  0  0  0  0  0  0  0  0  0  0
  186.1190  178.0960  143.0660 C   0  0  2  0  0  3  0  0  0  0  0  0
  186.5910  177.8780  138.2270 C   0  0  0  0  0  3  0  0  0  0  0  0
  188.3380  178.1050  139.9410 C   0  0  0  0  0  0  0  0  0  0  0  0
  187.9760  177.7000  138.7110 C   0  0  0  0  0  0  0  0  0  0  0  0
  190.3410  176.8790  138.2610 C   0  0  0  0  0  0  0  0  0  0  0  0
  194.5870  175.2520  138.5990 N   0  0  0  0  0  2  0  0  0  0  0  0
  187.0740  176.0800  144.3620 C   0  0  0  0  0  2  0  0  0  0  0  0
  187.2000  177.6320  142.0700 C   0  0  2  0  0  3  0  0  0  0  0  0
  194.3870  176.3810  139.5010 C   0  0  0  0  0  2  0  0  0  0  0  0
  188.5050  176.4120  143.9130 C   0  0  0  0  0  2  0  0  0  0  0  0
  186.6740  178.6280  144.3850 C   0  0  1  0  0  3  0  0  0  0  0  0
  188.5290  176.6040  136.6160 C   0  0  0  0  0  3  0  0  0  0  0  0
  188.9450  177.0320  137.8180 C   0  0  0  0  0  0  0  0  0  0  0  0
  191.2410  176.2470  137.4890 C   0  0  0  0  0  3  0  0  0  0  0  0
  189.5660  176.8180  141.6680 C   0  0  0  0  0  2  0  0  0  0  0  0
  192.4510  177.8730  141.0850 O   0  0  0  0  0  0  0  0  0  0  0  0
  193.1960  174.0020  136.8640 C   0  0  0  0  0  1  0  0  0  0  0  0
  190.7240  177.4020  139.5570 N   0  0  0  0  0  0  0  0  0  0  0  0
  192.6320  176.1780  137.9390 C   0  0  0  0  0  0  0  0  0  0  0  0
  185.6810  179.6000  144.9870 C   0  0  0  0  0  2  0  0  0  0  0  0
  185.0780  179.0120  146.2140 C   0  0  0  0  0  0  0  0  0  0  0  0
  185.8610  178.8030  147.3410 O   0  0  0  0  0  1  0  0  0  0  0  0
  183.8660  178.6720  146.2190 O   0  0  0  0  0  0  0  0  0  0  0  0
  1 16  1  6  0  0  0
  1 20  1  0  0  0  0
  2 24  1  1  0  0  0
  3 11  2  0  0  0  0
  4 21  1  0  0  0  0
  4  3  1  0  0  0  0
  5 25  2  0  0  0  0
  6 18  1  1  0  0  0
  6  5  1  0  0  0  0
  7 24  1  6  0  0  0
  7 19  1  0  0  0  0
  8 17  1  0  0  0  0
  9 28  2  0  0  0  0
  9 15  1  0  0  0  0
 10  1  1  0  0  0  0
 10 20  1  0  0  0  0
 11 13  1  0  0  0  0
 12  2  1  0  0  0  0
 12  8  1  0  0  0  0
 13 12  2  0  0  0  0
 14 27  1  0  0  0  0
 15 18  1  0  0  0  0
 17  7  1  0  0  0  0
 17 10  1  0  0  0  0
 19 16  1  0  0  0  0
 20 29  1  0  0  0  0
 21 22  2  0  0  0  0
 22 14  1  0  0  0  0
 22 13  1  0  0  0  0
 23 28  1  0  0  0  0
 23 14  2  0  0  0  0
 26  9  1  0  0  0  0
 27  5  1  0  0  0  0
 27  2  1  0  0  0  0
 28  6  1  0  0  0  0
 29 30  1  0  0  0  0
 30 32  2  0  0  0  0
 30 31  1  0  0  0  0
M  END
>  <MODEL>
4

>  <REMARK>
 VINA RESULT:      -6.4      3.927      8.207
  Name = 
  2 active torsions:
  status: ('A' for Active; 'I' for Inactive)
    1  A    between atoms: C_20  and  C_29
    2  A    between atoms: C_29  and  C_30
                            x       y       z     vdW  Elec       q    Type
                         _______ _______ _______ _____ _____    ______ ____

>  <TORSDO>
F 2

$$$$
=
 OpenBabel11122410433D

 32 38  0  0  1  0  0  0  0  0999 V2000
  189.9410  176.3820  144.7190 C   0  0  1  0  0  3  0  0  0  0  0  0
  187.9310  178.4300  140.2540 C   0  0  1  0  0  3  0  0  0  0  0  0
  183.4220  178.6270  142.2640 C   0  0  0  0  0  3  0  0  0  0  0  0
  182.8830  178.3530  141.0000 O   0  0  0  0  0  0  0  0  0  0  0  0
  188.1780  178.5220  137.7560 C   0  0  0  0  0  0  0  0  0  0  0  0
  187.5710  178.6120  136.3880 C   0  0  1  0  0  3  0  0  0  0  0  0
  189.3970  177.2350  141.8870 C   0  0  1  0  0  3  0  0  0  0  0  0
  187.6100  178.8080  142.7460 C   0  0  0  0  0  2  0  0  0  0  0  0
  186.1530  177.1160  135.3460 C   0  0  0  0  0  0  0  0  0  0  0  0
  189.0080  177.5610  144.4320 C   0  0  2  0  0  3  0  0  0  0  0  0
  184.7390  178.7610  142.4240 C   0  0  0  0  0  3  0  0  0  0  0  0
  186.9700  178.6990  141.3920 C   0  0  0  0  0  0  0  0  0  0  0  0
  185.6350  178.6150  141.2570 C   0  0  0  0  0  0  0  0  0  0  0  0
  185.8900  178.2300  138.7550 C   0  0  0  0  0  0  0  0  0  0  0  0
  187.3530  177.0740  134.5950 N   0  0  0  0  0  2  0  0  0  0  0  0
  190.0750  175.3870  143.5440 C   0  0  0  0  0  2  0  0  0  0  0  0
  188.3880  177.5220  143.0220 C   0  0  2  0  0  3  0  0  0  0  0  0
  188.3510  177.8740  135.2960 C   0  0  0  0  0  2  0  0  0  0  0  0
  190.2540  175.9930  142.1440 C   0  0  0  0  0  2  0  0  0  0  0  0
  190.5210  177.7630  144.4430 C   0  0  1  0  0  3  0  0  0  0  0  0
  183.6890  178.2200  139.8600 C   0  0  0  0  0  3  0  0  0  0  0  0
  185.0230  178.3400  139.9410 C   0  0  0  0  0  0  0  0  0  0  0  0
  185.3710  177.9480  137.5490 C   0  0  0  0  0  3  0  0  0  0  0  0
  188.6880  177.1300  140.5360 C   0  0  0  0  0  2  0  0  0  0  0  0
  189.4280  178.6300  137.8940 O   0  0  0  0  0  0  0  0  0  0  0  0
  185.0030  176.2070  135.0810 C   0  0  0  0  0  1  0  0  0  0  0  0
  187.3190  178.4110  138.9160 N   0  0  0  0  0  0  0  0  0  0  0  0
  186.2610  177.9160  136.3880 C   0  0  0  0  0  0  0  0  0  0  0  0
  190.9280  178.4070  145.7520 C   0  0  0  0  0  2  0  0  0  0  0  0
  191.0130  177.3730  146.8190 C   0  0  0  0  0  0  0  0  0  0  0  0
  189.9600  177.2030  147.7070 O   0  0  0  0  0  1  0  0  0  0  0  0
  192.0540  176.6750  146.9370 O   0  0  0  0  0  0  0  0  0  0  0  0
  1 16  1  6  0  0  0
  2 24  1  1  0  0  0
  2 12  1  0  0  0  0
  3 11  2  0  0  0  0
  4  3  1  0  0  0  0
  5 25  2  0  0  0  0
  5 27  1  0  0  0  0
  6 18  1  6  0  0  0
  6 28  1  0  0  0  0
  6  5  1  0  0  0  0
  7 24  1  6  0  0  0
  7 19  1  0  0  0  0
  7 17  1  0  0  0  0
  8 17  1  0  0  0  0
  9 28  2  0  0  0  0
 10 20  1  0  0  0  0
 10  1  1  0  0  0  0
 12  8  1  0  0  0  0
 13 12  2  0  0  0  0
 13 11  1  0  0  0  0
 14 27  1  0  0  0  0
 14 22  1  0  0  0  0
 15 18  1  0  0  0  0
 15  9  1  0  0  0  0
 17 10  1  0  0  0  0
 19 16  1  0  0  0  0
 20  1  1  0  0  0  0
 20 29  1  0  0  0  0
 21 22  2  0  0  0  0
 21  4  1  0  0  0  0
 22 13  1  0  0  0  0
 23 14  2  0  0  0  0
 26  9  1  0  0  0  0
 27  2  1  0  0  0  0
 28 23  1  0  0  0  0
 29 30  1  0  0  0  0
 30 32  2  0  0  0  0
 30 31  1  0  0  0  0
M  END
>  <MODEL>
5

>  <REMARK>
 VINA RESULT:      -6.4      3.326      9.071
  Name = 
  2 active torsions:
  status: ('A' for Active; 'I' for Inactive)
    1  A    between atoms: C_20  and  C_29
    2  A    between atoms: C_29  and  C_30
                            x       y       z     vdW  Elec       q    Type
                         _______ _______ _______ _____ _____    ______ ____

>  <TORSDO>
F 2

$$$$
=
 OpenBabel11122410433D

 32 38  0  0  1  0  0  0  0  0999 V2000
  186.5200  177.2900  146.6710 C   0  0  1  0  0  3  0  0  0  0  0  0
  184.2350  178.9950  142.1940 C   0  0  1  0  0  3  0  0  0  0  0  0
  179.7490  178.6120  144.2290 C   0  0  0  0  0  3  0  0  0  0  0  0
  179.2460  178.2530  142.9710 O   0  0  0  0  0  0  0  0  0  0  0  0
  184.4560  179.0880  139.6950 C   0  0  0  0  0  0  0  0  0  0  0  0
  183.8360  179.0790  138.3290 C   0  0  1  0  0  3  0  0  0  0  0  0
  185.8550  178.0270  143.8330 C   0  0  1  0  0  3  0  0  0  0  0  0
  183.8770  179.3570  144.6830 C   0  0  0  0  0  2  0  0  0  0  0  0
  182.6270  177.3940  137.3130 C   0  0  0  0  0  0  0  0  0  0  0  0
  185.4370  178.3300  146.3760 C   0  0  2  0  0  3  0  0  0  0  0  0
  181.0370  178.9230  144.3800 C   0  0  0  0  0  3  0  0  0  0  0  0
  183.2510  179.1470  143.3350 C   0  0  0  0  0  0  0  0  0  0  0  0
  181.9390  178.8840  143.2090 C   0  0  0  0  0  0  0  0  0  0  0  0
  182.2320  178.5060  140.7110 C   0  0  0  0  0  0  0  0  0  0  0  0
  183.8180  177.5030  136.5560 N   0  0  0  0  0  2  0  0  0  0  0  0
  186.7810  176.3070  145.5070 C   0  0  0  0  0  2  0  0  0  0  0  0
  184.8210  178.1900  144.9700 C   0  0  2  0  0  3  0  0  0  0  0  0
  184.7030  178.4380  137.2410 C   0  0  0  0  0  2  0  0  0  0  0  0
  186.8710  176.9140  144.0990 C   0  0  0  0  0  2  0  0  0  0  0  0
  186.9090  178.7320  146.3750 C   0  0  1  0  0  3  0  0  0  0  0  0
  180.0570  178.2150  141.8290 C   0  0  0  0  0  3  0  0  0  0  0  0
  181.3630  178.5130  141.9000 C   0  0  0  0  0  0  0  0  0  0  0  0
  181.7500  178.1410  139.5110 C   0  0  0  0  0  3  0  0  0  0  0  0
  185.1600  177.8120  142.4870 C   0  0  0  0  0  2  0  0  0  0  0  0
  185.6800  179.3640  139.8230 O   0  0  0  0  0  0  0  0  0  0  0  0
  181.6080  176.3370  137.0660 C   0  0  0  0  0  1  0  0  0  0  0  0
  183.6250  178.8770  140.8610 N   0  0  0  0  0  0  0  0  0  0  0  0
  182.6320  178.2150  138.3450 C   0  0  0  0  0  0  0  0  0  0  0  0
  187.2320  179.4420  147.6740 C   0  0  0  0  0  2  0  0  0  0  0  0
  188.1920  178.6280  148.4690 C   0  0  0  0  0  0  0  0  0  0  0  0
  189.4230  178.2810  147.9280 O   0  0  0  0  0  0  0  0  0  0  0  0
  187.8750  178.2260  149.6180 O   0  0  0  0  0  1  0  0  0  0  0  0
  1 16  1  6  0  0  0
  2 24  1  1  0  0  0
  2 12  1  0  0  0  0
  3 11  2  0  0  0  0
  4  3  1  0  0  0  0
  5 25  2  0  0  0  0
  5 27  1  0  0  0  0
  6 18  1  6  0  0  0
  6 28  1  0  0  0  0
  6  5  1  0  0  0  0
  7 24  1  6  0  0  0
  7 19  1  0  0  0  0
  7 17  1  0  0  0  0
  8 17  1  0  0  0  0
  9 28  2  0  0  0  0
 10  1  1  0  0  0  0
 12  8  1  0  0  0  0
 13 12  2  0  0  0  0
 13 11  1  0  0  0  0
 14 27  1  0  0  0  0
 14 22  1  0  0  0  0
 15 18  1  0  0  0  0
 15  9  1  0  0  0  0
 17 10  1  0  0  0  0
 19 16  1  0  0  0  0
 20 10  1  0  0  0  0
 20  1  1  0  0  0  0
 20 29  1  0  0  0  0
 21 22  2  0  0  0  0
 21  4  1  0  0  0  0
 22 13  1  0  0  0  0
 23 14  2  0  0  0  0
 26  9  1  0  0  0  0
 27  2  1  0  0  0  0
 28 23  1  0  0  0  0
 29 30  1  0  0  0  0
 30 32  1  0  0  0  0
 31 30  2  0  0  0  0
M  END
>  <MODEL>
6

>  <REMARK>
 VINA RESULT:      -6.4      3.045      8.824
  Name = 
  2 active torsions:
  status: ('A' for Active; 'I' for Inactive)
    1  A    between atoms: C_20  and  C_29
    2  A    between atoms: C_29  and  C_30
                            x       y       z     vdW  Elec       q    Type
                         _______ _______ _______ _____ _____    ______ ____

>  <TORSDO>
F 2

$$$$
=
 OpenBabel11122410433D

 32 38  0  0  1  0  0  0  0  0999 V2000
  186.2320  177.4170  145.1570 C   0  0  1  0  0  3  0  0  0  0  0  0
  186.5980  178.5940  139.9950 C   0  0  1  0  0  3  0  0  0  0  0  0
  181.7960  177.6310  139.3400 C   0  0  0  0  0  3  0  0  0  0  0  0
  182.1010  177.1530  138.0580 O   0  0  0  0  0  0  0  0  0  0  0  0
  188.1360  178.6230  138.0100 C   0  0  0  0  0  0  0  0  0  0  0  0
  188.3660  178.4710  136.5360 C   0  0  1  0  0  3  0  0  0  0  0  0
  187.1510  177.9380  142.3420 C   0  0  1  0  0  3  0  0  0  0  0  0
  184.9050  178.9940  141.8460 C   0  0  0  0  0  2  0  0  0  0  0  0
  188.0880  176.5880  135.2270 C   0  0  0  0  0  0  0  0  0  0  0  0
  185.3840  178.2730  144.2140 C   0  0  2  0  0  3  0  0  0  0  0  0
  182.7530  178.1340  140.1210 C   0  0  0  0  0  3  0  0  0  0  0  0
  185.1410  178.6420  140.4060 C   0  0  0  0  0  0  0  0  0  0  0  0
  184.1450  178.1840  139.6280 C   0  0  0  0  0  0  0  0  0  0  0  0
  185.7920  177.7580  137.7350 C   0  0  0  0  0  0  0  0  0  0  0  0
  189.4810  176.8430  135.2180 N   0  0  0  0  0  2  0  0  0  0  0  0
  187.1850  176.4390  144.4330 C   0  0  0  0  0  2  0  0  0  0  0  0
  185.6540  177.9910  142.7230 C   0  0  2  0  0  3  0  0  0  0  0  0
  189.7470  177.9230  136.1610 C   0  0  0  0  0  2  0  0  0  0  0  0
  187.9650  176.9990  143.2340 C   0  0  0  0  0  2  0  0  0  0  0  0
  186.5680  178.8880  144.9550 C   0  0  1  0  0  3  0  0  0  0  0  0
  183.4030  177.1920  137.5400 C   0  0  0  0  0  3  0  0  0  0  0  0
  184.4200  177.6820  138.2660 C   0  0  0  0  0  0  0  0  0  0  0  0
  186.0830  177.2810  136.5140 C   0  0  0  0  0  3  0  0  0  0  0  0
  187.3300  177.5720  140.8680 C   0  0  0  0  0  2  0  0  0  0  0  0
  189.0560  179.0810  138.7420 O   0  0  0  0  0  0  0  0  0  0  0  0
  187.4850  175.3830  134.5940 C   0  0  0  0  0  1  0  0  0  0  0  0
  186.8300  178.3360  138.5650 N   0  0  0  0  0  0  0  0  0  0  0  0
  187.4450  177.4390  136.0010 C   0  0  0  0  0  0  0  0  0  0  0  0
  186.0550  179.6860  146.1370 C   0  0  0  0  0  2  0  0  0  0  0  0
  186.0080  178.8220  147.3480 C   0  0  0  0  0  0  0  0  0  0  0  0
  187.1740  178.5410  148.0460 O   0  0  0  0  0  1  0  0  0  0  0  0
  184.9150  178.3200  147.7200 O   0  0  0  0  0  0  0  0  0  0  0  0
  1 16  1  6  0  0  0
  2 12  1  0  0  0  0
  2 24  1  1  0  0  0
  3 11  2  0  0  0  0
  4  3  1  0  0  0  0
  5 27  1  0  0  0  0
  5 25  2  0  0  0  0
  6 18  1  1  0  0  0
  6  5  1  0  0  0  0
  7 24  1  6  0  0  0
  7 17  1  0  0  0  0
  7 19  1  0  0  0  0
  8 17  1  0  0  0  0
  9 28  2  0  0  0  0
 10 20  1  0  0  0  0
 10  1  1  0  0  0  0
 12  8  1  0  0  0  0
 13 11  1  0  0  0  0
 13 12  2  0  0  0  0
 14 22  1  0  0  0  0
 14 27  1  0  0  0  0
 15  9  1  0  0  0  0
 15 18  1  0  0  0  0
 17 10  1  0  0  0  0
 19 16  1  0  0  0  0
 20  1  1  0  0  0  0
 20 29  1  0  0  0  0
 21  4  1  0  0  0  0
 21 22  2  0  0  0  0
 22 13  1  0  0  0  0
 23 14  2  0  0  0  0
 26  9  1  0  0  0  0
 27  2  1  0  0  0  0
 28 23  1  0  0  0  0
 28  6  1  0  0  0  0
 29 30  1  0  0  0  0
 30 32  2  0  0  0  0
 30 31  1  0  0  0  0
M  END
>  <MODEL>
7

>  <REMARK>
 VINA RESULT:      -5.9      2.883      8.273
  Name = 
  2 active torsions:
  status: ('A' for Active; 'I' for Inactive)
    1  A    between atoms: C_20  and  C_29
    2  A    between atoms: C_29  and  C_30
                            x       y       z     vdW  Elec       q    Type
                         _______ _______ _______ _____ _____    ______ ____

>  <TORSDO>
F 2

$$$$
=
 OpenBabel11122410433D

 32 38  0  0  1  0  0  0  0  0999 V2000
  182.3240  179.9350  139.1850 C   0  0  1  0  0  3  0  0  0  0  0  0
  186.2340  177.6570  141.9580 C   0  0  1  0  0  3  0  0  0  0  0  0
  184.1220  179.0030  146.2180 C   0  0  0  0  0  3  0  0  0  0  0  0
  185.4030  179.1600  146.7650 O   0  0  0  0  0  0  0  0  0  0  0  0
  188.6660  177.0320  141.9260 C   0  0  0  0  0  0  0  0  0  0  0  0
  189.9730  176.8410  142.6360 C   0  0  1  0  0  3  0  0  0  0  0  0
  184.9110  178.7270  140.1280 C   0  0  1  0  0  3  0  0  0  0  0  0
  183.7100  177.8550  142.1780 C   0  0  0  0  0  2  0  0  0  0  0  0
  191.2630  178.4230  143.7160 C   0  0  0  0  0  0  0  0  0  0  0  0
  182.3440  179.0010  140.3970 C   0  0  2  0  0  3  0  0  0  0  0  0
  183.9680  178.5710  144.9650 C   0  0  0  0  0  3  0  0  0  0  0  0
  185.0430  177.8640  142.8700 C   0  0  0  0  0  0  0  0  0  0  0  0
  185.1610  178.2580  144.1500 C   0  0  0  0  0  0  0  0  0  0  0  0
  187.6940  178.0820  143.9930 C   0  0  0  0  0  0  0  0  0  0  0  0
  192.0350  178.0140  142.6010 N   0  0  0  0  0  2  0  0  0  0  0  0
  183.6790  180.6210  138.8970 C   0  0  0  0  0  2  0  0  0  0  0  0
  183.7190  178.9280  141.0900 C   0  0  2  0  0  3  0  0  0  0  0  0
  191.2100  177.1340  141.7810 C   0  0  0  0  0  2  0  0  0  0  0  0
  184.9300  179.7350  138.9770 C   0  0  0  0  0  2  0  0  0  0  0  0
  182.3280  178.4260  138.9840 C   0  0  1  0  0  3  0  0  0  0  0  0
  186.5640  178.8630  146.0370 C   0  0  0  0  0  3  0  0  0  0  0  0
  186.4910  178.4250  144.7710 C   0  0  0  0  0  0  0  0  0  0  0  0
  188.9200  178.2530  144.5140 C   0  0  0  0  0  3  0  0  0  0  0  0
  186.2390  178.7500  140.8870 C   0  0  0  0  0  2  0  0  0  0  0  0
  188.5380  176.6370  140.7350 O   0  0  0  0  0  0  0  0  0  0  0  0
  191.6800  179.5270  144.6240 C   0  0  0  0  0  1  0  0  0  0  0  0
  187.5330  177.5770  142.6440 N   0  0  0  0  0  0  0  0  0  0  0  0
  190.0840  177.8350  143.7310 C   0  0  0  0  0  0  0  0  0  0  0  0
  180.9250  177.9600  138.6510 C   0  0  0  0  0  2  0  0  0  0  0  0
  180.5120  176.8860  139.5950 C   0  0  0  0  0  0  0  0  0  0  0  0
  181.2830  175.7380  139.7210 O   0  0  0  0  0  0  0  0  0  0  0  0
  179.4460  177.0030  140.2540 O   0  0  0  0  0  1  0  0  0  0  0  0
  1 16  1  6  0  0  0
  1 10  1  0  0  0  0
  2 24  1  6  0  0  0
  2 27  1  0  0  0  0
  2 12  1  0  0  0  0
  3  4  1  0  0  0  0
  5  6  1  0  0  0  0
  5 27  1  0  0  0  0
  6 18  1  6  0  0  0
  6 28  1  0  0  0  0
  7 19  1  6  0  0  0
  7 24  1  0  0  0  0
  7 17  1  0  0  0  0
  8 12  1  0  0  0  0
  9 28  2  0  0  0  0
  9 26  1  0  0  0  0
 10 17  1  0  0  0  0
 11  3  2  0  0  0  0
 12 13  2  0  0  0  0
 13 22  1  0  0  0  0
 13 11  1  0  0  0  0
 14 23  2  0  0  0  0
 14 22  1  0  0  0  0
 15  9  1  0  0  0  0
 16 19  1  0  0  0  0
 17  8  1  0  0  0  0
 18 15  1  0  0  0  0
 20  1  1  0  0  0  0
 20 10  1  0  0  0  0
 21  4  1  0  0  0  0
 22 21  2  0  0  0  0
 25  5  2  0  0  0  0
 27 14  1  0  0  0  0
 28 23  1  0  0  0  0
 29 20  1  0  0  0  0
 29 30  1  0  0  0  0
 30 31  2  0  0  0  0
 30 32  1  0  0  0  0
M  END
>  <MODEL>
8

>  <REMARK>
 VINA RESULT:      -5.9      2.628      5.076
  Name = 
  2 active torsions:
  status: ('A' for Active; 'I' for Inactive)
    1  A    between atoms: C_20  and  C_29
    2  A    between atoms: C_29  and  C_30
                            x       y       z     vdW  Elec       q    Type
                         _______ _______ _______ _____ _____    ______ ____

>  <TORSDO>
F 2

$$$$
=
 OpenBabel11122410433D

 32 38  0  0  1  0  0  0  0  0999 V2000
  187.0450  176.8180  145.5530 C   0  0  1  0  0  3  0  0  0  0  0  0
  186.8500  178.6420  140.5730 C   0  0  1  0  0  3  0  0  0  0  0  0
  181.9180  178.3540  140.5630 C   0  0  0  0  0  3  0  0  0  0  0  0
  181.9730  178.0250  139.2010 O   0  0  0  0  0  0  0  0  0  0  0  0
  188.0880  178.7620  138.3910 C   0  0  0  0  0  0  0  0  0  0  0  0
  188.0880  178.7870  136.8920 C   0  0  1  0  0  3  0  0  0  0  0  0
  187.6280  177.6090  142.7120 C   0  0  1  0  0  3  0  0  0  0  0  0
  185.5010  178.9810  142.6990 C   0  0  0  0  0  2  0  0  0  0  0  0
  187.3750  177.1490  135.4290 C   0  0  0  0  0  0  0  0  0  0  0  0
  186.2010  177.8910  144.8610 C   0  0  2  0  0  3  0  0  0  0  0  0
  183.0340  178.6280  141.2390 C   0  0  0  0  0  3  0  0  0  0  0  0
  185.4860  178.8060  141.2090 C   0  0  0  0  0  0  0  0  0  0  0  0
  184.3380  178.5800  140.5460 C   0  0  0  0  0  0  0  0  0  0  0  0
  185.6320  178.2260  138.3830 C   0  0  0  0  0  0  0  0  0  0  0  0
  188.7750  177.2350  135.2340 N   0  0  0  0  0  2  0  0  0  0  0  0
  187.7460  175.8430  144.5800 C   0  0  0  0  0  2  0  0  0  0  0  0
  186.2200  177.7860  143.3240 C   0  0  2  0  0  3  0  0  0  0  0  0
  189.3150  178.1370  136.2450 C   0  0  0  0  0  2  0  0  0  0  0  0
  188.4210  176.4660  143.3490 C   0  0  0  0  0  2  0  0  0  0  0  0
  187.5490  178.2530  145.4780 C   0  0  1  0  0  3  0  0  0  0  0  0
  183.1840  177.9800  138.4950 C   0  0  0  0  0  3  0  0  0  0  0  0
  184.3490  178.2410  139.1070 C   0  0  0  0  0  0  0  0  0  0  0  0
  185.6830  177.8900  137.0840 C   0  0  0  0  0  3  0  0  0  0  0  0
  187.5490  177.4310  141.1950 C   0  0  0  0  0  2  0  0  0  0  0  0
  189.1540  179.0030  139.0210 O   0  0  0  0  0  0  0  0  0  0  0  0
  186.5300  176.1220  134.7580 C   0  0  0  0  0  1  0  0  0  0  0  0
  186.8440  178.5580  139.1050 N   0  0  0  0  0  0  0  0  0  0  0  0
  186.9690  177.9550  136.3880 C   0  0  0  0  0  0  0  0  0  0  0  0
  187.3190  178.9360  146.8110 C   0  0  0  0  0  2  0  0  0  0  0  0
  188.1150  178.2580  147.8700 C   0  0  0  0  0  0  0  0  0  0  0  0
  189.4660  178.0090  147.6720 O   0  0  0  0  0  0  0  0  0  0  0  0
  187.5550  177.8800  148.9320 O   0  0  0  0  0  1  0  0  0  0  0  0
  1 16  1  6  0  0  0
  2 24  1  1  0  0  0
  2 12  1  0  0  0  0
  3 11  2  0  0  0  0
  4  3  1  0  0  0  0
  5 25  2  0  0  0  0
  5 27  1  0  0  0  0
  6 18  1  6  0  0  0
  6  5  1  0  0  0  0
  7 24  1  6  0  0  0
  7 17  1  0  0  0  0
  7 19  1  0  0  0  0
  8 17  1  0  0  0  0
  9 28  2  0  0  0  0
 10 20  1  0  0  0  0
 10  1  1  0  0  0  0
 12  8  1  0  0  0  0
 13 12  2  0  0  0  0
 13 11  1  0  0  0  0
 14 27  1  0  0  0  0
 14 22  1  0  0  0  0
 15  9  1  0  0  0  0
 15 18  1  0  0  0  0
 17 10  1  0  0  0  0
 19 16  1  0  0  0  0
 20  1  1  0  0  0  0
 20 29  1  0  0  0  0
 21 22  2  0  0  0  0
 21  4  1  0  0  0  0
 22 13  1  0  0  0  0
 23 14  2  0  0  0  0
 26  9  1  0  0  0  0
 27  2  1  0  0  0  0
 28  6  1  0  0  0  0
 28 23  1  0  0  0  0
 29 30  1  0  0  0  0
 30 32  1  0  0  0  0
 31 30  2  0  0  0  0
M  END
>  <MODEL>
9

>  <REMARK>
 VINA RESULT:      -5.8      3.005      8.571
  Name = 
  2 active torsions:
  status: ('A' for Active; 'I' for Inactive)
    1  A    between atoms: C_20  and  C_29
    2  A    between atoms: C_29  and  C_30
                            x       y       z     vdW  Elec       q    Type
                         _______ _______ _______ _____ _____    ______ ____

>  <TORSDO>
F 2

$$$$
