=
 OpenBabel11122410303D

 30 35  0  0  1  0  0  0  0  0999 V2000
  186.0910  178.3300  142.1670 C   0  0  0  0  0  0  0  0  0  0  0  0
  183.6450  178.7250  142.1000 C   0  0  0  0  0  0  0  0  0  0  0  0
  186.0960  178.1990  146.2760 N   0  0  0  0  0  0  0  0  0  0  0  0
  187.2720  178.0720  142.9130 C   0  0  0  0  0  0  0  0  0  0  0  0
  186.1660  178.3870  140.7710 O   0  0  0  0  0  0  0  0  0  0  0  0
  189.6110  177.6920  140.1500 O   0  0  0  0  0  0  0  0  0  0  0  0
  190.2560  177.9290  143.8610 C   0  0  1  0  0  3  0  0  0  0  0  0
  188.5500  177.9530  140.7820 C   0  0  0  0  0  0  0  0  0  0  0  0
  189.5990  177.9960  145.2190 C   0  0  2  0  0  3  0  0  0  0  0  0
  187.4250  178.0270  146.4460 C   0  0  0  0  0  0  0  0  0  0  0  0
  187.3910  178.5920  140.0670 C   0  0  1  0  0  3  0  0  0  0  0  0
  188.4740  177.7240  142.1980 N   0  0  0  0  0  0  0  0  0  0  0  0
  182.4340  178.8860  142.7810 C   0  0  0  0  0  3  0  0  0  0  0  0
  190.2670  176.8900  146.0080 C   0  0  0  0  0  2  0  0  0  0  0  0
  191.6400  177.3920  144.1670 C   0  0  0  0  0  2  0  0  0  0  0  0
  183.6310  178.7950  140.7450 F   0  0  0  0  0  0  0  0  0  0  0  0
  185.9600  178.2240  144.9410 C   0  0  0  0  0  0  0  0  0  0  0  0
  182.3900  178.8240  144.1750 C   0  0  0  0  0  3  0  0  0  0  0  0
  184.8400  178.4970  142.8190 C   0  0  0  0  0  0  0  0  0  0  0  0
  187.1740  178.0640  144.3220 C   0  0  0  0  0  0  0  0  0  0  0  0
  188.0450  178.0400  147.8040 C   0  0  0  0  0  1  0  0  0  0  0  0
  188.1270  177.9290  145.2810 N   0  0  0  0  0  0  0  0  0  0  0  0
  191.6010  176.6980  145.4530 N   0  0  0  0  0  2  0  0  0  0  0  0
  189.1610  175.6430  143.3360 C   0  0  0  0  0  1  0  0  0  0  0  0
  183.5590  178.6000  144.9010 C   0  0  0  0  0  3  0  0  0  0  0  0
  184.7790  178.4350  144.2350 C   0  0  0  0  0  0  0  0  0  0  0  0
  189.5770  177.0260  142.8390 C   0  0  2  0  0  3  0  0  0  0  0  0
  187.2510  178.1230  138.6190 C   0  0  0  0  0  2  0  0  0  0  0  0
  185.3990  177.2370  137.2870 C   0  0  0  0  0  2  0  0  0  0  0  0
  185.8270  178.1390  138.1650 C   0  0  0  0  0  3  0  0  0  0  0  0
  1 19  2  0  0  0  0
  1  4  1  0  0  0  0
  2 13  2  0  0  0  0
  2 19  1  0  0  0  0
  3 10  2  0  0  0  0
  4 20  2  0  0  0  0
  5  1  1  0  0  0  0
  6  8  2  0  0  0  0
  7 15  1  1  0  0  0
  7  9  1  0  0  0  0
  8 12  1  0  0  0  0
  9 22  1  0  0  0  0
  9 14  1  1  0  0  0
 10 21  1  0  0  0  0
 11 28  1  6  0  0  0
 11  5  1  0  0  0  0
 11  8  1  0  0  0  0
 12 27  1  0  0  0  0
 12  4  1  0  0  0  0
 13 18  1  0  0  0  0
 15 23  1  0  0  0  0
 16  2  1  0  0  0  0
 17  3  1  0  0  0  0
 18 25  2  0  0  0  0
 19 26  1  0  0  0  0
 20 17  1  0  0  0  0
 20 22  1  0  0  0  0
 22 10  1  0  0  0  0
 23 14  1  0  0  0  0
 26 25  1  0  0  0  0
 26 17  2  0  0  0  0
 27 24  1  1  0  0  0
 27  7  1  0  0  0  0
 29 30  2  0  0  0  0
 30 28  1  0  0  0  0
M  END
>  <MODEL>
1

>  <REMARK>
 VINA RESULT:     -10.2      0.000      0.000
  Name = 
  2 active torsions:
  status: ('A' for Active; 'I' for Inactive)
    1  A    between atoms: C_11  and  C_28
    2  A    between atoms: C_28  and  C_30
                            x       y       z     vdW  Elec       q    Type
                         _______ _______ _______ _____ _____    ______ ____

>  <TORSDO>
F 2

$$$$
=
 OpenBabel11122410303D

 30 35  0  0  1  0  0  0  0  0999 V2000
  186.7360  177.8010  145.0010 C   0  0  0  0  0  0  0  0  0  0  0  0
  184.3900  178.4850  145.4190 C   0  0  0  0  0  0  0  0  0  0  0  0
  186.3840  178.5600  140.9760 N   0  0  0  0  0  0  0  0  0  0  0  0
  187.8260  177.6440  144.1040 C   0  0  0  0  0  0  0  0  0  0  0  0
  186.9190  177.4990  146.3550 O   0  0  0  0  0  0  0  0  0  0  0  0
  190.3560  176.5490  146.4820 O   0  0  0  0  0  0  0  0  0  0  0  0
  190.4500  176.6450  142.7110 C   0  0  1  0  0  3  0  0  0  0  0  0
  189.2320  176.8690  146.0050 C   0  0  0  0  0  0  0  0  0  0  0  0
  189.6990  177.0790  141.4750 C   0  0  2  0  0  3  0  0  0  0  0  0
  187.6260  178.1730  140.6130 C   0  0  0  0  0  0  0  0  0  0  0  0
  187.9890  176.6830  146.8310 C   0  0  1  0  0  3  0  0  0  0  0  0
  189.1230  177.3280  144.6480 N   0  0  0  0  0  0  0  0  0  0  0  0
  183.1730  178.9660  144.9280 C   0  0  0  0  0  3  0  0  0  0  0  0
  190.7050  177.9020  140.6990 C   0  0  0  0  0  2  0  0  0  0  0  0
  191.8900  176.5790  142.2400 C   0  0  0  0  0  2  0  0  0  0  0  0
  184.4840  178.2160  146.7460 F   0  0  0  0  0  0  0  0  0  0  0  0
  186.3860  178.3880  142.3070 C   0  0  0  0  0  0  0  0  0  0  0  0
  183.0200  179.2580  143.5720 C   0  0  0  0  0  3  0  0  0  0  0  0
  185.4820  178.2900  144.5440 C   0  0  0  0  0  0  0  0  0  0  0  0
  187.6000  177.9140  142.7360 C   0  0  0  0  0  0  0  0  0  0  0  0
  188.0350  178.1090  139.1790 C   0  0  0  0  0  1  0  0  0  0  0  0
  188.4120  177.7770  141.6550 N   0  0  0  0  0  0  0  0  0  0  0  0
  192.0340  177.4160  141.0500 N   0  0  0  0  0  2  0  0  0  0  0  0
  190.5450  179.0660  143.6210 C   0  0  0  0  0  1  0  0  0  0  0  0
  184.0870  179.0720  142.6930 C   0  0  0  0  0  3  0  0  0  0  0  0
  185.3130  178.5930  143.1680 C   0  0  0  0  0  0  0  0  0  0  0  0
  190.3500  177.5780  143.9100 C   0  0  2  0  0  3  0  0  0  0  0  0
  188.2190  176.9330  148.3210 C   0  0  0  0  0  2  0  0  0  0  0  0
  189.7280  178.7940  148.8230 C   0  0  0  0  0  2  0  0  0  0  0  0
  188.4840  178.3760  148.6090 C   0  0  0  0  0  3  0  0  0  0  0  0
  1  5  1  0  0  0  0
  2 16  1  0  0  0  0
  3 17  1  0  0  0  0
  4 12  1  0  0  0  0
  4  1  2  0  0  0  0
  5 11  1  0  0  0  0
  7 15  1  6  0  0  0
  7 27  1  0  0  0  0
  8  6  2  0  0  0  0
  8 11  1  0  0  0  0
  9 14  1  1  0  0  0
  9 22  1  0  0  0  0
  9  7  1  0  0  0  0
 10  3  2  0  0  0  0
 10 22  1  0  0  0  0
 11 28  1  1  0  0  0
 12  8  1  0  0  0  0
 13  2  1  0  0  0  0
 14 23  1  0  0  0  0
 17 20  2  0  0  0  0
 17 26  1  0  0  0  0
 18 13  2  0  0  0  0
 19  1  1  0  0  0  0
 19  2  2  0  0  0  0
 20  4  1  0  0  0  0
 21 10  1  0  0  0  0
 22 20  1  0  0  0  0
 23 15  1  0  0  0  0
 25 26  2  0  0  0  0
 25 18  1  0  0  0  0
 26 19  1  0  0  0  0
 27 24  1  6  0  0  0
 27 12  1  0  0  0  0
 28 30  1  0  0  0  0
 30 29  2  0  0  0  0
M  END
>  <MODEL>
2

>  <REMARK>
 VINA RESULT:      -9.4      2.384      5.322
  Name = 
  2 active torsions:
  status: ('A' for Active; 'I' for Inactive)
    1  A    between atoms: C_11  and  C_28
    2  A    between atoms: C_28  and  C_30
                            x       y       z     vdW  Elec       q    Type
                         _______ _______ _______ _____ _____    ______ ____

>  <TORSDO>
F 2

$$$$
=
 OpenBabel11122410303D

 30 35  0  0  1  0  0  0  0  0999 V2000
  187.8330  178.0280  142.2830 C   0  0  0  0  0  0  0  0  0  0  0  0
  188.2270  177.6890  144.7080 C   0  0  0  0  0  0  0  0  0  0  0  0
  191.7140  177.0240  141.3720 N   0  0  0  0  0  0  0  0  0  0  0  0
  188.3050  177.9760  140.9460 C   0  0  0  0  0  0  0  0  0  0  0  0
  186.5070  178.4040  142.5240 O   0  0  0  0  0  0  0  0  0  0  0  0
  185.2330  178.9060  139.2290 O   0  0  0  0  0  0  0  0  0  0  0  0
  188.7390  178.5180  137.8890 C   0  0  1  0  0  3  0  0  0  0  0  0
  186.0580  178.7000  140.1620 C   0  0  0  0  0  0  0  0  0  0  0  0
  190.1460  178.0950  138.2370 C   0  0  2  0  0  3  0  0  0  0  0  0
  191.6390  177.2180  140.0380 C   0  0  0  0  0  0  0  0  0  0  0  0
  185.7140  179.1070  141.5680 C   0  0  1  0  0  3  0  0  0  0  0  0
  187.3580  178.1600  139.8750 N   0  0  0  0  0  0  0  0  0  0  0  0
  189.0940  177.3360  145.7460 C   0  0  0  0  0  3  0  0  0  0  0  0
  190.5080  177.0920  137.1620 C   0  0  0  0  0  2  0  0  0  0  0  0
  188.6890  178.3600  136.3820 C   0  0  0  0  0  2  0  0  0  0  0  0
  186.9570  178.0420  145.0260 F   0  0  0  0  0  0  0  0  0  0  0  0
  190.4680  177.2940  141.7910 C   0  0  0  0  0  0  0  0  0  0  0  0
  190.4130  176.9650  145.4760 C   0  0  0  0  0  3  0  0  0  0  0  0
  188.6800  177.6750  143.3690 C   0  0  0  0  0  0  0  0  0  0  0  0
  189.6600  177.6360  140.7360 C   0  0  0  0  0  0  0  0  0  0  0  0
  192.8460  177.1210  139.1660 C   0  0  0  0  0  1  0  0  0  0  0  0
  190.4010  177.5850  139.5970 N   0  0  0  0  0  0  0  0  0  0  0  0
  189.7350  177.4260  135.9720 N   0  0  0  0  0  2  0  0  0  0  0  0
  187.7890  176.1800  138.4640 C   0  0  0  0  0  1  0  0  0  0  0  0
  190.8770  176.9460  144.1610 C   0  0  0  0  0  3  0  0  0  0  0  0
  190.0220  177.2940  143.1090 C   0  0  0  0  0  0  0  0  0  0  0  0
  187.6240  177.6970  138.5230 C   0  0  2  0  0  3  0  0  0  0  0  0
  184.2290  178.9410  141.8910 C   0  0  0  0  0  2  0  0  0  0  0  0
  182.8540  178.9700  143.9160 C   0  0  0  0  0  2  0  0  0  0  0  0
  184.0050  178.6410  143.3390 C   0  0  0  0  0  3  0  0  0  0  0  0
  1  5  1  0  0  0  0
  1 19  1  0  0  0  0
  2 16  1  0  0  0  0
  2 13  1  0  0  0  0
  3 17  1  0  0  0  0
  4  1  2  0  0  0  0
  6  8  2  0  0  0  0
  7 15  1  6  0  0  0
  7  9  1  0  0  0  0
  7 27  1  0  0  0  0
  8 11  1  0  0  0  0
  9 14  1  6  0  0  0
  9 22  1  0  0  0  0
 10  3  2  0  0  0  0
 11 28  1  1  0  0  0
 11  5  1  0  0  0  0
 12  8  1  0  0  0  0
 12  4  1  0  0  0  0
 17 26  1  0  0  0  0
 18 13  2  0  0  0  0
 19  2  2  0  0  0  0
 20  4  1  0  0  0  0
 20 17  2  0  0  0  0
 21 10  1  0  0  0  0
 22 10  1  0  0  0  0
 22 20  1  0  0  0  0
 23 15  1  0  0  0  0
 23 14  1  0  0  0  0
 25 18  1  0  0  0  0
 26 19  1  0  0  0  0
 26 25  2  0  0  0  0
 27 24  1  1  0  0  0
 27 12  1  0  0  0  0
 28 30  1  0  0  0  0
 30 29  2  0  0  0  0
M  END
>  <MODEL>
3

>  <REMARK>
 VINA RESULT:      -8.8      2.512      6.122
  Name = 
  2 active torsions:
  status: ('A' for Active; 'I' for Inactive)
    1  A    between atoms: C_11  and  C_28
    2  A    between atoms: C_28  and  C_30
                            x       y       z     vdW  Elec       q    Type
                         _______ _______ _______ _____ _____    ______ ____

>  <TORSDO>
F 2

$$$$
=
 OpenBabel11122410303D

 30 35  0  0  1  0  0  0  0  0999 V2000
  189.3680  177.2260  143.4840 C   0  0  0  0  0  0  0  0  0  0  0  0
  191.3000  176.7220  144.9540 C   0  0  0  0  0  0  0  0  0  0  0  0
  186.8650  177.7080  146.7090 N   0  0  0  0  0  0  0  0  0  0  0  0
  188.0060  177.5970  143.3340 C   0  0  0  0  0  0  0  0  0  0  0  0
  190.1570  177.0520  142.3420 O   0  0  0  0  0  0  0  0  0  0  0  0
  187.8860  177.8390  139.7040 O   0  0  0  0  0  0  0  0  0  0  0  0
  185.0910  177.9490  142.2360 C   0  0  1  0  0  3  0  0  0  0  0  0
  188.3130  177.5880  140.8650 C   0  0  0  0  0  0  0  0  0  0  0  0
  184.7720  177.9710  143.7120 C   0  0  2  0  0  3  0  0  0  0  0  0
  185.7310  177.9520  146.0180 C   0  0  0  0  0  0  0  0  0  0  0  0
  189.6060  176.8410  141.0420 C   0  0  1  0  0  3  0  0  0  0  0  0
  187.5270  177.9340  142.0170 N   0  0  0  0  0  0  0  0  0  0  0  0
  191.8220  176.5680  146.2420 C   0  0  0  0  0  3  0  0  0  0  0  0
  183.8600  179.1680  143.8770 C   0  0  0  0  0  2  0  0  0  0  0  0
  183.8610  178.5690  141.6030 C   0  0  0  0  0  2  0  0  0  0  0  0
  192.1330  176.5360  143.8990 F   0  0  0  0  0  0  0  0  0  0  0  0
  187.7860  177.5640  145.7440 C   0  0  0  0  0  0  0  0  0  0  0  0
  191.0110  176.7470  147.3630 C   0  0  0  0  0  3  0  0  0  0  0  0
  189.9400  177.0620  144.7750 C   0  0  0  0  0  0  0  0  0  0  0  0
  187.2220  177.7220  144.5030 C   0  0  0  0  0  0  0  0  0  0  0  0
  184.4120  178.0820  146.7050 C   0  0  0  0  0  1  0  0  0  0  0  0
  185.8980  177.9790  144.6650 N   0  0  0  0  0  0  0  0  0  0  0  0
  183.1660  179.3690  142.6100 N   0  0  0  0  0  2  0  0  0  0  0  0
  186.4710  180.1320  142.4030 C   0  0  0  0  0  1  0  0  0  0  0  0
  189.6670  177.0820  147.2060 C   0  0  0  0  0  3  0  0  0  0  0  0
  189.1280  177.2420  145.9240 C   0  0  0  0  0  0  0  0  0  0  0  0
  186.3280  178.7310  141.8140 C   0  0  2  0  0  3  0  0  0  0  0  0
  190.6410  177.1770  139.9700 C   0  0  0  0  0  2  0  0  0  0  0  0
  193.0860  177.1450  139.8540 C   0  0  0  0  0  2  0  0  0  0  0  0
  191.9940  177.4210  140.5590 C   0  0  0  0  0  3  0  0  0  0  0  0
  1 19  1  0  0  0  0
  2 13  1  0  0  0  0
  4  1  2  0  0  0  0
  4 20  1  0  0  0  0
  5  1  1  0  0  0  0
  6  8  2  0  0  0  0
  7 15  1  6  0  0  0
  7  9  1  0  0  0  0
  8 11  1  0  0  0  0
  8 12  1  0  0  0  0
  9 14  1  6  0  0  0
  9 22  1  0  0  0  0
 10 21  1  0  0  0  0
 10  3  2  0  0  0  0
 11 28  1  6  0  0  0
 11  5  1  0  0  0  0
 12  4  1  0  0  0  0
 13 18  2  0  0  0  0
 15 23  1  0  0  0  0
 16  2  1  0  0  0  0
 17 26  1  0  0  0  0
 17  3  1  0  0  0  0
 19  2  2  0  0  0  0
 19 26  1  0  0  0  0
 20 22  1  0  0  0  0
 20 17  2  0  0  0  0
 22 10  1  0  0  0  0
 23 14  1  0  0  0  0
 25 18  1  0  0  0  0
 26 25  2  0  0  0  0
 27 12  1  0  0  0  0
 27  7  1  0  0  0  0
 27 24  1  1  0  0  0
 28 30  1  0  0  0  0
 29 30  2  0  0  0  0
M  END
>  <MODEL>
4

>  <REMARK>
 VINA RESULT:      -8.6      2.545      5.646
  Name = 
  2 active torsions:
  status: ('A' for Active; 'I' for Inactive)
    1  A    between atoms: C_11  and  C_28
    2  A    between atoms: C_28  and  C_30
                            x       y       z     vdW  Elec       q    Type
                         _______ _______ _______ _____ _____    ______ ____

>  <TORSDO>
F 2

$$$$
=
 OpenBabel11122410303D

 30 35  0  0  1  0  0  0  0  0999 V2000
  187.8770  177.4620  143.0350 C   0  0  0  0  0  0  0  0  0  0  0  0
  186.9170  177.8930  145.2800 C   0  0  0  0  0  0  0  0  0  0  0  0
  184.5630  179.0200  141.1670 N   0  0  0  0  0  0  0  0  0  0  0  0
  187.7850  177.5640  141.6220 C   0  0  0  0  0  0  0  0  0  0  0  0
  189.0240  176.8960  143.6040 O   0  0  0  0  0  0  0  0  0  0  0  0
  191.0270  176.1610  140.7440 O   0  0  0  0  0  0  0  0  0  0  0  0
  188.0910  177.0470  138.5460 C   0  0  1  0  0  3  0  0  0  0  0  0
  190.0270  176.5010  141.4340 C   0  0  0  0  0  0  0  0  0  0  0  0
  186.7200  177.6810  138.5250 C   0  0  2  0  0  3  0  0  0  0  0  0
  184.9550  178.7970  139.8950 C   0  0  0  0  0  0  0  0  0  0  0  0
  189.9270  176.0690  142.8710 C   0  0  1  0  0  3  0  0  0  0  0  0
  188.9420  177.2250  140.8320 N   0  0  0  0  0  0  0  0  0  0  0  0
  185.8700  178.3870  146.0650 C   0  0  0  0  0  3  0  0  0  0  0  0
  186.8050  178.7100  137.4180 C   0  0  0  0  0  2  0  0  0  0  0  0
  188.5570  177.1730  137.1080 C   0  0  0  0  0  2  0  0  0  0  0  0
  187.9930  177.3590  145.9110 F   0  0  0  0  0  0  0  0  0  0  0  0
  185.6020  178.5740  141.8900 C   0  0  0  0  0  0  0  0  0  0  0  0
  184.7390  178.9460  145.4690 C   0  0  0  0  0  3  0  0  0  0  0  0
  186.8380  177.9540  143.8700 C   0  0  0  0  0  0  0  0  0  0  0  0
  186.5980  178.0990  141.0740 C   0  0  0  0  0  0  0  0  0  0  0  0
  184.0460  179.0600  138.7400 C   0  0  0  0  0  1  0  0  0  0  0  0
  186.1970  178.2430  139.7840 N   0  0  0  0  0  0  0  0  0  0  0  0
  187.8040  178.2470  136.4630 N   0  0  0  0  0  2  0  0  0  0  0  0
  189.1920  179.2260  139.4060 C   0  0  0  0  0  1  0  0  0  0  0  0
  184.6430  179.0150  144.0800 C   0  0  0  0  0  3  0  0  0  0  0  0
  185.6820  178.5270  143.2790 C   0  0  0  0  0  0  0  0  0  0  0  0
  189.1100  177.7020  139.4690 C   0  0  2  0  0  3  0  0  0  0  0  0
  191.2820  176.0170  143.5750 C   0  0  0  0  0  2  0  0  0  0  0  0
  191.6840  176.5310  145.9340 C   0  0  0  0  0  2  0  0  0  0  0  0
  191.3490  176.9700  144.7250 C   0  0  0  0  0  3  0  0  0  0  0  0
  1  5  1  0  0  0  0
  1 19  1  0  0  0  0
  2 16  1  0  0  0  0
  2 13  1  0  0  0  0
  3 17  1  0  0  0  0
  4  1  2  0  0  0  0
  6  8  2  0  0  0  0
  7 15  1  6  0  0  0
  7 27  1  0  0  0  0
  8 11  1  0  0  0  0
  9 14  1  6  0  0  0
  9  7  1  0  0  0  0
  9 22  1  0  0  0  0
 10  3  2  0  0  0  0
 11 28  1  1  0  0  0
 11  5  1  0  0  0  0
 12  8  1  0  0  0  0
 12  4  1  0  0  0  0
 17 26  1  0  0  0  0
 18 13  2  0  0  0  0
 19  2  2  0  0  0  0
 20  4  1  0  0  0  0
 20 17  2  0  0  0  0
 21 10  1  0  0  0  0
 22 10  1  0  0  0  0
 22 20  1  0  0  0  0
 23 15  1  0  0  0  0
 23 14  1  0  0  0  0
 25 18  1  0  0  0  0
 26 19  1  0  0  0  0
 26 25  2  0  0  0  0
 27 24  1  1  0  0  0
 27 12  1  0  0  0  0
 28 30  1  0  0  0  0
 30 29  2  0  0  0  0
M  END
>  <MODEL>
5

>  <REMARK>
 VINA RESULT:      -8.5      2.601      5.793
  Name = 
  2 active torsions:
  status: ('A' for Active; 'I' for Inactive)
    1  A    between atoms: C_11  and  C_28
    2  A    between atoms: C_28  and  C_30
                            x       y       z     vdW  Elec       q    Type
                         _______ _______ _______ _____ _____    ______ ____

>  <TORSDO>
F 2

$$$$
=
 OpenBabel11122410303D

 30 35  0  0  1  0  0  0  0  0999 V2000
  187.8720  177.6210  145.0780 C   0  0  0  0  0  0  0  0  0  0  0  0
  185.9320  178.1400  146.5320 C   0  0  0  0  0  0  0  0  0  0  0  0
  185.7420  178.5260  141.6800 N   0  0  0  0  0  0  0  0  0  0  0  0
  188.4560  177.5690  143.7850 C   0  0  0  0  0  0  0  0  0  0  0  0
  188.6480  177.2740  146.1900 O   0  0  0  0  0  0  0  0  0  0  0  0
  191.8160  176.5330  144.7250 O   0  0  0  0  0  0  0  0  0  0  0  0
  190.2230  176.7930  141.3140 C   0  0  1  0  0  3  0  0  0  0  0  0
  190.5870  176.8030  144.8160 C   0  0  0  0  0  0  0  0  0  0  0  0
  188.9860  177.2320  140.5680 C   0  0  2  0  0  3  0  0  0  0  0  0
  186.7070  178.2310  140.7820 C   0  0  0  0  0  0  0  0  0  0  0  0
  189.8470  176.5060  146.0910 C   0  0  1  0  0  3  0  0  0  0  0  0
  189.8700  177.3110  143.6790 N   0  0  0  0  0  0  0  0  0  0  0  0
  184.6070  178.5650  146.6600 C   0  0  0  0  0  3  0  0  0  0  0  0
  189.5120  178.1480  139.4830 C   0  0  0  0  0  2  0  0  0  0  0  0
  191.3050  176.8360  140.2540 C   0  0  0  0  0  2  0  0  0  0  0  0
  186.6150  177.8220  147.6610 F   0  0  0  0  0  0  0  0  0  0  0  0
  186.3410  178.2980  142.8590 C   0  0  0  0  0  0  0  0  0  0  0  0
  183.8570  178.9050  145.5330 C   0  0  0  0  0  3  0  0  0  0  0  0
  186.5290  178.0500  145.2540 C   0  0  0  0  0  0  0  0  0  0  0  0
  187.6370  177.8820  142.6770 C   0  0  0  0  0  0  0  0  0  0  0  0
  186.4390  178.2540  139.3140 C   0  0  0  0  0  1  0  0  0  0  0  0
  187.8880  177.8410  141.3420 N   0  0  0  0  0  0  0  0  0  0  0  0
  190.8760  177.7300  139.1800 N   0  0  0  0  0  2  0  0  0  0  0  0
  190.6240  179.1750  142.2450 C   0  0  0  0  0  1  0  0  0  0  0  0
  184.4290  178.8220  144.2640 C   0  0  0  0  0  3  0  0  0  0  0  0
  185.7550  178.4000  144.1170 C   0  0  0  0  0  0  0  0  0  0  0  0
  190.6310  177.6680  142.4930 C   0  0  2  0  0  3  0  0  0  0  0  0
  190.7050  176.7070  147.3390 C   0  0  0  0  0  2  0  0  0  0  0  0
  192.7900  175.7620  148.2040 C   0  0  0  0  0  2  0  0  0  0  0  0
  191.6460  175.5660  147.5570 C   0  0  0  0  0  3  0  0  0  0  0  0
  1 19  1  0  0  0  0
  1  5  1  0  0  0  0
  2 13  1  0  0  0  0
  2 16  1  0  0  0  0
  3 17  1  0  0  0  0
  4  1  2  0  0  0  0
  6  8  2  0  0  0  0
  7 15  1  6  0  0  0
  7 27  1  0  0  0  0
  8 11  1  0  0  0  0
  9 14  1  6  0  0  0
  9  7  1  0  0  0  0
  9 22  1  0  0  0  0
 10 22  1  0  0  0  0
 10  3  2  0  0  0  0
 11  5  1  0  0  0  0
 11 28  1  1  0  0  0
 12  4  1  0  0  0  0
 12  8  1  0  0  0  0
 17 26  1  0  0  0  0
 18 13  2  0  0  0  0
 19  2  2  0  0  0  0
 20 17  2  0  0  0  0
 20  4  1  0  0  0  0
 21 10  1  0  0  0  0
 22 20  1  0  0  0  0
 23 14  1  0  0  0  0
 23 15  1  0  0  0  0
 25 18  1  0  0  0  0
 26 25  2  0  0  0  0
 26 19  1  0  0  0  0
 27 24  1  6  0  0  0
 27 12  1  0  0  0  0
 28 30  1  0  0  0  0
 30 29  2  0  0  0  0
M  END
>  <MODEL>
6

>  <REMARK>
 VINA RESULT:      -8.3      2.645      5.671
  Name = 
  2 active torsions:
  status: ('A' for Active; 'I' for Inactive)
    1  A    between atoms: C_11  and  C_28
    2  A    between atoms: C_28  and  C_30
                            x       y       z     vdW  Elec       q    Type
                         _______ _______ _______ _____ _____    ______ ____

>  <TORSDO>
F 2

$$$$
=
 OpenBabel11122410303D

 30 35  0  0  1  0  0  0  0  0999 V2000
  186.5690  178.1870  141.9710 C   0  0  0  0  0  0  0  0  0  0  0  0
  186.3560  177.9100  144.4250 C   0  0  0  0  0  0  0  0  0  0  0  0
  190.5760  177.2730  142.0770 N   0  0  0  0  0  0  0  0  0  0  0  0
  187.3600  178.1190  140.7940 C   0  0  0  0  0  0  0  0  0  0  0  0
  185.2170  178.5300  141.8650 O   0  0  0  0  0  0  0  0  0  0  0  0
  184.7910  178.9260  138.3440 O   0  0  0  0  0  0  0  0  0  0  0  0
  188.5280  178.6090  137.9260 C   0  0  1  0  0  3  0  0  0  0  0  0
  185.3620  178.7630  139.4570 C   0  0  0  0  0  0  0  0  0  0  0  0
  189.8140  178.2330  138.6240 C   0  0  2  0  0  3  0  0  0  0  0  0
  190.8300  177.4370  140.7610 C   0  0  0  0  0  0  0  0  0  0  0  0
  184.6710  179.1900  140.7230 C   0  0  1  0  0  3  0  0  0  0  0  0
  186.7040  178.2540  139.5170 N   0  0  0  0  0  0  0  0  0  0  0  0
  186.9450  177.6030  145.6560 C   0  0  0  0  0  3  0  0  0  0  0  0
  190.4530  177.2180  137.7000 C   0  0  0  0  0  2  0  0  0  0  0  0
  188.8570  178.4180  136.4590 C   0  0  0  0  0  2  0  0  0  0  0  0
  185.0380  178.2330  144.4090 F   0  0  0  0  0  0  0  0  0  0  0  0
  189.2590  177.5160  142.1670 C   0  0  0  0  0  0  0  0  0  0  0  0
  188.2970  177.2640  145.7310 C   0  0  0  0  0  3  0  0  0  0  0  0
  187.1270  177.8800  143.2410 C   0  0  0  0  0  0  0  0  0  0  0  0
  188.7320  177.8140  140.9360 C   0  0  0  0  0  0  0  0  0  0  0  0
  192.2190  177.3560  140.2190 C   0  0  0  0  0  1  0  0  0  0  0  0
  189.7330  177.7590  140.0180 N   0  0  0  0  0  0  0  0  0  0  0  0
  189.9930  177.5050  136.3460 N   0  0  0  0  0  2  0  0  0  0  0  0
  187.5170  176.2570  138.3120 C   0  0  0  0  0  1  0  0  0  0  0  0
  189.0740  177.2300  144.5730 C   0  0  0  0  0  3  0  0  0  0  0  0
  188.5000  177.5320  143.3330 C   0  0  0  0  0  0  0  0  0  0  0  0
  187.3080  177.7700  138.2860 C   0  0  2  0  0  3  0  0  0  0  0  0
  183.1570  178.9890  140.6730 C   0  0  0  0  0  2  0  0  0  0  0  0
  181.4670  179.0030  142.4430 C   0  0  0  0  0  2  0  0  0  0  0  0
  182.6140  178.5150  141.9830 C   0  0  0  0  0  3  0  0  0  0  0  0
  1 19  1  0  0  0  0
  2 13  1  0  0  0  0
  3 17  1  0  0  0  0
  4 20  1  0  0  0  0
  4  1  2  0  0  0  0
  5  1  1  0  0  0  0
  6  8  2  0  0  0  0
  7 15  1  6  0  0  0
  7 27  1  0  0  0  0
  7  9  1  0  0  0  0
  8 12  1  0  0  0  0
  8 11  1  0  0  0  0
  9 14  1  6  0  0  0
  9 22  1  0  0  0  0
 10  3  2  0  0  0  0
 11 28  1  6  0  0  0
 11  5  1  0  0  0  0
 12  4  1  0  0  0  0
 13 18  2  0  0  0  0
 16  2  1  0  0  0  0
 17 26  1  0  0  0  0
 19 26  1  0  0  0  0
 19  2  2  0  0  0  0
 20 17  2  0  0  0  0
 21 10  1  0  0  0  0
 22 10  1  0  0  0  0
 22 20  1  0  0  0  0
 23 15  1  0  0  0  0
 23 14  1  0  0  0  0
 25 18  1  0  0  0  0
 26 25  2  0  0  0  0
 27 24  1  1  0  0  0
 27 12  1  0  0  0  0
 28 30  1  0  0  0  0
 30 29  2  0  0  0  0
M  END
>  <MODEL>
7

>  <REMARK>
 VINA RESULT:      -8.3      2.375      5.457
  Name = 
  2 active torsions:
  status: ('A' for Active; 'I' for Inactive)
    1  A    between atoms: C_11  and  C_28
    2  A    between atoms: C_28  and  C_30
                            x       y       z     vdW  Elec       q    Type
                         _______ _______ _______ _____ _____    ______ ____

>  <TORSDO>
F 2

$$$$
=
 OpenBabel11122410303D

 30 35  0  0  1  0  0  0  0  0999 V2000
  186.1830  178.0100  143.0940 C   0  0  0  0  0  0  0  0  0  0  0  0
  183.9120  178.7420  142.4210 C   0  0  0  0  0  0  0  0  0  0  0  0
  187.5580  178.2560  139.2280 N   0  0  0  0  0  0  0  0  0  0  0  0
  187.5350  177.7400  142.7550 C   0  0  0  0  0  0  0  0  0  0  0  0
  185.7760  177.8800  144.4270 O   0  0  0  0  0  0  0  0  0  0  0  0
  188.8020  176.9520  146.0750 O   0  0  0  0  0  0  0  0  0  0  0  0
  190.4440  176.5720  142.6990 C   0  0  1  0  0  3  0  0  0  0  0  0
  187.9910  177.2100  145.1420 C   0  0  0  0  0  0  0  0  0  0  0  0
  190.2910  176.8480  141.2220 C   0  0  2  0  0  3  0  0  0  0  0  0
  188.8170  177.8260  139.4590 C   0  0  0  0  0  0  0  0  0  0  0  0
  186.5110  177.1310  145.3930 C   0  0  1  0  0  3  0  0  0  0  0  0
  188.4750  177.4940  143.8200 N   0  0  0  0  0  0  0  0  0  0  0  0
  183.0320  179.1570  141.4170 C   0  0  0  0  0  3  0  0  0  0  0  0
  191.5690  177.5670  140.8450 C   0  0  0  0  0  2  0  0  0  0  0  0
  191.9440  176.4470  142.8790 C   0  0  0  0  0  2  0  0  0  0  0  0
  183.4370  178.6420  143.6880 F   0  0  0  0  0  0  0  0  0  0  0  0
  187.0040  178.2520  140.4500 C   0  0  0  0  0  0  0  0  0  0  0  0
  183.4660  179.2770  140.0960 C   0  0  0  0  0  3  0  0  0  0  0  0
  185.2560  178.4370  142.1060 C   0  0  0  0  0  0  0  0  0  0  0  0
  187.9070  177.8360  141.3950 C   0  0  0  0  0  0  0  0  0  0  0  0
  189.7760  177.5820  138.3420 C   0  0  0  0  0  1  0  0  0  0  0  0
  189.0830  177.5640  140.7710 N   0  0  0  0  0  0  0  0  0  0  0  0
  192.6080  177.1280  141.7690 N   0  0  0  0  0  2  0  0  0  0  0  0
  190.2830  179.0890  143.2840 C   0  0  0  0  0  1  0  0  0  0  0  0
  184.7880  178.9810  139.7670 C   0  0  0  0  0  3  0  0  0  0  0  0
  185.6830  178.5650  140.7590 C   0  0  0  0  0  0  0  0  0  0  0  0
  189.9080  177.6500  143.6330 C   0  0  2  0  0  3  0  0  0  0  0  0
  186.1200  177.5660  146.8050 C   0  0  0  0  0  2  0  0  0  0  0  0
  186.2320  179.8340  147.7180 C   0  0  0  0  0  2  0  0  0  0  0  0
  185.6830  178.9950  146.8460 C   0  0  0  0  0  3  0  0  0  0  0  0
  1  5  1  0  0  0  0
  2 16  1  0  0  0  0
  3 10  2  0  0  0  0
  3 17  1  0  0  0  0
  4  1  1  0  0  0  0
  4 12  1  0  0  0  0
  5 11  1  0  0  0  0
  7 15  1  6  0  0  0
  7 27  1  0  0  0  0
  8 11  1  0  0  0  0
  8  6  2  0  0  0  0
  9 14  1  1  0  0  0
  9  7  1  0  0  0  0
 10 22  1  0  0  0  0
 11 28  1  1  0  0  0
 12  8  1  0  0  0  0
 13  2  2  0  0  0  0
 14 23  1  0  0  0  0
 17 26  2  0  0  0  0
 17 20  1  0  0  0  0
 18 13  1  0  0  0  0
 19  2  1  0  0  0  0
 19  1  2  0  0  0  0
 20  4  2  0  0  0  0
 21 10  1  0  0  0  0
 22  9  1  0  0  0  0
 22 20  1  0  0  0  0
 23 15  1  0  0  0  0
 25 18  2  0  0  0  0
 25 26  1  0  0  0  0
 26 19  1  0  0  0  0
 27 24  1  6  0  0  0
 27 12  1  0  0  0  0
 28 30  1  0  0  0  0
 30 29  2  0  0  0  0
M  END
>  <MODEL>
8

>  <REMARK>
 VINA RESULT:      -8.2      2.233      5.051
  Name = 
  2 active torsions:
  status: ('A' for Active; 'I' for Inactive)
    1  A    between atoms: C_11  and  C_28
    2  A    between atoms: C_28  and  C_30
                            x       y       z     vdW  Elec       q    Type
                         _______ _______ _______ _____ _____    ______ ____

>  <TORSDO>
F 2

$$$$
=
 OpenBabel11122410303D

 30 35  0  0  1  0  0  0  0  0999 V2000
  186.5440  178.2530  142.8070 C   0  0  0  0  0  0  0  0  0  0  0  0
  188.7680  177.6890  143.7450 C   0  0  0  0  0  0  0  0  0  0  0  0
  187.9310  177.9150  138.9520 N   0  0  0  0  0  0  0  0  0  0  0  0
  185.6950  178.4250  141.6820 C   0  0  0  0  0  0  0  0  0  0  0  0
  186.0110  178.4100  144.0920 O   0  0  0  0  0  0  0  0  0  0  0  0
  182.5770  179.1140  143.4280 O   0  0  0  0  0  0  0  0  0  0  0  0
  183.4120  179.3800  139.7570 C   0  0  1  0  0  3  0  0  0  0  0  0
  183.8070  178.9170  143.2250 C   0  0  0  0  0  0  0  0  0  0  0  0
  184.4770  179.1190  138.7190 C   0  0  2  0  0  3  0  0  0  0  0  0
  186.7850  178.2530  138.3210 C   0  0  0  0  0  0  0  0  0  0  0  0
  184.7900  179.1030  144.3470 C   0  0  1  0  0  3  0  0  0  0  0  0
  184.2830  178.6010  141.9060 N   0  0  0  0  0  0  0  0  0  0  0  0
  190.1060  177.3400  143.5380 C   0  0  0  0  0  3  0  0  0  0  0  0
  183.7660  178.3100  137.6550 C   0  0  0  0  0  2  0  0  0  0  0  0
  182.1300  179.3960  138.9480 C   0  0  0  0  0  2  0  0  0  0  0  0
  188.3310  177.8210  145.0230 F   0  0  0  0  0  0  0  0  0  0  0  0
  187.5890  177.9560  140.2490 C   0  0  0  0  0  0  0  0  0  0  0  0
  190.6090  177.1910  142.2440 C   0  0  0  0  0  3  0  0  0  0  0  0
  187.9090  177.8950  142.6420 C   0  0  0  0  0  0  0  0  0  0  0  0
  186.2700  178.3050  140.3970 C   0  0  0  0  0  0  0  0  0  0  0  0
  186.7330  178.4280  136.8400 C   0  0  0  0  0  1  0  0  0  0  0  0
  185.7380  178.4920  139.1600 N   0  0  0  0  0  0  0  0  0  0  0  0
  182.3540  178.6710  137.6990 N   0  0  0  0  0  2  0  0  0  0  0  0
  183.3120  176.8810  140.4240 C   0  0  0  0  0  1  0  0  0  0  0  0
  189.7770  177.3910  141.1440 C   0  0  0  0  0  3  0  0  0  0  0  0
  188.4350  177.7390  141.3330 C   0  0  0  0  0  0  0  0  0  0  0  0
  183.2990  178.3420  140.8670 C   0  0  2  0  0  3  0  0  0  0  0  0
  184.2270  178.6950  145.7080 C   0  0  0  0  0  2  0  0  0  0  0  0
  186.0540  179.1540  147.2700 C   0  0  0  0  0  2  0  0  0  0  0  0
  185.3050  178.2520  146.6450 C   0  0  0  0  0  3  0  0  0  0  0  0
  1  5  1  0  0  0  0
  2 16  1  0  0  0  0
  3 17  1  0  0  0  0
  4 12  1  0  0  0  0
  4  1  2  0  0  0  0
  5 11  1  0  0  0  0
  7 15  1  6  0  0  0
  7 27  1  0  0  0  0
  8  6  2  0  0  0  0
  8 11  1  0  0  0  0
  9 14  1  6  0  0  0
  9 22  1  0  0  0  0
  9  7  1  0  0  0  0
 10  3  2  0  0  0  0
 10 22  1  0  0  0  0
 11 28  1  1  0  0  0
 12  8  1  0  0  0  0
 13  2  1  0  0  0  0
 14 23  1  0  0  0  0
 17 20  2  0  0  0  0
 17 26  1  0  0  0  0
 18 13  2  0  0  0  0
 19  1  1  0  0  0  0
 19  2  2  0  0  0  0
 20  4  1  0  0  0  0
 21 10  1  0  0  0  0
 22 20  1  0  0  0  0
 23 15  1  0  0  0  0
 25 26  2  0  0  0  0
 25 18  1  0  0  0  0
 26 19  1  0  0  0  0
 27 24  1  6  0  0  0
 27 12  1  0  0  0  0
 28 30  1  0  0  0  0
 30 29  2  0  0  0  0
M  END
>  <MODEL>
9

>  <REMARK>
 VINA RESULT:      -8.1      2.864      7.350
  Name = 
  2 active torsions:
  status: ('A' for Active; 'I' for Inactive)
    1  A    between atoms: C_11  and  C_28
    2  A    between atoms: C_28  and  C_30
                            x       y       z     vdW  Elec       q    Type
                         _______ _______ _______ _____ _____    ______ ____

>  <TORSDO>
F 2

$$$$
