=
 OpenBabel11122412263D

 34 40  0  0  1  0  0  0  0  0999 V2000
  181.8610  178.7000  143.4310 C   0  0  0  0  0  0  0  0  0  0  0  0
  183.4170  178.8110  145.4060 C   0  0  0  0  0  3  0  0  0  0  0  0
  181.0210  178.6510  136.8320 N   0  0  0  0  0  0  0  0  0  0  0  0
  180.5340  178.5810  141.3840 C   0  0  0  0  0  0  0  0  0  0  0  0
  181.4670  179.4240  139.2630 C   0  0  2  0  0  3  0  0  0  0  0  0
  181.5170  180.8570  137.3790 O   0  0  0  0  0  0  0  0  0  0  0  0
  180.7960  179.0000  135.5440 O   0  0  0  0  0  1  0  0  0  0  0  0
  179.9520  177.0060  138.2850 C   0  0  0  0  0  2  0  0  0  0  0  0
  184.2710  178.9790  143.1580 C   0  0  0  0  0  0  0  0  0  0  0  0
  187.2400  178.1410  142.4540 C   0  0  0  0  0  2  0  0  0  0  0  0
  182.8660  178.9990  139.6900 C   0  0  0  0  0  2  0  0  0  0  0  0
  180.6010  177.1730  139.5090 O   0  0  0  0  0  0  0  0  0  0  0  0
  184.2230  179.0330  141.8160 C   0  0  0  0  0  0  0  0  0  0  0  0
  184.9380  179.0010  145.4540 C   0  0  0  0  0  3  0  0  0  0  0  0
  180.4040  178.5080  139.8900 C   0  0  1  0  0  3  0  0  0  0  0  0
  180.9560  177.2360  137.1720 C   0  0  0  0  0  2  0  0  0  0  0  0
  186.4320  177.8850  143.7260 C   0  0  2  0  0  3  0  0  0  0  0  0
  181.7450  178.7270  141.9560 C   0  0  1  0  0  3  0  0  0  0  0  0
  181.3360  179.6790  137.7870 C   0  0  0  0  0  0  0  0  0  0  0  0
  182.9410  178.9330  141.1560 N   0  0  0  0  0  0  0  0  0  0  0  0
  179.3840  178.3450  143.4910 C   0  0  0  0  0  3  0  0  0  0  0  0
  186.3990  177.9940  141.1930 C   0  0  0  0  0  2  0  0  0  0  0  0
  179.3670  178.3650  142.1910 N   0  0  0  0  0  0  0  0  0  0  0  0
  185.4810  179.1950  141.0130 C   0  0  0  0  0  2  0  0  0  0  0  0
  185.4870  179.0620  144.0130 C   0  0  1  0  0  3  0  0  0  0  0  0
  180.6380  178.5610  144.2930 C   0  0  0  0  0  3  0  0  0  0  0  0
  183.0810  178.8230  143.9650 C   0  0  0  0  0  0  0  0  0  0  0  0
  187.3260  177.7060  144.7860 O   0  0  0  0  0  0  0  0  0  0  0  0
  188.5440  177.3910  144.1770 C   0  0  0  0  0  2  0  0  0  0  0  0
  190.6760  176.5990  147.2590 C   0  0  0  0  0  2  0  0  0  0  0  0
  190.8670  176.8100  144.8570 C   0  0  0  0  0  2  0  0  0  0  0  0
  189.6910  177.7300  145.1100 C   0  0  2  0  0  3  0  0  0  0  0  0
  191.6690  176.7810  146.1340 C   0  0  0  0  0  2  0  0  0  0  0  0
  189.1640  177.5210  146.8380 S   0  0  0  0  0  0  0  0  0  0  0  0
  1 27  2  0  0  0  0
  1 26  1  0  0  0  0
  2 14  2  0  0  0  0
  3 16  1  0  0  0  0
  3 19  1  0  0  0  0
  4 23  2  0  0  0  0
  5 11  1  6  0  0  0
  5 15  1  0  0  0  0
  6 19  2  0  0  0  0
  7  3  1  0  0  0  0
  8 12  1  0  0  0  0
  9 27  1  0  0  0  0
  9 25  1  0  0  0  0
 10 17  1  0  0  0  0
 11 20  1  0  0  0  0
 13  9  2  0  0  0  0
 15 12  1  6  0  0  0
 15  4  1  0  0  0  0
 16  8  1  0  0  0  0
 17 25  1  0  0  0  0
 17 28  1  1  0  0  0
 18  4  1  1  0  0  0
 18  1  1  0  0  0  0
 19  5  1  0  0  0  0
 20 13  1  0  0  0  0
 20 18  1  0  0  0  0
 21 26  2  0  0  0  0
 22 10  1  0  0  0  0
 23 21  1  0  0  0  0
 24 22  1  0  0  0  0
 24 13  1  0  0  0  0
 25 14  1  1  0  0  0
 27  2  1  0  0  0  0
 29 28  1  0  0  0  0
 31 32  1  0  0  0  0
 31 33  1  0  0  0  0
 32 29  1  6  0  0  0
 32 34  1  0  0  0  0
 33 30  1  0  0  0  0
 34 30  1  0  0  0  0
M  END
>  <MODEL>
1

>  <REMARK>
 VINA RESULT:      -8.9      0.000      0.000
  Name = 
  3 active torsions:
  status: ('A' for Active; 'I' for Inactive)
    1  A    between atoms: C_17  and  O_28
    2  A    between atoms: O_28  and  C_29
    3  A    between atoms: C_29  and  C_32
                            x       y       z     vdW  Elec       q    Type
                         _______ _______ _______ _____ _____    ______ ____

>  <TORSDO>
F 3

$$$$
=
 OpenBabel11122412263D

 34 40  0  0  1  0  0  0  0  0999 V2000
  188.3450  176.9590  137.5740 C   0  0  0  0  0  0  0  0  0  0  0  0
  186.7140  178.1020  139.1140 C   0  0  0  0  0  3  0  0  0  0  0  0
  194.4300  174.4780  136.5420 N   0  0  0  0  0  0  0  0  0  0  0  0
  190.0690  175.8400  136.2540 C   0  0  0  0  0  0  0  0  0  0  0  0
  192.4450  176.1120  136.8530 C   0  0  2  0  0  3  0  0  0  0  0  0
  194.6780  176.7890  136.4510 O   0  0  0  0  0  0  0  0  0  0  0  0
  195.7250  174.3050  136.1860 O   0  0  0  0  0  1  0  0  0  0  0  0
  192.4100  173.2180  136.0020 C   0  0  0  0  0  2  0  0  0  0  0  0
  188.9870  177.6970  139.8110 C   0  0  0  0  0  0  0  0  0  0  0  0
  189.7460  177.4060  142.8690 C   0  0  0  0  0  2  0  0  0  0  0  0
  192.0800  176.2050  138.3280 C   0  0  0  0  0  2  0  0  0  0  0  0
  191.3930  173.9400  136.6270 O   0  0  0  0  0  0  0  0  0  0  0  0
  190.2590  177.2810  139.7020 C   0  0  0  0  0  0  0  0  0  0  0  0
  186.9160  178.6550  140.5300 C   0  0  0  0  0  3  0  0  0  0  0  0
  191.4340  175.2370  136.0950 C   0  0  1  0  0  3  0  0  0  0  0  0
  193.6530  173.2910  136.8690 C   0  0  0  0  0  2  0  0  0  0  0  0
  188.3700  177.4110  142.2050 C   0  0  2  0  0  3  0  0  0  0  0  0
  189.7260  176.4570  137.4030 C   0  0  0  0  0  0  0  0  0  0  0  0
  193.8980  175.8120  136.6060 C   0  0  0  0  0  0  0  0  0  0  0  0
  190.6910  176.6590  138.4710 N   0  0  0  0  0  0  0  0  0  0  0  0
  187.8720  176.0640  135.2850 C   0  0  0  0  0  3  0  0  0  0  0  0
  190.7820  176.6440  142.0530 C   0  0  0  0  0  2  0  0  0  0  0  0
  189.0980  175.6380  135.2170 N   0  0  0  0  0  0  0  0  0  0  0  0
  191.2200  177.4570  140.8430 C   0  0  0  0  0  2  0  0  0  0  0  0
  188.3580  178.3530  140.9910 C   0  0  1  0  0  3  0  0  0  0  0  0
  187.3400  176.8330  136.4640 C   0  0  0  0  0  2  0  0  0  0  0  0
  188.0320  177.5440  138.7360 C   0  0  0  0  0  0  0  0  0  0  0  0
  187.4260  177.8220  143.1510 O   0  0  0  0  0  0  0  0  0  0  0  0
  187.8960  177.3170  144.3660 C   0  0  0  0  0  2  0  0  0  0  0  0
  185.9510  178.9160  147.2530 C   0  0  0  0  0  2  0  0  0  0  0  0
  185.6470  178.2020  144.9610 C   0  0  0  0  0  2  0  0  0  0  0  0
  186.7690  177.2750  145.3800 C   0  0  2  0  0  3  0  0  0  0  0  0
  184.9020  178.5670  146.2210 C   0  0  0  0  0  2  0  0  0  0  0  0
  187.3800  177.8150  147.0050 S   0  0  0  0  0  0  0  0  0  0  0  0
  1 27  2  0  0  0  0
  2 14  2  0  0  0  0
  3 19  1  0  0  0  0
  3 16  1  0  0  0  0
  4 18  2  0  0  0  0
  5 11  1  1  0  0  0
  6 19  2  0  0  0  0
  7  3  1  0  0  0  0
  8 12  1  0  0  0  0
  8 16  1  0  0  0  0
  9 25  1  0  0  0  0
 11 20  1  0  0  0  0
 13  9  2  0  0  0  0
 13 24  1  0  0  0  0
 15  4  1  1  0  0  0
 15 12  1  0  0  0  0
 15  5  1  0  0  0  0
 17 10  1  0  0  0  0
 17 28  1  1  0  0  0
 18  1  1  0  0  0  0
 18 20  1  0  0  0  0
 19  5  1  0  0  0  0
 20 13  1  0  0  0  0
 21 26  1  0  0  0  0
 22 10  1  0  0  0  0
 23 21  2  0  0  0  0
 23  4  1  0  0  0  0
 24 22  1  0  0  0  0
 25 14  1  6  0  0  0
 25 17  1  0  0  0  0
 26  1  1  0  0  0  0
 27  2  1  0  0  0  0
 27  9  1  0  0  0  0
 28 29  1  0  0  0  0
 31 32  1  0  0  0  0
 31 33  1  0  0  0  0
 32 29  1  6  0  0  0
 32 34  1  0  0  0  0
 33 30  1  0  0  0  0
 34 30  1  0  0  0  0
M  END
>  <MODEL>
2

>  <REMARK>
 VINA RESULT:      -8.7      6.309      9.180
  Name = 
  3 active torsions:
  status: ('A' for Active; 'I' for Inactive)
    1  A    between atoms: C_17  and  O_28
    2  A    between atoms: O_28  and  C_29
    3  A    between atoms: C_29  and  C_32
                            x       y       z     vdW  Elec       q    Type
                         _______ _______ _______ _____ _____    ______ ____

>  <TORSDO>
F 3

$$$$
=
 OpenBabel11122412263D

 34 40  0  0  1  0  0  0  0  0999 V2000
  187.9050  177.7070  139.0900 C   0  0  0  0  0  0  0  0  0  0  0  0
  185.7810  178.2530  137.8540 C   0  0  0  0  0  3  0  0  0  0  0  0
  191.2300  177.3840  144.8430 N   0  0  0  0  0  0  0  0  0  0  0  0
  189.8530  177.2160  140.4800 C   0  0  0  0  0  0  0  0  0  0  0  0
  190.0760  178.2670  142.6990 C   0  0  2  0  0  3  0  0  0  0  0  0
  191.1360  179.6450  144.3060 O   0  0  0  0  0  0  0  0  0  0  0  0
  192.0240  177.6490  145.9070 O   0  0  0  0  0  1  0  0  0  0  0  0
  191.1870  175.5210  143.2670 C   0  0  0  0  0  2  0  0  0  0  0  0
  185.9530  178.6310  140.2290 C   0  0  0  0  0  0  0  0  0  0  0  0
  183.3930  178.6290  142.0890 C   0  0  0  0  0  2  0  0  0  0  0  0
  188.5640  178.2430  142.8810 C   0  0  0  0  0  2  0  0  0  0  0  0
  190.1740  175.8670  142.3720 O   0  0  0  0  0  0  0  0  0  0  0  0
  186.5370  178.6610  141.4390 C   0  0  0  0  0  0  0  0  0  0  0  0
  184.4660  178.8510  138.3690 C   0  0  0  0  0  3  0  0  0  0  0  0
  190.5360  177.1000  141.8110 C   0  0  1  0  0  3  0  0  0  0  0  0
  190.7950  176.0080  144.6480 C   0  0  0  0  0  2  0  0  0  0  0  0
  183.5420  178.1720  140.6390 C   0  0  2  0  0  3  0  0  0  0  0  0
  188.5940  177.6910  140.3990 C   0  0  0  0  0  0  0  0  0  0  0  0
  190.8360  178.4660  143.9810 C   0  0  0  0  0  0  0  0  0  0  0  0
  187.9050  178.2100  141.5690 N   0  0  0  0  0  0  0  0  0  0  0  0
  189.9810  176.6900  138.1290 C   0  0  0  0  0  3  0  0  0  0  0  0
  184.5960  178.2500  142.9430 C   0  0  0  0  0  2  0  0  0  0  0  0
  190.5120  176.6960  139.3160 N   0  0  0  0  0  0  0  0  0  0  0  0
  185.7820  179.1540  142.6390 C   0  0  0  0  0  2  0  0  0  0  0  0
  184.5630  179.0480  139.8960 C   0  0  1  0  0  3  0  0  0  0  0  0
  188.6120  177.2460  137.8460 C   0  0  0  0  0  2  0  0  0  0  0  0
  186.6480  178.1620  139.0500 C   0  0  0  0  0  0  0  0  0  0  0  0
  182.2910  178.2520  140.0210 O   0  0  0  0  0  0  0  0  0  0  0  0
  181.4330  178.7330  141.0140 C   0  0  0  0  0  2  0  0  0  0  0  0
  178.9310  181.6290  140.8630 C   0  0  0  0  0  2  0  0  0  0  0  0
  180.6700  180.5900  139.5420 C   0  0  0  0  0  2  0  0  0  0  0  0
  180.2320  179.4070  140.3790 C   0  0  2  0  0  3  0  0  0  0  0  0
  179.4840  181.5190  139.4610 C   0  0  0  0  0  2  0  0  0  0  0  0
  179.1050  180.0090  141.6730 S   0  0  0  0  0  0  0  0  0  0  0  0
  1 18  1  0  0  0  0
  2 14  2  0  0  0  0
  2 27  1  0  0  0  0
  3  7  1  0  0  0  0
  5 11  1  1  0  0  0
  5 19  1  0  0  0  0
  8 16  1  0  0  0  0
  9 13  2  0  0  0  0
 10 22  1  0  0  0  0
 12  8  1  0  0  0  0
 13 20  1  0  0  0  0
 13 24  1  0  0  0  0
 15  4  1  6  0  0  0
 15 12  1  0  0  0  0
 15  5  1  0  0  0  0
 16  3  1  0  0  0  0
 17 28  1  6  0  0  0
 17 10  1  0  0  0  0
 18  4  2  0  0  0  0
 18 20  1  0  0  0  0
 19  6  2  0  0  0  0
 19  3  1  0  0  0  0
 20 11  1  0  0  0  0
 21 23  2  0  0  0  0
 23  4  1  0  0  0  0
 24 22  1  0  0  0  0
 25 14  1  6  0  0  0
 25  9  1  0  0  0  0
 25 17  1  0  0  0  0
 26 21  1  0  0  0  0
 26  1  1  0  0  0  0
 27  1  2  0  0  0  0
 27  9  1  0  0  0  0
 28 29  1  0  0  0  0
 30 34  1  0  0  0  0
 31 32  1  0  0  0  0
 32 29  1  1  0  0  0
 32 34  1  0  0  0  0
 33 31  1  0  0  0  0
 33 30  1  0  0  0  0
M  END
>  <MODEL>
3

>  <REMARK>
 VINA RESULT:      -8.3      3.898      9.527
  Name = 
  3 active torsions:
  status: ('A' for Active; 'I' for Inactive)
    1  A    between atoms: C_17  and  O_28
    2  A    between atoms: O_28  and  C_29
    3  A    between atoms: C_29  and  C_32
                            x       y       z     vdW  Elec       q    Type
                         _______ _______ _______ _____ _____    ______ ____

>  <TORSDO>
F 3

$$$$
=
 OpenBabel11122412263D

 34 40  0  0  1  0  0  0  0  0999 V2000
  187.9290  177.7060  139.0360 C   0  0  0  0  0  0  0  0  0  0  0  0
  185.8120  178.2530  137.7890 C   0  0  0  0  0  3  0  0  0  0  0  0
  191.2250  177.3790  144.8050 N   0  0  0  0  0  0  0  0  0  0  0  0
  189.8700  177.2140  140.4350 C   0  0  0  0  0  0  0  0  0  0  0  0
  190.0810  178.2630  142.6560 C   0  0  2  0  0  3  0  0  0  0  0  0
  191.1330  179.6410  144.2690 O   0  0  0  0  0  0  0  0  0  0  0  0
  192.0130  177.6430  145.8730 O   0  0  0  0  0  1  0  0  0  0  0  0
  191.1890  175.5160  143.2270 C   0  0  0  0  0  2  0  0  0  0  0  0
  185.9720  178.6300  140.1650 C   0  0  0  0  0  0  0  0  0  0  0  0
  183.4020  178.6280  142.0110 C   0  0  0  0  0  2  0  0  0  0  0  0
  188.5680  178.2390  142.8300 C   0  0  0  0  0  2  0  0  0  0  0  0
  190.1810  175.8630  142.3270 O   0  0  0  0  0  0  0  0  0  0  0  0
  186.5500  178.6590  141.3770 C   0  0  0  0  0  0  0  0  0  0  0  0
  184.4940  178.8510  138.2970 C   0  0  0  0  0  3  0  0  0  0  0  0
  190.5460  177.0970  141.7690 C   0  0  1  0  0  3  0  0  0  0  0  0
  190.7900  176.0030  144.6070 C   0  0  0  0  0  2  0  0  0  0  0  0
  183.5590  178.1710  140.5620 C   0  0  2  0  0  3  0  0  0  0  0  0
  188.6120  177.6890  140.3480 C   0  0  0  0  0  0  0  0  0  0  0  0
  190.8350  178.4610  143.9420 C   0  0  0  0  0  0  0  0  0  0  0  0
  187.9160  178.2070  141.5140 N   0  0  0  0  0  0  0  0  0  0  0  0
  190.0100  176.6900  138.0850 C   0  0  0  0  0  3  0  0  0  0  0  0
  184.6000  178.2470  142.8720 C   0  0  0  0  0  2  0  0  0  0  0  0
  190.5350  176.6940  139.2740 N   0  0  0  0  0  0  0  0  0  0  0  0
  185.7880  179.1520  142.5740 C   0  0  0  0  0  2  0  0  0  0  0  0
  184.5840  179.0480  139.8250 C   0  0  1  0  0  3  0  0  0  0  0  0
  188.6430  177.2450  137.7950 C   0  0  0  0  0  2  0  0  0  0  0  0
  186.6720  178.1610  138.9890 C   0  0  0  0  0  0  0  0  0  0  0  0
  182.3100  178.2520  139.9380 O   0  0  0  0  0  0  0  0  0  0  0  0
  181.6920  177.0300  140.2170 C   0  0  0  0  0  2  0  0  0  0  0  0
  182.2660  176.6040  136.4540 C   0  0  0  0  0  2  0  0  0  0  0  0
  182.8150  175.5480  138.5600 C   0  0  0  0  0  2  0  0  0  0  0  0
  181.5180  176.2330  138.9380 C   0  0  2  0  0  3  0  0  0  0  0  0
  182.7560  175.3140  137.0710 C   0  0  0  0  0  2  0  0  0  0  0  0
  181.0420  177.3450  137.5800 S   0  0  0  0  0  0  0  0  0  0  0  0
  1 18  1  0  0  0  0
  2 14  2  0  0  0  0
  2 27  1  0  0  0  0
  3  7  1  0  0  0  0
  5 11  1  1  0  0  0
  5 19  1  0  0  0  0
  8 16  1  0  0  0  0
  9 13  2  0  0  0  0
 10 22  1  0  0  0  0
 12  8  1  0  0  0  0
 13 20  1  0  0  0  0
 13 24  1  0  0  0  0
 15  4  1  6  0  0  0
 15 12  1  0  0  0  0
 15  5  1  0  0  0  0
 16  3  1  0  0  0  0
 17 28  1  6  0  0  0
 17 10  1  0  0  0  0
 18  4  2  0  0  0  0
 18 20  1  0  0  0  0
 19  6  2  0  0  0  0
 19  3  1  0  0  0  0
 20 11  1  0  0  0  0
 21 23  2  0  0  0  0
 23  4  1  0  0  0  0
 24 22  1  0  0  0  0
 25 14  1  6  0  0  0
 25  9  1  0  0  0  0
 25 17  1  0  0  0  0
 26 21  1  0  0  0  0
 26  1  1  0  0  0  0
 27  1  2  0  0  0  0
 27  9  1  0  0  0  0
 28 29  1  0  0  0  0
 30 33  1  0  0  0  0
 30 34  1  0  0  0  0
 31 32  1  0  0  0  0
 32 29  1  1  0  0  0
 33 31  1  0  0  0  0
 34 32  1  0  0  0  0
M  END
>  <MODEL>
4

>  <REMARK>
 VINA RESULT:      -8.2      3.981      9.382
  Name = 
  3 active torsions:
  status: ('A' for Active; 'I' for Inactive)
    1  A    between atoms: C_17  and  O_28
    2  A    between atoms: O_28  and  C_29
    3  A    between atoms: C_29  and  C_32
                            x       y       z     vdW  Elec       q    Type
                         _______ _______ _______ _____ _____    ______ ____

>  <TORSDO>
F 3

$$$$
=
 OpenBabel11122412263D

 34 40  0  0  1  0  0  0  0  0999 V2000
  187.5270  177.9460  142.1980 C   0  0  0  0  0  0  0  0  0  0  0  0
  189.9960  177.4550  142.1740 C   0  0  0  0  0  3  0  0  0  0  0  0
  181.9290  179.1880  138.8270 N   0  0  0  0  0  0  0  0  0  0  0  0
  185.1370  178.4050  141.9980 C   0  0  0  0  0  0  0  0  0  0  0  0
  184.2520  179.4420  139.9430 C   0  0  2  0  0  3  0  0  0  0  0  0
  183.1680  181.1540  138.7180 O   0  0  0  0  0  0  0  0  0  0  0  0
  180.8850  179.7890  138.2080 O   0  0  0  0  0  1  0  0  0  0  0  0
  182.0280  177.5120  140.5980 C   0  0  0  0  0  2  0  0  0  0  0  0
  188.8050  177.8720  140.1190 C   0  0  0  0  0  0  0  0  0  0  0  0
  189.8150  176.6960  137.3600 C   0  0  0  0  0  2  0  0  0  0  0  0
  185.3060  178.7260  139.1080 C   0  0  0  0  0  2  0  0  0  0  0  0
  183.3950  177.3540  140.8300 O   0  0  0  0  0  0  0  0  0  0  0  0
  187.7540  178.1670  139.3350 C   0  0  0  0  0  0  0  0  0  0  0  0
  190.9760  177.3830  140.9960 C   0  0  0  0  0  3  0  0  0  0  0  0
  183.8900  178.6160  141.1880 C   0  0  1  0  0  3  0  0  0  0  0  0
  181.8170  177.7660  139.1180 C   0  0  0  0  0  2  0  0  0  0  0  0
  190.2580  176.3570  138.7830 C   0  0  2  0  0  3  0  0  0  0  0  0
  186.3280  178.2490  141.3870 C   0  0  1  0  0  3  0  0  0  0  0  0
  183.0960  179.9680  139.1370 C   0  0  0  0  0  0  0  0  0  0  0  0
  186.4650  178.3940  139.9470 N   0  0  0  0  0  0  0  0  0  0  0  0
  186.0270  177.9960  144.2020 C   0  0  0  0  0  3  0  0  0  0  0  0
  188.3100  176.9110  137.2570 C   0  0  0  0  0  2  0  0  0  0  0  0
  185.0190  178.2450  143.4190 N   0  0  0  0  0  0  0  0  0  0  0  0
  187.9160  178.2590  137.8450 C   0  0  0  0  0  2  0  0  0  0  0  0
  190.2020  177.6040  139.6790 C   0  0  1  0  0  3  0  0  0  0  0  0
  187.4380  177.8600  143.6960 C   0  0  0  0  0  3  0  0  0  0  0  0
  188.6890  177.7730  141.5570 C   0  0  0  0  0  0  0  0  0  0  0  0
  191.5610  175.8530  138.7290 O   0  0  0  0  0  0  0  0  0  0  0  0
  192.0950  176.3690  137.5450 C   0  0  0  0  0  2  0  0  0  0  0  0
  194.8180  174.0690  136.1420 C   0  0  0  0  0  2  0  0  0  0  0  0
  194.0970  176.3770  136.0650 C   0  0  0  0  0  2  0  0  0  0  0  0
  193.5550  175.9760  137.4210 C   0  0  2  0  0  3  0  0  0  0  0  0
  195.2690  175.4680  135.7880 C   0  0  0  0  0  2  0  0  0  0  0  0
  193.7250  174.1740  137.5940 S   0  0  0  0  0  0  0  0  0  0  0  0
  1 26  1  0  0  0  0
  3 16  1  0  0  0  0
  3 19  1  0  0  0  0
  4 23  2  0  0  0  0
  5 11  1  6  0  0  0
  5 15  1  0  0  0  0
  6 19  2  0  0  0  0
  7  3  1  0  0  0  0
  8 12  1  0  0  0  0
  9 27  1  0  0  0  0
 10 17  1  0  0  0  0
 11 20  1  0  0  0  0
 13 20  1  0  0  0  0
 13  9  2  0  0  0  0
 14  2  2  0  0  0  0
 15 12  1  6  0  0  0
 15  4  1  0  0  0  0
 16  8  1  0  0  0  0
 17 28  1  6  0  0  0
 17 25  1  0  0  0  0
 18  4  1  1  0  0  0
 18  1  1  0  0  0  0
 19  5  1  0  0  0  0
 20 18  1  0  0  0  0
 22 10  1  0  0  0  0
 22 24  1  0  0  0  0
 23 21  1  0  0  0  0
 24 13  1  0  0  0  0
 25  9  1  0  0  0  0
 25 14  1  1  0  0  0
 26 21  2  0  0  0  0
 27  2  1  0  0  0  0
 27  1  2  0  0  0  0
 29 28  1  0  0  0  0
 30 34  1  0  0  0  0
 31 32  1  0  0  0  0
 32 29  1  6  0  0  0
 32 34  1  0  0  0  0
 33 31  1  0  0  0  0
 33 30  1  0  0  0  0
M  END
>  <MODEL>
5

>  <REMARK>
 VINA RESULT:      -8.0      4.787      6.228
  Name = 
  3 active torsions:
  status: ('A' for Active; 'I' for Inactive)
    1  A    between atoms: C_17  and  O_28
    2  A    between atoms: O_28  and  C_29
    3  A    between atoms: C_29  and  C_32
                            x       y       z     vdW  Elec       q    Type
                         _______ _______ _______ _____ _____    ______ ____

>  <TORSDO>
F 3

$$$$
=
 OpenBabel11122412263D

 34 40  0  0  1  0  0  0  0  0999 V2000
  189.9980  175.3900  137.2180 C   0  0  0  0  0  0  0  0  0  0  0  0
  188.1100  176.6870  138.2610 C   0  0  0  0  0  3  0  0  0  0  0  0
  196.4640  173.8290  137.1040 N   0  0  0  0  0  0  0  0  0  0  0  0
  191.9600  174.2070  136.3710 C   0  0  0  0  0  0  0  0  0  0  0  0
  194.2170  175.0890  136.8260 C   0  0  2  0  0  3  0  0  0  0  0  0
  196.3250  175.9700  136.2030 O   0  0  0  0  0  0  0  0  0  0  0  0
  197.7870  173.7770  136.8280 O   0  0  0  0  0  1  0  0  0  0  0  0
  194.7190  172.1230  137.0520 C   0  0  0  0  0  2  0  0  0  0  0  0
  190.3720  176.9610  139.0480 C   0  0  0  0  0  0  0  0  0  0  0  0
  190.9870  177.8930  142.0080 C   0  0  0  0  0  2  0  0  0  0  0  0
  193.7550  175.6230  138.1750 C   0  0  0  0  0  2  0  0  0  0  0  0
  193.5600  172.8230  137.3860 O   0  0  0  0  0  0  0  0  0  0  0  0
  191.7010  176.7670  139.0880 C   0  0  0  0  0  0  0  0  0  0  0  0
  188.1320  177.7250  139.3900 C   0  0  0  0  0  3  0  0  0  0  0  0
  193.4140  173.8390  136.4300 C   0  0  1  0  0  3  0  0  0  0  0  0
  195.8780  172.7120  137.8320 C   0  0  0  0  0  2  0  0  0  0  0  0
  189.6720  177.4210  141.3900 C   0  0  2  0  0  3  0  0  0  0  0  0
  191.4510  175.1130  137.2290 C   0  0  0  0  0  0  0  0  0  0  0  0
  195.7120  174.9860  136.6950 C   0  0  0  0  0  0  0  0  0  0  0  0
  192.3030  175.8430  138.1530 N   0  0  0  0  0  0  0  0  0  0  0  0
  189.8180  173.6850  135.3930 C   0  0  0  0  0  3  0  0  0  0  0  0
  192.1830  177.0920  141.5100 C   0  0  0  0  0  2  0  0  0  0  0  0
  191.1010  173.4870  135.4750 N   0  0  0  0  0  0  0  0  0  0  0  0
  192.5490  177.4970  140.0890 C   0  0  0  0  0  2  0  0  0  0  0  0
  189.5740  177.8640  139.9220 C   0  0  1  0  0  3  0  0  0  0  0  0
  189.0960  174.7070  136.2270 C   0  0  0  0  0  2  0  0  0  0  0  0
  189.5230  176.2760  138.0990 C   0  0  0  0  0  0  0  0  0  0  0  0
  188.6180  177.9600  142.1340 O   0  0  0  0  0  0  0  0  0  0  0  0
  188.3770  177.0230  143.1430 C   0  0  0  0  0  2  0  0  0  0  0  0
  185.5910  178.7630  145.1150 C   0  0  0  0  0  2  0  0  0  0  0  0
  186.2070  178.2060  142.8420 C   0  0  0  0  0  2  0  0  0  0  0  0
  186.9290  177.1050  143.5890 C   0  0  2  0  0  3  0  0  0  0  0  0
  185.0460  178.6210  143.7120 C   0  0  0  0  0  2  0  0  0  0  0  0
  186.8520  177.4740  145.3680 S   0  0  0  0  0  0  0  0  0  0  0  0
  1 18  1  0  0  0  0
  1 27  2  0  0  0  0
  2 14  2  0  0  0  0
  3 16  1  0  0  0  0
  4 18  2  0  0  0  0
  5 11  1  1  0  0  0
  6 19  2  0  0  0  0
  7  3  1  0  0  0  0
  8 12  1  0  0  0  0
  8 16  1  0  0  0  0
  9 13  2  0  0  0  0
  9 25  1  0  0  0  0
 13 24  1  0  0  0  0
 15  4  1  1  0  0  0
 15  5  1  0  0  0  0
 15 12  1  0  0  0  0
 17 10  1  0  0  0  0
 17 28  1  1  0  0  0
 18 20  1  0  0  0  0
 19  5  1  0  0  0  0
 19  3  1  0  0  0  0
 20 11  1  0  0  0  0
 20 13  1  0  0  0  0
 21 23  2  0  0  0  0
 21 26  1  0  0  0  0
 22 10  1  0  0  0  0
 23  4  1  0  0  0  0
 24 22  1  0  0  0  0
 25 14  1  6  0  0  0
 25 17  1  0  0  0  0
 26  1  1  0  0  0  0
 27  2  1  0  0  0  0
 27  9  1  0  0  0  0
 28 29  1  0  0  0  0
 30 34  1  0  0  0  0
 31 32  1  0  0  0  0
 31 33  1  0  0  0  0
 32 29  1  6  0  0  0
 32 34  1  0  0  0  0
 33 30  1  0  0  0  0
M  END
>  <MODEL>
6

>  <REMARK>
 VINA RESULT:      -7.3      7.416     10.803
  Name = 
  3 active torsions:
  status: ('A' for Active; 'I' for Inactive)
    1  A    between atoms: C_17  and  O_28
    2  A    between atoms: O_28  and  C_29
    3  A    between atoms: C_29  and  C_32
                            x       y       z     vdW  Elec       q    Type
                         _______ _______ _______ _____ _____    ______ ____

>  <TORSDO>
F 3

$$$$
=
 OpenBabel11122412263D

 34 40  0  0  1  0  0  0  0  0999 V2000
  184.6710  178.4330  144.5330 C   0  0  0  0  0  0  0  0  0  0  0  0
  182.3330  178.9060  143.7310 C   0  0  0  0  0  3  0  0  0  0  0  0
  190.9960  176.9460  143.1050 N   0  0  0  0  0  0  0  0  0  0  0  0
  187.0030  177.9710  145.0960 C   0  0  0  0  0  0  0  0  0  0  0  0
  188.4410  176.7730  143.4920 C   0  0  2  0  0  3  0  0  0  0  0  0
  189.8070  174.9710  142.7900 O   0  0  0  0  0  0  0  0  0  0  0  0
  192.1650  176.3020  142.8780 O   0  0  0  0  0  1  0  0  0  0  0  0
  190.4050  178.7620  144.6250 C   0  0  0  0  0  2  0  0  0  0  0  0
  184.0750  178.3270  142.1680 C   0  0  0  0  0  0  0  0  0  0  0  0
  183.9600  179.2650  139.1480 C   0  0  0  0  0  2  0  0  0  0  0  0
  187.6990  177.4110  142.3240 C   0  0  0  0  0  2  0  0  0  0  0  0
  189.0350  178.9310  144.4220 O   0  0  0  0  0  0  0  0  0  0  0  0
  185.3060  177.9740  141.7610 C   0  0  0  0  0  0  0  0  0  0  0  0
  181.7520  178.8750  142.3120 C   0  0  0  0  0  3  0  0  0  0  0  0
  188.4300  177.7010  144.7170 C   0  0  1  0  0  3  0  0  0  0  0  0
  191.0440  178.3880  143.3010 C   0  0  0  0  0  2  0  0  0  0  0  0
  183.1180  179.7180  140.3400 C   0  0  2  0  0  3  0  0  0  0  0  0
  186.0520  178.0700  144.1460 C   0  0  1  0  0  3  0  0  0  0  0  0
  189.7740  176.1880  143.1140 C   0  0  0  0  0  0  0  0  0  0  0  0
  186.3490  177.8060  142.7480 N   0  0  0  0  0  0  0  0  0  0  0  0
  185.5020  178.5580  146.8910 C   0  0  0  0  0  3  0  0  0  0  0  0
  185.4210  179.0500  139.5180 C   0  0  0  0  0  2  0  0  0  0  0  0
  186.6930  178.2500  146.4690 N   0  0  0  0  0  0  0  0  0  0  0  0
  185.5950  177.7580  140.3040 C   0  0  0  0  0  2  0  0  0  0  0  0
  182.8790  178.5500  141.3100 C   0  0  1  0  0  3  0  0  0  0  0  0
  184.3110  178.6430  145.9770 C   0  0  0  0  0  3  0  0  0  0  0  0
  183.7580  178.5450  143.5620 C   0  0  0  0  0  0  0  0  0  0  0  0
  181.9010  180.2090  139.8580 O   0  0  0  0  0  0  0  0  0  0  0  0
  182.2070  180.7570  138.6090 C   0  0  0  0  0  2  0  0  0  0  0  0
  180.3700  182.5740  135.7820 C   0  0  0  0  0  2  0  0  0  0  0  0
  180.8960  180.3360  136.5340 C   0  0  0  0  0  2  0  0  0  0  0  0
  180.9290  181.0740  137.8560 C   0  0  2  0  0  3  0  0  0  0  0  0
  179.9800  181.1220  135.6290 C   0  0  0  0  0  2  0  0  0  0  0  0
  180.8390  182.8580  137.5170 S   0  0  0  0  0  0  0  0  0  0  0  0
  1 26  1  0  0  0  0
  3 19  1  0  0  0  0
  3 16  1  0  0  0  0
  4 23  2  0  0  0  0
  5 11  1  6  0  0  0
  5 15  1  0  0  0  0
  6 19  2  0  0  0  0
  7  3  1  0  0  0  0
  9 27  1  0  0  0  0
 10 22  1  0  0  0  0
 10 17  1  0  0  0  0
 11 20  1  0  0  0  0
 12  8  1  0  0  0  0
 13  9  2  0  0  0  0
 13 20  1  0  0  0  0
 14  2  2  0  0  0  0
 15 12  1  6  0  0  0
 15  4  1  0  0  0  0
 16  8  1  0  0  0  0
 17 28  1  6  0  0  0
 17 25  1  0  0  0  0
 18  1  1  1  0  0  0
 18  4  1  0  0  0  0
 19  5  1  0  0  0  0
 20 18  1  0  0  0  0
 22 24  1  0  0  0  0
 23 21  1  0  0  0  0
 24 13  1  0  0  0  0
 25  9  1  0  0  0  0
 25 14  1  1  0  0  0
 26 21  2  0  0  0  0
 27  2  1  0  0  0  0
 27  1  2  0  0  0  0
 29 28  1  0  0  0  0
 30 34  1  0  0  0  0
 31 32  1  0  0  0  0
 32 29  1  6  0  0  0
 33 30  1  0  0  0  0
 33 31  1  0  0  0  0
 34 32  1  0  0  0  0
M  END
>  <MODEL>
7

>  <REMARK>
 VINA RESULT:      -7.2      3.618      8.898
  Name = 
  3 active torsions:
  status: ('A' for Active; 'I' for Inactive)
    1  A    between atoms: C_17  and  O_28
    2  A    between atoms: O_28  and  C_29
    3  A    between atoms: C_29  and  C_32
                            x       y       z     vdW  Elec       q    Type
                         _______ _______ _______ _____ _____    ______ ____

>  <TORSDO>
F 3

$$$$
=
 OpenBabel11122412263D

 34 40  0  0  1  0  0  0  0  0999 V2000
  186.4980  178.2770  140.8160 C   0  0  0  0  0  0  0  0  0  0  0  0
  188.1790  177.7650  142.6180 C   0  0  0  0  0  3  0  0  0  0  0  0
  180.2180  179.6410  139.0980 N   0  0  0  0  0  0  0  0  0  0  0  0
  184.7180  178.8090  139.2300 C   0  0  0  0  0  0  0  0  0  0  0  0
  182.3660  178.3970  139.8410 C   0  0  2  0  0  3  0  0  0  0  0  0
  180.2490  177.3660  139.5870 O   0  0  0  0  0  0  0  0  0  0  0  0
  178.9310  179.5560  138.6910 O   0  0  0  0  0  1  0  0  0  0  0  0
  182.0990  180.9720  138.2920 C   0  0  0  0  0  2  0  0  0  0  0  0
  185.8450  178.0400  143.1560 C   0  0  0  0  0  0  0  0  0  0  0  0
  184.9150  178.9800  146.0310 C   0  0  0  0  0  2  0  0  0  0  0  0
  182.6690  178.7190  141.2980 C   0  0  0  0  0  2  0  0  0  0  0  0
  183.1640  180.5610  139.0930 O   0  0  0  0  0  0  0  0  0  0  0  0
  184.5380  178.2530  142.9260 C   0  0  0  0  0  0  0  0  0  0  0  0
  187.9780  177.5580  144.1250 C   0  0  0  0  0  3  0  0  0  0  0  0
  183.3010  179.1780  138.9040 C   0  0  1  0  0  3  0  0  0  0  0  0
  180.8340  180.9600  139.1290 C   0  0  0  0  0  2  0  0  0  0  0  0
  186.3110  178.9840  145.4110 C   0  0  2  0  0  3  0  0  0  0  0  0
  185.0780  178.5440  140.5020 C   0  0  0  0  0  0  0  0  0  0  0  0
  180.9000  178.4410  139.5040 C   0  0  0  0  0  0  0  0  0  0  0  0
  184.0950  178.4920  141.5710 N   0  0  0  0  0  0  0  0  0  0  0  0
  186.9700  178.6310  138.3830 C   0  0  0  0  0  3  0  0  0  0  0  0
  183.8360  179.3800  145.0330 C   0  0  0  0  0  2  0  0  0  0  0  0
  185.7060  178.8690  138.1910 N   0  0  0  0  0  0  0  0  0  0  0  0
  183.5530  178.2450  144.0590 C   0  0  0  0  0  2  0  0  0  0  0  0
  186.4910  177.7810  144.4720 C   0  0  1  0  0  3  0  0  0  0  0  0
  187.5330  178.2510  139.7250 C   0  0  0  0  0  2  0  0  0  0  0  0
  186.8240  178.0420  142.0920 C   0  0  0  0  0  0  0  0  0  0  0  0
  187.2510  178.9420  146.4440 O   0  0  0  0  0  0  0  0  0  0  0  0
  186.9410  177.7840  147.1630 C   0  0  0  0  0  2  0  0  0  0  0  0
  190.7070  177.3420  147.6990 C   0  0  0  0  0  2  0  0  0  0  0  0
  188.8370  178.6280  148.5380 C   0  0  0  0  0  2  0  0  0  0  0  0
  188.1100  177.3940  148.0460 C   0  0  2  0  0  3  0  0  0  0  0  0
  190.2460  178.1940  148.8600 C   0  0  0  0  0  2  0  0  0  0  0  0
  189.2850  176.3780  147.1000 S   0  0  0  0  0  0  0  0  0  0  0  0
  1 27  2  0  0  0  0
  2 14  2  0  0  0  0
  3 16  1  0  0  0  0
  3 19  1  0  0  0  0
  4 18  2  0  0  0  0
  5 11  1  1  0  0  0
  7  3  1  0  0  0  0
  8 12  1  0  0  0  0
  8 16  1  0  0  0  0
  9 25  1  0  0  0  0
 11 20  1  0  0  0  0
 13  9  2  0  0  0  0
 13 24  1  0  0  0  0
 15 12  1  1  0  0  0
 15  4  1  0  0  0  0
 15  5  1  0  0  0  0
 17 10  1  0  0  0  0
 17 28  1  1  0  0  0
 18  1  1  0  0  0  0
 18 20  1  0  0  0  0
 19  6  2  0  0  0  0
 19  5  1  0  0  0  0
 20 13  1  0  0  0  0
 21 26  1  0  0  0  0
 22 10  1  0  0  0  0
 23 21  2  0  0  0  0
 23  4  1  0  0  0  0
 24 22  1  0  0  0  0
 25 14  1  6  0  0  0
 25 17  1  0  0  0  0
 26  1  1  0  0  0  0
 27  2  1  0  0  0  0
 27  9  1  0  0  0  0
 28 29  1  0  0  0  0
 30 33  1  0  0  0  0
 31 33  1  0  0  0  0
 32 29  1  6  0  0  0
 32 31  1  0  0  0  0
 34 30  1  0  0  0  0
 34 32  1  0  0  0  0
M  END
>  <MODEL>
8

>  <REMARK>
 VINA RESULT:      -7.1      1.877      4.137
  Name = 
  3 active torsions:
  status: ('A' for Active; 'I' for Inactive)
    1  A    between atoms: C_17  and  O_28
    2  A    between atoms: O_28  and  C_29
    3  A    between atoms: C_29  and  C_32
                            x       y       z     vdW  Elec       q    Type
                         _______ _______ _______ _____ _____    ______ ____

>  <TORSDO>
F 3

$$$$
=
 OpenBabel11122412263D

 34 40  0  0  1  0  0  0  0  0999 V2000
  184.4200  178.6960  140.6650 C   0  0  0  0  0  0  0  0  0  0  0  0
  183.9240  179.0010  143.1140 C   0  0  0  0  0  3  0  0  0  0  0  0
  188.7850  177.1900  135.8770 N   0  0  0  0  0  0  0  0  0  0  0  0
  185.1030  178.3250  138.3500 C   0  0  0  0  0  0  0  0  0  0  0  0
  187.4890  178.4400  137.7390 C   0  0  2  0  0  3  0  0  0  0  0  0
  189.3500  179.3350  136.5810 O   0  0  0  0  0  0  0  0  0  0  0  0
  189.7110  177.2490  134.8910 O   0  0  0  0  0  1  0  0  0  0  0  0
  186.5680  176.1740  135.9730 C   0  0  0  0  0  2  0  0  0  0  0  0
  186.1510  178.4560  142.3690 C   0  0  0  0  0  0  0  0  0  0  0  0
  188.1960  176.9450  144.2530 C   0  0  0  0  0  2  0  0  0  0  0  0
  187.8820  177.8840  139.1020 C   0  0  0  0  0  2  0  0  0  0  0  0
  186.1030  176.5130  137.2440 O   0  0  0  0  0  0  0  0  0  0  0  0
  187.1320  178.1890  141.4900 C   0  0  0  0  0  0  0  0  0  0  0  0
  184.8580  178.9170  144.3270 C   0  0  0  0  0  3  0  0  0  0  0  0
  186.1090  177.9140  137.3140 C   0  0  1  0  0  3  0  0  0  0  0  0
  188.0640  175.9380  136.0570 C   0  0  0  0  0  2  0  0  0  0  0  0
  186.6930  177.1590  144.4220 C   0  0  2  0  0  3  0  0  0  0  0  0
  185.4500  178.3830  139.6510 C   0  0  1  0  0  3  0  0  0  0  0  0
  188.5810  178.3450  136.7090 C   0  0  0  0  0  0  0  0  0  0  0  0
  186.8220  178.1660  140.0790 N   0  0  0  0  0  0  0  0  0  0  0  0
  182.7820  178.8240  138.7760 C   0  0  0  0  0  3  0  0  0  0  0  0
  188.5810  176.6510  142.8080 C   0  0  0  0  0  2  0  0  0  0  0  0
  183.7410  178.5290  137.9480 N   0  0  0  0  0  0  0  0  0  0  0  0
  188.5300  177.9180  141.9670 C   0  0  0  0  0  2  0  0  0  0  0  0
  186.2720  178.5230  143.8520 C   0  0  1  0  0  3  0  0  0  0  0  0
  183.0050  178.9970  140.2530 C   0  0  0  0  0  3  0  0  0  0  0  0
  184.7930  178.7220  141.9490 C   0  0  0  0  0  0  0  0  0  0  0  0
  186.3890  177.0860  145.7850 O   0  0  0  0  0  0  0  0  0  0  0  0
  187.1220  178.1220  146.3700 C   0  0  0  0  0  2  0  0  0  0  0  0
  190.4890  177.6790  148.1420 C   0  0  0  0  0  2  0  0  0  0  0  0
  188.3240  178.7070  148.4710 C   0  0  0  0  0  2  0  0  0  0  0  0
  187.9440  177.5850  147.5270 C   0  0  2  0  0  3  0  0  0  0  0  0
  189.5680  178.2530  149.1940 C   0  0  0  0  0  2  0  0  0  0  0  0
  189.4710  176.8250  146.8980 S   0  0  0  0  0  0  0  0  0  0  0  0
  1 27  2  0  0  0  0
  2 14  2  0  0  0  0
  3 16  1  0  0  0  0
  3 19  1  0  0  0  0
  5 11  1  1  0  0  0
  6 19  2  0  0  0  0
  7  3  1  0  0  0  0
  8 16  1  0  0  0  0
  8 12  1  0  0  0  0
  9 25  1  0  0  0  0
 10 17  1  0  0  0  0
 11 20  1  0  0  0  0
 13 24  1  0  0  0  0
 13  9  2  0  0  0  0
 15 12  1  1  0  0  0
 15  5  1  0  0  0  0
 15  4  1  0  0  0  0
 17 28  1  1  0  0  0
 18  4  1  6  0  0  0
 18 20  1  0  0  0  0
 18  1  1  0  0  0  0
 19  5  1  0  0  0  0
 20 13  1  0  0  0  0
 21 26  2  0  0  0  0
 22 10  1  0  0  0  0
 23  4  2  0  0  0  0
 23 21  1  0  0  0  0
 24 22  1  0  0  0  0
 25 14  1  1  0  0  0
 25 17  1  0  0  0  0
 26  1  1  0  0  0  0
 27  9  1  0  0  0  0
 27  2  1  0  0  0  0
 28 29  1  0  0  0  0
 30 33  1  0  0  0  0
 31 33  1  0  0  0  0
 32 29  1  6  0  0  0
 32 31  1  0  0  0  0
 34 32  1  0  0  0  0
 34 30  1  0  0  0  0
M  END
>  <MODEL>
9

>  <REMARK>
 VINA RESULT:      -7.1      3.664      4.853
  Name = 
  3 active torsions:
  status: ('A' for Active; 'I' for Inactive)
    1  A    between atoms: C_17  and  O_28
    2  A    between atoms: O_28  and  C_29
    3  A    between atoms: C_29  and  C_32
                            x       y       z     vdW  Elec       q    Type
                         _______ _______ _______ _____ _____    ______ ____

>  <TORSDO>
F 3

$$$$
