=
 OpenBabel11122412003D

 28 32  0  0  1  0  0  0  0  0999 V2000
  187.6200  175.9270  136.5040 C   0  0  0  0  0  0  0  0  0  0  0  0
  190.1110  175.6800  139.2540 O   0  0  0  0  0  0  0  0  0  0  0  0
  183.7490  180.3250  138.9820 C   0  0  0  0  0  1  0  0  0  0  0  0
  189.4400  177.5860  135.1630 C   0  0  0  0  0  3  0  0  0  0  0  0
  185.0490  178.9060  140.5860 C   0  0  2  0  0  3  0  0  0  0  0  0
  186.6300  175.0190  137.1720 C   0  0  0  0  0  2  0  0  0  0  0  0
  190.8870  177.9980  138.9190 O   0  0  0  0  0  0  0  0  0  0  0  0
  189.9660  177.1070  139.7040 S   0  0  0  0  0  0  0  0  0  0  0  0
  189.5730  178.4170  142.0400 C   0  0  2  0  0  3  0  0  0  0  0  0
  188.3290  177.6300  139.5210 N   0  0  0  0  0  0  0  0  0  0  0  0
  184.6490  177.1200  135.4530 O   0  0  0  0  0  0  0  0  0  0  0  0
  186.3010  178.0870  138.7590 C   0  0  0  0  0  0  0  0  0  0  0  0
  188.0580  178.2150  141.9600 C   0  0  0  0  0  2  0  0  0  0  0  0
  190.3370  177.2360  141.4410 C   0  0  0  0  0  2  0  0  0  0  0  0
  184.7170  176.4390  136.5100 C   0  0  0  0  0  0  0  0  0  0  0  0
  188.0080  177.1590  137.0790 C   0  0  0  0  0  0  0  0  0  0  0  0
  184.1610  178.9040  139.3160 C   0  0  2  0  0  3  0  0  0  0  0  0
  189.9780  178.5920  143.4880 C   0  0  0  0  0  1  0  0  0  0  0  0
  184.4040  177.0280  137.7670 N   0  0  0  0  0  2  0  0  0  0  0  0
  188.9240  177.9740  136.4020 C   0  0  0  0  0  3  0  0  0  0  0  0
  188.1460  175.5460  135.2620 C   0  0  0  0  0  3  0  0  0  0  0  0
  189.0520  176.3720  134.5940 C   0  0  0  0  0  3  0  0  0  0  0  0
  185.2720  175.0590  136.4690 C   0  0  0  0  0  2  0  0  0  0  0  0
  186.3300  178.4020  140.0590 C   0  0  0  0  0  0  0  0  0  0  0  0
  184.9760  178.3100  138.1380 C   0  0  2  0  0  3  0  0  0  0  0  0
  187.5910  178.1310  140.5370 C   0  0  0  0  0  0  0  0  0  0  0  0
  184.4860  177.9260  141.5970 C   0  0  0  0  0  1  0  0  0  0  0  0
  187.5480  177.5920  138.4120 C   0  0  0  0  0  0  0  0  0  0  0  0
  1 16  1  0  0  0  0
  1  6  1  0  0  0  0
  2  8  2  0  0  0  0
  4 20  1  0  0  0  0
  5 27  1  1  0  0  0
  7  8  2  0  0  0  0
  8 14  1  0  0  0  0
  9 18  1  1  0  0  0
 10  8  1  0  0  0  0
 10 26  1  0  0  0  0
 11 15  2  0  0  0  0
 12 24  1  0  0  0  0
 13  9  1  0  0  0  0
 14  9  1  0  0  0  0
 15 19  1  0  0  0  0
 16 28  1  0  0  0  0
 17  3  1  6  0  0  0
 17  5  1  0  0  0  0
 20 16  2  0  0  0  0
 21  1  2  0  0  0  0
 22  4  2  0  0  0  0
 22 21  1  0  0  0  0
 23 15  1  0  0  0  0
 23  6  1  0  0  0  0
 24 26  2  0  0  0  0
 24  5  1  0  0  0  0
 25 19  1  1  0  0  0
 25 12  1  0  0  0  0
 25 17  1  0  0  0  0
 26 13  1  0  0  0  0
 28 12  2  0  0  0  0
 28 10  1  0  0  0  0
M  END
>  <MODEL>
1

>  <REMARK>
 VINA RESULT:      -6.1      0.000      0.000
  Name = 
  0 active torsions:
  status: ('A' for Active; 'I' for Inactive)
                            x       y       z     vdW  Elec       q    Type
                         _______ _______ _______ _____ _____    ______ ____

>  <TORSDO>
F 0

$$$$
=
 OpenBabel11122412003D

 28 32  0  0  1  0  0  0  0  0999 V2000
  190.2110  178.2760  142.7140 C   0  0  0  0  0  0  0  0  0  0  0  0
  186.9580  179.7490  141.6750 O   0  0  0  0  0  0  0  0  0  0  0  0
  188.4460  175.5980  148.2070 C   0  0  0  0  0  1  0  0  0  0  0  0
  189.6810  176.1590  140.9530 C   0  0  0  0  0  3  0  0  0  0  0  0
  187.1360  177.5860  147.4270 C   0  0  2  0  0  3  0  0  0  0  0  0
  190.5490  179.4030  143.6450 C   0  0  0  0  0  2  0  0  0  0  0  0
  185.9040  177.5340  141.4140 O   0  0  0  0  0  0  0  0  0  0  0  0
  186.1110  178.7000  142.3390 S   0  0  0  0  0  0  0  0  0  0  0  0
  183.9770  178.6410  144.0030 C   0  0  2  0  0  3  0  0  0  0  0  0
  186.8500  178.1730  143.8090 N   0  0  0  0  0  0  0  0  0  0  0  0
  192.0100  176.7670  145.1310 O   0  0  0  0  0  0  0  0  0  0  0  0
  188.2560  177.4390  145.3540 C   0  0  0  0  0  0  0  0  0  0  0  0
  184.8680  178.8010  145.2370 C   0  0  0  0  0  2  0  0  0  0  0  0
  184.5350  179.3940  142.7970 C   0  0  0  0  0  2  0  0  0  0  0  0
  191.4350  177.8640  145.3640 C   0  0  0  0  0  0  0  0  0  0  0  0
  189.0810  177.4510  142.9210 C   0  0  0  0  0  0  0  0  0  0  0  0
  188.5550  177.0050  147.6510 C   0  0  2  0  0  3  0  0  0  0  0  0
  182.5890  179.1580  144.3170 C   0  0  0  0  0  1  0  0  0  0  0  0
  190.3830  177.9350  146.3200 N   0  0  0  0  0  2  0  0  0  0  0  0
  188.8250  176.4030  142.0290 C   0  0  0  0  0  3  0  0  0  0  0  0
  191.0620  178.0240  141.6300 C   0  0  0  0  0  3  0  0  0  0  0  0
  190.7990  176.9710  140.7520 C   0  0  0  0  0  3  0  0  0  0  0  0
  191.7460  179.0570  144.5320 C   0  0  0  0  0  2  0  0  0  0  0  0
  187.1120  177.7680  145.9660 C   0  0  0  0  0  0  0  0  0  0  0  0
  189.3000  176.9680  146.2920 C   0  0  2  0  0  3  0  0  0  0  0  0
  186.2300  178.2150  145.0090 C   0  0  0  0  0  0  0  0  0  0  0  0
  187.0280  178.9320  148.1170 C   0  0  0  0  0  1  0  0  0  0  0  0
  188.1070  177.6980  144.0010 C   0  0  0  0  0  0  0  0  0  0  0  0
  1 16  1  0  0  0  0
  1  6  1  0  0  0  0
  2  8  2  0  0  0  0
  4 20  1  0  0  0  0
  5 17  1  0  0  0  0
  5 27  1  1  0  0  0
  6 23  1  0  0  0  0
  7  8  2  0  0  0  0
  8 14  1  0  0  0  0
  8 10  1  0  0  0  0
  9 18  1  1  0  0  0
  9 13  1  0  0  0  0
 10 28  1  0  0  0  0
 10 26  1  0  0  0  0
 11 15  2  0  0  0  0
 12 24  1  0  0  0  0
 14  9  1  0  0  0  0
 15 19  1  0  0  0  0
 16 28  1  0  0  0  0
 17  3  1  6  0  0  0
 20 16  2  0  0  0  0
 21  1  2  0  0  0  0
 22  4  2  0  0  0  0
 22 21  1  0  0  0  0
 23 15  1  0  0  0  0
 24  5  1  0  0  0  0
 25 12  1  6  0  0  0
 25 19  1  0  0  0  0
 25 17  1  0  0  0  0
 26 13  1  0  0  0  0
 26 24  2  0  0  0  0
 28 12  2  0  0  0  0
M  END
>  <MODEL>
2

>  <REMARK>
 VINA RESULT:      -5.8      4.556      7.665
  Name = 
  0 active torsions:
  status: ('A' for Active; 'I' for Inactive)
                            x       y       z     vdW  Elec       q    Type
                         _______ _______ _______ _____ _____    ______ ____

>  <TORSDO>
F 0

$$$$
=
 OpenBabel11122412003D

 28 32  0  0  1  0  0  0  0  0999 V2000
  181.9860  178.2110  140.1020 C   0  0  0  0  0  0  0  0  0  0  0  0
  180.2100  174.9490  139.9190 O   0  0  0  0  0  0  0  0  0  0  0  0
  186.0310  177.4820  135.2480 C   0  0  0  0  0  1  0  0  0  0  0  0
  179.8060  179.3410  138.7490 C   0  0  0  0  0  3  0  0  0  0  0  0
  185.2250  175.4030  136.3920 C   0  0  2  0  0  3  0  0  0  0  0  0
  183.1580  177.6550  140.8550 C   0  0  0  0  0  2  0  0  0  0  0  0
  179.2310  175.4720  137.7150 O   0  0  0  0  0  0  0  0  0  0  0  0
  180.3620  174.7890  138.4320 S   0  0  0  0  0  0  0  0  0  0  0  0
  181.1930  172.8630  136.7220 C   0  0  2  0  0  3  0  0  0  0  0  0
  181.8770  175.4370  137.9110 N   0  0  0  0  0  0  0  0  0  0  0  0
  184.5560  180.1170  139.0440 O   0  0  0  0  0  0  0  0  0  0  0  0
  183.6450  176.7210  137.5490 C   0  0  0  0  0  0  0  0  0  0  0  0
  182.6600  173.2640  136.9000 C   0  0  0  0  0  2  0  0  0  0  0  0
  180.3900  173.0600  138.0070 C   0  0  0  0  0  2  0  0  0  0  0  0
  184.7750  178.9750  139.5310 C   0  0  0  0  0  0  0  0  0  0  0  0
  181.6610  177.7730  138.7980 C   0  0  0  0  0  0  0  0  0  0  0  0
  185.7980  176.8290  136.5970 C   0  0  2  0  0  3  0  0  0  0  0  0
  181.1190  171.4100  136.3040 C   0  0  0  0  0  1  0  0  0  0  0  0
  185.3280  177.9430  138.7220 N   0  0  0  0  0  2  0  0  0  0  0  0
  180.5650  178.3410  138.1370 C   0  0  0  0  0  3  0  0  0  0  0  0
  181.2160  179.2130  140.7080 C   0  0  0  0  0  3  0  0  0  0  0  0
  180.1300  179.7760  140.0350 C   0  0  0  0  0  3  0  0  0  0  0  0
  184.3150  178.6540  140.9090 C   0  0  0  0  0  2  0  0  0  0  0  0
  183.8930  175.5220  137.0100 C   0  0  0  0  0  0  0  0  0  0  0  0
  184.7750  177.6660  137.4080 C   0  0  2  0  0  3  0  0  0  0  0  0
  182.7940  174.7220  137.2220 C   0  0  0  0  0  0  0  0  0  0  0  0
  186.0660  174.4060  137.1650 C   0  0  0  0  0  1  0  0  0  0  0  0
  182.3850  176.6770  138.1260 C   0  0  0  0  0  0  0  0  0  0  0  0
  1 21  1  0  0  0  0
  1  6  1  0  0  0  0
  4 22  1  0  0  0  0
  5 17  1  0  0  0  0
  5 24  1  0  0  0  0
  5 27  1  1  0  0  0
  6 23  1  0  0  0  0
  7  8  2  0  0  0  0
  8  2  2  0  0  0  0
  9 18  1  1  0  0  0
  9 13  1  0  0  0  0
  9 14  1  0  0  0  0
 10 28  1  0  0  0  0
 10  8  1  0  0  0  0
 11 15  2  0  0  0  0
 12 28  2  0  0  0  0
 13 26  1  0  0  0  0
 14  8  1  0  0  0  0
 15 23  1  0  0  0  0
 16  1  2  0  0  0  0
 17  3  1  6  0  0  0
 17 25  1  0  0  0  0
 19 15  1  0  0  0  0
 20  4  2  0  0  0  0
 20 16  1  0  0  0  0
 22 21  2  0  0  0  0
 24 26  2  0  0  0  0
 24 12  1  0  0  0  0
 25 12  1  1  0  0  0
 25 19  1  0  0  0  0
 26 10  1  0  0  0  0
 28 16  1  0  0  0  0
M  END
>  <MODEL>
3

>  <REMARK>
 VINA RESULT:      -5.8      3.923      7.830
  Name = 
  0 active torsions:
  status: ('A' for Active; 'I' for Inactive)
                            x       y       z     vdW  Elec       q    Type
                         _______ _______ _______ _____ _____    ______ ____

>  <TORSDO>
F 0

$$$$
=
 OpenBabel11122412003D

 28 32  0  0  1  0  0  0  0  0999 V2000
  182.7040  177.3790  138.4950 C   0  0  0  0  0  0  0  0  0  0  0  0
  182.7850  173.8550  137.3110 O   0  0  0  0  0  0  0  0  0  0  0  0
  188.5830  179.1740  136.8590 C   0  0  0  0  0  1  0  0  0  0  0  0
  181.3300  178.0170  136.1360 C   0  0  0  0  0  3  0  0  0  0  0  0
  188.2140  176.7390  137.3220 C   0  0  2  0  0  3  0  0  0  0  0  0
  183.4100  177.0770  139.7850 C   0  0  0  0  0  2  0  0  0  0  0  0
  183.0020  174.5300  134.9480 O   0  0  0  0  0  0  0  0  0  0  0  0
  183.7460  174.1070  136.1840 S   0  0  0  0  0  0  0  0  0  0  0  0
  186.0440  173.0170  135.2590 C   0  0  2  0  0  3  0  0  0  0  0  0
  184.8930  175.3180  136.6340 N   0  0  0  0  0  0  0  0  0  0  0  0
  184.4190  180.2120  139.1190 O   0  0  0  0  0  0  0  0  0  0  0  0
  185.8910  177.1570  137.3610 C   0  0  0  0  0  0  0  0  0  0  0  0
  186.8870  173.8220  136.2520 C   0  0  0  0  0  2  0  0  0  0  0  0
  184.6870  172.6330  135.8470 C   0  0  0  0  0  2  0  0  0  0  0  0
  184.7860  179.1260  139.6390 C   0  0  0  0  0  0  0  0  0  0  0  0
  183.3240  177.1780  137.2410 C   0  0  0  0  0  0  0  0  0  0  0  0
  187.9610  178.1830  137.8250 C   0  0  2  0  0  3  0  0  0  0  0  0
  186.7940  171.7600  134.8710 C   0  0  0  0  0  1  0  0  0  0  0  0
  186.0420  178.5520  139.2940 N   0  0  0  0  0  2  0  0  0  0  0  0
  182.6230  177.4940  136.0710 C   0  0  0  0  0  3  0  0  0  0  0  0
  181.4050  177.9020  138.5500 C   0  0  0  0  0  3  0  0  0  0  0  0
  180.7210  178.2210  137.3750 C   0  0  0  0  0  3  0  0  0  0  0  0
  183.8450  178.3580  140.4980 C   0  0  0  0  0  2  0  0  0  0  0  0
  186.8430  176.2670  137.0600 C   0  0  0  0  0  0  0  0  0  0  0  0
  186.4310  178.4250  137.9000 C   0  0  2  0  0  3  0  0  0  0  0  0
  186.2310  175.1250  136.5970 C   0  0  0  0  0  0  0  0  0  0  0  0
  188.8380  175.9200  138.4360 C   0  0  0  0  0  1  0  0  0  0  0  0
  184.6610  176.5690  137.1060 C   0  0  0  0  0  0  0  0  0  0  0  0
  1 21  1  0  0  0  0
  1  6  1  0  0  0  0
  4 22  1  0  0  0  0
  5 17  1  0  0  0  0
  5 27  1  1  0  0  0
  6 23  1  0  0  0  0
  7  8  2  0  0  0  0
  8 10  1  0  0  0  0
  8  2  2  0  0  0  0
  9 18  1  1  0  0  0
  9 14  1  0  0  0  0
  9 13  1  0  0  0  0
 10 28  1  0  0  0  0
 11 15  2  0  0  0  0
 13 26  1  0  0  0  0
 14  8  1  0  0  0  0
 15 23  1  0  0  0  0
 16  1  2  0  0  0  0
 17  3  1  6  0  0  0
 17 25  1  0  0  0  0
 19 15  1  0  0  0  0
 20  4  2  0  0  0  0
 20 16  1  0  0  0  0
 22 21  2  0  0  0  0
 24  5  1  0  0  0  0
 24 12  1  0  0  0  0
 25 12  1  1  0  0  0
 25 19  1  0  0  0  0
 26 10  1  0  0  0  0
 26 24  2  0  0  0  0
 28 16  1  0  0  0  0
 28 12  2  0  0  0  0
M  END
>  <MODEL>
4

>  <REMARK>
 VINA RESULT:      -5.7      3.324      6.418
  Name = 
  0 active torsions:
  status: ('A' for Active; 'I' for Inactive)
                            x       y       z     vdW  Elec       q    Type
                         _______ _______ _______ _____ _____    ______ ____

>  <TORSDO>
F 0

$$$$
=
 OpenBabel11122412003D

 28 32  0  0  1  0  0  0  0  0999 V2000
  183.4990  177.1580  139.2960 C   0  0  0  0  0  0  0  0  0  0  0  0
  185.9410  176.9910  142.0950 O   0  0  0  0  0  0  0  0  0  0  0  0
  178.9350  180.6010  142.0850 C   0  0  0  0  0  1  0  0  0  0  0  0
  185.0620  179.2170  138.2110 C   0  0  0  0  0  3  0  0  0  0  0  0
  180.4100  179.2280  143.5760 C   0  0  2  0  0  3  0  0  0  0  0  0
  182.6500  176.0390  139.8250 C   0  0  0  0  0  2  0  0  0  0  0  0
  186.3490  179.4240  142.0400 O   0  0  0  0  0  0  0  0  0  0  0  0
  185.5640  178.3190  142.6900 S   0  0  0  0  0  0  0  0  0  0  0  0
  184.9240  179.2830  145.1370 C   0  0  2  0  0  3  0  0  0  0  0  0
  183.8700  178.6010  142.5030 N   0  0  0  0  0  0  0  0  0  0  0  0
  180.3990  177.9890  138.2690 O   0  0  0  0  0  0  0  0  0  0  0  0
  181.8110  178.8220  141.7190 C   0  0  0  0  0  0  0  0  0  0  0  0
  183.4610  178.8600  144.9790 C   0  0  0  0  0  2  0  0  0  0  0  0
  185.8750  178.3090  144.4440 C   0  0  0  0  0  2  0  0  0  0  0  0
  180.5520  177.2120  139.2480 C   0  0  0  0  0  0  0  0  0  0  0  0
  183.6770  178.3620  140.0140 C   0  0  0  0  0  0  0  0  0  0  0  0
  179.5590  179.2320  142.2800 C   0  0  2  0  0  3  0  0  0  0  0  0
  185.2670  179.3550  146.6090 C   0  0  0  0  0  1  0  0  0  0  0  0
  180.1250  177.6010  140.5490 N   0  0  0  0  0  2  0  0  0  0  0  0
  184.4660  179.3790  139.4630 C   0  0  0  0  0  3  0  0  0  0  0  0
  184.1030  177.0040  138.0410 C   0  0  0  0  0  3  0  0  0  0  0  0
  184.8810  178.0290  137.5000 C   0  0  0  0  0  3  0  0  0  0  0  0
  181.3180  175.9470  139.0810 C   0  0  0  0  0  2  0  0  0  0  0  0
  181.7630  178.9910  143.0460 C   0  0  0  0  0  0  0  0  0  0  0  0
  180.4800  178.9070  141.0760 C   0  0  2  0  0  3  0  0  0  0  0  0
  183.0420  178.8650  143.5390 C   0  0  0  0  0  0  0  0  0  0  0  0
  179.9870  178.0660  144.4530 C   0  0  0  0  0  1  0  0  0  0  0  0
  183.1270  178.5670  141.3680 C   0  0  0  0  0  0  0  0  0  0  0  0
  1  6  1  0  0  0  0
  1 16  1  0  0  0  0
  2  8  2  0  0  0  0
  4 20  1  0  0  0  0
  5 27  1  1  0  0  0
  7  8  2  0  0  0  0
  8 14  1  0  0  0  0
  9 18  1  1  0  0  0
 10  8  1  0  0  0  0
 10 26  1  0  0  0  0
 11 15  2  0  0  0  0
 12 24  1  0  0  0  0
 13  9  1  0  0  0  0
 14  9  1  0  0  0  0
 15 19  1  0  0  0  0
 16 28  1  0  0  0  0
 17  3  1  6  0  0  0
 17  5  1  0  0  0  0
 20 16  2  0  0  0  0
 21  1  2  0  0  0  0
 22 21  1  0  0  0  0
 22  4  2  0  0  0  0
 23 15  1  0  0  0  0
 23  6  1  0  0  0  0
 24 26  2  0  0  0  0
 24  5  1  0  0  0  0
 25 19  1  1  0  0  0
 25 12  1  0  0  0  0
 25 17  1  0  0  0  0
 26 13  1  0  0  0  0
 28 12  2  0  0  0  0
 28 10  1  0  0  0  0
M  END
>  <MODEL>
5

>  <REMARK>
 VINA RESULT:      -5.6      3.961      5.387
  Name = 
  0 active torsions:
  status: ('A' for Active; 'I' for Inactive)
                            x       y       z     vdW  Elec       q    Type
                         _______ _______ _______ _____ _____    ______ ____

>  <TORSDO>
F 0

$$$$
=
 OpenBabel11122412003D

 28 32  0  0  1  0  0  0  0  0999 V2000
  183.6120  178.0370  138.5360 C   0  0  0  0  0  0  0  0  0  0  0  0
  180.2140  178.9430  139.7470 O   0  0  0  0  0  0  0  0  0  0  0  0
  186.5880  177.4130  144.1230 C   0  0  0  0  0  1  0  0  0  0  0  0
  182.6650  175.4190  138.1990 C   0  0  0  0  0  3  0  0  0  0  0  0
  184.6140  178.9550  144.0400 C   0  0  2  0  0  3  0  0  0  0  0  0
  184.1510  179.4300  138.6720 C   0  0  0  0  0  2  0  0  0  0  0  0
  179.8810  176.7460  140.8170 O   0  0  0  0  0  0  0  0  0  0  0  0
  180.3120  178.1690  141.0310 S   0  0  0  0  0  0  0  0  0  0  0  0
  179.8640  178.6320  143.6600 C   0  0  2  0  0  3  0  0  0  0  0  0
  181.9280  178.2190  141.6410 N   0  0  0  0  0  0  0  0  0  0  0  0
  186.8600  177.5370  139.2820 O   0  0  0  0  0  0  0  0  0  0  0  0
  184.1270  178.1230  141.8860 C   0  0  0  0  0  0  0  0  0  0  0  0
  181.2540  179.2460  143.8430 C   0  0  0  0  0  2  0  0  0  0  0  0
  179.2890  178.9290  142.2760 C   0  0  0  0  0  2  0  0  0  0  0  0
  186.3030  178.6250  139.5850 C   0  0  0  0  0  0  0  0  0  0  0  0
  183.1540  177.3020  139.6540 C   0  0  0  0  0  0  0  0  0  0  0  0
  185.9330  178.5370  143.3420 C   0  0  2  0  0  3  0  0  0  0  0  0
  178.9310  179.1820  144.7180 C   0  0  0  0  0  1  0  0  0  0  0  0
  186.1430  178.9960  140.9490 N   0  0  0  0  0  2  0  0  0  0  0  0
  182.6760  175.9990  139.4690 C   0  0  0  0  0  3  0  0  0  0  0  0
  183.5940  177.4460  137.2650 C   0  0  0  0  0  3  0  0  0  0  0  0
  183.1230  176.1430  137.0970 C   0  0  0  0  0  3  0  0  0  0  0  0
  185.6730  179.4580  138.5250 C   0  0  0  0  0  2  0  0  0  0  0  0
  183.6100  178.6090  143.0200 C   0  0  0  0  0  0  0  0  0  0  0  0
  185.6050  178.0460  141.9080 C   0  0  2  0  0  3  0  0  0  0  0  0
  182.2420  178.6610  142.8780 C   0  0  0  0  0  0  0  0  0  0  0  0
  184.6200  180.4540  144.2710 C   0  0  0  0  0  1  0  0  0  0  0  0
  183.0810  177.8830  141.0080 C   0  0  0  0  0  0  0  0  0  0  0  0
  1  6  1  0  0  0  0
  1 16  1  0  0  0  0
  2  8  2  0  0  0  0
  4 20  1  0  0  0  0
  5 27  1  6  0  0  0
  7  8  2  0  0  0  0
  8 10  1  0  0  0  0
  8 14  1  0  0  0  0
  9 13  1  0  0  0  0
  9 18  1  1  0  0  0
 10 26  1  0  0  0  0
 11 15  2  0  0  0  0
 12 25  1  0  0  0  0
 12 24  1  0  0  0  0
 14  9  1  0  0  0  0
 15 19  1  0  0  0  0
 16 28  1  0  0  0  0
 17  5  1  0  0  0  0
 17  3  1  1  0  0  0
 20 16  2  0  0  0  0
 21  1  2  0  0  0  0
 22 21  1  0  0  0  0
 22  4  2  0  0  0  0
 23  6  1  0  0  0  0
 23 15  1  0  0  0  0
 24  5  1  0  0  0  0
 25 19  1  6  0  0  0
 25 17  1  0  0  0  0
 26 24  2  0  0  0  0
 26 13  1  0  0  0  0
 28 10  1  0  0  0  0
 28 12  2  0  0  0  0
M  END
>  <MODEL>
6

>  <REMARK>
 VINA RESULT:      -5.6      3.916      6.843
  Name = 
  0 active torsions:
  status: ('A' for Active; 'I' for Inactive)
                            x       y       z     vdW  Elec       q    Type
                         _______ _______ _______ _____ _____    ______ ____

>  <TORSDO>
F 0

$$$$
=
 OpenBabel11122412003D

 28 32  0  0  1  0  0  0  0  0999 V2000
  188.6950  173.7980  135.2760 C   0  0  0  0  0  0  0  0  0  0  0  0
  185.2890  175.2420  134.9060 O   0  0  0  0  0  0  0  0  0  0  0  0
  190.6420  176.9980  140.4170 C   0  0  0  0  0  1  0  0  0  0  0  0
  187.4950  171.5850  136.5110 C   0  0  0  0  0  3  0  0  0  0  0  0
  188.9150  178.0940  138.9690 C   0  0  2  0  0  3  0  0  0  0  0  0
  189.3760  174.9470  134.5940 C   0  0  0  0  0  2  0  0  0  0  0  0
  184.5170  174.2720  137.0390 O   0  0  0  0  0  0  0  0  0  0  0  0
  185.0830  175.4950  136.3730 S   0  0  0  0  0  0  0  0  0  0  0  0
  184.2830  177.5560  137.9350 C   0  0  2  0  0  3  0  0  0  0  0  0
  186.5750  175.9450  137.1200 N   0  0  0  0  0  0  0  0  0  0  0  0
  191.6950  173.9360  136.8050 O   0  0  0  0  0  0  0  0  0  0  0  0
  188.6770  176.0530  137.8070 C   0  0  0  0  0  0  0  0  0  0  0  0
  185.6920  178.1540  137.9580 C   0  0  0  0  0  2  0  0  0  0  0  0
  183.9780  176.8730  136.6030 C   0  0  0  0  0  2  0  0  0  0  0  0
  191.2380  174.9530  136.2200 C   0  0  0  0  0  0  0  0  0  0  0  0
  187.9770  173.9660  136.4820 C   0  0  0  0  0  0  0  0  0  0  0  0
  190.2660  177.3330  138.9860 C   0  0  2  0  0  3  0  0  0  0  0  0
  183.2700  178.6540  138.1770 C   0  0  0  0  0  1  0  0  0  0  0  0
  190.9100  176.1220  136.9620 N   0  0  0  0  0  2  0  0  0  0  0  0
  187.3760  172.8530  137.0830 C   0  0  0  0  0  3  0  0  0  0  0  0
  188.8060  172.5210  134.7090 C   0  0  0  0  0  3  0  0  0  0  0  0
  188.2090  171.4190  135.3230 C   0  0  0  0  0  3  0  0  0  0  0  0
  190.8930  174.8870  134.7740 C   0  0  0  0  0  2  0  0  0  0  0  0
  188.0510  177.1560  138.2320 C   0  0  0  0  0  0  0  0  0  0  0  0
  190.1110  176.0230  138.1710 C   0  0  2  0  0  3  0  0  0  0  0  0
  186.7410  177.0910  137.8170 C   0  0  0  0  0  0  0  0  0  0  0  0
  189.0720  179.3810  138.1820 C   0  0  0  0  0  1  0  0  0  0  0  0
  187.7620  175.2890  137.0990 C   0  0  0  0  0  0  0  0  0  0  0  0
  1 16  1  0  0  0  0
  2  8  2  0  0  0  0
  4 20  1  0  0  0  0
  5 27  1  6  0  0  0
  5 17  1  0  0  0  0
  6 23  1  0  0  0  0
  6  1  1  0  0  0  0
  8 14  1  0  0  0  0
  8  7  2  0  0  0  0
  8 10  1  0  0  0  0
  9 13  1  0  0  0  0
  9 18  1  6  0  0  0
 10 26  1  0  0  0  0
 12 25  1  0  0  0  0
 12 24  1  0  0  0  0
 14  9  1  0  0  0  0
 15 11  2  0  0  0  0
 15 19  1  0  0  0  0
 16 20  2  0  0  0  0
 16 28  1  0  0  0  0
 17  3  1  1  0  0  0
 21  1  2  0  0  0  0
 21 22  1  0  0  0  0
 22  4  2  0  0  0  0
 23 15  1  0  0  0  0
 24  5  1  0  0  0  0
 25 19  1  6  0  0  0
 25 17  1  0  0  0  0
 26 13  1  0  0  0  0
 26 24  2  0  0  0  0
 28 10  1  0  0  0  0
 28 12  2  0  0  0  0
M  END
>  <MODEL>
7

>  <REMARK>
 VINA RESULT:      -5.5      2.579      5.660
  Name = 
  0 active torsions:
  status: ('A' for Active; 'I' for Inactive)
                            x       y       z     vdW  Elec       q    Type
                         _______ _______ _______ _____ _____    ______ ____

>  <TORSDO>
F 0

$$$$
=
 OpenBabel11122412003D

 28 32  0  0  1  0  0  0  0  0999 V2000
  186.3570  175.8980  135.6030 C   0  0  0  0  0  0  0  0  0  0  0  0
  182.9460  174.5940  134.9030 O   0  0  0  0  0  0  0  0  0  0  0  0
  185.1990  179.0180  141.0240 C   0  0  0  0  0  1  0  0  0  0  0  0
  186.9870  173.3650  136.6280 C   0  0  0  0  0  3  0  0  0  0  0  0
  183.2870  178.7410  139.4280 C   0  0  2  0  0  3  0  0  0  0  0  0
  186.0730  177.2570  135.0350 C   0  0  0  0  0  2  0  0  0  0  0  0
  182.9570  173.1540  136.9060 O   0  0  0  0  0  0  0  0  0  0  0  0
  182.5390  174.4840  136.3450 S   0  0  0  0  0  0  0  0  0  0  0  0
  180.4350  175.2390  137.8710 C   0  0  2  0  0  3  0  0  0  0  0  0
  183.2390  175.7680  137.2650 N   0  0  0  0  0  0  0  0  0  0  0  0
  188.3030  177.9300  137.4570 O   0  0  0  0  0  0  0  0  0  0  0  0
  184.6170  177.2380  138.1840 C   0  0  0  0  0  0  0  0  0  0  0  0
  181.0140  176.6430  138.0690 C   0  0  0  0  0  2  0  0  0  0  0  0
  180.7740  174.6730  136.4930 C   0  0  0  0  0  2  0  0  0  0  0  0
  187.2980  178.3940  136.8570 C   0  0  0  0  0  0  0  0  0  0  0  0
  185.6600  175.3980  136.7260 C   0  0  0  0  0  0  0  0  0  0  0  0
  184.7790  179.1370  139.5710 C   0  0  2  0  0  3  0  0  0  0  0  0
  178.9310  175.2920  138.0340 C   0  0  0  0  0  1  0  0  0  0  0  0
  186.2020  178.9240  137.5940 N   0  0  0  0  0  2  0  0  0  0  0  0
  185.9800  174.1280  137.2230 C   0  0  0  0  0  3  0  0  0  0  0  0
  187.3650  175.1230  135.0120 C   0  0  0  0  0  3  0  0  0  0  0  0
  187.6790  173.8620  135.5220 C   0  0  0  0  0  3  0  0  0  0  0  0
  187.1830  178.2510  135.3800 C   0  0  0  0  0  2  0  0  0  0  0  0
  183.3740  177.5460  138.5710 C   0  0  0  0  0  0  0  0  0  0  0  0
  185.6350  178.1780  138.7040 C   0  0  2  0  0  3  0  0  0  0  0  0
  182.5130  176.6290  138.0120 C   0  0  0  0  0  0  0  0  0  0  0  0
  182.5400  179.8440  138.7030 C   0  0  0  0  0  1  0  0  0  0  0  0
  184.5440  176.1280  137.3560 C   0  0  0  0  0  0  0  0  0  0  0  0
  1 16  1  0  0  0  0
  2  8  2  0  0  0  0
  4 20  1  0  0  0  0
  5 27  1  6  0  0  0
  5 17  1  0  0  0  0
  6 23  1  0  0  0  0
  6  1  1  0  0  0  0
  8 14  1  0  0  0  0
  8  7  2  0  0  0  0
  8 10  1  0  0  0  0
  9 18  1  6  0  0  0
  9 13  1  0  0  0  0
 10 28  1  0  0  0  0
 10 26  1  0  0  0  0
 12 24  1  0  0  0  0
 12 25  1  0  0  0  0
 14  9  1  0  0  0  0
 15 11  2  0  0  0  0
 15 19  1  0  0  0  0
 16 20  2  0  0  0  0
 16 28  1  0  0  0  0
 17  3  1  1  0  0  0
 21 22  1  0  0  0  0
 21  1  2  0  0  0  0
 22  4  2  0  0  0  0
 23 15  1  0  0  0  0
 24  5  1  0  0  0  0
 25 19  1  6  0  0  0
 25 17  1  0  0  0  0
 26 13  1  0  0  0  0
 26 24  2  0  0  0  0
 28 12  2  0  0  0  0
M  END
>  <MODEL>
8

>  <REMARK>
 VINA RESULT:      -5.4      3.013      5.844
  Name = 
  0 active torsions:
  status: ('A' for Active; 'I' for Inactive)
                            x       y       z     vdW  Elec       q    Type
                         _______ _______ _______ _____ _____    ______ ____

>  <TORSDO>
F 0

$$$$
=
 OpenBabel11122412003D

 28 32  0  0  1  0  0  0  0  0999 V2000
  186.0120  174.6470  135.7580 C   0  0  0  0  0  0  0  0  0  0  0  0
  183.5140  172.1150  134.6740 O   0  0  0  0  0  0  0  0  0  0  0  0
  182.6860  177.5000  140.3690 C   0  0  0  0  0  1  0  0  0  0  0  0
  187.2510  172.6170  137.2430 C   0  0  0  0  0  3  0  0  0  0  0  0
  181.3870  176.4120  138.5220 C   0  0  2  0  0  3  0  0  0  0  0  0
  185.4000  175.7560  134.9550 C   0  0  0  0  0  2  0  0  0  0  0  0
  183.5930  170.9370  136.8390 O   0  0  0  0  0  0  0  0  0  0  0  0
  182.8680  171.9690  136.0230 S   0  0  0  0  0  0  0  0  0  0  0  0
  180.3550  171.9940  137.0280 C   0  0  2  0  0  3  0  0  0  0  0  0
  182.8560  173.4850  136.8510 N   0  0  0  0  0  0  0  0  0  0  0  0
  186.6690  177.3900  137.6030 O   0  0  0  0  0  0  0  0  0  0  0  0
  183.3960  175.4270  137.7680 C   0  0  0  0  0  0  0  0  0  0  0  0
  180.3480  173.5230  137.1130 C   0  0  0  0  0  2  0  0  0  0  0  0
  181.1610  171.4950  135.8300 C   0  0  0  0  0  2  0  0  0  0  0  0
  185.7210  177.3990  136.7730 C   0  0  0  0  0  0  0  0  0  0  0  0
  185.3080  174.0080  136.8040 C   0  0  0  0  0  0  0  0  0  0  0  0
  182.5760  177.3460  138.8640 C   0  0  2  0  0  3  0  0  0  0  0  0
  178.9310  171.4930  136.9150 C   0  0  0  0  0  1  0  0  0  0  0  0
  184.3770  177.5350  137.2200 N   0  0  0  0  0  2  0  0  0  0  0  0
  185.9370  172.9900  137.5320 C   0  0  0  0  0  3  0  0  0  0  0  0
  187.3300  174.2640  135.4750 C   0  0  0  0  0  3  0  0  0  0  0  0
  187.9480  173.2530  136.2130 C   0  0  0  0  0  3  0  0  0  0  0  0
  185.9870  177.1150  135.3370 C   0  0  0  0  0  2  0  0  0  0  0  0
  182.0710  175.2760  137.8810 C   0  0  0  0  0  0  0  0  0  0  0  0
  183.8810  176.7150  138.3120 C   0  0  2  0  0  3  0  0  0  0  0  0
  181.7300  174.0660  137.3220 C   0  0  0  0  0  0  0  0  0  0  0  0
  180.4780  177.0990  137.5220 C   0  0  0  0  0  1  0  0  0  0  0  0
  183.8990  174.3130  137.1140 C   0  0  0  0  0  0  0  0  0  0  0  0
  1 16  1  0  0  0  0
  2  8  2  0  0  0  0
  4 20  1  0  0  0  0
  5 27  1  6  0  0  0
  5 17  1  0  0  0  0
  6 23  1  0  0  0  0
  6  1  1  0  0  0  0
  8  7  2  0  0  0  0
  8 10  1  0  0  0  0
  9 18  1  6  0  0  0
  9 13  1  0  0  0  0
 10 28  1  0  0  0  0
 10 26  1  0  0  0  0
 12 24  1  0  0  0  0
 12 25  1  0  0  0  0
 13 26  1  0  0  0  0
 14  8  1  0  0  0  0
 14  9  1  0  0  0  0
 15 19  1  0  0  0  0
 15 11  2  0  0  0  0
 16 28  1  0  0  0  0
 16 20  2  0  0  0  0
 17  3  1  1  0  0  0
 21  1  2  0  0  0  0
 21 22  1  0  0  0  0
 22  4  2  0  0  0  0
 23 15  1  0  0  0  0
 24  5  1  0  0  0  0
 25 19  1  6  0  0  0
 25 17  1  0  0  0  0
 26 24  2  0  0  0  0
 28 12  2  0  0  0  0
M  END
>  <MODEL>
9

>  <REMARK>
 VINA RESULT:      -5.1      4.058      6.799
  Name = 
  0 active torsions:
  status: ('A' for Active; 'I' for Inactive)
                            x       y       z     vdW  Elec       q    Type
                         _______ _______ _______ _____ _____    ______ ____

>  <TORSDO>
F 0

$$$$
