=
 OpenBabel11122411163D

 31 35  0  0  1  0  0  0  0  0999 V2000
  189.9880  175.9130  142.7990 C   0  0  0  0  0  0  0  0  0  0  0  0
  186.6010  177.0890  144.0770 C   0  0  2  0  0  3  0  0  0  0  0  0
  186.8650  177.7990  145.4000 C   0  0  0  0  0  0  0  0  0  0  0  0
  188.2800  178.1240  147.3570 C   0  0  0  0  0  0  0  0  0  0  0  0
  187.8330  176.9600  143.2070 C   0  0  0  0  0  0  0  0  0  0  0  0
  190.1810  176.7320  141.6860 C   0  0  0  0  0  3  0  0  0  0  0  0
  188.0540  177.5480  146.1060 C   0  0  0  0  0  3  0  0  0  0  0  0
  185.8610  178.9880  142.5850 C   0  0  2  0  0  3  0  0  0  0  0  0
  190.9350  175.0110  143.1490 F   0  0  0  0  0  0  0  0  0  0  0  0
  184.5820  178.9320  145.3190 C   0  0  0  0  0  2  0  0  0  0  0  0
  189.5520  177.8580  148.0780 C   0  0  0  0  0  1  0  0  0  0  0  0
  186.9470  178.6850  141.5550 C   0  0  0  0  0  2  0  0  0  0  0  0
  185.4240  177.6970  143.2930 C   0  0  2  0  0  3  0  0  0  0  0  0
  188.8190  176.0240  143.5540 C   0  0  0  0  0  3  0  0  0  0  0  0
  187.3100  178.9440  147.9320 C   0  0  0  0  0  3  0  0  0  0  0  0
  188.0280  177.7820  142.0750 C   0  0  0  0  0  0  0  0  0  0  0  0
  189.1990  177.6560  141.3200 C   0  0  0  0  0  3  0  0  0  0  0  0
  184.2360  177.9200  144.2310 C   0  0  0  0  0  2  0  0  0  0  0  0
  185.8720  178.6020  146.0100 C   0  0  0  0  0  0  0  0  0  0  0  0
  186.1110  179.1830  147.2590 C   0  0  0  0  0  3  0  0  0  0  0  0
  184.0570  177.6640  140.8160 O   0  0  0  0  0  0  0  0  0  0  0  0
  183.8560  178.8880  141.0460 C   0  0  0  0  0  0  0  0  0  0  0  0
  184.7250  179.6120  141.9170 N   0  0  0  0  0  2  0  0  0  0  0  0
  181.3650  178.2190  138.3580 N   0  0  0  0  0  0  0  0  0  0  0  0
  181.4670  178.9200  140.6100 O   0  0  0  0  0  0  0  0  0  0  0  0
  184.1830  180.5290  138.7390 O   0  0  0  0  0  1  0  0  0  0  0  0
  181.2580  177.0130  137.5600 C   0  0  0  0  0  1  0  0  0  0  0  0
  181.4180  177.7960  139.7560 C   0  0  0  0  0  2  0  0  0  0  0  0
  182.9000  180.0180  138.9460 C   0  0  2  0  0  3  0  0  0  0  0  0
  182.6930  179.6020  140.4130 C   0  0  2  0  0  3  0  0  0  0  0  0
  182.6520  178.8240  138.0330 C   0  0  0  0  0  2  0  0  0  0  0  0
  1  9  1  0  0  0  0
  1 14  1  0  0  0  0
  2  5  1  6  0  0  0
  2  3  1  0  0  0  0
  3 19  2  0  0  0  0
  3  7  1  0  0  0  0
  4 15  1  0  0  0  0
  4 11  1  0  0  0  0
  5 14  2  0  0  0  0
  6  1  2  0  0  0  0
  7  4  2  0  0  0  0
  8 23  1  6  0  0  0
  8 13  1  0  0  0  0
 10 19  1  0  0  0  0
 12 16  1  0  0  0  0
 12  8  1  0  0  0  0
 13  2  1  0  0  0  0
 13 18  1  1  0  0  0
 16  5  1  0  0  0  0
 17  6  1  0  0  0  0
 17 16  2  0  0  0  0
 18 10  1  0  0  0  0
 19 20  1  0  0  0  0
 20 15  2  0  0  0  0
 21 22  2  0  0  0  0
 22 23  1  0  0  0  0
 24 28  1  0  0  0  0
 27 24  1  0  0  0  0
 28 25  1  0  0  0  0
 29 26  1  1  0  0  0
 29 30  1  0  0  0  0
 30 25  1  0  0  0  0
 30 22  1  6  0  0  0
 31 24  1  0  0  0  0
 31 29  1  0  0  0  0
M  END
>  <MODEL>
1

>  <REMARK>
 VINA RESULT:      -9.9      0.000      0.000
  Name = 
  2 active torsions:
  status: ('A' for Active; 'I' for Inactive)
    1  A    between atoms: C_5  and  C_30
    2  A    between atoms: C_10  and  N_16
                            x       y       z     vdW  Elec       q    Type
                         _______ _______ _______ _____ _____    ______ ____

>  <TORSDO>
F 2

$$$$
=
 OpenBabel11122411163D

 31 35  0  0  1  0  0  0  0  0999 V2000
  190.0710  175.9430  142.8050 C   0  0  0  0  0  0  0  0  0  0  0  0
  186.5190  177.1520  143.4410 C   0  0  2  0  0  3  0  0  0  0  0  0
  186.5480  177.8840  144.7780 C   0  0  0  0  0  0  0  0  0  0  0  0
  187.5950  178.2380  146.9490 C   0  0  0  0  0  0  0  0  0  0  0  0
  187.8850  177.0040  142.8060 C   0  0  0  0  0  0  0  0  0  0  0  0
  190.4640  176.7420  141.7300 C   0  0  0  0  0  3  0  0  0  0  0  0
  187.5910  177.6410  145.6880 C   0  0  0  0  0  3  0  0  0  0  0  0
  186.0670  179.0270  141.8100 C   0  0  2  0  0  3  0  0  0  0  0  0
  190.9360  175.0440  143.3320 F   0  0  0  0  0  0  0  0  0  0  0  0
  184.3220  179.0220  144.2740 C   0  0  0  0  0  2  0  0  0  0  0  0
  188.7170  177.9800  147.8890 C   0  0  0  0  0  1  0  0  0  0  0  0
  187.3170  178.7020  140.9940 C   0  0  0  0  0  2  0  0  0  0  0  0
  185.5030  177.7500  142.4500 C   0  0  2  0  0  3  0  0  0  0  0  0
  188.7870  176.0710  143.3380 C   0  0  0  0  0  3  0  0  0  0  0  0
  186.5430  179.0720  147.3300 C   0  0  0  0  0  3  0  0  0  0  0  0
  188.2830  177.8050  141.7130 C   0  0  0  0  0  0  0  0  0  0  0  0
  189.5690  177.6620  141.1800 C   0  0  0  0  0  3  0  0  0  0  0  0
  184.1690  177.9930  143.1580 C   0  0  0  0  0  2  0  0  0  0  0  0
  185.4670  178.7010  145.1880 C   0  0  0  0  0  0  0  0  0  0  0  0
  185.4850  179.3020  146.4500 C   0  0  0  0  0  3  0  0  0  0  0  0
  184.6310  177.6890  139.7400 O   0  0  0  0  0  0  0  0  0  0  0  0
  184.3840  178.9120  139.9250 C   0  0  0  0  0  0  0  0  0  0  0  0
  185.0720  179.6430  140.9410 N   0  0  0  0  0  2  0  0  0  0  0  0
  180.7270  178.6400  139.2730 N   0  0  0  0  0  0  0  0  0  0  0  0
  182.3530  180.2430  139.8690 O   0  0  0  0  0  0  0  0  0  0  0  0
  183.7470  178.0370  137.2890 O   0  0  0  0  0  1  0  0  0  0  0  0
  179.8100  177.6920  139.8750 C   0  0  0  0  0  1  0  0  0  0  0  0
  181.4720  179.2590  140.3670 C   0  0  0  0  0  2  0  0  0  0  0  0
  182.7600  178.7820  137.9380 C   0  0  2  0  0  3  0  0  0  0  0  0
  183.3550  179.6180  139.0850 C   0  0  2  0  0  3  0  0  0  0  0  0
  181.6740  177.8630  138.4810 C   0  0  0  0  0  2  0  0  0  0  0  0
  1  9  1  0  0  0  0
  1 14  1  0  0  0  0
  2  5  1  6  0  0  0
  2  3  1  0  0  0  0
  3 19  2  0  0  0  0
  3  7  1  0  0  0  0
  4 15  1  0  0  0  0
  4 11  1  0  0  0  0
  5 14  2  0  0  0  0
  6  1  2  0  0  0  0
  7  4  2  0  0  0  0
  8 23  1  6  0  0  0
  8 13  1  0  0  0  0
 10 19  1  0  0  0  0
 12 16  1  0  0  0  0
 12  8  1  0  0  0  0
 13 18  1  1  0  0  0
 13  2  1  0  0  0  0
 16  5  1  0  0  0  0
 17 16  2  0  0  0  0
 17  6  1  0  0  0  0
 18 10  1  0  0  0  0
 19 20  1  0  0  0  0
 20 15  2  0  0  0  0
 21 22  2  0  0  0  0
 22 23  1  0  0  0  0
 24 27  1  0  0  0  0
 24 28  1  0  0  0  0
 25 28  1  0  0  0  0
 29 26  1  1  0  0  0
 29 31  1  0  0  0  0
 29 30  1  0  0  0  0
 30 25  1  0  0  0  0
 30 22  1  1  0  0  0
 31 24  1  0  0  0  0
M  END
>  <MODEL>
2

>  <REMARK>
 VINA RESULT:      -9.8      1.026      1.202
  Name = 
  2 active torsions:
  status: ('A' for Active; 'I' for Inactive)
    1  A    between atoms: C_5  and  C_30
    2  A    between atoms: C_10  and  N_16
                            x       y       z     vdW  Elec       q    Type
                         _______ _______ _______ _____ _____    ______ ____

>  <TORSDO>
F 2

$$$$
=
 OpenBabel11122411163D

 31 35  0  0  1  0  0  0  0  0999 V2000
  191.3690  176.7610  145.1570 C   0  0  0  0  0  0  0  0  0  0  0  0
  187.7760  177.0300  143.9300 C   0  0  2  0  0  3  0  0  0  0  0  0
  187.0200  177.8250  144.9880 C   0  0  0  0  0  0  0  0  0  0  0  0
  186.8180  178.5760  147.2970 C   0  0  0  0  0  0  0  0  0  0  0  0
  189.2770  177.2080  144.0030 C   0  0  0  0  0  0  0  0  0  0  0  0
  192.0500  177.5670  144.2450 C   0  0  0  0  0  3  0  0  0  0  0  0
  187.5330  177.9220  146.2920 C   0  0  0  0  0  3  0  0  0  0  0  0
  187.7780  178.6160  141.9630 C   0  0  2  0  0  3  0  0  0  0  0  0
  192.0430  176.1560  146.1630 F   0  0  0  0  0  0  0  0  0  0  0  0
  185.1180  178.3050  143.3580 C   0  0  0  0  0  2  0  0  0  0  0  0
  187.3890  178.6810  148.6660 C   0  0  0  0  0  1  0  0  0  0  0  0
  189.3010  178.5820  141.8570 C   0  0  0  0  0  2  0  0  0  0  0  0
  187.2520  177.2780  142.5030 C   0  0  2  0  0  3  0  0  0  0  0  0
  189.9890  176.5800  145.0350 C   0  0  0  0  0  3  0  0  0  0  0  0
  185.5670  179.1260  147.0180 C   0  0  0  0  0  3  0  0  0  0  0  0
  189.9720  178.0170  143.0750 C   0  0  0  0  0  0  0  0  0  0  0  0
  191.3560  178.1840  143.2020 C   0  0  0  0  0  3  0  0  0  0  0  0
  185.7240  177.2040  142.4920 C   0  0  0  0  0  2  0  0  0  0  0  0
  185.7330  178.3530  144.7250 C   0  0  0  0  0  0  0  0  0  0  0  0
  185.0280  179.0150  145.7360 C   0  0  0  0  0  3  0  0  0  0  0  0
  188.4850  177.2790  139.5460 O   0  0  0  0  0  0  0  0  0  0  0  0
  187.6070  178.1810  139.4780 C   0  0  0  0  0  0  0  0  0  0  0  0
  187.2110  178.8940  140.6500 N   0  0  0  0  0  2  0  0  0  0  0  0
  187.3570  176.6690  136.0820 N   0  0  0  0  0  0  0  0  0  0  0  0
  185.9820  177.5570  137.7820 O   0  0  0  0  0  0  0  0  0  0  0  0
  188.9760  179.6530  137.4580 O   0  0  0  0  0  1  0  0  0  0  0  0
  187.9430  175.4140  135.6500 C   0  0  0  0  0  1  0  0  0  0  0  0
  186.6340  176.3910  137.3210 C   0  0  0  0  0  2  0  0  0  0  0  0
  187.9260  178.8460  137.0160 C   0  0  2  0  0  3  0  0  0  0  0  0
  186.9550  178.5140  138.1630 C   0  0  2  0  0  3  0  0  0  0  0  0
  188.4660  177.5570  136.4110 C   0  0  0  0  0  2  0  0  0  0  0  0
  1  9  1  0  0  0  0
  2  5  1  6  0  0  0
  2  3  1  0  0  0  0
  3  7  1  0  0  0  0
  4 11  1  0  0  0  0
  5 14  2  0  0  0  0
  6  1  2  0  0  0  0
  7  4  2  0  0  0  0
  8 23  1  6  0  0  0
  8 13  1  0  0  0  0
 10 19  1  0  0  0  0
 12  8  1  0  0  0  0
 12 16  1  0  0  0  0
 13 18  1  1  0  0  0
 13  2  1  0  0  0  0
 14  1  1  0  0  0  0
 15  4  1  0  0  0  0
 16 17  2  0  0  0  0
 16  5  1  0  0  0  0
 17  6  1  0  0  0  0
 18 10  1  0  0  0  0
 19  3  2  0  0  0  0
 19 20  1  0  0  0  0
 20 15  2  0  0  0  0
 22 21  2  0  0  0  0
 22 23  1  0  0  0  0
 24 31  1  0  0  0  0
 24 28  1  0  0  0  0
 25 30  1  0  0  0  0
 27 24  1  0  0  0  0
 28 25  1  0  0  0  0
 29 26  1  1  0  0  0
 29 30  1  0  0  0  0
 30 22  1  1  0  0  0
 31 29  1  0  0  0  0
M  END
>  <MODEL>
3

>  <REMARK>
 VINA RESULT:      -9.1      3.051      3.675
  Name = 
  2 active torsions:
  status: ('A' for Active; 'I' for Inactive)
    1  A    between atoms: C_5  and  C_30
    2  A    between atoms: C_10  and  N_16
                            x       y       z     vdW  Elec       q    Type
                         _______ _______ _______ _____ _____    ______ ____

>  <TORSDO>
F 2

$$$$
=
 OpenBabel11122411163D

 31 35  0  0  1  0  0  0  0  0999 V2000
  190.6500  176.7530  146.0330 C   0  0  0  0  0  0  0  0  0  0  0  0
  187.8390  177.1600  143.5000 C   0  0  2  0  0  3  0  0  0  0  0  0
  186.7640  177.9970  144.1840 C   0  0  0  0  0  0  0  0  0  0  0  0
  185.7080  178.7790  146.2350 C   0  0  0  0  0  0  0  0  0  0  0  0
  189.1980  177.2750  144.1550 C   0  0  0  0  0  0  0  0  0  0  0  0
  191.6680  177.5200  145.4650 C   0  0  0  0  0  3  0  0  0  0  0  0
  186.7300  178.0860  145.5860 C   0  0  0  0  0  3  0  0  0  0  0  0
  188.6770  178.7240  141.7020 C   0  0  2  0  0  3  0  0  0  0  0  0
  190.8520  176.1310  147.2180 F   0  0  0  0  0  0  0  0  0  0  0  0
  185.6730  178.5390  141.9430 C   0  0  0  0  0  2  0  0  0  0  0  0
  185.7010  178.8750  147.7190 C   0  0  0  0  0  1  0  0  0  0  0  0
  190.1170  178.6240  142.1990 C   0  0  0  0  0  2  0  0  0  0  0  0
  187.9250  177.4150  141.9830 C   0  0  2  0  0  3  0  0  0  0  0  0
  189.4220  176.6280  145.3790 C   0  0  0  0  0  3  0  0  0  0  0  0
  184.6900  179.3780  145.4930 C   0  0  0  0  0  3  0  0  0  0  0  0
  190.2340  178.0440  143.5790 C   0  0  0  0  0  0  0  0  0  0  0  0
  191.4630  178.1550  144.2380 C   0  0  0  0  0  3  0  0  0  0  0  0
  186.5210  177.4050  141.3750 C   0  0  0  0  0  2  0  0  0  0  0  0
  185.7060  178.5750  143.4420 C   0  0  0  0  0  0  0  0  0  0  0  0
  184.6910  179.2770  144.1010 C   0  0  0  0  0  3  0  0  0  0  0  0
  189.7680  177.0310  139.6820 O   0  0  0  0  0  0  0  0  0  0  0  0
  189.2400  178.1150  139.3130 C   0  0  0  0  0  0  0  0  0  0  0  0
  188.6800  179.0110  140.2730 N   0  0  0  0  0  2  0  0  0  0  0  0
  187.3330  177.0440  136.2970 N   0  0  0  0  0  0  0  0  0  0  0  0
  187.9220  179.0030  137.4750 O   0  0  0  0  0  0  0  0  0  0  0  0
  190.8240  176.7590  137.3690 O   0  0  0  0  0  1  0  0  0  0  0  0
  186.2950  176.0320  136.2450 C   0  0  0  0  0  1  0  0  0  0  0  0
  186.9860  177.9480  137.3910 C   0  0  0  0  0  2  0  0  0  0  0  0
  189.6720  177.3840  136.8870 C   0  0  2  0  0  3  0  0  0  0  0  0
  189.1830  178.4780  137.8530 C   0  0  2  0  0  3  0  0  0  0  0  0
  188.5670  176.3600  136.6670 C   0  0  0  0  0  2  0  0  0  0  0  0
  1  9  1  0  0  0  0
  2  5  1  1  0  0  0
  2  3  1  0  0  0  0
  3  7  1  0  0  0  0
  4 11  1  0  0  0  0
  5 14  1  0  0  0  0
  6  1  1  0  0  0  0
  7  4  2  0  0  0  0
  8 23  1  6  0  0  0
  8 13  1  0  0  0  0
  8 12  1  0  0  0  0
 10 19  1  0  0  0  0
 12 16  1  0  0  0  0
 13 18  1  1  0  0  0
 13  2  1  0  0  0  0
 14  1  2  0  0  0  0
 15  4  1  0  0  0  0
 16  5  2  0  0  0  0
 16 17  1  0  0  0  0
 17  6  2  0  0  0  0
 18 10  1  0  0  0  0
 19 20  1  0  0  0  0
 19  3  2  0  0  0  0
 20 15  2  0  0  0  0
 22 21  2  0  0  0  0
 22 23  1  0  0  0  0
 24 31  1  0  0  0  0
 24 28  1  0  0  0  0
 25 30  1  0  0  0  0
 27 24  1  0  0  0  0
 28 25  1  0  0  0  0
 29 26  1  1  0  0  0
 29 30  1  0  0  0  0
 30 22  1  1  0  0  0
 31 29  1  0  0  0  0
M  END
>  <MODEL>
4

>  <REMARK>
 VINA RESULT:      -8.3      3.312      4.554
  Name = 
  2 active torsions:
  status: ('A' for Active; 'I' for Inactive)
    1  A    between atoms: C_5  and  C_30
    2  A    between atoms: C_10  and  N_16
                            x       y       z     vdW  Elec       q    Type
                         _______ _______ _______ _____ _____    ______ ____

>  <TORSDO>
F 2

$$$$
=
 OpenBabel11122411163D

 31 35  0  0  1  0  0  0  0  0999 V2000
  183.6130  178.7890  144.2550 C   0  0  0  0  0  0  0  0  0  0  0  0
  182.6950  177.9930  140.6490 C   0  0  2  0  0  3  0  0  0  0  0  0
  181.5670  178.9470  140.2730 C   0  0  0  0  0  0  0  0  0  0  0  0
  179.7140  180.3730  140.9580 C   0  0  0  0  0  0  0  0  0  0  0  0
  183.4910  178.4480  141.8520 C   0  0  0  0  0  0  0  0  0  0  0  0
  184.8810  179.3540  144.1160 C   0  0  0  0  0  3  0  0  0  0  0  0
  180.8030  179.5610  141.2800 C   0  0  0  0  0  3  0  0  0  0  0  0
  184.5960  178.8100  139.1990 C   0  0  2  0  0  3  0  0  0  0  0  0
  183.0490  178.6820  145.4820 F   0  0  0  0  0  0  0  0  0  0  0  0
  181.9430  178.5120  137.7880 C   0  0  0  0  0  2  0  0  0  0  0  0
  178.9310  181.0260  142.0400 C   0  0  0  0  0  1  0  0  0  0  0  0
  185.5110  179.0130  140.4040 C   0  0  0  0  0  2  0  0  0  0  0  0
  183.6170  177.6560  139.4620 C   0  0  2  0  0  3  0  0  0  0  0  0
  182.9230  178.3350  143.1290 C   0  0  0  0  0  3  0  0  0  0  0  0
  179.3590  180.5680  139.6240 C   0  0  0  0  0  3  0  0  0  0  0  0
  184.7790  179.0130  141.7160 C   0  0  0  0  0  0  0  0  0  0  0  0
  185.4660  179.4550  142.8520 C   0  0  0  0  0  3  0  0  0  0  0  0
  182.7750  177.3130  138.2310 C   0  0  0  0  0  2  0  0  0  0  0  0
  181.1740  179.1200  138.9240 C   0  0  0  0  0  0  0  0  0  0  0  0
  180.0880  179.9440  138.6110 C   0  0  0  0  0  3  0  0  0  0  0  0
  187.3830  178.2030  139.2230 O   0  0  0  0  0  0  0  0  0  0  0  0
  186.8000  178.2270  138.1050 C   0  0  0  0  0  0  0  0  0  0  0  0
  185.4080  178.5300  138.0210 N   0  0  0  0  0  2  0  0  0  0  0  0
  189.7480  176.1830  137.1010 N   0  0  0  0  0  0  0  0  0  0  0  0
  187.5010  176.5580  136.4840 O   0  0  0  0  0  0  0  0  0  0  0  0
  189.0600  179.7740  137.3160 O   0  0  0  0  0  1  0  0  0  0  0  0
  190.5510  175.3410  137.9670 C   0  0  0  0  0  1  0  0  0  0  0  0
  188.3520  175.8190  137.3350 C   0  0  0  0  0  2  0  0  0  0  0  0
  188.9970  178.4800  136.7950 C   0  0  2  0  0  3  0  0  0  0  0  0
  187.5610  177.9290  136.8410 C   0  0  2  0  0  3  0  0  0  0  0  0
  189.9290  177.5540  137.5650 C   0  0  0  0  0  2  0  0  0  0  0  0
  1  9  1  0  0  0  0
  2  3  1  6  0  0  0
  2  5  1  0  0  0  0
  3  7  1  0  0  0  0
  4  7  2  0  0  0  0
  4 11  1  0  0  0  0
  5 14  1  0  0  0  0
  6  1  1  0  0  0  0
  8 23  1  6  0  0  0
  8 13  1  0  0  0  0
  8 12  1  0  0  0  0
 10 18  1  0  0  0  0
 10 19  1  0  0  0  0
 12 16  1  0  0  0  0
 13 18  1  6  0  0  0
 13  2  1  0  0  0  0
 14  1  2  0  0  0  0
 15  4  1  0  0  0  0
 16  5  2  0  0  0  0
 16 17  1  0  0  0  0
 17  6  2  0  0  0  0
 19  3  2  0  0  0  0
 20 19  1  0  0  0  0
 20 15  2  0  0  0  0
 22 21  2  0  0  0  0
 23 22  1  0  0  0  0
 24 28  1  0  0  0  0
 24 31  1  0  0  0  0
 24 27  1  0  0  0  0
 25 30  1  0  0  0  0
 25 28  1  0  0  0  0
 29 30  1  0  0  0  0
 29 26  1  1  0  0  0
 29 31  1  0  0  0  0
 30 22  1  1  0  0  0
M  END
>  <MODEL>
5

>  <REMARK>
 VINA RESULT:      -7.6      3.755      7.320
  Name = 
  2 active torsions:
  status: ('A' for Active; 'I' for Inactive)
    1  A    between atoms: C_5  and  C_30
    2  A    between atoms: C_10  and  N_16
                            x       y       z     vdW  Elec       q    Type
                         _______ _______ _______ _____ _____    ______ ____

>  <TORSDO>
F 2

$$$$
=
 OpenBabel11122411163D

 31 35  0  0  1  0  0  0  0  0999 V2000
  188.9170  178.2450  142.9410 C   0  0  0  0  0  0  0  0  0  0  0  0
  186.3030  179.0030  140.2810 C   0  0  2  0  0  3  0  0  0  0  0  0
  186.6080  178.0830  139.1050 C   0  0  0  0  0  0  0  0  0  0  0  0
  188.2130  176.7380  137.8600 C   0  0  0  0  0  0  0  0  0  0  0  0
  186.9250  178.5420  141.5820 C   0  0  0  0  0  0  0  0  0  0  0  0
  188.1540  177.6320  143.9350 C   0  0  0  0  0  3  0  0  0  0  0  0
  187.8870  177.5170  138.9710 C   0  0  0  0  0  3  0  0  0  0  0  0
  184.1010  178.0900  141.1200 C   0  0  2  0  0  3  0  0  0  0  0  0
  190.2520  178.3950  143.1080 F   0  0  0  0  0  0  0  0  0  0  0  0
  184.2820  178.4560  138.1280 C   0  0  0  0  0  2  0  0  0  0  0  0
  189.5680  176.1350  137.7480 C   0  0  0  0  0  1  0  0  0  0  0  0
  184.6540  177.8780  142.5280 C   0  0  0  0  0  2  0  0  0  0  0  0
  184.7970  179.2830  140.4490 C   0  0  2  0  0  3  0  0  0  0  0  0
  188.3050  178.7010  141.7720 C   0  0  0  0  0  3  0  0  0  0  0  0
  187.2720  176.5310  136.8530 C   0  0  0  0  0  3  0  0  0  0  0  0
  186.1530  177.9290  142.5950 C   0  0  0  0  0  0  0  0  0  0  0  0
  186.7750  177.4850  143.7660 C   0  0  0  0  0  3  0  0  0  0  0  0
  184.1800  179.6330  139.0940 C   0  0  0  0  0  2  0  0  0  0  0  0
  185.6730  177.8980  138.0590 C   0  0  0  0  0  0  0  0  0  0  0  0
  186.0060  177.1080  136.9540 C   0  0  0  0  0  3  0  0  0  0  0  0
  182.1030  176.4340  139.9370 O   0  0  0  0  0  0  0  0  0  0  0  0
  181.7150  177.4430  140.5850 C   0  0  0  0  0  0  0  0  0  0  0  0
  182.6630  178.3180  141.1980 N   0  0  0  0  0  2  0  0  0  0  0  0
  179.4290  180.3250  139.9930 N   0  0  0  0  0  0  0  0  0  0  0  0
  179.6260  178.0270  139.4900 O   0  0  0  0  0  0  0  0  0  0  0  0
  180.6460  178.5750  142.9720 O   0  0  0  0  0  1  0  0  0  0  0  0
  179.7970  181.6260  139.4680 C   0  0  0  0  0  1  0  0  0  0  0  0
  179.9890  179.3300  139.0810 C   0  0  0  0  0  2  0  0  0  0  0  0
  179.8920  178.7740  141.8140 C   0  0  2  0  0  3  0  0  0  0  0  0
  180.2470  177.7390  140.7310 C   0  0  2  0  0  3  0  0  0  0  0  0
  180.1130  180.1800  141.2730 C   0  0  0  0  0  2  0  0  0  0  0  0
  1  9  1  0  0  0  0
  1  6  1  0  0  0  0
  2  3  1  6  0  0  0
  2 13  1  0  0  0  0
  2  5  1  0  0  0  0
  4  7  2  0  0  0  0
  5 14  1  0  0  0  0
  5 16  2  0  0  0  0
  7  3  1  0  0  0  0
  8 23  1  1  0  0  0
  8 12  1  0  0  0  0
 10 18  1  0  0  0  0
 11  4  1  0  0  0  0
 12 16  1  0  0  0  0
 13 18  1  6  0  0  0
 13  8  1  0  0  0  0
 14  1  2  0  0  0  0
 15 20  2  0  0  0  0
 15  4  1  0  0  0  0
 16 17  1  0  0  0  0
 17  6  2  0  0  0  0
 19 10  1  0  0  0  0
 19  3  2  0  0  0  0
 20 19  1  0  0  0  0
 21 22  2  0  0  0  0
 22 23  1  0  0  0  0
 24 31  1  0  0  0  0
 25 30  1  0  0  0  0
 27 24  1  0  0  0  0
 28 25  1  0  0  0  0
 28 24  1  0  0  0  0
 29 26  1  1  0  0  0
 30 22  1  6  0  0  0
 30 29  1  0  0  0  0
 31 29  1  0  0  0  0
M  END
>  <MODEL>
6

>  <REMARK>
 VINA RESULT:      -7.6      2.510      5.473
  Name = 
  2 active torsions:
  status: ('A' for Active; 'I' for Inactive)
    1  A    between atoms: C_5  and  C_30
    2  A    between atoms: C_10  and  N_16
                            x       y       z     vdW  Elec       q    Type
                         _______ _______ _______ _____ _____    ______ ____

>  <TORSDO>
F 2

$$$$
=
 OpenBabel11122411163D

 31 35  0  0  1  0  0  0  0  0999 V2000
  179.6170  179.1570  143.1340 C   0  0  0  0  0  0  0  0  0  0  0  0
  182.8730  179.3510  141.1720 C   0  0  2  0  0  3  0  0  0  0  0  0
  183.9700  178.8660  142.1130 C   0  0  0  0  0  0  0  0  0  0  0  0
  184.7740  178.5090  144.3840 C   0  0  0  0  0  0  0  0  0  0  0  0
  181.4840  178.9230  141.5960 C   0  0  0  0  0  0  0  0  0  0  0  0
  178.9480  178.1180  142.4870 C   0  0  0  0  0  3  0  0  0  0  0  0
  183.7560  178.8720  143.5020 C   0  0  0  0  0  3  0  0  0  0  0  0
  182.8050  177.5190  139.4340 C   0  0  2  0  0  3  0  0  0  0  0  0
  179.0460  179.7740  144.1950 F   0  0  0  0  0  0  0  0  0  0  0  0
  185.5680  178.4970  140.1600 C   0  0  0  0  0  2  0  0  0  0  0  0
  184.5210  178.5070  145.8490 C   0  0  0  0  0  1  0  0  0  0  0  0
  181.3170  177.2670  139.6660 C   0  0  0  0  0  2  0  0  0  0  0  0
  183.1430  178.9940  139.6980 C   0  0  2  0  0  3  0  0  0  0  0  0
  180.8780  179.5600  142.6890 C   0  0  0  0  0  3  0  0  0  0  0  0
  186.0300  178.1560  143.8930 C   0  0  0  0  0  3  0  0  0  0  0  0
  180.8000  177.8770  140.9380 C   0  0  0  0  0  0  0  0  0  0  0  0
  179.5330  177.4880  141.3860 C   0  0  0  0  0  3  0  0  0  0  0  0
  184.5910  179.3340  139.3390 C   0  0  0  0  0  2  0  0  0  0  0  0
  185.2590  178.5420  141.6270 C   0  0  0  0  0  0  0  0  0  0  0  0
  186.2710  178.1710  142.5190 C   0  0  0  0  0  3  0  0  0  0  0  0
  183.4660  174.8930  138.5370 O   0  0  0  0  0  0  0  0  0  0  0  0
  183.4610  175.8180  137.6810 C   0  0  0  0  0  0  0  0  0  0  0  0
  183.1450  177.1570  138.0630 N   0  0  0  0  0  2  0  0  0  0  0  0
  184.1990  172.8230  135.5920 N   0  0  0  0  0  0  0  0  0  0  0  0
  182.7940  174.7200  135.6190 O   0  0  0  0  0  0  0  0  0  0  0  0
  186.1470  175.7070  136.7350 O   0  0  0  0  0  1  0  0  0  0  0  0
  184.2350  171.4440  136.0410 C   0  0  0  0  0  1  0  0  0  0  0  0
  182.9360  173.3870  136.0640 C   0  0  0  0  0  2  0  0  0  0  0  0
  185.2060  175.0080  135.9770 C   0  0  2  0  0  3  0  0  0  0  0  0
  183.7810  175.5260  136.2390 C   0  0  2  0  0  3  0  0  0  0  0  0
  185.2770  173.5180  136.2860 C   0  0  0  0  0  2  0  0  0  0  0  0
  1  9  1  0  0  0  0
  2  5  1  1  0  0  0
  2  3  1  0  0  0  0
  3  7  1  0  0  0  0
  4 11  1  0  0  0  0
  5 14  2  0  0  0  0
  6  1  2  0  0  0  0
  7  4  2  0  0  0  0
  8 23  1  6  0  0  0
  8 12  1  0  0  0  0
  8 13  1  0  0  0  0
 10 19  1  0  0  0  0
 12 16  1  0  0  0  0
 13 18  1  1  0  0  0
 13  2  1  0  0  0  0
 14  1  1  0  0  0  0
 15  4  1  0  0  0  0
 16 17  2  0  0  0  0
 16  5  1  0  0  0  0
 17  6  1  0  0  0  0
 18 10  1  0  0  0  0
 19  3  2  0  0  0  0
 19 20  1  0  0  0  0
 20 15  2  0  0  0  0
 22 23  1  0  0  0  0
 22 21  2  0  0  0  0
 24 27  1  0  0  0  0
 24 28  1  0  0  0  0
 24 31  1  0  0  0  0
 25 28  1  0  0  0  0
 25 30  1  0  0  0  0
 29 30  1  0  0  0  0
 29 31  1  0  0  0  0
 29 26  1  1  0  0  0
 30 22  1  1  0  0  0
M  END
>  <MODEL>
7

>  <REMARK>
 VINA RESULT:      -7.6      3.966      6.650
  Name = 
  2 active torsions:
  status: ('A' for Active; 'I' for Inactive)
    1  A    between atoms: C_5  and  C_30
    2  A    between atoms: C_10  and  N_16
                            x       y       z     vdW  Elec       q    Type
                         _______ _______ _______ _____ _____    ______ ____

>  <TORSDO>
F 2

$$$$
=
 OpenBabel11122411163D

 31 35  0  0  1  0  0  0  0  0999 V2000
  189.1830  178.0290  143.5050 C   0  0  0  0  0  0  0  0  0  0  0  0
  186.8180  178.9660  140.6740 C   0  0  2  0  0  3  0  0  0  0  0  0
  187.1960  178.0830  139.4900 C   0  0  0  0  0  0  0  0  0  0  0  0
  188.8630  176.7410  138.3270 C   0  0  0  0  0  0  0  0  0  0  0  0
  187.3180  178.4370  142.0020 C   0  0  0  0  0  0  0  0  0  0  0  0
  188.3250  177.4010  144.4080 C   0  0  0  0  0  3  0  0  0  0  0  0
  188.4670  177.4850  139.4380 C   0  0  0  0  0  3  0  0  0  0  0  0
  184.5320  178.0850  141.2930 C   0  0  2  0  0  3  0  0  0  0  0  0
  190.5030  178.1350  143.7870 F   0  0  0  0  0  0  0  0  0  0  0  0
  184.9690  178.5610  138.3430 C   0  0  0  0  0  2  0  0  0  0  0  0
  190.2060  176.1030  138.3010 C   0  0  0  0  0  1  0  0  0  0  0  0
  184.9610  177.8030  142.7310 C   0  0  0  0  0  2  0  0  0  0  0  0
  185.3120  179.2830  140.7300 C   0  0  2  0  0  3  0  0  0  0  0  0
  188.6820  178.5480  142.3090 C   0  0  0  0  0  3  0  0  0  0  0  0
  188.0030  176.6000  137.2380 C   0  0  0  0  0  3  0  0  0  0  0  0
  186.4500  177.8080  142.9220 C   0  0  0  0  0  0  0  0  0  0  0  0
  186.9610  177.3010  144.1210 C   0  0  0  0  0  3  0  0  0  0  0  0
  184.8180  179.7030  139.3440 C   0  0  0  0  0  2  0  0  0  0  0  0
  186.3460  177.9660  138.3650 C   0  0  0  0  0  0  0  0  0  0  0  0
  186.7480  177.2100  137.2590 C   0  0  0  0  0  3  0  0  0  0  0  0
  182.5860  176.4870  139.9540 O   0  0  0  0  0  0  0  0  0  0  0  0
  182.1770  177.5050  140.5750 C   0  0  0  0  0  0  0  0  0  0  0  0
  183.0990  178.3520  141.2620 N   0  0  0  0  0  2  0  0  0  0  0  0
  179.0460  176.2720  138.9770 N   0  0  0  0  0  0  0  0  0  0  0  0
  179.9230  176.7720  141.1100 O   0  0  0  0  0  0  0  0  0  0  0  0
  181.0170  179.3500  138.7390 O   0  0  0  0  0  1  0  0  0  0  0  0
  178.9310  175.1720  138.0380 C   0  0  0  0  0  1  0  0  0  0  0  0
  179.8120  175.7740  140.1170 C   0  0  0  0  0  2  0  0  0  0  0  0
  180.1400  178.4230  139.3060 C   0  0  2  0  0  3  0  0  0  0  0  0
  180.7100  177.8400  140.6110 C   0  0  2  0  0  3  0  0  0  0  0  0
  179.8500  177.2980  138.3220 C   0  0  0  0  0  2  0  0  0  0  0  0
  1  9  1  0  0  0  0
  1  6  1  0  0  0  0
  2  3  1  6  0  0  0
  2 13  1  0  0  0  0
  2  5  1  0  0  0  0
  4  7  2  0  0  0  0
  5 14  1  0  0  0  0
  5 16  2  0  0  0  0
  7  3  1  0  0  0  0
  8 23  1  1  0  0  0
  8 12  1  0  0  0  0
 10 19  1  0  0  0  0
 10 18  1  0  0  0  0
 11  4  1  0  0  0  0
 12 16  1  0  0  0  0
 13 18  1  6  0  0  0
 13  8  1  0  0  0  0
 14  1  2  0  0  0  0
 15 20  2  0  0  0  0
 15  4  1  0  0  0  0
 16 17  1  0  0  0  0
 17  6  2  0  0  0  0
 19  3  2  0  0  0  0
 20 19  1  0  0  0  0
 21 22  2  0  0  0  0
 22 23  1  0  0  0  0
 24 28  1  0  0  0  0
 27 24  1  0  0  0  0
 28 25  1  0  0  0  0
 29 26  1  6  0  0  0
 29 30  1  0  0  0  0
 30 22  1  6  0  0  0
 30 25  1  0  0  0  0
 31 24  1  0  0  0  0
 31 29  1  0  0  0  0
M  END
>  <MODEL>
8

>  <REMARK>
 VINA RESULT:      -7.5      2.316      5.074
  Name = 
  2 active torsions:
  status: ('A' for Active; 'I' for Inactive)
    1  A    between atoms: C_5  and  C_30
    2  A    between atoms: C_10  and  N_16
                            x       y       z     vdW  Elec       q    Type
                         _______ _______ _______ _____ _____    ______ ____

>  <TORSDO>
F 2

$$$$
=
 OpenBabel11122411163D

 31 35  0  0  1  0  0  0  0  0999 V2000
  191.6560  177.3590  140.7640 C   0  0  0  0  0  0  0  0  0  0  0  0
  189.2960  177.9160  137.8310 C   0  0  2  0  0  3  0  0  0  0  0  0
  189.2420  176.5970  137.0680 C   0  0  0  0  0  0  0  0  0  0  0  0
  190.2820  174.4740  136.4780 C   0  0  0  0  0  0  0  0  0  0  0  0
  189.8000  177.7690  139.2500 C   0  0  0  0  0  0  0  0  0  0  0  0
  190.7850  177.4020  141.8530 C   0  0  0  0  0  3  0  0  0  0  0  0
  190.2690  175.6520  137.2270 C   0  0  0  0  0  3  0  0  0  0  0  0
  186.9600  178.0860  138.7770 C   0  0  2  0  0  3  0  0  0  0  0  0
  192.9770  177.1350  140.9620 F   0  0  0  0  0  0  0  0  0  0  0  0
  187.1100  177.3100  135.8630 C   0  0  0  0  0  2  0  0  0  0  0  0
  191.3700  173.4810  136.6760 C   0  0  0  0  0  1  0  0  0  0  0  0
  187.4810  178.2180  140.2060 C   0  0  0  0  0  2  0  0  0  0  0  0
  187.9660  178.6910  137.7860 C   0  0  2  0  0  3  0  0  0  0  0  0
  191.1670  177.5450  139.4700 C   0  0  0  0  0  3  0  0  0  0  0  0
  189.2780  174.2330  135.5410 C   0  0  0  0  0  3  0  0  0  0  0  0
  188.9210  177.8200  140.3560 C   0  0  0  0  0  0  0  0  0  0  0  0
  189.4240  177.6420  141.6490 C   0  0  0  0  0  3  0  0  0  0  0  0
  187.4300  178.7190  136.3540 C   0  0  0  0  0  2  0  0  0  0  0  0
  188.2490  176.3600  136.0870 C   0  0  0  0  0  0  0  0  0  0  0  0
  188.2650  175.1730  135.3480 C   0  0  0  0  0  3  0  0  0  0  0  0
  184.4680  176.8110  138.2290 O   0  0  0  0  0  0  0  0  0  0  0  0
  184.4590  178.0610  138.3990 C   0  0  0  0  0  0  0  0  0  0  0  0
  185.6730  178.7620  138.6710 N   0  0  0  0  0  2  0  0  0  0  0  0
  180.9100  177.5630  139.4170 N   0  0  0  0  0  0  0  0  0  0  0  0
  182.6520  179.1440  139.6090 O   0  0  0  0  0  0  0  0  0  0  0  0
  182.6620  177.7710  136.2060 O   0  0  0  0  0  1  0  0  0  0  0  0
  180.3610  176.4070  140.0990 C   0  0  0  0  0  1  0  0  0  0  0  0
  182.0860  177.9810  140.1770 C   0  0  0  0  0  2  0  0  0  0  0  0
  182.0980  178.2320  137.3980 C   0  0  2  0  0  3  0  0  0  0  0  0
  183.1690  178.8320  138.3270 C   0  0  2  0  0  3  0  0  0  0  0  0
  181.3730  177.1000  138.1130 C   0  0  0  0  0  2  0  0  0  0  0  0
  1  9  1  0  0  0  0
  1  6  1  0  0  0  0
  2  3  1  1  0  0  0
  2  5  1  0  0  0  0
  3  7  1  0  0  0  0
  4 11  1  0  0  0  0
  4  7  2  0  0  0  0
  5 14  1  0  0  0  0
  5 16  2  0  0  0  0
  8 23  1  1  0  0  0
  8 12  1  0  0  0  0
 10 19  1  0  0  0  0
 10 18  1  0  0  0  0
 12 16  1  0  0  0  0
 13 18  1  6  0  0  0
 13  2  1  0  0  0  0
 13  8  1  0  0  0  0
 14  1  2  0  0  0  0
 15  4  1  0  0  0  0
 16 17  1  0  0  0  0
 17  6  2  0  0  0  0
 19  3  2  0  0  0  0
 20 15  2  0  0  0  0
 20 19  1  0  0  0  0
 21 22  2  0  0  0  0
 22 23  1  0  0  0  0
 24 27  1  0  0  0  0
 24 28  1  0  0  0  0
 25 28  1  0  0  0  0
 29 26  1  6  0  0  0
 29 31  1  0  0  0  0
 29 30  1  0  0  0  0
 30 22  1  1  0  0  0
 30 25  1  0  0  0  0
 31 24  1  0  0  0  0
M  END
>  <MODEL>
9

>  <REMARK>
 VINA RESULT:      -7.4      3.612      6.532
  Name = 
  2 active torsions:
  status: ('A' for Active; 'I' for Inactive)
    1  A    between atoms: C_5  and  C_30
    2  A    between atoms: C_10  and  N_16
                            x       y       z     vdW  Elec       q    Type
                         _______ _______ _______ _____ _____    ______ ____

>  <TORSDO>
F 2

$$$$
