=
 OpenBabel11122410223D

 30 35  0  0  1  0  0  0  0  0999 V2000
  187.3900  178.2200  141.7870 C   0  0  0  0  0  0  0  0  0  0  0  0
  185.0710  178.8850  141.0820 C   0  0  0  0  0  0  0  0  0  0  0  0
  186.1100  177.6380  145.7530 N   0  0  0  0  0  0  0  0  0  0  0  0
  188.2720  177.7530  142.8030 C   0  0  0  0  0  0  0  0  0  0  0  0
  187.9810  178.5650  140.4480 C   0  0  0  0  0  2  0  0  0  0  0  0
  191.2340  177.1300  140.7610 O   0  0  0  0  0  0  0  0  0  0  0  0
  190.7430  177.5120  144.6690 C   0  0  1  0  0  3  0  0  0  0  0  0
  190.0300  177.3550  141.0700 C   0  0  0  0  0  0  0  0  0  0  0  0
  189.6830  177.2740  145.6730 C   0  0  1  0  0  3  0  0  0  0  0  0
  187.3160  177.3010  146.3740 N   0  0  0  0  0  0  0  0  0  0  0  0
  188.9940  177.5310  139.9970 C   0  0  2  0  0  3  0  0  0  0  0  0
  189.6280  177.3510  142.4530 N   0  0  0  0  0  0  0  0  0  0  0  0
  183.7320  179.0900  141.4230 C   0  0  0  0  0  3  0  0  0  0  0  0
  190.2700  176.9710  146.9890 C   0  0  0  0  0  2  0  0  0  0  0  0
  192.0050  177.1500  145.3060 N   0  0  0  0  0  2  0  0  0  0  0  0
  185.4400  179.1010  139.7590 O   0  0  0  0  0  1  0  0  0  0  0  0
  186.4190  177.8550  144.3780 C   0  0  0  0  0  0  0  0  0  0  0  0
  183.2850  178.8800  142.7250 C   0  0  0  0  0  3  0  0  0  0  0  0
  186.0050  178.4580  142.0670 C   0  0  0  0  0  0  0  0  0  0  0  0
  187.7570  177.6510  144.1100 C   0  0  0  0  0  0  0  0  0  0  0  0
  187.4200  177.0650  147.8050 C   0  0  0  0  0  1  0  0  0  0  0  0
  188.3720  177.3420  145.4070 C   0  0  0  0  0  0  0  0  0  0  0  0
  191.7600  177.1310  146.7490 C   0  0  0  0  0  2  0  0  0  0  0  0
  190.1880  175.2350  143.6100 C   0  0  0  0  0  1  0  0  0  0  0  0
  184.1790  178.4610  143.7060 C   0  0  0  0  0  3  0  0  0  0  0  0
  185.5240  178.2490  143.3910 C   0  0  0  0  0  0  0  0  0  0  0  0
  190.5480  176.7020  143.3910 C   0  0  2  0  0  3  0  0  0  0  0  0
  189.5930  177.9810  138.6710 C   0  0  0  0  0  2  0  0  0  0  0  0
  188.8510  178.9820  136.8510 C   0  0  0  0  0  1  0  0  0  0  0  0
  188.9610  179.1440  138.2310 O   0  0  0  0  0  0  0  0  0  0  0  0
  1 19  1  0  0  0  0
  1  4  2  0  0  0  0
  2 13  2  0  0  0  0
  2 19  1  0  0  0  0
  3 10  1  0  0  0  0
  4 20  1  0  0  0  0
  5  1  1  0  0  0  0
  6  8  2  0  0  0  0
  7 15  1  1  0  0  0
  7  9  1  0  0  0  0
  8 12  1  0  0  0  0
  9 14  1  1  0  0  0
 10 21  1  0  0  0  0
 11 28  1  6  0  0  0
 11  5  1  0  0  0  0
 11  8  1  0  0  0  0
 12  4  1  0  0  0  0
 12 27  1  0  0  0  0
 13 18  1  0  0  0  0
 15 23  1  0  0  0  0
 16  2  1  0  0  0  0
 17  3  2  0  0  0  0
 18 25  2  0  0  0  0
 19 26  2  0  0  0  0
 20 17  1  0  0  0  0
 20 22  2  0  0  0  0
 22  9  1  0  0  0  0
 22 10  1  0  0  0  0
 23 14  1  0  0  0  0
 26 25  1  0  0  0  0
 26 17  1  0  0  0  0
 27 24  1  1  0  0  0
 27  7  1  0  0  0  0
 29 30  1  0  0  0  0
 30 28  1  0  0  0  0
M  END
>  <MODEL>
1

>  <REMARK>
 VINA RESULT:      -9.9      0.000      0.000
  Name = 
  2 active torsions:
  status: ('A' for Active; 'I' for Inactive)
    1  A    between atoms: C_11  and  C_28
    2  A    between atoms: C_28  and  O_30
                            x       y       z     vdW  Elec       q    Type
                         _______ _______ _______ _____ _____    ______ ____

>  <TORSDO>
F 2

$$$$
=
 OpenBabel11122410223D

 30 35  0  0  1  0  0  0  0  0999 V2000
  186.4940  177.8610  144.6540 C   0  0  0  0  0  0  0  0  0  0  0  0
  184.1390  178.5060  145.2480 C   0  0  0  0  0  0  0  0  0  0  0  0
  185.8340  178.8370  140.6140 N   0  0  0  0  0  0  0  0  0  0  0  0
  187.5260  177.7660  143.6770 C   0  0  0  0  0  0  0  0  0  0  0  0
  186.7770  177.3230  146.0290 C   0  0  0  0  0  2  0  0  0  0  0  0
  190.3150  176.8810  145.8610 O   0  0  0  0  0  0  0  0  0  0  0  0
  189.8360  176.6290  141.9400 C   0  0  1  0  0  3  0  0  0  0  0  0
  189.1780  177.2880  145.4920 C   0  0  0  0  0  0  0  0  0  0  0  0
  189.0840  177.3290  140.8770 C   0  0  1  0  0  3  0  0  0  0  0  0
  187.0640  178.4830  140.0510 N   0  0  0  0  0  0  0  0  0  0  0  0
  188.1600  177.7140  146.5120 C   0  0  2  0  0  3  0  0  0  0  0  0
  188.8830  177.4350  144.0900 N   0  0  0  0  0  0  0  0  0  0  0  0
  182.8960  178.9980  144.8400 C   0  0  0  0  0  3  0  0  0  0  0  0
  189.7890  177.2300  139.5890 C   0  0  0  0  0  2  0  0  0  0  0  0
  191.1270  176.2670  141.3640 N   0  0  0  0  0  2  0  0  0  0  0  0
  184.2980  178.1900  146.5920 O   0  0  0  0  0  1  0  0  0  0  0  0
  185.9390  178.5540  142.0080 C   0  0  0  0  0  0  0  0  0  0  0  0
  182.6660  179.3480  143.5120 C   0  0  0  0  0  3  0  0  0  0  0  0
  185.1930  178.3510  144.3050 C   0  0  0  0  0  0  0  0  0  0  0  0
  187.1820  178.0590  142.3430 C   0  0  0  0  0  0  0  0  0  0  0  0
  187.3240  178.5680  138.6240 C   0  0  0  0  0  1  0  0  0  0  0  0
  187.9140  177.9530  141.0740 C   0  0  0  0  0  0  0  0  0  0  0  0
  190.9770  176.3430  139.9100 C   0  0  0  0  0  2  0  0  0  0  0  0
  190.4880  178.9150  142.9230 C   0  0  0  0  0  1  0  0  0  0  0  0
  183.6820  179.2080  142.5720 C   0  0  0  0  0  3  0  0  0  0  0  0
  184.9350  178.7180  142.9540 C   0  0  0  0  0  0  0  0  0  0  0  0
  190.0380  177.4810  143.1890 C   0  0  2  0  0  3  0  0  0  0  0  0
  188.3970  177.0810  147.8770 C   0  0  0  0  0  2  0  0  0  0  0  0
  189.6840  178.5580  148.8910 C   0  0  0  0  0  1  0  0  0  0  0  0
  188.3810  178.0620  148.8680 O   0  0  0  0  0  0  0  0  0  0  0  0
  1  5  1  0  0  0  0
  2 16  1  0  0  0  0
  3 17  2  0  0  0  0
  4 12  1  0  0  0  0
  4  1  2  0  0  0  0
  5 11  1  0  0  0  0
  7 15  1  6  0  0  0
  7 27  1  0  0  0  0
  8  6  2  0  0  0  0
  8 11  1  0  0  0  0
  9 14  1  6  0  0  0
  9 22  1  0  0  0  0
  9  7  1  0  0  0  0
 10  3  1  0  0  0  0
 10 22  1  0  0  0  0
 11 28  1  1  0  0  0
 12  8  1  0  0  0  0
 13  2  1  0  0  0  0
 14 23  1  0  0  0  0
 17 20  1  0  0  0  0
 17 26  1  0  0  0  0
 18 13  2  0  0  0  0
 19  1  1  0  0  0  0
 19  2  2  0  0  0  0
 20  4  1  0  0  0  0
 21 10  1  0  0  0  0
 22 20  2  0  0  0  0
 23 15  1  0  0  0  0
 25 26  2  0  0  0  0
 25 18  1  0  0  0  0
 26 19  1  0  0  0  0
 27 24  1  6  0  0  0
 27 12  1  0  0  0  0
 28 30  1  0  0  0  0
 30 29  1  0  0  0  0
M  END
>  <MODEL>
2

>  <REMARK>
 VINA RESULT:      -9.5      2.771      5.561
  Name = 
  2 active torsions:
  status: ('A' for Active; 'I' for Inactive)
    1  A    between atoms: C_11  and  C_28
    2  A    between atoms: C_28  and  O_30
                            x       y       z     vdW  Elec       q    Type
                         _______ _______ _______ _____ _____    ______ ____

>  <TORSDO>
F 2

$$$$
=
 OpenBabel11122410223D

 30 35  0  0  1  0  0  0  0  0999 V2000
  187.7630  177.5140  144.8770 C   0  0  0  0  0  0  0  0  0  0  0  0
  185.7140  178.1410  146.1890 C   0  0  0  0  0  0  0  0  0  0  0  0
  185.9500  178.7560  141.2890 N   0  0  0  0  0  0  0  0  0  0  0  0
  188.4520  177.4730  143.6310 C   0  0  0  0  0  0  0  0  0  0  0  0
  188.4310  176.8860  146.0690 C   0  0  0  0  0  2  0  0  0  0  0  0
  191.7410  176.4220  144.8170 O   0  0  0  0  0  0  0  0  0  0  0  0
  190.1010  176.4290  141.2150 C   0  0  1  0  0  3  0  0  0  0  0  0
  190.5570  176.8630  144.8330 C   0  0  0  0  0  0  0  0  0  0  0  0
  189.0850  177.2040  140.4720 C   0  0  1  0  0  3  0  0  0  0  0  0
  186.9430  178.4280  140.3620 N   0  0  0  0  0  0  0  0  0  0  0  0
  189.9050  177.2310  146.1360 C   0  0  2  0  0  3  0  0  0  0  0  0
  189.8600  177.1030  143.5960 N   0  0  0  0  0  0  0  0  0  0  0  0
  184.4210  178.6700  146.2050 C   0  0  0  0  0  3  0  0  0  0  0  0
  189.3680  177.1820  139.0270 C   0  0  0  0  0  2  0  0  0  0  0  0
  191.1490  176.0930  140.2570 N   0  0  0  0  0  2  0  0  0  0  0  0
  186.2600  177.7370  147.4030 O   0  0  0  0  0  1  0  0  0  0  0  0
  186.4600  178.3830  142.5670 C   0  0  0  0  0  0  0  0  0  0  0  0
  183.8130  179.1080  145.0310 C   0  0  0  0  0  3  0  0  0  0  0  0
  186.4320  178.0380  144.9660 C   0  0  0  0  0  0  0  0  0  0  0  0
  187.7320  177.8550  142.4820 C   0  0  0  0  0  0  0  0  0  0  0  0
  186.7660  178.6030  138.9300 C   0  0  0  0  0  1  0  0  0  0  0  0
  188.0460  177.8240  141.0480 C   0  0  0  0  0  0  0  0  0  0  0  0
  190.5720  176.2660  138.9230 C   0  0  0  0  0  2  0  0  0  0  0  0
  191.0820  178.6410  142.0890 C   0  0  0  0  0  1  0  0  0  0  0  0
  184.4960  179.0190  143.8220 C   0  0  0  0  0  3  0  0  0  0  0  0
  185.7910  178.4930  143.7790 C   0  0  0  0  0  0  0  0  0  0  0  0
  190.6920  177.1960  142.3940 C   0  0  2  0  0  3  0  0  0  0  0  0
  190.5220  176.5090  147.3260 C   0  0  0  0  0  2  0  0  0  0  0  0
  192.5410  176.0180  148.0690 C   0  0  0  0  0  1  0  0  0  0  0  0
  191.7490  177.0880  147.6520 O   0  0  0  0  0  0  0  0  0  0  0  0
  1 19  1  0  0  0  0
  1  5  1  0  0  0  0
  2 13  1  0  0  0  0
  2 16  1  0  0  0  0
  3 17  2  0  0  0  0
  4  1  2  0  0  0  0
  5 11  1  0  0  0  0
  6  8  2  0  0  0  0
  7 15  1  6  0  0  0
  7 27  1  0  0  0  0
  8 11  1  0  0  0  0
  9 14  1  6  0  0  0
  9 22  1  0  0  0  0
  9  7  1  0  0  0  0
 10 22  1  0  0  0  0
 10  3  1  0  0  0  0
 11 28  1  1  0  0  0
 12  4  1  0  0  0  0
 12  8  1  0  0  0  0
 17 26  1  0  0  0  0
 18 13  2  0  0  0  0
 19  2  2  0  0  0  0
 20 17  1  0  0  0  0
 20  4  1  0  0  0  0
 21 10  1  0  0  0  0
 22 20  2  0  0  0  0
 23 14  1  0  0  0  0
 23 15  1  0  0  0  0
 25 18  1  0  0  0  0
 26 25  2  0  0  0  0
 26 19  1  0  0  0  0
 27 24  1  6  0  0  0
 27 12  1  0  0  0  0
 28 30  1  0  0  0  0
 30 29  1  0  0  0  0
M  END
>  <MODEL>
3

>  <REMARK>
 VINA RESULT:      -9.3      2.711      5.624
  Name = 
  2 active torsions:
  status: ('A' for Active; 'I' for Inactive)
    1  A    between atoms: C_11  and  C_28
    2  A    between atoms: C_28  and  O_30
                            x       y       z     vdW  Elec       q    Type
                         _______ _______ _______ _____ _____    ______ ____

>  <TORSDO>
F 2

$$$$
=
 OpenBabel11122410223D

 30 35  0  0  1  0  0  0  0  0999 V2000
  189.2240  177.1450  143.2090 C   0  0  0  0  0  0  0  0  0  0  0  0
  191.2940  176.3620  144.3990 C   0  0  0  0  0  0  0  0  0  0  0  0
  187.2840  177.8610  146.8730 N   0  0  0  0  0  0  0  0  0  0  0  0
  187.9090  177.6900  143.2720 C   0  0  0  0  0  0  0  0  0  0  0  0
  189.7600  176.7610  141.8580 C   0  0  0  0  0  2  0  0  0  0  0  0
  187.3720  178.3300  139.7170 O   0  0  0  0  0  0  0  0  0  0  0  0
  184.8720  178.1100  142.7780 C   0  0  1  0  0  3  0  0  0  0  0  0
  187.9670  178.0740  140.8020 C   0  0  0  0  0  0  0  0  0  0  0  0
  184.8950  178.3540  144.2360 C   0  0  1  0  0  3  0  0  0  0  0  0
  186.0230  178.2710  146.4310 N   0  0  0  0  0  0  0  0  0  0  0  0
  189.4460  177.8100  140.8090 C   0  0  2  0  0  3  0  0  0  0  0  0
  187.2490  178.1270  142.0490 N   0  0  0  0  0  0  0  0  0  0  0  0
  191.9620  176.1230  145.6030 C   0  0  0  0  0  3  0  0  0  0  0  0
  183.5590  178.7380  144.7200 C   0  0  0  0  0  2  0  0  0  0  0  0
  183.5630  178.5470  142.3050 N   0  0  0  0  0  2  0  0  0  0  0  0
  191.9800  176.0990  143.2180 O   0  0  0  0  0  1  0  0  0  0  0  0
  188.0480  177.5920  145.7000 C   0  0  0  0  0  0  0  0  0  0  0  0
  191.3440  176.3760  146.8260 C   0  0  0  0  0  3  0  0  0  0  0  0
  189.9650  176.8680  144.4040 C   0  0  0  0  0  0  0  0  0  0  0  0
  187.3300  177.8330  144.5480 C   0  0  0  0  0  0  0  0  0  0  0  0
  184.9340  178.5760  147.3440 C   0  0  0  0  0  1  0  0  0  0  0  0
  185.9880  178.2250  144.9990 C   0  0  0  0  0  0  0  0  0  0  0  0
  182.6930  178.6230  143.4800 C   0  0  0  0  0  2  0  0  0  0  0  0
  186.1540  180.3130  142.4340 C   0  0  0  0  0  1  0  0  0  0  0  0
  190.0440  176.8720  146.8560 C   0  0  0  0  0  3  0  0  0  0  0  0
  189.3550  177.1200  145.6660 C   0  0  0  0  0  0  0  0  0  0  0  0
  185.9760  178.8510  142.0310 C   0  0  2  0  0  3  0  0  0  0  0  0
  189.9610  177.3220  139.4610 C   0  0  0  0  0  2  0  0  0  0  0  0
  191.5480  176.0370  138.6250 C   0  0  0  0  0  1  0  0  0  0  0  0
  190.5530  176.0670  139.6020 O   0  0  0  0  0  0  0  0  0  0  0  0
  1  4  2  0  0  0  0
  1 19  1  0  0  0  0
  2 19  2  0  0  0  0
  2 13  1  0  0  0  0
  4 20  1  0  0  0  0
  5  1  1  0  0  0  0
  6  8  2  0  0  0  0
  7 15  1  6  0  0  0
  7  9  1  0  0  0  0
  8 11  1  0  0  0  0
  8 12  1  0  0  0  0
  9 14  1  1  0  0  0
  9 22  1  0  0  0  0
 10  3  1  0  0  0  0
 10 21  1  0  0  0  0
 11 28  1  6  0  0  0
 11  5  1  0  0  0  0
 12  4  1  0  0  0  0
 13 18  2  0  0  0  0
 15 23  1  0  0  0  0
 16  2  1  0  0  0  0
 17  3  2  0  0  0  0
 18 25  1  0  0  0  0
 19 26  1  0  0  0  0
 20 22  2  0  0  0  0
 20 17  1  0  0  0  0
 22 10  1  0  0  0  0
 23 14  1  0  0  0  0
 26 17  1  0  0  0  0
 26 25  2  0  0  0  0
 27 12  1  0  0  0  0
 27 24  1  1  0  0  0
 27  7  1  0  0  0  0
 28 30  1  0  0  0  0
 29 30  1  0  0  0  0
M  END
>  <MODEL>
4

>  <REMARK>
 VINA RESULT:      -9.2      1.663      5.367
  Name = 
  2 active torsions:
  status: ('A' for Active; 'I' for Inactive)
    1  A    between atoms: C_11  and  C_28
    2  A    between atoms: C_28  and  O_30
                            x       y       z     vdW  Elec       q    Type
                         _______ _______ _______ _____ _____    ______ ____

>  <TORSDO>
F 2

$$$$
=
 OpenBabel11122410223D

 30 35  0  0  1  0  0  0  0  0999 V2000
  186.0600  178.1750  142.5420 C   0  0  0  0  0  0  0  0  0  0  0  0
  186.8190  178.1620  144.9370 C   0  0  0  0  0  0  0  0  0  0  0  0
  182.0800  178.8680  143.7170 N   0  0  0  0  0  0  0  0  0  0  0  0
  185.0120  178.3490  141.5920 C   0  0  0  0  0  0  0  0  0  0  0  0
  187.4100  177.7570  142.0290 C   0  0  0  0  0  2  0  0  0  0  0  0
  186.9930  178.2940  138.5240 O   0  0  0  0  0  0  0  0  0  0  0  0
  183.1150  177.8560  139.1830 C   0  0  1  0  0  3  0  0  0  0  0  0
  186.7060  178.3690  139.7520 C   0  0  0  0  0  0  0  0  0  0  0  0
  182.1090  178.3080  140.1690 C   0  0  1  0  0  3  0  0  0  0  0  0
  181.4310  178.8530  142.4790 N   0  0  0  0  0  0  0  0  0  0  0  0
  187.7960  178.5180  140.7760 C   0  0  2  0  0  3  0  0  0  0  0  0
  185.3280  178.4070  140.1710 N   0  0  0  0  0  0  0  0  0  0  0  0
  186.5020  178.2900  146.2920 C   0  0  0  0  0  3  0  0  0  0  0  0
  180.7740  178.3840  139.5530 C   0  0  0  0  0  2  0  0  0  0  0  0
  182.4490  177.8510  137.8850 N   0  0  0  0  0  2  0  0  0  0  0  0
  188.1490  177.9240  144.6060 O   0  0  0  0  0  1  0  0  0  0  0  0
  183.4610  178.6470  143.4440 C   0  0  0  0  0  0  0  0  0  0  0  0
  185.1940  178.5420  146.6990 C   0  0  0  0  0  3  0  0  0  0  0  0
  185.8050  178.2860  143.9480 C   0  0  0  0  0  0  0  0  0  0  0  0
  183.7070  178.5140  142.0930 C   0  0  0  0  0  0  0  0  0  0  0  0
  179.9890  178.9830  142.3500 C   0  0  0  0  0  1  0  0  0  0  0  0
  182.3890  178.5920  141.4480 C   0  0  0  0  0  0  0  0  0  0  0  0
  181.0090  177.8600  138.1490 C   0  0  0  0  0  2  0  0  0  0  0  0
  184.0560  180.2500  139.1150 C   0  0  0  0  0  1  0  0  0  0  0  0
  184.1840  178.6690  145.7490 C   0  0  0  0  0  3  0  0  0  0  0  0
  184.4760  178.5450  144.3880 C   0  0  0  0  0  0  0  0  0  0  0  0
  184.3490  178.7510  139.1370 C   0  0  2  0  0  3  0  0  0  0  0  0
  189.1390  177.9960  140.2820 C   0  0  0  0  0  2  0  0  0  0  0  0
  191.1170  177.2610  140.9260 C   0  0  0  0  0  1  0  0  0  0  0  0
  189.7710  177.2720  141.2930 O   0  0  0  0  0  0  0  0  0  0  0  0
  1 19  1  0  0  0  0
  2 13  1  0  0  0  0
  4 20  1  0  0  0  0
  4  1  2  0  0  0  0
  5  1  1  0  0  0  0
  6  8  2  0  0  0  0
  7 15  1  6  0  0  0
  7  9  1  0  0  0  0
  8 12  1  0  0  0  0
  8 11  1  0  0  0  0
  9 14  1  1  0  0  0
  9 22  1  0  0  0  0
 10  3  1  0  0  0  0
 11 28  1  6  0  0  0
 11  5  1  0  0  0  0
 12  4  1  0  0  0  0
 13 18  2  0  0  0  0
 15 23  1  0  0  0  0
 16  2  1  0  0  0  0
 17  3  2  0  0  0  0
 17 26  1  0  0  0  0
 19 26  1  0  0  0  0
 19  2  2  0  0  0  0
 20 17  1  0  0  0  0
 21 10  1  0  0  0  0
 22 20  2  0  0  0  0
 22 10  1  0  0  0  0
 23 14  1  0  0  0  0
 25 18  1  0  0  0  0
 26 25  2  0  0  0  0
 27 24  1  1  0  0  0
 27  7  1  0  0  0  0
 27 12  1  0  0  0  0
 28 30  1  0  0  0  0
 29 30  1  0  0  0  0
M  END
>  <MODEL>
5

>  <REMARK>
 VINA RESULT:      -8.9      3.099      6.557
  Name = 
  2 active torsions:
  status: ('A' for Active; 'I' for Inactive)
    1  A    between atoms: C_11  and  C_28
    2  A    between atoms: C_28  and  O_30
                            x       y       z     vdW  Elec       q    Type
                         _______ _______ _______ _____ _____    ______ ____

>  <TORSDO>
F 2

$$$$
=
 OpenBabel11122410223D

 30 35  0  0  1  0  0  0  0  0999 V2000
  187.5080  177.6500  143.2400 C   0  0  0  0  0  0  0  0  0  0  0  0
  186.3650  178.0120  145.4490 C   0  0  0  0  0  0  0  0  0  0  0  0
  184.1860  179.1980  141.1710 N   0  0  0  0  0  0  0  0  0  0  0  0
  187.5000  177.7890  141.8230 C   0  0  0  0  0  0  0  0  0  0  0  0
  188.6650  176.9250  143.8690 C   0  0  0  0  0  2  0  0  0  0  0  0
  190.9400  176.7850  141.1210 O   0  0  0  0  0  0  0  0  0  0  0  0
  187.7520  177.1190  138.8010 C   0  0  1  0  0  3  0  0  0  0  0  0
  189.9190  177.1580  141.7650 C   0  0  0  0  0  0  0  0  0  0  0  0
  186.5090  177.9190  138.7480 C   0  0  1  0  0  3  0  0  0  0  0  0
  184.5980  179.0310  139.8460 N   0  0  0  0  0  0  0  0  0  0  0  0
  189.9880  177.3390  143.2550 C   0  0  2  0  0  3  0  0  0  0  0  0
  188.7090  177.5010  141.0630 N   0  0  0  0  0  0  0  0  0  0  0  0
  185.2490  178.4660  146.1570 C   0  0  0  0  0  3  0  0  0  0  0  0
  186.0520  178.0780  137.3570 C   0  0  0  0  0  2  0  0  0  0  0  0
  188.1960  176.9510  137.4210 N   0  0  0  0  0  2  0  0  0  0  0  0
  187.4290  177.5010  146.1830 O   0  0  0  0  0  1  0  0  0  0  0  0
  185.2520  178.7070  141.9820 C   0  0  0  0  0  0  0  0  0  0  0  0
  184.1490  179.0020  145.4900 C   0  0  0  0  0  3  0  0  0  0  0  0
  186.3940  178.0890  144.0290 C   0  0  0  0  0  0  0  0  0  0  0  0
  186.3150  178.2610  141.2260 C   0  0  0  0  0  0  0  0  0  0  0  0
  183.7470  179.3600  138.7140 C   0  0  0  0  0  1  0  0  0  0  0  0
  185.8900  178.4120  139.8280 C   0  0  0  0  0  0  0  0  0  0  0  0
  187.0430  177.2450  136.5670 C   0  0  0  0  0  2  0  0  0  0  0  0
  189.0560  179.2650  139.3600 C   0  0  0  0  0  1  0  0  0  0  0  0
  184.1550  179.0900  144.1010 C   0  0  0  0  0  3  0  0  0  0  0  0
  185.2600  178.6420  143.3700 C   0  0  0  0  0  0  0  0  0  0  0  0
  188.8500  177.7760  139.6300 C   0  0  2  0  0  3  0  0  0  0  0  0
  191.1010  176.5190  143.8940 C   0  0  0  0  0  2  0  0  0  0  0  0
  191.6800  176.3780  146.0180 C   0  0  0  0  0  1  0  0  0  0  0  0
  191.6970  177.2440  144.9260 O   0  0  0  0  0  0  0  0  0  0  0  0
  1  5  1  0  0  0  0
  1 19  1  0  0  0  0
  2 13  1  0  0  0  0
  2 16  1  0  0  0  0
  3 17  2  0  0  0  0
  4  1  2  0  0  0  0
  6  8  2  0  0  0  0
  7 15  1  6  0  0  0
  7 27  1  0  0  0  0
  8 11  1  0  0  0  0
  9 14  1  1  0  0  0
  9  7  1  0  0  0  0
  9 22  1  0  0  0  0
 10  3  1  0  0  0  0
 11  5  1  0  0  0  0
 11 28  1  1  0  0  0
 12  8  1  0  0  0  0
 12  4  1  0  0  0  0
 17 26  1  0  0  0  0
 18 13  2  0  0  0  0
 19  2  2  0  0  0  0
 20  4  1  0  0  0  0
 20 17  1  0  0  0  0
 21 10  1  0  0  0  0
 22 10  1  0  0  0  0
 22 20  2  0  0  0  0
 23 14  1  0  0  0  0
 23 15  1  0  0  0  0
 25 18  1  0  0  0  0
 26 19  1  0  0  0  0
 26 25  2  0  0  0  0
 27 24  1  1  0  0  0
 27 12  1  0  0  0  0
 28 30  1  0  0  0  0
 30 29  1  0  0  0  0
M  END
>  <MODEL>
6

>  <REMARK>
 VINA RESULT:      -8.7      2.634      5.880
  Name = 
  2 active torsions:
  status: ('A' for Active; 'I' for Inactive)
    1  A    between atoms: C_11  and  C_28
    2  A    between atoms: C_28  and  O_30
                            x       y       z     vdW  Elec       q    Type
                         _______ _______ _______ _____ _____    ______ ____

>  <TORSDO>
F 2

$$$$
=
 OpenBabel11122410223D

 30 35  0  0  1  0  0  0  0  0999 V2000
  188.1780  177.4290  144.4080 C   0  0  0  0  0  0  0  0  0  0  0  0
  189.2710  177.2660  146.6650 C   0  0  0  0  0  0  0  0  0  0  0  0
  184.6150  178.8460  146.1390 N   0  0  0  0  0  0  0  0  0  0  0  0
  187.0510  177.7980  143.6190 C   0  0  0  0  0  0  0  0  0  0  0  0
  189.3360  176.7680  143.7130 C   0  0  0  0  0  2  0  0  0  0  0  0
  188.5080  177.3850  140.2960 O   0  0  0  0  0  0  0  0  0  0  0  0
  184.7580  177.6750  141.5290 C   0  0  1  0  0  3  0  0  0  0  0  0
  188.4260  177.5080  141.5510 C   0  0  0  0  0  0  0  0  0  0  0  0
  184.0120  178.3030  142.6400 C   0  0  1  0  0  3  0  0  0  0  0  0
  183.7970  178.9570  145.0110 N   0  0  0  0  0  0  0  0  0  0  0  0
  189.6650  177.4480  142.3980 C   0  0  2  0  0  3  0  0  0  0  0  0
  187.1570  177.8010  142.1660 N   0  0  0  0  0  0  0  0  0  0  0  0
  189.1880  177.4460  148.0490 C   0  0  0  0  0  3  0  0  0  0  0  0
  182.6370  178.6280  142.2260 C   0  0  0  0  0  2  0  0  0  0  0  0
  183.9160  177.7980  140.3430 N   0  0  0  0  0  2  0  0  0  0  0  0
  190.4690  176.7860  146.1490 O   0  0  0  0  0  1  0  0  0  0  0  0
  185.8760  178.3730  145.6710 C   0  0  0  0  0  0  0  0  0  0  0  0
  188.0250  177.9370  148.6370 C   0  0  0  0  0  3  0  0  0  0  0  0
  188.1610  177.5800  145.8330 C   0  0  0  0  0  0  0  0  0  0  0  0
  185.8880  178.2020  144.3030 C   0  0  0  0  0  0  0  0  0  0  0  0
  182.4010  179.3540  145.0920 C   0  0  0  0  0  1  0  0  0  0  0  0
  184.5270  178.5250  143.8570 C   0  0  0  0  0  0  0  0  0  0  0  0
  182.5590  178.0750  140.8160 C   0  0  0  0  0  2  0  0  0  0  0  0
  186.1040  179.8520  141.2640 C   0  0  0  0  0  1  0  0  0  0  0  0
  186.9260  178.2520  147.8440 C   0  0  0  0  0  3  0  0  0  0  0  0
  186.9840  178.0810  146.4580 C   0  0  0  0  0  0  0  0  0  0  0  0
  186.1150  178.3250  141.2790 C   0  0  2  0  0  3  0  0  0  0  0  0
  190.8000  176.6870  141.7250 C   0  0  0  0  0  2  0  0  0  0  0  0
  192.1980  177.5010  140.2260 C   0  0  0  0  0  1  0  0  0  0  0  0
  191.9160  177.5130  141.5910 O   0  0  0  0  0  0  0  0  0  0  0  0
  1 19  1  0  0  0  0
  2 13  1  0  0  0  0
  4 20  1  0  0  0  0
  4  1  2  0  0  0  0
  5  1  1  0  0  0  0
  6  8  2  0  0  0  0
  7 15  1  6  0  0  0
  7  9  1  0  0  0  0
  8 12  1  0  0  0  0
  8 11  1  0  0  0  0
  9 14  1  1  0  0  0
  9 22  1  0  0  0  0
 10 21  1  0  0  0  0
 10  3  1  0  0  0  0
 11 28  1  6  0  0  0
 11  5  1  0  0  0  0
 12  4  1  0  0  0  0
 13 18  2  0  0  0  0
 15 23  1  0  0  0  0
 16  2  1  0  0  0  0
 17  3  2  0  0  0  0
 17 26  1  0  0  0  0
 19 26  1  0  0  0  0
 19  2  2  0  0  0  0
 20 17  1  0  0  0  0
 22 20  2  0  0  0  0
 22 10  1  0  0  0  0
 23 14  1  0  0  0  0
 25 18  1  0  0  0  0
 26 25  2  0  0  0  0
 27 24  1  1  0  0  0
 27  7  1  0  0  0  0
 27 12  1  0  0  0  0
 29 30  1  0  0  0  0
 30 28  1  0  0  0  0
M  END
>  <MODEL>
7

>  <REMARK>
 VINA RESULT:      -8.2      2.195      5.654
  Name = 
  2 active torsions:
  status: ('A' for Active; 'I' for Inactive)
    1  A    between atoms: C_11  and  C_28
    2  A    between atoms: C_28  and  O_30
                            x       y       z     vdW  Elec       q    Type
                         _______ _______ _______ _____ _____    ______ ____

>  <TORSDO>
F 2

$$$$
=
 OpenBabel11122410223D

 30 35  0  0  1  0  0  0  0  0999 V2000
  189.7730  177.6460  143.3060 C   0  0  0  0  0  0  0  0  0  0  0  0
  191.3630  177.4850  141.3670 C   0  0  0  0  0  0  0  0  0  0  0  0
  186.5200  178.2260  140.7020 N   0  0  0  0  0  0  0  0  0  0  0  0
  188.4380  177.7760  143.7850 C   0  0  0  0  0  0  0  0  0  0  0  0
  190.8830  177.6200  144.3200 C   0  0  0  0  0  2  0  0  0  0  0  0
  189.0280  177.1520  147.3340 O   0  0  0  0  0  0  0  0  0  0  0  0
  185.9760  178.7650  145.3990 C   0  0  1  0  0  3  0  0  0  0  0  0
  189.2240  177.1970  146.0870 C   0  0  0  0  0  0  0  0  0  0  0  0
  185.3420  178.6650  144.0670 C   0  0  1  0  0  3  0  0  0  0  0  0
  185.4770  178.4080  141.6150 N   0  0  0  0  0  0  0  0  0  0  0  0
  190.5370  176.7480  145.5110 C   0  0  2  0  0  3  0  0  0  0  0  0
  188.1570  177.5900  145.2020 N   0  0  0  0  0  0  0  0  0  0  0  0
  191.5660  177.4920  139.9840 C   0  0  0  0  0  3  0  0  0  0  0  0
  183.9070  178.9840  144.1480 C   0  0  0  0  0  2  0  0  0  0  0  0
  184.8930  178.9420  146.3610 N   0  0  0  0  0  2  0  0  0  0  0  0
  192.4750  177.2980  142.1800 O   0  0  0  0  0  1  0  0  0  0  0  0
  187.6950  178.0090  141.4790 C   0  0  0  0  0  0  0  0  0  0  0  0
  190.4980  177.6600  139.1060 C   0  0  0  0  0  3  0  0  0  0  0  0
  190.0550  177.6520  141.9010 C   0  0  0  0  0  0  0  0  0  0  0  0
  187.4310  178.0280  142.8320 C   0  0  0  0  0  0  0  0  0  0  0  0
  184.1190  178.7200  141.2010 C   0  0  0  0  0  1  0  0  0  0  0  0
  186.0010  178.3400  142.9460 C   0  0  0  0  0  0  0  0  0  0  0  0
  183.7200  179.3780  145.6010 C   0  0  0  0  0  2  0  0  0  0  0  0
  186.1280  176.1980  145.4690 C   0  0  0  0  0  1  0  0  0  0  0  0
  189.2090  177.8240  139.6050 C   0  0  0  0  0  3  0  0  0  0  0  0
  188.9800  177.8200  140.9840 C   0  0  0  0  0  0  0  0  0  0  0  0
  186.8040  177.5360  145.7600 C   0  0  2  0  0  3  0  0  0  0  0  0
  191.6760  176.8240  146.5190 C   0  0  0  0  0  2  0  0  0  0  0  0
  192.7250  175.6390  148.0560 C   0  0  0  0  0  1  0  0  0  0  0  0
  192.1690  175.5460  146.7810 O   0  0  0  0  0  0  0  0  0  0  0  0
  1  4  2  0  0  0  0
  1  5  1  0  0  0  0
  2 19  1  0  0  0  0
  2 16  1  0  0  0  0
  3 17  2  0  0  0  0
  3 10  1  0  0  0  0
  4 12  1  0  0  0  0
  5 11  1  0  0  0  0
  7 27  1  0  0  0  0
  7 15  1  1  0  0  0
  8  6  2  0  0  0  0
  9 14  1  6  0  0  0
  9  7  1  0  0  0  0
 10 22  1  0  0  0  0
 11  8  1  0  0  0  0
 11 28  1  1  0  0  0
 12 27  1  0  0  0  0
 12  8  1  0  0  0  0
 13  2  2  0  0  0  0
 14 23  1  0  0  0  0
 17 20  1  0  0  0  0
 18 25  2  0  0  0  0
 18 13  1  0  0  0  0
 19  1  1  0  0  0  0
 20 22  2  0  0  0  0
 20  4  1  0  0  0  0
 21 10  1  0  0  0  0
 22  9  1  0  0  0  0
 23 15  1  0  0  0  0
 25 26  1  0  0  0  0
 26 17  1  0  0  0  0
 26 19  2  0  0  0  0
 27 24  1  6  0  0  0
 28 30  1  0  0  0  0
 30 29  1  0  0  0  0
M  END
>  <MODEL>
8

>  <REMARK>
 VINA RESULT:      -7.9      2.323      6.270
  Name = 
  2 active torsions:
  status: ('A' for Active; 'I' for Inactive)
    1  A    between atoms: C_11  and  C_28
    2  A    between atoms: C_28  and  O_30
                            x       y       z     vdW  Elec       q    Type
                         _______ _______ _______ _____ _____    ______ ____

>  <TORSDO>
F 2

$$$$
=
 OpenBabel11122410223D

 30 35  0  0  1  0  0  0  0  0999 V2000
  185.4380  178.4470  142.0860 C   0  0  0  0  0  0  0  0  0  0  0  0
  185.4090  178.2500  144.5910 C   0  0  0  0  0  0  0  0  0  0  0  0
  189.4850  177.2990  141.9580 N   0  0  0  0  0  0  0  0  0  0  0  0
  186.1410  178.2960  140.8560 C   0  0  0  0  0  0  0  0  0  0  0  0
  184.0530  179.0300  142.0370 C   0  0  0  0  0  2  0  0  0  0  0  0
  183.3790  178.8630  138.5350 O   0  0  0  0  0  0  0  0  0  0  0  0
  187.3060  178.9010  138.0420 C   0  0  1  0  0  3  0  0  0  0  0  0
  183.9980  178.6250  139.6110 C   0  0  0  0  0  0  0  0  0  0  0  0
  188.4960  178.2590  138.6410 C   0  0  1  0  0  3  0  0  0  0  0  0
  189.7460  177.4010  140.5890 N   0  0  0  0  0  0  0  0  0  0  0  0
  183.2390  178.4510  140.8960 C   0  0  2  0  0  3  0  0  0  0  0  0
  185.4240  178.4260  139.5950 N   0  0  0  0  0  0  0  0  0  0  0  0
  186.0870  177.9440  145.7740 C   0  0  0  0  0  3  0  0  0  0  0  0
  189.5790  178.1440  137.6500 C   0  0  0  0  0  2  0  0  0  0  0  0
  187.5660  178.9990  136.6090 N   0  0  0  0  0  2  0  0  0  0  0  0
  184.0760  178.6330  144.6940 O   0  0  0  0  0  1  0  0  0  0  0  0
  188.1160  177.6630  142.1290 C   0  0  0  0  0  0  0  0  0  0  0  0
  187.4200  177.5400  145.7490 C   0  0  0  0  0  3  0  0  0  0  0  0
  186.0740  178.1560  143.3380 C   0  0  0  0  0  0  0  0  0  0  0  0
  187.5090  177.9680  140.9290 C   0  0  0  0  0  0  0  0  0  0  0  0
  191.0650  177.1680  140.0250 C   0  0  0  0  0  1  0  0  0  0  0  0
  188.5660  177.8560  139.9160 C   0  0  0  0  0  0  0  0  0  0  0  0
  189.0100  178.8410  136.4300 C   0  0  0  0  0  2  0  0  0  0  0  0
  186.1230  176.6170  138.0560 C   0  0  0  0  0  1  0  0  0  0  0  0
  188.0910  177.4390  144.5350 C   0  0  0  0  0  3  0  0  0  0  0  0
  187.4350  177.7400  143.3380 C   0  0  0  0  0  0  0  0  0  0  0  0
  186.0180  178.1220  138.2910 C   0  0  2  0  0  3  0  0  0  0  0  0
  181.8790  179.1350  140.8720 C   0  0  0  0  0  2  0  0  0  0  0  0
  180.1510  179.8620  142.0350 C   0  0  0  0  0  1  0  0  0  0  0  0
  181.2730  179.0390  142.1250 O   0  0  0  0  0  0  0  0  0  0  0  0
  1 19  1  0  0  0  0
  2 16  1  0  0  0  0
  2 13  1  0  0  0  0
  3 17  2  0  0  0  0
  4 20  1  0  0  0  0
  4  1  2  0  0  0  0
  5  1  1  0  0  0  0
  6  8  2  0  0  0  0
  7 15  1  6  0  0  0
  7 27  1  0  0  0  0
  7  9  1  0  0  0  0
  8 11  1  0  0  0  0
  9 14  1  1  0  0  0
  9 22  1  0  0  0  0
 10  3  1  0  0  0  0
 11 28  1  6  0  0  0
 11  5  1  0  0  0  0
 12  8  1  0  0  0  0
 12  4  1  0  0  0  0
 17 26  1  0  0  0  0
 18 13  2  0  0  0  0
 19 26  1  0  0  0  0
 19  2  2  0  0  0  0
 20 17  1  0  0  0  0
 21 10  1  0  0  0  0
 22 10  1  0  0  0  0
 22 20  2  0  0  0  0
 23 15  1  0  0  0  0
 23 14  1  0  0  0  0
 25 18  1  0  0  0  0
 26 25  2  0  0  0  0
 27 24  1  1  0  0  0
 27 12  1  0  0  0  0
 28 30  1  0  0  0  0
 29 30  1  0  0  0  0
M  END
>  <MODEL>
9

>  <REMARK>
 VINA RESULT:      -7.7      2.887      6.484
  Name = 
  2 active torsions:
  status: ('A' for Active; 'I' for Inactive)
    1  A    between atoms: C_11  and  C_28
    2  A    between atoms: C_28  and  O_30
                            x       y       z     vdW  Elec       q    Type
                         _______ _______ _______ _____ _____    ______ ____

>  <TORSDO>
F 2

$$$$
