=
 OpenBabel11122411253D

 37 42  0  0  1  0  0  0  0  0999 V2000
  193.1240  176.0260  135.7760 C   0  0  0  0  0  0  0  0  0  0  0  0
  190.5690  176.6190  138.9880 C   0  0  0  0  0  0  0  0  0  0  0  0
  189.0420  179.1370  137.9800 C   0  0  0  0  0  1  0  0  0  0  0  0
  192.8270  176.5670  138.2540 C   0  0  0  0  0  0  0  0  0  0  0  0
  189.2200  176.6230  138.3360 C   0  0  1  0  0  3  0  0  0  0  0  0
  191.4780  176.4200  138.0310 C   0  0  0  0  0  0  0  0  0  0  0  0
  188.4360  177.9140  138.6500 C   0  0  1  0  0  3  0  0  0  0  0  0
  193.2250  176.8820  139.5210 N   0  0  0  0  0  0  0  0  0  0  0  0
  190.8790  176.2970  136.7780 N   0  0  0  0  0  0  0  0  0  0  0  0
  193.1450  174.5070  135.8060 C   0  0  0  0  0  1  0  0  0  0  0  0
  189.9940  177.3630  141.3400 C   0  0  0  0  0  2  0  0  0  0  0  0
  192.3260  177.0640  140.5050 N   0  0  0  0  0  0  0  0  0  0  0  0
  191.6690  176.5140  135.5690 C   0  0  0  0  0  2  0  0  0  0  0  0
  190.9790  176.9550  140.2780 C   0  0  0  0  0  0  0  0  0  0  0  0
  189.4790  176.4670  136.8710 N   0  0  1  0  0  0  0  0  0  0  0  0
  193.7660  176.5770  137.0780 C   0  0  0  0  0  2  0  0  0  0  0  0
  188.2680  178.1830  140.1600 C   0  0  2  0  0  3  0  0  0  0  0  0
  193.9570  176.4860  134.5990 C   0  0  0  0  0  1  0  0  0  0  0  0
  188.6690  177.0920  140.9530 O   0  0  0  0  0  0  0  0  0  0  0  0
  187.9240  174.4940  137.3110 C   0  0  0  0  0  2  0  0  0  0  0  0
  187.1810  173.3690  136.5960 C   0  0  2  0  0  3  0  0  0  0  0  0
  185.9700  175.3680  135.4050 C   0  0  2  0  0  3  0  0  0  0  0  0
  186.0180  173.8610  135.7170 C   0  0  0  0  0  2  0  0  0  0  0  0
  187.0980  175.8800  134.5940 N   0  0  0  0  0  0  0  0  0  0  0  0
  187.1540  177.2330  134.6530 O   0  0  0  0  0  1  0  0  0  0  0  0
  188.4360  175.3330  134.8680 C   0  0  0  0  0  2  0  0  0  0  0  0
  185.6010  176.2210  136.6170 C   0  0  0  0  0  1  0  0  0  0  0  0
  188.8570  175.2410  136.3450 C   0  0  1  0  0  3  0  0  0  0  0  0
  185.3430  172.7840  138.0840 N   0  0  0  0  0  1  0  0  0  0  0  0
  186.6510  172.3670  137.6050 C   0  0  0  0  0  2  0  0  0  0  0  0
  186.4790  178.9090  141.7810 C   0  0  0  0  0  3  0  0  0  0  0  0
  186.8590  178.5700  140.4740 C   0  0  0  0  0  0  0  0  0  0  0  0
  185.9030  178.5690  139.4530 C   0  0  0  0  0  3  0  0  0  0  0  0
  183.6540  178.9120  138.7410 F   0  0  0  0  0  0  0  0  0  0  0  0
  184.2010  179.2530  141.0360 C   0  0  0  0  0  3  0  0  0  0  0  0
  184.5760  178.9120  139.7330 C   0  0  0  0  0  0  0  0  0  0  0  0
  185.1530  179.2520  142.0600 C   0  0  0  0  0  3  0  0  0  0  0  0
  1 10  1  0  0  0  0
  1 16  1  0  0  0  0
  2 14  1  0  0  0  0
  4  8  2  0  0  0  0
  5  7  1  0  0  0  0
  5  2  1  1  0  0  0
  6  4  1  0  0  0  0
  6  2  2  0  0  0  0
  7  3  1  1  0  0  0
  7 17  1  0  0  0  0
  8 12  1  0  0  0  0
  9  6  1  0  0  0  0
 13  1  1  0  0  0  0
 13  9  1  0  0  0  0
 14 12  2  0  0  0  0
 14 11  1  0  0  0  0
 15  9  1  1  0  0  0
 15  5  1  0  0  0  0
 16  4  1  0  0  0  0
 17 32  1  6  0  0  0
 17 19  1  0  0  0  0
 18  1  1  0  0  0  0
 19 11  1  0  0  0  0
 21 20  1  0  0  0  0
 21 30  1  1  0  0  0
 22 23  1  0  0  0  0
 22 27  1  1  0  0  0
 23 21  1  0  0  0  0
 24 25  1  0  0  0  0
 24 26  1  0  0  0  0
 24 22  1  0  0  0  0
 28 26  1  6  0  0  0
 28 15  1  0  0  0  0
 28 20  1  0  0  0  0
 30 29  1  0  0  0  0
 31 37  1  0  0  0  0
 32 31  2  0  0  0  0
 33 36  2  0  0  0  0
 33 32  1  0  0  0  0
 34 36  1  0  0  0  0
 35 37  2  0  0  0  0
 36 35  1  0  0  0  0
M  END
>  <MODEL>
1

>  <REMARK>
 VINA RESULT:      -6.7      0.000      0.000
  Name = 
  3 active torsions:
  status: ('A' for Active; 'I' for Inactive)
    1  A    between atoms: C_4  and  C_37
    2  A    between atoms: N_21  and  C_27
    3  A    between atoms: C_23  and  C_30
                            x       y       z     vdW  Elec       q    Type
                         _______ _______ _______ _____ _____    ______ ____

>  <TORSDO>
F 3

$$$$
=
 OpenBabel11122411253D

 37 42  0  0  1  0  0  0  0  0999 V2000
  180.2700  178.9090  143.5400 C   0  0  0  0  0  0  0  0  0  0  0  0
  183.5290  179.0310  140.9780 C   0  0  0  0  0  0  0  0  0  0  0  0
  183.0470  176.3930  139.3970 C   0  0  0  0  0  1  0  0  0  0  0  0
  182.8060  178.8860  143.2360 C   0  0  0  0  0  0  0  0  0  0  0  0
  182.8870  178.9220  139.6280 C   0  0  1  0  0  3  0  0  0  0  0  0
  182.5540  179.0130  141.8900 C   0  0  0  0  0  0  0  0  0  0  0  0
  183.4530  177.7390  138.8180 C   0  0  1  0  0  3  0  0  0  0  0  0
  184.1110  178.8260  143.6280 N   0  0  0  0  0  0  0  0  0  0  0  0
  181.3000  178.8920  141.2920 N   0  0  0  0  0  0  0  0  0  0  0  0
  179.9920  180.4020  143.5930 C   0  0  0  0  0  1  0  0  0  0  0  0
  185.9800  178.7900  140.3910 C   0  0  0  0  0  2  0  0  0  0  0  0
  185.1090  178.8660  142.7270 N   0  0  0  0  0  0  0  0  0  0  0  0
  180.1620  178.4180  142.0750 C   0  0  0  0  0  2  0  0  0  0  0  0
  184.8610  178.9540  141.3830 C   0  0  0  0  0  0  0  0  0  0  0  0
  181.4220  178.7740  139.8880 N   0  0  1  0  0  0  0  0  0  0  0  0
  181.6580  178.6200  144.1720 C   0  0  0  0  0  2  0  0  0  0  0  0
  184.9860  177.7840  138.6460 C   0  0  2  0  0  3  0  0  0  0  0  0
  179.2130  178.2030  144.3620 C   0  0  0  0  0  1  0  0  0  0  0  0
  185.5430  179.0050  139.0720 O   0  0  0  0  0  0  0  0  0  0  0  0
  181.4730  180.9040  138.4880 C   0  0  0  0  0  2  0  0  0  0  0  0
  180.5590  181.8770  137.7480 C   0  0  2  0  0  3  0  0  0  0  0  0
  179.9830  179.7460  136.3310 C   0  0  2  0  0  3  0  0  0  0  0  0
  179.9130  181.2760  136.4880 C   0  0  0  0  0  2  0  0  0  0  0  0
  179.2450  178.9720  137.3540 N   0  0  0  0  0  0  0  0  0  0  0  0
  179.6290  177.6720  137.3410 O   0  0  0  0  0  1  0  0  0  0  0  0
  179.2810  179.4680  138.7400 C   0  0  0  0  0  2  0  0  0  0  0  0
  181.3910  179.2390  136.0220 C   0  0  0  0  0  1  0  0  0  0  0  0
  180.6570  179.8800  139.2910 C   0  0  1  0  0  3  0  0  0  0  0  0
  180.8790  183.6110  136.0680 N   0  0  0  0  0  1  0  0  0  0  0  0
  181.3270  183.1290  137.3640 C   0  0  0  0  0  2  0  0  0  0  0  0
  184.4060  177.1070  136.2890 C   0  0  0  0  0  3  0  0  0  0  0  0
  185.3690  177.4980  137.2300 C   0  0  0  0  0  0  0  0  0  0  0  0
  186.7100  177.6000  136.8490 C   0  0  0  0  0  3  0  0  0  0  0  0
  188.3890  177.4220  135.1650 F   0  0  0  0  0  0  0  0  0  0  0  0
  186.1270  176.9340  134.5940 C   0  0  0  0  0  3  0  0  0  0  0  0
  187.0890  177.3200  135.5310 C   0  0  0  0  0  0  0  0  0  0  0  0
  184.7850  176.8270  134.9730 C   0  0  0  0  0  3  0  0  0  0  0  0
  1 10  1  0  0  0  0
  1 16  1  0  0  0  0
  1 18  1  0  0  0  0
  2 14  2  0  0  0  0
  2  6  1  0  0  0  0
  4  8  1  0  0  0  0
  4 16  1  0  0  0  0
  5 15  1  0  0  0  0
  5  2  1  1  0  0  0
  6  4  2  0  0  0  0
  7  3  1  1  0  0  0
  7  5  1  0  0  0  0
  9  6  1  0  0  0  0
  9 13  1  0  0  0  0
 11 14  1  0  0  0  0
 12  8  2  0  0  0  0
 13  1  1  0  0  0  0
 14 12  1  0  0  0  0
 15  9  1  1  0  0  0
 17 32  1  6  0  0  0
 17  7  1  0  0  0  0
 17 19  1  0  0  0  0
 19 11  1  0  0  0  0
 21 30  1  6  0  0  0
 21 20  1  0  0  0  0
 22 27  1  1  0  0  0
 22 23  1  0  0  0  0
 22 24  1  0  0  0  0
 23 21  1  0  0  0  0
 24 26  1  0  0  0  0
 25 24  1  0  0  0  0
 26 28  1  0  0  0  0
 28 20  1  6  0  0  0
 28 15  1  0  0  0  0
 29 30  1  0  0  0  0
 31 32  1  0  0  0  0
 33 32  2  0  0  0  0
 34 36  1  0  0  0  0
 35 37  1  0  0  0  0
 35 36  2  0  0  0  0
 36 33  1  0  0  0  0
 37 31  2  0  0  0  0
M  END
>  <MODEL>
2

>  <REMARK>
 VINA RESULT:      -6.4      5.031      9.458
  Name = 
  3 active torsions:
  status: ('A' for Active; 'I' for Inactive)
    1  A    between atoms: C_4  and  C_37
    2  A    between atoms: N_21  and  C_27
    3  A    between atoms: C_23  and  C_30
                            x       y       z     vdW  Elec       q    Type
                         _______ _______ _______ _____ _____    ______ ____

>  <TORSDO>
F 3

$$$$
=
 OpenBabel11122411253D

 37 42  0  0  1  0  0  0  0  0999 V2000
  182.7040  177.0810  136.6810 C   0  0  0  0  0  0  0  0  0  0  0  0
  185.8490  174.4470  137.2840 C   0  0  0  0  0  0  0  0  0  0  0  0
  187.3720  174.8300  134.5960 C   0  0  0  0  0  1  0  0  0  0  0  0
  183.4990  174.6810  137.0420 C   0  0  0  0  0  0  0  0  0  0  0  0
  187.0500  175.3180  137.0730 C   0  0  1  0  0  3  0  0  0  0  0  0
  184.7650  175.2090  137.1230 C   0  0  0  0  0  0  0  0  0  0  0  0
  187.9850  174.7520  135.9860 C   0  0  1  0  0  3  0  0  0  0  0  0
  183.3700  173.3300  137.1830 N   0  0  0  0  0  0  0  0  0  0  0  0
  185.1100  176.5240  136.8110 N   0  0  0  0  0  0  0  0  0  0  0  0
  182.5600  177.5640  138.1150 C   0  0  0  0  0  1  0  0  0  0  0  0
  186.9110  172.1510  137.4160 C   0  0  0  0  0  2  0  0  0  0  0  0
  184.4470  172.5460  137.3690 N   0  0  0  0  0  0  0  0  0  0  0  0
  184.1310  177.4020  136.1730 C   0  0  0  0  0  2  0  0  0  0  0  0
  185.7150  173.0650  137.4120 C   0  0  0  0  0  0  0  0  0  0  0  0
  186.5120  176.6650  136.7050 N   0  0  1  0  0  0  0  0  0  0  0  0
  182.3630  175.5690  136.6090 C   0  0  0  0  0  2  0  0  0  0  0  0
  188.4520  173.3080  136.2620 C   0  0  2  0  0  3  0  0  0  0  0  0
  181.7100  177.8380  135.8270 C   0  0  0  0  0  1  0  0  0  0  0  0
  188.1130  172.8670  137.5550 O   0  0  0  0  0  0  0  0  0  0  0  0
  187.3930  177.1670  139.0450 C   0  0  0  0  0  2  0  0  0  0  0  0
  187.9830  178.2930  139.8900 C   0  0  2  0  0  3  0  0  0  0  0  0
  189.8870  178.2030  138.0880 C   0  0  2  0  0  3  0  0  0  0  0  0
  189.4020  178.7040  139.4610 C   0  0  0  0  0  2  0  0  0  0  0  0
  189.1380  178.7280  136.9230 N   0  0  0  0  0  0  0  0  0  0  0  0
  189.4030  177.9940  135.8150 O   0  0  0  0  0  1  0  0  0  0  0  0
  187.6810  178.8760  137.0630 C   0  0  0  0  0  2  0  0  0  0  0  0
  190.1630  176.7000  138.0610 C   0  0  0  0  0  1  0  0  0  0  0  0
  186.9210  177.6890  137.6800 C   0  0  1  0  0  3  0  0  0  0  0  0
  189.3540  177.9960  141.8810 N   0  0  0  0  0  1  0  0  0  0  0  0
  188.0040  177.8940  141.3540 C   0  0  0  0  0  2  0  0  0  0  0  0
  190.4160  172.4850  134.9140 C   0  0  0  0  0  3  0  0  0  0  0  0
  189.9220  173.1730  136.0310 C   0  0  0  0  0  0  0  0  0  0  0  0
  190.8150  173.7230  136.9570 C   0  0  0  0  0  3  0  0  0  0  0  0
  193.0560  174.1270  137.6630 F   0  0  0  0  0  0  0  0  0  0  0  0
  192.6840  172.9080  135.6490 C   0  0  0  0  0  3  0  0  0  0  0  0
  192.1950  173.5920  136.7650 C   0  0  0  0  0  0  0  0  0  0  0  0
  191.7940  172.3540  134.7230 C   0  0  0  0  0  3  0  0  0  0  0  0
  1 10  1  0  0  0  0
  2 14  1  0  0  0  0
  4  6  1  0  0  0  0
  4  8  2  0  0  0  0
  5  2  1  6  0  0  0
  6  2  2  0  0  0  0
  7  3  1  6  0  0  0
  7 17  1  0  0  0  0
  7  5  1  0  0  0  0
  8 12  1  0  0  0  0
  9  6  1  0  0  0  0
 11 19  1  0  0  0  0
 12 14  2  0  0  0  0
 13  1  1  0  0  0  0
 13  9  1  0  0  0  0
 14 11  1  0  0  0  0
 15  9  1  1  0  0  0
 15  5  1  0  0  0  0
 15 28  1  0  0  0  0
 16  1  1  0  0  0  0
 16  4  1  0  0  0  0
 17 32  1  1  0  0  0
 17 19  1  0  0  0  0
 18  1  1  0  0  0  0
 20 21  1  0  0  0  0
 21 30  1  1  0  0  0
 22 27  1  1  0  0  0
 22 23  1  0  0  0  0
 23 21  1  0  0  0  0
 24 26  1  0  0  0  0
 24 22  1  0  0  0  0
 25 24  1  0  0  0  0
 28 26  1  6  0  0  0
 28 20  1  0  0  0  0
 30 29  1  0  0  0  0
 31 32  1  0  0  0  0
 32 33  2  0  0  0  0
 35 36  2  0  0  0  0
 36 33  1  0  0  0  0
 36 34  1  0  0  0  0
 37 31  2  0  0  0  0
 37 35  1  0  0  0  0
M  END
>  <MODEL>
3

>  <REMARK>
 VINA RESULT:      -5.3      2.978      7.791
  Name = 
  3 active torsions:
  status: ('A' for Active; 'I' for Inactive)
    1  A    between atoms: C_4  and  C_37
    2  A    between atoms: N_21  and  C_27
    3  A    between atoms: C_23  and  C_30
                            x       y       z     vdW  Elec       q    Type
                         _______ _______ _______ _____ _____    ______ ____

>  <TORSDO>
F 3

$$$$
=
 OpenBabel11122411253D

 37 42  0  0  1  0  0  0  0  0999 V2000
  180.1900  172.9670  136.5140 C   0  0  0  0  0  0  0  0  0  0  0  0
  184.2160  173.7150  137.1690 C   0  0  0  0  0  0  0  0  0  0  0  0
  184.6310  176.0920  135.2040 C   0  0  0  0  0  1  0  0  0  0  0  0
  182.6070  172.1530  136.3860 C   0  0  0  0  0  0  0  0  0  0  0  0
  184.2220  175.1670  137.5390 C   0  0  1  0  0  3  0  0  0  0  0  0
  182.9480  173.3620  136.9460 C   0  0  0  0  0  0  0  0  0  0  0  0
  185.1570  175.9860  136.6270 C   0  0  1  0  0  3  0  0  0  0  0  0
  183.6200  171.2830  136.1020 N   0  0  0  0  0  0  0  0  0  0  0  0
  182.0810  174.4410  137.1180 N   0  0  0  0  0  0  0  0  0  0  0  0
  179.8190  172.5690  137.9330 C   0  0  0  0  0  1  0  0  0  0  0  0
  186.6930  173.2450  136.9300 C   0  0  0  0  0  2  0  0  0  0  0  0
  184.9020  171.6100  136.3420 N   0  0  0  0  0  0  0  0  0  0  0  0
  180.7510  174.4100  136.5150 C   0  0  0  0  0  2  0  0  0  0  0  0
  185.2480  172.8280  136.8650 C   0  0  0  0  0  0  0  0  0  0  0  0
  182.8000  175.6170  137.4340 N   0  0  1  0  0  0  0  0  0  0  0  0
  181.1890  171.9310  135.9320 C   0  0  0  0  0  2  0  0  0  0  0  0
  186.6090  175.4650  136.6010 C   0  0  2  0  0  3  0  0  0  0  0  0
  178.9320  172.9430  135.6730 C   0  0  0  0  0  1  0  0  0  0  0  0
  186.8490  174.4820  137.5800 O   0  0  0  0  0  0  0  0  0  0  0  0
  183.1900  177.1050  139.4670 C   0  0  0  0  0  2  0  0  0  0  0  0
  182.4750  177.6900  140.6820 C   0  0  2  0  0  3  0  0  0  0  0  0
  181.0000  178.8470  138.8470 C   0  0  2  0  0  3  0  0  0  0  0  0
  181.4270  178.7570  140.3240 C   0  0  0  0  0  2  0  0  0  0  0  0
  180.2980  177.6550  138.3200 N   0  0  0  0  0  0  0  0  0  0  0  0
  180.2630  177.6810  136.9650 O   0  0  0  0  0  1  0  0  0  0  0  0
  180.7730  176.3340  138.7620 C   0  0  0  0  0  2  0  0  0  0  0  0
  182.0920  179.4130  137.9410 C   0  0  0  0  0  1  0  0  0  0  0  0
  182.2940  176.1000  138.7290 C   0  0  1  0  0  3  0  0  0  0  0  0
  184.5810  178.8920  140.9110 N   0  0  0  0  0  1  0  0  0  0  0  0
  183.4830  178.2880  141.6470 C   0  0  0  0  0  2  0  0  0  0  0  0
  188.3830  176.9910  135.6650 C   0  0  0  0  0  3  0  0  0  0  0  0
  187.5780  176.5940  136.7420 C   0  0  0  0  0  0  0  0  0  0  0  0
  187.6990  177.2440  137.9740 C   0  0  0  0  0  3  0  0  0  0  0  0
  188.7260  178.9200  139.3240 F   0  0  0  0  0  0  0  0  0  0  0  0
  189.4120  178.6880  137.0520 C   0  0  0  0  0  3  0  0  0  0  0  0
  188.6140  178.2910  138.1290 C   0  0  0  0  0  0  0  0  0  0  0  0
  189.2970  178.0380  135.8200 C   0  0  0  0  0  3  0  0  0  0  0  0
  1 13  1  0  0  0  0
  1 10  1  0  0  0  0
  4  6  2  0  0  0  0
  5  2  1  6  0  0  0
  6  9  1  0  0  0  0
  6  2  1  0  0  0  0
  7  3  1  6  0  0  0
  7  5  1  0  0  0  0
  8 12  2  0  0  0  0
  8  4  1  0  0  0  0
 11 19  1  0  0  0  0
 12 14  1  0  0  0  0
 13  9  1  0  0  0  0
 14 11  1  0  0  0  0
 14  2  2  0  0  0  0
 15  9  1  1  0  0  0
 15  5  1  0  0  0  0
 15 28  1  0  0  0  0
 16  4  1  0  0  0  0
 16  1  1  0  0  0  0
 17  7  1  0  0  0  0
 17 32  1  1  0  0  0
 17 19  1  0  0  0  0
 18  1  1  0  0  0  0
 20 21  1  0  0  0  0
 21 30  1  1  0  0  0
 22 27  1  6  0  0  0
 22 23  1  0  0  0  0
 23 21  1  0  0  0  0
 24 26  1  0  0  0  0
 24 22  1  0  0  0  0
 25 24  1  0  0  0  0
 28 26  1  6  0  0  0
 28 20  1  0  0  0  0
 29 30  1  0  0  0  0
 31 37  2  0  0  0  0
 31 32  1  0  0  0  0
 32 33  2  0  0  0  0
 33 36  1  0  0  0  0
 35 36  2  0  0  0  0
 36 34  1  0  0  0  0
 37 35  1  0  0  0  0
M  END
>  <MODEL>
4

>  <REMARK>
 VINA RESULT:      -5.3      3.910      8.328
  Name = 
  3 active torsions:
  status: ('A' for Active; 'I' for Inactive)
    1  A    between atoms: C_4  and  C_37
    2  A    between atoms: N_21  and  C_27
    3  A    between atoms: C_23  and  C_30
                            x       y       z     vdW  Elec       q    Type
                         _______ _______ _______ _____ _____    ______ ____

>  <TORSDO>
F 3

$$$$
=
 OpenBabel11122411253D

 37 42  0  0  1  0  0  0  0  0999 V2000
  193.0190  176.3020  137.0150 C   0  0  0  0  0  0  0  0  0  0  0  0
  190.2520  176.7720  140.0680 C   0  0  0  0  0  0  0  0  0  0  0  0
  188.6890  179.2340  138.9800 C   0  0  0  0  0  1  0  0  0  0  0  0
  192.5510  176.8150  139.4730 C   0  0  0  0  0  0  0  0  0  0  0  0
  188.9460  176.7270  139.3350 C   0  0  1  0  0  3  0  0  0  0  0  0
  191.2250  176.6150  139.1680 C   0  0  0  0  0  0  0  0  0  0  0  0
  188.0930  177.9820  139.6060 C   0  0  1  0  0  3  0  0  0  0  0  0
  192.8580  177.1370  140.7630 N   0  0  0  0  0  0  0  0  0  0  0  0
  190.7090  176.4770  137.8800 N   0  0  0  0  0  0  0  0  0  0  0  0
  193.1000  174.7850  137.0400 C   0  0  0  0  0  1  0  0  0  0  0  0
  189.5060  177.4760  142.3830 C   0  0  0  0  0  2  0  0  0  0  0  0
  191.8950  177.2760  141.6910 N   0  0  0  0  0  0  0  0  0  0  0  0
  191.5610  176.7340  136.7210 C   0  0  0  0  0  2  0  0  0  0  0  0
  190.5700  177.1150  141.3820 C   0  0  0  0  0  0  0  0  0  0  0  0
  189.3000  176.5900  137.8880 N   0  0  1  0  0  0  0  0  0  0  0  0
  193.5580  176.8690  138.3550 C   0  0  0  0  0  2  0  0  0  0  0  0
  187.8230  178.2350  141.1040 C   0  0  2  0  0  3  0  0  0  0  0  0
  193.9030  176.8030  135.8930 C   0  0  0  0  0  1  0  0  0  0  0  0
  188.2190  177.1550  141.9150 O   0  0  0  0  0  0  0  0  0  0  0  0
  187.2570  175.1060  137.5300 C   0  0  0  0  0  2  0  0  0  0  0  0
  186.7740  173.9020  136.7270 C   0  0  2  0  0  3  0  0  0  0  0  0
  187.2460  175.4850  134.6890 C   0  0  2  0  0  3  0  0  0  0  0  0
  186.6060  174.1910  135.2250 C   0  0  0  0  0  2  0  0  0  0  0  0
  188.7240  175.5360  134.7640 N   0  0  0  0  0  0  0  0  0  0  0  0
  189.1680  176.8050  134.5940 O   0  0  0  0  0  1  0  0  0  0  0  0
  189.3640  174.9610  135.9580 C   0  0  0  0  0  2  0  0  0  0  0  0
  186.5270  176.7490  135.1580 C   0  0  0  0  0  1  0  0  0  0  0  0
  188.7600  175.3450  137.3200 C   0  0  1  0  0  3  0  0  0  0  0  0
  184.3780  174.2920  136.9150 N   0  0  0  0  0  1  0  0  0  0  0  0
  185.4580  173.3920  137.2850 C   0  0  0  0  0  2  0  0  0  0  0  0
  185.4540  178.5010  140.2860 C   0  0  0  0  0  3  0  0  0  0  0  0
  186.3830  178.5630  141.3340 C   0  0  0  0  0  0  0  0  0  0  0  0
  185.9660  178.9610  142.6080 C   0  0  0  0  0  3  0  0  0  0  0  0
  184.2240  179.6710  144.0740 F   0  0  0  0  0  0  0  0  0  0  0  0
  183.7000  179.2220  141.7920 C   0  0  0  0  0  3  0  0  0  0  0  0
  184.6250  179.2880  142.8380 C   0  0  0  0  0  0  0  0  0  0  0  0
  184.1140  178.8280  140.5160 C   0  0  0  0  0  3  0  0  0  0  0  0
  1 10  1  0  0  0  0
  1 16  1  0  0  0  0
  2 14  1  0  0  0  0
  4  8  2  0  0  0  0
  5  7  1  0  0  0  0
  5  2  1  1  0  0  0
  6  4  1  0  0  0  0
  6  2  2  0  0  0  0
  7  3  1  1  0  0  0
  7 17  1  0  0  0  0
  8 12  1  0  0  0  0
  9  6  1  0  0  0  0
 13  1  1  0  0  0  0
 13  9  1  0  0  0  0
 14 12  2  0  0  0  0
 14 11  1  0  0  0  0
 15  9  1  1  0  0  0
 15  5  1  0  0  0  0
 16  4  1  0  0  0  0
 17 32  1  6  0  0  0
 17 19  1  0  0  0  0
 18  1  1  0  0  0  0
 19 11  1  0  0  0  0
 21 30  1  1  0  0  0
 21 20  1  0  0  0  0
 22 24  1  0  0  0  0
 22 27  1  1  0  0  0
 22 23  1  0  0  0  0
 23 21  1  0  0  0  0
 24 26  1  0  0  0  0
 25 24  1  0  0  0  0
 28 26  1  6  0  0  0
 28 20  1  0  0  0  0
 28 15  1  0  0  0  0
 29 30  1  0  0  0  0
 31 37  2  0  0  0  0
 31 32  1  0  0  0  0
 32 33  2  0  0  0  0
 33 36  1  0  0  0  0
 35 36  2  0  0  0  0
 36 34  1  0  0  0  0
 37 35  1  0  0  0  0
M  END
>  <MODEL>
5

>  <REMARK>
 VINA RESULT:      -5.0      1.436      1.719
  Name = 
  3 active torsions:
  status: ('A' for Active; 'I' for Inactive)
    1  A    between atoms: C_4  and  C_37
    2  A    between atoms: N_21  and  C_27
    3  A    between atoms: C_23  and  C_30
                            x       y       z     vdW  Elec       q    Type
                         _______ _______ _______ _____ _____    ______ ____

>  <TORSDO>
F 3

$$$$
=
 OpenBabel11122411253D

 37 42  0  0  1  0  0  0  0  0999 V2000
  188.1640  177.9500  135.9570 C   0  0  0  0  0  0  0  0  0  0  0  0
  185.8100  177.8850  139.3700 C   0  0  0  0  0  0  0  0  0  0  0  0
  183.8060  180.1600  138.6630 C   0  0  0  0  0  1  0  0  0  0  0  0
  187.9790  178.2730  138.4840 C   0  0  0  0  0  0  0  0  0  0  0  0
  184.4320  177.6970  138.8130 C   0  0  1  0  0  3  0  0  0  0  0  0
  186.6610  177.9080  138.3420 C   0  0  0  0  0  0  0  0  0  0  0  0
  183.4690  178.8090  139.2760 C   0  0  1  0  0  3  0  0  0  0  0  0
  188.4170  178.5710  139.7410 N   0  0  0  0  0  0  0  0  0  0  0  0
  185.9930  177.7630  137.1260 N   0  0  0  0  0  0  0  0  0  0  0  0
  188.4430  176.4590  135.8690 C   0  0  0  0  0  1  0  0  0  0  0  0
  185.3070  178.3670  141.8050 C   0  0  0  0  0  2  0  0  0  0  0  0
  187.5820  178.5300  140.7950 N   0  0  0  0  0  0  0  0  0  0  0  0
  186.6360  178.1910  135.8860 C   0  0  0  0  0  2  0  0  0  0  0  0
  186.2590  178.2050  140.6510 C   0  0  0  0  0  0  0  0  0  0  0  0
  184.5960  177.6820  137.3260 N   0  0  1  0  0  0  0  0  0  0  0  0
  188.8060  178.5200  137.2500 C   0  0  0  0  0  2  0  0  0  0  0  0
  183.3790  178.9490  140.8100 C   0  0  2  0  0  3  0  0  0  0  0  0
  188.8120  178.6220  134.7650 C   0  0  0  0  0  1  0  0  0  0  0  0
  184.0200  177.8950  141.4890 O   0  0  0  0  0  0  0  0  0  0  0  0
  184.3780  175.1580  137.6220 C   0  0  0  0  0  2  0  0  0  0  0  0
  183.6920  173.9340  137.0220 C   0  0  2  0  0  3  0  0  0  0  0  0
  181.5140  175.2260  137.7030 C   0  0  2  0  0  3  0  0  0  0  0  0
  182.1700  173.9120  137.2410 C   0  0  0  0  0  2  0  0  0  0  0  0
  181.5870  176.3430  136.7340 N   0  0  0  0  0  0  0  0  0  0  0  0
  181.2960  177.5210  137.3380 O   0  0  0  0  0  1  0  0  0  0  0  0
  182.8310  176.4940  135.9620 C   0  0  0  0  0  2  0  0  0  0  0  0
  181.8580  175.5940  139.1460 C   0  0  0  0  0  1  0  0  0  0  0  0
  184.1490  176.4030  136.7510 C   0  0  1  0  0  3  0  0  0  0  0  0
  185.6800  172.8910  137.9680 N   0  0  0  0  0  1  0  0  0  0  0  0
  184.2940  172.6630  137.5940 C   0  0  0  0  0  2  0  0  0  0  0  0
  180.9310  179.2870  140.3170 C   0  0  0  0  0  3  0  0  0  0  0  0
  181.9550  179.0640  141.2480 C   0  0  0  0  0  0  0  0  0  0  0  0
  181.6460  178.9730  142.6090 C   0  0  0  0  0  3  0  0  0  0  0  0
  180.0250  179.0040  144.3580 F   0  0  0  0  0  0  0  0  0  0  0  0
  179.3010  179.3140  142.1080 C   0  0  0  0  0  3  0  0  0  0  0  0
  180.3200  179.0960  143.0390 C   0  0  0  0  0  0  0  0  0  0  0  0
  179.6060  179.4100  140.7460 C   0  0  0  0  0  3  0  0  0  0  0  0
  1 16  1  0  0  0  0
  2 14  1  0  0  0  0
  4  8  2  0  0  0  0
  5  7  1  0  0  0  0
  5  2  1  1  0  0  0
  6  4  1  0  0  0  0
  6  2  2  0  0  0  0
  7  3  1  6  0  0  0
  7 17  1  0  0  0  0
  8 12  1  0  0  0  0
  9  6  1  0  0  0  0
 10  1  1  0  0  0  0
 13  1  1  0  0  0  0
 13  9  1  0  0  0  0
 14 12  2  0  0  0  0
 14 11  1  0  0  0  0
 15  9  1  1  0  0  0
 15  5  1  0  0  0  0
 16  4  1  0  0  0  0
 17 32  1  6  0  0  0
 17 19  1  0  0  0  0
 18  1  1  0  0  0  0
 19 11  1  0  0  0  0
 21 23  1  0  0  0  0
 21 30  1  1  0  0  0
 21 20  1  0  0  0  0
 22 27  1  1  0  0  0
 23 22  1  0  0  0  0
 24 25  1  0  0  0  0
 24 22  1  0  0  0  0
 26 24  1  0  0  0  0
 28 26  1  1  0  0  0
 28 15  1  0  0  0  0
 28 20  1  0  0  0  0
 30 29  1  0  0  0  0
 31 37  2  0  0  0  0
 31 32  1  0  0  0  0
 32 33  2  0  0  0  0
 33 36  1  0  0  0  0
 35 36  2  0  0  0  0
 36 34  1  0  0  0  0
 37 35  1  0  0  0  0
M  END
>  <MODEL>
6

>  <REMARK>
 VINA RESULT:      -4.9      3.455      5.044
  Name = 
  3 active torsions:
  status: ('A' for Active; 'I' for Inactive)
    1  A    between atoms: C_4  and  C_37
    2  A    between atoms: N_21  and  C_27
    3  A    between atoms: C_23  and  C_30
                            x       y       z     vdW  Elec       q    Type
                         _______ _______ _______ _____ _____    ______ ____

>  <TORSDO>
F 3

$$$$
=
 OpenBabel11122411253D

 37 42  0  0  1  0  0  0  0  0999 V2000
  185.8220  178.5870  142.6490 C   0  0  0  0  0  0  0  0  0  0  0  0
  184.5220  178.0310  138.7510 C   0  0  0  0  0  0  0  0  0  0  0  0
  183.1980  175.2290  139.0380 C   0  0  0  0  0  1  0  0  0  0  0  0
  186.4010  178.3030  140.1780 C   0  0  0  0  0  0  0  0  0  0  0  0
  183.0580  177.7680  138.9290 C   0  0  1  0  0  3  0  0  0  0  0  0
  185.0450  178.2390  139.9620 C   0  0  0  0  0  0  0  0  0  0  0  0
  182.6350  176.4290  138.2920 C   0  0  1  0  0  3  0  0  0  0  0  0
  187.2170  178.1950  139.0900 N   0  0  0  0  0  0  0  0  0  0  0  0
  184.0760  178.1320  140.9590 N   0  0  0  0  0  0  0  0  0  0  0  0
  185.6000  180.0870  142.7300 C   0  0  0  0  0  1  0  0  0  0  0  0
  184.8340  177.4960  136.2950 C   0  0  0  0  0  2  0  0  0  0  0  0
  186.7100  178.0090  137.8580 N   0  0  0  0  0  0  0  0  0  0  0  0
  184.4770  177.8840  142.3410 C   0  0  0  0  0  2  0  0  0  0  0  0
  185.3610  177.9070  137.6440 C   0  0  0  0  0  0  0  0  0  0  0  0
  182.8210  177.7860  140.4060 N   0  0  1  0  0  0  0  0  0  0  0  0
  186.9170  178.2840  141.5920 C   0  0  0  0  0  2  0  0  0  0  0  0
  182.9890  176.3170  136.7950 C   0  0  2  0  0  3  0  0  0  0  0  0
  186.3150  178.1090  143.9980 C   0  0  0  0  0  1  0  0  0  0  0  0
  183.4290  177.5380  136.2500 O   0  0  0  0  0  0  0  0  0  0  0  0
  181.4300  179.7850  139.6520 C   0  0  0  0  0  2  0  0  0  0  0  0
  180.2980  180.7010  140.1090 C   0  0  2  0  0  3  0  0  0  0  0  0
  178.9320  178.4630  140.1240 C   0  0  2  0  0  3  0  0  0  0  0  0
  178.9310  180.0020  140.1790 C   0  0  0  0  0  2  0  0  0  0  0  0
  179.5880  177.7900  141.2680 N   0  0  0  0  0  0  0  0  0  0  0  0
  179.8370  176.4900  140.9800 O   0  0  0  0  0  1  0  0  0  0  0  0
  180.8120  178.4050  141.8070 C   0  0  0  0  0  2  0  0  0  0  0  0
  179.3000  177.9120  138.7470 C   0  0  0  0  0  1  0  0  0  0  0  0
  181.8730  178.8460  140.7830 C   0  0  1  0  0  3  0  0  0  0  0  0
  181.4000  182.0280  138.3890 N   0  0  0  0  0  1  0  0  0  0  0  0
  180.1940  181.9050  139.1900 C   0  0  0  0  0  2  0  0  0  0  0  0
  180.8780  176.6460  135.4570 C   0  0  0  0  0  3  0  0  0  0  0  0
  181.8310  175.7820  136.0160 C   0  0  0  0  0  0  0  0  0  0  0  0
  181.6870  174.3990  135.8640 C   0  0  0  0  0  3  0  0  0  0  0  0
  180.4660  172.5400  135.0060 F   0  0  0  0  0  0  0  0  0  0  0  0
  179.6540  174.7430  134.5940 C   0  0  0  0  0  3  0  0  0  0  0  0
  180.6010  173.8800  135.1520 C   0  0  0  0  0  0  0  0  0  0  0  0
  179.7930  176.1260  134.7460 C   0  0  0  0  0  3  0  0  0  0  0  0
  1 10  1  0  0  0  0
  1 18  1  0  0  0  0
  2  6  1  0  0  0  0
  4 16  1  0  0  0  0
  5  2  1  1  0  0  0
  5 15  1  0  0  0  0
  6  4  2  0  0  0  0
  6  9  1  0  0  0  0
  7  5  1  0  0  0  0
  7  3  1  1  0  0  0
  8  4  1  0  0  0  0
  9 13  1  0  0  0  0
 11 14  1  0  0  0  0
 12  8  2  0  0  0  0
 13  1  1  0  0  0  0
 14 12  1  0  0  0  0
 14  2  2  0  0  0  0
 15 28  1  0  0  0  0
 15  9  1  1  0  0  0
 16  1  1  0  0  0  0
 17 32  1  6  0  0  0
 17  7  1  0  0  0  0
 19 11  1  0  0  0  0
 19 17  1  0  0  0  0
 20 21  1  0  0  0  0
 21 30  1  6  0  0  0
 21 23  1  0  0  0  0
 22 27  1  6  0  0  0
 22 23  1  0  0  0  0
 22 24  1  0  0  0  0
 24 26  1  0  0  0  0
 25 24  1  0  0  0  0
 28 20  1  6  0  0  0
 28 26  1  0  0  0  0
 29 30  1  0  0  0  0
 31 32  1  0  0  0  0
 33 32  2  0  0  0  0
 34 36  1  0  0  0  0
 35 37  1  0  0  0  0
 35 36  2  0  0  0  0
 36 33  1  0  0  0  0
 37 31  2  0  0  0  0
M  END
>  <MODEL>
7

>  <REMARK>
 VINA RESULT:      -4.7      4.990      8.616
  Name = 
  3 active torsions:
  status: ('A' for Active; 'I' for Inactive)
    1  A    between atoms: C_4  and  C_37
    2  A    between atoms: N_21  and  C_27
    3  A    between atoms: C_23  and  C_30
                            x       y       z     vdW  Elec       q    Type
                         _______ _______ _______ _____ _____    ______ ____

>  <TORSDO>
F 3

$$$$
=
 OpenBabel11122411253D

 37 42  0  0  1  0  0  0  0  0999 V2000
  183.2590  177.0300  136.7310 C   0  0  0  0  0  0  0  0  0  0  0  0
  186.5870  174.6000  137.1940 C   0  0  0  0  0  0  0  0  0  0  0  0
  188.1370  175.3380  134.5980 C   0  0  0  0  0  1  0  0  0  0  0  0
  184.2320  174.6740  136.9030 C   0  0  0  0  0  0  0  0  0  0  0  0
  187.7210  175.5750  137.0970 C   0  0  1  0  0  3  0  0  0  0  0  0
  185.4510  175.2880  137.0680 C   0  0  0  0  0  0  0  0  0  0  0  0
  188.7220  175.1820  135.9930 C   0  0  1  0  0  3  0  0  0  0  0  0
  184.2070  173.3100  136.9200 N   0  0  0  0  0  0  0  0  0  0  0  0
  185.6980  176.6480  136.8830 N   0  0  0  0  0  0  0  0  0  0  0  0
  183.0440  177.3690  138.1960 C   0  0  0  0  0  1  0  0  0  0  0  0
  187.8220  172.3890  137.1560 C   0  0  0  0  0  2  0  0  0  0  0  0
  185.3370  172.5970  137.0700 N   0  0  0  0  0  0  0  0  0  0  0  0
  184.6690  177.5020  136.2960 C   0  0  0  0  0  2  0  0  0  0  0  0
  186.5590  173.2050  137.1970 C   0  0  0  0  0  0  0  0  0  0  0  0
  187.0870  176.9040  136.8330 N   0  0  1  0  0  0  0  0  0  0  0  0
  183.0400  175.5090  136.5160 C   0  0  0  0  0  2  0  0  0  0  0  0
  189.2940  173.7580  136.1550 C   0  0  2  0  0  3  0  0  0  0  0  0
  182.2290  177.7820  135.9160 C   0  0  0  0  0  1  0  0  0  0  0  0
  188.9610  173.1790  137.3940 O   0  0  0  0  0  0  0  0  0  0  0  0
  187.3530  177.3080  139.3370 C   0  0  0  0  0  2  0  0  0  0  0  0
  187.8840  178.3290  140.3390 C   0  0  2  0  0  3  0  0  0  0  0  0
  190.1650  177.8270  139.1450 C   0  0  2  0  0  3  0  0  0  0  0  0
  189.4170  178.4540  140.3360 C   0  0  0  0  0  2  0  0  0  0  0  0
  189.8860  178.4450  137.8290 N   0  0  0  0  0  0  0  0  0  0  0  0
  190.3080  177.6400  136.8230 O   0  0  0  0  0  1  0  0  0  0  0  0
  188.5040  178.8680  137.5560 C   0  0  0  0  0  2  0  0  0  0  0  0
  190.1490  176.3000  139.1630 C   0  0  0  0  0  1  0  0  0  0  0  0
  187.3910  177.8650  137.9060 C   0  0  1  0  0  3  0  0  0  0  0  0
  188.3310  177.0300  142.3500 N   0  0  0  0  0  1  0  0  0  0  0  0
  187.4170  177.9810  141.7400 C   0  0  0  0  0  2  0  0  0  0  0  0
  191.4440  174.9070  135.5110 C   0  0  0  0  0  3  0  0  0  0  0  0
  190.7760  173.7580  135.9580 C   0  0  0  0  0  0  0  0  0  0  0  0
  191.4990  172.5860  136.2000 C   0  0  0  0  0  3  0  0  0  0  0  0
  193.5820  171.4250  136.2420 F   0  0  0  0  0  0  0  0  0  0  0  0
  193.5480  173.7100  135.5620 C   0  0  0  0  0  3  0  0  0  0  0  0
  192.8840  172.5620  136.0040 C   0  0  0  0  0  0  0  0  0  0  0  0
  192.8270  174.8830  135.3150 C   0  0  0  0  0  3  0  0  0  0  0  0
  1 10  1  0  0  0  0
  2 14  1  0  0  0  0
  4  8  2  0  0  0  0
  4  6  1  0  0  0  0
  5  2  1  6  0  0  0
  6  2  2  0  0  0  0
  7  3  1  6  0  0  0
  7 17  1  0  0  0  0
  7  5  1  0  0  0  0
  8 12  1  0  0  0  0
  9  6  1  0  0  0  0
 11 14  1  0  0  0  0
 11 19  1  0  0  0  0
 12 14  2  0  0  0  0
 13  1  1  0  0  0  0
 13  9  1  0  0  0  0
 15  9  1  1  0  0  0
 15  5  1  0  0  0  0
 15 28  1  0  0  0  0
 16  1  1  0  0  0  0
 16  4  1  0  0  0  0
 17 32  1  1  0  0  0
 17 19  1  0  0  0  0
 18  1  1  0  0  0  0
 20 21  1  0  0  0  0
 21 30  1  1  0  0  0
 22 27  1  6  0  0  0
 22 23  1  0  0  0  0
 23 21  1  0  0  0  0
 24 22  1  0  0  0  0
 25 24  1  0  0  0  0
 26 24  1  0  0  0  0
 28 26  1  6  0  0  0
 28 20  1  0  0  0  0
 30 29  1  0  0  0  0
 31 32  1  0  0  0  0
 32 33  2  0  0  0  0
 35 36  2  0  0  0  0
 36 33  1  0  0  0  0
 36 34  1  0  0  0  0
 37 31  2  0  0  0  0
 37 35  1  0  0  0  0
M  END
>  <MODEL>
8

>  <REMARK>
 VINA RESULT:      -4.4      2.967      7.688
  Name = 
  3 active torsions:
  status: ('A' for Active; 'I' for Inactive)
    1  A    between atoms: C_4  and  C_37
    2  A    between atoms: N_21  and  C_27
    3  A    between atoms: C_23  and  C_30
                            x       y       z     vdW  Elec       q    Type
                         _______ _______ _______ _____ _____    ______ ____

>  <TORSDO>
F 3

$$$$
=
 OpenBabel11122411253D

 37 42  0  0  1  0  0  0  0  0999 V2000
  180.2190  176.7820  135.5900 C   0  0  0  0  0  0  0  0  0  0  0  0
  181.5970  178.6500  139.0270 C   0  0  0  0  0  0  0  0  0  0  0  0
  182.5490  176.1560  140.6280 C   0  0  0  0  0  1  0  0  0  0  0  0
  179.7100  178.1900  137.6590 C   0  0  0  0  0  0  0  0  0  0  0  0
  183.0080  178.1560  139.1230 C   0  0  1  0  0  3  0  0  0  0  0  0
  181.0560  178.1110  137.9320 C   0  0  0  0  0  0  0  0  0  0  0  0
  183.2870  177.4780  140.4790 C   0  0  1  0  0  3  0  0  0  0  0  0
  178.9310  178.8910  138.5330 N   0  0  0  0  0  0  0  0  0  0  0  0
  181.9620  177.2840  137.2700 N   0  0  0  0  0  0  0  0  0  0  0  0
  180.6230  177.8560  134.5940 C   0  0  0  0  0  1  0  0  0  0  0  0
  181.3200  179.8220  141.2550 C   0  0  0  0  0  2  0  0  0  0  0  0
  179.4610  179.4620  139.6300 N   0  0  0  0  0  0  0  0  0  0  0  0
  181.4780  176.2720  136.3340 C   0  0  0  0  0  2  0  0  0  0  0  0
  180.7940  179.3530  139.9250 C   0  0  0  0  0  0  0  0  0  0  0  0
  183.1850  177.2120  137.9770 N   0  0  1  0  0  0  0  0  0  0  0  0
  179.1390  177.3490  136.5500 C   0  0  0  0  0  2  0  0  0  0  0  0
  182.9820  178.3770  141.6950 C   0  0  2  0  0  3  0  0  0  0  0  0
  179.6170  175.6270  134.8200 C   0  0  0  0  0  1  0  0  0  0  0  0
  182.7200  179.7110  141.3300 O   0  0  0  0  0  0  0  0  0  0  0  0
  185.6480  177.7960  137.6690 C   0  0  0  0  0  2  0  0  0  0  0  0
  186.6900  178.0760  136.5890 C   0  0  2  0  0  3  0  0  0  0  0  0
  186.1360  175.6120  135.8790 C   0  0  2  0  0  3  0  0  0  0  0  0
  187.0640  176.8350  135.7600 C   0  0  0  0  0  2  0  0  0  0  0  0
  184.7580  175.8130  135.3750 N   0  0  0  0  0  0  0  0  0  0  0  0
  183.9390  174.8280  135.8170 O   0  0  0  0  0  1  0  0  0  0  0  0
  184.1240  177.1160  135.6320 C   0  0  0  0  0  2  0  0  0  0  0  0
  186.2380  174.9120  137.2330 C   0  0  0  0  0  1  0  0  0  0  0  0
  184.2420  177.6730  137.0620 C   0  0  1  0  0  3  0  0  0  0  0  0
  187.8730  178.5690  138.6590 N   0  0  0  0  0  1  0  0  0  0  0  0
  187.9480  178.6550  137.2110 C   0  0  0  0  0  2  0  0  0  0  0  0
  185.3930  177.9580  142.3000 C   0  0  0  0  0  3  0  0  0  0  0  0
  184.0950  178.3150  142.6910 C   0  0  0  0  0  0  0  0  0  0  0  0
  183.8280  178.5950  144.0350 C   0  0  0  0  0  3  0  0  0  0  0  0
  184.5920  178.8000  146.2840 F   0  0  0  0  0  0  0  0  0  0  0  0
  186.1480  178.1730  144.5900 C   0  0  0  0  0  3  0  0  0  0  0  0
  184.8540  178.5260  144.9840 C   0  0  0  0  0  0  0  0  0  0  0  0
  186.4180  177.8890  143.2480 C   0  0  0  0  0  3  0  0  0  0  0  0
  1 13  1  0  0  0  0
  1 16  1  0  0  0  0
  2 14  1  0  0  0  0
  4  6  1  0  0  0  0
  4  8  2  0  0  0  0
  5  2  1  1  0  0  0
  5  7  1  0  0  0  0
  6  2  2  0  0  0  0
  7  3  1  1  0  0  0
  7 17  1  0  0  0  0
  8 12  1  0  0  0  0
  9  6  1  0  0  0  0
 10  1  1  0  0  0  0
 11 19  1  0  0  0  0
 12 14  2  0  0  0  0
 13  9  1  0  0  0  0
 14 11  1  0  0  0  0
 15  9  1  6  0  0  0
 15  5  1  0  0  0  0
 16  4  1  0  0  0  0
 17 32  1  1  0  0  0
 18  1  1  0  0  0  0
 19 17  1  0  0  0  0
 21 30  1  1  0  0  0
 21 20  1  0  0  0  0
 22 27  1  1  0  0  0
 23 22  1  0  0  0  0
 23 21  1  0  0  0  0
 24 26  1  0  0  0  0
 24 25  1  0  0  0  0
 24 22  1  0  0  0  0
 28 26  1  6  0  0  0
 28 20  1  0  0  0  0
 28 15  1  0  0  0  0
 30 29  1  0  0  0  0
 31 32  2  0  0  0  0
 31 37  1  0  0  0  0
 32 33  1  0  0  0  0
 33 36  2  0  0  0  0
 35 36  1  0  0  0  0
 36 34  1  0  0  0  0
 37 35  2  0  0  0  0
M  END
>  <MODEL>
9

>  <REMARK>
 VINA RESULT:      -4.1      4.241      8.196
  Name = 
  3 active torsions:
  status: ('A' for Active; 'I' for Inactive)
    1  A    between atoms: C_4  and  C_37
    2  A    between atoms: N_21  and  C_27
    3  A    between atoms: C_23  and  C_30
                            x       y       z     vdW  Elec       q    Type
                         _______ _______ _______ _____ _____    ______ ____

>  <TORSDO>
F 3

$$$$
