=
 OpenBabel11122411073D

 31 35  0  0  1  0  0  0  0  0999 V2000
  184.0430  178.7950  144.8640 C   0  0  0  0  0  0  0  0  0  0  0  0
  187.4420  177.9710  143.3860 C   0  0  0  0  0  0  0  0  0  0  0  0
  188.3540  177.6880  144.4280 C   0  0  0  0  0  0  0  0  0  0  0  0
  185.8880  178.8630  138.4230 O   0  0  0  0  0  0  0  0  0  0  0  0
  186.9250  178.1670  138.4230 C   0  0  0  0  0  0  0  0  0  0  0  0
  188.9180  177.3910  146.7640 C   0  0  0  0  0  0  0  0  0  0  0  0
  186.0370  178.2830  143.5260 C   0  0  0  0  0  0  0  0  0  0  0  0
  183.2990  178.9350  143.6980 C   0  0  0  0  0  3  0  0  0  0  0  0
  188.0030  177.7800  145.7830 C   0  0  0  0  0  3  0  0  0  0  0  0
  187.1300  178.0300  140.9760 C   0  0  0  0  0  0  0  0  0  0  0  0
  183.4250  179.0050  146.0830 F   0  0  0  0  0  0  0  0  0  0  0  0
  190.1260  177.5000  142.8270 N   0  0  0  0  0  0  0  0  0  0  0  0
  188.5320  177.5770  148.4760 Cl  0  0  0  0  0  0  0  0  0  0  0  0
  185.7950  178.3060  141.1350 N   0  0  0  0  0  0  0  0  0  0  0  0
  187.9200  177.9420  142.0870 C   0  0  0  0  0  0  0  0  0  0  0  0
  187.6120  177.8670  139.6540 N   0  0  0  0  0  2  0  0  0  0  0  0
  185.4120  178.4650  144.7490 C   0  0  0  0  0  3  0  0  0  0  0  0
  190.2290  177.0450  146.4150 C   0  0  0  0  0  3  0  0  0  0  0  0
  185.2510  178.4430  142.3510 C   0  0  0  0  0  0  0  0  0  0  0  0
  183.8790  178.7240  142.4660 C   0  0  0  0  0  3  0  0  0  0  0  0
  189.2730  177.6680  141.8690 N   0  0  0  0  0  0  0  0  0  0  0  0
  189.7080  177.3380  144.1050 C   0  0  0  0  0  0  0  0  0  0  0  0
  190.6330  176.9910  145.0840 C   0  0  0  0  0  3  0  0  0  0  0  0
  190.0840  176.1900  137.3440 C   0  0  1  0  0  3  0  0  0  0  0  0
  187.5760  176.4610  136.5770 C   0  0  0  0  0  2  0  0  0  0  0  0
  189.0530  179.7910  137.5580 O   0  0  0  0  0  1  0  0  0  0  0  0
  190.6160  175.4230  138.4000 O   0  0  0  0  0  1  0  0  0  0  0  0
  188.6500  175.5570  137.1600 C   0  0  0  0  0  2  0  0  0  0  0  0
  189.0390  178.4930  137.0240 C   0  0  2  0  0  3  0  0  0  0  0  0
  187.6020  177.8910  137.1190 C   0  0  2  0  0  3  0  0  0  0  0  0
  190.0010  177.6100  137.8920 C   0  0  0  0  0  2  0  0  0  0  0  0
  1 11  1  0  0  0  0
  2  7  1  0  0  0  0
  2  3  1  0  0  0  0
  3  9  1  0  0  0  0
  4  5  2  0  0  0  0
  5 16  1  0  0  0  0
  6 13  1  0  0  0  0
  7 17  2  0  0  0  0
  8  1  2  0  0  0  0
  9  6  2  0  0  0  0
 10 14  2  0  0  0  0
 10 15  1  0  0  0  0
 12 22  1  0  0  0  0
 14 19  1  0  0  0  0
 15  2  2  0  0  0  0
 16 10  1  0  0  0  0
 17  1  1  0  0  0  0
 18  6  1  0  0  0  0
 19 20  2  0  0  0  0
 19  7  1  0  0  0  0
 20  8  1  0  0  0  0
 21 15  1  0  0  0  0
 21 12  2  0  0  0  0
 22  3  2  0  0  0  0
 22 23  1  0  0  0  0
 23 18  2  0  0  0  0
 24 31  1  0  0  0  0
 24 27  1  1  0  0  0
 25 30  1  0  0  0  0
 25 28  1  0  0  0  0
 28 24  1  0  0  0  0
 29 30  1  0  0  0  0
 29 26  1  1  0  0  0
 29 31  1  0  0  0  0
 30  5  1  1  0  0  0
M  END
>  <MODEL>
1

>  <REMARK>
 VINA RESULT:     -11.9      0.000      0.000
  Name = 
  1 active torsions:
  status: ('A' for Active; 'I' for Inactive)
    1  A    between atoms: C_5  and  C_30
                            x       y       z     vdW  Elec       q    Type
                         _______ _______ _______ _____ _____    ______ ____

>  <TORSDO>
F 1

$$$$
=
 OpenBabel11122411073D

 31 35  0  0  1  0  0  0  0  0999 V2000
  184.3910  178.6070  144.4680 C   0  0  0  0  0  0  0  0  0  0  0  0
  188.0570  177.8650  143.8180 C   0  0  0  0  0  0  0  0  0  0  0  0
  188.7150  177.6230  145.0450 C   0  0  0  0  0  0  0  0  0  0  0  0
  187.6520  178.6440  138.6150 O   0  0  0  0  0  0  0  0  0  0  0  0
  188.6800  177.9800  138.8650 C   0  0  0  0  0  0  0  0  0  0  0  0
  188.7400  177.3740  147.4540 C   0  0  0  0  0  0  0  0  0  0  0  0
  186.6490  178.1370  143.6290 C   0  0  0  0  0  0  0  0  0  0  0  0
  183.9290  178.7100  143.1610 C   0  0  0  0  0  3  0  0  0  0  0  0
  188.0620  177.7230  146.2830 C   0  0  0  0  0  3  0  0  0  0  0  0
  188.3010  177.8830  141.3990 C   0  0  0  0  0  0  0  0  0  0  0  0
  183.5060  178.8160  145.5100 F   0  0  0  0  0  0  0  0  0  0  0  0
  190.8100  177.4660  143.8930 N   0  0  0  0  0  0  0  0  0  0  0  0
  187.9690  177.5720  149.0290 Cl  0  0  0  0  0  0  0  0  0  0  0  0
  186.9590  178.1210  141.2460 N   0  0  0  0  0  0  0  0  0  0  0  0
  188.8190  177.8320  142.6630 C   0  0  0  0  0  0  0  0  0  0  0  0
  189.0760  177.7160  140.2250 N   0  0  0  0  0  2  0  0  0  0  0  0
  185.7580  178.3170  144.6740 C   0  0  0  0  0  3  0  0  0  0  0  0
  190.1040  177.0620  147.4190 C   0  0  0  0  0  3  0  0  0  0  0  0
  186.1480  178.2580  142.3020 C   0  0  0  0  0  0  0  0  0  0  0  0
  184.7790  178.5000  142.0970 C   0  0  0  0  0  3  0  0  0  0  0  0
  190.1930  177.5960  142.7630 N   0  0  0  0  0  0  0  0  0  0  0  0
  190.1150  177.3090  145.0450 C   0  0  0  0  0  0  0  0  0  0  0  0
  190.8010  177.0030  146.2160 C   0  0  0  0  0  3  0  0  0  0  0  0
  188.6580  175.7030  135.7230 C   0  0  1  0  0  3  0  0  0  0  0  0
  189.2830  178.1870  136.3470 C   0  0  0  0  0  2  0  0  0  0  0  0
  190.4420  175.7930  139.0220 O   0  0  0  0  0  1  0  0  0  0  0  0
  187.3890  175.1340  135.4900 O   0  0  0  0  0  1  0  0  0  0  0  0
  188.3620  177.2470  135.5870 C   0  0  0  0  0  2  0  0  0  0  0  0
  190.1510  176.2300  137.7210 C   0  0  2  0  0  3  0  0  0  0  0  0
  189.6430  177.7060  137.7540 C   0  0  2  0  0  3  0  0  0  0  0  0
  189.0000  175.3250  137.1600 C   0  0  0  0  0  2  0  0  0  0  0  0
  1 17  1  0  0  0  0
  1 11  1  0  0  0  0
  2  3  1  0  0  0  0
  3  9  1  0  0  0  0
  4  5  2  0  0  0  0
  5 16  1  0  0  0  0
  6 13  1  0  0  0  0
  7  2  1  0  0  0  0
  7 17  2  0  0  0  0
  8  1  2  0  0  0  0
  9  6  2  0  0  0  0
 10 15  1  0  0  0  0
 12 22  1  0  0  0  0
 14 10  2  0  0  0  0
 14 19  1  0  0  0  0
 15 21  1  0  0  0  0
 15  2  2  0  0  0  0
 16 10  1  0  0  0  0
 18  6  1  0  0  0  0
 19  7  1  0  0  0  0
 20 19  2  0  0  0  0
 20  8  1  0  0  0  0
 21 12  2  0  0  0  0
 22  3  2  0  0  0  0
 22 23  1  0  0  0  0
 23 18  2  0  0  0  0
 24 27  1  1  0  0  0
 24 31  1  0  0  0  0
 25 30  1  0  0  0  0
 28 24  1  0  0  0  0
 28 25  1  0  0  0  0
 29 30  1  0  0  0  0
 29 26  1  1  0  0  0
 30  5  1  1  0  0  0
 31 29  1  0  0  0  0
M  END
>  <MODEL>
2

>  <REMARK>
 VINA RESULT:     -11.8      1.208      1.792
  Name = 
  1 active torsions:
  status: ('A' for Active; 'I' for Inactive)
    1  A    between atoms: C_5  and  C_30
                            x       y       z     vdW  Elec       q    Type
                         _______ _______ _______ _____ _____    ______ ____

>  <TORSDO>
F 1

$$$$
=
 OpenBabel11122411073D

 31 35  0  0  1  0  0  0  0  0999 V2000
  191.4670  176.4730  144.9580 C   0  0  0  0  0  0  0  0  0  0  0  0
  188.0110  177.6800  143.9520 C   0  0  0  0  0  0  0  0  0  0  0  0
  187.2550  177.9680  145.1100 C   0  0  0  0  0  0  0  0  0  0  0  0
  188.8940  177.0020  138.7940 O   0  0  0  0  0  0  0  0  0  0  0  0
  187.9330  177.7810  138.9600 C   0  0  0  0  0  0  0  0  0  0  0  0
  186.9930  178.1510  147.5110 C   0  0  0  0  0  0  0  0  0  0  0  0
  189.3880  177.2410  143.9020 C   0  0  0  0  0  0  0  0  0  0  0  0
  192.0550  176.3500  143.7040 C   0  0  0  0  0  3  0  0  0  0  0  0
  187.7500  177.7540  146.4060 C   0  0  0  0  0  3  0  0  0  0  0  0
  188.0370  177.7600  141.5220 C   0  0  0  0  0  0  0  0  0  0  0  0
  192.2000  176.1270  146.0790 F   0  0  0  0  0  0  0  0  0  0  0  0
  185.3350  178.4140  143.7490 N   0  0  0  0  0  0  0  0  0  0  0  0
  187.5550  177.8160  149.1500 Cl  0  0  0  0  0  0  0  0  0  0  0  0
  189.3500  177.3620  141.5030 N   0  0  0  0  0  0  0  0  0  0  0  0
  187.3910  177.8390  142.7240 C   0  0  0  0  0  0  0  0  0  0  0  0
  187.4230  178.0530  140.2800 N   0  0  0  0  0  2  0  0  0  0  0  0
  190.1310  176.9240  145.0280 C   0  0  0  0  0  3  0  0  0  0  0  0
  185.6880  178.6300  147.3440 C   0  0  0  0  0  3  0  0  0  0  0  0
  190.0160  177.0960  142.6330 C   0  0  0  0  0  0  0  0  0  0  0  0
  191.3600  176.6930  142.5650 C   0  0  0  0  0  3  0  0  0  0  0  0
  186.0530  178.2400  142.6870 N   0  0  0  0  0  0  0  0  0  0  0  0
  185.9110  178.4530  144.9740 C   0  0  0  0  0  0  0  0  0  0  0  0
  185.1410  178.8080  146.0770 C   0  0  0  0  0  3  0  0  0  0  0  0
  187.8720  176.7610  135.2170 C   0  0  1  0  0  3  0  0  0  0  0  0
  186.1490  177.2030  137.1630 C   0  0  0  0  0  2  0  0  0  0  0  0
  188.9290  179.7530  137.2190 O   0  0  0  0  0  1  0  0  0  0  0  0
  188.6600  175.6190  134.9660 O   0  0  0  0  0  1  0  0  0  0  0  0
  186.7800  176.2020  136.2090 C   0  0  0  0  0  2  0  0  0  0  0  0
  188.0030  178.8670  136.6470 C   0  0  2  0  0  3  0  0  0  0  0  0
  187.1390  178.2020  137.7650 C   0  0  2  0  0  3  0  0  0  0  0  0
  188.8100  177.7410  135.9130 C   0  0  0  0  0  2  0  0  0  0  0  0
  1 17  1  0  0  0  0
  1 11  1  0  0  0  0
  2  3  1  0  0  0  0
  3  9  1  0  0  0  0
  4  5  2  0  0  0  0
  5 16  1  0  0  0  0
  6 13  1  0  0  0  0
  7  2  1  0  0  0  0
  7 17  2  0  0  0  0
  8  1  2  0  0  0  0
  9  6  2  0  0  0  0
 10 15  1  0  0  0  0
 12 22  1  0  0  0  0
 14 10  2  0  0  0  0
 14 19  1  0  0  0  0
 15  2  2  0  0  0  0
 16 10  1  0  0  0  0
 18  6  1  0  0  0  0
 19  7  1  0  0  0  0
 20 19  2  0  0  0  0
 20  8  1  0  0  0  0
 21 15  1  0  0  0  0
 21 12  2  0  0  0  0
 22  3  2  0  0  0  0
 22 23  1  0  0  0  0
 23 18  2  0  0  0  0
 24 27  1  1  0  0  0
 24 31  1  0  0  0  0
 24 28  1  0  0  0  0
 25 30  1  0  0  0  0
 28 25  1  0  0  0  0
 29 26  1  1  0  0  0
 29 30  1  0  0  0  0
 30  5  1  1  0  0  0
 31 29  1  0  0  0  0
M  END
>  <MODEL>
3

>  <REMARK>
 VINA RESULT:     -11.0      2.310      4.181
  Name = 
  1 active torsions:
  status: ('A' for Active; 'I' for Inactive)
    1  A    between atoms: C_5  and  C_30
                            x       y       z     vdW  Elec       q    Type
                         _______ _______ _______ _____ _____    ______ ____

>  <TORSDO>
F 1

$$$$
=
 OpenBabel11122411073D

 31 35  0  0  1  0  0  0  0  0999 V2000
  190.4620  176.8180  145.8370 C   0  0  0  0  0  0  0  0  0  0  0  0
  187.8320  177.7420  143.2600 C   0  0  0  0  0  0  0  0  0  0  0  0
  186.6380  178.1160  143.9160 C   0  0  0  0  0  0  0  0  0  0  0  0
  190.9330  176.5570  139.1580 O   0  0  0  0  0  0  0  0  0  0  0  0
  190.0030  177.3030  138.7840 C   0  0  0  0  0  0  0  0  0  0  0  0
  185.3270  178.5430  145.9080 C   0  0  0  0  0  0  0  0  0  0  0  0
  189.0820  177.3670  143.8820 C   0  0  0  0  0  0  0  0  0  0  0  0
  191.5500  176.5900  145.0020 C   0  0  0  0  0  3  0  0  0  0  0  0
  186.4970  178.0660  145.3120 C   0  0  0  0  0  3  0  0  0  0  0  0
  188.9460  177.5620  141.1060 C   0  0  0  0  0  0  0  0  0  0  0  0
  190.6120  176.6310  147.1980 F   0  0  0  0  0  0  0  0  0  0  0  0
  185.5350  178.3200  141.7990 N   0  0  0  0  0  0  0  0  0  0  0  0
  185.0920  178.4130  147.6520 Cl  0  0  0  0  0  0  0  0  0  0  0  0
  190.1250  177.2280  141.7220 N   0  0  0  0  0  0  0  0  0  0  0  0
  187.8300  177.7380  141.8750 C   0  0  0  0  0  0  0  0  0  0  0  0
  188.9560  177.6900  139.6960 N   0  0  0  0  0  2  0  0  0  0  0  0
  189.2380  177.2090  145.2500 C   0  0  0  0  0  3  0  0  0  0  0  0
  184.2380  178.9370  145.1200 C   0  0  0  0  0  3  0  0  0  0  0  0
  190.2120  177.1170  143.0530 C   0  0  0  0  0  0  0  0  0  0  0  0
  191.4410  176.7740  143.6410 C   0  0  0  0  0  3  0  0  0  0  0  0
  186.6530  178.0680  141.1980 N   0  0  0  0  0  0  0  0  0  0  0  0
  185.5000  178.5180  143.1390 C   0  0  0  0  0  0  0  0  0  0  0  0
  184.3190  178.9520  143.7310 C   0  0  0  0  0  3  0  0  0  0  0  0
  186.9750  177.4020  136.3600 C   0  0  1  0  0  3  0  0  0  0  0  0
  189.1240  178.8370  136.8830 C   0  0  0  0  0  2  0  0  0  0  0  0
  189.9110  175.1490  136.9760 O   0  0  0  0  0  1  0  0  0  0  0  0
  185.7450  177.3560  137.0460 O   0  0  0  0  0  1  0  0  0  0  0  0
  187.6070  178.7450  136.8960 C   0  0  0  0  0  2  0  0  0  0  0  0
  189.2770  176.3220  136.5380 C   0  0  2  0  0  3  0  0  0  0  0  0
  189.8320  177.5540  137.3200 C   0  0  2  0  0  3  0  0  0  0  0  0
  187.7480  176.1850  136.8550 C   0  0  0  0  0  2  0  0  0  0  0  0
  1 11  1  0  0  0  0
  2  7  1  0  0  0  0
  2  3  1  0  0  0  0
  3  9  1  0  0  0  0
  5  4  2  0  0  0  0
  5 16  1  0  0  0  0
  6 13  1  0  0  0  0
  7 17  2  0  0  0  0
  8  1  2  0  0  0  0
  9  6  2  0  0  0  0
 10 14  2  0  0  0  0
 10 15  1  0  0  0  0
 12 22  1  0  0  0  0
 14 19  1  0  0  0  0
 15  2  2  0  0  0  0
 16 10  1  0  0  0  0
 17  1  1  0  0  0  0
 18  6  1  0  0  0  0
 19 20  2  0  0  0  0
 19  7  1  0  0  0  0
 20  8  1  0  0  0  0
 21 12  2  0  0  0  0
 21 15  1  0  0  0  0
 22 23  1  0  0  0  0
 22  3  2  0  0  0  0
 23 18  2  0  0  0  0
 24 31  1  0  0  0  0
 24 28  1  0  0  0  0
 24 27  1  1  0  0  0
 25 28  1  0  0  0  0
 25 30  1  0  0  0  0
 29 31  1  0  0  0  0
 29 26  1  1  0  0  0
 29 30  1  0  0  0  0
 30  5  1  1  0  0  0
M  END
>  <MODEL>
4

>  <REMARK>
 VINA RESULT:     -10.7      1.972      4.531
  Name = 
  1 active torsions:
  status: ('A' for Active; 'I' for Inactive)
    1  A    between atoms: C_5  and  C_30
                            x       y       z     vdW  Elec       q    Type
                         _______ _______ _______ _____ _____    ______ ____

>  <TORSDO>
F 1

$$$$
=
 OpenBabel11122411073D

 31 35  0  0  1  0  0  0  0  0999 V2000
  191.1070  177.2450  141.8500 C   0  0  0  0  0  0  0  0  0  0  0  0
  187.9430  177.7760  143.8800 C   0  0  0  0  0  0  0  0  0  0  0  0
  188.2400  177.6570  145.2570 C   0  0  0  0  0  0  0  0  0  0  0  0
  184.8790  178.3030  139.6170 O   0  0  0  0  0  0  0  0  0  0  0  0
  184.3050  178.7900  140.6140 C   0  0  0  0  0  0  0  0  0  0  0  0
  189.7740  177.3200  147.1000 C   0  0  0  0  0  0  0  0  0  0  0  0
  188.8800  177.6890  142.7820 C   0  0  0  0  0  0  0  0  0  0  0  0
  190.6210  177.5000  140.5730 C   0  0  0  0  0  3  0  0  0  0  0  0
  189.5190  177.3250  145.7270 C   0  0  0  0  0  3  0  0  0  0  0  0
  186.2150  178.3140  142.2560 C   0  0  0  0  0  0  0  0  0  0  0  0
  192.4310  176.8770  142.0020 F   0  0  0  0  0  0  0  0  0  0  0  0
  185.9130  177.8880  145.7800 N   0  0  0  0  0  0  0  0  0  0  0  0
  191.3510  176.8250  147.7190 Cl  0  0  0  0  0  0  0  0  0  0  0  0
  187.1280  178.2450  141.2340 N   0  0  0  0  0  0  0  0  0  0  0  0
  186.6260  178.0130  143.5240 C   0  0  0  0  0  0  0  0  0  0  0  0
  184.8880  178.6830  141.9270 N   0  0  0  0  0  2  0  0  0  0  0  0
  190.2130  177.3500  142.9390 C   0  0  0  0  0  3  0  0  0  0  0  0
  188.7310  177.5030  148.0160 C   0  0  0  0  0  3  0  0  0  0  0  0
  188.4100  177.9360  141.4610 C   0  0  0  0  0  0  0  0  0  0  0  0
  189.3090  177.8780  140.3830 C   0  0  0  0  0  3  0  0  0  0  0  0
  185.6560  178.0900  144.5280 N   0  0  0  0  0  0  0  0  0  0  0  0
  187.1920  177.8300  146.2220 C   0  0  0  0  0  0  0  0  0  0  0  0
  187.4360  177.7820  147.5910 C   0  0  0  0  0  3  0  0  0  0  0  0
  181.3380  177.7820  138.3260 C   0  0  1  0  0  3  0  0  0  0  0  0
  181.7780  178.2530  140.8830 C   0  0  0  0  0  2  0  0  0  0  0  0
  183.6030  180.7470  138.7190 O   0  0  0  0  0  1  0  0  0  0  0  0
  181.6190  176.6250  137.5710 O   0  0  0  0  0  1  0  0  0  0  0  0
  181.4170  177.2410  139.8070 C   0  0  0  0  0  2  0  0  0  0  0  0
  182.5640  179.8800  139.0930 C   0  0  2  0  0  3  0  0  0  0  0  0
  182.8820  179.2300  140.4760 C   0  0  2  0  0  3  0  0  0  0  0  0
  182.4820  178.7410  138.0200 C   0  0  0  0  0  2  0  0  0  0  0  0
  1 11  1  0  0  0  0
  1 17  1  0  0  0  0
  2  3  1  0  0  0  0
  3  9  2  0  0  0  0
  3 22  1  0  0  0  0
  4  5  2  0  0  0  0
  5 16  1  0  0  0  0
  6 13  1  0  0  0  0
  6 18  2  0  0  0  0
  7 17  2  0  0  0  0
  7  2  1  0  0  0  0
  8  1  2  0  0  0  0
  9  6  1  0  0  0  0
 10 15  1  0  0  0  0
 12 22  1  0  0  0  0
 14 19  1  0  0  0  0
 14 10  2  0  0  0  0
 15  2  2  0  0  0  0
 15 21  1  0  0  0  0
 16 10  1  0  0  0  0
 19  7  1  0  0  0  0
 20  8  1  0  0  0  0
 20 19  2  0  0  0  0
 21 12  2  0  0  0  0
 22 23  2  0  0  0  0
 23 18  1  0  0  0  0
 24 27  1  6  0  0  0
 24 28  1  0  0  0  0
 28 25  1  0  0  0  0
 29 26  1  6  0  0  0
 29 30  1  0  0  0  0
 30  5  1  6  0  0  0
 30 25  1  0  0  0  0
 31 24  1  0  0  0  0
 31 29  1  0  0  0  0
M  END
>  <MODEL>
5

>  <REMARK>
 VINA RESULT:     -10.5      3.258      5.374
  Name = 
  1 active torsions:
  status: ('A' for Active; 'I' for Inactive)
    1  A    between atoms: C_5  and  C_30
                            x       y       z     vdW  Elec       q    Type
                         _______ _______ _______ _____ _____    ______ ____

>  <TORSDO>
F 1

$$$$
=
 OpenBabel11122411073D

 31 35  0  0  1  0  0  0  0  0999 V2000
  186.5270  178.1760  147.2780 C   0  0  0  0  0  0  0  0  0  0  0  0
  187.7040  177.6790  143.7030 C   0  0  0  0  0  0  0  0  0  0  0  0
  189.0440  177.2280  143.7050 C   0  0  0  0  0  0  0  0  0  0  0  0
  183.1840  179.4130  141.6050 O   0  0  0  0  0  0  0  0  0  0  0  0
  183.8140  178.7440  140.7590 C   0  0  0  0  0  0  0  0  0  0  0  0
  191.0720  176.5300  144.8300 C   0  0  0  0  0  0  0  0  0  0  0  0
  186.8760  177.9400  144.8600 C   0  0  0  0  0  0  0  0  0  0  0  0
  185.1970  178.5100  147.0510 C   0  0  0  0  0  3  0  0  0  0  0  0
  189.7860  177.0740  144.8850 C   0  0  0  0  0  3  0  0  0  0  0  0
  185.7690  178.1600  142.3120 C   0  0  0  0  0  0  0  0  0  0  0  0
  187.0020  178.1580  148.5770 F   0  0  0  0  0  0  0  0  0  0  0  0
  189.0910  177.3540  141.3120 N   0  0  0  0  0  0  0  0  0  0  0  0
  192.0560  176.4040  146.2890 Cl  0  0  0  0  0  0  0  0  0  0  0  0
  184.9990  178.3830  143.4260 N   0  0  0  0  0  0  0  0  0  0  0  0
  187.0980  177.8870  142.4760 C   0  0  0  0  0  0  0  0  0  0  0  0
  185.1330  178.2410  141.0500 N   0  0  0  0  0  2  0  0  0  0  0  0
  187.3460  177.8920  146.1620 C   0  0  0  0  0  3  0  0  0  0  0  0
  191.6800  176.2710  143.5960 C   0  0  0  0  0  3  0  0  0  0  0  0
  185.5130  178.2940  144.6600 C   0  0  0  0  0  0  0  0  0  0  0  0
  184.6870  178.5300  145.7710 C   0  0  0  0  0  3  0  0  0  0  0  0
  187.8380  177.6770  141.3090 N   0  0  0  0  0  0  0  0  0  0  0  0
  189.7000  176.9610  142.4560 C   0  0  0  0  0  0  0  0  0  0  0  0
  190.9970  176.4610  142.3990 C   0  0  0  0  0  3  0  0  0  0  0  0
  180.3540  179.2520  139.0800 C   0  0  1  0  0  3  0  0  0  0  0  0
  182.8470  180.0270  138.7180 C   0  0  0  0  0  2  0  0  0  0  0  0
  182.6960  176.3880  139.7040 O   0  0  0  0  0  1  0  0  0  0  0  0
  179.3910  179.7400  139.9860 O   0  0  0  0  0  1  0  0  0  0  0  0
  181.4200  180.4150  139.0670 C   0  0  0  0  0  2  0  0  0  0  0  0
  182.2740  177.5760  139.0860 C   0  0  2  0  0  3  0  0  0  0  0  0
  183.3100  178.7140  139.3510 C   0  0  2  0  0  3  0  0  0  0  0  0
  180.9090  177.9930  139.7340 C   0  0  0  0  0  2  0  0  0  0  0  0
  1 11  1  0  0  0  0
  2  3  1  0  0  0  0
  2  7  1  0  0  0  0
  3  9  1  0  0  0  0
  5 16  1  0  0  0  0
  5  4  2  0  0  0  0
  6  9  2  0  0  0  0
  6 13  1  0  0  0  0
  7 17  1  0  0  0  0
  8  1  1  0  0  0  0
 10 15  1  0  0  0  0
 10 14  2  0  0  0  0
 12 22  1  0  0  0  0
 14 19  1  0  0  0  0
 15  2  2  0  0  0  0
 16 10  1  0  0  0  0
 17  1  2  0  0  0  0
 18  6  1  0  0  0  0
 19  7  2  0  0  0  0
 19 20  1  0  0  0  0
 20  8  2  0  0  0  0
 21 12  2  0  0  0  0
 21 15  1  0  0  0  0
 22  3  2  0  0  0  0
 23 22  1  0  0  0  0
 23 18  2  0  0  0  0
 24 31  1  0  0  0  0
 24 27  1  1  0  0  0
 25 28  1  0  0  0  0
 25 30  1  0  0  0  0
 28 24  1  0  0  0  0
 29 30  1  0  0  0  0
 29 26  1  1  0  0  0
 29 31  1  0  0  0  0
 30  5  1  1  0  0  0
M  END
>  <MODEL>
6

>  <REMARK>
 VINA RESULT:     -10.3      3.519      5.004
  Name = 
  1 active torsions:
  status: ('A' for Active; 'I' for Inactive)
    1  A    between atoms: C_5  and  C_30
                            x       y       z     vdW  Elec       q    Type
                         _______ _______ _______ _____ _____    ______ ____

>  <TORSDO>
F 1

$$$$
=
 OpenBabel11122411073D

 31 35  0  0  1  0  0  0  0  0999 V2000
  186.5720  178.0930  147.3140 C   0  0  0  0  0  0  0  0  0  0  0  0
  187.4310  177.7800  143.6290 C   0  0  0  0  0  0  0  0  0  0  0  0
  188.7830  177.3930  143.4900 C   0  0  0  0  0  0  0  0  0  0  0  0
  182.6640  179.3760  142.0250 O   0  0  0  0  0  0  0  0  0  0  0  0
  183.2410  178.7680  141.0990 C   0  0  0  0  0  0  0  0  0  0  0  0
  190.9350  176.7500  144.3960 C   0  0  0  0  0  0  0  0  0  0  0  0
  186.7040  177.9610  144.8660 C   0  0  0  0  0  0  0  0  0  0  0  0
  185.2130  178.3720  147.2230 C   0  0  0  0  0  3  0  0  0  0  0  0
  189.6380  177.2310  144.5910 C   0  0  0  0  0  3  0  0  0  0  0  0
  185.3550  178.2200  142.4420 C   0  0  0  0  0  0  0  0  0  0  0  0
  187.1660  178.0500  148.5620 F   0  0  0  0  0  0  0  0  0  0  0  0
  188.6010  177.6070  141.1110 N   0  0  0  0  0  0  0  0  0  0  0  0
  192.0550  176.6180  145.7530 Cl  0  0  0  0  0  0  0  0  0  0  0  0
  184.6840  178.3670  143.6300 N   0  0  0  0  0  0  0  0  0  0  0  0
  186.7040  178.0040  142.4720 C   0  0  0  0  0  0  0  0  0  0  0  0
  184.6010  178.3170  141.2470 N   0  0  0  0  0  2  0  0  0  0  0  0
  187.2950  177.8880  146.1170 C   0  0  0  0  0  3  0  0  0  0  0  0
  191.4370  176.5650  143.1020 C   0  0  0  0  0  3  0  0  0  0  0  0
  185.3140  178.2580  144.8070 C   0  0  0  0  0  0  0  0  0  0  0  0
  184.5850  178.4140  145.9980 C   0  0  0  0  0  3  0  0  0  0  0  0
  187.3400  177.8710  141.2350 N   0  0  0  0  0  0  0  0  0  0  0  0
  189.3310  177.2020  142.1770 C   0  0  0  0  0  0  0  0  0  0  0  0
  190.6370  176.7650  141.9810 C   0  0  0  0  0  3  0  0  0  0  0  0
  184.0120  177.0130  137.7260 C   0  0  1  0  0  3  0  0  0  0  0  0
  181.9240  177.4840  139.2660 C   0  0  0  0  0  2  0  0  0  0  0  0
  184.1810  180.5030  139.0930 O   0  0  0  0  0  1  0  0  0  0  0  0
  185.0120  176.0290  137.8570 O   0  0  0  0  0  1  0  0  0  0  0  0
  182.8730  176.4590  138.6670 C   0  0  0  0  0  2  0  0  0  0  0  0
  183.5320  179.3490  138.6270 C   0  0  2  0  0  3  0  0  0  0  0  0
  182.6090  178.7650  139.7440 C   0  0  2  0  0  3  0  0  0  0  0  0
  184.6330  178.2850  138.2920 C   0  0  0  0  0  2  0  0  0  0  0  0
  1 11  1  0  0  0  0
  2  7  1  0  0  0  0
  3  2  1  0  0  0  0
  3  9  1  0  0  0  0
  5 16  1  0  0  0  0
  5  4  2  0  0  0  0
  6  9  2  0  0  0  0
  6 13  1  0  0  0  0
  7 17  1  0  0  0  0
  8  1  1  0  0  0  0
 10 15  1  0  0  0  0
 10 14  2  0  0  0  0
 12 21  2  0  0  0  0
 12 22  1  0  0  0  0
 14 19  1  0  0  0  0
 15  2  2  0  0  0  0
 16 10  1  0  0  0  0
 17  1  2  0  0  0  0
 18  6  1  0  0  0  0
 19  7  2  0  0  0  0
 19 20  1  0  0  0  0
 20  8  2  0  0  0  0
 21 15  1  0  0  0  0
 22  3  2  0  0  0  0
 23 22  1  0  0  0  0
 23 18  2  0  0  0  0
 24 27  1  1  0  0  0
 24 31  1  0  0  0  0
 24 28  1  0  0  0  0
 25 30  1  0  0  0  0
 28 25  1  0  0  0  0
 29 26  1  1  0  0  0
 29 30  1  0  0  0  0
 30  5  1  1  0  0  0
 31 29  1  0  0  0  0
M  END
>  <MODEL>
7

>  <REMARK>
 VINA RESULT:     -10.3      2.880      3.973
  Name = 
  1 active torsions:
  status: ('A' for Active; 'I' for Inactive)
    1  A    between atoms: C_5  and  C_30
                            x       y       z     vdW  Elec       q    Type
                         _______ _______ _______ _____ _____    ______ ____

>  <TORSDO>
F 1

$$$$
=
 OpenBabel11122411073D

 31 35  0  0  1  0  0  0  0  0999 V2000
  185.2040  178.2530  146.1190 C   0  0  0  0  0  0  0  0  0  0  0  0
  184.4770  178.5790  142.4070 C   0  0  0  0  0  0  0  0  0  0  0  0
  183.1000  178.8320  142.2150 C   0  0  0  0  0  0  0  0  0  0  0  0
  189.4460  177.5130  140.9850 O   0  0  0  0  0  0  0  0  0  0  0  0
  188.8510  178.0850  140.0480 C   0  0  0  0  0  0  0  0  0  0  0  0
  180.8570  179.2310  143.0360 C   0  0  0  0  0  0  0  0  0  0  0  0
  185.1650  178.4380  143.6710 C   0  0  0  0  0  0  0  0  0  0  0  0
  186.5860  178.1140  146.0840 C   0  0  0  0  0  3  0  0  0  0  0  0
  182.1870  178.8780  143.2790 C   0  0  0  0  0  3  0  0  0  0  0  0
  186.6360  178.3820  141.3060 C   0  0  0  0  0  0  0  0  0  0  0  0
  184.5550  178.2010  147.3390 F   0  0  0  0  0  0  0  0  0  0  0  0
  183.4050  178.7030  139.8420 N   0  0  0  0  0  0  0  0  0  0  0  0
  179.6710  179.2130  144.3430 Cl  0  0  0  0  0  0  0  0  0  0  0  0
  187.2670  178.2710  142.5190 N   0  0  0  0  0  0  0  0  0  0  0  0
  185.2720  178.4610  141.2790 C   0  0  0  0  0  0  0  0  0  0  0  0
  187.4460  178.3940  140.1440 N   0  0  0  0  0  2  0  0  0  0  0  0
  184.5160  178.4170  144.8950 C   0  0  0  0  0  3  0  0  0  0  0  0
  180.3950  179.4000  141.7250 C   0  0  0  0  0  3  0  0  0  0  0  0
  186.5790  178.2840  143.6680 C   0  0  0  0  0  0  0  0  0  0  0  0
  187.2680  178.1680  144.8870 C   0  0  0  0  0  3  0  0  0  0  0  0
  184.6790  178.5630  140.0170 N   0  0  0  0  0  0  0  0  0  0  0  0
  182.5920  179.0030  140.8830 C   0  0  0  0  0  0  0  0  0  0  0  0
  181.2580  179.3120  140.6380 C   0  0  0  0  0  3  0  0  0  0  0  0
  188.0490  176.8720  136.4510 C   0  0  1  0  0  3  0  0  0  0  0  0
  188.8990  179.0650  137.6440 C   0  0  0  0  0  2  0  0  0  0  0  0
  190.5120  176.0030  139.1440 O   0  0  0  0  0  1  0  0  0  0  0  0
  186.7380  176.3680  136.3420 O   0  0  0  0  0  1  0  0  0  0  0  0
  187.7960  178.3760  136.8560 C   0  0  0  0  0  2  0  0  0  0  0  0
  189.9620  176.8070  138.1340 C   0  0  2  0  0  3  0  0  0  0  0  0
  189.5360  178.1890  138.7230 C   0  0  2  0  0  3  0  0  0  0  0  0
  188.6800  176.0850  137.5930 C   0  0  0  0  0  2  0  0  0  0  0  0
  1 11  1  0  0  0  0
  2  7  1  0  0  0  0
  3  2  1  0  0  0  0
  3  9  1  0  0  0  0
  5 16  1  0  0  0  0
  5  4  2  0  0  0  0
  6  9  2  0  0  0  0
  6 13  1  0  0  0  0
  7 17  1  0  0  0  0
  8  1  1  0  0  0  0
 10 14  2  0  0  0  0
 12 21  2  0  0  0  0
 12 22  1  0  0  0  0
 14 19  1  0  0  0  0
 15 10  1  0  0  0  0
 15  2  2  0  0  0  0
 16 10  1  0  0  0  0
 17  1  2  0  0  0  0
 18  6  1  0  0  0  0
 19  7  2  0  0  0  0
 19 20  1  0  0  0  0
 20  8  2  0  0  0  0
 21 15  1  0  0  0  0
 22  3  2  0  0  0  0
 23 22  1  0  0  0  0
 23 18  2  0  0  0  0
 24 27  1  1  0  0  0
 24 28  1  0  0  0  0
 24 31  1  0  0  0  0
 25 30  1  0  0  0  0
 28 25  1  0  0  0  0
 29 30  1  0  0  0  0
 29 26  1  1  0  0  0
 30  5  1  1  0  0  0
 31 29  1  0  0  0  0
M  END
>  <MODEL>
8

>  <REMARK>
 VINA RESULT:     -10.1      2.568      5.122
  Name = 
  1 active torsions:
  status: ('A' for Active; 'I' for Inactive)
    1  A    between atoms: C_5  and  C_30
                            x       y       z     vdW  Elec       q    Type
                         _______ _______ _______ _____ _____    ______ ____

>  <TORSDO>
F 1

$$$$
=
 OpenBabel11122411073D

 31 35  0  0  1  0  0  0  0  0999 V2000
  191.4330  176.9550  144.4850 C   0  0  0  0  0  0  0  0  0  0  0  0
  187.8140  177.8200  143.7290 C   0  0  0  0  0  0  0  0  0  0  0  0
  187.1150  178.0250  144.9400 C   0  0  0  0  0  0  0  0  0  0  0  0
  188.4040  177.2600  138.5160 O   0  0  0  0  0  0  0  0  0  0  0  0
  187.3840  177.9390  138.7560 C   0  0  0  0  0  0  0  0  0  0  0  0
  187.0010  178.1690  147.3550 C   0  0  0  0  0  0  0  0  0  0  0  0
  189.2210  177.5200  143.5820 C   0  0  0  0  0  0  0  0  0  0  0  0
  191.9430  176.8980  143.1930 C   0  0  0  0  0  3  0  0  0  0  0  0
  187.7160  177.8540  146.1960 C   0  0  0  0  0  3  0  0  0  0  0  0
  187.6650  177.9150  141.3040 C   0  0  0  0  0  0  0  0  0  0  0  0
  192.2710  176.6780  145.5490 F   0  0  0  0  0  0  0  0  0  0  0  0
  185.0710  178.2870  143.7170 N   0  0  0  0  0  0  0  0  0  0  0  0
  187.7050  177.8820  148.9480 Cl  0  0  0  0  0  0  0  0  0  0  0  0
  189.0060  177.6490  141.1920 N   0  0  0  0  0  0  0  0  0  0  0  0
  187.0990  177.9230  142.5480 C   0  0  0  0  0  0  0  0  0  0  0  0
  186.9410  178.1530  140.1110 N   0  0  0  0  0  2  0  0  0  0  0  0
  190.0660  177.2720  144.6510 C   0  0  0  0  0  3  0  0  0  0  0  0
  185.6470  178.5170  147.2820 C   0  0  0  0  0  3  0  0  0  0  0  0
  189.7710  177.4440  142.2710 C   0  0  0  0  0  0  0  0  0  0  0  0
  191.1410  177.1760  142.1080 C   0  0  0  0  0  3  0  0  0  0  0  0
  185.7280  178.1910  142.6070 N   0  0  0  0  0  0  0  0  0  0  0  0
  185.7230  178.3750  144.9010 C   0  0  0  0  0  0  0  0  0  0  0  0
  185.0000  178.6470  146.0570 C   0  0  0  0  0  3  0  0  0  0  0  0
  184.3120  176.2460  137.0980 C   0  0  1  0  0  3  0  0  0  0  0  0
  185.0200  178.6410  137.9430 C   0  0  0  0  0  2  0  0  0  0  0  0
  187.8830  176.9340  136.1760 O   0  0  0  0  0  1  0  0  0  0  0  0
  183.8520  175.1390  137.8400 O   0  0  0  0  0  1  0  0  0  0  0  0
  184.1100  177.4360  138.1150 C   0  0  0  0  0  2  0  0  0  0  0  0
  186.5460  177.2770  136.4340 C   0  0  2  0  0  3  0  0  0  0  0  0
  186.4730  178.2860  137.6220 C   0  0  2  0  0  3  0  0  0  0  0  0
  185.7900  175.9680  136.8510 C   0  0  0  0  0  2  0  0  0  0  0  0
  1 17  1  0  0  0  0
  1 11  1  0  0  0  0
  2  3  1  0  0  0  0
  3  9  1  0  0  0  0
  4  5  2  0  0  0  0
  5 16  1  0  0  0  0
  6 13  1  0  0  0  0
  7  2  1  0  0  0  0
  7 17  2  0  0  0  0
  8  1  2  0  0  0  0
  9  6  2  0  0  0  0
 10 15  1  0  0  0  0
 12 22  1  0  0  0  0
 14 10  2  0  0  0  0
 14 19  1  0  0  0  0
 15 21  1  0  0  0  0
 15  2  2  0  0  0  0
 16 10  1  0  0  0  0
 18  6  1  0  0  0  0
 19  7  1  0  0  0  0
 20 19  2  0  0  0  0
 20  8  1  0  0  0  0
 21 12  2  0  0  0  0
 22  3  2  0  0  0  0
 22 23  1  0  0  0  0
 23 18  2  0  0  0  0
 24 27  1  1  0  0  0
 24 28  1  0  0  0  0
 25 28  1  0  0  0  0
 29 26  1  1  0  0  0
 29 31  1  0  0  0  0
 29 30  1  0  0  0  0
 30 25  1  0  0  0  0
 30  5  1  1  0  0  0
 31 24  1  0  0  0  0
M  END
>  <MODEL>
9

>  <REMARK>
 VINA RESULT:     -10.0      2.511      4.542
  Name = 
  1 active torsions:
  status: ('A' for Active; 'I' for Inactive)
    1  A    between atoms: C_5  and  C_30
                            x       y       z     vdW  Elec       q    Type
                         _______ _______ _______ _____ _____    ______ ____

>  <TORSDO>
F 1

$$$$
