=
 OpenBabel11122410233D

 30 35  0  0  1  0  0  0  0  0999 V2000
  189.2440  177.4500  143.4930 C   0  0  1  0  0  3  0  0  0  0  0  0
  191.2350  176.5000  144.7930 C   0  0  0  0  0  0  0  0  0  0  0  0
  187.0820  177.9260  147.2250 C   0  0  0  0  0  2  0  0  0  0  0  0
  187.9750  178.3150  143.6670 C   0  0  1  0  0  3  0  0  0  0  0  0
  190.0770  178.0360  142.5220 O   0  0  0  0  0  0  0  0  0  0  0  0
  187.5240  178.4980  140.0530 O   0  0  0  0  0  0  0  0  0  0  0  0
  184.8680  177.9760  142.8190 C   0  0  1  0  0  3  0  0  0  0  0  0
  188.0450  178.2650  141.1780 C   0  0  0  0  0  0  0  0  0  0  0  0
  184.6710  177.9640  144.3330 C   0  0  2  0  0  3  0  0  0  0  0  0
  185.8120  178.3040  146.5540 C   0  0  0  0  0  0  0  0  0  0  0  0
  189.4890  177.8250  141.2470 C   0  0  2  0  0  3  0  0  0  0  0  0
  187.2670  178.3860  142.3840 N   0  0  0  0  0  0  0  0  0  0  0  0
  191.8290  176.1270  145.9990 C   0  0  0  0  0  3  0  0  0  0  0  0
  183.5410  178.9390  144.5940 C   0  0  0  0  0  2  0  0  0  0  0  0
  183.5100  178.3360  142.2360 C   0  0  0  0  0  2  0  0  0  0  0  0
  191.9000  176.2330  143.6020 O   0  0  0  0  0  1  0  0  0  0  0  0
  188.0160  178.0340  146.0450 C   0  0  2  0  0  3  0  0  0  0  0  0
  191.1600  176.3650  147.2010 C   0  0  0  0  0  3  0  0  0  0  0  0
  189.9780  177.1290  144.7940 C   0  0  0  0  0  0  0  0  0  0  0  0
  187.1820  177.7070  144.8210 C   0  0  1  0  0  3  0  0  0  0  0  0
  184.7620  178.5690  147.1940 O   0  0  0  0  0  0  0  0  0  0  0  0
  185.8720  178.2750  145.1210 N   0  0  0  0  0  0  0  0  0  0  0  0
  182.6380  178.8180  143.3860 C   0  0  0  0  0  2  0  0  0  0  0  0
  185.8520  180.3680  142.8410 C   0  0  0  0  0  1  0  0  0  0  0  0
  189.9320  176.9460  147.1960 N   0  0  0  0  0  0  0  0  0  0  0  0
  189.3180  177.3000  146.0340 C   0  0  0  0  0  0  0  0  0  0  0  0
  185.9240  178.9490  142.2840 C   0  0  2  0  0  3  0  0  0  0  0  0
  189.6510  176.3820  140.7770 C   0  0  0  0  0  2  0  0  0  0  0  0
  190.0320  176.3810  138.6050 C   0  0  0  0  0  1  0  0  0  0  0  0
  190.6780  176.3020  139.8380 O   0  0  0  0  0  0  0  0  0  0  0  0
  1  5  1  6  0  0  0
  1  4  1  0  0  0  0
  1 19  1  0  0  0  0
  2 19  2  0  0  0  0
  2 13  1  0  0  0  0
  4 12  1  6  0  0  0
  4 20  1  0  0  0  0
  6  8  2  0  0  0  0
  7 15  1  6  0  0  0
  7  9  1  0  0  0  0
  8 11  1  0  0  0  0
  8 12  1  0  0  0  0
  9 14  1  6  0  0  0
  9 22  1  0  0  0  0
 10 21  2  0  0  0  0
 10  3  1  0  0  0  0
 11 28  1  1  0  0  0
 11  5  1  0  0  0  0
 13 18  2  0  0  0  0
 15 23  1  0  0  0  0
 16  2  1  0  0  0  0
 17  3  1  1  0  0  0
 19 26  1  0  0  0  0
 20 22  1  1  0  0  0
 20 17  1  0  0  0  0
 22 10  1  0  0  0  0
 23 14  1  0  0  0  0
 25 18  1  0  0  0  0
 26 17  1  0  0  0  0
 26 25  2  0  0  0  0
 27 12  1  0  0  0  0
 27  7  1  0  0  0  0
 27 24  1  1  0  0  0
 29 30  1  0  0  0  0
 30 28  1  0  0  0  0
M  END
>  <MODEL>
1

>  <REMARK>
 VINA RESULT:      -9.1      0.000      0.000
  Name = 
  2 active torsions:
  status: ('A' for Active; 'I' for Inactive)
    1  A    between atoms: C_11  and  C_28
    2  A    between atoms: C_28  and  O_30
                            x       y       z     vdW  Elec       q    Type
                         _______ _______ _______ _____ _____    ______ ____

>  <TORSDO>
F 2

$$$$
=
 OpenBabel11122410233D

 30 35  0  0  1  0  0  0  0  0999 V2000
  187.2640  178.1950  140.5040 C   0  0  1  0  0  3  0  0  0  0  0  0
  184.9720  178.9650  139.6620 C   0  0  0  0  0  0  0  0  0  0  0  0
  185.6680  177.9740  144.5330 C   0  0  0  0  0  2  0  0  0  0  0  0
  187.9470  177.4580  141.6790 C   0  0  1  0  0  3  0  0  0  0  0  0
  187.5490  177.5200  139.3030 O   0  0  0  0  0  0  0  0  0  0  0  0
  191.0840  177.2760  139.8270 O   0  0  0  0  0  0  0  0  0  0  0  0
  190.5030  178.0840  143.5680 C   0  0  1  0  0  3  0  0  0  0  0  0
  189.8660  177.4710  140.0910 C   0  0  0  0  0  0  0  0  0  0  0  0
  189.4280  178.1330  144.6510 C   0  0  2  0  0  3  0  0  0  0  0  0
  186.9940  177.7120  145.1480 C   0  0  0  0  0  0  0  0  0  0  0  0
  188.9050  177.7710  138.9630 C   0  0  2  0  0  3  0  0  0  0  0  0
  189.3970  177.4400  141.4520 N   0  0  0  0  0  0  0  0  0  0  0  0
  183.6390  179.2940  139.9060 C   0  0  0  0  0  3  0  0  0  0  0  0
  189.9630  177.2740  145.7790 C   0  0  0  0  0  2  0  0  0  0  0  0
  191.8120  177.8490  144.3050 C   0  0  0  0  0  2  0  0  0  0  0  0
  185.4920  179.1520  138.3860 O   0  0  0  0  0  1  0  0  0  0  0  0
  186.0320  177.7640  143.0850 C   0  0  2  0  0  3  0  0  0  0  0  0
  183.1120  179.1370  141.1890 C   0  0  0  0  0  3  0  0  0  0  0  0
  185.7730  178.4610  140.7020 C   0  0  0  0  0  0  0  0  0  0  0  0
  187.4930  178.1540  142.9600 C   0  0  1  0  0  3  0  0  0  0  0  0
  187.1460  177.5580  146.3880 O   0  0  0  0  0  0  0  0  0  0  0  0
  188.0870  177.7180  144.2190 N   0  0  0  0  0  0  0  0  0  0  0  0
  191.4630  177.4670  145.7350 C   0  0  0  0  0  2  0  0  0  0  0  0
  190.0010  175.6080  143.0080 C   0  0  0  0  0  1  0  0  0  0  0  0
  183.8970  178.6760  142.1980 N   0  0  0  0  0  0  0  0  0  0  0  0
  185.2070  178.3680  141.9950 C   0  0  0  0  0  0  0  0  0  0  0  0
  190.3260  177.0070  142.4920 C   0  0  2  0  0  3  0  0  0  0  0  0
  189.1050  179.1860  138.4270 C   0  0  0  0  0  2  0  0  0  0  0  0
  189.1540  178.2390  136.4370 C   0  0  0  0  0  1  0  0  0  0  0  0
  188.5680  179.2870  137.1450 O   0  0  0  0  0  0  0  0  0  0  0  0
  1  5  1  6  0  0  0
  1 19  1  0  0  0  0
  1  4  1  0  0  0  0
  2 13  2  0  0  0  0
  2 19  1  0  0  0  0
  3 10  1  0  0  0  0
  4 12  1  6  0  0  0
  4 20  1  0  0  0  0
  6  8  2  0  0  0  0
  7 15  1  1  0  0  0
  7  9  1  0  0  0  0
  8 12  1  0  0  0  0
  9 14  1  1  0  0  0
 10 21  2  0  0  0  0
 11 28  1  1  0  0  0
 11  5  1  0  0  0  0
 11  8  1  0  0  0  0
 12 27  1  0  0  0  0
 13 18  1  0  0  0  0
 15 23  1  0  0  0  0
 16  2  1  0  0  0  0
 17  3  1  1  0  0  0
 18 25  2  0  0  0  0
 19 26  2  0  0  0  0
 20 17  1  0  0  0  0
 20 22  1  1  0  0  0
 22  9  1  0  0  0  0
 22 10  1  0  0  0  0
 23 14  1  0  0  0  0
 26 25  1  0  0  0  0
 26 17  1  0  0  0  0
 27 24  1  1  0  0  0
 27  7  1  0  0  0  0
 29 30  1  0  0  0  0
 30 28  1  0  0  0  0
M  END
>  <MODEL>
2

>  <REMARK>
 VINA RESULT:      -9.0      1.933      5.718
  Name = 
  2 active torsions:
  status: ('A' for Active; 'I' for Inactive)
    1  A    between atoms: C_11  and  C_28
    2  A    between atoms: C_28  and  O_30
                            x       y       z     vdW  Elec       q    Type
                         _______ _______ _______ _____ _____    ______ ____

>  <TORSDO>
F 2

$$$$
=
 OpenBabel11122410233D

 30 35  0  0  1  0  0  0  0  0999 V2000
  186.2840  178.3620  142.6890 C   0  0  1  0  0  3  0  0  0  0  0  0
  186.8610  178.2260  145.1800 C   0  0  0  0  0  0  0  0  0  0  0  0
  182.0980  178.8460  143.7240 C   0  0  0  0  0  2  0  0  0  0  0  0
  185.1930  178.8620  141.7160 C   0  0  1  0  0  3  0  0  0  0  0  0
  187.5070  178.9830  142.3750 O   0  0  0  0  0  0  0  0  0  0  0  0
  187.3900  178.3060  138.8590 O   0  0  0  0  0  0  0  0  0  0  0  0
  183.6110  177.5480  139.2130 C   0  0  1  0  0  3  0  0  0  0  0  0
  186.9900  178.4170  140.0510 C   0  0  0  0  0  0  0  0  0  0  0  0
  182.4120  177.7360  140.1400 C   0  0  2  0  0  3  0  0  0  0  0  0
  181.6380  178.7430  142.3160 C   0  0  0  0  0  0  0  0  0  0  0  0
  188.0010  178.4080  141.1740 C   0  0  2  0  0  3  0  0  0  0  0  0
  185.5840  178.5210  140.3440 N   0  0  0  0  0  0  0  0  0  0  0  0
  186.4670  178.2380  146.5180 C   0  0  0  0  0  3  0  0  0  0  0  0
  181.3500  178.3930  139.2830 C   0  0  0  0  0  2  0  0  0  0  0  0
  183.0280  177.4180  137.8150 C   0  0  0  0  0  2  0  0  0  0  0  0
  188.1890  177.9560  144.8690 O   0  0  0  0  0  1  0  0  0  0  0  0
  183.5780  179.0050  143.4790 C   0  0  2  0  0  3  0  0  0  0  0  0
  185.1320  178.4810  146.8430 C   0  0  0  0  0  3  0  0  0  0  0  0
  185.9180  178.4770  144.1680 C   0  0  0  0  0  0  0  0  0  0  0  0
  183.8710  178.2620  142.1900 C   0  0  1  0  0  3  0  0  0  0  0  0
  180.4230  178.8130  141.9950 O   0  0  0  0  0  0  0  0  0  0  0  0
  182.6860  178.4920  141.3700 N   0  0  0  0  0  0  0  0  0  0  0  0
  181.5660  177.8280  137.8960 C   0  0  0  0  0  2  0  0  0  0  0  0
  184.1000  180.0860  139.1250 C   0  0  0  0  0  1  0  0  0  0  0  0
  184.2180  178.6940  145.8610 N   0  0  0  0  0  0  0  0  0  0  0  0
  184.5680  178.6660  144.5460 C   0  0  0  0  0  0  0  0  0  0  0  0
  184.6560  178.6690  139.2270 C   0  0  2  0  0  3  0  0  0  0  0  0
  188.5630  177.0070  141.4020 C   0  0  0  0  0  2  0  0  0  0  0  0
  190.0820  176.0010  142.6420 C   0  0  0  0  0  1  0  0  0  0  0  0
  189.8980  177.0890  141.7910 O   0  0  0  0  0  0  0  0  0  0  0  0
  1  5  1  1  0  0  0
  1 19  1  0  0  0  0
  2 13  1  0  0  0  0
  4 12  1  6  0  0  0
  4 20  1  0  0  0  0
  4  1  1  0  0  0  0
  6  8  2  0  0  0  0
  7 15  1  6  0  0  0
  7 27  1  0  0  0  0
  7  9  1  0  0  0  0
  8 12  1  0  0  0  0
  8 11  1  0  0  0  0
  9 14  1  6  0  0  0
  9 22  1  0  0  0  0
 10  3  1  0  0  0  0
 11 28  1  1  0  0  0
 11  5  1  0  0  0  0
 13 18  2  0  0  0  0
 15 23  1  0  0  0  0
 16  2  1  0  0  0  0
 17  3  1  1  0  0  0
 17 26  1  0  0  0  0
 19 26  1  0  0  0  0
 19  2  2  0  0  0  0
 20 22  1  6  0  0  0
 20 17  1  0  0  0  0
 21 10  2  0  0  0  0
 22 10  1  0  0  0  0
 23 14  1  0  0  0  0
 25 18  1  0  0  0  0
 26 25  2  0  0  0  0
 27 24  1  1  0  0  0
 27 12  1  0  0  0  0
 28 30  1  0  0  0  0
 30 29  1  0  0  0  0
M  END
>  <MODEL>
3

>  <REMARK>
 VINA RESULT:      -8.6      2.638      4.491
  Name = 
  2 active torsions:
  status: ('A' for Active; 'I' for Inactive)
    1  A    between atoms: C_11  and  C_28
    2  A    between atoms: C_28  and  O_30
                            x       y       z     vdW  Elec       q    Type
                         _______ _______ _______ _____ _____    ______ ____

>  <TORSDO>
F 2

$$$$
=
 OpenBabel11122410233D

 30 35  0  0  1  0  0  0  0  0999 V2000
  188.1230  177.8100  142.3720 C   0  0  1  0  0  3  0  0  0  0  0  0
  186.9480  177.9920  144.6400 C   0  0  0  0  0  0  0  0  0  0  0  0
  184.4360  178.9870  140.4100 C   0  0  0  0  0  2  0  0  0  0  0  0
  188.0240  178.2890  140.9060 C   0  0  1  0  0  3  0  0  0  0  0  0
  189.3600  178.2110  142.9100 O   0  0  0  0  0  0  0  0  0  0  0  0
  191.3660  177.0140  140.1950 O   0  0  0  0  0  0  0  0  0  0  0  0
  188.1670  176.8150  138.0250 C   0  0  1  0  0  3  0  0  0  0  0  0
  190.3340  177.3610  140.8320 C   0  0  0  0  0  0  0  0  0  0  0  0
  186.7210  177.2990  137.9390 C   0  0  2  0  0  3  0  0  0  0  0  0
  184.9640  178.7260  139.0460 C   0  0  0  0  0  0  0  0  0  0  0  0
  190.3750  177.3960  142.3430 C   0  0  2  0  0  3  0  0  0  0  0  0
  189.1180  177.6900  140.1330 N   0  0  0  0  0  0  0  0  0  0  0  0
  185.8070  178.2640  145.3960 C   0  0  0  0  0  3  0  0  0  0  0  0
  186.6020  177.9460  136.5740 C   0  0  0  0  0  2  0  0  0  0  0  0
  188.5920  176.5450  136.5910 C   0  0  0  0  0  2  0  0  0  0  0  0
  188.0830  177.5080  145.2790 O   0  0  0  0  0  1  0  0  0  0  0  0
  185.7290  178.9140  141.1830 C   0  0  2  0  0  3  0  0  0  0  0  0
  184.6520  178.7260  144.7630 C   0  0  0  0  0  3  0  0  0  0  0  0
  186.9350  178.2020  143.2500 C   0  0  0  0  0  0  0  0  0  0  0  0
  186.6160  177.9470  140.4240 C   0  0  1  0  0  3  0  0  0  0  0  0
  184.2740  178.9010  138.0080 O   0  0  0  0  0  0  0  0  0  0  0  0
  186.2970  178.1960  139.0220 N   0  0  0  0  0  0  0  0  0  0  0  0
  187.5300  177.1480  135.6840 C   0  0  0  0  0  2  0  0  0  0  0  0
  189.0950  179.2240  138.1880 C   0  0  0  0  0  1  0  0  0  0  0  0
  184.6350  178.8990  143.4160 N   0  0  0  0  0  0  0  0  0  0  0  0
  185.7240  178.6210  142.6490 C   0  0  0  0  0  0  0  0  0  0  0  0
  189.1630  177.7800  138.6770 C   0  0  2  0  0  3  0  0  0  0  0  0
  190.3700  175.9880  142.9300 C   0  0  0  0  0  2  0  0  0  0  0  0
  191.4890  176.3660  144.7910 C   0  0  0  0  0  1  0  0  0  0  0  0
  191.5890  175.7310  143.5550 O   0  0  0  0  0  0  0  0  0  0  0  0
  1  5  1  1  0  0  0
  1 19  1  0  0  0  0
  2 16  1  0  0  0  0
  2 13  1  0  0  0  0
  4 12  1  6  0  0  0
  4  1  1  0  0  0  0
  6  8  2  0  0  0  0
  7 15  1  6  0  0  0
  7 27  1  0  0  0  0
  8 11  1  0  0  0  0
  9 14  1  6  0  0  0
  9  7  1  0  0  0  0
  9 22  1  0  0  0  0
 10  3  1  0  0  0  0
 11  5  1  0  0  0  0
 11 28  1  1  0  0  0
 12  8  1  0  0  0  0
 17  3  1  6  0  0  0
 17 26  1  0  0  0  0
 18 13  2  0  0  0  0
 19  2  2  0  0  0  0
 20 22  1  6  0  0  0
 20  4  1  0  0  0  0
 20 17  1  0  0  0  0
 21 10  2  0  0  0  0
 22 10  1  0  0  0  0
 23 14  1  0  0  0  0
 23 15  1  0  0  0  0
 25 18  1  0  0  0  0
 26 19  1  0  0  0  0
 26 25  2  0  0  0  0
 27 24  1  1  0  0  0
 27 12  1  0  0  0  0
 28 30  1  0  0  0  0
 30 29  1  0  0  0  0
M  END
>  <MODEL>
4

>  <REMARK>
 VINA RESULT:      -8.1      2.278      5.685
  Name = 
  2 active torsions:
  status: ('A' for Active; 'I' for Inactive)
    1  A    between atoms: C_11  and  C_28
    2  A    between atoms: C_28  and  O_30
                            x       y       z     vdW  Elec       q    Type
                         _______ _______ _______ _____ _____    ______ ____

>  <TORSDO>
F 2

$$$$
=
 OpenBabel11122410233D

 30 35  0  0  1  0  0  0  0  0999 V2000
  186.9520  178.0190  140.0570 C   0  0  1  0  0  3  0  0  0  0  0  0
  188.7010  177.1750  138.3880 C   0  0  0  0  0  0  0  0  0  0  0  0
  189.8490  177.5870  143.2570 C   0  0  0  0  0  2  0  0  0  0  0  0
  186.8100  178.6530  141.4590 C   0  0  1  0  0  3  0  0  0  0  0  0
  186.3570  178.8640  139.1010 O   0  0  0  0  0  0  0  0  0  0  0  0
  183.2760  179.3330  140.8680 O   0  0  0  0  0  0  0  0  0  0  0  0
  185.0030  178.0060  144.0680 C   0  0  1  0  0  3  0  0  0  0  0  0
  184.4770  179.0050  140.6620 C   0  0  0  0  0  0  0  0  0  0  0  0
  186.3700  177.7290  144.6890 C   0  0  2  0  0  3  0  0  0  0  0  0
  188.8590  177.8780  144.3250 C   0  0  0  0  0  0  0  0  0  0  0  0
  184.9470  178.7720  139.2450 C   0  0  2  0  0  3  0  0  0  0  0  0
  185.3850  178.8220  141.7650 N   0  0  0  0  0  0  0  0  0  0  0  0
  189.9860  176.7070  138.1120 C   0  0  0  0  0  3  0  0  0  0  0  0
  186.3660  178.4770  146.0060 C   0  0  0  0  0  2  0  0  0  0  0  0
  184.0670  178.2530  145.2400 C   0  0  0  0  0  2  0  0  0  0  0  0
  187.7560  177.1970  137.3700 O   0  0  0  0  0  1  0  0  0  0  0  0
  189.0390  178.0120  142.0590 C   0  0  2  0  0  3  0  0  0  0  0  0
  190.9370  176.6550  139.1320 C   0  0  0  0  0  3  0  0  0  0  0  0
  188.3750  177.6070  139.6860 C   0  0  0  0  0  0  0  0  0  0  0  0
  187.5880  177.7640  142.4260 C   0  0  1  0  0  3  0  0  0  0  0  0
  189.1630  177.8840  145.5460 O   0  0  0  0  0  0  0  0  0  0  0  0
  187.5220  178.0830  143.8480 N   0  0  0  0  0  0  0  0  0  0  0  0
  184.9310  178.4170  146.4810 C   0  0  0  0  0  2  0  0  0  0  0  0
  185.5830  180.4820  143.5930 C   0  0  0  0  0  1  0  0  0  0  0  0
  190.6090  177.0460  140.3910 N   0  0  0  0  0  0  0  0  0  0  0  0
  189.3580  177.4850  140.6960 C   0  0  0  0  0  0  0  0  0  0  0  0
  184.9310  179.1930  143.1020 C   0  0  2  0  0  3  0  0  0  0  0  0
  184.4020  177.4600  138.6890 C   0  0  0  0  0  2  0  0  0  0  0  0
  184.2870  177.1180  136.5140 C   0  0  0  0  0  1  0  0  0  0  0  0
  183.6040  177.7120  137.5740 O   0  0  0  0  0  0  0  0  0  0  0  0
  1  5  1  6  0  0  0
  1  4  1  0  0  0  0
  2 19  1  0  0  0  0
  3 10  1  0  0  0  0
  4 12  1  1  0  0  0
  4 20  1  0  0  0  0
  5 11  1  0  0  0  0
  7  9  1  0  0  0  0
  7 15  1  1  0  0  0
  8  6  2  0  0  0  0
  8 12  1  0  0  0  0
  9 14  1  1  0  0  0
 10 21  2  0  0  0  0
 11 28  1  1  0  0  0
 11  8  1  0  0  0  0
 12 27  1  0  0  0  0
 13  2  2  0  0  0  0
 13 18  1  0  0  0  0
 14 23  1  0  0  0  0
 15 23  1  0  0  0  0
 16  2  1  0  0  0  0
 17 20  1  0  0  0  0
 17  3  1  1  0  0  0
 18 25  2  0  0  0  0
 19  1  1  0  0  0  0
 19 26  2  0  0  0  0
 20 22  1  1  0  0  0
 22 10  1  0  0  0  0
 22  9  1  0  0  0  0
 25 26  1  0  0  0  0
 26 17  1  0  0  0  0
 27 24  1  1  0  0  0
 27  7  1  0  0  0  0
 29 30  1  0  0  0  0
 30 28  1  0  0  0  0
M  END
>  <MODEL>
5

>  <REMARK>
 VINA RESULT:      -7.5      2.384      4.866
  Name = 
  2 active torsions:
  status: ('A' for Active; 'I' for Inactive)
    1  A    between atoms: C_11  and  C_28
    2  A    between atoms: C_28  and  O_30
                            x       y       z     vdW  Elec       q    Type
                         _______ _______ _______ _____ _____    ______ ____

>  <TORSDO>
F 2

$$$$
=
 OpenBabel11122410233D

 30 35  0  0  1  0  0  0  0  0999 V2000
  185.7820  178.4560  141.0780 C   0  0  1  0  0  3  0  0  0  0  0  0
  184.1990  178.8630  143.0480 C   0  0  0  0  0  0  0  0  0  0  0  0
  182.3560  178.1730  138.4310 C   0  0  0  0  0  2  0  0  0  0  0  0
  185.8560  178.5370  139.5360 C   0  0  1  0  0  3  0  0  0  0  0  0
  186.7860  179.2700  141.6350 O   0  0  0  0  0  0  0  0  0  0  0  0
  189.4650  178.0130  139.6150 O   0  0  0  0  0  0  0  0  0  0  0  0
  186.8350  176.5120  137.2040 C   0  0  1  0  0  3  0  0  0  0  0  0
  188.2830  178.2290  140.0020 C   0  0  0  0  0  0  0  0  0  0  0  0
  185.3610  176.5830  136.8120 C   0  0  2  0  0  3  0  0  0  0  0  0
  183.1690  177.7400  137.2650 C   0  0  0  0  0  0  0  0  0  0  0  0
  188.0380  178.6270  141.4390 C   0  0  2  0  0  3  0  0  0  0  0  0
  187.1750  178.0680  139.0960 N   0  0  0  0  0  0  0  0  0  0  0  0
  182.9070  179.0090  143.5560 C   0  0  0  0  0  3  0  0  0  0  0  0
  185.3610  176.8400  135.3190 C   0  0  0  0  0  2  0  0  0  0  0  0
  187.5640  176.0290  135.9610 C   0  0  0  0  0  2  0  0  0  0  0  0
  185.2730  178.8440  143.9300 O   0  0  0  0  0  1  0  0  0  0  0  0
  183.4700  178.6110  139.3480 C   0  0  2  0  0  3  0  0  0  0  0  0
  181.8180  179.0030  142.6840 C   0  0  0  0  0  3  0  0  0  0  0  0
  184.3980  178.7300  141.6630 C   0  0  0  0  0  0  0  0  0  0  0  0
  184.6660  177.7480  138.9950 C   0  0  1  0  0  3  0  0  0  0  0  0
  182.6600  177.4870  136.1420 O   0  0  0  0  0  0  0  0  0  0  0  0
  184.5650  177.5730  137.5500 N   0  0  0  0  0  0  0  0  0  0  0  0
  186.5840  176.1150  134.8010 C   0  0  0  0  0  2  0  0  0  0  0  0
  187.1870  179.0460  136.8200 C   0  0  0  0  0  1  0  0  0  0  0  0
  182.0130  178.8450  141.3480 N   0  0  0  0  0  0  0  0  0  0  0  0
  183.2580  178.6780  140.8270 C   0  0  0  0  0  0  0  0  0  0  0  0
  187.4670  177.8220  137.6870 C   0  0  2  0  0  3  0  0  0  0  0  0
  188.2220  177.4410  142.3820 C   0  0  0  0  0  2  0  0  0  0  0  0
  188.3350  177.0960  144.5570 C   0  0  0  0  0  1  0  0  0  0  0  0
  188.9020  177.8490  143.5290 O   0  0  0  0  0  0  0  0  0  0  0  0
  1  5  1  1  0  0  0
  1 19  1  0  0  0  0
  2 13  1  0  0  0  0
  2 16  1  0  0  0  0
  4 12  1  6  0  0  0
  4  1  1  0  0  0  0
  6  8  2  0  0  0  0
  7 15  1  6  0  0  0
  7 27  1  0  0  0  0
  8 11  1  0  0  0  0
  9 14  1  6  0  0  0
  9  7  1  0  0  0  0
  9 22  1  0  0  0  0
 10 22  1  0  0  0  0
 10  3  1  0  0  0  0
 11  5  1  0  0  0  0
 11 28  1  1  0  0  0
 12  8  1  0  0  0  0
 17  3  1  6  0  0  0
 17 26  1  0  0  0  0
 18 13  2  0  0  0  0
 19  2  2  0  0  0  0
 20 22  1  6  0  0  0
 20 17  1  0  0  0  0
 20  4  1  0  0  0  0
 21 10  2  0  0  0  0
 23 14  1  0  0  0  0
 23 15  1  0  0  0  0
 25 18  1  0  0  0  0
 26 25  2  0  0  0  0
 26 19  1  0  0  0  0
 27 24  1  6  0  0  0
 27 12  1  0  0  0  0
 28 30  1  0  0  0  0
 30 29  1  0  0  0  0
M  END
>  <MODEL>
6

>  <REMARK>
 VINA RESULT:      -7.0      3.428      7.218
  Name = 
  2 active torsions:
  status: ('A' for Active; 'I' for Inactive)
    1  A    between atoms: C_11  and  C_28
    2  A    between atoms: C_28  and  O_30
                            x       y       z     vdW  Elec       q    Type
                         _______ _______ _______ _____ _____    ______ ____

>  <TORSDO>
F 2

$$$$
=
 OpenBabel11122410233D

 30 35  0  0  1  0  0  0  0  0999 V2000
  187.6160  177.9340  140.0790 C   0  0  1  0  0  3  0  0  0  0  0  0
  189.7260  177.5110  141.4660 C   0  0  0  0  0  0  0  0  0  0  0  0
  185.3780  178.5650  143.7410 C   0  0  0  0  0  2  0  0  0  0  0  0
  186.2210  178.5960  140.1510 C   0  0  1  0  0  3  0  0  0  0  0  0
  188.3490  178.5080  139.0230 O   0  0  0  0  0  0  0  0  0  0  0  0
  185.7730  178.1990  136.5530 O   0  0  0  0  0  0  0  0  0  0  0  0
  183.2170  177.6410  139.4060 C   0  0  1  0  0  3  0  0  0  0  0  0
  186.3170  178.2130  137.6920 C   0  0  0  0  0  0  0  0  0  0  0  0
  183.0150  177.8070  140.9100 C   0  0  2  0  0  3  0  0  0  0  0  0
  184.0680  178.6330  143.0450 C   0  0  0  0  0  0  0  0  0  0  0  0
  187.8130  178.0280  137.7980 C   0  0  2  0  0  3  0  0  0  0  0  0
  185.5200  178.3720  138.8810 N   0  0  0  0  0  0  0  0  0  0  0  0
  190.3640  177.4110  142.7030 C   0  0  0  0  0  3  0  0  0  0  0  0
  181.7380  178.6110  141.0510 C   0  0  0  0  0  2  0  0  0  0  0  0
  181.8230  177.6900  138.8000 C   0  0  0  0  0  2  0  0  0  0  0  0
  190.4340  177.1930  140.3130 O   0  0  0  0  0  1  0  0  0  0  0  0
  186.2890  178.6580  142.5440 C   0  0  2  0  0  3  0  0  0  0  0  0
  189.6560  177.7010  143.8710 C   0  0  0  0  0  3  0  0  0  0  0  0
  188.3820  177.9200  141.4000 C   0  0  0  0  0  0  0  0  0  0  0  0
  185.5290  178.0330  141.3900 C   0  0  1  0  0  3  0  0  0  0  0  0
  182.9830  178.8090  143.6580 O   0  0  0  0  0  0  0  0  0  0  0  0
  184.1420  178.4160  141.6290 N   0  0  0  0  0  0  0  0  0  0  0  0
  180.8760  178.1780  139.8860 C   0  0  0  0  0  2  0  0  0  0  0  0
  183.7970  180.1410  139.0820 C   0  0  0  0  0  1  0  0  0  0  0  0
  188.3500  178.0680  143.8040 N   0  0  0  0  0  0  0  0  0  0  0  0
  187.6950  178.1520  142.6150 C   0  0  0  0  0  0  0  0  0  0  0  0
  184.1040  178.6890  138.7260 C   0  0  2  0  0  3  0  0  0  0  0  0
  188.2120  176.5800  137.5300 C   0  0  0  0  0  2  0  0  0  0  0  0
  190.0470  176.9210  136.3570 C   0  0  0  0  0  1  0  0  0  0  0  0
  188.7360  176.4630  136.2430 O   0  0  0  0  0  0  0  0  0  0  0  0
  1  5  1  6  0  0  0
  1  4  1  0  0  0  0
  1 19  1  0  0  0  0
  2 13  1  0  0  0  0
  4 12  1  6  0  0  0
  4 20  1  0  0  0  0
  6  8  2  0  0  0  0
  7 15  1  6  0  0  0
  7  9  1  0  0  0  0
  8 11  1  0  0  0  0
  8 12  1  0  0  0  0
  9 14  1  6  0  0  0
  9 22  1  0  0  0  0
 10 21  2  0  0  0  0
 10  3  1  0  0  0  0
 11 28  1  1  0  0  0
 11  5  1  0  0  0  0
 13 18  2  0  0  0  0
 15 23  1  0  0  0  0
 16  2  1  0  0  0  0
 17 26  1  0  0  0  0
 17  3  1  1  0  0  0
 19  2  2  0  0  0  0
 19 26  1  0  0  0  0
 20 22  1  6  0  0  0
 20 17  1  0  0  0  0
 22 10  1  0  0  0  0
 23 14  1  0  0  0  0
 25 18  1  0  0  0  0
 26 25  2  0  0  0  0
 27 12  1  0  0  0  0
 27 24  1  1  0  0  0
 27  7  1  0  0  0  0
 30 29  1  0  0  0  0
 30 28  1  0  0  0  0
M  END
>  <MODEL>
7

>  <REMARK>
 VINA RESULT:      -6.8      2.558      3.856
  Name = 
  2 active torsions:
  status: ('A' for Active; 'I' for Inactive)
    1  A    between atoms: C_11  and  C_28
    2  A    between atoms: C_28  and  O_30
                            x       y       z     vdW  Elec       q    Type
                         _______ _______ _______ _____ _____    ______ ____

>  <TORSDO>
F 2

$$$$
=
 OpenBabel11122410233D

 30 35  0  0  1  0  0  0  0  0999 V2000
  185.8620  178.3840  140.0200 C   0  0  1  0  0  3  0  0  0  0  0  0
  187.1960  177.8360  137.9040 C   0  0  0  0  0  0  0  0  0  0  0  0
  189.5040  178.0580  142.3550 C   0  0  0  0  0  2  0  0  0  0  0  0
  186.0280  178.9110  141.4630 C   0  0  1  0  0  3  0  0  0  0  0  0
  184.9740  179.2210  139.3190 O   0  0  0  0  0  0  0  0  0  0  0  0
  182.4150  179.2510  141.8260 O   0  0  0  0  0  0  0  0  0  0  0  0
  185.0060  177.9130  144.3710 C   0  0  1  0  0  3  0  0  0  0  0  0
  183.5480  179.0650  141.3020 C   0  0  0  0  0  0  0  0  0  0  0  0
  186.5050  177.7420  144.6080 C   0  0  2  0  0  3  0  0  0  0  0  0
  188.7970  178.1750  143.6550 C   0  0  0  0  0  0  0  0  0  0  0  0
  183.6600  178.9730  139.7970 C   0  0  2  0  0  3  0  0  0  0  0  0
  184.7190  178.9080  142.1260 N   0  0  0  0  0  0  0  0  0  0  0  0
  188.4030  177.5250  137.2780 C   0  0  0  0  0  3  0  0  0  0  0  0
  186.7710  178.4010  145.9460 C   0  0  0  0  0  2  0  0  0  0  0  0
  184.3810  177.9850  145.7550 C   0  0  0  0  0  2  0  0  0  0  0  0
  186.0240  177.8230  137.1560 O   0  0  0  0  0  1  0  0  0  0  0  0
  188.3820  178.4700  141.4360 C   0  0  2  0  0  3  0  0  0  0  0  0
  189.5830  177.5080  138.0240 C   0  0  0  0  0  3  0  0  0  0  0  0
  187.1750  178.1490  139.2740 C   0  0  0  0  0  0  0  0  0  0  0  0
  187.1000  178.0480  142.1270 C   0  0  1  0  0  3  0  0  0  0  0  0
  189.4000  178.1360  144.7600 O   0  0  0  0  0  0  0  0  0  0  0  0
  187.3700  178.2680  143.5430 N   0  0  0  0  0  0  0  0  0  0  0  0
  185.5150  178.1610  146.7540 C   0  0  0  0  0  2  0  0  0  0  0  0
  185.2320  180.4620  143.9870 C   0  0  0  0  0  1  0  0  0  0  0  0
  189.5540  177.7820  139.3540 N   0  0  0  0  0  0  0  0  0  0  0  0
  188.3890  178.0670  139.9960 C   0  0  0  0  0  0  0  0  0  0  0  0
  184.5890  179.1450  143.5600 C   0  0  2  0  0  3  0  0  0  0  0  0
  183.1060  177.6480  139.2800 C   0  0  0  0  0  2  0  0  0  0  0  0
  181.9400  179.1440  138.1570 C   0  0  0  0  0  1  0  0  0  0  0  0
  181.8640  177.8550  138.6810 O   0  0  0  0  0  0  0  0  0  0  0  0
  1 19  1  6  0  0  0
  1  4  1  0  0  0  0
  2 19  1  0  0  0  0
  3 10  1  0  0  0  0
  4 12  1  1  0  0  0
  4 20  1  0  0  0  0
  5 11  1  0  0  0  0
  5  1  1  0  0  0  0
  7  9  1  0  0  0  0
  7 15  1  1  0  0  0
  8  6  2  0  0  0  0
  8 12  1  0  0  0  0
  9 14  1  1  0  0  0
 10 21  2  0  0  0  0
 11 28  1  1  0  0  0
 11  8  1  0  0  0  0
 12 27  1  0  0  0  0
 13  2  2  0  0  0  0
 13 18  1  0  0  0  0
 14 23  1  0  0  0  0
 15 23  1  0  0  0  0
 16  2  1  0  0  0  0
 17 20  1  0  0  0  0
 17  3  1  1  0  0  0
 18 25  2  0  0  0  0
 19 26  2  0  0  0  0
 20 22  1  1  0  0  0
 22 10  1  0  0  0  0
 22  9  1  0  0  0  0
 25 26  1  0  0  0  0
 26 17  1  0  0  0  0
 27 24  1  1  0  0  0
 27  7  1  0  0  0  0
 29 30  1  0  0  0  0
 30 28  1  0  0  0  0
M  END
>  <MODEL>
8

>  <REMARK>
 VINA RESULT:      -6.8      2.555      5.757
  Name = 
  2 active torsions:
  status: ('A' for Active; 'I' for Inactive)
    1  A    between atoms: C_11  and  C_28
    2  A    between atoms: C_28  and  O_30
                            x       y       z     vdW  Elec       q    Type
                         _______ _______ _______ _____ _____    ______ ____

>  <TORSDO>
F 2

$$$$
=
 OpenBabel11122410233D

 30 35  0  0  1  0  0  0  0  0999 V2000
  189.3300  177.2710  138.3880 C   0  0  1  0  0  3  0  0  0  0  0  0
  190.9910  176.4380  136.6270 C   0  0  0  0  0  0  0  0  0  0  0  0
  192.4220  176.9340  141.4120 C   0  0  0  0  0  2  0  0  0  0  0  0
  189.2610  177.9210  139.7890 C   0  0  1  0  0  3  0  0  0  0  0  0
  188.6630  178.0940  137.4610 O   0  0  0  0  0  0  0  0  0  0  0  0
  185.6860  178.5290  139.4050 O   0  0  0  0  0  0  0  0  0  0  0  0
  187.6270  177.2750  142.5100 C   0  0  1  0  0  3  0  0  0  0  0  0
  186.8780  178.2200  139.1310 C   0  0  0  0  0  0  0  0  0  0  0  0
  189.0340  177.0300  143.0500 C   0  0  2  0  0  3  0  0  0  0  0  0
  191.4930  177.2200  142.5350 C   0  0  0  0  0  0  0  0  0  0  0  0
  187.2660  177.9780  137.6900 C   0  0  2  0  0  3  0  0  0  0  0  0
  187.8540  178.0680  140.1790 N   0  0  0  0  0  0  0  0  0  0  0  0
  192.2660  175.9900  136.2790 C   0  0  0  0  0  3  0  0  0  0  0  0
  189.0940  177.7960  144.3570 C   0  0  0  0  0  2  0  0  0  0  0  0
  186.7580  177.5200  143.7330 C   0  0  0  0  0  2  0  0  0  0  0  0
  189.9860  176.4300  135.6670 O   0  0  0  0  0  1  0  0  0  0  0  0
  191.5330  177.3280  140.2600 C   0  0  2  0  0  3  0  0  0  0  0  0
  193.2770  175.9680  137.2400 C   0  0  0  0  0  3  0  0  0  0  0  0
  190.7360  176.8810  137.9370 C   0  0  0  0  0  0  0  0  0  0  0  0
  190.1120  177.0580  140.7170 C   0  0  1  0  0  3  0  0  0  0  0  0
  191.8700  177.2480  143.7350 O   0  0  0  0  0  0  0  0  0  0  0  0
  190.1260  177.3940  142.1370 N   0  0  0  0  0  0  0  0  0  0  0  0
  187.6920  177.7160  144.9180 C   0  0  0  0  0  2  0  0  0  0  0  0
  188.1300  179.7550  141.9720 C   0  0  0  0  0  1  0  0  0  0  0  0
  193.0180  176.3690  138.5120 N   0  0  0  0  0  0  0  0  0  0  0  0
  191.7800  176.7900  138.8870 C   0  0  0  0  0  0  0  0  0  0  0  0
  187.4740  178.4480  141.5360 C   0  0  2  0  0  3  0  0  0  0  0  0
  186.7130  176.6490  137.1830 C   0  0  0  0  0  2  0  0  0  0  0  0
  185.9990  177.3840  135.2320 C   0  0  0  0  0  1  0  0  0  0  0  0
  185.5500  176.8690  136.4470 O   0  0  0  0  0  0  0  0  0  0  0  0
  1  5  1  6  0  0  0
  1  4  1  0  0  0  0
  2 19  1  0  0  0  0
  3 10  1  0  0  0  0
  4 12  1  1  0  0  0
  4 20  1  0  0  0  0
  5 11  1  0  0  0  0
  7  9  1  0  0  0  0
  7 15  1  1  0  0  0
  8  6  2  0  0  0  0
  8 12  1  0  0  0  0
  9 14  1  1  0  0  0
 10 21  2  0  0  0  0
 11 28  1  1  0  0  0
 11  8  1  0  0  0  0
 12 27  1  0  0  0  0
 13  2  2  0  0  0  0
 13 18  1  0  0  0  0
 14 23  1  0  0  0  0
 15 23  1  0  0  0  0
 16  2  1  0  0  0  0
 17 20  1  0  0  0  0
 17  3  1  1  0  0  0
 18 25  2  0  0  0  0
 19  1  1  0  0  0  0
 19 26  2  0  0  0  0
 20 22  1  1  0  0  0
 22 10  1  0  0  0  0
 22  9  1  0  0  0  0
 25 26  1  0  0  0  0
 26 17  1  0  0  0  0
 27 24  1  1  0  0  0
 27  7  1  0  0  0  0
 29 30  1  0  0  0  0
 30 28  1  0  0  0  0
M  END
>  <MODEL>
9

>  <REMARK>
 VINA RESULT:      -6.7      2.975      6.068
  Name = 
  2 active torsions:
  status: ('A' for Active; 'I' for Inactive)
    1  A    between atoms: C_11  and  C_28
    2  A    between atoms: C_28  and  O_30
                            x       y       z     vdW  Elec       q    Type
                         _______ _______ _______ _____ _____    ______ ____

>  <TORSDO>
F 2

$$$$
