=
 OpenBabel11122412003D

 28 32  0  0  1  0  0  0  0  0999 V2000
  181.9280  178.5730  140.6380 C   0  0  0  0  0  0  0  0  0  0  0  0
  182.1360  175.4890  139.6290 F   0  0  0  0  0  0  0  0  0  0  0  0
  186.8450  178.8530  136.7380 C   0  0  0  0  0  1  0  0  0  0  0  0
  179.7380  179.9590  139.5520 C   0  0  0  0  0  3  0  0  0  0  0  0
  185.6330  176.7140  137.1220 C   0  0  2  0  0  3  0  0  0  0  0  0
  183.0750  177.8760  141.3100 C   0  0  0  0  0  2  0  0  0  0  0  0
  179.9880  176.0010  138.8000 C   0  0  0  0  0  1  0  0  0  0  0  0
  181.4080  175.5930  138.4560 C   0  0  1  0  0  0  0  0  0  0  0  0
  182.4370  173.7720  137.0530 C   0  0  0  0  0  0  0  0  0  0  0  0
  182.0390  176.6390  137.4950 C   0  0  2  0  0  3  0  0  0  0  0  0
  186.3460  178.1600  141.1310 O   0  0  0  0  0  0  0  0  0  0  0  0
  184.0020  177.5050  138.6060 C   0  0  1  0  0  3  0  0  0  0  0  0
  183.3050  174.7130  136.2860 C   0  0  0  0  0  2  0  0  0  0  0  0
  181.3580  174.2790  137.8340 N   0  0  0  0  0  2  0  0  0  0  0  0
  185.3180  178.8120  140.8120 C   0  0  0  0  0  0  0  0  0  0  0  0
  181.7140  178.5700  139.2290 C   0  0  0  0  0  0  0  0  0  0  0  0
  186.1790  177.9700  137.7750 C   0  0  2  0  0  3  0  0  0  0  0  0
  182.4580  172.5180  136.7480 N   0  0  0  0  0  2  0  0  0  0  0  0
  185.2240  179.4170  139.5200 N   0  0  0  0  0  2  0  0  0  0  0  0
  180.6190  179.2750  138.7120 C   0  0  0  0  0  3  0  0  0  0  0  0
  181.0320  179.2610  141.4670 C   0  0  0  0  0  3  0  0  0  0  0  0
  179.9440  179.9490  140.9300 C   0  0  0  0  0  3  0  0  0  0  0  0
  184.1520  178.8690  141.7410 C   0  0  0  0  0  2  0  0  0  0  0  0
  184.4130  176.3310  137.8320 N   0  0  1  0  0  0  0  0  0  0  0  0
  184.9490  178.6460  138.3120 C   0  0  2  0  0  3  0  0  0  0  0  0
  183.3370  176.1320  136.8630 C   0  0  2  0  0  3  0  0  0  0  0  0
  186.6560  175.5970  137.2190 C   0  0  0  0  0  1  0  0  0  0  0  0
  182.5870  177.8690  138.2070 C   0  0  2  0  0  3  0  0  0  0  0  0
  1  6  1  0  0  0  0
  1 21  1  0  0  0  0
  3 17  1  0  0  0  0
  4 22  1  0  0  0  0
  5 27  1  1  0  0  0
  5 17  1  0  0  0  0
  5 24  1  0  0  0  0
  6 23  1  0  0  0  0
  8  7  1  1  0  0  0
  8  2  1  0  0  0  0
  9 14  1  0  0  0  0
 10 28  1  0  0  0  0
 10  8  1  0  0  0  0
 13 26  1  0  0  0  0
 13  9  1  0  0  0  0
 14  8  1  0  0  0  0
 15 11  2  0  0  0  0
 15 23  1  0  0  0  0
 16  1  2  0  0  0  0
 17 25  1  0  0  0  0
 18  9  2  0  0  0  0
 19 15  1  0  0  0  0
 20 16  1  0  0  0  0
 20  4  2  0  0  0  0
 22 21  2  0  0  0  0
 24 12  1  0  0  0  0
 25 12  1  0  0  0  0
 25 19  1  0  0  0  0
 26 10  1  0  0  0  0
 26 24  1  0  0  0  0
 28 12  1  0  0  0  0
 28 16  1  0  0  0  0
M  END
>  <MODEL>
1

>  <REMARK>
 VINA RESULT:      -5.8      0.000      0.000
  Name = 
  0 active torsions:
  status: ('A' for Active; 'I' for Inactive)
                            x       y       z     vdW  Elec       q    Type
                         _______ _______ _______ _____ _____    ______ ____

>  <TORSDO>
F 0

$$$$
=
 OpenBabel11122412003D

 28 32  0  0  1  0  0  0  0  0999 V2000
  180.3830  179.9680  140.6730 C   0  0  0  0  0  0  0  0  0  0  0  0
  183.3900  180.0790  139.4420 F   0  0  0  0  0  0  0  0  0  0  0  0
  179.7990  176.3170  135.5940 C   0  0  0  0  0  1  0  0  0  0  0  0
  180.1890  178.4260  143.0130 C   0  0  0  0  0  3  0  0  0  0  0  0
  181.9750  177.3820  136.1650 C   0  0  2  0  0  3  0  0  0  0  0  0
  180.4250  180.8630  139.4690 C   0  0  0  0  0  2  0  0  0  0  0  0
  183.8820  179.0780  141.5200 C   0  0  0  0  0  1  0  0  0  0  0  0
  183.9020  178.9250  140.0110 C   0  0  1  0  0  0  0  0  0  0  0  0
  185.6440  178.2530  138.3220 C   0  0  0  0  0  0  0  0  0  0  0  0
  183.0710  177.6790  139.5960 C   0  0  2  0  0  3  0  0  0  0  0  0
  179.1840  180.6700  136.4300 O   0  0  0  0  0  0  0  0  0  0  0  0
  181.3180  178.4700  138.1330 C   0  0  1  0  0  3  0  0  0  0  0  0
  184.7710  177.2300  137.6760 C   0  0  0  0  0  2  0  0  0  0  0  0
  185.2880  178.7890  139.5930 N   0  0  0  0  0  2  0  0  0  0  0  0
  179.0310  180.1250  137.5540 C   0  0  0  0  0  0  0  0  0  0  0  0
  180.9000  178.6410  140.6930 C   0  0  0  0  0  0  0  0  0  0  0  0
  180.4720  177.5780  136.1000 C   0  0  2  0  0  3  0  0  0  0  0  0
  186.8540  178.3950  137.8950 N   0  0  0  0  0  2  0  0  0  0  0  0
  178.9310  178.7020  137.6540 N   0  0  0  0  0  2  0  0  0  0  0  0
  180.7850  177.8890  141.8710 C   0  0  0  0  0  3  0  0  0  0  0  0
  179.7910  180.4920  141.8300 C   0  0  0  0  0  3  0  0  0  0  0  0
  179.6950  179.7280  142.9930 C   0  0  0  0  0  3  0  0  0  0  0  0
  179.0580  180.9520  138.7950 C   0  0  0  0  0  2  0  0  0  0  0  0
  182.4810  178.1530  137.2990 N   0  0  1  0  0  0  0  0  0  0  0  0
  180.0910  177.8240  137.5330 C   0  0  2  0  0  3  0  0  0  0  0  0
  183.3100  177.2870  138.1360 C   0  0  2  0  0  3  0  0  0  0  0  0
  182.6150  177.8780  134.8810 C   0  0  0  0  0  1  0  0  0  0  0  0
  181.5720  177.9400  139.5290 C   0  0  2  0  0  3  0  0  0  0  0  0
  1 16  2  0  0  0  0
  1 21  1  0  0  0  0
  2  8  1  0  0  0  0
  3 17  1  0  0  0  0
  5 27  1  6  0  0  0
  5 24  1  0  0  0  0
  6  1  1  0  0  0  0
  8  7  1  1  0  0  0
  9 14  1  0  0  0  0
 10  8  1  0  0  0  0
 11 15  2  0  0  0  0
 12 28  1  0  0  0  0
 13 26  1  0  0  0  0
 13  9  1  0  0  0  0
 14  8  1  0  0  0  0
 15 19  1  0  0  0  0
 15 23  1  0  0  0  0
 16 20  1  0  0  0  0
 17  5  1  0  0  0  0
 17 25  1  0  0  0  0
 18  9  2  0  0  0  0
 20  4  2  0  0  0  0
 21 22  2  0  0  0  0
 22  4  1  0  0  0  0
 23  6  1  0  0  0  0
 24 12  1  0  0  0  0
 24 26  1  0  0  0  0
 25 19  1  0  0  0  0
 25 12  1  0  0  0  0
 26 10  1  0  0  0  0
 28 10  1  0  0  0  0
 28 16  1  0  0  0  0
M  END
>  <MODEL>
2

>  <REMARK>
 VINA RESULT:      -5.4      2.828      4.903
  Name = 
  0 active torsions:
  status: ('A' for Active; 'I' for Inactive)
                            x       y       z     vdW  Elec       q    Type
                         _______ _______ _______ _____ _____    ______ ____

>  <TORSDO>
F 0

$$$$
=
 OpenBabel11122412003D

 28 32  0  0  1  0  0  0  0  0999 V2000
  189.1560  175.1600  136.2230 C   0  0  0  0  0  0  0  0  0  0  0  0
  187.9060  176.5070  138.9050 F   0  0  0  0  0  0  0  0  0  0  0  0
  183.0230  175.2120  134.8650 C   0  0  0  0  0  1  0  0  0  0  0  0
  190.5340  176.9870  134.5940 C   0  0  0  0  0  3  0  0  0  0  0  0
  183.8640  176.1090  137.0290 C   0  0  2  0  0  3  0  0  0  0  0  0
  188.4970  174.1170  137.0770 C   0  0  0  0  0  2  0  0  0  0  0  0
  189.2520  178.3050  138.1860 C   0  0  0  0  0  1  0  0  0  0  0  0
  187.8440  177.8230  138.4810 C   0  0  1  0  0  0  0  0  0  0  0  0
  185.9170  178.7080  139.8400 C   0  0  0  0  0  0  0  0  0  0  0  0
  186.9630  177.9610  137.2090 C   0  0  2  0  0  3  0  0  0  0  0  0
  185.8050  172.2580  136.7510 O   0  0  0  0  0  0  0  0  0  0  0  0
  186.1530  175.7460  136.6820 C   0  0  1  0  0  3  0  0  0  0  0  0
  184.9380  178.5790  138.7220 C   0  0  0  0  0  2  0  0  0  0  0  0
  187.3140  178.6280  139.5710 N   0  0  0  0  0  2  0  0  0  0  0  0
  186.5610  172.9670  136.0370 C   0  0  0  0  0  0  0  0  0  0  0  0
  188.5280  176.3790  135.8350 C   0  0  0  0  0  0  0  0  0  0  0  0
  184.0030  175.0000  136.0020 C   0  0  2  0  0  3  0  0  0  0  0  0
  185.5200  179.2120  140.9600 N   0  0  0  0  0  2  0  0  0  0  0  0
  186.0030  173.8890  135.0970 N   0  0  0  0  0  2  0  0  0  0  0  0
  189.2340  177.2700  135.0160 C   0  0  0  0  0  3  0  0  0  0  0  0
  190.4630  174.8940  135.7930 C   0  0  0  0  0  3  0  0  0  0  0  0
  191.1490  175.8000  134.9850 C   0  0  0  0  0  3  0  0  0  0  0  0
  188.0380  172.9240  136.2420 C   0  0  0  0  0  2  0  0  0  0  0  0
  185.1880  176.3650  137.5950 N   0  0  1  0  0  0  0  0  0  0  0  0
  185.4110  175.1600  135.5030 C   0  0  2  0  0  3  0  0  0  0  0  0
  185.4730  177.7970  137.5190 C   0  0  2  0  0  3  0  0  0  0  0  0
  182.9100  175.6770  138.1270 C   0  0  0  0  0  1  0  0  0  0  0  0
  187.1280  176.8110  136.2240 C   0  0  2  0  0  3  0  0  0  0  0  0
  1  6  1  0  0  0  0
  3 17  1  0  0  0  0
  4 22  2  0  0  0  0
  4 20  1  0  0  0  0
  5 24  1  0  0  0  0
  5 27  1  1  0  0  0
  8  7  1  6  0  0  0
  8  2  1  0  0  0  0
  8 14  1  0  0  0  0
  9 18  2  0  0  0  0
 10 26  1  0  0  0  0
 10  8  1  0  0  0  0
 12 24  1  0  0  0  0
 13  9  1  0  0  0  0
 14  9  1  0  0  0  0
 15 23  1  0  0  0  0
 15 11  2  0  0  0  0
 16  1  1  0  0  0  0
 16 28  1  0  0  0  0
 17  5  1  0  0  0  0
 19 25  1  0  0  0  0
 19 15  1  0  0  0  0
 20 16  2  0  0  0  0
 21  1  2  0  0  0  0
 22 21  1  0  0  0  0
 23  6  1  0  0  0  0
 25 17  1  0  0  0  0
 25 12  1  0  0  0  0
 26 24  1  0  0  0  0
 26 13  1  0  0  0  0
 28 12  1  0  0  0  0
 28 10  1  0  0  0  0
M  END
>  <MODEL>
3

>  <REMARK>
 VINA RESULT:      -5.4      3.293      7.417
  Name = 
  0 active torsions:
  status: ('A' for Active; 'I' for Inactive)
                            x       y       z     vdW  Elec       q    Type
                         _______ _______ _______ _____ _____    ______ ____

>  <TORSDO>
F 0

$$$$
=
 OpenBabel11122412003D

 28 32  0  0  1  0  0  0  0  0999 V2000
  182.8340  178.3480  138.5370 C   0  0  0  0  0  0  0  0  0  0  0  0
  183.0310  175.1040  138.6070 F   0  0  0  0  0  0  0  0  0  0  0  0
  188.1620  177.3430  135.3650 C   0  0  0  0  0  1  0  0  0  0  0  0
  180.8350  179.3090  136.8120 C   0  0  0  0  0  3  0  0  0  0  0  0
  186.8320  175.4450  136.2710 C   0  0  2  0  0  3  0  0  0  0  0  0
  183.8700  177.9060  139.5280 C   0  0  0  0  0  2  0  0  0  0  0  0
  181.0110  175.3220  137.4090 C   0  0  0  0  0  1  0  0  0  0  0  0
  182.4430  174.8230  137.3850 C   0  0  1  0  0  0  0  0  0  0  0  0
  183.5490  172.6440  136.7760 C   0  0  0  0  0  0  0  0  0  0  0  0
  183.2180  175.5000  136.2210 C   0  0  2  0  0  3  0  0  0  0  0  0
  187.1490  178.1130  139.6550 O   0  0  0  0  0  0  0  0  0  0  0  0
  185.0780  176.6770  137.2170 C   0  0  1  0  0  3  0  0  0  0  0  0
  184.5340  173.2840  135.8550 C   0  0  0  0  0  2  0  0  0  0  0  0
  182.4120  173.3780  137.2180 N   0  0  0  0  0  2  0  0  0  0  0  0
  186.1900  178.6280  139.0240 C   0  0  0  0  0  0  0  0  0  0  0  0
  182.7780  177.8890  137.1890 C   0  0  0  0  0  0  0  0  0  0  0  0
  187.3500  176.8440  136.5450 C   0  0  2  0  0  3  0  0  0  0  0  0
  183.5550  171.3580  136.8960 N   0  0  0  0  0  2  0  0  0  0  0  0
  186.2640  178.7810  137.6050 N   0  0  0  0  0  2  0  0  0  0  0  0
  181.7760  178.3890  136.3460 C   0  0  0  0  0  3  0  0  0  0  0  0
  181.8790  179.2700  138.9880 C   0  0  0  0  0  3  0  0  0  0  0  0
  180.8850  179.7470  138.1330 C   0  0  0  0  0  3  0  0  0  0  0  0
  184.9300  178.9840  139.7410 C   0  0  0  0  0  2  0  0  0  0  0  0
  185.5260  175.3140  136.9170 N   0  0  1  0  0  0  0  0  0  0  0  0
  186.0950  177.6600  136.6860 C   0  0  2  0  0  3  0  0  0  0  0  0
  184.5570  174.8130  135.9430 C   0  0  2  0  0  3  0  0  0  0  0  0
  187.7920  174.4190  136.8430 C   0  0  0  0  0  1  0  0  0  0  0  0
  183.7310  176.8940  136.5580 C   0  0  2  0  0  3  0  0  0  0  0  0
  1 21  1  0  0  0  0
  1  6  1  0  0  0  0
  3 17  1  0  0  0  0
  4 22  1  0  0  0  0
  5 17  1  0  0  0  0
  5 27  1  1  0  0  0
  5 24  1  0  0  0  0
  6 23  1  0  0  0  0
  8  7  1  1  0  0  0
  8  2  1  0  0  0  0
  9 18  2  0  0  0  0
  9 14  1  0  0  0  0
 10 28  1  0  0  0  0
 10  8  1  0  0  0  0
 13 26  1  0  0  0  0
 13  9  1  0  0  0  0
 14  8  1  0  0  0  0
 15 11  2  0  0  0  0
 15 23  1  0  0  0  0
 16  1  2  0  0  0  0
 17 25  1  0  0  0  0
 19 15  1  0  0  0  0
 20  4  2  0  0  0  0
 20 16  1  0  0  0  0
 22 21  2  0  0  0  0
 24 12  1  0  0  0  0
 25 12  1  0  0  0  0
 25 19  1  0  0  0  0
 26 10  1  0  0  0  0
 26 24  1  0  0  0  0
 28 16  1  0  0  0  0
 28 12  1  0  0  0  0
M  END
>  <MODEL>
4

>  <REMARK>
 VINA RESULT:      -5.3      1.540      2.114
  Name = 
  0 active torsions:
  status: ('A' for Active; 'I' for Inactive)
                            x       y       z     vdW  Elec       q    Type
                         _______ _______ _______ _____ _____    ______ ____

>  <TORSDO>
F 0

$$$$
=
 OpenBabel11122412003D

 28 32  0  0  1  0  0  0  0  0999 V2000
  188.0060  176.0740  136.5560 C   0  0  0  0  0  0  0  0  0  0  0  0
  188.8530  176.0030  139.6930 F   0  0  0  0  0  0  0  0  0  0  0  0
  183.7790  179.9710  139.0890 C   0  0  0  0  0  1  0  0  0  0  0  0
  189.8090  177.5020  134.9430 C   0  0  0  0  0  3  0  0  0  0  0  0
  185.5090  178.8650  140.4960 C   0  0  2  0  0  3  0  0  0  0  0  0
  187.0390  175.2390  137.3420 C   0  0  0  0  0  2  0  0  0  0  0  0
  190.8420  176.8990  138.7980 C   0  0  0  0  0  1  0  0  0  0  0  0
  189.6640  177.1240  139.7260 C   0  0  1  0  0  0  0  0  0  0  0  0
  189.4130  177.8660  142.1200 C   0  0  0  0  0  0  0  0  0  0  0  0
  188.8830  178.3950  139.2890 C   0  0  2  0  0  3  0  0  0  0  0  0
  183.8830  175.5870  138.1980 O   0  0  0  0  0  0  0  0  0  0  0  0
  186.6240  177.6870  138.8050 C   0  0  1  0  0  3  0  0  0  0  0  0
  188.4140  178.9250  141.7940 C   0  0  0  0  0  2  0  0  0  0  0  0
  190.1810  177.2710  141.0780 N   0  0  0  0  0  2  0  0  0  0  0  0
  184.7040  176.0780  137.3800 C   0  0  0  0  0  0  0  0  0  0  0  0
  188.3930  177.3960  136.9220 C   0  0  0  0  0  0  0  0  0  0  0  0
  184.5360  178.6820  139.3460 C   0  0  2  0  0  3  0  0  0  0  0  0
  189.8040  177.7360  143.3430 N   0  0  0  0  0  2  0  0  0  0  0  0
  184.7830  177.4950  137.2060 N   0  0  0  0  0  2  0  0  0  0  0  0
  189.2890  178.0900  136.0970 C   0  0  0  0  0  3  0  0  0  0  0  0
  188.5410  175.4990  135.3950 C   0  0  0  0  0  3  0  0  0  0  0  0
  189.4370  176.2060  134.5940 C   0  0  0  0  0  3  0  0  0  0  0  0
  185.6700  175.1910  136.6680 C   0  0  0  0  0  2  0  0  0  0  0  0
  186.6840  178.0360  140.2270 N   0  0  1  0  0  0  0  0  0  0  0  0
  185.4300  178.3690  138.1790 C   0  0  2  0  0  3  0  0  0  0  0  0
  187.8880  178.8550  140.3560 C   0  0  2  0  0  3  0  0  0  0  0  0
  184.8590  178.4270  141.7960 C   0  0  0  0  0  1  0  0  0  0  0  0
  187.9080  178.1480  138.1450 C   0  0  2  0  0  3  0  0  0  0  0  0
  1 16  1  0  0  0  0
  1  6  1  0  0  0  0
  2  8  1  0  0  0  0
  3 17  1  0  0  0  0
  4 20  1  0  0  0  0
  5 27  1  1  0  0  0
  8  7  1  6  0  0  0
  8 14  1  0  0  0  0
  9 18  2  0  0  0  0
 10  8  1  0  0  0  0
 10 26  1  0  0  0  0
 12 24  1  0  0  0  0
 13  9  1  0  0  0  0
 14  9  1  0  0  0  0
 15 11  2  0  0  0  0
 16 28  1  0  0  0  0
 17  5  1  0  0  0  0
 19 15  1  0  0  0  0
 19 25  1  0  0  0  0
 20 16  2  0  0  0  0
 21  1  2  0  0  0  0
 22  4  2  0  0  0  0
 22 21  1  0  0  0  0
 23  6  1  0  0  0  0
 23 15  1  0  0  0  0
 24 26  1  0  0  0  0
 24  5  1  0  0  0  0
 25 12  1  0  0  0  0
 25 17  1  0  0  0  0
 26 13  1  0  0  0  0
 28 12  1  0  0  0  0
 28 10  1  0  0  0  0
M  END
>  <MODEL>
5

>  <REMARK>
 VINA RESULT:      -5.3      3.226      7.420
  Name = 
  0 active torsions:
  status: ('A' for Active; 'I' for Inactive)
                            x       y       z     vdW  Elec       q    Type
                         _______ _______ _______ _____ _____    ______ ____

>  <TORSDO>
F 0

$$$$
=
 OpenBabel11122412003D

 28 32  0  0  1  0  0  0  0  0999 V2000
  183.1310  177.0600  137.1350 C   0  0  0  0  0  0  0  0  0  0  0  0
  184.7980  174.2830  137.4090 F   0  0  0  0  0  0  0  0  0  0  0  0
  189.0550  179.1500  137.2000 C   0  0  0  0  0  1  0  0  0  0  0  0
  181.9910  177.4340  134.5940 C   0  0  0  0  0  3  0  0  0  0  0  0
  188.5520  176.7170  137.3560 C   0  0  2  0  0  3  0  0  0  0  0  0
  183.6510  176.8950  138.5330 C   0  0  0  0  0  2  0  0  0  0  0  0
  183.7510  173.8780  135.3340 C   0  0  0  0  0  1  0  0  0  0  0  0
  185.0660  174.0560  136.0690 C   0  0  1  0  0  0  0  0  0  0  0  0
  187.2160  172.7500  136.1930 C   0  0  0  0  0  0  0  0  0  0  0  0
  185.8620  175.2370  135.4480 C   0  0  2  0  0  3  0  0  0  0  0  0
  185.9310  178.4450  140.3250 O   0  0  0  0  0  0  0  0  0  0  0  0
  186.2160  176.8420  137.2190 C   0  0  1  0  0  3  0  0  0  0  0  0
  188.0720  173.9340  135.8900 C   0  0  0  0  0  2  0  0  0  0  0  0
  185.8120  172.8110  135.9600 N   0  0  0  0  0  2  0  0  0  0  0  0
  185.2650  178.6280  139.2720 C   0  0  0  0  0  0  0  0  0  0  0  0
  183.9390  176.9320  135.9680 C   0  0  0  0  0  0  0  0  0  0  0  0
  188.1390  178.1060  137.8090 C   0  0  2  0  0  3  0  0  0  0  0  0
  187.7800  171.5980  136.3430 N   0  0  0  0  0  2  0  0  0  0  0  0
  185.9100  179.1080  138.0900 N   0  0  0  0  0  2  0  0  0  0  0  0
  183.3480  177.1300  134.7130 C   0  0  0  0  0  3  0  0  0  0  0  0
  181.7700  177.3630  136.9970 C   0  0  0  0  0  3  0  0  0  0  0  0
  181.2010  177.5470  135.7370 C   0  0  0  0  0  3  0  0  0  0  0  0
  183.8240  178.2450  139.2240 C   0  0  0  0  0  2  0  0  0  0  0  0
  187.3420  175.9040  137.2400 N   0  0  1  0  0  0  0  0  0  0  0  0
  186.7500  178.2550  137.2550 C   0  0  2  0  0  3  0  0  0  0  0  0
  187.3160  175.2660  135.9250 C   0  0  2  0  0  3  0  0  0  0  0  0
  189.4900  176.1000  138.3770 C   0  0  0  0  0  1  0  0  0  0  0  0
  185.4190  176.6040  135.9540 C   0  0  2  0  0  3  0  0  0  0  0  0
  1  6  1  0  0  0  0
  3 17  1  0  0  0  0
  4 20  2  0  0  0  0
  4 22  1  0  0  0  0
  5 17  1  0  0  0  0
  5 27  1  1  0  0  0
  6 23  1  0  0  0  0
  8  7  1  6  0  0  0
  8  2  1  0  0  0  0
  9 18  2  0  0  0  0
 10 26  1  0  0  0  0
 10 28  1  0  0  0  0
 10  8  1  0  0  0  0
 12 24  1  0  0  0  0
 12 25  1  0  0  0  0
 13 26  1  0  0  0  0
 13  9  1  0  0  0  0
 14  8  1  0  0  0  0
 14  9  1  0  0  0  0
 15 11  2  0  0  0  0
 16  1  2  0  0  0  0
 19 15  1  0  0  0  0
 20 16  1  0  0  0  0
 21  1  1  0  0  0  0
 22 21  2  0  0  0  0
 23 15  1  0  0  0  0
 24  5  1  0  0  0  0
 25 17  1  0  0  0  0
 25 19  1  0  0  0  0
 26 24  1  0  0  0  0
 28 16  1  0  0  0  0
 28 12  1  0  0  0  0
M  END
>  <MODEL>
6

>  <REMARK>
 VINA RESULT:      -5.2      2.515      4.001
  Name = 
  0 active torsions:
  status: ('A' for Active; 'I' for Inactive)
                            x       y       z     vdW  Elec       q    Type
                         _______ _______ _______ _____ _____    ______ ____

>  <TORSDO>
F 0

$$$$
=
 OpenBabel11122412003D

 28 32  0  0  1  0  0  0  0  0999 V2000
  190.7580  174.0570  135.9520 C   0  0  0  0  0  0  0  0  0  0  0  0
  190.0800  175.3300  138.8660 F   0  0  0  0  0  0  0  0  0  0  0  0
  185.6740  177.5150  134.6630 C   0  0  0  0  0  1  0  0  0  0  0  0
  193.0350  175.1780  134.7460 C   0  0  0  0  0  3  0  0  0  0  0  0
  186.6170  177.4290  136.9650 C   0  0  2  0  0  3  0  0  0  0  0  0
  189.5760  173.3650  136.5660 C   0  0  0  0  0  2  0  0  0  0  0  0
  192.2170  176.2740  138.5430 C   0  0  0  0  0  1  0  0  0  0  0  0
  190.7360  176.5410  138.7340 C   0  0  1  0  0  0  0  0  0  0  0  0
  189.3860  178.0230  140.2590 C   0  0  0  0  0  0  0  0  0  0  0  0
  190.1870  177.3480  137.5240 C   0  0  2  0  0  3  0  0  0  0  0  0
  186.3670  173.2600  135.8600 O   0  0  0  0  0  0  0  0  0  0  0  0
  188.4320  176.0100  136.5390 C   0  0  1  0  0  3  0  0  0  0  0  0
  188.6010  178.6280  139.1440 C   0  0  0  0  0  2  0  0  0  0  0  0
  190.5710  177.2850  139.9730 N   0  0  0  0  0  2  0  0  0  0  0  0
  187.4480  173.5950  135.3120 C   0  0  0  0  0  0  0  0  0  0  0  0
  190.8760  175.4730  135.8370 C   0  0  0  0  0  0  0  0  0  0  0  0
  186.2860  176.6210  135.7250 C   0  0  2  0  0  3  0  0  0  0  0  0
  189.1810  178.4410  141.4630 N   0  0  0  0  0  2  0  0  0  0  0  0
  187.5360  174.8290  134.5940 N   0  0  0  0  0  2  0  0  0  0  0  0
  192.0190  176.0060  135.2250 C   0  0  0  0  0  3  0  0  0  0  0  0
  191.7890  173.2400  135.4690 C   0  0  0  0  0  3  0  0  0  0  0  0
  192.9210  173.7950  134.8710 C   0  0  0  0  0  3  0  0  0  0  0  0
  188.6700  172.7600  135.4960 C   0  0  0  0  0  2  0  0  0  0  0  0
  187.8200  176.8560  137.5680 N   0  0  1  0  0  0  0  0  0  0  0  0
  187.6270  176.1220  135.2650 C   0  0  2  0  0  3  0  0  0  0  0  0
  188.7940  177.9210  137.7990 C   0  0  2  0  0  3  0  0  0  0  0  0
  185.4640  177.3560  137.9500 C   0  0  0  0  0  1  0  0  0  0  0  0
  189.8530  176.4830  136.3150 C   0  0  2  0  0  3  0  0  0  0  0  0
  1  6  1  0  0  0  0
  3 17  1  0  0  0  0
  4 22  2  0  0  0  0
  4 20  1  0  0  0  0
  5 24  1  0  0  0  0
  5 27  1  1  0  0  0
  8  7  1  6  0  0  0
  8  2  1  0  0  0  0
  8 14  1  0  0  0  0
  9 18  2  0  0  0  0
 10 26  1  0  0  0  0
 10  8  1  0  0  0  0
 12 24  1  0  0  0  0
 13  9  1  0  0  0  0
 14  9  1  0  0  0  0
 15 23  1  0  0  0  0
 15 11  2  0  0  0  0
 16  1  1  0  0  0  0
 16 28  1  0  0  0  0
 17  5  1  0  0  0  0
 19 25  1  0  0  0  0
 19 15  1  0  0  0  0
 20 16  2  0  0  0  0
 21  1  2  0  0  0  0
 22 21  1  0  0  0  0
 23  6  1  0  0  0  0
 24 26  1  0  0  0  0
 25 17  1  0  0  0  0
 25 12  1  0  0  0  0
 26 13  1  0  0  0  0
 28 12  1  0  0  0  0
 28 10  1  0  0  0  0
M  END
>  <MODEL>
7

>  <REMARK>
 VINA RESULT:      -5.2      4.603      8.962
  Name = 
  0 active torsions:
  status: ('A' for Active; 'I' for Inactive)
                            x       y       z     vdW  Elec       q    Type
                         _______ _______ _______ _____ _____    ______ ____

>  <TORSDO>
F 0

$$$$
=
 OpenBabel11122412003D

 28 32  0  0  1  0  0  0  0  0999 V2000
  190.1510  177.1430  138.1660 C   0  0  0  0  0  0  0  0  0  0  0  0
  189.4200  174.0130  137.6820 F   0  0  0  0  0  0  0  0  0  0  0  0
  194.9890  175.2520  134.6320 C   0  0  0  0  0  1  0  0  0  0  0  0
  188.5150  178.9100  136.7180 C   0  0  0  0  0  3  0  0  0  0  0  0
  193.1700  173.6750  135.2670 C   0  0  2  0  0  3  0  0  0  0  0  0
  191.0150  176.2630  139.0210 C   0  0  0  0  0  2  0  0  0  0  0  0
  187.5490  174.9920  136.6310 C   0  0  0  0  0  1  0  0  0  0  0  0
  188.7810  174.1240  136.4590 C   0  0  1  0  0  0  0  0  0  0  0  0
  189.2260  171.8630  135.4430 C   0  0  0  0  0  0  0  0  0  0  0  0
  189.7210  174.7480  135.3900 C   0  0  2  0  0  3  0  0  0  0  0  0
  194.2180  175.5180  139.0320 O   0  0  0  0  0  0  0  0  0  0  0  0
  191.8340  175.1660  136.4850 C   0  0  1  0  0  3  0  0  0  0  0  0
  190.3550  172.3510  134.5990 C   0  0  0  0  0  2  0  0  0  0  0  0
  188.3410  172.7980  136.0530 N   0  0  0  0  0  2  0  0  0  0  0  0
  193.4470  176.3820  138.5410 C   0  0  0  0  0  0  0  0  0  0  0  0
  189.9740  176.9600  136.7640 C   0  0  0  0  0  0  0  0  0  0  0  0
  194.0630  174.8040  135.7470 C   0  0  2  0  0  3  0  0  0  0  0  0
  188.8660  170.6270  135.3450 N   0  0  0  0  0  2  0  0  0  0  0  0
  193.5680  176.7530  137.1650 N   0  0  0  0  0  2  0  0  0  0  0  0
  189.1580  177.8590  136.0630 C   0  0  0  0  0  3  0  0  0  0  0  0
  189.4950  178.2030  138.8080 C   0  0  0  0  0  3  0  0  0  0  0  0
  188.6820  179.0800  138.0910 C   0  0  0  0  0  3  0  0  0  0  0  0
  192.3370  176.9470  139.3630 C   0  0  0  0  0  2  0  0  0  0  0  0
  191.8790  173.8060  135.9400 N   0  0  1  0  0  0  0  0  0  0  0  0
  193.0910  175.9010  136.0790 C   0  0  2  0  0  3  0  0  0  0  0  0
  190.8120  173.7730  134.9410 C   0  0  2  0  0  3  0  0  0  0  0  0
  193.7980  172.3380  135.6150 C   0  0  0  0  0  1  0  0  0  0  0  0
  190.6080  175.8620  135.9330 C   0  0  2  0  0  3  0  0  0  0  0  0
  1 21  1  0  0  0  0
  1  6  1  0  0  0  0
  3 17  1  0  0  0  0
  4 22  1  0  0  0  0
  5 27  1  1  0  0  0
  5 17  1  0  0  0  0
  5 24  1  0  0  0  0
  6 23  1  0  0  0  0
  8  7  1  1  0  0  0
  8  2  1  0  0  0  0
  9 14  1  0  0  0  0
 10 28  1  0  0  0  0
 10  8  1  0  0  0  0
 13 26  1  0  0  0  0
 13  9  1  0  0  0  0
 14  8  1  0  0  0  0
 15 11  2  0  0  0  0
 15 23  1  0  0  0  0
 16  1  2  0  0  0  0
 17 25  1  0  0  0  0
 18  9  2  0  0  0  0
 19 15  1  0  0  0  0
 20  4  2  0  0  0  0
 20 16  1  0  0  0  0
 22 21  2  0  0  0  0
 24 12  1  0  0  0  0
 25 12  1  0  0  0  0
 25 19  1  0  0  0  0
 26 10  1  0  0  0  0
 26 24  1  0  0  0  0
 28 12  1  0  0  0  0
 28 16  1  0  0  0  0
M  END
>  <MODEL>
8

>  <REMARK>
 VINA RESULT:      -5.1      6.309      8.398
  Name = 
  0 active torsions:
  status: ('A' for Active; 'I' for Inactive)
                            x       y       z     vdW  Elec       q    Type
                         _______ _______ _______ _____ _____    ______ ____

>  <TORSDO>
F 0

$$$$
=
 OpenBabel11122412003D

 28 32  0  0  1  0  0  0  0  0999 V2000
  181.4040  178.2290  141.4250 C   0  0  0  0  0  0  0  0  0  0  0  0
  181.3190  175.2530  140.1210 F   0  0  0  0  0  0  0  0  0  0  0  0
  181.1810  179.5510  135.2880 C   0  0  0  0  0  1  0  0  0  0  0  0
  178.9990  178.9710  142.6740 C   0  0  0  0  0  3  0  0  0  0  0  0
  181.1740  177.1960  136.0940 C   0  0  2  0  0  3  0  0  0  0  0  0
  182.7390  177.8730  140.8400 C   0  0  0  0  0  2  0  0  0  0  0  0
  179.3060  175.1720  141.3470 C   0  0  0  0  0  1  0  0  0  0  0  0
  179.9490  175.1170  139.9750 C   0  0  1  0  0  0  0  0  0  0  0  0
  179.7980  173.5480  138.0100 C   0  0  0  0  0  0  0  0  0  0  0  0
  179.3670  176.2420  139.0740 C   0  0  2  0  0  3  0  0  0  0  0  0
  184.4700  178.9580  138.2630 O   0  0  0  0  0  0  0  0  0  0  0  0
  181.2310  177.6220  138.3970 C   0  0  1  0  0  3  0  0  0  0  0  0
  179.5270  174.6400  137.0300 C   0  0  0  0  0  2  0  0  0  0  0  0
  179.6800  173.8050  139.4060 N   0  0  0  0  0  2  0  0  0  0  0  0
  183.4910  179.3170  138.9680 C   0  0  0  0  0  0  0  0  0  0  0  0
  180.1710  178.1080  140.7210 C   0  0  0  0  0  0  0  0  0  0  0  0
  181.7700  178.5780  136.2900 C   0  0  2  0  0  3  0  0  0  0  0  0
  179.8080  172.3270  137.5930 N   0  0  0  0  0  2  0  0  0  0  0  0
  182.3050  179.8190  138.3460 N   0  0  0  0  0  2  0  0  0  0  0  0
  178.9860  178.4920  141.3630 C   0  0  0  0  0  3  0  0  0  0  0  0
  181.3980  178.7090  142.7420 C   0  0  0  0  0  3  0  0  0  0  0  0
  180.2050  179.0770  143.3640 C   0  0  0  0  0  3  0  0  0  0  0  0
  183.5240  179.1230  140.4460 C   0  0  0  0  0  2  0  0  0  0  0  0
  181.0870  176.5530  137.4040 N   0  0  1  0  0  0  0  0  0  0  0  0
  181.3400  178.9490  137.6810 C   0  0  2  0  0  3  0  0  0  0  0  0
  179.7300  176.0470  137.6000 C   0  0  2  0  0  3  0  0  0  0  0  0
  182.0650  176.3760  135.1780 C   0  0  0  0  0  1  0  0  0  0  0  0
  180.0150  177.6020  139.3010 C   0  0  2  0  0  3  0  0  0  0  0  0
  1 21  1  0  0  0  0
  3 17  1  0  0  0  0
  4 22  1  0  0  0  0
  5 27  1  6  0  0  0
  5 17  1  0  0  0  0
  5 24  1  0  0  0  0
  6  1  1  0  0  0  0
  8  2  1  0  0  0  0
  8  7  1  1  0  0  0
  9 14  1  0  0  0  0
 10 28  1  0  0  0  0
 10  8  1  0  0  0  0
 11 15  2  0  0  0  0
 12 28  1  0  0  0  0
 13 26  1  0  0  0  0
 13  9  1  0  0  0  0
 14  8  1  0  0  0  0
 15 23  1  0  0  0  0
 16 20  1  0  0  0  0
 16  1  2  0  0  0  0
 17 25  1  0  0  0  0
 18  9  2  0  0  0  0
 19 15  1  0  0  0  0
 20  4  2  0  0  0  0
 21 22  2  0  0  0  0
 23  6  1  0  0  0  0
 24 26  1  0  0  0  0
 24 12  1  0  0  0  0
 25 19  1  0  0  0  0
 25 12  1  0  0  0  0
 26 10  1  0  0  0  0
 28 16  1  0  0  0  0
M  END
>  <MODEL>
9

>  <REMARK>
 VINA RESULT:      -5.0      2.454      3.190
  Name = 
  0 active torsions:
  status: ('A' for Active; 'I' for Inactive)
                            x       y       z     vdW  Elec       q    Type
                         _______ _______ _______ _____ _____    ______ ____

>  <TORSDO>
F 0

$$$$
