=
 OpenBabel11122410513D

 32 37  0  0  1  0  0  0  0  0999 V2000
  191.2770  176.1240  137.2930 C   0  0  0  0  0  2  0  0  0  0  0  0
  189.2170  178.1740  141.8730 C   0  0  2  0  0  3  0  0  0  0  0  0
  184.2550  178.9570  141.7730 C   0  0  0  0  0  3  0  0  0  0  0  0
  184.1560  178.4650  143.0740 C   0  0  0  0  0  3  0  0  0  0  0  0
  190.3270  178.0540  144.1780 C   0  0  2  0  0  3  0  0  0  0  0  0
  189.9720  178.1760  145.6490 C   0  0  2  0  0  3  0  0  0  0  0  0
  189.8800  176.5420  140.0520 C   0  0  1  0  0  3  0  0  0  0  0  0
  187.8900  178.0600  139.6680 C   0  0  0  0  0  2  0  0  0  0  0  0
  188.8490  177.1430  147.4370 C   0  0  2  0  0  3  0  0  0  0  0  0
  189.1420  177.1850  137.6740 C   0  0  0  0  0  2  0  0  0  0  0  0
  185.4990  179.0190  141.1440 C   0  0  0  0  0  3  0  0  0  0  0  0
  187.9890  178.6850  141.0730 C   0  0  1  0  0  3  0  0  0  0  0  0
  186.6610  178.5840  141.8010 C   0  0  0  0  0  0  0  0  0  0  0  0
  187.7880  177.6590  143.8850 C   0  0  2  0  0  3  0  0  0  0  0  0
  190.3230  177.2240  147.7040 C   0  0  0  0  0  2  0  0  0  0  0  0
  191.9060  176.8580  138.4890 C   0  0  0  0  0  2  0  0  0  0  0  0
  189.2520  177.6260  139.1430 C   0  0  2  0  0  3  0  0  0  0  0  0
  190.9710  177.7750  146.6750 C   0  0  0  0  0  2  0  0  0  0  0  0
  191.3960  176.3870  139.8560 C   0  0  0  0  0  2  0  0  0  0  0  0
  189.8310  175.9160  137.4250 N   0  0  0  0  0  0  0  0  0  0  0  0
  185.3030  178.0500  143.7520 C   0  0  0  0  0  3  0  0  0  0  0  0
  186.5650  178.1300  143.1410 C   0  0  0  0  0  0  0  0  0  0  0  0
  187.6240  177.7940  145.3440 N   0  0  0  0  0  2  0  0  0  0  0  0
  189.5480  176.7150  141.5380 C   0  0  0  0  0  2  0  0  0  0  0  0
  191.4390  179.0330  143.8370 C   0  0  0  0  0  1  0  0  0  0  0  0
  188.3140  175.7960  147.8790 C   0  0  0  0  0  1  0  0  0  0  0  0
  189.0520  178.4060  143.3750 C   0  0  2  0  0  3  0  0  0  0  0  0
  188.8340  177.2410  145.9300 C   0  0  1  0  0  3  0  0  0  0  0  0
  189.3530  175.4260  136.1430 C   0  0  0  0  0  2  0  0  0  0  0  0
  188.7000  174.0650  136.3140 C   0  0  2  0  0  3  0  0  0  0  0  0
  187.2700  174.2500  136.7760 C   0  0  0  0  0  1  0  0  0  0  0  0
  189.3990  173.3200  137.2640 O   0  0  0  0  0  1  0  0  0  0  0  0
  1 20  1  0  0  0  0
  1 16  1  0  0  0  0
  2 24  1  1  0  0  0
  2 27  1  0  0  0  0
  3  4  1  0  0  0  0
  4 21  2  0  0  0  0
  5 25  1  6  0  0  0
  5  6  1  0  0  0  0
  6 28  1  0  0  0  0
  6 18  1  1  0  0  0
  7 19  1  1  0  0  0
  7 24  1  0  0  0  0
  9 15  1  0  0  0  0
  9 26  1  6  0  0  0
 11  3  2  0  0  0  0
 11 13  1  0  0  0  0
 12  8  1  6  0  0  0
 12 13  1  0  0  0  0
 12  2  1  0  0  0  0
 13 22  2  0  0  0  0
 14 22  1  6  0  0  0
 14 23  1  0  0  0  0
 16 19  1  0  0  0  0
 17 10  1  6  0  0  0
 17  8  1  0  0  0  0
 17  7  1  0  0  0  0
 18 15  1  0  0  0  0
 20 10  1  0  0  0  0
 22 21  1  0  0  0  0
 23 28  1  0  0  0  0
 27 14  1  0  0  0  0
 27  5  1  0  0  0  0
 28  9  1  0  0  0  0
 29 30  1  0  0  0  0
 29 20  1  0  0  0  0
 30 31  1  0  0  0  0
 30 32  1  0  0  0  0
M  END
>  <MODEL>
1

>  <REMARK>
 VINA RESULT:      -8.5      0.000      0.000
  Name = 
  2 active torsions:
  status: ('A' for Active; 'I' for Inactive)
    1  A    between atoms: N_20  and  C_29
    2  A    between atoms: C_29  and  C_30
                            x       y       z     vdW  Elec       q    Type
                         _______ _______ _______ _____ _____    ______ ____

>  <TORSDO>
F 2

$$$$
=
 OpenBabel11122410513D

 32 37  0  0  1  0  0  0  0  0999 V2000
  188.0270  177.4960  146.5530 C   0  0  0  0  0  2  0  0  0  0  0  0
  188.8140  177.9050  141.2020 C   0  0  2  0  0  3  0  0  0  0  0  0
  193.5550  177.1590  139.7170 C   0  0  0  0  0  3  0  0  0  0  0  0
  193.0930  176.4190  138.6300 C   0  0  0  0  0  3  0  0  0  0  0  0
  186.9900  177.6840  139.4180 C   0  0  2  0  0  3  0  0  0  0  0  0
  186.8420  177.4070  137.9320 C   0  0  2  0  0  3  0  0  0  0  0  0
  188.4600  176.9320  143.5140 C   0  0  1  0  0  3  0  0  0  0  0  0
  190.7500  177.8240  142.9000 C   0  0  0  0  0  2  0  0  0  0  0  0
  187.0280  175.7590  136.2670 C   0  0  2  0  0  3  0  0  0  0  0  0
  190.0870  177.7690  145.3230 C   0  0  0  0  0  2  0  0  0  0  0  0
  192.6460  177.7140  140.6190 C   0  0  0  0  0  3  0  0  0  0  0  0
  190.3220  178.1670  141.4600 C   0  0  1  0  0  3  0  0  0  0  0  0
  191.2640  177.5310  140.4540 C   0  0  0  0  0  0  0  0  0  0  0  0
  189.3190  176.6050  139.1030 C   0  0  2  0  0  3  0  0  0  0  0  0
  185.6090  176.2280  136.4030 C   0  0  0  0  0  2  0  0  0  0  0  0
  187.2120  178.1410  145.4200 C   0  0  0  0  0  2  0  0  0  0  0  0
  189.5860  177.9310  143.8780 C   0  0  2  0  0  3  0  0  0  0  0  0
  185.4910  177.1360  137.3740 C   0  0  0  0  0  2  0  0  0  0  0  0
  187.1070  177.2830  144.1530 C   0  0  0  0  0  2  0  0  0  0  0  0
  189.2570  176.8400  146.0940 N   0  0  0  0  0  0  0  0  0  0  0  0
  191.7220  176.2470  138.4350 C   0  0  0  0  0  3  0  0  0  0  0  0
  190.7950  176.8200  139.3210 C   0  0  0  0  0  0  0  0  0  0  0  0
  189.0040  176.4010  137.6770 N   0  0  0  0  0  2  0  0  0  0  0  0
  188.2970  176.7070  142.0080 C   0  0  0  0  0  2  0  0  0  0  0  0
  186.3100  178.9990  139.7630 C   0  0  0  0  0  1  0  0  0  0  0  0
  187.0630  174.2550  136.0880 C   0  0  0  0  0  1  0  0  0  0  0  0
  188.5070  177.7820  139.7100 C   0  0  2  0  0  3  0  0  0  0  0  0
  187.5760  176.1360  137.6230 C   0  0  1  0  0  3  0  0  0  0  0  0
  190.0180  176.4850  147.2800 C   0  0  0  0  0  2  0  0  0  0  0  0
  191.5010  176.7050  147.0340 C   0  0  2  0  0  3  0  0  0  0  0  0
  192.1500  175.3860  146.6730 C   0  0  0  0  0  1  0  0  0  0  0  0
  192.1010  177.2140  148.1860 O   0  0  0  0  0  1  0  0  0  0  0  0
  2 12  1  0  0  0  0
  2 24  1  1  0  0  0
  3 11  1  0  0  0  0
  4  3  2  0  0  0  0
  5 27  1  0  0  0  0
  5 25  1  6  0  0  0
  6 18  1  1  0  0  0
  6  5  1  0  0  0  0
  7 24  1  6  0  0  0
  7 17  1  0  0  0  0
  7 19  1  0  0  0  0
  9 26  1  1  0  0  0
  9 15  1  0  0  0  0
  9 28  1  0  0  0  0
 10 20  1  0  0  0  0
 12  8  1  1  0  0  0
 13 11  2  0  0  0  0
 13 12  1  0  0  0  0
 14 23  1  6  0  0  0
 14 22  1  0  0  0  0
 14 27  1  0  0  0  0
 15 18  1  0  0  0  0
 16  1  1  0  0  0  0
 17  8  1  6  0  0  0
 17 10  1  0  0  0  0
 19 16  1  0  0  0  0
 20  1  1  0  0  0  0
 20 29  1  0  0  0  0
 21  4  1  0  0  0  0
 21 22  2  0  0  0  0
 22 13  1  0  0  0  0
 27  2  1  0  0  0  0
 28 23  1  0  0  0  0
 28  6  1  0  0  0  0
 30 29  1  0  0  0  0
 30 32  1  0  0  0  0
 31 30  1  0  0  0  0
M  END
>  <MODEL>
2

>  <REMARK>
 VINA RESULT:      -8.0      2.602      8.239
  Name = 
  2 active torsions:
  status: ('A' for Active; 'I' for Inactive)
    1  A    between atoms: N_20  and  C_29
    2  A    between atoms: C_29  and  C_30
                            x       y       z     vdW  Elec       q    Type
                         _______ _______ _______ _____ _____    ______ ____

>  <TORSDO>
F 2

$$$$
=
 OpenBabel11122410513D

 32 37  0  0  1  0  0  0  0  0999 V2000
  184.7840  178.7500  145.0980 C   0  0  0  0  0  2  0  0  0  0  0  0
  183.7700  178.9930  139.7750 C   0  0  2  0  0  3  0  0  0  0  0  0
  187.5750  177.5160  136.8470 C   0  0  0  0  0  3  0  0  0  0  0  0
  186.6730  176.8470  136.0200 C   0  0  0  0  0  3  0  0  0  0  0  0
  181.4400  179.0400  138.7140 C   0  0  2  0  0  3  0  0  0  0  0  0
  180.7610  178.7780  137.3810 C   0  0  2  0  0  3  0  0  0  0  0  0
  184.0820  178.1030  142.1270 C   0  0  1  0  0  3  0  0  0  0  0  0
  186.1330  178.6280  140.7360 C   0  0  0  0  0  2  0  0  0  0  0  0
  180.1380  177.1080  135.8490 C   0  0  2  0  0  3  0  0  0  0  0  0
  186.3240  178.6940  143.2400 C   0  0  0  0  0  2  0  0  0  0  0  0
  187.1130  178.2100  137.9650 C   0  0  0  0  0  3  0  0  0  0  0  0
  185.2970  179.0210  139.5020 C   0  0  1  0  0  3  0  0  0  0  0  0
  185.7450  178.2410  138.2800 C   0  0  0  0  0  0  0  0  0  0  0  0
  183.3470  177.6140  137.7080 C   0  0  2  0  0  3  0  0  0  0  0  0
  178.9310  177.7910  136.4200 C   0  0  0  0  0  2  0  0  0  0  0  0
  183.7350  179.5040  144.2650 C   0  0  0  0  0  2  0  0  0  0  0  0
  185.3940  178.9200  142.0360 C   0  0  2  0  0  3  0  0  0  0  0  0
  179.2770  178.7130  137.3200 C   0  0  0  0  0  2  0  0  0  0  0  0
  183.0880  178.6630  143.1570 C   0  0  0  0  0  2  0  0  0  0  0  0
  185.6800  177.9090  144.2960 N   0  0  0  0  0  0  0  0  0  0  0  0
  185.3070  176.8860  136.3030 C   0  0  0  0  0  3  0  0  0  0  0  0
  184.8250  177.6010  137.4100 C   0  0  0  0  0  0  0  0  0  0  0  0
  182.5440  177.4490  136.4820 N   0  0  0  0  0  2  0  0  0  0  0  0
  183.3910  177.8940  140.7760 C   0  0  0  0  0  2  0  0  0  0  0  0
  181.1100  180.4470  139.1880 C   0  0  0  0  0  1  0  0  0  0  0  0
  179.8970  175.6150  135.7580 C   0  0  0  0  0  1  0  0  0  0  0  0
  182.9630  178.9070  138.4800 C   0  0  2  0  0  3  0  0  0  0  0  0
  181.1590  177.4070  136.9210 C   0  0  1  0  0  3  0  0  0  0  0  0
  186.7380  177.4510  145.1810 C   0  0  0  0  0  2  0  0  0  0  0  0
  188.0900  177.6140  144.5070 C   0  0  2  0  0  3  0  0  0  0  0  0
  188.3940  176.3790  143.6870 C   0  0  0  0  0  1  0  0  0  0  0  0
  189.0830  177.7830  145.4720 O   0  0  0  0  0  1  0  0  0  0  0  0
  2 24  1  1  0  0  0
  3 11  1  0  0  0  0
  4 21  1  0  0  0  0
  4  3  2  0  0  0  0
  5 25  1  6  0  0  0
  6 18  1  1  0  0  0
  6  5  1  0  0  0  0
  7 24  1  6  0  0  0
  7 19  1  0  0  0  0
  9 26  1  1  0  0  0
  9 15  1  0  0  0  0
  9 28  1  0  0  0  0
 10 20  1  0  0  0  0
 11 13  2  0  0  0  0
 12  2  1  0  0  0  0
 12  8  1  1  0  0  0
 13 12  1  0  0  0  0
 14 23  1  6  0  0  0
 14 27  1  0  0  0  0
 15 18  1  0  0  0  0
 16  1  1  0  0  0  0
 17  8  1  6  0  0  0
 17  7  1  0  0  0  0
 17 10  1  0  0  0  0
 19 16  1  0  0  0  0
 20  1  1  0  0  0  0
 20 29  1  0  0  0  0
 21 22  2  0  0  0  0
 22 14  1  0  0  0  0
 22 13  1  0  0  0  0
 23 28  1  0  0  0  0
 27  5  1  0  0  0  0
 27  2  1  0  0  0  0
 28  6  1  0  0  0  0
 30 29  1  0  0  0  0
 30 32  1  0  0  0  0
 31 30  1  0  0  0  0
M  END
>  <MODEL>
3

>  <REMARK>
 VINA RESULT:      -7.5      4.219      9.293
  Name = 
  2 active torsions:
  status: ('A' for Active; 'I' for Inactive)
    1  A    between atoms: N_20  and  C_29
    2  A    between atoms: C_29  and  C_30
                            x       y       z     vdW  Elec       q    Type
                         _______ _______ _______ _____ _____    ______ ____

>  <TORSDO>
F 2

$$$$
=
 OpenBabel11122410513D

 32 37  0  0  1  0  0  0  0  0999 V2000
  189.8820  177.0250  146.6580 C   0  0  0  0  0  2  0  0  0  0  0  0
  186.7590  178.6870  142.5460 C   0  0  2  0  0  3  0  0  0  0  0  0
  188.9830  178.5620  138.0420 C   0  0  0  0  0  3  0  0  0  0  0  0
  187.8070  178.0640  137.4810 C   0  0  0  0  0  3  0  0  0  0  0  0
  184.2000  178.7780  142.5740 C   0  0  2  0  0  3  0  0  0  0  0  0
  183.0260  178.8390  141.6140 C   0  0  2  0  0  3  0  0  0  0  0  0
  188.0000  177.1940  144.1740 C   0  0  1  0  0  3  0  0  0  0  0  0
  189.3010  178.3270  142.3190 C   0  0  0  0  0  2  0  0  0  0  0  0
  181.7940  177.6270  140.0210 C   0  0  2  0  0  3  0  0  0  0  0  0
  190.5130  177.6850  144.4230 C   0  0  0  0  0  2  0  0  0  0  0  0
  189.0380  178.8450  139.4080 C   0  0  0  0  0  3  0  0  0  0  0  0
  188.0370  178.9650  141.7100 C   0  0  1  0  0  3  0  0  0  0  0  0
  187.9240  178.6290  140.2340 C   0  0  0  0  0  0  0  0  0  0  0  0
  185.4930  177.9290  140.5020 C   0  0  2  0  0  3  0  0  0  0  0  0
  180.9440  177.9730  141.2070 C   0  0  0  0  0  2  0  0  0  0  0  0
  188.5950  177.8650  146.5920 C   0  0  0  0  0  2  0  0  0  0  0  0
  189.1720  178.1440  143.8260 C   0  0  2  0  0  3  0  0  0  0  0  0
  181.6490  178.6280  142.1320 C   0  0  0  0  0  2  0  0  0  0  0  0
  187.5330  177.3140  145.6320 C   0  0  0  0  0  2  0  0  0  0  0  0
  190.3490  176.5600  145.3480 N   0  0  0  0  0  0  0  0  0  0  0  0
  186.6820  177.8660  138.2820 C   0  0  0  0  0  3  0  0  0  0  0  0
  186.7150  178.1700  139.6520 C   0  0  0  0  0  0  0  0  0  0  0  0
  184.2520  178.0380  139.7130 N   0  0  0  0  0  2  0  0  0  0  0  0
  186.8080  177.3100  143.2190 C   0  0  0  0  0  2  0  0  0  0  0  0
  184.1220  179.9390  143.5510 C   0  0  0  0  0  1  0  0  0  0  0  0
  181.5090  176.2070  139.5740 C   0  0  0  0  0  1  0  0  0  0  0  0
  185.4870  178.8900  141.7230 C   0  0  2  0  0  3  0  0  0  0  0  0
  183.1720  177.7140  140.6320 C   0  0  1  0  0  3  0  0  0  0  0  0
  191.6700  175.9870  145.5470 C   0  0  0  0  0  2  0  0  0  0  0  0
  192.0620  175.1460  144.3440 C   0  0  2  0  0  3  0  0  0  0  0  0
  190.8580  174.9670  143.4430 C   0  0  0  0  0  1  0  0  0  0  0  0
  192.5120  173.8950  144.7660 O   0  0  0  0  0  1  0  0  0  0  0  0
  2 24  1  6  0  0  0
  3 11  1  0  0  0  0
  4  3  2  0  0  0  0
  4 21  1  0  0  0  0
  5 25  1  1  0  0  0
  6 18  1  1  0  0  0
  6  5  1  0  0  0  0
  7 24  1  6  0  0  0
  7 19  1  0  0  0  0
  9 26  1  1  0  0  0
  9 28  1  0  0  0  0
  9 15  1  0  0  0  0
 10 20  1  0  0  0  0
 11 13  2  0  0  0  0
 12  8  1  1  0  0  0
 12  2  1  0  0  0  0
 13 12  1  0  0  0  0
 14 22  1  6  0  0  0
 14 27  1  0  0  0  0
 15 18  1  0  0  0  0
 16  1  1  0  0  0  0
 17  8  1  6  0  0  0
 17  7  1  0  0  0  0
 17 10  1  0  0  0  0
 19 16  1  0  0  0  0
 20 29  1  0  0  0  0
 20  1  1  0  0  0  0
 21 22  2  0  0  0  0
 22 13  1  0  0  0  0
 23 14  1  0  0  0  0
 23 28  1  0  0  0  0
 27  2  1  0  0  0  0
 27  5  1  0  0  0  0
 28  6  1  0  0  0  0
 30 32  1  0  0  0  0
 30 29  1  0  0  0  0
 31 30  1  0  0  0  0
M  END
>  <MODEL>
4

>  <REMARK>
 VINA RESULT:      -7.3      2.699      7.058
  Name = 
  2 active torsions:
  status: ('A' for Active; 'I' for Inactive)
    1  A    between atoms: N_20  and  C_29
    2  A    between atoms: C_29  and  C_30
                            x       y       z     vdW  Elec       q    Type
                         _______ _______ _______ _____ _____    ______ ____

>  <TORSDO>
F 2

$$$$
=
 OpenBabel11122410513D

 32 37  0  0  1  0  0  0  0  0999 V2000
  182.0420  179.2800  139.6440 C   0  0  0  0  0  2  0  0  0  0  0  0
  187.4060  178.4800  139.7710 C   0  0  2  0  0  3  0  0  0  0  0  0
  189.2220  177.1570  144.2640 C   0  0  0  0  0  3  0  0  0  0  0  0
  190.0590  176.2270  143.6470 C   0  0  0  0  0  3  0  0  0  0  0  0
  188.8760  177.9860  137.7340 C   0  0  2  0  0  3  0  0  0  0  0  0
  190.2370  177.4050  137.3920 C   0  0  2  0  0  3  0  0  0  0  0  0
  184.9110  178.0500  139.6770 C   0  0  1  0  0  3  0  0  0  0  0  0
  185.9640  178.6540  141.9000 C   0  0  0  0  0  2  0  0  0  0  0  0
  191.5070  175.4280  137.3170 C   0  0  2  0  0  3  0  0  0  0  0  0
  183.5300  179.1610  141.5420 C   0  0  0  0  0  2  0  0  0  0  0  0
  188.3670  177.9440  143.4930 C   0  0  0  0  0  3  0  0  0  0  0  0
  187.3860  178.7030  141.3070 C   0  0  1  0  0  3  0  0  0  0  0  0
  188.3280  177.8110  142.0960 C   0  0  0  0  0  0  0  0  0  0  0  0
  189.2100  176.7310  139.9700 C   0  0  2  0  0  3  0  0  0  0  0  0
  191.3160  175.9970  135.9420 C   0  0  0  0  0  2  0  0  0  0  0  0
  183.1890  179.7120  138.7150 C   0  0  0  0  0  2  0  0  0  0  0  0
  184.9080  179.0370  140.8700 C   0  0  2  0  0  3  0  0  0  0  0  0
  190.5630  177.0980  135.9750 C   0  0  0  0  0  2  0  0  0  0  0  0
  184.2150  178.6090  138.4260 C   0  0  0  0  0  2  0  0  0  0  0  0
  182.4830  178.4700  140.7850 N   0  0  0  0  0  0  0  0  0  0  0  0
  190.0520  176.0980  142.2580 C   0  0  0  0  0  3  0  0  0  0  0  0
  189.2150  176.9010  141.4670 C   0  0  0  0  0  0  0  0  0  0  0  0
  190.5090  176.2420  139.4730 N   0  0  0  0  0  2  0  0  0  0  0  0
  186.3010  177.5160  139.3210 C   0  0  0  0  0  2  0  0  0  0  0  0
  188.7540  179.3810  137.1440 C   0  0  0  0  0  1  0  0  0  0  0  0
  191.3510  173.9210  137.2820 C   0  0  0  0  0  1  0  0  0  0  0  0
  188.7890  178.0560  139.2770 C   0  0  2  0  0  3  0  0  0  0  0  0
  190.3400  176.0560  138.0410 C   0  0  1  0  0  3  0  0  0  0  0  0
  181.3430  178.3360  141.6770 C   0  0  0  0  0  2  0  0  0  0  0  0
  181.4270  179.3650  142.7910 C   0  0  2  0  0  3  0  0  0  0  0  0
  181.2410  178.6760  144.1260 C   0  0  0  0  0  1  0  0  0  0  0  0
  180.4280  180.3250  142.6250 O   0  0  0  0  0  1  0  0  0  0  0  0
  1 20  1  0  0  0  0
  2 24  1  1  0  0  0
  2 12  1  0  0  0  0
  4  3  1  0  0  0  0
  5 25  1  6  0  0  0
  5 27  1  0  0  0  0
  6 18  1  6  0  0  0
  6  5  1  0  0  0  0
  6 28  1  0  0  0  0
  7 19  1  6  0  0  0
  7 17  1  0  0  0  0
  9 26  1  6  0  0  0
  9 28  1  0  0  0  0
 11  3  2  0  0  0  0
 12  8  1  1  0  0  0
 12 13  1  0  0  0  0
 13 11  1  0  0  0  0
 14 23  1  6  0  0  0
 14 22  1  0  0  0  0
 15 18  1  0  0  0  0
 15  9  1  0  0  0  0
 16  1  1  0  0  0  0
 17 10  1  1  0  0  0
 17  8  1  0  0  0  0
 19 16  1  0  0  0  0
 20 10  1  0  0  0  0
 20 29  1  0  0  0  0
 21  4  2  0  0  0  0
 22 13  2  0  0  0  0
 22 21  1  0  0  0  0
 24  7  1  0  0  0  0
 27  2  1  0  0  0  0
 27 14  1  0  0  0  0
 28 23  1  0  0  0  0
 29 30  1  0  0  0  0
 30 31  1  0  0  0  0
 32 30  1  0  0  0  0
M  END
>  <MODEL>
5

>  <REMARK>
 VINA RESULT:      -6.7      3.184      7.667
  Name = 
  2 active torsions:
  status: ('A' for Active; 'I' for Inactive)
    1  A    between atoms: N_20  and  C_29
    2  A    between atoms: C_29  and  C_30
                            x       y       z     vdW  Elec       q    Type
                         _______ _______ _______ _____ _____    ______ ____

>  <TORSDO>
F 2

$$$$
=
 OpenBabel11122410513D

 32 37  0  0  1  0  0  0  0  0999 V2000
  189.7430  178.0970  145.0170 C   0  0  0  0  0  2  0  0  0  0  0  0
  189.6540  177.2720  139.6570 C   0  0  2  0  0  3  0  0  0  0  0  0
  194.0180  175.7340  137.6990 C   0  0  0  0  0  3  0  0  0  0  0  0
  193.3310  174.8310  136.8890 C   0  0  0  0  0  3  0  0  0  0  0  0
  187.5470  176.8670  138.2570 C   0  0  2  0  0  3  0  0  0  0  0  0
  187.1340  176.2970  136.9120 C   0  0  2  0  0  3  0  0  0  0  0  0
  189.6230  176.8560  142.1560 C   0  0  1  0  0  3  0  0  0  0  0  0
  191.8350  177.3520  141.0260 C   0  0  0  0  0  2  0  0  0  0  0  0
  186.9250  174.3210  135.6560 C   0  0  2  0  0  3  0  0  0  0  0  0
  191.5830  177.8840  143.4670 C   0  0  0  0  0  2  0  0  0  0  0  0
  193.3130  176.5600  138.5760 C   0  0  0  0  0  3  0  0  0  0  0  0
  191.1980  177.4230  139.6240 C   0  0  1  0  0  3  0  0  0  0  0  0
  191.9130  176.4920  138.6620 C   0  0  0  0  0  0  0  0  0  0  0  0
  189.7110  175.5080  137.8570 C   0  0  2  0  0  3  0  0  0  0  0  0
  185.5850  174.9540  135.8890 C   0  0  0  0  0  2  0  0  0  0  0  0
  188.7970  178.5670  143.9000 C   0  0  0  0  0  2  0  0  0  0  0  0
  190.8600  177.7860  142.1130 C   0  0  2  0  0  3  0  0  0  0  0  0
  185.6940  176.0550  136.6350 C   0  0  0  0  0  2  0  0  0  0  0  0
  188.4240  177.4750  142.8900 C   0  0  0  0  0  2  0  0  0  0  0  0
  190.8300  177.2330  144.5430 N   0  0  0  0  0  0  0  0  0  0  0  0
  191.9380  174.7660  136.9420 C   0  0  0  0  0  3  0  0  0  0  0  0
  191.2140  175.6090  137.8010 C   0  0  0  0  0  0  0  0  0  0  0  0
  189.1490  175.0380  136.5770 N   0  0  0  0  0  2  0  0  0  0  0  0
  189.1970  176.3340  140.7810 C   0  0  0  0  0  2  0  0  0  0  0  0
  187.0270  178.2890  138.3910 C   0  0  0  0  0  1  0  0  0  0  0  0
  186.8260  172.8180  135.8210 C   0  0  0  0  0  1  0  0  0  0  0  0
  189.0940  176.8660  138.2930 C   0  0  2  0  0  3  0  0  0  0  0  0
  187.7170  174.9190  136.7950 C   0  0  1  0  0  3  0  0  0  0  0  0
  191.7520  177.0620  145.6540 C   0  0  0  0  0  2  0  0  0  0  0  0
  191.7060  175.6290  146.1550 C   0  0  2  0  0  3  0  0  0  0  0  0
  192.4050  175.5430  147.4950 C   0  0  0  0  0  1  0  0  0  0  0  0
  192.3470  174.7880  145.2460 O   0  0  0  0  0  1  0  0  0  0  0  0
  2 24  1  1  0  0  0
  3 11  1  0  0  0  0
  4 21  1  0  0  0  0
  4  3  2  0  0  0  0
  5 27  1  0  0  0  0
  5 25  1  6  0  0  0
  6 18  1  1  0  0  0
  6  5  1  0  0  0  0
  7 24  1  6  0  0  0
  7 19  1  0  0  0  0
  9 26  1  1  0  0  0
  9 15  1  0  0  0  0
  9 28  1  0  0  0  0
 10 20  1  0  0  0  0
 11 13  2  0  0  0  0
 12  2  1  0  0  0  0
 12  8  1  1  0  0  0
 13 12  1  0  0  0  0
 14 23  1  6  0  0  0
 14 27  1  0  0  0  0
 15 18  1  0  0  0  0
 16  1  1  0  0  0  0
 17  8  1  6  0  0  0
 17  7  1  0  0  0  0
 17 10  1  0  0  0  0
 19 16  1  0  0  0  0
 20  1  1  0  0  0  0
 20 29  1  0  0  0  0
 21 22  2  0  0  0  0
 22 14  1  0  0  0  0
 22 13  1  0  0  0  0
 23 28  1  0  0  0  0
 27  2  1  0  0  0  0
 28  6  1  0  0  0  0
 29 30  1  0  0  0  0
 30 31  1  0  0  0  0
 32 30  1  0  0  0  0
M  END
>  <MODEL>
6

>  <REMARK>
 VINA RESULT:      -6.6      2.586      8.419
  Name = 
  2 active torsions:
  status: ('A' for Active; 'I' for Inactive)
    1  A    between atoms: N_20  and  C_29
    2  A    between atoms: C_29  and  C_30
                            x       y       z     vdW  Elec       q    Type
                         _______ _______ _______ _____ _____    ______ ____

>  <TORSDO>
F 2

$$$$
=
 OpenBabel11122410513D

 32 37  0  0  1  0  0  0  0  0999 V2000
  182.5250  176.8870  136.3650 C   0  0  0  0  0  2  0  0  0  0  0  0
  187.8400  177.4700  137.2790 C   0  0  2  0  0  3  0  0  0  0  0  0
  189.0610  178.3120  142.0800 C   0  0  0  0  0  3  0  0  0  0  0  0
  190.1480  177.4480  141.9500 C   0  0  0  0  0  3  0  0  0  0  0  0
  189.7060  176.6380  135.7360 C   0  0  2  0  0  3  0  0  0  0  0  0
  191.1880  176.3100  135.7720 C   0  0  2  0  0  3  0  0  0  0  0  0
  185.5200  176.4620  137.1330 C   0  0  1  0  0  3  0  0  0  0  0  0
  186.0440  178.0520  139.0340 C   0  0  0  0  0  2  0  0  0  0  0  0
  192.7920  174.7960  136.5850 C   0  0  2  0  0  3  0  0  0  0  0  0
  183.6580  177.8090  138.2880 C   0  0  0  0  0  2  0  0  0  0  0  0
  188.2230  178.5460  140.9890 C   0  0  0  0  0  3  0  0  0  0  0  0
  187.5140  178.2170  138.6000 C   0  0  1  0  0  3  0  0  0  0  0  0
  188.4520  177.9160  139.7560 C   0  0  0  0  0  0  0  0  0  0  0  0
  189.8710  176.3840  138.3040 C   0  0  2  0  0  3  0  0  0  0  0  0
  192.7420  174.7730  135.0860 C   0  0  0  0  0  2  0  0  0  0  0  0
  183.7160  177.2130  135.4500 C   0  0  0  0  0  2  0  0  0  0  0  0
  185.1310  177.7800  137.8450 C   0  0  2  0  0  3  0  0  0  0  0  0
  191.8060  175.6020  134.6200 C   0  0  0  0  0  2  0  0  0  0  0  0
  184.9610  176.3540  135.7060 C   0  0  0  0  0  2  0  0  0  0  0  0
  182.9020  176.6680  137.7660 N   0  0  0  0  0  0  0  0  0  0  0  0
  190.4060  176.8310  140.7250 C   0  0  0  0  0  3  0  0  0  0  0  0
  189.5850  177.0770  139.6120 C   0  0  0  0  0  0  0  0  0  0  0  0
  191.3040  176.0710  138.1560 N   0  0  0  0  0  2  0  0  0  0  0  0
  187.0250  176.1780  137.1400 C   0  0  0  0  0  2  0  0  0  0  0  0
  189.4350  177.6590  134.6430 C   0  0  0  0  0  1  0  0  0  0  0  0
  192.9230  173.3860  137.1230 C   0  0  0  0  0  1  0  0  0  0  0  0
  189.3410  177.2340  137.1160 C   0  0  2  0  0  3  0  0  0  0  0  0
  191.4220  175.3490  136.9000 C   0  0  1  0  0  3  0  0  0  0  0  0
  181.6690  176.5980  138.5320 C   0  0  0  0  0  2  0  0  0  0  0  0
  181.3600  177.9520  139.1490 C   0  0  2  0  0  3  0  0  0  0  0  0
  180.9660  177.7650  140.5990 C   0  0  0  0  0  1  0  0  0  0  0  0
  180.3090  178.5570  138.4600 O   0  0  0  0  0  1  0  0  0  0  0  0
  1 20  1  0  0  0  0
  2 24  1  1  0  0  0
  2 12  1  0  0  0  0
  4  3  1  0  0  0  0
  5 25  1  6  0  0  0
  5  6  1  0  0  0  0
  5 27  1  0  0  0  0
  6 18  1  6  0  0  0
  6 28  1  0  0  0  0
  7 19  1  6  0  0  0
  7 24  1  0  0  0  0
  7 17  1  0  0  0  0
  9 28  1  0  0  0  0
  9 26  1  1  0  0  0
 11  3  2  0  0  0  0
 12  8  1  1  0  0  0
 12 13  1  0  0  0  0
 13 11  1  0  0  0  0
 14 23  1  6  0  0  0
 14 22  1  0  0  0  0
 15  9  1  0  0  0  0
 16 19  1  0  0  0  0
 16  1  1  0  0  0  0
 17 10  1  1  0  0  0
 17  8  1  0  0  0  0
 18 15  1  0  0  0  0
 20 10  1  0  0  0  0
 20 29  1  0  0  0  0
 21  4  2  0  0  0  0
 22 13  2  0  0  0  0
 22 21  1  0  0  0  0
 27  2  1  0  0  0  0
 27 14  1  0  0  0  0
 28 23  1  0  0  0  0
 29 30  1  0  0  0  0
 30 31  1  0  0  0  0
 32 30  1  0  0  0  0
M  END
>  <MODEL>
7

>  <REMARK>
 VINA RESULT:      -6.1      3.724      7.835
  Name = 
  2 active torsions:
  status: ('A' for Active; 'I' for Inactive)
    1  A    between atoms: N_20  and  C_29
    2  A    between atoms: C_29  and  C_30
                            x       y       z     vdW  Elec       q    Type
                         _______ _______ _______ _____ _____    ______ ____

>  <TORSDO>
F 2

$$$$
=
 OpenBabel11122410513D

 32 37  0  0  1  0  0  0  0  0999 V2000
  183.7460  173.9700  135.3230 C   0  0  0  0  0  2  0  0  0  0  0  0
  180.8400  178.2180  137.0340 C   0  0  2  0  0  3  0  0  0  0  0  0
  179.7360  178.1650  141.9350 C   0  0  0  0  0  3  0  0  0  0  0  0
  180.0020  179.5320  142.0050 C   0  0  0  0  0  3  0  0  0  0  0  0
  180.6610  180.4700  135.8290 C   0  0  2  0  0  3  0  0  0  0  0  0
  180.2780  181.9130  136.1060 C   0  0  2  0  0  3  0  0  0  0  0  0
  182.7890  176.6700  136.5620 C   0  0  1  0  0  3  0  0  0  0  0  0
  181.2160  176.1100  138.4670 C   0  0  0  0  0  2  0  0  0  0  0  0
  180.9250  183.8850  137.2090 C   0  0  2  0  0  3  0  0  0  0  0  0
  182.4900  174.2450  137.3660 C   0  0  0  0  0  2  0  0  0  0  0  0
  179.8640  177.4910  140.7200 C   0  0  0  0  0  3  0  0  0  0  0  0
  180.3800  177.3880  138.2620 C   0  0  1  0  0  3  0  0  0  0  0  0
  180.2680  178.1690  139.5590 C   0  0  0  0  0  0  0  0  0  0  0  0
  180.9200  180.3360  138.3980 C   0  0  2  0  0  3  0  0  0  0  0  0
  180.9060  184.0820  135.7220 C   0  0  0  0  0  2  0  0  0  0  0  0
  182.8740  175.0050  134.5940 C   0  0  0  0  0  2  0  0  0  0  0  0
  181.8250  175.6160  137.1600 C   0  0  2  0  0  3  0  0  0  0  0  0
  180.5770  182.9550  135.0890 C   0  0  0  0  0  2  0  0  0  0  0  0
  183.0790  176.4480  135.0690 C   0  0  0  0  0  2  0  0  0  0  0  0
  183.8280  174.1850  136.7720 N   0  0  0  0  0  0  0  0  0  0  0  0
  180.3810  180.2280  140.8560 C   0  0  0  0  0  3  0  0  0  0  0  0
  180.4900  179.5680  139.6220 C   0  0  0  0  0  0  0  0  0  0  0  0
  180.5380  181.7580  138.4860 N   0  0  0  0  0  2  0  0  0  0  0  0
  182.3540  178.1160  136.8130 C   0  0  0  0  0  2  0  0  0  0  0  0
  179.8320  179.9340  134.6730 C   0  0  0  0  0  1  0  0  0  0  0  0
  182.1420  184.5620  137.8070 C   0  0  0  0  0  1  0  0  0  0  0  0
  180.3560  179.6660  137.1150 C   0  0  2  0  0  3  0  0  0  0  0  0
  181.0730  182.3840  137.2880 C   0  0  1  0  0  3  0  0  0  0  0  0
  184.4850  173.0190  137.3380 C   0  0  0  0  0  2  0  0  0  0  0  0
  185.9540  173.3150  137.5840 C   0  0  2  0  0  3  0  0  0  0  0  0
  186.2600  174.7330  137.1520 C   0  0  0  0  0  1  0  0  0  0  0  0
  186.7450  172.4290  136.8510 O   0  0  0  0  0  1  0  0  0  0  0  0
  1 20  1  0  0  0  0
  2 24  1  1  0  0  0
  2 27  1  0  0  0  0
  2 12  1  0  0  0  0
  3  4  1  0  0  0  0
  5 25  1  6  0  0  0
  5  6  1  0  0  0  0
  5 27  1  0  0  0  0
  6 18  1  6  0  0  0
  6 28  1  0  0  0  0
  7 19  1  6  0  0  0
  7 24  1  0  0  0  0
  7 17  1  0  0  0  0
  9 28  1  0  0  0  0
  9 26  1  1  0  0  0
 11  3  2  0  0  0  0
 12  8  1  1  0  0  0
 12 13  1  0  0  0  0
 13 22  2  0  0  0  0
 13 11  1  0  0  0  0
 14 23  1  1  0  0  0
 14 22  1  0  0  0  0
 15  9  1  0  0  0  0
 16 19  1  0  0  0  0
 16  1  1  0  0  0  0
 17 10  1  1  0  0  0
 17  8  1  0  0  0  0
 18 15  1  0  0  0  0
 20 29  1  0  0  0  0
 20 10  1  0  0  0  0
 21  4  2  0  0  0  0
 22 21  1  0  0  0  0
 27 14  1  0  0  0  0
 28 23  1  0  0  0  0
 29 30  1  0  0  0  0
 31 30  1  0  0  0  0
 32 30  1  0  0  0  0
M  END
>  <MODEL>
8

>  <REMARK>
 VINA RESULT:      -5.9      7.065      9.783
  Name = 
  2 active torsions:
  status: ('A' for Active; 'I' for Inactive)
    1  A    between atoms: N_20  and  C_29
    2  A    between atoms: C_29  and  C_30
                            x       y       z     vdW  Elec       q    Type
                         _______ _______ _______ _____ _____    ______ ____

>  <TORSDO>
F 2

$$$$
=
 OpenBabel11122410513D

 32 37  0  0  1  0  0  0  0  0999 V2000
  181.8700  179.0030  142.4640 C   0  0  0  0  0  2  0  0  0  0  0  0
  183.2950  176.7600  137.7350 C   0  0  2  0  0  3  0  0  0  0  0  0
  188.2030  177.0070  136.6930 C   0  0  0  0  0  3  0  0  0  0  0  0
  188.1620  175.6990  136.2110 C   0  0  0  0  0  3  0  0  0  0  0  0
  181.9210  175.0240  136.4480 C   0  0  2  0  0  3  0  0  0  0  0  0
  182.0910  173.9730  135.3660 C   0  0  2  0  0  3  0  0  0  0  0  0
  182.9110  177.1050  140.2160 C   0  0  1  0  0  3  0  0  0  0  0  0
  184.8800  178.2530  139.1120 C   0  0  0  0  0  2  0  0  0  0  0  0
  183.0260  171.8740  134.8700 C   0  0  2  0  0  3  0  0  0  0  0  0
  183.9070  179.2650  141.1950 C   0  0  0  0  0  2  0  0  0  0  0  0
  187.0420  177.6060  137.1830 C   0  0  0  0  0  3  0  0  0  0  0  0
  184.5920  177.6120  137.7400 C   0  0  1  0  0  3  0  0  0  0  0  0
  185.8250  176.9070  137.2070 C   0  0  0  0  0  0  0  0  0  0  0  0
  184.4880  174.8110  136.6720 C   0  0  2  0  0  3  0  0  0  0  0  0
  181.5280  171.8280  134.7900 C   0  0  0  0  0  2  0  0  0  0  0  0
  181.0780  178.6280  141.2010 C   0  0  0  0  0  2  0  0  0  0  0  0
  183.6060  178.4570  139.9220 C   0  0  2  0  0  3  0  0  0  0  0  0
  180.9910  173.0070  135.1080 C   0  0  0  0  0  2  0  0  0  0  0  0
  181.4350  177.2560  140.6180 C   0  0  0  0  0  2  0  0  0  0  0  0
  183.2960  178.6680  142.3850 N   0  0  0  0  0  0  0  0  0  0  0  0
  186.9560  174.9960  136.2040 C   0  0  0  0  0  3  0  0  0  0  0  0
  185.7750  175.5950  136.6710 C   0  0  0  0  0  0  0  0  0  0  0  0
  184.4710  173.7900  135.6080 N   0  0  0  0  0  2  0  0  0  0  0  0
  183.0560  176.0790  139.0890 C   0  0  0  0  0  2  0  0  0  0  0  0
  180.8250  175.9980  136.0460 C   0  0  0  0  0  1  0  0  0  0  0  0
  183.5490  170.6220  135.5440 C   0  0  0  0  0  1  0  0  0  0  0  0
  183.2700  175.7710  136.5710 C   0  0  2  0  0  3  0  0  0  0  0  0
  183.2190  173.0700  135.7710 C   0  0  1  0  0  3  0  0  0  0  0  0
  183.9400  179.2780  143.5370 C   0  0  0  0  0  2  0  0  0  0  0  0
  184.7990  178.2540  144.2590 C   0  0  2  0  0  3  0  0  0  0  0  0
  184.9030  178.6280  145.7220 C   0  0  0  0  0  1  0  0  0  0  0  0
  186.0760  178.2270  143.6980 O   0  0  0  0  0  1  0  0  0  0  0  0
  2 12  1  0  0  0  0
  2 24  1  1  0  0  0
  3 11  1  0  0  0  0
  4  3  2  0  0  0  0
  5 25  1  6  0  0  0
  5 27  1  0  0  0  0
  6 18  1  1  0  0  0
  6 28  1  0  0  0  0
  6  5  1  0  0  0  0
  7 24  1  6  0  0  0
  7 19  1  0  0  0  0
  9 26  1  1  0  0  0
  9 28  1  0  0  0  0
 10 20  1  0  0  0  0
 11 13  2  0  0  0  0
 12  8  1  1  0  0  0
 13 12  1  0  0  0  0
 14 23  1  6  0  0  0
 15  9  1  0  0  0  0
 15 18  1  0  0  0  0
 16  1  1  0  0  0  0
 17  8  1  1  0  0  0
 17  7  1  0  0  0  0
 17 10  1  0  0  0  0
 19 16  1  0  0  0  0
 20  1  1  0  0  0  0
 20 29  1  0  0  0  0
 21  4  1  0  0  0  0
 21 22  2  0  0  0  0
 22 14  1  0  0  0  0
 22 13  1  0  0  0  0
 23 28  1  0  0  0  0
 27 14  1  0  0  0  0
 27  2  1  0  0  0  0
 29 30  1  0  0  0  0
 30 31  1  0  0  0  0
 32 30  1  0  0  0  0
M  END
>  <MODEL>
9

>  <REMARK>
 VINA RESULT:      -5.9      4.233     10.050
  Name = 
  2 active torsions:
  status: ('A' for Active; 'I' for Inactive)
    1  A    between atoms: N_20  and  C_29
    2  A    between atoms: C_29  and  C_30
                            x       y       z     vdW  Elec       q    Type
                         _______ _______ _______ _____ _____    ______ ____

>  <TORSDO>
F 2

$$$$
