=
 OpenBabel11122410563D

 31 35  0  0  1  0  0  0  0  0999 V2000
  186.0560  178.2800  146.3250 C   0  0  0  0  0  0  0  0  0  0  0  0
  186.7420  178.2620  142.5870 C   0  0  0  0  0  0  0  0  0  0  0  0
  188.2000  177.8410  142.5430 C   0  0  0  0  0  0  0  0  0  0  0  0
  189.8120  176.1780  143.2910 C   0  0  2  0  0  3  0  0  0  0  0  0
  186.0520  178.3690  143.8970 C   0  0  0  0  0  0  0  0  0  0  0  0
  184.6730  178.4770  146.3370 C   0  0  0  0  0  3  0  0  0  0  0  0
  188.3830  176.5290  143.1710 N   0  0  0  0  0  2  0  0  0  0  0  0
  184.6460  179.0810  141.5010 C   0  0  1  0  0  3  0  0  0  0  0  0
  186.7310  178.1350  147.4910 F   0  0  0  0  0  0  0  0  0  0  0  0
  187.9630  178.1930  140.0060 C   0  0  0  0  0  3  0  0  0  0  0  0
  190.3310  176.5670  144.6610 C   0  0  0  0  0  1  0  0  0  0  0  0
  183.9780  178.7450  142.7200 O   0  0  0  0  0  0  0  0  0  0  0  0
  186.0690  178.5710  141.4490 C   0  0  0  0  0  0  0  0  0  0  0  0
  186.7430  178.2210  145.1100 C   0  0  0  0  0  3  0  0  0  0  0  0
  190.7270  176.7710  142.1930 C   0  0  0  0  0  2  0  0  0  0  0  0
  184.6670  178.5870  143.9190 C   0  0  0  0  0  0  0  0  0  0  0  0
  183.9770  178.6290  145.1350 C   0  0  0  0  0  3  0  0  0  0  0  0
  186.7290  178.5550  140.1700 N   0  0  0  0  0  0  0  0  0  0  0  0
  188.7660  177.7810  141.1540 C   0  0  0  0  0  0  0  0  0  0  0  0
  189.9610  177.2280  140.9870 C   0  0  0  0  0  2  0  0  0  0  0  0
  184.1380  180.4820  139.0630 O   0  0  0  0  0  0  0  0  0  0  0  0
  183.6670  179.3190  139.1770 C   0  0  0  0  0  0  0  0  0  0  0  0
  183.8870  178.5650  140.3720 N   0  0  0  0  0  2  0  0  0  0  0  0
  181.3730  176.4700  138.9000 C   0  0  1  0  0  3  0  0  0  0  0  0
  181.3650  178.7830  138.3150 C   0  0  0  0  0  2  0  0  0  0  0  0
  184.7090  177.2750  137.4480 C   0  0  0  0  0  1  0  0  0  0  0  0
  180.9890  175.5010  139.9100 N   0  0  0  0  0  1  0  0  0  0  0  0
  180.9990  177.8110  139.3480 N   0  0  0  0  0  2  0  0  0  0  0  0
  183.2680  177.3640  137.6480 N   0  0  0  0  0  0  0  0  0  0  0  0
  182.8730  178.7340  138.0340 C   0  0  2  0  0  3  0  0  0  0  0  0
  182.8810  176.3980  138.6750 C   0  0  0  0  0  2  0  0  0  0  0  0
  1  6  1  0  0  0  0
  1  9  1  0  0  0  0
  2  5  1  0  0  0  0
  3  2  1  0  0  0  0
  3  7  1  0  0  0  0
  4 11  1  1  0  0  0
  5 16  2  0  0  0  0
  5 14  1  0  0  0  0
  7  4  1  0  0  0  0
  8 23  1  6  0  0  0
  8 12  1  0  0  0  0
 10 18  2  0  0  0  0
 10 19  1  0  0  0  0
 12 16  1  0  0  0  0
 13  8  1  0  0  0  0
 13  2  2  0  0  0  0
 14  1  2  0  0  0  0
 15  4  1  0  0  0  0
 16 17  1  0  0  0  0
 17  6  2  0  0  0  0
 18 13  1  0  0  0  0
 19  3  2  0  0  0  0
 20 19  1  0  0  0  0
 20 15  1  0  0  0  0
 21 22  2  0  0  0  0
 22 23  1  0  0  0  0
 24 28  1  0  0  0  0
 24 27  1  1  0  0  0
 25 28  1  0  0  0  0
 26 29  1  0  0  0  0
 29 30  1  0  0  0  0
 29 31  1  0  0  0  0
 30 25  1  0  0  0  0
 30 22  1  1  0  0  0
 31 24  1  0  0  0  0
M  END
>  <MODEL>
1

>  <REMARK>
 VINA RESULT:     -10.1      0.000      0.000
  Name = 
  2 active torsions:
  status: ('A' for Active; 'I' for Inactive)
    1  A    between atoms: C_5  and  C_30
    2  A    between atoms: C_10  and  N_16
                            x       y       z     vdW  Elec       q    Type
                         _______ _______ _______ _____ _____    ______ ____

>  <TORSDO>
F 2

$$$$
=
 OpenBabel11122410563D

 31 35  0  0  1  0  0  0  0  0999 V2000
  186.5140  178.1130  146.5290 C   0  0  0  0  0  0  0  0  0  0  0  0
  186.7770  178.2170  142.7380 C   0  0  0  0  0  0  0  0  0  0  0  0
  188.2290  177.8320  142.5200 C   0  0  0  0  0  0  0  0  0  0  0  0
  189.9490  176.1870  143.0320 C   0  0  2  0  0  3  0  0  0  0  0  0
  186.2370  178.2700  144.1190 C   0  0  0  0  0  0  0  0  0  0  0  0
  185.1370  178.2770  146.7000 C   0  0  0  0  0  3  0  0  0  0  0  0
  188.5090  176.5070  143.0820 N   0  0  0  0  0  2  0  0  0  0  0  0
  184.5570  179.0160  141.9180 C   0  0  1  0  0  3  0  0  0  0  0  0
  187.3180  177.9520  147.6070 F   0  0  0  0  0  0  0  0  0  0  0  0
  187.7030  178.2500  140.0360 C   0  0  0  0  0  3  0  0  0  0  0  0
  190.6100  176.5490  144.3470 C   0  0  0  0  0  1  0  0  0  0  0  0
  184.0360  178.6310  143.1920 O   0  0  0  0  0  0  0  0  0  0  0  0
  185.9750  178.5420  141.6920 C   0  0  0  0  0  0  0  0  0  0  0  0
  187.0620  178.1050  145.2430 C   0  0  0  0  0  3  0  0  0  0  0  0
  190.7230  176.8320  141.8570 C   0  0  0  0  0  2  0  0  0  0  0  0
  184.8590  178.4550  144.3020 C   0  0  0  0  0  0  0  0  0  0  0  0
  184.3080  178.4460  145.5880 C   0  0  0  0  0  3  0  0  0  0  0  0
  186.4880  178.5780  140.3480 N   0  0  0  0  0  0  0  0  0  0  0  0
  188.6380  177.8250  141.0750 C   0  0  0  0  0  0  0  0  0  0  0  0
  189.8180  177.3050  140.7580 C   0  0  0  0  0  2  0  0  0  0  0  0
  181.7090  179.2460  141.8650 O   0  0  0  0  0  0  0  0  0  0  0  0
  182.2650  178.6610  140.8980 C   0  0  0  0  0  0  0  0  0  0  0  0
  183.6870  178.5150  140.8650 N   0  0  0  0  0  2  0  0  0  0  0  0
  182.9670  176.5400  137.9890 C   0  0  1  0  0  3  0  0  0  0  0  0
  181.3880  176.5870  139.7760 C   0  0  0  0  0  2  0  0  0  0  0  0
  181.8720  180.0740  138.4290 C   0  0  0  0  0  1  0  0  0  0  0  0
  184.2330  175.9900  137.5400 N   0  0  0  0  0  1  0  0  0  0  0  0
  182.6770  176.0510  139.3360 N   0  0  0  0  0  2  0  0  0  0  0  0
  181.7710  178.6210  138.4340 N   0  0  0  0  0  0  0  0  0  0  0  0
  181.4100  178.1220  139.7770 C   0  0  2  0  0  3  0  0  0  0  0  0
  183.0500  178.0650  137.9950 C   0  0  0  0  0  2  0  0  0  0  0  0
  1  6  1  0  0  0  0
  1  9  1  0  0  0  0
  2  5  1  0  0  0  0
  3  2  1  0  0  0  0
  3  7  1  0  0  0  0
  4  7  1  0  0  0  0
  4 11  1  1  0  0  0
  5 16  2  0  0  0  0
  5 14  1  0  0  0  0
  8 23  1  6  0  0  0
  8 12  1  0  0  0  0
 10 18  2  0  0  0  0
 10 19  1  0  0  0  0
 12 16  1  0  0  0  0
 13  8  1  0  0  0  0
 13  2  2  0  0  0  0
 14  1  2  0  0  0  0
 15  4  1  0  0  0  0
 16 17  1  0  0  0  0
 17  6  2  0  0  0  0
 18 13  1  0  0  0  0
 19  3  2  0  0  0  0
 20 19  1  0  0  0  0
 20 15  1  0  0  0  0
 22 21  2  0  0  0  0
 23 22  1  0  0  0  0
 24 27  1  1  0  0  0
 24 31  1  0  0  0  0
 24 28  1  0  0  0  0
 25 30  1  0  0  0  0
 26 29  1  0  0  0  0
 28 25  1  0  0  0  0
 29 30  1  0  0  0  0
 30 22  1  1  0  0  0
 31 29  1  0  0  0  0
M  END
>  <MODEL>
2

>  <REMARK>
 VINA RESULT:      -9.6      1.103      1.672
  Name = 
  2 active torsions:
  status: ('A' for Active; 'I' for Inactive)
    1  A    between atoms: C_5  and  C_30
    2  A    between atoms: C_10  and  N_16
                            x       y       z     vdW  Elec       q    Type
                         _______ _______ _______ _____ _____    ______ ____

>  <TORSDO>
F 2

$$$$
=
 OpenBabel11122410563D

 31 35  0  0  1  0  0  0  0  0999 V2000
  184.7710  178.5600  144.5450 C   0  0  0  0  0  0  0  0  0  0  0  0
  188.2620  178.1240  143.1070 C   0  0  0  0  0  0  0  0  0  0  0  0
  189.0870  177.9060  144.3620 C   0  0  0  0  0  0  0  0  0  0  0  0
  189.2900  176.6000  146.4070 C   0  0  2  0  0  3  0  0  0  0  0  0
  186.7950  178.3130  143.2220 C   0  0  0  0  0  0  0  0  0  0  0  0
  184.0050  178.5640  143.3770 C   0  0  0  0  0  3  0  0  0  0  0  0
  188.6150  176.7310  145.1000 N   0  0  0  0  0  2  0  0  0  0  0  0
  188.0400  178.4890  140.6450 C   0  0  1  0  0  3  0  0  0  0  0  0
  184.1670  178.6710  145.7530 F   0  0  0  0  0  0  0  0  0  0  0  0
  191.0830  177.8710  142.7390 C   0  0  0  0  0  3  0  0  0  0  0  0
  188.4510  177.2410  147.4940 C   0  0  0  0  0  1  0  0  0  0  0  0
  186.6440  178.2350  140.8130 O   0  0  0  0  0  0  0  0  0  0  0  0
  188.8500  178.1780  141.8850 C   0  0  0  0  0  0  0  0  0  0  0  0
  186.1600  178.4300  144.4690 C   0  0  0  0  0  3  0  0  0  0  0  0
  190.7340  177.1570  146.4570 C   0  0  0  0  0  2  0  0  0  0  0  0
  186.0200  178.3390  142.0540 C   0  0  0  0  0  0  0  0  0  0  0  0
  184.6280  178.4520  142.1300 C   0  0  0  0  0  3  0  0  0  0  0  0
  190.2790  178.0780  141.7440 N   0  0  0  0  0  0  0  0  0  0  0  0
  190.5540  177.7350  144.0940 C   0  0  0  0  0  0  0  0  0  0  0  0
  191.3320  177.3350  145.0920 C   0  0  0  0  0  2  0  0  0  0  0  0
  189.0270  179.5910  138.2000 O   0  0  0  0  0  0  0  0  0  0  0  0
  189.0220  178.3360  138.3140 C   0  0  0  0  0  0  0  0  0  0  0  0
  188.5420  177.7230  139.5140 N   0  0  0  0  0  2  0  0  0  0  0  0
  187.8450  175.2350  136.7480 C   0  0  1  0  0  3  0  0  0  0  0  0
  188.5080  177.4120  136.0320 C   0  0  0  0  0  2  0  0  0  0  0  0
  190.8830  176.1800  138.6870 C   0  0  0  0  0  1  0  0  0  0  0  0
  186.7150  174.3990  137.1080 N   0  0  0  0  0  1  0  0  0  0  0  0
  187.3680  176.5780  136.4180 N   0  0  0  0  0  2  0  0  0  0  0  0
  189.9660  176.1340  137.5550 N   0  0  0  0  0  0  0  0  0  0  0  0
  189.5320  177.4930  137.1710 C   0  0  2  0  0  3  0  0  0  0  0  0
  188.8210  175.3020  137.9210 C   0  0  0  0  0  2  0  0  0  0  0  0
  1  9  1  0  0  0  0
  2  5  1  0  0  0  0
  2  3  1  0  0  0  0
  3  7  1  0  0  0  0
  4 15  1  0  0  0  0
  4 11  1  1  0  0  0
  5 14  2  0  0  0  0
  6  1  2  0  0  0  0
  7  4  1  0  0  0  0
  8 23  1  6  0  0  0
  8 12  1  0  0  0  0
  8 13  1  0  0  0  0
 10 19  1  0  0  0  0
 12 16  1  0  0  0  0
 13  2  2  0  0  0  0
 14  1  1  0  0  0  0
 16 17  2  0  0  0  0
 16  5  1  0  0  0  0
 17  6  1  0  0  0  0
 18 13  1  0  0  0  0
 18 10  2  0  0  0  0
 19  3  2  0  0  0  0
 19 20  1  0  0  0  0
 20 15  1  0  0  0  0
 21 22  2  0  0  0  0
 22 23  1  0  0  0  0
 24 27  1  1  0  0  0
 24 31  1  0  0  0  0
 25 28  1  0  0  0  0
 25 30  1  0  0  0  0
 28 24  1  0  0  0  0
 29 31  1  0  0  0  0
 29 26  1  0  0  0  0
 30 29  1  0  0  0  0
 30 22  1  1  0  0  0
M  END
>  <MODEL>
3

>  <REMARK>
 VINA RESULT:      -9.3      3.180      4.526
  Name = 
  2 active torsions:
  status: ('A' for Active; 'I' for Inactive)
    1  A    between atoms: C_5  and  C_30
    2  A    between atoms: C_10  and  N_16
                            x       y       z     vdW  Elec       q    Type
                         _______ _______ _______ _____ _____    ______ ____

>  <TORSDO>
F 2

$$$$
=
 OpenBabel11122410563D

 31 35  0  0  1  0  0  0  0  0999 V2000
  187.8480  177.7840  146.7500 C   0  0  0  0  0  0  0  0  0  0  0  0
  187.1230  178.1180  143.0340 C   0  0  0  0  0  0  0  0  0  0  0  0
  188.4720  177.7830  142.4250 C   0  0  0  0  0  0  0  0  0  0  0  0
  190.2810  176.1540  142.3720 C   0  0  2  0  0  3  0  0  0  0  0  0
  186.9560  178.0760  144.5080 C   0  0  0  0  0  0  0  0  0  0  0  0
  186.5610  177.9030  147.2800 C   0  0  0  0  0  3  0  0  0  0  0  0
  188.9000  176.4350  142.8120 N   0  0  0  0  0  2  0  0  0  0  0  0
  184.7580  178.9080  142.8650 C   0  0  1  0  0  3  0  0  0  0  0  0
  188.9050  177.5790  147.5730 F   0  0  0  0  0  0  0  0  0  0  0  0
  187.3180  178.3340  140.1920 C   0  0  0  0  0  3  0  0  0  0  0  0
  191.2560  176.4550  143.4930 C   0  0  0  0  0  1  0  0  0  0  0  0
  184.5880  178.4350  144.2030 O   0  0  0  0  0  0  0  0  0  0  0  0
  186.0750  178.4840  142.2520 C   0  0  0  0  0  0  0  0  0  0  0  0
  188.0450  177.8650  145.3680 C   0  0  0  0  0  3  0  0  0  0  0  0
  190.7190  176.8870  141.0810 C   0  0  0  0  0  2  0  0  0  0  0  0
  185.6710  178.2150  145.0510 C   0  0  0  0  0  0  0  0  0  0  0  0
  185.4710  178.1170  146.4320 C   0  0  0  0  0  3  0  0  0  0  0  0
  186.2220  178.6120  140.8270 N   0  0  0  0  0  0  0  0  0  0  0  0
  188.4930  177.8710  140.9270 C   0  0  0  0  0  0  0  0  0  0  0  0
  189.5560  177.4010  140.2850 C   0  0  0  0  0  2  0  0  0  0  0  0
  182.0030  179.5440  143.2810 O   0  0  0  0  0  0  0  0  0  0  0  0
  182.2900  178.8020  142.3040 C   0  0  0  0  0  0  0  0  0  0  0  0
  183.6500  178.4480  142.0410 N   0  0  0  0  0  2  0  0  0  0  0  0
  180.2380  180.3670  139.6980 C   0  0  1  0  0  3  0  0  0  0  0  0
  181.5580  178.3950  139.9320 C   0  0  0  0  0  2  0  0  0  0  0  0
  179.5210  178.9260  143.0580 C   0  0  0  0  0  1  0  0  0  0  0  0
  180.2340  181.7440  139.2390 N   0  0  0  0  0  1  0  0  0  0  0  0
  181.5650  179.7910  139.4900 N   0  0  0  0  0  2  0  0  0  0  0  0
  179.8690  178.9400  141.6440 N   0  0  0  0  0  0  0  0  0  0  0  0
  181.1790  178.2970  141.4160 C   0  0  2  0  0  3  0  0  0  0  0  0
  179.8780  180.3270  141.1820 C   0  0  0  0  0  2  0  0  0  0  0  0
  1  6  1  0  0  0  0
  1  9  1  0  0  0  0
  2  5  1  0  0  0  0
  3  7  1  0  0  0  0
  3  2  1  0  0  0  0
  4  7  1  0  0  0  0
  4 11  1  1  0  0  0
  5 16  2  0  0  0  0
  5 14  1  0  0  0  0
  8 23  1  6  0  0  0
  8 12  1  0  0  0  0
 10 18  2  0  0  0  0
 10 19  1  0  0  0  0
 12 16  1  0  0  0  0
 13  8  1  0  0  0  0
 13  2  2  0  0  0  0
 14  1  2  0  0  0  0
 15  4  1  0  0  0  0
 16 17  1  0  0  0  0
 17  6  2  0  0  0  0
 18 13  1  0  0  0  0
 19  3  2  0  0  0  0
 20 19  1  0  0  0  0
 20 15  1  0  0  0  0
 22 21  2  0  0  0  0
 23 22  1  0  0  0  0
 24 27  1  1  0  0  0
 24 31  1  0  0  0  0
 25 30  1  0  0  0  0
 28 24  1  0  0  0  0
 28 25  1  0  0  0  0
 29 26  1  0  0  0  0
 30 29  1  0  0  0  0
 30 22  1  1  0  0  0
 31 29  1  0  0  0  0
M  END
>  <MODEL>
4

>  <REMARK>
 VINA RESULT:      -9.3      2.004      2.975
  Name = 
  2 active torsions:
  status: ('A' for Active; 'I' for Inactive)
    1  A    between atoms: C_5  and  C_30
    2  A    between atoms: C_10  and  N_16
                            x       y       z     vdW  Elec       q    Type
                         _______ _______ _______ _____ _____    ______ ____

>  <TORSDO>
F 2

$$$$
=
 OpenBabel11122410563D

 31 35  0  0  1  0  0  0  0  0999 V2000
  183.9270  178.9000  144.1640 C   0  0  0  0  0  0  0  0  0  0  0  0
  186.8520  178.2990  141.8130 C   0  0  0  0  0  0  0  0  0  0  0  0
  187.9940  178.0880  142.7910 C   0  0  0  0  0  0  0  0  0  0  0  0
  188.7370  176.8350  144.7410 C   0  0  2  0  0  3  0  0  0  0  0  0
  185.4840  178.5440  142.3320 C   0  0  0  0  0  0  0  0  0  0  0  0
  182.8600  178.8980  143.2610 C   0  0  0  0  0  3  0  0  0  0  0  0
  187.7210  176.9520  143.6760 N   0  0  0  0  0  2  0  0  0  0  0  0
  185.9490  178.6010  139.5030 C   0  0  1  0  0  3  0  0  0  0  0  0
  183.6940  179.0680  145.4880 F   0  0  0  0  0  0  0  0  0  0  0  0
  189.4450  177.9350  140.6710 C   0  0  0  0  0  3  0  0  0  0  0  0
  188.2580  177.5370  145.9960 C   0  0  0  0  0  1  0  0  0  0  0  0
  184.6520  178.4020  140.0690 O   0  0  0  0  0  0  0  0  0  0  0  0
  187.0690  178.2970  140.4730 C   0  0  0  0  0  0  0  0  0  0  0  0
  185.2330  178.7190  143.7020 C   0  0  0  0  0  3  0  0  0  0  0  0
  190.1480  177.3420  144.3590 C   0  0  0  0  0  2  0  0  0  0  0  0
  184.4090  178.5640  141.4310 C   0  0  0  0  0  0  0  0  0  0  0  0
  183.1000  178.7280  141.8950 C   0  0  0  0  0  3  0  0  0  0  0  0
  188.3960  178.1420  139.9370 N   0  0  0  0  0  0  0  0  0  0  0  0
  189.3200  177.8570  142.1240 C   0  0  0  0  0  0  0  0  0  0  0  0
  190.3390  177.4580  142.8750 C   0  0  0  0  0  2  0  0  0  0  0  0
  187.1870  179.4290  137.0650 O   0  0  0  0  0  0  0  0  0  0  0  0
  186.7190  178.2610  137.1140 C   0  0  0  0  0  0  0  0  0  0  0  0
  186.0880  177.7860  138.3060 N   0  0  0  0  0  2  0  0  0  0  0  0
  186.0370  174.7060  136.5170 C   0  0  1  0  0  3  0  0  0  0  0  0
  185.4760  176.7870  135.4960 C   0  0  0  0  0  2  0  0  0  0  0  0
  189.1140  176.8070  136.4820 C   0  0  0  0  0  1  0  0  0  0  0  0
  185.5970  173.6880  137.4530 N   0  0  0  0  0  1  0  0  0  0  0  0
  185.0410  175.7750  136.4600 N   0  0  0  0  0  2  0  0  0  0  0  0
  187.8320  176.2870  136.0270 N   0  0  0  0  0  0  0  0  0  0  0  0
  186.8370  177.3710  135.9000 C   0  0  2  0  0  3  0  0  0  0  0  0
  187.3800  175.2690  136.9760 C   0  0  0  0  0  2  0  0  0  0  0  0
  1  9  1  0  0  0  0
  2  5  1  0  0  0  0
  2  3  1  0  0  0  0
  3  7  1  0  0  0  0
  4 11  1  1  0  0  0
  5 14  2  0  0  0  0
  6  1  2  0  0  0  0
  7  4  1  0  0  0  0
  8 23  1  6  0  0  0
  8 12  1  0  0  0  0
  8 13  1  0  0  0  0
 10 19  1  0  0  0  0
 12 16  1  0  0  0  0
 13  2  2  0  0  0  0
 14  1  1  0  0  0  0
 15  4  1  0  0  0  0
 16 17  2  0  0  0  0
 16  5  1  0  0  0  0
 17  6  1  0  0  0  0
 18 13  1  0  0  0  0
 18 10  2  0  0  0  0
 19  3  2  0  0  0  0
 19 20  1  0  0  0  0
 20 15  1  0  0  0  0
 21 22  2  0  0  0  0
 22 23  1  0  0  0  0
 24 31  1  0  0  0  0
 24 27  1  1  0  0  0
 25 30  1  0  0  0  0
 25 28  1  0  0  0  0
 28 24  1  0  0  0  0
 29 26  1  0  0  0  0
 29 31  1  0  0  0  0
 30 29  1  0  0  0  0
 30 22  1  1  0  0  0
M  END
>  <MODEL>
5

>  <REMARK>
 VINA RESULT:      -9.1      2.528      3.383
  Name = 
  2 active torsions:
  status: ('A' for Active; 'I' for Inactive)
    1  A    between atoms: C_5  and  C_30
    2  A    between atoms: C_10  and  N_16
                            x       y       z     vdW  Elec       q    Type
                         _______ _______ _______ _____ _____    ______ ____

>  <TORSDO>
F 2

$$$$
=
 OpenBabel11122410563D

 31 35  0  0  1  0  0  0  0  0999 V2000
  190.3550  176.8920  146.7200 C   0  0  0  0  0  0  0  0  0  0  0  0
  187.8880  177.4700  143.8870 C   0  0  0  0  0  0  0  0  0  0  0  0
  186.6250  177.8320  144.6480 C   0  0  0  0  0  0  0  0  0  0  0  0
  185.6800  179.2890  146.3540 C   0  0  2  0  0  3  0  0  0  0  0  0
  189.1360  177.1870  144.6380 C   0  0  0  0  0  0  0  0  0  0  0  0
  191.5470  176.7530  146.0050 C   0  0  0  0  0  3  0  0  0  0  0  0
  186.8390  179.0210  145.4800 N   0  0  0  0  0  2  0  0  0  0  0  0
  189.1190  176.9200  141.7830 C   0  0  1  0  0  3  0  0  0  0  0  0
  190.3640  176.8230  148.0730 F   0  0  0  0  0  0  0  0  0  0  0  0
  185.5410  177.8940  142.3150 C   0  0  0  0  0  3  0  0  0  0  0  0
  185.9020  178.6680  147.7190 C   0  0  0  0  0  1  0  0  0  0  0  0
  190.3220  177.0860  142.5370 O   0  0  0  0  0  0  0  0  0  0  0  0
  187.8850  177.3720  142.5330 C   0  0  0  0  0  0  0  0  0  0  0  0
  189.1550  177.1130  146.0400 C   0  0  0  0  0  3  0  0  0  0  0  0
  184.3130  178.8390  145.7860 C   0  0  0  0  0  2  0  0  0  0  0  0
  190.3340  177.0260  143.9280 C   0  0  0  0  0  0  0  0  0  0  0  0
  191.5390  176.8210  144.6090 C   0  0  0  0  0  3  0  0  0  0  0  0
  186.6740  177.5620  141.7790 N   0  0  0  0  0  0  0  0  0  0  0  0
  185.4420  178.0870  143.7600 C   0  0  0  0  0  0  0  0  0  0  0  0
  184.3500  178.6100  144.3040 C   0  0  0  0  0  2  0  0  0  0  0  0
  190.5200  176.0030  139.4680 O   0  0  0  0  0  0  0  0  0  0  0  0
  189.9490  177.1240  139.3990 C   0  0  0  0  0  0  0  0  0  0  0  0
  189.2300  177.6380  140.5230 N   0  0  0  0  0  2  0  0  0  0  0  0
  187.5320  177.8760  136.7440 C   0  0  1  0  0  3  0  0  0  0  0  0
  189.0550  179.0950  138.1160 C   0  0  0  0  0  2  0  0  0  0  0  0
  190.7090  175.9350  136.8960 C   0  0  0  0  0  1  0  0  0  0  0  0
  186.1580  177.4320  136.6030 N   0  0  0  0  0  1  0  0  0  0  0  0
  187.6740  178.6280  137.9900 N   0  0  0  0  0  2  0  0  0  0  0  0
  189.8450  177.1080  136.8870 N   0  0  0  0  0  0  0  0  0  0  0  0
  190.0320  177.9110  138.1140 C   0  0  2  0  0  3  0  0  0  0  0  0
  188.4580  176.6620  136.7590 C   0  0  0  0  0  2  0  0  0  0  0  0
  1  9  1  0  0  0  0
  2  5  1  0  0  0  0
  2  3  1  0  0  0  0
  3  7  1  0  0  0  0
  4 11  1  1  0  0  0
  5 14  2  0  0  0  0
  6  1  2  0  0  0  0
  7  4  1  0  0  0  0
  8 23  1  6  0  0  0
  8 13  1  0  0  0  0
  8 12  1  0  0  0  0
 10 19  1  0  0  0  0
 12 16  1  0  0  0  0
 13  2  2  0  0  0  0
 14  1  1  0  0  0  0
 15  4  1  0  0  0  0
 16 17  2  0  0  0  0
 16  5  1  0  0  0  0
 17  6  1  0  0  0  0
 18 10  2  0  0  0  0
 18 13  1  0  0  0  0
 19 20  1  0  0  0  0
 19  3  2  0  0  0  0
 20 15  1  0  0  0  0
 22 21  2  0  0  0  0
 22 23  1  0  0  0  0
 24 27  1  1  0  0  0
 24 31  1  0  0  0  0
 24 28  1  0  0  0  0
 28 25  1  0  0  0  0
 29 26  1  0  0  0  0
 29 30  1  0  0  0  0
 30 25  1  0  0  0  0
 30 22  1  1  0  0  0
 31 29  1  0  0  0  0
M  END
>  <MODEL>
6

>  <REMARK>
 VINA RESULT:      -9.1      3.512      5.679
  Name = 
  2 active torsions:
  status: ('A' for Active; 'I' for Inactive)
    1  A    between atoms: C_5  and  C_30
    2  A    between atoms: C_10  and  N_16
                            x       y       z     vdW  Elec       q    Type
                         _______ _______ _______ _____ _____    ______ ____

>  <TORSDO>
F 2

$$$$
=
 OpenBabel11122410563D

 31 35  0  0  1  0  0  0  0  0999 V2000
  183.9780  178.7210  144.9170 C   0  0  0  0  0  0  0  0  0  0  0  0
  186.0640  178.4980  141.7470 C   0  0  0  0  0  0  0  0  0  0  0  0
  187.4350  178.1620  142.3040 C   0  0  0  0  0  0  0  0  0  0  0  0
  188.6780  176.6490  143.7510 C   0  0  2  0  0  3  0  0  0  0  0  0
  184.9160  178.6500  142.6760 C   0  0  0  0  0  0  0  0  0  0  0  0
  182.6950  178.8370  144.3780 C   0  0  0  0  0  3  0  0  0  0  0  0
  187.3980  176.9070  143.0610 N   0  0  0  0  0  2  0  0  0  0  0  0
  184.5310  179.1190  139.8730 C   0  0  1  0  0  3  0  0  0  0  0  0
  184.1510  178.6940  146.2600 F   0  0  0  0  0  0  0  0  0  0  0  0
  188.1940  178.3320  139.8510 C   0  0  0  0  0  3  0  0  0  0  0  0
  188.6120  177.1580  145.1770 C   0  0  0  0  0  1  0  0  0  0  0  0
  183.4520  178.8250  140.7630 O   0  0  0  0  0  0  0  0  0  0  0  0
  185.8770  178.6910  140.4160 C   0  0  0  0  0  0  0  0  0  0  0  0
  185.0850  178.6230  144.0690 C   0  0  0  0  0  3  0  0  0  0  0  0
  189.9300  177.2220  143.0450 C   0  0  0  0  0  2  0  0  0  0  0  0
  183.6260  178.7870  142.1450 C   0  0  0  0  0  0  0  0  0  0  0  0
  182.5170  178.8680  142.9920 C   0  0  0  0  0  3  0  0  0  0  0  0
  186.9830  178.6300  139.4960 N   0  0  0  0  0  0  0  0  0  0  0  0
  188.4980  178.0440  141.2500 C   0  0  0  0  0  0  0  0  0  0  0  0
  189.6800  177.5530  141.6030 C   0  0  0  0  0  2  0  0  0  0  0  0
  183.2740  176.5830  139.4810 O   0  0  0  0  0  0  0  0  0  0  0  0
  183.6520  177.2110  138.4570 C   0  0  0  0  0  0  0  0  0  0  0  0
  184.2870  178.4860  138.5860 N   0  0  0  0  0  2  0  0  0  0  0  0
  184.2950  173.8870  137.0430 C   0  0  1  0  0  3  0  0  0  0  0  0
  182.4610  175.4070  137.1700 C   0  0  0  0  0  2  0  0  0  0  0  0
  185.6160  177.3040  136.3620 C   0  0  0  0  0  1  0  0  0  0  0  0
  184.9250  172.7350  137.6610 N   0  0  0  0  0  1  0  0  0  0  0  0
  183.1070  174.2600  137.8100 N   0  0  0  0  0  2  0  0  0  0  0  0
  184.6550  176.2100  136.3810 N   0  0  0  0  0  0  0  0  0  0  0  0
  183.4230  176.6000  137.0960 C   0  0  2  0  0  3  0  0  0  0  0  0
  185.2840  175.0510  137.0150 C   0  0  0  0  0  2  0  0  0  0  0  0
  1  9  1  0  0  0  0
  2  3  1  0  0  0  0
  2  5  1  0  0  0  0
  3  7  1  0  0  0  0
  4 11  1  1  0  0  0
  5 14  1  0  0  0  0
  6  1  1  0  0  0  0
  7  4  1  0  0  0  0
  8 23  1  6  0  0  0
  8 13  1  0  0  0  0
  8 12  1  0  0  0  0
 10 19  1  0  0  0  0
 12 16  1  0  0  0  0
 13  2  2  0  0  0  0
 14  1  2  0  0  0  0
 15  4  1  0  0  0  0
 16  5  2  0  0  0  0
 16 17  1  0  0  0  0
 17  6  2  0  0  0  0
 18 10  2  0  0  0  0
 18 13  1  0  0  0  0
 19 20  1  0  0  0  0
 19  3  2  0  0  0  0
 20 15  1  0  0  0  0
 22 23  1  0  0  0  0
 22 21  2  0  0  0  0
 24 27  1  1  0  0  0
 24 28  1  0  0  0  0
 25 28  1  0  0  0  0
 26 29  1  0  0  0  0
 29 31  1  0  0  0  0
 29 30  1  0  0  0  0
 30 25  1  0  0  0  0
 30 22  1  1  0  0  0
 31 24  1  0  0  0  0
M  END
>  <MODEL>
7

>  <REMARK>
 VINA RESULT:      -9.1      1.957      2.460
  Name = 
  2 active torsions:
  status: ('A' for Active; 'I' for Inactive)
    1  A    between atoms: C_5  and  C_30
    2  A    between atoms: C_10  and  N_16
                            x       y       z     vdW  Elec       q    Type
                         _______ _______ _______ _____ _____    ______ ____

>  <TORSDO>
F 2

$$$$
=
 OpenBabel11122410563D

 31 35  0  0  1  0  0  0  0  0999 V2000
  185.0710  179.0950  142.1080 C   0  0  0  0  0  0  0  0  0  0  0  0
  188.6430  178.0070  141.3960 C   0  0  0  0  0  0  0  0  0  0  0  0
  189.2140  177.8870  142.7980 C   0  0  0  0  0  0  0  0  0  0  0  0
  188.8880  176.9030  145.0010 C   0  0  2  0  0  3  0  0  0  0  0  0
  187.2220  178.3930  141.2180 C   0  0  0  0  0  0  0  0  0  0  0  0
  184.5130  179.0110  140.8300 C   0  0  0  0  0  3  0  0  0  0  0  0
  188.4580  176.9100  143.5880 N   0  0  0  0  0  2  0  0  0  0  0  0
  188.8770  178.0060  138.9090 C   0  0  1  0  0  3  0  0  0  0  0  0
  184.3050  179.4680  143.1600 F   0  0  0  0  0  0  0  0  0  0  0  0
  191.4170  177.3490  141.5830 C   0  0  0  0  0  3  0  0  0  0  0  0
  187.9900  177.8060  145.8230 C   0  0  0  0  0  1  0  0  0  0  0  0
  187.4500  177.9570  138.8530 O   0  0  0  0  0  0  0  0  0  0  0  0
  189.4210  177.7950  140.3040 C   0  0  0  0  0  0  0  0  0  0  0  0
  186.4200  178.7820  142.3020 C   0  0  0  0  0  3  0  0  0  0  0  0
  190.3710  177.2770  145.2360 C   0  0  0  0  0  2  0  0  0  0  0  0
  186.6570  178.3320  139.9360 C   0  0  0  0  0  0  0  0  0  0  0  0
  185.3040  178.6280  139.7430 C   0  0  0  0  0  3  0  0  0  0  0  0
  190.8230  177.4960  140.4390 N   0  0  0  0  0  0  0  0  0  0  0  0
  190.6620  177.4940  142.8250 C   0  0  0  0  0  0  0  0  0  0  0  0
  191.2010  177.1620  143.9920 C   0  0  0  0  0  2  0  0  0  0  0  0
  189.0730  178.2820  136.0710 O   0  0  0  0  0  0  0  0  0  0  0  0
  189.5020  177.2140  136.5840 C   0  0  0  0  0  0  0  0  0  0  0  0
  189.4340  177.0150  137.9990 N   0  0  0  0  0  2  0  0  0  0  0  0
  189.0900  173.5750  136.3780 C   0  0  1  0  0  3  0  0  0  0  0  0
  189.0020  175.4310  134.8820 C   0  0  0  0  0  2  0  0  0  0  0  0
  191.9380  175.8280  137.2120 C   0  0  0  0  0  1  0  0  0  0  0  0
  188.3040  172.6930  137.2200 N   0  0  0  0  0  1  0  0  0  0  0  0
  188.2090  174.5580  135.7490 N   0  0  0  0  0  2  0  0  0  0  0  0
  190.9430  175.1650  136.3800 N   0  0  0  0  0  0  0  0  0  0  0  0
  190.0900  176.1530  135.6870 C   0  0  2  0  0  3  0  0  0  0  0  0
  190.1400  174.2850  137.2290 C   0  0  0  0  0  2  0  0  0  0  0  0
  1 14  1  0  0  0  0
  1  9  1  0  0  0  0
  2  3  1  0  0  0  0
  3 19  2  0  0  0  0
  3  7  1  0  0  0  0
  4 15  1  0  0  0  0
  4 11  1  1  0  0  0
  5  2  1  0  0  0  0
  5 14  2  0  0  0  0
  6  1  2  0  0  0  0
  7  4  1  0  0  0  0
  8 23  1  6  0  0  0
  8 13  1  0  0  0  0
 10 19  1  0  0  0  0
 12  8  1  0  0  0  0
 12 16  1  0  0  0  0
 13 18  1  0  0  0  0
 13  2  2  0  0  0  0
 16  5  1  0  0  0  0
 17 16  2  0  0  0  0
 17  6  1  0  0  0  0
 18 10  2  0  0  0  0
 19 20  1  0  0  0  0
 20 15  1  0  0  0  0
 21 22  2  0  0  0  0
 22 23  1  0  0  0  0
 24 27  1  1  0  0  0
 24 31  1  0  0  0  0
 25 30  1  0  0  0  0
 25 28  1  0  0  0  0
 28 24  1  0  0  0  0
 29 26  1  0  0  0  0
 29 31  1  0  0  0  0
 30 29  1  0  0  0  0
 30 22  1  1  0  0  0
M  END
>  <MODEL>
8

>  <REMARK>
 VINA RESULT:      -8.4      3.645      5.550
  Name = 
  2 active torsions:
  status: ('A' for Active; 'I' for Inactive)
    1  A    between atoms: C_5  and  C_30
    2  A    between atoms: C_10  and  N_16
                            x       y       z     vdW  Elec       q    Type
                         _______ _______ _______ _____ _____    ______ ____

>  <TORSDO>
F 2

$$$$
=
 OpenBabel11122410563D

 31 35  0  0  1  0  0  0  0  0999 V2000
  185.1710  178.7890  144.8160 C   0  0  0  0  0  0  0  0  0  0  0  0
  188.2660  178.0010  142.7560 C   0  0  0  0  0  0  0  0  0  0  0  0
  189.3170  177.8190  143.8360 C   0  0  0  0  0  0  0  0  0  0  0  0
  189.8620  176.6580  145.9050 C   0  0  2  0  0  3  0  0  0  0  0  0
  186.8660  178.3020  143.1430 C   0  0  0  0  0  0  0  0  0  0  0  0
  184.1840  178.7600  143.8270 C   0  0  0  0  0  3  0  0  0  0  0  0
  188.9430  176.7380  144.7530 N   0  0  0  0  0  2  0  0  0  0  0  0
  187.5670  178.1970  140.3650 C   0  0  1  0  0  3  0  0  0  0  0  0
  184.8330  179.0320  146.1050 F   0  0  0  0  0  0  0  0  0  0  0  0
  190.9360  177.5220  141.8580 C   0  0  0  0  0  3  0  0  0  0  0  0
  189.2980  177.4360  147.0770 C   0  0  0  0  0  1  0  0  0  0  0  0
  186.2230  178.0550  140.8290 O   0  0  0  0  0  0  0  0  0  0  0  0
  188.5950  177.9220  141.4410 C   0  0  0  0  0  0  0  0  0  0  0  0
  186.5070  178.5560  144.4760 C   0  0  0  0  0  3  0  0  0  0  0  0
  191.3130  177.1140  145.6180 C   0  0  0  0  0  2  0  0  0  0  0  0
  185.8710  178.2960  142.1550 C   0  0  0  0  0  0  0  0  0  0  0  0
  184.5330  178.5120  142.4970 C   0  0  0  0  0  3  0  0  0  0  0  0
  189.9570  177.7110  141.0280 N   0  0  0  0  0  0  0  0  0  0  0  0
  190.6870  177.5250  143.2970 C   0  0  0  0  0  0  0  0  0  0  0  0
  191.6300  177.1460  144.1520 C   0  0  0  0  0  2  0  0  0  0  0  0
  186.4160  178.5190  137.7690 O   0  0  0  0  0  0  0  0  0  0  0  0
  187.1770  177.5320  137.9520 C   0  0  0  0  0  0  0  0  0  0  0  0
  187.7850  177.3160  139.2280 N   0  0  0  0  0  2  0  0  0  0  0  0
  190.2370  176.1880  136.4420 C   0  0  1  0  0  3  0  0  0  0  0  0
  188.1760  175.3240  137.2750 C   0  0  0  0  0  2  0  0  0  0  0  0
  187.5130  178.4300  135.2440 C   0  0  0  0  0  1  0  0  0  0  0  0
  191.6220  176.4730  136.7690 N   0  0  0  0  0  1  0  0  0  0  0  0
  189.5650  175.6340  137.6160 N   0  0  0  0  0  2  0  0  0  0  0  0
  188.1520  177.1890  135.6610 N   0  0  0  0  0  0  0  0  0  0  0  0
  187.4390  176.5860  136.8050 C   0  0  2  0  0  3  0  0  0  0  0  0
  189.5450  177.4760  136.0040 C   0  0  0  0  0  2  0  0  0  0  0  0
  1  9  1  0  0  0  0
  2  5  1  0  0  0  0
  2  3  1  0  0  0  0
  3  7  1  0  0  0  0
  4 11  1  1  0  0  0
  5 14  2  0  0  0  0
  6  1  2  0  0  0  0
  7  4  1  0  0  0  0
  8 23  1  6  0  0  0
  8 12  1  0  0  0  0
  8 13  1  0  0  0  0
 10 19  1  0  0  0  0
 12 16  1  0  0  0  0
 13  2  2  0  0  0  0
 14  1  1  0  0  0  0
 15  4  1  0  0  0  0
 16 17  2  0  0  0  0
 16  5  1  0  0  0  0
 17  6  1  0  0  0  0
 18 13  1  0  0  0  0
 18 10  2  0  0  0  0
 19  3  2  0  0  0  0
 19 20  1  0  0  0  0
 20 15  1  0  0  0  0
 21 22  2  0  0  0  0
 22 23  1  0  0  0  0
 24 27  1  1  0  0  0
 24 28  1  0  0  0  0
 25 28  1  0  0  0  0
 26 29  1  0  0  0  0
 29 31  1  0  0  0  0
 29 30  1  0  0  0  0
 30 25  1  0  0  0  0
 30 22  1  1  0  0  0
 31 24  1  0  0  0  0
M  END
>  <MODEL>
9

>  <REMARK>
 VINA RESULT:      -8.2      3.122      4.593
  Name = 
  2 active torsions:
  status: ('A' for Active; 'I' for Inactive)
    1  A    between atoms: C_5  and  C_30
    2  A    between atoms: C_10  and  N_16
                            x       y       z     vdW  Elec       q    Type
                         _______ _______ _______ _____ _____    ______ ____

>  <TORSDO>
F 2

$$$$
