=
 OpenBabel11122410573D

 31 35  0  0  1  0  0  0  0  0999 V2000
  190.1090  176.0020  142.8640 C   0  0  0  0  0  0  0  0  0  0  0  0
  186.7800  177.5260  143.7050 N   0  0  0  0  0  0  0  0  0  0  0  0
  186.7960  177.9420  145.0940 C   0  0  0  0  0  0  0  0  0  0  0  0
  187.9190  178.1740  147.2420 C   0  0  0  0  0  0  0  0  0  0  0  0
  187.9950  177.1900  143.0030 C   0  0  0  0  0  0  0  0  0  0  0  0
  190.3540  176.5740  141.6140 C   0  0  0  0  0  3  0  0  0  0  0  0
  187.9010  177.7010  145.9270 C   0  0  0  0  0  3  0  0  0  0  0  0
  186.0660  179.0750  141.9660 C   0  0  2  0  0  3  0  0  0  0  0  0
  191.0350  175.1300  143.4210 O   0  0  0  0  0  1  0  0  0  0  0  0
  184.6050  178.9210  144.7970 O   0  0  0  0  0  0  0  0  0  0  0  0
  189.3030  177.8610  148.2650 Cl  0  0  0  0  0  0  0  0  0  0  0  0
  187.2260  178.6460  141.0570 C   0  0  0  0  0  2  0  0  0  0  0  0
  185.6470  177.8940  142.8420 C   0  0  2  0  0  3  0  0  0  0  0  0
  188.9330  176.3050  143.5540 C   0  0  0  0  0  3  0  0  0  0  0  0
  186.8390  178.9100  147.7340 C   0  0  0  0  0  3  0  0  0  0  0  0
  188.2440  177.7620  141.7340 C   0  0  0  0  0  0  0  0  0  0  0  0
  189.4210  177.4470  141.0490 C   0  0  0  0  0  3  0  0  0  0  0  0
  184.3590  178.1340  143.6380 C   0  0  0  0  0  2  0  0  0  0  0  0
  185.7080  178.6700  145.6060 C   0  0  0  0  0  0  0  0  0  0  0  0
  185.7350  179.1610  146.9150 C   0  0  0  0  0  3  0  0  0  0  0  0
  184.9600  179.5340  141.1330 N   0  0  0  0  0  2  0  0  0  0  0  0
  183.3580  177.7780  140.6290 C   0  0  0  0  0  1  0  0  0  0  0  0
  184.6420  178.4700  140.1870 C   0  0  1  0  0  3  0  0  0  0  0  0
  183.8380  176.7830  137.0250 C   0  0  1  0  0  3  0  0  0  0  0  0
  183.0760  178.7050  138.2140 C   0  0  0  0  0  2  0  0  0  0  0  0
  186.8120  178.7440  138.1210 O   0  0  0  0  0  1  0  0  0  0  0  0
  183.6080  175.3070  136.7820 C   0  0  0  0  0  1  0  0  0  0  0  0
  182.9090  177.2580  138.0500 N   0  0  0  0  0  2  0  0  0  0  0  0
  185.4950  178.4890  137.7390 C   0  0  2  0  0  3  0  0  0  0  0  0
  184.4750  179.0290  138.7590 C   0  0  2  0  0  3  0  0  0  0  0  0
  185.2820  177.0030  137.4710 C   0  0  0  0  0  2  0  0  0  0  0  0
  1  9  1  0  0  0  0
  1 14  1  0  0  0  0
  2  3  1  0  0  0  0
  3 19  2  0  0  0  0
  3  7  1  0  0  0  0
  4 15  1  0  0  0  0
  4 11  1  0  0  0  0
  5 14  2  0  0  0  0
  5  2  1  0  0  0  0
  6  1  2  0  0  0  0
  7  4  2  0  0  0  0
  8 21  1  6  0  0  0
  8 13  1  0  0  0  0
 10 19  1  0  0  0  0
 12 16  1  0  0  0  0
 12  8  1  0  0  0  0
 13 18  1  1  0  0  0
 13  2  1  0  0  0  0
 16  5  1  0  0  0  0
 17  6  1  0  0  0  0
 17 16  2  0  0  0  0
 18 10  1  0  0  0  0
 19 20  1  0  0  0  0
 20 15  2  0  0  0  0
 23 22  1  1  0  0  0
 23 21  1  0  0  0  0
 24 27  1  1  0  0  0
 24 31  1  0  0  0  0
 24 28  1  0  0  0  0
 25 30  1  0  0  0  0
 28 25  1  0  0  0  0
 29 26  1  1  0  0  0
 29 30  1  0  0  0  0
 30 23  1  1  0  0  0
 31 29  1  0  0  0  0
M  END
>  <MODEL>
1

>  <REMARK>
 VINA RESULT:      -9.5      0.000      0.000
  Name = 
  3 active torsions:
  status: ('A' for Active; 'I' for Inactive)
    1  A    between atoms: C_5  and  N_16
    2  A    between atoms: C_5  and  C_30
    3  A    between atoms: C_10  and  N_16
                            x       y       z     vdW  Elec       q    Type
                         _______ _______ _______ _____ _____    ______ ____

>  <TORSDO>
F 3

$$$$
=
 OpenBabel11122410573D

 31 35  0  0  1  0  0  0  0  0999 V2000
  189.3620  176.4890  142.2350 C   0  0  0  0  0  0  0  0  0  0  0  0
  186.6910  177.6090  144.6270 N   0  0  0  0  0  0  0  0  0  0  0  0
  187.2850  177.7880  145.9370 C   0  0  0  0  0  0  0  0  0  0  0  0
  189.2000  177.7370  147.4400 C   0  0  0  0  0  0  0  0  0  0  0  0
  187.5030  177.4840  143.4410 C   0  0  0  0  0  0  0  0  0  0  0  0
  189.0670  177.2790  141.1210 C   0  0  0  0  0  3  0  0  0  0  0  0
  188.6350  177.4900  146.1860 C   0  0  0  0  0  3  0  0  0  0  0  0
  185.3250  179.3730  143.6460 C   0  0  2  0  0  3  0  0  0  0  0  0
  190.4320  175.6060  142.1950 O   0  0  0  0  0  1  0  0  0  0  0  0
  185.1730  178.6440  146.7480 O   0  0  0  0  0  0  0  0  0  0  0  0
  190.8830  177.3580  147.7310 Cl  0  0  0  0  0  0  0  0  0  0  0  0
  186.0000  179.1850  142.2800 C   0  0  0  0  0  2  0  0  0  0  0  0
  185.3030  178.0340  144.3860 C   0  0  2  0  0  3  0  0  0  0  0  0
  188.5810  176.5880  143.3890 C   0  0  0  0  0  3  0  0  0  0  0  0
  188.4250  178.3020  148.4560 C   0  0  0  0  0  3  0  0  0  0  0  0
  187.2030  178.2750  142.3080 C   0  0  0  0  0  0  0  0  0  0  0  0
  187.9880  178.1640  141.1570 C   0  0  0  0  0  3  0  0  0  0  0  0
  184.4640  178.0460  145.6700 C   0  0  0  0  0  2  0  0  0  0  0  0
  186.5110  178.3410  146.9740 C   0  0  0  0  0  0  0  0  0  0  0  0
  187.0830  178.6060  148.2220 C   0  0  0  0  0  3  0  0  0  0  0  0
  183.9750  179.8830  143.4380 N   0  0  0  0  0  2  0  0  0  0  0  0
  182.1250  178.3130  143.5680 C   0  0  0  0  0  1  0  0  0  0  0  0
  183.2290  178.8810  142.6840 C   0  0  1  0  0  3  0  0  0  0  0  0
  181.7860  177.2770  139.7120 C   0  0  1  0  0  3  0  0  0  0  0  0
  181.1700  179.0180  141.2210 C   0  0  0  0  0  2  0  0  0  0  0  0
  184.7110  179.5440  140.1510 O   0  0  0  0  0  1  0  0  0  0  0  0
  181.6630  175.7980  139.4120 C   0  0  0  0  0  1  0  0  0  0  0  0
  181.1250  177.5720  140.9830 N   0  0  0  0  0  2  0  0  0  0  0  0
  183.3770  179.1410  140.1090 C   0  0  2  0  0  3  0  0  0  0  0  0
  182.6190  179.4890  141.4050 C   0  0  2  0  0  3  0  0  0  0  0  0
  183.2640  177.6570  139.7790 C   0  0  0  0  0  2  0  0  0  0  0  0
  1 14  1  0  0  0  0
  2  3  1  0  0  0  0
  3  7  2  0  0  0  0
  3 19  1  0  0  0  0
  4 11  1  0  0  0  0
  4 15  2  0  0  0  0
  5  2  1  0  0  0  0
  6 17  1  0  0  0  0
  6  1  2  0  0  0  0
  7  4  1  0  0  0  0
  8 21  1  6  0  0  0
  8 13  1  0  0  0  0
  9  1  1  0  0  0  0
 10 19  1  0  0  0  0
 12 16  1  0  0  0  0
 12  8  1  0  0  0  0
 13  2  1  0  0  0  0
 13 18  1  1  0  0  0
 14  5  2  0  0  0  0
 16  5  1  0  0  0  0
 17 16  2  0  0  0  0
 18 10  1  0  0  0  0
 19 20  2  0  0  0  0
 20 15  1  0  0  0  0
 23 21  1  0  0  0  0
 23 22  1  1  0  0  0
 24 27  1  1  0  0  0
 24 31  1  0  0  0  0
 24 28  1  0  0  0  0
 25 30  1  0  0  0  0
 28 25  1  0  0  0  0
 29 26  1  1  0  0  0
 29 30  1  0  0  0  0
 30 23  1  1  0  0  0
 31 29  1  0  0  0  0
M  END
>  <MODEL>
2

>  <REMARK>
 VINA RESULT:      -8.2      1.811      2.260
  Name = 
  3 active torsions:
  status: ('A' for Active; 'I' for Inactive)
    1  A    between atoms: C_5  and  N_16
    2  A    between atoms: C_5  and  C_30
    3  A    between atoms: C_10  and  N_16
                            x       y       z     vdW  Elec       q    Type
                         _______ _______ _______ _____ _____    ______ ____

>  <TORSDO>
F 3

$$$$
=
 OpenBabel11122410573D

 31 35  0  0  1  0  0  0  0  0999 V2000
  185.0110  179.0580  145.6700 C   0  0  0  0  0  0  0  0  0  0  0  0
  186.7090  178.5450  142.3590 N   0  0  0  0  0  0  0  0  0  0  0  0
  187.9380  177.8070  142.5760 C   0  0  0  0  0  0  0  0  0  0  0  0
  189.5250  176.6830  144.0410 C   0  0  0  0  0  0  0  0  0  0  0  0
  185.6910  178.6310  143.3770 C   0  0  0  0  0  0  0  0  0  0  0  0
  183.6850  178.7750  145.3330 C   0  0  0  0  0  3  0  0  0  0  0  0
  188.3730  177.4540  143.8640 C   0  0  0  0  0  3  0  0  0  0  0  0
  185.1170  177.8100  140.6670 C   0  0  2  0  0  3  0  0  0  0  0  0
  185.3360  179.4070  146.9730 O   0  0  0  0  0  1  0  0  0  0  0  0
  188.2690  177.7070  140.1820 O   0  0  0  0  0  0  0  0  0  0  0  0
  190.0520  176.2550  145.6530 Cl  0  0  0  0  0  0  0  0  0  0  0  0
  183.9380  178.0540  141.6190 C   0  0  0  0  0  2  0  0  0  0  0  0
  186.2390  178.7990  140.9880 C   0  0  2  0  0  3  0  0  0  0  0  0
  186.0090  178.9910  144.6950 C   0  0  0  0  0  3  0  0  0  0  0  0
  190.2470  176.2400  142.9300 C   0  0  0  0  0  3  0  0  0  0  0  0
  184.3470  178.3530  143.0400 C   0  0  0  0  0  0  0  0  0  0  0  0
  183.3540  178.4290  144.0210 C   0  0  0  0  0  3  0  0  0  0  0  0
  187.3830  178.7980  139.9670 C   0  0  0  0  0  2  0  0  0  0  0  0
  188.6830  177.3690  141.4660 C   0  0  0  0  0  0  0  0  0  0  0  0
  189.8240  176.5800  141.6430 C   0  0  0  0  0  3  0  0  0  0  0  0
  184.6540  177.9660  139.2930 N   0  0  0  0  0  2  0  0  0  0  0  0
  183.4470  180.0470  138.9520 C   0  0  0  0  0  1  0  0  0  0  0  0
  183.3300  178.5760  139.3340 C   0  0  1  0  0  3  0  0  0  0  0  0
  179.8150  177.6010  139.7610 C   0  0  1  0  0  3  0  0  0  0  0  0
  181.1190  178.7280  138.1130 C   0  0  0  0  0  2  0  0  0  0  0  0
  182.8980  175.6050  139.1350 O   0  0  0  0  0  1  0  0  0  0  0  0
  178.9320  177.7830  140.9780 C   0  0  0  0  0  1  0  0  0  0  0  0
  180.3410  178.9000  139.3440 N   0  0  0  0  0  2  0  0  0  0  0  0
  181.8550  176.4940  138.8810 C   0  0  2  0  0  3  0  0  0  0  0  0
  182.3570  177.8590  138.3750 C   0  0  2  0  0  3  0  0  0  0  0  0
  180.9570  176.6480  140.1030 C   0  0  0  0  0  2  0  0  0  0  0  0
  1  9  1  0  0  0  0
  2  3  1  0  0  0  0
  2  5  1  0  0  0  0
  3  7  1  0  0  0  0
  4 11  1  0  0  0  0
  5 14  1  0  0  0  0
  6  1  1  0  0  0  0
  7  4  2  0  0  0  0
  8 21  1  6  0  0  0
  8 13  1  0  0  0  0
  8 12  1  0  0  0  0
 10 19  1  0  0  0  0
 12 16  1  0  0  0  0
 13 18  1  6  0  0  0
 13  2  1  0  0  0  0
 14  1  2  0  0  0  0
 15  4  1  0  0  0  0
 16  5  2  0  0  0  0
 16 17  1  0  0  0  0
 17  6  2  0  0  0  0
 18 10  1  0  0  0  0
 19 20  1  0  0  0  0
 19  3  2  0  0  0  0
 20 15  2  0  0  0  0
 21 23  1  0  0  0  0
 23 22  1  6  0  0  0
 24 31  1  0  0  0  0
 24 27  1  1  0  0  0
 25 30  1  0  0  0  0
 25 28  1  0  0  0  0
 28 24  1  0  0  0  0
 29 26  1  1  0  0  0
 29 31  1  0  0  0  0
 30 29  1  0  0  0  0
 30 23  1  1  0  0  0
M  END
>  <MODEL>
3

>  <REMARK>
 VINA RESULT:      -8.1      2.119      4.670
  Name = 
  3 active torsions:
  status: ('A' for Active; 'I' for Inactive)
    1  A    between atoms: C_5  and  N_16
    2  A    between atoms: C_5  and  C_30
    3  A    between atoms: C_10  and  N_16
                            x       y       z     vdW  Elec       q    Type
                         _______ _______ _______ _____ _____    ______ ____

>  <TORSDO>
F 3

$$$$
=
 OpenBabel11122410573D

 31 35  0  0  1  0  0  0  0  0999 V2000
  190.9330  176.9250  142.3010 C   0  0  0  0  0  0  0  0  0  0  0  0
  189.8580  177.7790  138.8040 N   0  0  0  0  0  0  0  0  0  0  0  0
  190.5540  176.9070  137.8780 C   0  0  0  0  0  0  0  0  0  0  0  0
  192.1190  175.1020  137.4080 C   0  0  0  0  0  0  0  0  0  0  0  0
  189.8210  177.5000  140.2190 C   0  0  0  0  0  0  0  0  0  0  0  0
  189.7060  176.9500  142.9680 C   0  0  0  0  0  3  0  0  0  0  0  0
  191.5130  175.9780  138.3130 C   0  0  0  0  0  3  0  0  0  0  0  0
  187.4380  178.0300  138.6720 C   0  0  2  0  0  3  0  0  0  0  0  0
  192.0950  176.6240  142.9980 O   0  0  0  0  0  1  0  0  0  0  0  0
  189.2640  177.8520  136.0630 O   0  0  0  0  0  0  0  0  0  0  0  0
  193.3130  173.9530  137.9690 Cl  0  0  0  0  0  0  0  0  0  0  0  0
  187.3090  177.9360  140.1990 C   0  0  0  0  0  2  0  0  0  0  0  0
  188.7850  178.6600  138.3170 C   0  0  2  0  0  3  0  0  0  0  0  0
  190.9910  177.2030  140.9340 C   0  0  0  0  0  3  0  0  0  0  0  0
  191.7590  175.1330  136.0580 C   0  0  0  0  0  3  0  0  0  0  0  0
  188.5820  177.5320  140.9000 C   0  0  0  0  0  0  0  0  0  0  0  0
  188.5360  177.2580  142.2700 C   0  0  0  0  0  3  0  0  0  0  0  0
  188.9410  179.0040  136.8310 C   0  0  0  0  0  2  0  0  0  0  0  0
  190.2130  176.9400  136.5140 C   0  0  0  0  0  0  0  0  0  0  0  0
  190.8040  176.0490  135.6130 C   0  0  0  0  0  3  0  0  0  0  0  0
  186.3310  178.8250  138.1540 N   0  0  0  0  0  2  0  0  0  0  0  0
  185.9740  176.6110  137.2180 C   0  0  0  0  0  1  0  0  0  0  0  0
  185.3070  177.9040  137.6720 C   0  0  1  0  0  3  0  0  0  0  0  0
  181.6870  178.5110  137.7930 C   0  0  1  0  0  3  0  0  0  0  0  0
  183.1600  176.6880  138.2330 C   0  0  0  0  0  2  0  0  0  0  0  0
  184.4960  179.7530  139.9040 O   0  0  0  0  0  1  0  0  0  0  0  0
  180.8110  179.1700  136.7490 C   0  0  0  0  0  1  0  0  0  0  0  0
  182.3860  177.3750  137.1950 N   0  0  0  0  0  2  0  0  0  0  0  0
  183.5820  178.8500  139.3600 C   0  0  2  0  0  3  0  0  0  0  0  0
  184.2690  177.6030  138.7730 C   0  0  2  0  0  3  0  0  0  0  0  0
  182.6870  179.5310  138.3300 C   0  0  0  0  0  2  0  0  0  0  0  0
  1  6  1  0  0  0  0
  1  9  1  0  0  0  0
  2  5  1  0  0  0  0
  3  7  1  0  0  0  0
  3  2  1  0  0  0  0
  4 11  1  0  0  0  0
  4  7  2  0  0  0  0
  5 16  2  0  0  0  0
  5 14  1  0  0  0  0
  8 21  1  1  0  0  0
  8 12  1  0  0  0  0
 10 19  1  0  0  0  0
 10 18  1  0  0  0  0
 12 16  1  0  0  0  0
 13 18  1  6  0  0  0
 13  8  1  0  0  0  0
 13  2  1  0  0  0  0
 14  1  2  0  0  0  0
 15  4  1  0  0  0  0
 16 17  1  0  0  0  0
 17  6  2  0  0  0  0
 19  3  2  0  0  0  0
 20 15  2  0  0  0  0
 20 19  1  0  0  0  0
 23 22  1  1  0  0  0
 23 21  1  0  0  0  0
 24 27  1  6  0  0  0
 24 31  1  0  0  0  0
 25 30  1  0  0  0  0
 28 24  1  0  0  0  0
 28 25  1  0  0  0  0
 29 26  1  6  0  0  0
 30 23  1  6  0  0  0
 30 29  1  0  0  0  0
 31 29  1  0  0  0  0
M  END
>  <MODEL>
4

>  <REMARK>
 VINA RESULT:      -8.0      3.642      6.307
  Name = 
  3 active torsions:
  status: ('A' for Active; 'I' for Inactive)
    1  A    between atoms: C_5  and  N_16
    2  A    between atoms: C_5  and  C_30
    3  A    between atoms: C_10  and  N_16
                            x       y       z     vdW  Elec       q    Type
                         _______ _______ _______ _____ _____    ______ ____

>  <TORSDO>
F 3

$$$$
=
 OpenBabel11122410573D

 31 35  0  0  1  0  0  0  0  0999 V2000
  183.9020  178.6570  143.0510 C   0  0  0  0  0  0  0  0  0  0  0  0
  183.1990  178.1840  139.3910 N   0  0  0  0  0  0  0  0  0  0  0  0
  182.0150  178.9450  139.0420 C   0  0  0  0  0  0  0  0  0  0  0  0
  180.1830  180.4360  139.6330 C   0  0  0  0  0  0  0  0  0  0  0  0
  183.8960  178.4000  140.6350 C   0  0  0  0  0  0  0  0  0  0  0  0
  185.2870  178.8380  143.0320 C   0  0  0  0  0  3  0  0  0  0  0  0
  181.2790  179.6530  140.0070 C   0  0  0  0  0  3  0  0  0  0  0  0
  185.2370  178.4080  138.0750 C   0  0  2  0  0  3  0  0  0  0  0  0
  183.2130  178.6970  144.2550 O   0  0  0  0  0  1  0  0  0  0  0  0
  182.3480  178.3490  136.7220 O   0  0  0  0  0  0  0  0  0  0  0  0
  179.2760  181.3070  140.8490 Cl  0  0  0  0  0  0  0  0  0  0  0  0
  186.0950  178.4560  139.3460 C   0  0  0  0  0  2  0  0  0  0  0  0
  183.9990  177.5470  138.3330 C   0  0  2  0  0  3  0  0  0  0  0  0
  183.2100  178.4340  141.8580 C   0  0  0  0  0  3  0  0  0  0  0  0
  179.8210  180.5350  138.2870 C   0  0  0  0  0  3  0  0  0  0  0  0
  185.2990  178.5770  140.6220 C   0  0  0  0  0  0  0  0  0  0  0  0
  185.9830  178.7930  141.8220 C   0  0  0  0  0  3  0  0  0  0  0  0
  183.1750  177.2470  137.0760 C   0  0  0  0  0  2  0  0  0  0  0  0
  181.6310  179.0410  137.6930 C   0  0  0  0  0  0  0  0  0  0  0  0
  180.5470  179.8400  137.3180 C   0  0  0  0  0  3  0  0  0  0  0  0
  186.0390  177.8650  136.9840 N   0  0  0  0  0  2  0  0  0  0  0  0
  186.6170  175.5350  137.3590 C   0  0  0  0  0  1  0  0  0  0  0  0
  187.0440  176.9830  137.5660 C   0  0  1  0  0  3  0  0  0  0  0  0
  190.3920  177.1390  139.0680 C   0  0  1  0  0  3  0  0  0  0  0  0
  189.3660  176.0400  137.2180 C   0  0  0  0  0  2  0  0  0  0  0  0
  188.3890  179.6460  137.1740 O   0  0  0  0  0  1  0  0  0  0  0  0
  190.7720  177.0120  140.5280 C   0  0  0  0  0  1  0  0  0  0  0  0
  189.6500  175.9490  138.6530 N   0  0  0  0  0  2  0  0  0  0  0  0
  189.1430  178.4970  137.4070 C   0  0  2  0  0  3  0  0  0  0  0  0
  188.4280  177.2200  136.9260 C   0  0  2  0  0  3  0  0  0  0  0  0
  189.5430  178.3930  138.8750 C   0  0  0  0  0  2  0  0  0  0  0  0
  1  9  1  0  0  0  0
  2  5  1  0  0  0  0
  3  2  1  0  0  0  0
  3  7  1  0  0  0  0
  4  7  2  0  0  0  0
  4 11  1  0  0  0  0
  5 14  1  0  0  0  0
  6  1  1  0  0  0  0
  8 21  1  6  0  0  0
  8 13  1  0  0  0  0
  8 12  1  0  0  0  0
 10 18  1  0  0  0  0
 10 19  1  0  0  0  0
 12 16  1  0  0  0  0
 13 18  1  6  0  0  0
 13  2  1  0  0  0  0
 14  1  2  0  0  0  0
 15  4  1  0  0  0  0
 16  5  2  0  0  0  0
 16 17  1  0  0  0  0
 17  6  2  0  0  0  0
 19  3  2  0  0  0  0
 20 19  1  0  0  0  0
 20 15  2  0  0  0  0
 21 23  1  0  0  0  0
 23 22  1  6  0  0  0
 24 27  1  1  0  0  0
 25 28  1  0  0  0  0
 28 24  1  0  0  0  0
 29 26  1  1  0  0  0
 29 31  1  0  0  0  0
 30 25  1  0  0  0  0
 30 29  1  0  0  0  0
 30 23  1  1  0  0  0
 31 24  1  0  0  0  0
M  END
>  <MODEL>
5

>  <REMARK>
 VINA RESULT:      -8.0      3.735      7.052
  Name = 
  3 active torsions:
  status: ('A' for Active; 'I' for Inactive)
    1  A    between atoms: C_5  and  N_16
    2  A    between atoms: C_5  and  C_30
    3  A    between atoms: C_10  and  N_16
                            x       y       z     vdW  Elec       q    Type
                         _______ _______ _______ _____ _____    ______ ____

>  <TORSDO>
F 3

$$$$
=
 OpenBabel11122410573D

 31 35  0  0  1  0  0  0  0  0999 V2000
  189.2350  177.8850  143.1170 C   0  0  0  0  0  0  0  0  0  0  0  0
  186.5290  178.6930  140.6400 N   0  0  0  0  0  0  0  0  0  0  0  0
  186.9200  178.1830  139.3400 C   0  0  0  0  0  0  0  0  0  0  0  0
  188.4890  177.0210  137.8850 C   0  0  0  0  0  0  0  0  0  0  0  0
  187.2020  178.2800  141.8470 C   0  0  0  0  0  0  0  0  0  0  0  0
  188.4750  177.4540  144.2060 C   0  0  0  0  0  3  0  0  0  0  0  0
  188.1650  177.5660  139.1300 C   0  0  0  0  0  3  0  0  0  0  0  0
  184.3290  178.1770  141.5510 C   0  0  2  0  0  3  0  0  0  0  0  0
  190.6210  177.9000  143.2000 O   0  0  0  0  0  1  0  0  0  0  0  0
  184.7650  178.8440  138.4620 O   0  0  0  0  0  0  0  0  0  0  0  0
  190.0450  176.2600  137.6420 Cl  0  0  0  0  0  0  0  0  0  0  0  0
  184.9300  177.8980  142.9360 C   0  0  0  0  0  2  0  0  0  0  0  0
  185.1750  179.2340  140.8380 C   0  0  2  0  0  3  0  0  0  0  0  0
  188.6010  178.3000  141.9430 C   0  0  0  0  0  3  0  0  0  0  0  0
  187.5640  177.0690  136.8390 C   0  0  0  0  0  3  0  0  0  0  0  0
  186.4370  177.8500  142.9550 C   0  0  0  0  0  0  0  0  0  0  0  0
  187.0810  177.4430  144.1270 C   0  0  0  0  0  3  0  0  0  0  0  0
  184.5550  179.7530  139.5350 C   0  0  0  0  0  2  0  0  0  0  0  0
  186.0040  178.2390  138.2750 C   0  0  0  0  0  0  0  0  0  0  0  0
  186.3210  177.6750  137.0350 C   0  0  0  0  0  3  0  0  0  0  0  0
  182.9520  178.6280  141.7160 N   0  0  0  0  0  2  0  0  0  0  0  0
  182.6580  176.7350  140.2220 C   0  0  0  0  0  1  0  0  0  0  0  0
  182.1820  178.1390  140.5780 C   0  0  1  0  0  3  0  0  0  0  0  0
  179.3470  179.7440  138.8820 C   0  0  1  0  0  3  0  0  0  0  0  0
  179.8780  177.5680  139.7030 C   0  0  0  0  0  2  0  0  0  0  0  0
  180.7090  180.0890  142.3340 O   0  0  0  0  0  1  0  0  0  0  0  0
  179.3710  180.6480  137.6680 C   0  0  0  0  0  1  0  0  0  0  0  0
  179.9860  178.4700  138.5520 N   0  0  0  0  0  2  0  0  0  0  0  0
  180.0760  179.4950  141.2430 C   0  0  2  0  0  3  0  0  0  0  0  0
  180.6730  178.1180  140.8960 C   0  0  2  0  0  3  0  0  0  0  0  0
  180.0810  180.4250  140.0350 C   0  0  0  0  0  2  0  0  0  0  0  0
  1  9  1  0  0  0  0
  1  6  1  0  0  0  0
  2 13  1  0  0  0  0
  2  5  1  0  0  0  0
  3  2  1  0  0  0  0
  4  7  2  0  0  0  0
  5 14  1  0  0  0  0
  5 16  2  0  0  0  0
  7  3  1  0  0  0  0
  8 21  1  1  0  0  0
  8 12  1  0  0  0  0
 10 18  1  0  0  0  0
 11  4  1  0  0  0  0
 12 16  1  0  0  0  0
 13 18  1  6  0  0  0
 13  8  1  0  0  0  0
 14  1  2  0  0  0  0
 15 20  2  0  0  0  0
 15  4  1  0  0  0  0
 16 17  1  0  0  0  0
 17  6  2  0  0  0  0
 19 10  1  0  0  0  0
 19  3  2  0  0  0  0
 20 19  1  0  0  0  0
 23 22  1  1  0  0  0
 23 21  1  0  0  0  0
 24 27  1  6  0  0  0
 24 31  1  0  0  0  0
 25 30  1  0  0  0  0
 28 24  1  0  0  0  0
 28 25  1  0  0  0  0
 29 26  1  1  0  0  0
 30 23  1  6  0  0  0
 30 29  1  0  0  0  0
 31 29  1  0  0  0  0
M  END
>  <MODEL>
6

>  <REMARK>
 VINA RESULT:      -8.0      3.083      5.639
  Name = 
  3 active torsions:
  status: ('A' for Active; 'I' for Inactive)
    1  A    between atoms: C_5  and  N_16
    2  A    between atoms: C_5  and  C_30
    3  A    between atoms: C_10  and  N_16
                            x       y       z     vdW  Elec       q    Type
                         _______ _______ _______ _____ _____    ______ ____

>  <TORSDO>
F 3

$$$$
=
 OpenBabel11122410573D

 31 35  0  0  1  0  0  0  0  0999 V2000
  184.6960  179.3280  144.9000 C   0  0  0  0  0  0  0  0  0  0  0  0
  185.4060  179.1190  141.2170 N   0  0  0  0  0  0  0  0  0  0  0  0
  186.7310  178.5610  141.0290 C   0  0  0  0  0  0  0  0  0  0  0  0
  188.8100  177.6490  141.9110 C   0  0  0  0  0  0  0  0  0  0  0  0
  184.7280  179.0420  142.4870 C   0  0  0  0  0  0  0  0  0  0  0  0
  183.3790  178.8640  144.9410 C   0  0  0  0  0  3  0  0  0  0  0  0
  187.5660  178.2510  142.1160 C   0  0  0  0  0  3  0  0  0  0  0  0
  183.5020  178.1940  140.0120 C   0  0  2  0  0  3  0  0  0  0  0  0
  185.3390  179.6970  146.0730 O   0  0  0  0  0  1  0  0  0  0  0  0
  186.3590  178.5500  138.6390 O   0  0  0  0  0  0  0  0  0  0  0  0
  189.8360  177.2740  143.2770 Cl  0  0  0  0  0  0  0  0  0  0  0  0
  182.6300  178.2500  141.2750 C   0  0  0  0  0  2  0  0  0  0  0  0
  184.5270  179.3280  140.0550 C   0  0  2  0  0  3  0  0  0  0  0  0
  185.3660  179.4200  143.6780 C   0  0  0  0  0  3  0  0  0  0  0  0
  189.2280  177.3340  140.6160 C   0  0  0  0  0  3  0  0  0  0  0  0
  183.3920  178.5800  142.5340 C   0  0  0  0  0  0  0  0  0  0  0  0
  182.7290  178.4970  143.7610 C   0  0  0  0  0  3  0  0  0  0  0  0
  185.3140  179.5070  138.7520 C   0  0  0  0  0  2  0  0  0  0  0  0
  187.1710  178.2530  139.7290 C   0  0  0  0  0  0  0  0  0  0  0  0
  188.4070  177.6320  139.5260 C   0  0  0  0  0  3  0  0  0  0  0  0
  182.6410  178.3060  138.8400 N   0  0  0  0  0  2  0  0  0  0  0  0
  180.7890  179.8120  139.2900 C   0  0  0  0  0  1  0  0  0  0  0  0
  181.2590  178.3630  139.3040 C   0  0  1  0  0  3  0  0  0  0  0  0
  179.3620  175.3080  140.0520 C   0  0  1  0  0  3  0  0  0  0  0  0
  178.9310  177.4140  139.0200 C   0  0  0  0  0  2  0  0  0  0  0  0
  182.1010  176.0110  137.6260 O   0  0  0  0  0  1  0  0  0  0  0  0
  179.3080  174.5330  141.3520 C   0  0  0  0  0  1  0  0  0  0  0  0
  178.9640  176.6940  140.2960 N   0  0  0  0  0  2  0  0  0  0  0  0
  180.8300  176.0580  138.1960 C   0  0  2  0  0  3  0  0  0  0  0  0
  180.3390  177.5020  138.4140 C   0  0  2  0  0  3  0  0  0  0  0  0
  180.7800  175.2520  139.4890 C   0  0  0  0  0  2  0  0  0  0  0  0
  1  6  1  0  0  0  0
  1  9  1  0  0  0  0
  2  5  1  0  0  0  0
  3  2  1  0  0  0  0
  3  7  1  0  0  0  0
  4  7  2  0  0  0  0
  4 11  1  0  0  0  0
  5 16  2  0  0  0  0
  5 14  1  0  0  0  0
  8 21  1  6  0  0  0
  8 13  1  0  0  0  0
  8 12  1  0  0  0  0
 10 18  1  0  0  0  0
 10 19  1  0  0  0  0
 12 16  1  0  0  0  0
 13 18  1  6  0  0  0
 13  2  1  0  0  0  0
 14  1  2  0  0  0  0
 15  4  1  0  0  0  0
 16 17  1  0  0  0  0
 17  6  2  0  0  0  0
 19  3  2  0  0  0  0
 20 19  1  0  0  0  0
 20 15  2  0  0  0  0
 21 23  1  0  0  0  0
 23 22  1  6  0  0  0
 24 28  1  0  0  0  0
 24 27  1  1  0  0  0
 25 28  1  0  0  0  0
 29 26  1  1  0  0  0
 29 30  1  0  0  0  0
 29 31  1  0  0  0  0
 30 25  1  0  0  0  0
 30 23  1  1  0  0  0
 31 24  1  0  0  0  0
M  END
>  <MODEL>
7

>  <REMARK>
 VINA RESULT:      -7.8      2.679      5.408
  Name = 
  3 active torsions:
  status: ('A' for Active; 'I' for Inactive)
    1  A    between atoms: C_5  and  N_16
    2  A    between atoms: C_5  and  C_30
    3  A    between atoms: C_10  and  N_16
                            x       y       z     vdW  Elec       q    Type
                         _______ _______ _______ _____ _____    ______ ____

>  <TORSDO>
F 3

$$$$
=
 OpenBabel11122410573D

 31 35  0  0  1  0  0  0  0  0999 V2000
  184.7430  179.3610  144.9490 C   0  0  0  0  0  0  0  0  0  0  0  0
  185.0010  179.2050  141.2050 N   0  0  0  0  0  0  0  0  0  0  0  0
  186.3020  178.6710  140.8500 C   0  0  0  0  0  0  0  0  0  0  0  0
  188.4870  177.7860  141.4590 C   0  0  0  0  0  0  0  0  0  0  0  0
  184.4840  179.1020  142.5480 C   0  0  0  0  0  0  0  0  0  0  0  0
  183.4490  178.8740  145.1450 C   0  0  0  0  0  3  0  0  0  0  0  0
  187.2670  178.3640  141.8230 C   0  0  0  0  0  3  0  0  0  0  0  0
  182.9780  178.2600  140.2300 C   0  0  2  0  0  3  0  0  0  0  0  0
  185.5190  179.7280  146.0400 O   0  0  0  0  0  1  0  0  0  0  0  0
  185.6400  178.6810  138.5230 O   0  0  0  0  0  0  0  0  0  0  0  0
  189.6770  177.4130  142.6850 Cl  0  0  0  0  0  0  0  0  0  0  0  0
  182.2670  178.2880  141.5900 C   0  0  0  0  0  2  0  0  0  0  0  0
  183.9830  179.4110  140.1620 C   0  0  2  0  0  3  0  0  0  0  0  0
  185.2570  179.4780  143.6560 C   0  0  0  0  0  3  0  0  0  0  0  0
  188.7480  177.4910  140.1180 C   0  0  0  0  0  3  0  0  0  0  0  0
  183.1710  178.6170  142.7510 C   0  0  0  0  0  0  0  0  0  0  0  0
  182.6640  178.5090  144.0490 C   0  0  0  0  0  3  0  0  0  0  0  0
  184.6010  179.6190  138.7750 C   0  0  0  0  0  2  0  0  0  0  0  0
  186.5830  178.3850  139.5020 C   0  0  0  0  0  0  0  0  0  0  0  0
  187.7950  177.7880  139.1410 C   0  0  0  0  0  3  0  0  0  0  0  0
  181.9790  178.3710  139.1730 N   0  0  0  0  0  2  0  0  0  0  0  0
  182.9010  176.1310  138.9900 C   0  0  0  0  0  1  0  0  0  0  0  0
  181.7130  177.0290  138.6670 C   0  0  1  0  0  3  0  0  0  0  0  0
  179.2240  174.7000  137.2990 C   0  0  1  0  0  3  0  0  0  0  0  0
  180.4870  174.9110  139.3110 C   0  0  0  0  0  2  0  0  0  0  0  0
  178.9550  178.2200  138.4930 O   0  0  0  0  0  1  0  0  0  0  0  0
  179.1850  174.0720  135.9220 C   0  0  0  0  0  1  0  0  0  0  0  0
  180.4950  174.3760  137.9460 N   0  0  0  0  0  2  0  0  0  0  0  0
  179.1300  176.8380  138.5580 C   0  0  2  0  0  3  0  0  0  0  0  0
  180.4280  176.4450  139.2890 C   0  0  2  0  0  3  0  0  0  0  0  0
  179.0610  176.2130  137.1690 C   0  0  0  0  0  2  0  0  0  0  0  0
  1  6  1  0  0  0  0
  1  9  1  0  0  0  0
  2  5  1  0  0  0  0
  3  2  1  0  0  0  0
  3  7  1  0  0  0  0
  4  7  2  0  0  0  0
  4 11  1  0  0  0  0
  5 16  2  0  0  0  0
  5 14  1  0  0  0  0
  8 21  1  6  0  0  0
  8 12  1  0  0  0  0
 10 18  1  0  0  0  0
 10 19  1  0  0  0  0
 12 16  1  0  0  0  0
 13 18  1  6  0  0  0
 13  8  1  0  0  0  0
 13  2  1  0  0  0  0
 14  1  2  0  0  0  0
 15  4  1  0  0  0  0
 16 17  1  0  0  0  0
 17  6  2  0  0  0  0
 19  3  2  0  0  0  0
 20 19  1  0  0  0  0
 20 15  2  0  0  0  0
 23 22  1  1  0  0  0
 23 21  1  0  0  0  0
 24 27  1  6  0  0  0
 24 28  1  0  0  0  0
 28 25  1  0  0  0  0
 29 26  1  6  0  0  0
 29 30  1  0  0  0  0
 30 23  1  6  0  0  0
 30 25  1  0  0  0  0
 31 24  1  0  0  0  0
 31 29  1  0  0  0  0
M  END
>  <MODEL>
8

>  <REMARK>
 VINA RESULT:      -7.8      2.940      5.611
  Name = 
  3 active torsions:
  status: ('A' for Active; 'I' for Inactive)
    1  A    between atoms: C_5  and  N_16
    2  A    between atoms: C_5  and  C_30
    3  A    between atoms: C_10  and  N_16
                            x       y       z     vdW  Elec       q    Type
                         _______ _______ _______ _____ _____    ______ ____

>  <TORSDO>
F 3

$$$$
=
 OpenBabel11122410573D

 31 35  0  0  1  0  0  0  0  0999 V2000
  184.5980  179.3640  143.0780 C   0  0  0  0  0  0  0  0  0  0  0  0
  186.1990  178.6210  139.7620 N   0  0  0  0  0  0  0  0  0  0  0  0
  187.5420  178.1270  139.9940 C   0  0  0  0  0  0  0  0  0  0  0  0
  189.3610  177.5030  141.4880 C   0  0  0  0  0  0  0  0  0  0  0  0
  185.2300  178.7020  140.8280 C   0  0  0  0  0  0  0  0  0  0  0  0
  183.3230  178.8290  142.8810 C   0  0  0  0  0  3  0  0  0  0  0  0
  188.0900  178.0480  141.2850 C   0  0  0  0  0  3  0  0  0  0  0  0
  184.6730  177.3950  138.3110 C   0  0  2  0  0  3  0  0  0  0  0  0
  184.9230  179.9560  144.2910 O   0  0  0  0  0  1  0  0  0  0  0  0
  187.7710  177.7140  137.6220 O   0  0  0  0  0  0  0  0  0  0  0  0
  190.0270  177.4160  143.1030 Cl  0  0  0  0  0  0  0  0  0  0  0  0
  183.5160  177.5940  139.3010 C   0  0  0  0  0  2  0  0  0  0  0  0
  185.6290  178.5850  138.4060 C   0  0  2  0  0  3  0  0  0  0  0  0
  185.5460  179.3050  142.0540 C   0  0  0  0  0  3  0  0  0  0  0  0
  190.0930  177.0140  140.4030 C   0  0  0  0  0  3  0  0  0  0  0  0
  183.9360  178.1690  140.6310 C   0  0  0  0  0  0  0  0  0  0  0  0
  182.9920  178.2380  141.6600 C   0  0  0  0  0  3  0  0  0  0  0  0
  186.7080  178.6060  137.3170 C   0  0  0  0  0  2  0  0  0  0  0  0
  188.2960  177.6450  138.9080 C   0  0  0  0  0  0  0  0  0  0  0  0
  189.5590  177.0820  139.1150 C   0  0  0  0  0  3  0  0  0  0  0  0
  184.1250  177.2640  136.9660 N   0  0  0  0  0  2  0  0  0  0  0  0
  182.1500  175.9730  136.3840 C   0  0  0  0  0  1  0  0  0  0  0  0
  183.6080  175.9070  136.8240 C   0  0  1  0  0  3  0  0  0  0  0  0
  183.8220  172.2920  136.2150 C   0  0  1  0  0  3  0  0  0  0  0  0
  183.5090  174.2600  134.9060 C   0  0  0  0  0  2  0  0  0  0  0  0
  186.3770  174.8040  137.2400 O   0  0  0  0  0  1  0  0  0  0  0  0
  183.1200  171.1730  136.9560 C   0  0  0  0  0  1  0  0  0  0  0  0
  182.8280  173.2310  135.6980 N   0  0  0  0  0  2  0  0  0  0  0  0
  185.4640  174.1430  136.4190 C   0  0  2  0  0  3  0  0  0  0  0  0
  184.4320  175.1030  135.7970 C   0  0  2  0  0  3  0  0  0  0  0  0
  184.7830  173.0010  137.1660 C   0  0  0  0  0  2  0  0  0  0  0  0
  1  9  1  0  0  0  0
  2  3  1  0  0  0  0
  2  5  1  0  0  0  0
  3  7  1  0  0  0  0
  4 11  1  0  0  0  0
  5 14  1  0  0  0  0
  6  1  1  0  0  0  0
  7  4  2  0  0  0  0
  8 21  1  6  0  0  0
  8 13  1  0  0  0  0
  8 12  1  0  0  0  0
 10 19  1  0  0  0  0
 12 16  1  0  0  0  0
 13 18  1  6  0  0  0
 13  2  1  0  0  0  0
 14  1  2  0  0  0  0
 15  4  1  0  0  0  0
 16  5  2  0  0  0  0
 16 17  1  0  0  0  0
 17  6  2  0  0  0  0
 18 10  1  0  0  0  0
 19 20  1  0  0  0  0
 19  3  2  0  0  0  0
 20 15  2  0  0  0  0
 23 22  1  6  0  0  0
 23 21  1  0  0  0  0
 24 27  1  1  0  0  0
 24 31  1  0  0  0  0
 25 28  1  0  0  0  0
 25 30  1  0  0  0  0
 28 24  1  0  0  0  0
 29 31  1  0  0  0  0
 29 26  1  1  0  0  0
 30 29  1  0  0  0  0
 30 23  1  1  0  0  0
M  END
>  <MODEL>
9

>  <REMARK>
 VINA RESULT:      -7.8      2.842      5.639
  Name = 
  3 active torsions:
  status: ('A' for Active; 'I' for Inactive)
    1  A    between atoms: C_5  and  N_16
    2  A    between atoms: C_5  and  C_30
    3  A    between atoms: C_10  and  N_16
                            x       y       z     vdW  Elec       q    Type
                         _______ _______ _______ _____ _____    ______ ____

>  <TORSDO>
F 3

$$$$
