=
 OpenBabel11122410473D

 32 38  0  0  1  0  0  0  0  0999 V2000
  188.0520  178.3130  136.7210 C   0  0  1  0  0  3  0  0  0  0  0  0
  187.7210  177.8960  141.9870 C   0  0  0  0  0  0  0  0  0  0  0  0
  183.0630  179.0030  142.9650 C   0  0  0  0  0  3  0  0  0  0  0  0
  183.3240  178.9150  144.3310 C   0  0  0  0  0  3  0  0  0  0  0  0
  189.3600  177.4440  143.9050 C   0  0  0  0  0  0  0  0  0  0  0  0
  189.5140  177.3870  145.3540 C   0  0  0  0  0  0  0  0  0  0  0  0
  188.3600  177.4170  139.5840 C   0  0  1  0  0  3  0  0  0  0  0  0
  186.0760  178.2530  140.0640 C   0  0  0  0  0  2  0  0  0  0  0  0
  188.9950  177.4760  147.5330 C   0  0  0  0  0  0  0  0  0  0  0  0
  186.8730  178.3960  137.6910 C   0  0  2  0  0  3  0  0  0  0  0  0
  184.0870  178.7760  142.0450 C   0  0  0  0  0  3  0  0  0  0  0  0
  186.4150  178.2330  141.5410 C   0  0  0  0  0  0  0  0  0  0  0  0
  185.3880  178.4560  142.4760 C   0  0  0  0  0  0  0  0  0  0  0  0
  186.9410  178.0370  144.3180 C   0  0  0  0  0  0  0  0  0  0  0  0
  190.2470  177.1670  147.4030 N   0  0  0  0  0  0  0  0  0  0  0  0
  189.4300  178.2840  137.4170 C   0  0  0  0  0  2  0  0  0  0  0  0
  187.2940  178.4360  139.1740 C   0  0  2  0  0  3  0  0  0  0  0  0
  190.5770  177.1100  146.0340 N   0  0  0  0  0  0  0  0  0  0  0  0
  189.5490  177.3420  138.6210 C   0  0  0  0  0  2  0  0  0  0  0  0
  187.1920  177.0830  136.9840 C   0  0  1  0  0  3  0  0  0  0  0  0
  184.6070  178.5960  144.7760 C   0  0  0  0  0  3  0  0  0  0  0  0
  185.6510  178.3640  143.8620 C   0  0  0  0  0  0  0  0  0  0  0  0
  187.1950  177.9480  145.7910 C   0  0  0  0  0  3  0  0  0  0  0  0
  188.8450  177.7590  140.9820 C   0  0  0  0  0  2  0  0  0  0  0  0
  190.3410  177.1910  143.1570 O   0  0  0  0  0  0  0  0  0  0  0  0
  188.3060  177.6240  148.8430 C   0  0  0  0  0  1  0  0  0  0  0  0
  187.9950  177.7980  143.3760 C   0  0  0  0  0  0  0  0  0  0  0  0
  188.4120  177.6450  146.2190 C   0  0  0  0  0  0  0  0  0  0  0  0
  186.2270  176.8920  135.8300 C   0  0  0  0  0  2  0  0  0  0  0  0
  185.3490  175.6770  136.0730 C   0  0  2  0  0  3  0  0  0  0  0  0
  184.1510  176.0700  136.6710 O   0  0  0  0  0  1  0  0  0  0  0  0
  186.0710  174.7120  136.9890 C   0  0  0  0  0  1  0  0  0  0  0  0
  1 20  1  0  0  0  0
  1 16  1  1  0  0  0
  1 10  1  0  0  0  0
  2 27  1  0  0  0  0
  3  4  1  0  0  0  0
  4 21  2  0  0  0  0
  5  6  1  0  0  0  0
  6 18  2  0  0  0  0
  6 28  1  0  0  0  0
  7 19  1  6  0  0  0
  7 24  1  0  0  0  0
  8 12  1  0  0  0  0
  9 26  1  0  0  0  0
 10 17  1  0  0  0  0
 11 13  1  0  0  0  0
 11  3  2  0  0  0  0
 12  2  2  0  0  0  0
 12 13  1  0  0  0  0
 13 22  2  0  0  0  0
 14 23  1  0  0  0  0
 15  9  2  0  0  0  0
 16 19  1  0  0  0  0
 17  7  1  0  0  0  0
 17  8  1  0  0  0  0
 18 15  1  0  0  0  0
 20 10  1  0  0  0  0
 22 14  1  0  0  0  0
 22 21  1  0  0  0  0
 23 28  2  0  0  0  0
 24  2  1  0  0  0  0
 25  5  2  0  0  0  0
 27  5  1  0  0  0  0
 27 14  2  0  0  0  0
 28  9  1  0  0  0  0
 29 30  1  0  0  0  0
 29 20  1  0  0  0  0
 30 31  1  0  0  0  0
 30 32  1  0  0  0  0
M  END
>  <MODEL>
1

>  <REMARK>
 VINA RESULT:     -10.7      0.000      0.000
  Name = 
  2 active torsions:
  status: ('A' for Active; 'I' for Inactive)
    1  A    between atoms: C_20  and  C_29
    2  A    between atoms: C_29  and  C_30
                            x       y       z     vdW  Elec       q    Type
                         _______ _______ _______ _____ _____    ______ ____

>  <TORSDO>
F 2

$$$$
=
 OpenBabel11122410473D

 32 38  0  0  1  0  0  0  0  0999 V2000
  180.1690  178.7490  141.4040 C   0  0  1  0  0  3  0  0  0  0  0  0
  184.9170  178.3570  143.7090 C   0  0  0  0  0  0  0  0  0  0  0  0
  188.0310  178.0910  139.9530 C   0  0  0  0  0  3  0  0  0  0  0  0
  189.0900  177.8980  140.8380 C   0  0  0  0  0  3  0  0  0  0  0  0
  185.7860  178.1410  146.1110 C   0  0  0  0  0  0  0  0  0  0  0  0
  186.9690  177.9250  146.9360 C   0  0  0  0  0  0  0  0  0  0  0  0
  182.5360  179.0810  143.2430 C   0  0  1  0  0  3  0  0  0  0  0  0
  184.0520  178.6680  141.3250 C   0  0  0  0  0  2  0  0  0  0  0  0
  189.1130  177.5890  147.5000 C   0  0  0  0  0  0  0  0  0  0  0  0
  181.5910  178.7540  140.8450 C   0  0  2  0  0  3  0  0  0  0  0  0
  186.7340  178.2500  140.4430 C   0  0  0  0  0  3  0  0  0  0  0  0
  185.1640  178.3750  142.3110 C   0  0  0  0  0  0  0  0  0  0  0  0
  186.4760  178.2180  141.8260 C   0  0  0  0  0  0  0  0  0  0  0  0
  187.3200  178.0000  144.1100 C   0  0  0  0  0  0  0  0  0  0  0  0
  188.3900  177.6500  148.5750 N   0  0  0  0  0  0  0  0  0  0  0  0
  180.0890  178.3790  142.9010 C   0  0  0  0  0  2  0  0  0  0  0  0
  182.6670  178.3860  141.8860 C   0  0  2  0  0  3  0  0  0  0  0  0
  187.0420  177.8620  148.2250 N   0  0  0  0  0  2  0  0  0  0  0  0
  181.1140  179.0660  143.8130 C   0  0  0  0  0  2  0  0  0  0  0  0
  180.8750  180.0710  141.1230 C   0  0  1  0  0  3  0  0  0  0  0  0
  188.8520  177.8670  142.2120 C   0  0  0  0  0  3  0  0  0  0  0  0
  187.5510  178.0260  142.7230 C   0  0  0  0  0  0  0  0  0  0  0  0
  188.4750  177.7920  145.0400 C   0  0  0  0  0  2  0  0  0  0  0  0
  183.4930  178.4220  144.2200 C   0  0  0  0  0  2  0  0  0  0  0  0
  184.6610  178.3040  146.6530 O   0  0  0  0  0  0  0  0  0  0  0  0
  190.5850  177.3750  147.4960 C   0  0  0  0  0  1  0  0  0  0  0  0
  185.9900  178.1680  144.6190 C   0  0  0  0  0  0  0  0  0  0  0  0
  188.2550  177.7630  146.3470 C   0  0  0  0  0  0  0  0  0  0  0  0
  180.3600  180.6440  139.8170 C   0  0  0  0  0  2  0  0  0  0  0  0
  181.4410  180.5840  138.7530 C   0  0  2  0  0  3  0  0  0  0  0  0
  181.9580  181.8610  138.5290 O   0  0  0  0  0  1  0  0  0  0  0  0
  180.8490  180.0520  137.4660 C   0  0  0  0  0  1  0  0  0  0  0  0
  1 16  1  1  0  0  0
  2 24  1  0  0  0  0
  2 27  1  0  0  0  0
  3 11  2  0  0  0  0
  3  4  1  0  0  0  0
  4 21  2  0  0  0  0
  5 25  2  0  0  0  0
  5  6  1  0  0  0  0
  6 18  1  0  0  0  0
  7 19  1  1  0  0  0
  7 24  1  0  0  0  0
  8 17  1  0  0  0  0
  8 12  1  0  0  0  0
  9 15  2  0  0  0  0
 10 20  1  0  0  0  0
 10  1  1  0  0  0  0
 10 17  1  0  0  0  0
 11 13  1  0  0  0  0
 12  2  2  0  0  0  0
 13 12  1  0  0  0  0
 13 22  2  0  0  0  0
 14 27  2  0  0  0  0
 14 23  1  0  0  0  0
 16 19  1  0  0  0  0
 17  7  1  0  0  0  0
 18 15  1  0  0  0  0
 20  1  1  0  0  0  0
 21 22  1  0  0  0  0
 22 14  1  0  0  0  0
 23 28  1  0  0  0  0
 26  9  1  0  0  0  0
 27  5  1  0  0  0  0
 28  6  2  0  0  0  0
 28  9  1  0  0  0  0
 29 20  1  0  0  0  0
 30 29  1  0  0  0  0
 31 30  1  0  0  0  0
 32 30  1  0  0  0  0
M  END
>  <MODEL>
2

>  <REMARK>
 VINA RESULT:     -10.6      2.705      5.553
  Name = 
  2 active torsions:
  status: ('A' for Active; 'I' for Inactive)
    1  A    between atoms: C_20  and  C_29
    2  A    between atoms: C_29  and  C_30
                            x       y       z     vdW  Elec       q    Type
                         _______ _______ _______ _____ _____    ______ ____

>  <TORSDO>
F 2

$$$$
=
 OpenBabel11122410473D

 32 38  0  0  1  0  0  0  0  0999 V2000
  189.1740  177.6980  147.9720 C   0  0  1  0  0  3  0  0  0  0  0  0
  186.3580  178.1660  143.5160 C   0  0  0  0  0  0  0  0  0  0  0  0
  189.6940  177.7640  139.9680 C   0  0  0  0  0  3  0  0  0  0  0  0
  188.7140  178.0230  139.0110 C   0  0  0  0  0  3  0  0  0  0  0  0
  183.9140  178.6640  142.9260 C   0  0  0  0  0  0  0  0  0  0  0  0
  182.9800  178.9310  141.8380 C   0  0  0  0  0  0  0  0  0  0  0  0
  187.0240  177.5030  145.8670 C   0  0  1  0  0  3  0  0  0  0  0  0
  188.7720  177.5760  144.1110 C   0  0  0  0  0  2  0  0  0  0  0  0
  182.1980  179.2340  139.7590 C   0  0  0  0  0  0  0  0  0  0  0  0
  189.5450  177.5470  146.4970 C   0  0  2  0  0  3  0  0  0  0  0  0
  189.3550  177.7380  141.3210 C   0  0  0  0  0  3  0  0  0  0  0  0
  187.7000  177.9460  143.1060 C   0  0  0  0  0  0  0  0  0  0  0  0
  188.0310  177.9700  141.7390 C   0  0  0  0  0  0  0  0  0  0  0  0
  185.7060  178.4550  141.1600 C   0  0  0  0  0  0  0  0  0  0  0  0
  181.2240  179.3560  140.6060 N   0  0  0  0  0  0  0  0  0  0  0  0
  187.7600  178.2720  148.2040 C   0  0  0  0  0  2  0  0  0  0  0  0
  188.4320  178.0000  145.5300 C   0  0  2  0  0  3  0  0  0  0  0  0
  181.7120  179.1650  141.9140 N   0  0  0  0  0  2  0  0  0  0  0  0
  186.6460  177.6650  147.3420 C   0  0  0  0  0  2  0  0  0  0  0  0
  189.1920  176.3170  147.3260 C   0  0  1  0  0  3  0  0  0  0  0  0
  187.3960  178.2530  139.4070 C   0  0  0  0  0  3  0  0  0  0  0  0
  187.0380  178.2300  140.7670 C   0  0  0  0  0  0  0  0  0  0  0  0
  184.6720  178.7310  140.1120 C   0  0  0  0  0  2  0  0  0  0  0  0
  186.0270  178.2410  144.9910 C   0  0  0  0  0  2  0  0  0  0  0  0
  183.5020  178.6310  144.1150 O   0  0  0  0  0  0  0  0  0  0  0  0
  182.0430  179.3730  138.2860 C   0  0  0  0  0  1  0  0  0  0  0  0
  185.3520  178.4240  142.5480 C   0  0  0  0  0  0  0  0  0  0  0  0
  183.4180  178.9480  140.4830 C   0  0  0  0  0  0  0  0  0  0  0  0
  190.4670  175.5980  147.7180 C   0  0  0  0  0  2  0  0  0  0  0  0
  191.6800  176.3920  147.2680 C   0  0  2  0  0  3  0  0  0  0  0  0
  192.0550  175.9980  145.9830 O   0  0  0  0  0  1  0  0  0  0  0  0
  192.8270  176.1380  148.2230 C   0  0  0  0  0  1  0  0  0  0  0  0
  1 16  1  6  0  0  0
  2 24  1  0  0  0  0
  3 11  2  0  0  0  0
  4 21  2  0  0  0  0
  4  3  1  0  0  0  0
  5 25  2  0  0  0  0
  6 18  1  0  0  0  0
  6  5  1  0  0  0  0
  7 24  1  6  0  0  0
  7 19  1  0  0  0  0
  8 17  1  0  0  0  0
  9 28  1  0  0  0  0
  9 15  2  0  0  0  0
 10 20  1  0  0  0  0
 10  1  1  0  0  0  0
 11 13  1  0  0  0  0
 12  2  1  0  0  0  0
 12  8  1  0  0  0  0
 13 12  2  0  0  0  0
 14 27  1  0  0  0  0
 15 18  1  0  0  0  0
 17  7  1  0  0  0  0
 17 10  1  0  0  0  0
 19 16  1  0  0  0  0
 20 29  1  0  0  0  0
 20  1  1  0  0  0  0
 21 22  1  0  0  0  0
 22 14  2  0  0  0  0
 22 13  1  0  0  0  0
 23 28  1  0  0  0  0
 23 14  1  0  0  0  0
 26  9  1  0  0  0  0
 27  5  1  0  0  0  0
 27  2  2  0  0  0  0
 28  6  2  0  0  0  0
 30 29  1  0  0  0  0
 30 32  1  0  0  0  0
 31 30  1  0  0  0  0
M  END
>  <MODEL>
3

>  <REMARK>
 VINA RESULT:     -10.2      3.427      8.423
  Name = 
  2 active torsions:
  status: ('A' for Active; 'I' for Inactive)
    1  A    between atoms: C_20  and  C_29
    2  A    between atoms: C_29  and  C_30
                            x       y       z     vdW  Elec       q    Type
                         _______ _______ _______ _____ _____    ______ ____

>  <TORSDO>
F 2

$$$$
=
 OpenBabel11122410473D

 32 38  0  0  1  0  0  0  0  0999 V2000
  180.8370  179.7490  139.0200 C   0  0  1  0  0  3  0  0  0  0  0  0
  185.3740  178.4650  141.4240 C   0  0  0  0  0  0  0  0  0  0  0  0
  184.2390  178.4960  146.1760 C   0  0  0  0  0  3  0  0  0  0  0  0
  185.5710  178.2480  146.5010 C   0  0  0  0  0  3  0  0  0  0  0  0
  187.7930  178.0410  140.6880 C   0  0  0  0  0  0  0  0  0  0  0  0
  189.1530  177.7910  141.1490 C   0  0  0  0  0  0  0  0  0  0  0  0
  183.4840  178.4950  139.7400 C   0  0  1  0  0  3  0  0  0  0  0  0
  182.9440  178.7940  142.1410 C   0  0  0  0  0  2  0  0  0  0  0  0
  190.8760  177.4400  142.5400 C   0  0  0  0  0  0  0  0  0  0  0  0
  181.1850  179.4540  140.4790 C   0  0  2  0  0  3  0  0  0  0  0  0
  183.8590  178.6140  144.8390 C   0  0  0  0  0  3  0  0  0  0  0  0
  184.4140  178.6110  142.4590 C   0  0  0  0  0  0  0  0  0  0  0  0
  184.8050  178.4860  143.8050 C   0  0  0  0  0  0  0  0  0  0  0  0
  187.1190  178.0900  143.1200 C   0  0  0  0  0  0  0  0  0  0  0  0
  191.2990  177.4000  141.3150 N   0  0  0  0  0  0  0  0  0  0  0  0
  182.0700  179.8760  138.0990 C   0  0  0  0  0  2  0  0  0  0  0  0
  182.7000  179.3430  140.7440 C   0  0  2  0  0  3  0  0  0  0  0  0
  190.2190  177.6200  140.4380 N   0  0  0  0  0  0  0  0  0  0  0  0
  183.1480  178.7980  138.2760 C   0  0  0  0  0  2  0  0  0  0  0  0
  180.6220  178.3520  139.5890 C   0  0  1  0  0  3  0  0  0  0  0  0
  186.5220  178.1160  145.4890 C   0  0  0  0  0  3  0  0  0  0  0  0
  186.1560  178.2320  144.1360 C   0  0  0  0  0  0  0  0  0  0  0  0
  188.5440  177.8250  143.4960 C   0  0  0  0  0  3  0  0  0  0  0  0
  184.9680  178.7020  139.9840 C   0  0  0  0  0  2  0  0  0  0  0  0
  187.5470  178.1000  139.4540 O   0  0  0  0  0  0  0  0  0  0  0  0
  191.7490  177.2480  143.7290 C   0  0  0  0  0  1  0  0  0  0  0  0
  186.7320  178.2060  141.7440 C   0  0  0  0  0  0  0  0  0  0  0  0
  189.4520  177.6970  142.5380 C   0  0  0  0  0  0  0  0  0  0  0  0
  179.1510  178.1610  139.9020 C   0  0  0  0  0  2  0  0  0  0  0  0
  178.9360  176.8600  140.6540 C   0  0  2  0  0  3  0  0  0  0  0  0
  179.3030  177.0180  141.9910 O   0  0  0  0  0  1  0  0  0  0  0  0
  179.7850  175.7740  140.0280 C   0  0  0  0  0  1  0  0  0  0  0  0
  1 16  1  6  0  0  0
  1 20  1  0  0  0  0
  1 10  1  0  0  0  0
  2 27  2  0  0  0  0
  2 12  1  0  0  0  0
  3  4  1  0  0  0  0
  5  6  1  0  0  0  0
  5 27  1  0  0  0  0
  6 28  1  0  0  0  0
  7 19  1  6  0  0  0
  7 24  1  0  0  0  0
  7 17  1  0  0  0  0
  8 12  1  0  0  0  0
  9 26  1  0  0  0  0
 10 17  1  0  0  0  0
 11  3  2  0  0  0  0
 12 13  2  0  0  0  0
 13 22  1  0  0  0  0
 13 11  1  0  0  0  0
 14 23  1  0  0  0  0
 14 22  2  0  0  0  0
 15  9  2  0  0  0  0
 16 19  1  0  0  0  0
 17  8  1  0  0  0  0
 18  6  2  0  0  0  0
 18 15  1  0  0  0  0
 20 29  1  0  0  0  0
 20 10  1  0  0  0  0
 21  4  2  0  0  0  0
 22 21  1  0  0  0  0
 24  2  1  0  0  0  0
 25  5  2  0  0  0  0
 27 14  1  0  0  0  0
 28  9  1  0  0  0  0
 28 23  2  0  0  0  0
 29 30  1  0  0  0  0
 30 31  1  0  0  0  0
 32 30  1  0  0  0  0
M  END
>  <MODEL>
4

>  <REMARK>
 VINA RESULT:      -9.9      3.204      5.103
  Name = 
  2 active torsions:
  status: ('A' for Active; 'I' for Inactive)
    1  A    between atoms: C_20  and  C_29
    2  A    between atoms: C_29  and  C_30
                            x       y       z     vdW  Elec       q    Type
                         _______ _______ _______ _____ _____    ______ ____

>  <TORSDO>
F 2

$$$$
=
 OpenBabel11122410473D

 32 38  0  0  1  0  0  0  0  0999 V2000
  189.9770  177.9750  147.9280 C   0  0  1  0  0  3  0  0  0  0  0  0
  186.0440  178.2850  144.4000 C   0  0  0  0  0  0  0  0  0  0  0  0
  188.3220  178.1350  140.0800 C   0  0  0  0  0  3  0  0  0  0  0  0
  187.1070  178.3340  139.4270 C   0  0  0  0  0  3  0  0  0  0  0  0
  183.5040  178.6210  144.4980 C   0  0  0  0  0  0  0  0  0  0  0  0
  182.2980  178.8320  143.7070 C   0  0  0  0  0  0  0  0  0  0  0  0
  187.3570  177.6510  146.4700 C   0  0  1  0  0  3  0  0  0  0  0  0
  188.5610  177.8550  144.3130 C   0  0  0  0  0  2  0  0  0  0  0  0
  180.9690  179.0980  141.9210 C   0  0  0  0  0  0  0  0  0  0  0  0
  189.9460  177.8600  146.4040 C   0  0  2  0  0  3  0  0  0  0  0  0
  188.3610  178.0760  141.4740 C   0  0  0  0  0  3  0  0  0  0  0  0
  187.2370  178.1590  143.6410 C   0  0  0  0  0  0  0  0  0  0  0  0
  187.1870  178.2150  142.2370 C   0  0  0  0  0  0  0  0  0  0  0  0
  184.7660  178.5460  142.3130 C   0  0  0  0  0  0  0  0  0  0  0  0
  180.2520  179.1470  143.0010 N   0  0  0  0  0  0  0  0  0  0  0  0
  188.6440  178.4510  148.5440 C   0  0  0  0  0  2  0  0  0  0  0  0
  188.5880  178.2450  145.7820 C   0  0  2  0  0  3  0  0  0  0  0  0
  181.0840  178.9800  144.1250 N   0  0  0  0  0  2  0  0  0  0  0  0
  187.3790  177.7770  147.9970 C   0  0  0  0  0  2  0  0  0  0  0  0
  189.9070  176.6040  147.2660 C   0  0  1  0  0  3  0  0  0  0  0  0
  185.9320  178.4720  140.1670 C   0  0  0  0  0  3  0  0  0  0  0  0
  185.9540  178.4140  141.5730 C   0  0  0  0  0  0  0  0  0  0  0  0
  183.4730  178.7600  141.5870 C   0  0  0  0  0  2  0  0  0  0  0  0
  186.1170  178.3270  145.9120 C   0  0  0  0  0  2  0  0  0  0  0  0
  183.4300  178.5520  145.7540 O   0  0  0  0  0  0  0  0  0  0  0  0
  180.4150  179.2370  140.5470 C   0  0  0  0  0  1  0  0  0  0  0  0
  184.8010  178.4810  143.7440 C   0  0  0  0  0  0  0  0  0  0  0  0
  182.3540  178.8890  142.2850 C   0  0  0  0  0  0  0  0  0  0  0  0
  191.2840  175.9690  147.2850 C   0  0  0  0  0  2  0  0  0  0  0  0
  191.5830  175.3190  145.9460 C   0  0  2  0  0  3  0  0  0  0  0  0
  192.7250  174.5250  146.0480 O   0  0  0  0  0  1  0  0  0  0  0  0
  191.8140  176.3950  144.9070 C   0  0  0  0  0  1  0  0  0  0  0  0
  1 16  1  1  0  0  0
  2 24  1  0  0  0  0
  3 11  1  0  0  0  0
  4  3  2  0  0  0  0
  4 21  1  0  0  0  0
  5 25  2  0  0  0  0
  6 18  1  0  0  0  0
  6  5  1  0  0  0  0
  7 24  1  6  0  0  0
  7 19  1  0  0  0  0
  8 17  1  0  0  0  0
  9 28  1  0  0  0  0
  9 15  2  0  0  0  0
 10 20  1  0  0  0  0
 10  1  1  0  0  0  0
 11 13  2  0  0  0  0
 12  8  1  0  0  0  0
 12  2  2  0  0  0  0
 13 12  1  0  0  0  0
 14 27  2  0  0  0  0
 15 18  1  0  0  0  0
 17 10  1  0  0  0  0
 17  7  1  0  0  0  0
 19 16  1  0  0  0  0
 20 29  1  0  0  0  0
 20  1  1  0  0  0  0
 21 22  2  0  0  0  0
 22 13  1  0  0  0  0
 22 14  1  0  0  0  0
 23 28  1  0  0  0  0
 23 14  1  0  0  0  0
 26  9  1  0  0  0  0
 27  2  1  0  0  0  0
 27  5  1  0  0  0  0
 28  6  2  0  0  0  0
 30 31  1  0  0  0  0
 30 29  1  0  0  0  0
 32 30  1  0  0  0  0
M  END
>  <MODEL>
5

>  <REMARK>
 VINA RESULT:      -9.7      3.568      8.101
  Name = 
  2 active torsions:
  status: ('A' for Active; 'I' for Inactive)
    1  A    between atoms: C_20  and  C_29
    2  A    between atoms: C_29  and  C_30
                            x       y       z     vdW  Elec       q    Type
                         _______ _______ _______ _____ _____    ______ ____

>  <TORSDO>
F 2

$$$$
=
 OpenBabel11122410473D

 32 38  0  0  1  0  0  0  0  0999 V2000
  191.8040  175.6380  146.9760 C   0  0  1  0  0  3  0  0  0  0  0  0
  188.1380  177.5710  143.6840 C   0  0  0  0  0  0  0  0  0  0  0  0
  184.3380  178.5460  146.5960 C   0  0  0  0  0  3  0  0  0  0  0  0
  183.5730  178.9040  145.4870 C   0  0  0  0  0  3  0  0  0  0  0  0
  187.9290  177.9030  141.1510 C   0  0  0  0  0  0  0  0  0  0  0  0
  187.0330  178.2930  140.0690 C   0  0  0  0  0  0  0  0  0  0  0  0
  190.3840  177.1080  144.7590 C   0  0  1  0  0  3  0  0  0  0  0  0
  188.3890  177.3250  146.2150 C   0  0  0  0  0  2  0  0  0  0  0  0
  185.1840  178.9990  139.0160 C   0  0  0  0  0  0  0  0  0  0  0  0
  190.4270  176.2590  147.2140 C   0  0  2  0  0  3  0  0  0  0  0  0
  185.6560  178.1240  146.4250 C   0  0  0  0  0  3  0  0  0  0  0  0
  187.5620  177.6230  144.9810 C   0  0  0  0  0  0  0  0  0  0  0  0
  186.2330  178.0540  145.1440 C   0  0  0  0  0  0  0  0  0  0  0  0
  186.0140  178.3670  142.7280 C   0  0  0  0  0  0  0  0  0  0  0  0
  186.1190  178.7830  138.1430 N   0  0  0  0  0  0  0  0  0  0  0  0
  192.1110  175.3540  145.4900 C   0  0  0  0  0  2  0  0  0  0  0  0
  189.6150  176.4760  145.9220 C   0  0  2  0  0  3  0  0  0  0  0  0
  187.2830  178.3400  138.8020 N   0  0  0  0  0  0  0  0  0  0  0  0
  191.7580  176.4800  144.5100 C   0  0  0  0  0  2  0  0  0  0  0  0
  191.6820  177.1190  147.3180 C   0  0  1  0  0  3  0  0  0  0  0  0
  184.1290  178.8420  144.2090 C   0  0  0  0  0  3  0  0  0  0  0  0
  185.4570  178.4200  144.0190 C   0  0  0  0  0  0  0  0  0  0  0  0
  185.1710  178.7560  141.5530 C   0  0  0  0  0  3  0  0  0  0  0  0
  189.5330  177.0090  143.5050 C   0  0  0  0  0  2  0  0  0  0  0  0
  189.1160  177.5660  140.8950 O   0  0  0  0  0  0  0  0  0  0  0  0
  183.8180  179.4770  138.6710 C   0  0  0  0  0  1  0  0  0  0  0  0
  187.3700  177.9390  142.5490 C   0  0  0  0  0  0  0  0  0  0  0  0
  185.6950  178.7010  140.3360 C   0  0  0  0  0  0  0  0  0  0  0  0
  192.0260  177.3240  148.7800 C   0  0  0  0  0  2  0  0  0  0  0  0
  193.2920  176.5670  149.1350 C   0  0  2  0  0  3  0  0  0  0  0  0
  192.9750  175.2640  149.5200 O   0  0  0  0  0  1  0  0  0  0  0  0
  193.9920  177.2690  150.2800 C   0  0  0  0  0  1  0  0  0  0  0  0
  1 16  1  6  0  0  0
  1 10  1  0  0  0  0
  1 20  1  0  0  0  0
  2 12  1  0  0  0  0
  4  3  1  0  0  0  0
  5 27  1  0  0  0  0
  6 28  1  0  0  0  0
  6  5  1  0  0  0  0
  7 24  1  6  0  0  0
  7 17  1  0  0  0  0
  9 28  1  0  0  0  0
 10 20  1  0  0  0  0
 11  3  2  0  0  0  0
 12 13  2  0  0  0  0
 12  8  1  0  0  0  0
 13 11  1  0  0  0  0
 14 22  2  0  0  0  0
 15 18  1  0  0  0  0
 15  9  2  0  0  0  0
 17  8  1  0  0  0  0
 17 10  1  0  0  0  0
 18  6  2  0  0  0  0
 19  7  1  0  0  0  0
 19 16  1  0  0  0  0
 20 29  1  0  0  0  0
 21  4  2  0  0  0  0
 22 21  1  0  0  0  0
 22 13  1  0  0  0  0
 23 14  1  0  0  0  0
 24  2  1  0  0  0  0
 25  5  2  0  0  0  0
 26  9  1  0  0  0  0
 27 14  1  0  0  0  0
 27  2  2  0  0  0  0
 28 23  2  0  0  0  0
 29 30  1  0  0  0  0
 30 31  1  0  0  0  0
 30 32  1  0  0  0  0
M  END
>  <MODEL>
6

>  <REMARK>
 VINA RESULT:      -9.2      3.261      8.135
  Name = 
  2 active torsions:
  status: ('A' for Active; 'I' for Inactive)
    1  A    between atoms: C_20  and  C_29
    2  A    between atoms: C_29  and  C_30
                            x       y       z     vdW  Elec       q    Type
                         _______ _______ _______ _____ _____    ______ ____

>  <TORSDO>
F 2

$$$$
=
 OpenBabel11122410473D

 32 38  0  0  1  0  0  0  0  0999 V2000
  187.2260  178.5320  147.2230 C   0  0  1  0  0  3  0  0  0  0  0  0
  185.0860  178.4150  142.3840 C   0  0  0  0  0  0  0  0  0  0  0  0
  188.9390  178.0700  139.4000 C   0  0  0  0  0  3  0  0  0  0  0  0
  188.0970  178.1680  138.2930 C   0  0  0  0  0  3  0  0  0  0  0  0
  182.7260  178.6400  141.4080 C   0  0  0  0  0  0  0  0  0  0  0  0
  181.9480  178.7400  140.1790 C   0  0  0  0  0  0  0  0  0  0  0  0
  185.4410  177.9870  144.8540 C   0  0  1  0  0  3  0  0  0  0  0  0
  187.4220  178.0960  143.3680 C   0  0  0  0  0  2  0  0  0  0  0  0
  181.4660  178.8200  137.9910 C   0  0  0  0  0  0  0  0  0  0  0  0
  187.8260  178.3100  145.8340 C   0  0  2  0  0  3  0  0  0  0  0  0
  188.4030  178.1100  140.6870 C   0  0  0  0  0  3  0  0  0  0  0  0
  186.4870  178.2910  142.1920 C   0  0  0  0  0  0  0  0  0  0  0  0
  187.0180  178.2480  140.8900 C   0  0  0  0  0  0  0  0  0  0  0  0
  184.7740  178.4720  139.9430 C   0  0  0  0  0  0  0  0  0  0  0  0
  180.3690  178.9110  138.6760 N   0  0  0  0  0  0  0  0  0  0  0  0
  185.7510  178.9870  147.2000 C   0  0  0  0  0  2  0  0  0  0  0  0
  186.8380  178.5880  144.6830 C   0  0  2  0  0  3  0  0  0  0  0  0
  180.6680  178.8610  140.0510 N   0  0  0  0  0  2  0  0  0  0  0  0
  184.8320  178.2190  146.2410 C   0  0  0  0  0  2  0  0  0  0  0  0
  187.4530  177.1160  146.7050 C   0  0  1  0  0  3  0  0  0  0  0  0
  186.7200  178.3020  138.4750 C   0  0  0  0  0  3  0  0  0  0  0  0
  186.1640  178.3440  139.7660 C   0  0  0  0  0  0  0  0  0  0  0  0
  183.8910  178.5750  138.7380 C   0  0  0  0  0  2  0  0  0  0  0  0
  184.5300  178.5650  143.7850 C   0  0  0  0  0  2  0  0  0  0  0  0
  182.1430  178.6550  142.5250 O   0  0  0  0  0  0  0  0  0  0  0  0
  181.5240  178.8380  136.5040 C   0  0  0  0  0  1  0  0  0  0  0  0
  184.2190  178.5080  141.2640 C   0  0  0  0  0  0  0  0  0  0  0  0
  182.5820  178.7010  138.9050 C   0  0  0  0  0  0  0  0  0  0  0  0
  188.7090  176.5480  147.3370 C   0  0  0  0  0  2  0  0  0  0  0  0
  189.9380  177.0170  146.5800 C   0  0  2  0  0  3  0  0  0  0  0  0
  189.9640  176.4400  145.3100 O   0  0  0  0  0  1  0  0  0  0  0  0
  191.1810  176.6080  147.3400 C   0  0  0  0  0  1  0  0  0  0  0  0
  1 16  1  6  0  0  0
  2 24  1  0  0  0  0
  3 11  2  0  0  0  0
  4 21  2  0  0  0  0
  4  3  1  0  0  0  0
  5 25  2  0  0  0  0
  6  5  1  0  0  0  0
  7 24  1  6  0  0  0
  7 19  1  0  0  0  0
  8 17  1  0  0  0  0
  9 15  2  0  0  0  0
  9 28  1  0  0  0  0
 10 20  1  0  0  0  0
 10  1  1  0  0  0  0
 11 13  1  0  0  0  0
 12  2  1  0  0  0  0
 12  8  1  0  0  0  0
 13 12  2  0  0  0  0
 14 27  1  0  0  0  0
 15 18  1  0  0  0  0
 17  7  1  0  0  0  0
 17 10  1  0  0  0  0
 18  6  1  0  0  0  0
 19 16  1  0  0  0  0
 20  1  1  0  0  0  0
 20 29  1  0  0  0  0
 21 22  1  0  0  0  0
 22 14  2  0  0  0  0
 22 13  1  0  0  0  0
 23 28  1  0  0  0  0
 23 14  1  0  0  0  0
 26  9  1  0  0  0  0
 27  5  1  0  0  0  0
 27  2  2  0  0  0  0
 28  6  2  0  0  0  0
 30 29  1  0  0  0  0
 30 32  1  0  0  0  0
 31 30  1  0  0  0  0
M  END
>  <MODEL>
7

>  <REMARK>
 VINA RESULT:      -8.9      3.777      8.578
  Name = 
  2 active torsions:
  status: ('A' for Active; 'I' for Inactive)
    1  A    between atoms: C_20  and  C_29
    2  A    between atoms: C_29  and  C_30
                            x       y       z     vdW  Elec       q    Type
                         _______ _______ _______ _____ _____    ______ ____

>  <TORSDO>
F 2

$$$$
=
 OpenBabel11122410473D

 32 38  0  0  1  0  0  0  0  0999 V2000
  189.9910  178.0910  145.8900 C   0  0  1  0  0  3  0  0  0  0  0  0
  186.4940  178.2120  141.9180 C   0  0  0  0  0  0  0  0  0  0  0  0
  189.2760  178.4610  137.9090 C   0  0  0  0  0  3  0  0  0  0  0  0
  188.1340  178.5820  137.1190 C   0  0  0  0  0  3  0  0  0  0  0  0
  183.9420  178.3170  141.7150 C   0  0  0  0  0  0  0  0  0  0  0  0
  182.8230  178.4570  140.7890 C   0  0  0  0  0  0  0  0  0  0  0  0
  187.6050  177.6030  144.1110 C   0  0  1  0  0  3  0  0  0  0  0  0
  189.0330  178.0110  142.1270 C   0  0  0  0  0  2  0  0  0  0  0  0
  181.6980  178.6840  138.8640 C   0  0  0  0  0  0  0  0  0  0  0  0
  190.1530  178.0440  144.3710 C   0  0  2  0  0  3  0  0  0  0  0  0
  189.1540  178.3430  139.2940 C   0  0  0  0  0  3  0  0  0  0  0  0
  187.7770  178.2270  141.3080 C   0  0  0  0  0  0  0  0  0  0  0  0
  187.8890  178.3430  139.9110 C   0  0  0  0  0  0  0  0  0  0  0  0
  185.4560  178.4540  139.7000 C   0  0  0  0  0  0  0  0  0  0  0  0
  180.8560  178.6210  139.8480 N   0  0  0  0  0  0  0  0  0  0  0  0
  188.5550  178.4190  146.3540 C   0  0  0  0  0  2  0  0  0  0  0  0
  188.8490  178.3340  143.6010 C   0  0  2  0  0  3  0  0  0  0  0  0
  181.5600  178.4770  141.0600 N   0  0  0  0  0  2  0  0  0  0  0  0
  187.4330  177.6610  145.6320 C   0  0  0  0  0  2  0  0  0  0  0  0
  190.1290  176.7510  145.1780 C   0  0  1  0  0  3  0  0  0  0  0  0
  186.8720  178.5810  137.7130 C   0  0  0  0  0  3  0  0  0  0  0  0
  186.7310  178.4620  139.1080 C   0  0  0  0  0  0  0  0  0  0  0  0
  184.2450  178.5850  138.8290 C   0  0  0  0  0  2  0  0  0  0  0  0
  186.3820  178.1910  143.4290 C   0  0  0  0  0  2  0  0  0  0  0  0
  183.7250  178.1850  142.9490 O   0  0  0  0  0  0  0  0  0  0  0  0
  181.3020  178.8360  137.4380 C   0  0  0  0  0  1  0  0  0  0  0  0
  185.3260  178.3270  141.1220 C   0  0  0  0  0  0  0  0  0  0  0  0
  183.0430  178.5830  139.3880 C   0  0  0  0  0  0  0  0  0  0  0  0
  191.5460  176.2400  145.3440 C   0  0  0  0  0  2  0  0  0  0  0  0
  191.9070  175.3050  144.2040 C   0  0  2  0  0  3  0  0  0  0  0  0
  190.7880  175.0830  143.4000 O   0  0  0  0  0  1  0  0  0  0  0  0
  192.3840  173.9850  144.7710 C   0  0  0  0  0  1  0  0  0  0  0  0
  1 16  1  6  0  0  0
  2 24  1  0  0  0  0
  3 11  2  0  0  0  0
  4 21  2  0  0  0  0
  4  3  1  0  0  0  0
  5 25  2  0  0  0  0
  6 18  1  0  0  0  0
  6  5  1  0  0  0  0
  7 24  1  6  0  0  0
  7 19  1  0  0  0  0
  8 17  1  0  0  0  0
  9 28  1  0  0  0  0
  9 15  2  0  0  0  0
 10 20  1  0  0  0  0
 10  1  1  0  0  0  0
 11 13  1  0  0  0  0
 12  2  1  0  0  0  0
 12  8  1  0  0  0  0
 13 12  2  0  0  0  0
 14 27  1  0  0  0  0
 15 18  1  0  0  0  0
 17  7  1  0  0  0  0
 17 10  1  0  0  0  0
 19 16  1  0  0  0  0
 20 29  1  0  0  0  0
 20  1  1  0  0  0  0
 21 22  1  0  0  0  0
 22 14  2  0  0  0  0
 22 13  1  0  0  0  0
 23 28  1  0  0  0  0
 23 14  1  0  0  0  0
 26  9  1  0  0  0  0
 27  5  1  0  0  0  0
 27  2  2  0  0  0  0
 28  6  2  0  0  0  0
 30 32  1  0  0  0  0
 30 29  1  0  0  0  0
 31 30  1  0  0  0  0
M  END
>  <MODEL>
8

>  <REMARK>
 VINA RESULT:      -8.4      3.549      7.891
  Name = 
  2 active torsions:
  status: ('A' for Active; 'I' for Inactive)
    1  A    between atoms: C_20  and  C_29
    2  A    between atoms: C_29  and  C_30
                            x       y       z     vdW  Elec       q    Type
                         _______ _______ _______ _____ _____    ______ ____

>  <TORSDO>
F 2

$$$$
=
 OpenBabel11122410473D

 32 38  0  0  1  0  0  0  0  0999 V2000
  191.0670  176.5360  141.3740 C   0  0  1  0  0  3  0  0  0  0  0  0
  186.0960  178.3510  141.4410 C   0  0  0  0  0  0  0  0  0  0  0  0
  184.8600  178.2260  146.1660 C   0  0  0  0  0  3  0  0  0  0  0  0
  183.5650  178.6280  145.8430 C   0  0  0  0  0  3  0  0  0  0  0  0
  184.3640  179.0430  139.6820 C   0  0  0  0  0  0  0  0  0  0  0  0
  182.9810  179.4510  139.4660 C   0  0  0  0  0  0  0  0  0  0  0  0
  188.5400  178.0910  140.8340 C   0  0  1  0  0  3  0  0  0  0  0  0
  187.8570  177.7500  143.1920 C   0  0  0  0  0  2  0  0  0  0  0  0
  180.8550  180.0080  139.9080 C   0  0  0  0  0  0  0  0  0  0  0  0
  190.1090  176.8810  142.5140 C   0  0  2  0  0  3  0  0  0  0  0  0
  185.8080  178.0550  145.1560 C   0  0  0  0  0  3  0  0  0  0  0  0
  186.4370  178.1030  142.7960 C   0  0  0  0  0  0  0  0  0  0  0  0
  185.4760  178.2830  143.8080 C   0  0  0  0  0  0  0  0  0  0  0  0
  183.8100  178.9360  142.1420 C   0  0  0  0  0  0  0  0  0  0  0  0
  181.0620  180.0860  138.6300 N   0  0  0  0  0  0  0  0  0  0  0  0
  190.4040  176.5440  139.9790 C   0  0  0  0  0  2  0  0  0  0  0  0
  188.6680  177.1670  142.0470 C   0  0  2  0  0  3  0  0  0  0  0  0
  182.3980  179.7380  138.3490 N   0  0  0  0  0  0  0  0  0  0  0  0
  189.4890  177.7400  139.6840 C   0  0  0  0  0  2  0  0  0  0  0  0
  191.1360  177.9040  142.0420 C   0  0  1  0  0  3  0  0  0  0  0  0
  183.2200  178.8610  144.5120 C   0  0  0  0  0  3  0  0  0  0  0  0
  184.1630  178.6930  143.4820 C   0  0  0  0  0  0  0  0  0  0  0  0
  182.4120  179.3660  141.8220 C   0  0  0  0  0  3  0  0  0  0  0  0
  187.1020  178.0570  140.3480 C   0  0  0  0  0  2  0  0  0  0  0  0
  185.1520  178.9470  138.7040 O   0  0  0  0  0  0  0  0  0  0  0  0
  179.5520  180.3080  140.5600 C   0  0  0  0  0  1  0  0  0  0  0  0
  184.7820  178.7660  141.1020 C   0  0  0  0  0  0  0  0  0  0  0  0
  182.0780  179.5900  140.5580 C   0  0  0  0  0  0  0  0  0  0  0  0
  192.2990  177.9270  143.0140 C   0  0  0  0  0  2  0  0  0  0  0  0
  191.9030  178.6390  144.2950 C   0  0  2  0  0  3  0  0  0  0  0  0
  191.2950  177.7390  145.1700 O   0  0  0  0  0  1  0  0  0  0  0  0
  190.9300  179.7530  143.9680 C   0  0  0  0  0  1  0  0  0  0  0  0
  1 16  1  6  0  0  0
  1 20  1  0  0  0  0
  1 10  1  0  0  0  0
  2 12  1  0  0  0  0
  4  3  1  0  0  0  0
  5 27  1  0  0  0  0
  6  5  1  0  0  0  0
  6 28  1  0  0  0  0
  7 19  1  6  0  0  0
  7 17  1  0  0  0  0
  9 28  1  0  0  0  0
  9 26  1  0  0  0  0
 11  3  2  0  0  0  0
 12  8  1  0  0  0  0
 12 13  2  0  0  0  0
 13 11  1  0  0  0  0
 14 22  2  0  0  0  0
 15  9  2  0  0  0  0
 17 10  1  0  0  0  0
 17  8  1  0  0  0  0
 18 15  1  0  0  0  0
 18  6  2  0  0  0  0
 19 16  1  0  0  0  0
 20 10  1  0  0  0  0
 20 29  1  0  0  0  0
 21  4  2  0  0  0  0
 22 13  1  0  0  0  0
 22 21  1  0  0  0  0
 23 14  1  0  0  0  0
 24  7  1  0  0  0  0
 24  2  1  0  0  0  0
 25  5  2  0  0  0  0
 27  2  2  0  0  0  0
 27 14  1  0  0  0  0
 28 23  2  0  0  0  0
 29 30  1  0  0  0  0
 30 31  1  0  0  0  0
 32 30  1  0  0  0  0
M  END
>  <MODEL>
9

>  <REMARK>
 VINA RESULT:      -8.3      3.870      6.934
  Name = 
  2 active torsions:
  status: ('A' for Active; 'I' for Inactive)
    1  A    between atoms: C_20  and  C_29
    2  A    between atoms: C_29  and  C_30
                            x       y       z     vdW  Elec       q    Type
                         _______ _______ _______ _____ _____    ______ ____

>  <TORSDO>
F 2

$$$$
