=
 OpenBabel11122410443D

 32 38  0  0  1  0  0  0  0  0999 V2000
  188.9780  177.7570  136.8070 C   0  0  1  0  0  3  0  0  0  0  0  0
  188.2670  177.8700  141.9630 C   0  0  0  0  0  0  0  0  0  0  0  0
  183.3960  178.7090  142.4380 C   0  0  0  0  0  2  0  0  0  0  0  0
  183.6730  179.3220  143.7970 C   0  0  0  0  0  2  0  0  0  0  0  0
  189.6850  177.4030  144.0400 C   0  0  0  0  0  0  0  0  0  0  0  0
  189.6750  177.3260  145.4970 C   0  0  0  0  0  0  0  0  0  0  0  0
  189.0230  177.2040  139.6680 C   0  0  1  0  0  3  0  0  0  0  0  0
  186.8960  178.3360  139.9580 N   0  0  0  0  0  2  0  0  0  0  0  0
  188.9180  177.4030  147.6050 C   0  0  0  0  0  0  0  0  0  0  0  0
  187.7180  178.0600  137.6290 C   0  0  2  0  0  3  0  0  0  0  0  0
  184.6130  178.9090  141.5440 C   0  0  0  0  0  2  0  0  0  0  0  0
  187.0220  178.2360  141.3880 C   0  0  0  0  0  0  0  0  0  0  0  0
  185.9000  178.4600  142.1960 C   0  0  0  0  0  0  0  0  0  0  0  0
  187.2410  178.0210  144.1900 C   0  0  0  0  0  0  0  0  0  0  0  0
  190.1740  177.0810  147.6110 N   0  0  0  0  0  0  0  0  0  0  0  0
  190.1730  177.8290  137.5980 O   0  0  0  0  0  0  0  0  0  0  0  0
  188.0750  178.2580  139.1110 C   0  0  2  0  0  3  0  0  0  0  0  0
  190.6540  177.0320  146.2880 N   0  0  0  0  0  2  0  0  0  0  0  0
  190.1940  176.9530  138.7140 C   0  0  0  0  0  2  0  0  0  0  0  0
  187.9740  176.6440  137.1210 C   0  0  1  0  0  3  0  0  0  0  0  0
  184.7880  178.5400  144.4770 C   0  0  0  0  0  2  0  0  0  0  0  0
  186.0110  178.3710  143.6010 C   0  0  0  0  0  0  0  0  0  0  0  0
  187.3290  177.9160  145.6790 C   0  0  0  0  0  2  0  0  0  0  0  0
  189.4620  177.6460  141.0550 C   0  0  0  0  0  2  0  0  0  0  0  0
  190.7440  177.1610  143.4020 O   0  0  0  0  0  0  0  0  0  0  0  0
  188.0890  177.5460  148.8320 C   0  0  0  0  0  1  0  0  0  0  0  0
  188.3890  177.7720  143.3700 C   0  0  0  0  0  0  0  0  0  0  0  0
  188.4870  177.5890  146.2360 C   0  0  0  0  0  0  0  0  0  0  0  0
  187.1100  176.3870  135.9020 C   0  0  0  0  0  2  0  0  0  0  0  0
  185.6810  176.2260  136.3020 C   0  0  0  0  0  0  0  0  0  0  0  0
  185.3720  175.4290  137.1740 O   0  0  0  0  0  0  0  0  0  0  0  0
  184.6320  177.0600  135.6520 C   0  0  0  0  0  1  0  0  0  0  0  0
  1 20  1  0  0  0  0
  1 16  1  1  0  0  0
  1 10  1  0  0  0  0
  2 27  1  0  0  0  0
  3  4  1  0  0  0  0
  4 21  1  0  0  0  0
  5  6  1  0  0  0  0
  6 28  2  0  0  0  0
  6 18  1  0  0  0  0
  7 19  1  6  0  0  0
  7 24  1  0  0  0  0
  8 12  1  0  0  0  0
  9 15  2  0  0  0  0
  9 26  1  0  0  0  0
 10 17  1  0  0  0  0
 11 13  1  0  0  0  0
 11  3  1  0  0  0  0
 12  2  2  0  0  0  0
 12 13  1  0  0  0  0
 13 22  2  0  0  0  0
 14 23  1  0  0  0  0
 16 19  1  0  0  0  0
 17  7  1  0  0  0  0
 17  8  1  0  0  0  0
 18 15  1  0  0  0  0
 20 10  1  0  0  0  0
 22 14  1  0  0  0  0
 22 21  1  0  0  0  0
 23 28  1  0  0  0  0
 24  2  1  0  0  0  0
 25  5  2  0  0  0  0
 27  5  1  0  0  0  0
 27 14  2  0  0  0  0
 28  9  1  0  0  0  0
 29 30  1  0  0  0  0
 29 20  1  0  0  0  0
 30 31  2  0  0  0  0
 32 30  1  0  0  0  0
M  END
>  <MODEL>
1

>  <REMARK>
 VINA RESULT:     -11.0      0.000      0.000
  Name = 
  2 active torsions:
  status: ('A' for Active; 'I' for Inactive)
    1  A    between atoms: C_20  and  C_29
    2  A    between atoms: C_29  and  C_30
                            x       y       z     vdW  Elec       q    Type
                         _______ _______ _______ _____ _____    ______ ____

>  <TORSDO>
F 2

$$$$
=
 OpenBabel11122410443D

 32 38  0  0  1  0  0  0  0  0999 V2000
  181.7350  179.2880  139.0090 C   0  0  1  0  0  3  0  0  0  0  0  0
  185.9280  178.3320  141.9430 C   0  0  0  0  0  0  0  0  0  0  0  0
  184.1050  178.2130  146.5590 C   0  0  0  0  0  2  0  0  0  0  0  0
  185.4770  178.6060  147.0700 C   0  0  0  0  0  2  0  0  0  0  0  0
  188.3840  177.7460  141.5300 C   0  0  0  0  0  0  0  0  0  0  0  0
  189.6510  177.4050  142.1680 C   0  0  0  0  0  0  0  0  0  0  0  0
  184.2200  178.2380  140.1110 C   0  0  1  0  0  3  0  0  0  0  0  0
  183.5580  178.9120  142.3460 N   0  0  0  0  0  2  0  0  0  0  0  0
  191.1470  176.9620  143.7770 C   0  0  0  0  0  0  0  0  0  0  0  0
  181.8830  179.2120  140.5350 C   0  0  2  0  0  3  0  0  0  0  0  0
  183.9140  178.7810  145.1590 C   0  0  0  0  0  2  0  0  0  0  0  0
  184.8640  178.5750  142.8480 C   0  0  0  0  0  0  0  0  0  0  0  0
  185.0590  178.4500  144.2300 C   0  0  0  0  0  0  0  0  0  0  0  0
  187.4070  177.8940  143.8540 C   0  0  0  0  0  0  0  0  0  0  0  0
  191.7220  176.8670  142.6180 N   0  0  0  0  0  0  0  0  0  0  0  0
  183.0010  179.4190  138.3460 O   0  0  0  0  0  0  0  0  0  0  0  0
  183.3680  179.1950  140.9320 C   0  0  2  0  0  3  0  0  0  0  0  0
  190.7840  177.1450  141.6040 N   0  0  0  0  0  0  0  0  0  0  0  0
  183.9190  178.3720  138.6160 C   0  0  0  0  0  2  0  0  0  0  0  0
  181.4450  177.9790  139.7510 C   0  0  1  0  0  3  0  0  0  0  0  0
  186.5390  177.9180  146.2230 C   0  0  0  0  0  2  0  0  0  0  0  0
  186.3370  178.1270  144.7380 C   0  0  0  0  0  0  0  0  0  0  0  0
  188.7470  177.5360  144.4160 C   0  0  0  0  0  3  0  0  0  0  0  0
  185.6810  178.4880  140.4530 C   0  0  0  0  0  2  0  0  0  0  0  0
  188.3070  177.8130  140.2740 O   0  0  0  0  0  0  0  0  0  0  0  0
  191.8420  176.7340  145.0720 C   0  0  0  0  0  1  0  0  0  0  0  0
  187.2130  178.0020  142.4390 C   0  0  0  0  0  0  0  0  0  0  0  0
  189.7570  177.3180  143.5850 C   0  0  0  0  0  0  0  0  0  0  0  0
  179.9450  177.8030  139.8930 C   0  0  0  0  0  2  0  0  0  0  0  0
  179.6400  176.7550  140.9110 C   0  0  0  0  0  0  0  0  0  0  0  0
  179.3400  177.0740  142.0510 O   0  0  0  0  0  0  0  0  0  0  0  0
  179.6780  175.3170  140.5280 C   0  0  0  0  0  1  0  0  0  0  0  0
  1 16  1  6  0  0  0
  1 20  1  0  0  0  0
  1 10  1  0  0  0  0
  2 27  2  0  0  0  0
  2 12  1  0  0  0  0
  3  4  1  0  0  0  0
  5  6  1  0  0  0  0
  5 27  1  0  0  0  0
  6 28  1  0  0  0  0
  7 19  1  6  0  0  0
  7 24  1  0  0  0  0
  7 17  1  0  0  0  0
  8 12  1  0  0  0  0
  9 26  1  0  0  0  0
 10 17  1  0  0  0  0
 11  3  1  0  0  0  0
 12 13  2  0  0  0  0
 13 22  1  0  0  0  0
 13 11  1  0  0  0  0
 14 23  1  0  0  0  0
 14 22  2  0  0  0  0
 15  9  2  0  0  0  0
 16 19  1  0  0  0  0
 17  8  1  0  0  0  0
 18  6  2  0  0  0  0
 18 15  1  0  0  0  0
 20 29  1  0  0  0  0
 20 10  1  0  0  0  0
 21  4  1  0  0  0  0
 22 21  1  0  0  0  0
 24  2  1  0  0  0  0
 25  5  2  0  0  0  0
 27 14  1  0  0  0  0
 28  9  1  0  0  0  0
 28 23  2  0  0  0  0
 29 30  1  0  0  0  0
 30 31  2  0  0  0  0
 32 30  1  0  0  0  0
M  END
>  <MODEL>
2

>  <REMARK>
 VINA RESULT:      -9.9      3.024      4.984
  Name = 
  2 active torsions:
  status: ('A' for Active; 'I' for Inactive)
    1  A    between atoms: C_20  and  C_29
    2  A    between atoms: C_29  and  C_30
                            x       y       z     vdW  Elec       q    Type
                         _______ _______ _______ _____ _____    ______ ____

>  <TORSDO>
F 2

$$$$
=
 OpenBabel11122410443D

 32 38  0  0  1  0  0  0  0  0999 V2000
  190.9880  177.2500  147.4820 C   0  0  1  0  0  3  0  0  0  0  0  0
  186.9760  178.1170  144.2780 C   0  0  0  0  0  0  0  0  0  0  0  0
  188.9720  177.5930  139.7630 C   0  0  0  0  0  2  0  0  0  0  0  0
  187.8870  178.5030  139.2200 C   0  0  0  0  0  2  0  0  0  0  0  0
  184.4550  178.4740  144.5210 C   0  0  0  0  0  0  0  0  0  0  0  0
  183.2040  178.6720  143.7960 C   0  0  0  0  0  0  0  0  0  0  0  0
  188.3820  177.2790  146.1770 C   0  0  1  0  0  3  0  0  0  0  0  0
  189.4160  177.7850  144.0410 N   0  0  0  0  0  2  0  0  0  0  0  0
  181.7790  178.9210  142.0840 C   0  0  0  0  0  0  0  0  0  0  0  0
  190.9390  177.3260  145.9500 C   0  0  2  0  0  3  0  0  0  0  0  0
  189.2520  177.9640  141.2130 C   0  0  0  0  0  2  0  0  0  0  0  0
  188.1210  177.9950  143.4490 C   0  0  0  0  0  0  0  0  0  0  0  0
  187.9990  178.0340  142.0540 C   0  0  0  0  0  0  0  0  0  0  0  0
  185.5910  178.3810  142.2670 C   0  0  0  0  0  0  0  0  0  0  0  0
  181.1230  178.9810  143.2010 N   0  0  0  0  0  0  0  0  0  0  0  0
  189.8140  177.8090  148.0920 O   0  0  0  0  0  0  0  0  0  0  0  0
  189.5890  177.8920  145.4810 C   0  0  2  0  0  3  0  0  0  0  0  0
  182.0160  178.8250  144.2800 N   0  0  0  0  0  2  0  0  0  0  0  0
  188.5960  177.2010  147.6910 C   0  0  0  0  0  2  0  0  0  0  0  0
  190.8260  175.9750  146.6490 C   0  0  1  0  0  3  0  0  0  0  0  0
  186.5840  178.2160  139.9530 C   0  0  0  0  0  2  0  0  0  0  0  0
  186.7360  178.2450  141.4590 C   0  0  0  0  0  0  0  0  0  0  0  0
  184.2610  178.5860  141.6130 C   0  0  0  0  0  2  0  0  0  0  0  0
  187.1500  178.0800  145.7860 C   0  0  0  0  0  2  0  0  0  0  0  0
  184.4550  178.4330  145.7800 O   0  0  0  0  0  0  0  0  0  0  0  0
  181.1500  179.0470  140.7420 C   0  0  0  0  0  1  0  0  0  0  0  0
  185.7030  178.3240  143.6940 C   0  0  0  0  0  0  0  0  0  0  0  0
  183.1820  178.7160  142.3730 C   0  0  0  0  0  0  0  0  0  0  0  0
  192.1590  175.2570  146.5660 C   0  0  0  0  0  2  0  0  0  0  0  0
  192.3290  174.6320  145.2210 C   0  0  0  0  0  0  0  0  0  0  0  0
  192.8370  173.5270  145.1160 O   0  0  0  0  0  0  0  0  0  0  0  0
  191.8540  175.3490  144.0060 C   0  0  0  0  0  1  0  0  0  0  0  0
  1 16  1  1  0  0  0
  2 24  1  0  0  0  0
  3 11  1  0  0  0  0
  4  3  1  0  0  0  0
  4 21  1  0  0  0  0
  5 25  2  0  0  0  0
  6 18  1  0  0  0  0
  6  5  1  0  0  0  0
  7 24  1  1  0  0  0
  7 19  1  0  0  0  0
  8 17  1  0  0  0  0
  9 28  1  0  0  0  0
  9 15  2  0  0  0  0
 10 20  1  0  0  0  0
 10  1  1  0  0  0  0
 11 13  1  0  0  0  0
 12  8  1  0  0  0  0
 12  2  2  0  0  0  0
 13 12  1  0  0  0  0
 14 27  2  0  0  0  0
 15 18  1  0  0  0  0
 17 10  1  0  0  0  0
 17  7  1  0  0  0  0
 19 16  1  0  0  0  0
 20  1  1  0  0  0  0
 21 22  1  0  0  0  0
 22 13  2  0  0  0  0
 22 14  1  0  0  0  0
 23 14  1  0  0  0  0
 23 28  1  0  0  0  0
 26  9  1  0  0  0  0
 27  2  1  0  0  0  0
 27  5  1  0  0  0  0
 28  6  2  0  0  0  0
 29 20  1  0  0  0  0
 30 29  1  0  0  0  0
 31 30  2  0  0  0  0
 32 30  1  0  0  0  0
M  END
>  <MODEL>
3

>  <REMARK>
 VINA RESULT:      -9.1      3.146      7.672
  Name = 
  2 active torsions:
  status: ('A' for Active; 'I' for Inactive)
    1  A    between atoms: C_20  and  C_29
    2  A    between atoms: C_29  and  C_30
                            x       y       z     vdW  Elec       q    Type
                         _______ _______ _______ _____ _____    ______ ____

>  <TORSDO>
F 2

$$$$
=
 OpenBabel11122410443D

 32 38  0  0  1  0  0  0  0  0999 V2000
  181.4630  178.8550  140.1890 C   0  0  1  0  0  3  0  0  0  0  0  0
  185.6940  178.1420  143.1380 C   0  0  0  0  0  0  0  0  0  0  0  0
  189.4170  178.2300  139.8540 C   0  0  0  0  0  2  0  0  0  0  0  0
  190.2320  177.3840  140.8130 C   0  0  0  0  0  2  0  0  0  0  0  0
  186.2080  178.0130  145.6400 C   0  0  0  0  0  0  0  0  0  0  0  0
  187.2690  177.8780  146.6330 C   0  0  0  0  0  0  0  0  0  0  0  0
  183.4880  178.9690  142.2820 C   0  0  1  0  0  3  0  0  0  0  0  0
  185.1990  178.2530  140.7170 N   0  0  0  0  0  2  0  0  0  0  0  0
  189.3210  177.6500  147.5060 C   0  0  0  0  0  0  0  0  0  0  0  0
  182.9360  178.6940  139.7900 C   0  0  2  0  0  3  0  0  0  0  0  0
  187.9380  177.9220  140.0530 C   0  0  0  0  0  2  0  0  0  0  0  0
  186.1450  178.1190  141.7930 C   0  0  0  0  0  0  0  0  0  0  0  0
  187.5110  178.0080  141.5000 C   0  0  0  0  0  0  0  0  0  0  0  0
  188.0190  177.8780  143.8850 C   0  0  0  0  0  0  0  0  0  0  0  0
  188.4500  177.7110  148.4650 N   0  0  0  0  0  0  0  0  0  0  0  0
  181.2160  178.4340  141.5390 O   0  0  0  0  0  0  0  0  0  0  0  0
  183.7710  178.2170  140.9890 C   0  0  2  0  0  3  0  0  0  0  0  0
  187.1590  177.8540  147.9200 N   0  0  0  0  0  2  0  0  0  0  0  0
  181.9830  179.1170  142.5180 C   0  0  0  0  0  2  0  0  0  0  0  0
  182.3450  180.0890  139.9720 C   0  0  1  0  0  3  0  0  0  0  0  0
  189.9320  177.8220  142.2400 C   0  0  0  0  0  2  0  0  0  0  0  0
  188.4500  177.8690  142.5450 C   0  0  0  0  0  0  0  0  0  0  0  0
  189.0350  177.7470  144.9750 C   0  0  0  0  0  2  0  0  0  0  0  0
  184.2060  178.2530  143.4150 C   0  0  0  0  0  2  0  0  0  0  0  0
  185.0090  178.1280  146.0080 O   0  0  0  0  0  0  0  0  0  0  0  0
  190.7850  177.4980  147.7180 C   0  0  0  0  0  1  0  0  0  0  0  0
  186.6260  178.0090  144.1950 C   0  0  0  0  0  0  0  0  0  0  0  0
  188.6310  177.7530  146.2380 C   0  0  0  0  0  0  0  0  0  0  0  0
  182.0460  180.6860  138.6100 C   0  0  0  0  0  2  0  0  0  0  0  0
  180.9370  181.6800  138.7110 C   0  0  0  0  0  0  0  0  0  0  0  0
  180.1470  181.6280  139.6410 O   0  0  0  0  0  0  0  0  0  0  0  0
  180.8090  182.7530  137.6870 C   0  0  0  0  0  1  0  0  0  0  0  0
  1 16  1  1  0  0  0
  2 24  1  0  0  0  0
  2 27  1  0  0  0  0
  3 11  1  0  0  0  0
  3  4  1  0  0  0  0
  4 21  1  0  0  0  0
  5 25  2  0  0  0  0
  5  6  1  0  0  0  0
  6 18  1  0  0  0  0
  7 19  1  1  0  0  0
  7 24  1  0  0  0  0
  8 17  1  0  0  0  0
  8 12  1  0  0  0  0
  9 26  1  0  0  0  0
  9 15  2  0  0  0  0
 10 20  1  0  0  0  0
 10  1  1  0  0  0  0
 10 17  1  0  0  0  0
 11 13  1  0  0  0  0
 12  2  2  0  0  0  0
 13 12  1  0  0  0  0
 13 22  2  0  0  0  0
 14 27  2  0  0  0  0
 14 23  1  0  0  0  0
 16 19  1  0  0  0  0
 17  7  1  0  0  0  0
 18 15  1  0  0  0  0
 20  1  1  0  0  0  0
 21 22  1  0  0  0  0
 22 14  1  0  0  0  0
 23 28  1  0  0  0  0
 27  5  1  0  0  0  0
 28  6  2  0  0  0  0
 28  9  1  0  0  0  0
 29 30  1  0  0  0  0
 29 20  1  0  0  0  0
 30 31  2  0  0  0  0
 32 30  1  0  0  0  0
M  END
>  <MODEL>
4

>  <REMARK>
 VINA RESULT:      -9.0      3.116      5.384
  Name = 
  2 active torsions:
  status: ('A' for Active; 'I' for Inactive)
    1  A    between atoms: C_20  and  C_29
    2  A    between atoms: C_29  and  C_30
                            x       y       z     vdW  Elec       q    Type
                         _______ _______ _______ _____ _____    ______ ____

>  <TORSDO>
F 2

$$$$
=
 OpenBabel11122410443D

 32 38  0  0  1  0  0  0  0  0999 V2000
  180.3610  178.9470  141.3000 C   0  0  1  0  0  3  0  0  0  0  0  0
  184.9260  178.2590  143.7060 C   0  0  0  0  0  0  0  0  0  0  0  0
  188.2160  178.3480  139.9890 C   0  0  0  0  0  2  0  0  0  0  0  0
  189.1460  177.5090  140.8430 C   0  0  0  0  0  2  0  0  0  0  0  0
  185.7460  178.1400  146.1260 C   0  0  0  0  0  0  0  0  0  0  0  0
  186.9210  178.0130  146.9820 C   0  0  0  0  0  0  0  0  0  0  0  0
  182.6290  179.0750  143.1270 C   0  0  1  0  0  3  0  0  0  0  0  0
  184.1360  178.3590  141.3650 N   0  0  0  0  0  2  0  0  0  0  0  0
  189.0660  177.7950  147.5960 C   0  0  0  0  0  0  0  0  0  0  0  0
  181.7750  178.7890  140.7220 C   0  0  2  0  0  3  0  0  0  0  0  0
  186.7740  178.0360  140.3690 C   0  0  0  0  0  2  0  0  0  0  0  0
  185.2080  178.2320  142.3160 C   0  0  0  0  0  0  0  0  0  0  0  0
  186.5280  178.1250  141.8570 C   0  0  0  0  0  0  0  0  0  0  0  0
  187.3270  178.0050  144.1620 C   0  0  0  0  0  0  0  0  0  0  0  0
  188.3200  177.8560  148.6550 N   0  0  0  0  0  0  0  0  0  0  0  0
  180.2850  178.5290  142.6710 O   0  0  0  0  0  0  0  0  0  0  0  0
  182.7530  178.3190  141.8110 C   0  0  2  0  0  3  0  0  0  0  0  0
  186.9710  177.9930  148.2730 N   0  0  0  0  0  2  0  0  0  0  0  0
  181.1630  179.2190  143.5460 C   0  0  0  0  0  2  0  0  0  0  0  0
  181.2050  180.1830  140.9710 C   0  0  1  0  0  3  0  0  0  0  0  0
  189.0230  177.9500  142.2940 C   0  0  0  0  0  2  0  0  0  0  0  0
  187.5890  177.9930  142.7790 C   0  0  0  0  0  0  0  0  0  0  0  0
  188.4700  177.8820  145.1190 C   0  0  0  0  0  2  0  0  0  0  0  0
  183.4840  178.3650  144.1650 C   0  0  0  0  0  2  0  0  0  0  0  0
  184.6010  178.2530  146.6390 O   0  0  0  0  0  0  0  0  0  0  0  0
  190.5460  177.6490  147.6270 C   0  0  0  0  0  1  0  0  0  0  0  0
  185.9820  178.1330  144.6410 C   0  0  0  0  0  0  0  0  0  0  0  0
  188.2240  177.8910  146.4220 C   0  0  0  0  0  0  0  0  0  0  0  0
  180.7390  180.7740  139.6550 C   0  0  0  0  0  2  0  0  0  0  0  0
  181.8040  180.6380  138.6190 C   0  0  0  0  0  0  0  0  0  0  0  0
  182.9010  181.1450  138.7930 O   0  0  0  0  0  0  0  0  0  0  0  0
  181.5350  179.8610  137.3770 C   0  0  0  0  0  1  0  0  0  0  0  0
  1 16  1  1  0  0  0
  2 24  1  0  0  0  0
  2 27  1  0  0  0  0
  3 11  1  0  0  0  0
  3  4  1  0  0  0  0
  4 21  1  0  0  0  0
  5 25  2  0  0  0  0
  5  6  1  0  0  0  0
  6 18  1  0  0  0  0
  7 19  1  1  0  0  0
  7 24  1  0  0  0  0
  8 17  1  0  0  0  0
  8 12  1  0  0  0  0
  9 26  1  0  0  0  0
  9 15  2  0  0  0  0
 10 20  1  0  0  0  0
 10  1  1  0  0  0  0
 10 17  1  0  0  0  0
 11 13  1  0  0  0  0
 12  2  2  0  0  0  0
 13 12  1  0  0  0  0
 13 22  2  0  0  0  0
 14 27  2  0  0  0  0
 14 23  1  0  0  0  0
 16 19  1  0  0  0  0
 17  7  1  0  0  0  0
 18 15  1  0  0  0  0
 20  1  1  0  0  0  0
 21 22  1  0  0  0  0
 22 14  1  0  0  0  0
 23 28  1  0  0  0  0
 27  5  1  0  0  0  0
 28  6  2  0  0  0  0
 28  9  1  0  0  0  0
 29 20  1  0  0  0  0
 30 31  2  0  0  0  0
 30 29  1  0  0  0  0
 32 30  1  0  0  0  0
M  END
>  <MODEL>
5

>  <REMARK>
 VINA RESULT:      -8.9      3.059      5.634
  Name = 
  2 active torsions:
  status: ('A' for Active; 'I' for Inactive)
    1  A    between atoms: C_20  and  C_29
    2  A    between atoms: C_29  and  C_30
                            x       y       z     vdW  Elec       q    Type
                         _______ _______ _______ _____ _____    ______ ____

>  <TORSDO>
F 2

$$$$
=
 OpenBabel11122410443D

 32 38  0  0  1  0  0  0  0  0999 V2000
  188.8890  177.7130  147.9320 C   0  0  1  0  0  3  0  0  0  0  0  0
  186.3290  178.3030  143.4380 C   0  0  0  0  0  0  0  0  0  0  0  0
  189.8290  177.5190  140.0050 C   0  0  0  0  0  2  0  0  0  0  0  0
  189.0240  178.3740  139.0440 C   0  0  0  0  0  2  0  0  0  0  0  0
  183.8960  178.6330  142.7200 C   0  0  0  0  0  0  0  0  0  0  0  0
  182.9970  178.7630  141.5780 C   0  0  0  0  0  0  0  0  0  0  0  0
  186.9380  177.6140  145.7690 C   0  0  1  0  0  3  0  0  0  0  0  0
  188.6840  177.9970  144.1270 N   0  0  0  0  0  2  0  0  0  0  0  0
  182.2960  178.8770  139.4520 C   0  0  0  0  0  0  0  0  0  0  0  0
  189.4020  177.6880  146.4860 C   0  0  2  0  0  3  0  0  0  0  0  0
  189.5640  177.9890  141.4290 C   0  0  0  0  0  2  0  0  0  0  0  0
  187.6960  178.1460  143.0920 C   0  0  0  0  0  0  0  0  0  0  0  0
  188.0910  178.0920  141.7490 C   0  0  0  0  0  0  0  0  0  0  0  0
  185.7740  178.4120  141.0470 C   0  0  0  0  0  0  0  0  0  0  0  0
  181.2780  178.9980  140.2470 N   0  0  0  0  0  0  0  0  0  0  0  0
  187.5790  178.2910  148.0340 O   0  0  0  0  0  0  0  0  0  0  0  0
  188.3210  178.2000  145.5210 C   0  0  2  0  0  3  0  0  0  0  0  0
  181.7160  178.9280  141.5840 N   0  0  0  0  0  2  0  0  0  0  0  0
  186.5860  177.6380  147.2580 C   0  0  0  0  0  2  0  0  0  0  0  0
  189.0310  176.3830  147.1850 C   0  0  1  0  0  3  0  0  0  0  0  0
  187.5410  178.1140  139.2700 C   0  0  0  0  0  2  0  0  0  0  0  0
  187.1330  178.2440  140.7230 C   0  0  0  0  0  0  0  0  0  0  0  0
  184.7760  178.5530  139.9410 C   0  0  0  0  0  2  0  0  0  0  0  0
  185.9400  178.3670  144.9030 C   0  0  0  0  0  2  0  0  0  0  0  0
  183.4370  178.6740  143.8930 O   0  0  0  0  0  0  0  0  0  0  0  0
  182.2010  178.9050  137.9680 C   0  0  0  0  0  1  0  0  0  0  0  0
  185.3580  178.4500  142.4170 C   0  0  0  0  0  0  0  0  0  0  0  0
  183.4950  178.7140  140.2450 C   0  0  0  0  0  0  0  0  0  0  0  0
  190.2970  175.6840  147.6410 C   0  0  0  0  0  2  0  0  0  0  0  0
  191.5000  176.3810  147.0980 C   0  0  0  0  0  0  0  0  0  0  0  0
  192.2390  177.0030  147.8440 O   0  0  0  0  0  0  0  0  0  0  0  0
  191.8110  176.2960  145.6440 C   0  0  0  0  0  1  0  0  0  0  0  0
  1 16  1  6  0  0  0
  2 24  1  0  0  0  0
  3 11  1  0  0  0  0
  4 21  1  0  0  0  0
  4  3  1  0  0  0  0
  5 25  2  0  0  0  0
  6 18  1  0  0  0  0
  6  5  1  0  0  0  0
  7 24  1  6  0  0  0
  7 19  1  0  0  0  0
  8 17  1  0  0  0  0
  9 28  1  0  0  0  0
  9 15  2  0  0  0  0
 10 20  1  0  0  0  0
 10  1  1  0  0  0  0
 11 13  1  0  0  0  0
 12  2  1  0  0  0  0
 12  8  1  0  0  0  0
 13 12  2  0  0  0  0
 14 27  1  0  0  0  0
 15 18  1  0  0  0  0
 17  7  1  0  0  0  0
 17 10  1  0  0  0  0
 19 16  1  0  0  0  0
 20 29  1  0  0  0  0
 20  1  1  0  0  0  0
 21 22  1  0  0  0  0
 22 14  2  0  0  0  0
 22 13  1  0  0  0  0
 23 28  1  0  0  0  0
 23 14  1  0  0  0  0
 26  9  1  0  0  0  0
 27  5  1  0  0  0  0
 27  2  2  0  0  0  0
 28  6  2  0  0  0  0
 30 29  1  0  0  0  0
 30 31  2  0  0  0  0
 32 30  1  0  0  0  0
M  END
>  <MODEL>
6

>  <REMARK>
 VINA RESULT:      -8.9      3.027      8.348
  Name = 
  2 active torsions:
  status: ('A' for Active; 'I' for Inactive)
    1  A    between atoms: C_20  and  C_29
    2  A    between atoms: C_29  and  C_30
                            x       y       z     vdW  Elec       q    Type
                         _______ _______ _______ _____ _____    ______ ____

>  <TORSDO>
F 2

$$$$
=
 OpenBabel11122410443D

 32 38  0  0  1  0  0  0  0  0999 V2000
  179.9470  179.4350  138.1280 C   0  0  1  0  0  3  0  0  0  0  0  0
  183.7300  178.6780  141.6240 C   0  0  0  0  0  0  0  0  0  0  0  0
  187.8440  178.4960  138.8500 C   0  0  0  0  0  2  0  0  0  0  0  0
  188.4920  177.6590  139.9360 C   0  0  0  0  0  2  0  0  0  0  0  0
  183.9130  178.6280  144.1750 C   0  0  0  0  0  0  0  0  0  0  0  0
  184.8300  178.4920  145.3010 C   0  0  0  0  0  0  0  0  0  0  0  0
  181.6890  179.5530  140.4620 C   0  0  1  0  0  3  0  0  0  0  0  0
  183.5550  178.7120  139.1570 N   0  0  0  0  0  2  0  0  0  0  0  0
  186.7420  178.2210  146.4400 C   0  0  0  0  0  0  0  0  0  0  0  0
  181.4510  179.2020  137.9290 C   0  0  2  0  0  3  0  0  0  0  0  0
  186.3410  178.2530  138.8660 C   0  0  0  0  0  2  0  0  0  0  0  0
  184.3490  178.5850  140.3510 C   0  0  0  0  0  0  0  0  0  0  0  0
  185.7350  178.4110  140.2410 C   0  0  0  0  0  0  0  0  0  0  0  0
  185.9270  178.3560  142.6750 C   0  0  0  0  0  0  0  0  0  0  0  0
  185.7590  178.3530  147.2760 N   0  0  0  0  0  0  0  0  0  0  0  0
  179.5110  179.0760  139.4480 O   0  0  0  0  0  0  0  0  0  0  0  0
  182.1040  178.7410  139.2420 C   0  0  2  0  0  3  0  0  0  0  0  0
  184.5560  178.5230  146.5630 N   0  0  0  0  0  2  0  0  0  0  0  0
  180.1740  179.7680  140.4950 C   0  0  0  0  0  2  0  0  0  0  0  0
  180.9010  180.6240  137.9850 C   0  0  1  0  0  3  0  0  0  0  0  0
  188.0310  178.1630  141.2960 C   0  0  0  0  0  2  0  0  0  0  0  0
  186.5250  178.2780  141.4030 C   0  0  0  0  0  0  0  0  0  0  0  0
  186.7880  178.2290  143.8920 C   0  0  0  0  0  2  0  0  0  0  0  0
  182.2250  178.8560  141.7020 C   0  0  0  0  0  2  0  0  0  0  0  0
  182.6820  178.8030  144.3800 O   0  0  0  0  0  0  0  0  0  0  0  0
  188.1590  178.0230  146.8460 C   0  0  0  0  0  1  0  0  0  0  0  0
  184.5130  178.5510  142.7970 C   0  0  0  0  0  0  0  0  0  0  0  0
  186.2250  178.3000  145.0910 C   0  0  0  0  0  0  0  0  0  0  0  0
  180.8060  181.1790  136.5770 C   0  0  0  0  0  2  0  0  0  0  0  0
  180.5680  182.6520  136.6140 C   0  0  0  0  0  0  0  0  0  0  0  0
  180.2010  183.1900  137.6460 O   0  0  0  0  0  0  0  0  0  0  0  0
  180.8050  183.4710  135.3930 C   0  0  0  0  0  1  0  0  0  0  0  0
  1 16  1  1  0  0  0
  2 24  1  0  0  0  0
  2 27  1  0  0  0  0
  3 11  1  0  0  0  0
  3  4  1  0  0  0  0
  4 21  1  0  0  0  0
  5 25  2  0  0  0  0
  5  6  1  0  0  0  0
  6 18  1  0  0  0  0
  7 19  1  1  0  0  0
  7 24  1  0  0  0  0
  8 17  1  0  0  0  0
  8 12  1  0  0  0  0
  9 26  1  0  0  0  0
  9 15  2  0  0  0  0
 10 20  1  0  0  0  0
 10  1  1  0  0  0  0
 10 17  1  0  0  0  0
 11 13  1  0  0  0  0
 12  2  2  0  0  0  0
 13 12  1  0  0  0  0
 13 22  2  0  0  0  0
 14 27  2  0  0  0  0
 14 23  1  0  0  0  0
 16 19  1  0  0  0  0
 17  7  1  0  0  0  0
 18 15  1  0  0  0  0
 20  1  1  0  0  0  0
 21 22  1  0  0  0  0
 22 14  1  0  0  0  0
 23 28  1  0  0  0  0
 27  5  1  0  0  0  0
 28  6  2  0  0  0  0
 28  9  1  0  0  0  0
 29 30  1  0  0  0  0
 29 20  1  0  0  0  0
 30 31  2  0  0  0  0
 32 30  1  0  0  0  0
M  END
>  <MODEL>
7

>  <REMARK>
 VINA RESULT:      -8.8      4.134      6.209
  Name = 
  2 active torsions:
  status: ('A' for Active; 'I' for Inactive)
    1  A    between atoms: C_20  and  C_29
    2  A    between atoms: C_29  and  C_30
                            x       y       z     vdW  Elec       q    Type
                         _______ _______ _______ _____ _____    ______ ____

>  <TORSDO>
F 2

$$$$
=
 OpenBabel11122410443D

 32 38  0  0  1  0  0  0  0  0999 V2000
  190.2620  176.5920  147.0740 C   0  0  1  0  0  3  0  0  0  0  0  0
  188.5430  177.4840  142.2420 C   0  0  0  0  0  0  0  0  0  0  0  0
  183.8700  179.0070  142.9430 C   0  0  0  0  0  2  0  0  0  0  0  0
  183.5410  178.5180  141.5460 C   0  0  0  0  0  2  0  0  0  0  0  0
  189.5550  177.5260  139.8930 C   0  0  0  0  0  0  0  0  0  0  0  0
  189.2840  177.7870  138.4840 C   0  0  0  0  0  0  0  0  0  0  0  0
  189.9750  177.4320  144.2980 C   0  0  1  0  0  3  0  0  0  0  0  0
  187.5570  177.4320  144.5100 N   0  0  0  0  0  2  0  0  0  0  0  0
  188.1660  178.3360  136.6200 C   0  0  0  0  0  0  0  0  0  0  0  0
  188.8700  177.0010  146.5750 C   0  0  2  0  0  3  0  0  0  0  0  0
  185.0030  178.1640  143.5120 C   0  0  0  0  0  2  0  0  0  0  0  0
  187.4200  177.6490  143.0940 C   0  0  0  0  0  0  0  0  0  0  0  0
  186.1860  178.0640  142.5770 C   0  0  0  0  0  0  0  0  0  0  0  0
  187.1350  178.1040  140.3270 C   0  0  0  0  0  0  0  0  0  0  0  0
  189.3950  178.0530  136.3160 N   0  0  0  0  0  0  0  0  0  0  0  0
  191.0930  176.0910  146.0160 O   0  0  0  0  0  0  0  0  0  0  0  0
  188.7800  176.8580  145.0480 C   0  0  2  0  0  3  0  0  0  0  0  0
  190.1000  177.7080  137.4850 N   0  0  0  0  0  0  0  0  0  0  0  0
  191.2930  177.0000  144.9450 C   0  0  0  0  0  2  0  0  0  0  0  0
  189.8590  178.0690  147.0330 C   0  0  1  0  0  3  0  0  0  0  0  0
  184.7260  178.7920  140.6310 C   0  0  0  0  0  2  0  0  0  0  0  0
  186.0350  178.2750  141.1890 C   0  0  0  0  0  0  0  0  0  0  0  0
  186.9540  178.3510  138.8630 C   0  0  0  0  0  3  0  0  0  0  0  0
  189.8600  177.0240  142.8380 C   0  0  0  0  0  2  0  0  0  0  0  0
  190.7080  177.1770  140.2610 O   0  0  0  0  0  0  0  0  0  0  0  0
  187.1360  178.7440  135.6280 C   0  0  0  0  0  1  0  0  0  0  0  0
  188.4060  177.6980  140.8490 C   0  0  0  0  0  0  0  0  0  0  0  0
  187.9890  178.1880  138.0490 C   0  0  0  0  0  0  0  0  0  0  0  0
  189.4880  178.5280  148.4300 C   0  0  0  0  0  2  0  0  0  0  0  0
  188.0360  178.2950  148.6840 C   0  0  0  0  0  0  0  0  0  0  0  0
  187.6800  177.4860  149.5270 O   0  0  0  0  0  0  0  0  0  0  0  0
  187.0170  179.0700  147.9240 C   0  0  0  0  0  1  0  0  0  0  0  0
  1 16  1  6  0  0  0
  2 24  1  0  0  0  0
  2 12  1  0  0  0  0
  3 11  1  0  0  0  0
  4  3  1  0  0  0  0
  5 25  2  0  0  0  0
  5 27  1  0  0  0  0
  6  5  1  0  0  0  0
  7 24  1  6  0  0  0
  7 19  1  0  0  0  0
  7 17  1  0  0  0  0
  8 17  1  0  0  0  0
  9 28  1  0  0  0  0
 10 20  1  0  0  0  0
 10  1  1  0  0  0  0
 12  8  1  0  0  0  0
 13 12  2  0  0  0  0
 13 11  1  0  0  0  0
 14 27  1  0  0  0  0
 14 22  2  0  0  0  0
 15  9  2  0  0  0  0
 15 18  1  0  0  0  0
 17 10  1  0  0  0  0
 18  6  2  0  0  0  0
 19 16  1  0  0  0  0
 20  1  1  0  0  0  0
 20 29  1  0  0  0  0
 21 22  1  0  0  0  0
 21  4  1  0  0  0  0
 22 13  1  0  0  0  0
 23 14  1  0  0  0  0
 26  9  1  0  0  0  0
 27  2  2  0  0  0  0
 28  6  1  0  0  0  0
 28 23  2  0  0  0  0
 29 30  1  0  0  0  0
 30 31  2  0  0  0  0
 32 30  1  0  0  0  0
M  END
>  <MODEL>
8

>  <REMARK>
 VINA RESULT:      -8.6      2.175      7.710
  Name = 
  2 active torsions:
  status: ('A' for Active; 'I' for Inactive)
    1  A    between atoms: C_20  and  C_29
    2  A    between atoms: C_29  and  C_30
                            x       y       z     vdW  Elec       q    Type
                         _______ _______ _______ _____ _____    ______ ____

>  <TORSDO>
F 2

$$$$
=
 OpenBabel11122410443D

 32 38  0  0  1  0  0  0  0  0999 V2000
  180.0560  178.9060  141.1350 C   0  0  1  0  0  3  0  0  0  0  0  0
  185.0300  178.2250  142.5150 C   0  0  0  0  0  0  0  0  0  0  0  0
  187.4860  178.6380  138.2200 C   0  0  0  0  0  2  0  0  0  0  0  0
  188.5870  177.7800  138.8110 C   0  0  0  0  0  2  0  0  0  0  0  0
  186.3300  177.9910  144.7050 C   0  0  0  0  0  0  0  0  0  0  0  0
  187.6580  177.8510  145.2940 C   0  0  0  0  0  0  0  0  0  0  0  0
  182.6470  179.0000  142.4680 C   0  0  1  0  0  3  0  0  0  0  0  0
  183.7750  178.4380  140.3940 N   0  0  0  0  0  2  0  0  0  0  0  0
  189.8870  177.6660  145.4430 C   0  0  0  0  0  0  0  0  0  0  0  0
  181.3240  178.8290  140.2740 C   0  0  2  0  0  3  0  0  0  0  0  0
  186.1590  178.2580  138.8640 C   0  0  0  0  0  2  0  0  0  0  0  0
  185.0220  178.2890  141.0980 C   0  0  0  0  0  0  0  0  0  0  0  0
  186.2210  178.2520  140.3740 C   0  0  0  0  0  0  0  0  0  0  0  0
  187.4770  178.0220  142.4560 C   0  0  0  0  0  0  0  0  0  0  0  0
  189.3730  177.6410  146.6340 N   0  0  0  0  0  0  0  0  0  0  0  0
  180.2700  178.4070  142.4640 O   0  0  0  0  0  0  0  0  0  0  0  0
  182.5130  178.3270  141.1080 C   0  0  2  0  0  3  0  0  0  0  0  0
  187.9720  177.7570  146.5440 N   0  0  0  0  0  2  0  0  0  0  0  0
  181.2960  179.0720  143.1850 C   0  0  0  0  0  2  0  0  0  0  0  0
  180.7910  180.1860  140.7220 C   0  0  1  0  0  3  0  0  0  0  0  0
  188.7560  178.1320  140.2830 C   0  0  0  0  0  2  0  0  0  0  0  0
  187.4510  178.1000  141.0500 C   0  0  0  0  0  0  0  0  0  0  0  0
  188.7950  177.8800  143.1500 C   0  0  0  0  0  2  0  0  0  0  0  0
  183.7100  178.2580  143.2630 C   0  0  0  0  0  2  0  0  0  0  0  0
  185.3120  178.0360  145.4460 O   0  0  0  0  0  0  0  0  0  0  0  0
  191.3440  177.5670  145.1640 C   0  0  0  0  0  1  0  0  0  0  0  0
  186.2580  178.0780  143.2050 C   0  0  0  0  0  0  0  0  0  0  0  0
  188.8210  177.8040  144.4740 C   0  0  0  0  0  0  0  0  0  0  0  0
  180.0530  180.8390  139.5690 C   0  0  0  0  0  2  0  0  0  0  0  0
  181.0040  181.1760  138.4690 C   0  0  0  0  0  0  0  0  0  0  0  0
  182.0180  181.8130  138.7070 O   0  0  0  0  0  0  0  0  0  0  0  0
  180.7270  180.7120  137.0820 C   0  0  0  0  0  1  0  0  0  0  0  0
  1 16  1  1  0  0  0
  2 27  1  0  0  0  0
  2 24  1  0  0  0  0
  3  4  1  0  0  0  0
  3 11  1  0  0  0  0
  4 21  1  0  0  0  0
  5  6  1  0  0  0  0
  5 25  2  0  0  0  0
  6 18  1  0  0  0  0
  7 19  1  1  0  0  0
  7 24  1  0  0  0  0
  8 12  1  0  0  0  0
  8 17  1  0  0  0  0
  9 15  2  0  0  0  0
 10 20  1  0  0  0  0
 10 17  1  0  0  0  0
 10  1  1  0  0  0  0
 11 13  1  0  0  0  0
 12  2  2  0  0  0  0
 13 22  2  0  0  0  0
 13 12  1  0  0  0  0
 14 23  1  0  0  0  0
 14 27  2  0  0  0  0
 16 19  1  0  0  0  0
 17  7  1  0  0  0  0
 18 15  1  0  0  0  0
 20  1  1  0  0  0  0
 21 22  1  0  0  0  0
 22 14  1  0  0  0  0
 23 28  1  0  0  0  0
 26  9  1  0  0  0  0
 27  5  1  0  0  0  0
 28  6  2  0  0  0  0
 28  9  1  0  0  0  0
 29 20  1  0  0  0  0
 30 31  2  0  0  0  0
 30 29  1  0  0  0  0
 32 30  1  0  0  0  0
M  END
>  <MODEL>
9

>  <REMARK>
 VINA RESULT:      -8.5      3.124      5.786
  Name = 
  2 active torsions:
  status: ('A' for Active; 'I' for Inactive)
    1  A    between atoms: C_20  and  C_29
    2  A    between atoms: C_29  and  C_30
                            x       y       z     vdW  Elec       q    Type
                         _______ _______ _______ _____ _____    ______ ____

>  <TORSDO>
F 2

$$$$
