=
 OpenBabel11122411223D

 37 44  0  0  1  0  0  0  0  0999 V2000
  189.6420  176.8190  139.3660 C   0  0  0  0  0  2  0  0  0  0  0  0
  190.4410  177.7840  143.8090 C   0  0  0  0  0  0  0  0  0  0  0  0
  186.4500  178.1220  142.6500 C   0  0  0  0  0  0  0  0  0  0  0  0
  190.1920  176.9760  138.0250 N   0  0  0  0  0  0  0  0  0  0  0  0
  186.0890  178.6610  138.8260 C   0  0  0  0  0  2  0  0  0  0  0  0
  187.9900  177.7500  144.4780 C   0  0  0  0  0  0  0  0  0  0  0  0
  186.5610  178.1610  141.2780 C   0  0  0  0  0  0  0  0  0  0  0  0
  188.1210  176.1930  136.8770 C   0  0  2  0  0  3  0  0  0  0  0  0
  187.7020  177.8620  143.1320 C   0  0  0  0  0  0  0  0  0  0  0  0
  185.5630  178.4820  140.2420 C   0  0  0  0  0  0  0  0  0  0  0  0
  186.9240  177.8800  145.3830 C   0  0  0  0  0  3  0  0  0  0  0  0
  189.6040  175.9420  137.1770 C   0  0  0  0  0  2  0  0  0  0  0  0
  188.5980  177.7320  142.1520 N   0  0  0  0  0  0  0  0  0  0  0  0
  191.7410  177.0790  144.1290 C   0  0  0  0  0  1  0  0  0  0  0  0
  183.9950  178.4420  143.0510 C   0  0  0  0  0  3  0  0  0  0  0  0
  185.6180  178.1320  144.8970 C   0  0  0  0  0  3  0  0  0  0  0  0
  189.9980  177.3770  142.3830 C   0  0  0  0  0  2  0  0  0  0  0  0
  187.6980  177.6540  137.0570 C   0  0  0  0  0  2  0  0  0  0  0  0
  187.4650  178.0510  138.5180 C   0  0  1  0  0  0  0  0  0  0  0  0
  185.3680  178.2560  143.5110 C   0  0  0  0  0  0  0  0  0  0  0  0
  187.9000  177.8830  141.0030 C   0  0  0  0  0  0  0  0  0  0  0  0
  189.3960  177.4060  144.8890 C   0  0  0  0  0  2  0  0  0  0  0  0
  184.2410  178.6970  140.4880 C   0  0  0  0  0  0  0  0  0  0  0  0
  190.6910  179.2820  143.8490 C   0  0  0  0  0  1  0  0  0  0  0  0
  188.4800  178.9580  138.9170 O   0  0  0  0  0  0  0  0  0  0  0  0
  187.3160  175.3390  137.6330 O   0  0  0  0  0  1  0  0  0  0  0  0
  188.4380  177.7410  139.6160 C   0  0  1  0  0  0  0  0  0  0  0  0
  183.5530  178.6140  141.8030 C   0  0  0  0  0  3  0  0  0  0  0  0
  182.8640  178.0430  138.5100 C   0  0  0  0  0  3  0  0  0  0  0  0
  183.3210  179.0430  139.3800 C   0  0  0  0  0  0  0  0  0  0  0  0
  182.8580  180.3590  139.2180 C   0  0  0  0  0  3  0  0  0  0  0  0
  181.5320  181.9440  138.0330 F   0  0  0  0  0  0  0  0  0  0  0  0
  181.5260  179.6710  137.3180 C   0  0  0  0  0  3  0  0  0  0  0  0
  181.9680  180.6720  138.1880 C   0  0  0  0  0  0  0  0  0  0  0  0
  181.9720  178.3560  137.4810 C   0  0  0  0  0  3  0  0  0  0  0  0
  191.8540  175.2220  137.7700 C   0  0  0  0  0  1  0  0  0  0  0  0
  191.6110  176.6800  138.1120 C   0  0  0  0  0  2  0  0  0  0  0  0
  2 24  1  0  0  0  0
  2 14  1  0  0  0  0
  2 22  1  0  0  0  0
  3  9  2  0  0  0  0
  3 20  1  0  0  0  0
  4 37  1  0  0  0  0
  4  1  1  0  0  0  0
  5 10  1  0  0  0  0
  6 22  1  0  0  0  0
  6 11  2  0  0  0  0
  7  3  1  0  0  0  0
  8 18  1  0  0  0  0
  8 12  1  0  0  0  0
  8 26  1  1  0  0  0
  9  6  1  0  0  0  0
 10 23  2  0  0  0  0
 10  7  1  0  0  0  0
 12  4  1  0  0  0  0
 13 17  1  0  0  0  0
 13  9  1  0  0  0  0
 15 20  1  0  0  0  0
 16 11  1  0  0  0  0
 17  2  1  0  0  0  0
 19 18  1  6  0  0  0
 19  5  1  0  0  0  0
 19 25  1  0  0  0  0
 19 27  1  0  0  0  0
 20 16  2  0  0  0  0
 21  7  2  0  0  0  0
 21 13  1  0  0  0  0
 23 28  1  0  0  0  0
 25 27  1  0  0  0  0
 27  1  1  6  0  0  0
 27 21  1  0  0  0  0
 28 15  2  0  0  0  0
 29 30  1  0  0  0  0
 30 23  1  0  0  0  0
 31 30  2  0  0  0  0
 32 34  1  0  0  0  0
 33 35  1  0  0  0  0
 33 34  2  0  0  0  0
 34 31  1  0  0  0  0
 35 29  2  0  0  0  0
 36 37  1  0  0  0  0
M  END
>  <MODEL>
1

>  <REMARK>
 VINA RESULT:     -10.9      0.000      0.000
  Name = 
  2 active torsions:
  status: ('A' for Active; 'I' for Inactive)
    1  A    between atoms: N_4  and  C_37
    2  A    between atoms: C_23  and  C_30
                            x       y       z     vdW  Elec       q    Type
                         _______ _______ _______ _____ _____    ______ ____

>  <TORSDO>
F 2

$$$$
=
 OpenBabel11122411223D

 37 44  0  0  1  0  0  0  0  0999 V2000
  189.8170  176.9200  145.0960 C   0  0  0  0  0  2  0  0  0  0  0  0
  186.2320  178.6890  147.4060 C   0  0  0  0  0  0  0  0  0  0  0  0
  185.6640  178.3880  143.2860 C   0  0  0  0  0  0  0  0  0  0  0  0
  191.2730  176.9120  145.0380 N   0  0  0  0  0  0  0  0  0  0  0  0
  189.0290  178.2440  141.3630 C   0  0  0  0  0  2  0  0  0  0  0  0
  184.6090  178.4950  145.4610 C   0  0  0  0  0  0  0  0  0  0  0  0
  186.9550  178.2110  142.8400 C   0  0  0  0  0  0  0  0  0  0  0  0
  191.3710  175.7270  142.8460 C   0  0  2  0  0  3  0  0  0  0  0  0
  185.7190  178.3500  144.6510 C   0  0  0  0  0  0  0  0  0  0  0  0
  187.5120  178.2440  141.4760 C   0  0  0  0  0  0  0  0  0  0  0  0
  183.3640  178.6540  144.8320 C   0  0  0  0  0  3  0  0  0  0  0  0
  191.6870  175.6950  144.3470 C   0  0  0  0  0  2  0  0  0  0  0  0
  186.9620  178.1600  145.0970 N   0  0  0  0  0  0  0  0  0  0  0  0
  186.4070  178.1940  148.8260 C   0  0  0  0  0  1  0  0  0  0  0  0
  184.3200  178.4960  141.1720 C   0  0  0  0  0  3  0  0  0  0  0  0
  183.2890  178.6770  143.4180 C   0  0  0  0  0  3  0  0  0  0  0  0
  187.2950  178.0050  146.5130 C   0  0  0  0  0  2  0  0  0  0  0  0
  191.1880  177.1410  142.2890 C   0  0  0  0  0  2  0  0  0  0  0  0
  189.8120  177.7470  142.5880 C   0  0  1  0  0  0  0  0  0  0  0  0
  184.4520  178.5420  142.6250 C   0  0  0  0  0  0  0  0  0  0  0  0
  187.7280  178.0410  143.9880 C   0  0  0  0  0  0  0  0  0  0  0  0
  184.7830  178.3810  146.9510 C   0  0  0  0  0  2  0  0  0  0  0  0
  186.7660  178.3490  140.3420 C   0  0  0  0  0  0  0  0  0  0  0  0
  186.4580  180.1900  147.3960 C   0  0  0  0  0  1  0  0  0  0  0  0
  189.9680  178.8140  143.5100 O   0  0  0  0  0  0  0  0  0  0  0  0
  190.2640  174.9260  142.5610 O   0  0  0  0  0  1  0  0  0  0  0  0
  189.1900  177.7320  143.9520 C   0  0  1  0  0  0  0  0  0  0  0  0
  185.2830  178.4100  140.2530 C   0  0  0  0  0  3  0  0  0  0  0  0
  188.8110  178.5890  138.9300 C   0  0  0  0  0  3  0  0  0  0  0  0
  187.4230  178.4040  139.0160 C   0  0  0  0  0  0  0  0  0  0  0  0
  186.6790  178.2220  137.8390 C   0  0  0  0  0  3  0  0  0  0  0  0
  186.5870  178.0790  135.4620 F   0  0  0  0  0  0  0  0  0  0  0  0
  188.6930  178.4440  136.5160 C   0  0  0  0  0  3  0  0  0  0  0  0
  187.3120  178.2480  136.5940 C   0  0  0  0  0  0  0  0  0  0  0  0
  189.4440  178.6130  137.6840 C   0  0  0  0  0  3  0  0  0  0  0  0
  190.5740  176.7970  147.3630 C   0  0  0  0  0  1  0  0  0  0  0  0
  191.7510  176.7940  146.4050 C   0  0  0  0  0  2  0  0  0  0  0  0
  2 14  1  0  0  0  0
  3  9  1  0  0  0  0
  4  1  1  0  0  0  0
  4 37  1  0  0  0  0
  5 10  1  0  0  0  0
  6 22  1  0  0  0  0
  7  3  1  0  0  0  0
  7 21  2  0  0  0  0
  8 26  1  1  0  0  0
  8 12  1  0  0  0  0
  9 13  1  0  0  0  0
  9  6  2  0  0  0  0
 10  7  1  0  0  0  0
 11  6  1  0  0  0  0
 12  4  1  0  0  0  0
 13 17  1  0  0  0  0
 15 20  1  0  0  0  0
 16 11  2  0  0  0  0
 17  2  1  0  0  0  0
 18 19  1  0  0  0  0
 18  8  1  0  0  0  0
 19  5  1  6  0  0  0
 19 25  1  0  0  0  0
 19 27  1  0  0  0  0
 20  3  2  0  0  0  0
 20 16  1  0  0  0  0
 21 13  1  0  0  0  0
 22  2  1  0  0  0  0
 23 10  2  0  0  0  0
 24  2  1  0  0  0  0
 25 27  1  0  0  0  0
 27 21  1  0  0  0  0
 27  1  1  1  0  0  0
 28 23  1  0  0  0  0
 28 15  2  0  0  0  0
 29 30  1  0  0  0  0
 30 23  1  0  0  0  0
 31 30  2  0  0  0  0
 32 34  1  0  0  0  0
 33 34  2  0  0  0  0
 33 35  1  0  0  0  0
 34 31  1  0  0  0  0
 35 29  2  0  0  0  0
 37 36  1  0  0  0  0
M  END
>  <MODEL>
2

>  <REMARK>
 VINA RESULT:      -8.3      2.904      5.263
  Name = 
  2 active torsions:
  status: ('A' for Active; 'I' for Inactive)
    1  A    between atoms: N_4  and  C_37
    2  A    between atoms: C_23  and  C_30
                            x       y       z     vdW  Elec       q    Type
                         _______ _______ _______ _____ _____    ______ ____

>  <TORSDO>
F 2

$$$$
