=
 OpenBabel11122411573D

 28 32  0  0  1  0  0  0  0  0999 V2000
  181.0900  179.1560  137.5760 C   0  0  0  0  0  0  0  0  0  0  0  0
  185.4430  176.7400  138.3270 F   0  0  0  0  0  0  0  0  0  0  0  0
  180.7650  178.6280  142.3610 O   0  0  0  0  0  0  0  0  0  0  0  0
  181.5160  181.8070  138.3740 C   0  0  0  0  0  3  0  0  0  0  0  0
  183.1270  178.6320  141.9840 C   0  0  0  0  0  0  0  0  0  0  0  0
  180.8050  177.7320  137.2100 C   0  0  0  0  0  2  0  0  0  0  0  0
  185.8910  178.3330  136.8040 F   0  0  0  0  0  0  0  0  0  0  0  0
  185.7780  178.0750  138.1570 C   0  0  0  0  0  0  0  0  0  0  0  0
  186.9440  178.2440  140.3260 C   0  0  1  0  0  3  0  0  0  0  0  0
  184.7030  179.0090  138.7570 C   0  0  2  0  0  3  0  0  0  0  0  0
  178.9410  178.6070  139.8840 C   0  0  0  0  0  1  0  0  0  0  0  0
  183.0370  177.5800  139.8460 C   0  0  1  0  0  3  0  0  0  0  0  0
  186.1500  179.3190  140.7680 O   0  0  0  0  0  0  0  0  0  0  0  0
  187.1250  178.3210  138.8170 C   0  0  0  0  0  2  0  0  0  0  0  0
  179.4400  177.2670  139.3680 C   0  0  2  0  0  3  0  0  0  0  0  0
  182.2640  179.4910  138.2790 C   0  0  0  0  0  0  0  0  0  0  0  0
  181.7600  178.3760  141.6300 C   0  0  0  0  0  0  0  0  0  0  0  0
  188.1910  178.3050  140.9450 O   0  0  0  0  0  1  0  0  0  0  0  0
  180.6590  176.7100  140.1090 C   0  0  0  0  0  2  0  0  0  0  0  0
  182.4520  180.8210  138.6930 C   0  0  0  0  0  3  0  0  0  0  0  0
  180.1650  180.1540  137.2410 C   0  0  0  0  0  3  0  0  0  0  0  0
  180.3790  181.4760  137.6380 C   0  0  0  0  0  3  0  0  0  0  0  0
  179.5130  177.2030  137.8370 C   0  0  0  0  0  2  0  0  0  0  0  0
  184.0210  178.0760  140.9350 C   0  0  1  0  0  3  0  0  0  0  0  0
  181.6760  177.7260  140.3730 N   0  0  0  0  0  0  0  0  0  0  0  0
  184.8300  179.1800  140.2740 C   0  0  2  0  0  3  0  0  0  0  0  0
  183.5100  179.1940  143.0430 O   0  0  0  0  0  0  0  0  0  0  0  0
  183.3040  178.4240  138.5790 C   0  0  1  0  0  3  0  0  0  0  0  0
  1 16  1  0  0  0  0
  4 20  1  0  0  0  0
  5 27  2  0  0  0  0
  6  1  1  0  0  0  0
  6 23  1  0  0  0  0
  7  8  1  0  0  0  0
  8  2  1  0  0  0  0
  8 14  1  0  0  0  0
  9 13  1  0  0  0  0
  9 18  1  1  0  0  0
 10  8  1  1  0  0  0
 10 26  1  0  0  0  0
 12 25  1  1  0  0  0
 12 24  1  0  0  0  0
 14  9  1  0  0  0  0
 15 11  1  6  0  0  0
 15 19  1  0  0  0  0
 16 20  2  0  0  0  0
 17  5  1  0  0  0  0
 17  3  2  0  0  0  0
 19 25  1  0  0  0  0
 21  1  2  0  0  0  0
 21 22  1  0  0  0  0
 22  4  2  0  0  0  0
 23 15  1  0  0  0  0
 24  5  1  1  0  0  0
 25 17  1  0  0  0  0
 26 13  1  6  0  0  0
 26 24  1  0  0  0  0
 28 16  1  1  0  0  0
 28 10  1  0  0  0  0
 28 12  1  0  0  0  0
M  END
>  <MODEL>
1

>  <REMARK>
 VINA RESULT:      -6.1      0.000      0.000
  Name = 
  0 active torsions:
  status: ('A' for Active; 'I' for Inactive)
                            x       y       z     vdW  Elec       q    Type
                         _______ _______ _______ _____ _____    ______ ____

>  <TORSDO>
F 0

$$$$
=
 OpenBabel11122411573D

 28 32  0  0  1  0  0  0  0  0999 V2000
  189.3280  178.2910  138.3000 C   0  0  0  0  0  0  0  0  0  0  0  0
  192.4860  176.2400  134.9580 F   0  0  0  0  0  0  0  0  0  0  0  0
  186.6760  174.4340  137.1280 O   0  0  0  0  0  0  0  0  0  0  0  0
  189.5990  176.7970  140.6550 C   0  0  0  0  0  3  0  0  0  0  0  0
  188.9120  173.6940  136.7050 C   0  0  0  0  0  0  0  0  0  0  0  0
  189.1040  179.0640  137.0380 C   0  0  0  0  0  2  0  0  0  0  0  0
  193.7830  176.9830  136.6380 F   0  0  0  0  0  0  0  0  0  0  0  0
  193.0030  175.9270  136.2050 C   0  0  0  0  0  0  0  0  0  0  0  0
  192.9870  173.4930  135.8000 C   0  0  1  0  0  3  0  0  0  0  0  0
  191.8810  175.6780  137.2380 C   0  0  2  0  0  3  0  0  0  0  0  0
  186.2860  177.3960  137.8590 C   0  0  0  0  0  1  0  0  0  0  0  0
  189.7520  175.8210  136.0320 C   0  0  1  0  0  3  0  0  0  0  0  0
  192.2000  173.2210  136.9350 O   0  0  0  0  0  0  0  0  0  0  0  0
  193.8810  174.6940  136.0670 C   0  0  0  0  0  2  0  0  0  0  0  0
  186.8240  177.9270  136.5390 C   0  0  2  0  0  3  0  0  0  0  0  0
  190.0450  177.0780  138.2760 C   0  0  0  0  0  0  0  0  0  0  0  0
  187.8670  174.6750  136.7910 C   0  0  0  0  0  0  0  0  0  0  0  0
  193.7770  172.3820  135.5080 O   0  0  0  0  0  1  0  0  0  0  0  0
  187.4650  176.8670  135.6380 C   0  0  0  0  0  2  0  0  0  0  0  0
  190.1520  176.3290  139.4610 C   0  0  0  0  0  3  0  0  0  0  0  0
  188.7950  178.7660  139.5060 C   0  0  0  0  0  3  0  0  0  0  0  0
  188.9310  178.0210  140.6800 C   0  0  0  0  0  3  0  0  0  0  0  0
  187.6200  179.2280  136.6960 C   0  0  0  0  0  2  0  0  0  0  0  0
  190.1350  174.3240  136.1440 C   0  0  1  0  0  3  0  0  0  0  0  0
  188.3310  175.9460  136.3720 N   0  0  0  0  0  0  0  0  0  0  0  0
  191.2770  174.2730  137.1460 C   0  0  2  0  0  3  0  0  0  0  0  0
  188.7930  172.4770  137.0080 O   0  0  0  0  0  0  0  0  0  0  0  0
  190.6880  176.5980  136.9860 C   0  0  1  0  0  3  0  0  0  0  0  0
  1 21  1  0  0  0  0
  2  8  1  0  0  0  0
  4 22  1  0  0  0  0
  5 17  1  0  0  0  0
  5 27  2  0  0  0  0
  6  1  1  0  0  0  0
  8  7  1  0  0  0  0
  9 18  1  1  0  0  0
  9 14  1  0  0  0  0
  9 13  1  0  0  0  0
 10  8  1  6  0  0  0
 12 24  1  0  0  0  0
 12 25  1  1  0  0  0
 12 28  1  0  0  0  0
 14  8  1  0  0  0  0
 15 23  1  0  0  0  0
 15 11  1  1  0  0  0
 16  1  2  0  0  0  0
 16 20  1  0  0  0  0
 17  3  2  0  0  0  0
 19 25  1  0  0  0  0
 19 15  1  0  0  0  0
 20  4  2  0  0  0  0
 21 22  2  0  0  0  0
 23  6  1  0  0  0  0
 24  5  1  1  0  0  0
 24 26  1  0  0  0  0
 25 17  1  0  0  0  0
 26 13  1  6  0  0  0
 26 10  1  0  0  0  0
 28 10  1  0  0  0  0
 28 16  1  1  0  0  0
M  END
>  <MODEL>
2

>  <REMARK>
 VINA RESULT:      -6.1      5.860      8.629
  Name = 
  0 active torsions:
  status: ('A' for Active; 'I' for Inactive)
                            x       y       z     vdW  Elec       q    Type
                         _______ _______ _______ _____ _____    ______ ____

>  <TORSDO>
F 0

$$$$
=
 OpenBabel11122411573D

 28 32  0  0  1  0  0  0  0  0999 V2000
  182.0450  175.6540  136.2330 C   0  0  0  0  0  0  0  0  0  0  0  0
  186.8630  175.3870  137.6670 F   0  0  0  0  0  0  0  0  0  0  0  0
  181.9350  179.0670  139.6420 O   0  0  0  0  0  0  0  0  0  0  0  0
  181.8320  177.9320  134.6160 C   0  0  0  0  0  3  0  0  0  0  0  0
  184.2200  179.0920  138.9350 C   0  0  0  0  0  0  0  0  0  0  0  0
  182.1050  174.4720  137.1510 C   0  0  0  0  0  2  0  0  0  0  0  0
  186.8890  175.2030  135.4270 F   0  0  0  0  0  0  0  0  0  0  0  0
  186.8640  176.1000  136.4780 C   0  0  0  0  0  0  0  0  0  0  0  0
  187.9900  178.0690  137.4480 C   0  0  1  0  0  3  0  0  0  0  0  0
  185.6060  176.9870  136.3480 C   0  0  2  0  0  3  0  0  0  0  0  0
  180.1290  176.8540  138.5000 C   0  0  0  0  0  1  0  0  0  0  0  0
  184.3510  176.7620  138.4410 C   0  0  1  0  0  3  0  0  0  0  0  0
  186.9680  178.9550  137.0590 O   0  0  0  0  0  0  0  0  0  0  0  0
  188.1220  176.9500  136.4260 C   0  0  0  0  0  2  0  0  0  0  0  0
  180.9280  175.7100  139.1050 C   0  0  2  0  0  3  0  0  0  0  0  0
  183.1150  176.5690  136.1750 C   0  0  0  0  0  0  0  0  0  0  0  0
  182.9490  178.4730  139.1860 C   0  0  0  0  0  0  0  0  0  0  0  0
  189.1950  178.7630  137.5340 O   0  0  0  0  0  1  0  0  0  0  0  0
  182.2580  176.1260  139.7420 C   0  0  0  0  0  2  0  0  0  0  0  0
  182.9830  177.7180  135.3760 C   0  0  0  0  0  3  0  0  0  0  0  0
  180.9010  175.8630  135.4500 C   0  0  0  0  0  3  0  0  0  0  0  0
  180.7960  176.9980  134.6430 C   0  0  0  0  0  3  0  0  0  0  0  0
  180.9890  174.4750  138.1990 C   0  0  0  0  0  2  0  0  0  0  0  0
  185.2040  178.0520  138.5350 C   0  0  1  0  0  3  0  0  0  0  0  0
  183.0040  177.0810  138.9260 N   0  0  0  0  0  0  0  0  0  0  0  0
  185.7130  178.3040  137.1250 C   0  0  2  0  0  3  0  0  0  0  0  0
  184.4740  180.3160  139.0810 O   0  0  0  0  0  0  0  0  0  0  0  0
  184.3850  176.3060  136.9650 C   0  0  1  0  0  3  0  0  0  0  0  0
  1  6  1  0  0  0  0
  4 22  2  0  0  0  0
  4 20  1  0  0  0  0
  5 27  2  0  0  0  0
  5 17  1  0  0  0  0
  6 23  1  0  0  0  0
  7  8  1  0  0  0  0
  8  2  1  0  0  0  0
  9 18  1  6  0  0  0
 10  8  1  1  0  0  0
 10 28  1  0  0  0  0
 10 26  1  0  0  0  0
 12 24  1  0  0  0  0
 12 25  1  6  0  0  0
 13  9  1  0  0  0  0
 14  8  1  0  0  0  0
 14  9  1  0  0  0  0
 15 11  1  6  0  0  0
 15 19  1  0  0  0  0
 16  1  1  0  0  0  0
 17  3  2  0  0  0  0
 20 16  2  0  0  0  0
 21  1  2  0  0  0  0
 22 21  1  0  0  0  0
 23 15  1  0  0  0  0
 24  5  1  6  0  0  0
 25 17  1  0  0  0  0
 25 19  1  0  0  0  0
 26 13  1  1  0  0  0
 26 24  1  0  0  0  0
 28 16  1  6  0  0  0
 28 12  1  0  0  0  0
M  END
>  <MODEL>
3

>  <REMARK>
 VINA RESULT:      -5.2      2.476      3.422
  Name = 
  0 active torsions:
  status: ('A' for Active; 'I' for Inactive)
                            x       y       z     vdW  Elec       q    Type
                         _______ _______ _______ _____ _____    ______ ____

>  <TORSDO>
F 0

$$$$
=
 OpenBabel11122411573D

 28 32  0  0  1  0  0  0  0  0999 V2000
  179.7880  179.1290  136.9860 C   0  0  0  0  0  0  0  0  0  0  0  0
  181.2660  174.6460  138.7360 F   0  0  0  0  0  0  0  0  0  0  0  0
  183.9670  180.5090  138.9650 O   0  0  0  0  0  0  0  0  0  0  0  0
  181.2810  179.5960  134.6620 C   0  0  0  0  0  3  0  0  0  0  0  0
  184.3570  178.2060  138.4460 C   0  0  0  0  0  0  0  0  0  0  0  0
  179.0260  178.9470  138.2630 C   0  0  0  0  0  2  0  0  0  0  0  0
  180.3790  174.2420  136.7100 F   0  0  0  0  0  0  0  0  0  0  0  0
  181.5290  174.6240  137.3750 C   0  0  0  0  0  0  0  0  0  0  0  0
  183.9280  174.1230  137.6640 C   0  0  1  0  0  3  0  0  0  0  0  0
  181.9660  176.0130  136.8600 C   0  0  2  0  0  3  0  0  0  0  0  0
  181.1140  181.5840  138.5570 C   0  0  0  0  0  1  0  0  0  0  0  0
  182.1120  177.4890  138.8110 C   0  0  1  0  0  3  0  0  0  0  0  0
  184.3410  175.2460  136.9220 O   0  0  0  0  0  0  0  0  0  0  0  0
  182.6140  173.5930  137.1110 C   0  0  0  0  0  2  0  0  0  0  0  0
  180.4780  180.6520  139.5760 C   0  0  2  0  0  3  0  0  0  0  0  0
  180.8800  178.2930  136.6810 C   0  0  0  0  0  0  0  0  0  0  0  0
  183.5440  179.3320  138.8140 C   0  0  0  0  0  0  0  0  0  0  0  0
  184.9010  173.1290  137.5790 O   0  0  0  0  0  1  0  0  0  0  0  0
  181.4090  179.5600  140.1130 C   0  0  0  0  0  2  0  0  0  0  0  0
  181.6330  178.5540  135.5230 C   0  0  0  0  0  3  0  0  0  0  0  0
  179.4270  180.1590  136.1070 C   0  0  0  0  0  3  0  0  0  0  0  0
  180.1710  180.3900  134.9480 C   0  0  0  0  0  3  0  0  0  0  0  0
  179.0770  180.1820  139.1670 C   0  0  0  0  0  2  0  0  0  0  0  0
  183.5380  176.9680  138.5020 C   0  0  1  0  0  3  0  0  0  0  0  0
  182.2080  178.9300  139.0630 N   0  0  0  0  0  0  0  0  0  0  0  0
  183.4430  176.3200  137.1300 C   0  0  2  0  0  3  0  0  0  0  0  0
  185.5840  178.2560  138.1690 O   0  0  0  0  0  0  0  0  0  0  0  0
  181.2280  177.1310  137.5950 C   0  0  1  0  0  3  0  0  0  0  0  0
  1  6  1  0  0  0  0
  4 22  2  0  0  0  0
  4 20  1  0  0  0  0
  5 17  1  0  0  0  0
  6 23  1  0  0  0  0
  7  8  1  0  0  0  0
  8  2  1  0  0  0  0
  9 18  1  6  0  0  0
 10 26  1  0  0  0  0
 10  8  1  1  0  0  0
 10 28  1  0  0  0  0
 12 25  1  6  0  0  0
 13  9  1  0  0  0  0
 14  8  1  0  0  0  0
 14  9  1  0  0  0  0
 15 11  1  6  0  0  0
 15 19  1  0  0  0  0
 16  1  1  0  0  0  0
 17  3  2  0  0  0  0
 17 25  1  0  0  0  0
 20 16  2  0  0  0  0
 21  1  2  0  0  0  0
 22 21  1  0  0  0  0
 23 15  1  0  0  0  0
 24  5  1  6  0  0  0
 24 12  1  0  0  0  0
 25 19  1  0  0  0  0
 26 13  1  1  0  0  0
 26 24  1  0  0  0  0
 27  5  2  0  0  0  0
 28 16  1  6  0  0  0
 28 12  1  0  0  0  0
M  END
>  <MODEL>
4

>  <REMARK>
 VINA RESULT:      -5.1      3.059      4.261
  Name = 
  0 active torsions:
  status: ('A' for Active; 'I' for Inactive)
                            x       y       z     vdW  Elec       q    Type
                         _______ _______ _______ _____ _____    ______ ____

>  <TORSDO>
F 0

$$$$
=
 OpenBabel11122411573D

 28 32  0  0  1  0  0  0  0  0999 V2000
  180.6190  177.5280  137.8800 C   0  0  0  0  0  0  0  0  0  0  0  0
  183.9240  173.8430  136.9590 F   0  0  0  0  0  0  0  0  0  0  0  0
  184.5860  179.7420  139.5060 O   0  0  0  0  0  0  0  0  0  0  0  0
  180.9700  179.4230  135.8460 C   0  0  0  0  0  3  0  0  0  0  0  0
  185.4540  178.2150  137.8810 C   0  0  0  0  0  0  0  0  0  0  0  0
  180.4550  176.5730  139.0210 C   0  0  0  0  0  2  0  0  0  0  0  0
  182.5470  173.8780  135.1820 F   0  0  0  0  0  0  0  0  0  0  0  0
  183.6800  174.4440  135.7340 C   0  0  0  0  0  0  0  0  0  0  0  0
  186.0550  174.9700  135.3170 C   0  0  1  0  0  3  0  0  0  0  0  0
  183.4560  175.9650  135.8850 C   0  0  2  0  0  3  0  0  0  0  0  0
  181.5910  179.5340  140.1770 C   0  0  0  0  0  1  0  0  0  0  0  0
  183.8230  176.5140  138.2450 C   0  0  1  0  0  3  0  0  0  0  0  0
  185.8120  176.3460  135.1490 O   0  0  0  0  0  0  0  0  0  0  0  0
  184.8620  174.1690  134.8190 C   0  0  0  0  0  2  0  0  0  0  0  0
  181.6770  178.1150  140.7150 C   0  0  2  0  0  3  0  0  0  0  0  0
  181.7330  177.4300  137.0220 C   0  0  0  0  0  0  0  0  0  0  0  0
  184.5210  178.6480  138.8830 C   0  0  0  0  0  0  0  0  0  0  0  0
  187.1900  174.6090  134.5940 O   0  0  0  0  0  1  0  0  0  0  0  0
  183.0250  177.4250  140.4840 C   0  0  0  0  0  2  0  0  0  0  0  0
  181.9070  178.4020  136.0210 C   0  0  0  0  0  3  0  0  0  0  0  0
  179.6720  178.5420  137.6850 C   0  0  0  0  0  3  0  0  0  0  0  0
  179.8470  179.4860  136.6700 C   0  0  0  0  0  3  0  0  0  0  0  0
  180.4400  177.2720  140.3840 C   0  0  0  0  0  2  0  0  0  0  0  0
  185.1330  176.8220  137.4770 C   0  0  1  0  0  3  0  0  0  0  0  0
  183.5530  177.6450  139.1390 N   0  0  0  0  0  0  0  0  0  0  0  0
  184.7620  176.7590  136.0040 C   0  0  2  0  0  3  0  0  0  0  0  0
  186.4240  178.8930  137.4510 O   0  0  0  0  0  0  0  0  0  0  0  0
  182.7220  176.2880  137.1840 C   0  0  1  0  0  3  0  0  0  0  0  0
  1  6  1  0  0  0  0
  4 20  2  0  0  0  0
  4 22  1  0  0  0  0
  5 17  1  0  0  0  0
  6 23  1  0  0  0  0
  7  8  1  0  0  0  0
  8  2  1  0  0  0  0
  9 18  1  6  0  0  0
 10  8  1  1  0  0  0
 10 26  1  0  0  0  0
 10 28  1  0  0  0  0
 12 25  1  1  0  0  0
 13  9  1  0  0  0  0
 14  9  1  0  0  0  0
 14  8  1  0  0  0  0
 15 11  1  6  0  0  0
 16  1  2  0  0  0  0
 17 25  1  0  0  0  0
 17  3  2  0  0  0  0
 19 15  1  0  0  0  0
 20 16  1  0  0  0  0
 21  1  1  0  0  0  0
 22 21  2  0  0  0  0
 23 15  1  0  0  0  0
 24  5  1  1  0  0  0
 24 12  1  0  0  0  0
 25 19  1  0  0  0  0
 26 13  1  6  0  0  0
 26 24  1  0  0  0  0
 27  5  2  0  0  0  0
 28 16  1  6  0  0  0
 28 12  1  0  0  0  0
M  END
>  <MODEL>
5

>  <REMARK>
 VINA RESULT:      -5.1      3.106      4.195
  Name = 
  0 active torsions:
  status: ('A' for Active; 'I' for Inactive)
                            x       y       z     vdW  Elec       q    Type
                         _______ _______ _______ _____ _____    ______ ____

>  <TORSDO>
F 0

$$$$
=
 OpenBabel11122411573D

 28 32  0  0  1  0  0  0  0  0999 V2000
  180.4850  177.7230  139.4570 C   0  0  0  0  0  0  0  0  0  0  0  0
  182.1730  180.1320  143.5430 F   0  0  0  0  0  0  0  0  0  0  0  0
  184.7590  179.1240  137.7100 O   0  0  0  0  0  0  0  0  0  0  0  0
  181.8060  175.2530  139.4000 C   0  0  0  0  0  3  0  0  0  0  0  0
  185.1610  178.9960  140.0650 C   0  0  0  0  0  0  0  0  0  0  0  0
  179.8160  179.0620  139.4140 C   0  0  0  0  0  2  0  0  0  0  0  0
  181.1590  178.2770  144.3100 F   0  0  0  0  0  0  0  0  0  0  0  0
  182.3430  178.7810  143.8050 C   0  0  0  0  0  0  0  0  0  0  0  0
  184.7660  178.9830  144.2260 C   0  0  1  0  0  3  0  0  0  0  0  0
  182.7150  177.9980  142.5270 C   0  0  2  0  0  3  0  0  0  0  0  0
  181.8630  178.7350  136.7500 C   0  0  0  0  0  1  0  0  0  0  0  0
  182.9620  179.6410  140.7250 C   0  0  1  0  0  3  0  0  0  0  0  0
  185.1040  178.0260  143.2500 O   0  0  0  0  0  0  0  0  0  0  0  0
  183.4290  178.6280  144.8570 C   0  0  0  0  0  2  0  0  0  0  0  0
  181.3170  179.9460  137.4900 C   0  0  2  0  0  3  0  0  0  0  0  0
  181.5710  177.4940  140.3250 C   0  0  0  0  0  0  0  0  0  0  0  0
  184.3520  179.2150  138.8990 C   0  0  0  0  0  0  0  0  0  0  0  0
  185.7520  179.0080  145.2100 O   0  0  0  0  0  1  0  0  0  0  0  0
  182.3060  180.6000  138.4610 C   0  0  0  0  0  2  0  0  0  0  0  0
  182.2380  176.2580  140.2680 C   0  0  0  0  0  3  0  0  0  0  0  0
  180.0430  176.7020  138.6040 C   0  0  0  0  0  3  0  0  0  0  0  0
  180.7020  175.4710  138.5770 C   0  0  0  0  0  3  0  0  0  0  0  0
  179.9020  179.7270  138.0380 C   0  0  0  0  0  2  0  0  0  0  0  0
  184.3750  179.3290  141.2810 C   0  0  1  0  0  3  0  0  0  0  0  0
  183.0440  179.6260  139.2610 N   0  0  0  0  0  0  0  0  0  0  0  0
  184.2000  178.1040  142.1630 C   0  0  2  0  0  3  0  0  0  0  0  0
  186.3650  178.6280  140.0540 O   0  0  0  0  0  0  0  0  0  0  0  0
  182.0060  178.5730  141.3020 C   0  0  1  0  0  3  0  0  0  0  0  0
  1 16  1  0  0  0  0
  2  8  1  0  0  0  0
  3 17  2  0  0  0  0
  4 20  1  0  0  0  0
  6  1  1  0  0  0  0
  8  7  1  0  0  0  0
  8 14  1  0  0  0  0
  9 14  1  0  0  0  0
  9 18  1  1  0  0  0
 10  8  1  1  0  0  0
 12 25  1  6  0  0  0
 12 24  1  0  0  0  0
 12 28  1  0  0  0  0
 13  9  1  0  0  0  0
 15 11  1  1  0  0  0
 15 23  1  0  0  0  0
 15 19  1  0  0  0  0
 17 25  1  0  0  0  0
 17  5  1  0  0  0  0
 19 25  1  0  0  0  0
 20 16  2  0  0  0  0
 21  1  2  0  0  0  0
 22 21  1  0  0  0  0
 22  4  2  0  0  0  0
 23  6  1  0  0  0  0
 24  5  1  6  0  0  0
 24 26  1  0  0  0  0
 26 10  1  0  0  0  0
 26 13  1  1  0  0  0
 27  5  2  0  0  0  0
 28 16  1  6  0  0  0
 28 10  1  0  0  0  0
M  END
>  <MODEL>
6

>  <REMARK>
 VINA RESULT:      -5.1      2.565      4.636
  Name = 
  0 active torsions:
  status: ('A' for Active; 'I' for Inactive)
                            x       y       z     vdW  Elec       q    Type
                         _______ _______ _______ _____ _____    ______ ____

>  <TORSDO>
F 0

$$$$
=
 OpenBabel11122411573D

 28 32  0  0  1  0  0  0  0  0999 V2000
  182.6630  177.7760  137.0320 C   0  0  0  0  0  0  0  0  0  0  0  0
  187.2380  177.8440  134.9320 F   0  0  0  0  0  0  0  0  0  0  0  0
  183.5500  173.0350  137.1670 O   0  0  0  0  0  0  0  0  0  0  0  0
  183.0670  177.4490  139.7850 C   0  0  0  0  0  3  0  0  0  0  0  0
  185.7430  173.9910  137.2180 C   0  0  0  0  0  0  0  0  0  0  0  0
  182.4060  177.8780  135.5600 C   0  0  0  0  0  2  0  0  0  0  0  0
  187.1800  179.6180  136.3130 F   0  0  0  0  0  0  0  0  0  0  0  0
  187.4200  178.2590  136.2430 C   0  0  0  0  0  0  0  0  0  0  0  0
  189.0610  176.4910  136.7640 C   0  0  1  0  0  3  0  0  0  0  0  0
  186.4550  177.5310  137.2050 C   0  0  2  0  0  3  0  0  0  0  0  0
  181.1870  174.9520  136.7220 C   0  0  0  0  0  1  0  0  0  0  0  0
  185.2160  175.8880  135.8740 C   0  0  1  0  0  3  0  0  0  0  0  0
  188.3190  176.0020  137.8560 O   0  0  0  0  0  0  0  0  0  0  0  0
  188.8630  177.9940  136.6360 C   0  0  0  0  0  2  0  0  0  0  0  0
  181.6450  175.4050  135.3450 C   0  0  2  0  0  3  0  0  0  0  0  0
  183.9440  177.4380  137.5120 C   0  0  0  0  0  0  0  0  0  0  0  0
  184.3530  173.9550  136.8580 C   0  0  0  0  0  0  0  0  0  0  0  0
  190.4120  176.2160  136.9640 O   0  0  0  0  0  1  0  0  0  0  0  0
  183.0470  174.9300  134.9490 C   0  0  0  0  0  2  0  0  0  0  0  0
  184.1250  177.2550  138.8940 C   0  0  0  0  0  3  0  0  0  0  0  0
  181.6110  177.9910  137.9330 C   0  0  0  0  0  3  0  0  0  0  0  0
  181.8140  177.8290  139.3050 C   0  0  0  0  0  3  0  0  0  0  0  0
  181.3490  176.8850  135.0700 C   0  0  0  0  0  2  0  0  0  0  0  0
  186.3940  175.1520  136.5590 C   0  0  1  0  0  3  0  0  0  0  0  0
  184.0170  175.0590  136.0350 N   0  0  0  0  0  0  0  0  0  0  0  0
  186.9330  176.1270  137.5930 C   0  0  2  0  0  3  0  0  0  0  0  0
  186.3280  173.1400  137.9400 O   0  0  0  0  0  0  0  0  0  0  0  0
  185.1020  177.2770  136.5430 C   0  0  1  0  0  3  0  0  0  0  0  0
  1 16  2  0  0  0  0
  1 21  1  0  0  0  0
  2  8  1  0  0  0  0
  5 27  2  0  0  0  0
  6  1  1  0  0  0  0
  8  7  1  0  0  0  0
  8 14  1  0  0  0  0
  9 18  1  1  0  0  0
  9 13  1  0  0  0  0
 10  8  1  6  0  0  0
 10 26  1  0  0  0  0
 12 25  1  1  0  0  0
 12 28  1  0  0  0  0
 12 24  1  0  0  0  0
 14  9  1  0  0  0  0
 15 11  1  1  0  0  0
 16 20  1  0  0  0  0
 17  3  2  0  0  0  0
 17  5  1  0  0  0  0
 19 15  1  0  0  0  0
 19 25  1  0  0  0  0
 20  4  2  0  0  0  0
 21 22  2  0  0  0  0
 22  4  1  0  0  0  0
 23 15  1  0  0  0  0
 23  6  1  0  0  0  0
 24  5  1  1  0  0  0
 24 26  1  0  0  0  0
 25 17  1  0  0  0  0
 26 13  1  6  0  0  0
 28 10  1  0  0  0  0
 28 16  1  1  0  0  0
M  END
>  <MODEL>
7

>  <REMARK>
 VINA RESULT:      -4.9      3.448      4.807
  Name = 
  0 active torsions:
  status: ('A' for Active; 'I' for Inactive)
                            x       y       z     vdW  Elec       q    Type
                         _______ _______ _______ _____ _____    ______ ____

>  <TORSDO>
F 0

$$$$
=
 OpenBabel11122411573D

 28 32  0  0  1  0  0  0  0  0999 V2000
  182.5750  177.9070  136.6530 C   0  0  0  0  0  0  0  0  0  0  0  0
  184.6180  177.4870  141.2350 F   0  0  0  0  0  0  0  0  0  0  0  0
  178.9370  175.5910  138.8160 O   0  0  0  0  0  0  0  0  0  0  0  0
  180.7140  179.9950  136.8120 C   0  0  0  0  0  3  0  0  0  0  0  0
  179.9940  176.7380  140.6300 C   0  0  0  0  0  0  0  0  0  0  0  0
  183.5080  176.7400  136.5500 C   0  0  0  0  0  2  0  0  0  0  0  0
  185.1540  179.5510  140.5220 F   0  0  0  0  0  0  0  0  0  0  0  0
  184.1740  178.7980  141.1400 C   0  0  0  0  0  0  0  0  0  0  0  0
  182.7370  178.6460  143.1400 C   0  0  1  0  0  3  0  0  0  0  0  0
  182.8720  178.8950  140.3140 C   0  0  2  0  0  3  0  0  0  0  0  0
  180.3320  175.6970  136.0770 C   0  0  0  0  0  1  0  0  0  0  0  0
  182.2060  176.6050  139.7500 C   0  0  1  0  0  3  0  0  0  0  0  0
  181.5780  179.0370  142.4440 O   0  0  0  0  0  0  0  0  0  0  0  0
  183.9550  179.3350  142.5440 C   0  0  0  0  0  2  0  0  0  0  0  0
  181.5920  174.9880  136.5450 C   0  0  2  0  0  3  0  0  0  0  0  0
  182.2210  178.4290  137.9130 C   0  0  0  0  0  0  0  0  0  0  0  0
  179.9680  176.0720  139.3580 C   0  0  0  0  0  0  0  0  0  0  0  0
  182.6130  179.0020  144.4820 O   0  0  0  0  0  1  0  0  0  0  0  0
  181.6810  174.7760  138.0600 C   0  0  0  0  0  2  0  0  0  0  0  0
  181.2680  179.4610  137.9770 C   0  0  0  0  0  3  0  0  0  0  0  0
  182.0320  178.4620  135.4860 C   0  0  0  0  0  3  0  0  0  0  0  0
  181.1040  179.5030  135.5660 C   0  0  0  0  0  3  0  0  0  0  0  0
  182.8650  175.5230  135.8790 C   0  0  0  0  0  2  0  0  0  0  0  0
  181.4010  177.0400  141.0000 C   0  0  1  0  0  3  0  0  0  0  0  0
  181.2750  175.9550  138.8220 N   0  0  0  0  0  0  0  0  0  0  0  0
  181.6180  178.5400  141.1200 C   0  0  2  0  0  3  0  0  0  0  0  0
  178.9850  176.9810  141.3430 O   0  0  0  0  0  0  0  0  0  0  0  0
  182.8650  177.8790  139.1740 C   0  0  1  0  0  3  0  0  0  0  0  0
  1 16  1  0  0  0  0
  3 17  2  0  0  0  0
  4 20  1  0  0  0  0
  5 27  2  0  0  0  0
  6  1  1  0  0  0  0
  7  8  1  0  0  0  0
  8  2  1  0  0  0  0
  8 14  1  0  0  0  0
  9 18  1  1  0  0  0
 10 26  1  0  0  0  0
 10  8  1  1  0  0  0
 12 25  1  6  0  0  0
 12 24  1  0  0  0  0
 13  9  1  0  0  0  0
 14  9  1  0  0  0  0
 15 11  1  1  0  0  0
 15 19  1  0  0  0  0
 16 20  2  0  0  0  0
 17  5  1  0  0  0  0
 19 25  1  0  0  0  0
 21 22  1  0  0  0  0
 21  1  2  0  0  0  0
 22  4  2  0  0  0  0
 23 15  1  0  0  0  0
 23  6  1  0  0  0  0
 24  5  1  6  0  0  0
 24 26  1  0  0  0  0
 25 17  1  0  0  0  0
 26 13  1  1  0  0  0
 28 16  1  6  0  0  0
 28 12  1  0  0  0  0
 28 10  1  0  0  0  0
M  END
>  <MODEL>
8

>  <REMARK>
 VINA RESULT:      -4.9      2.493      3.705
  Name = 
  0 active torsions:
  status: ('A' for Active; 'I' for Inactive)
                            x       y       z     vdW  Elec       q    Type
                         _______ _______ _______ _____ _____    ______ ____

>  <TORSDO>
F 0

$$$$
=
 OpenBabel11122411573D

 28 32  0  0  1  0  0  0  0  0999 V2000
  182.1430  178.1700  137.5490 C   0  0  0  0  0  0  0  0  0  0  0  0
  186.1460  177.2760  134.6290 F   0  0  0  0  0  0  0  0  0  0  0  0
  181.7520  173.3670  137.3010 O   0  0  0  0  0  0  0  0  0  0  0  0
  182.9090  177.4970  140.1590 C   0  0  0  0  0  3  0  0  0  0  0  0
  184.0950  173.7290  136.9800 C   0  0  0  0  0  0  0  0  0  0  0  0
  181.6760  178.4690  136.1590 C   0  0  0  0  0  2  0  0  0  0  0  0
  186.7960  178.8710  136.0750 F   0  0  0  0  0  0  0  0  0  0  0  0
  186.6510  177.5080  135.8990 C   0  0  0  0  0  0  0  0  0  0  0  0
  187.8290  175.3430  136.0210 C   0  0  1  0  0  3  0  0  0  0  0  0
  185.7060  176.9610  136.9930 C   0  0  2  0  0  3  0  0  0  0  0  0
  179.9410  175.8510  137.3960 C   0  0  0  0  0  1  0  0  0  0  0  0
  183.8680  175.8150  135.8460 C   0  0  1  0  0  3  0  0  0  0  0  0
  187.1810  174.9580  137.2100 O   0  0  0  0  0  0  0  0  0  0  0  0
  188.0180  176.8520  136.0010 C   0  0  0  0  0  2  0  0  0  0  0  0
  180.2610  176.3000  135.9790 C   0  0  2  0  0  3  0  0  0  0  0  0
  183.3510  177.4760  137.7630 C   0  0  0  0  0  0  0  0  0  0  0  0
  182.7050  174.0790  136.8870 C   0  0  0  0  0  0  0  0  0  0  0  0
  189.0730  174.7190  135.9490 O   0  0  0  0  0  1  0  0  0  0  0  0
  181.3980  175.5250  135.3060 C   0  0  0  0  0  2  0  0  0  0  0  0
  183.7090  177.1260  139.0760 C   0  0  0  0  0  3  0  0  0  0  0  0
  181.3550  178.5580  138.6420 C   0  0  0  0  0  3  0  0  0  0  0  0
  181.7380  178.2230  139.9420 C   0  0  0  0  0  3  0  0  0  0  0  0
  180.3250  177.8250  135.8330 C   0  0  0  0  0  2  0  0  0  0  0  0
  184.9090  174.7450  136.2630 C   0  0  1  0  0  3  0  0  0  0  0  0
  182.5380  175.3040  136.1930 N   0  0  0  0  0  0  0  0  0  0  0  0
  185.8550  175.4520  137.2200 C   0  0  2  0  0  3  0  0  0  0  0  0
  184.5470  172.6950  137.5390 O   0  0  0  0  0  0  0  0  0  0  0  0
  184.2430  177.1190  136.5870 C   0  0  1  0  0  3  0  0  0  0  0  0
  1 16  2  0  0  0  0
  1 21  1  0  0  0  0
  2  8  1  0  0  0  0
  5 27  2  0  0  0  0
  6  1  1  0  0  0  0
  8 14  1  0  0  0  0
  8  7  1  0  0  0  0
  9 18  1  1  0  0  0
  9 13  1  0  0  0  0
 10  8  1  6  0  0  0
 10 26  1  0  0  0  0
 12 25  1  1  0  0  0
 12 24  1  0  0  0  0
 12 28  1  0  0  0  0
 14  9  1  0  0  0  0
 15 11  1  1  0  0  0
 16 20  1  0  0  0  0
 17  5  1  0  0  0  0
 17  3  2  0  0  0  0
 19 15  1  0  0  0  0
 19 25  1  0  0  0  0
 20  4  2  0  0  0  0
 21 22  2  0  0  0  0
 22  4  1  0  0  0  0
 23 15  1  0  0  0  0
 23  6  1  0  0  0  0
 24  5  1  1  0  0  0
 24 26  1  0  0  0  0
 25 17  1  0  0  0  0
 26 13  1  6  0  0  0
 28 10  1  0  0  0  0
 28 16  1  1  0  0  0
M  END
>  <MODEL>
9

>  <REMARK>
 VINA RESULT:      -4.6      3.557      4.627
  Name = 
  0 active torsions:
  status: ('A' for Active; 'I' for Inactive)
                            x       y       z     vdW  Elec       q    Type
                         _______ _______ _______ _____ _____    ______ ____

>  <TORSDO>
F 0

$$$$
