=
 OpenBabel11122410423D

 32 38  0  0  1  0  0  0  0  0999 V2000
  188.1430  177.9290  136.6740 C   0  0  1  0  0  3  0  0  0  0  0  0
  187.9680  177.9280  141.9140 C   0  0  0  0  0  0  0  0  0  0  0  0
  183.2750  178.9470  142.7920 C   0  0  0  0  0  3  0  0  0  0  0  0
  183.4900  178.7980  144.1610 C   0  0  0  0  0  3  0  0  0  0  0  0
  189.4960  177.4390  143.8330 C   0  0  0  0  0  0  0  0  0  0  0  0
  189.6510  177.3090  145.2120 C   0  0  0  0  0  0  0  0  0  0  0  0
  188.5500  177.3540  139.5370 C   0  0  1  0  0  3  0  0  0  0  0  0
  186.4180  178.4110  140.0450 N   0  0  0  0  0  2  0  0  0  0  0  0
  189.0070  177.3060  147.4070 N   0  0  0  0  0  0  0  0  0  0  0  0
  186.9930  178.1610  137.6530 C   0  0  2  0  0  3  0  0  0  0  0  0
  184.3330  178.7730  141.8980 C   0  0  0  0  0  3  0  0  0  0  0  0
  186.6710  178.2760  141.4560 C   0  0  0  0  0  0  0  0  0  0  0  0
  185.6170  178.4460  142.3630 C   0  0  0  0  0  0  0  0  0  0  0  0
  187.1240  177.9640  144.2250 C   0  0  0  0  0  0  0  0  0  0  0  0
  190.4260  176.9720  147.4450 C   0  0  0  0  0  3  0  0  0  0  0  0
  189.5360  177.9500  137.3520 C   0  0  0  0  0  2  0  0  0  0  0  0
  187.5090  178.3790  139.0840 C   0  0  2  0  0  3  0  0  0  0  0  0
  190.8900  176.9660  145.9720 C   0  0  0  0  0  3  0  0  0  0  0  0
  189.6410  177.1360  138.5760 N   0  0  0  0  0  2  0  0  0  0  0  0
  187.2570  176.7660  137.0970 C   0  0  1  0  0  3  0  0  0  0  0  0
  184.7610  178.4740  144.6370 C   0  0  0  0  0  3  0  0  0  0  0  0
  185.8390  178.2930  143.7500 C   0  0  0  0  0  0  0  0  0  0  0  0
  187.3400  177.8180  145.6120 C   0  0  0  0  0  3  0  0  0  0  0  0
  189.0820  177.7810  140.8960 C   0  0  0  0  0  2  0  0  0  0  0  0
  190.6070  177.2300  143.0210 O   0  0  0  0  0  1  0  0  0  0  0  0
  188.1520  177.4230  148.5750 C   0  0  0  0  0  1  0  0  0  0  0  0
  188.2110  177.7760  143.3070 C   0  0  0  0  0  0  0  0  0  0  0  0
  188.6100  177.4930  146.0670 C   0  0  0  0  0  0  0  0  0  0  0  0
  186.2580  176.4710  135.9960 C   0  0  0  0  0  2  0  0  0  0  0  0
  184.9100  176.2390  136.5840 C   0  0  0  0  0  0  0  0  0  0  0  0
  183.8360  177.1180  136.2720 N   0  0  0  0  0  1  0  0  0  0  0  0
  184.7280  175.2840  137.3830 O   0  0  0  0  0  0  0  0  0  0  0  0
  1 20  1  0  0  0  0
  1 16  1  1  0  0  0
  1 10  1  0  0  0  0
  2 27  1  0  0  0  0
  3  4  1  0  0  0  0
  4 21  2  0  0  0  0
  5  6  1  0  0  0  0
  6 18  1  0  0  0  0
  6 28  2  0  0  0  0
  7 24  1  1  0  0  0
  8 12  1  0  0  0  0
  9 15  1  0  0  0  0
  9 26  1  0  0  0  0
 10 17  1  0  0  0  0
 11 13  1  0  0  0  0
 11  3  2  0  0  0  0
 12  2  2  0  0  0  0
 12 13  1  0  0  0  0
 13 22  2  0  0  0  0
 14 23  2  0  0  0  0
 16 19  1  0  0  0  0
 17  7  1  0  0  0  0
 17  8  1  0  0  0  0
 18 15  2  0  0  0  0
 19  7  1  0  0  0  0
 20 10  1  0  0  0  0
 22 14  1  0  0  0  0
 22 21  1  0  0  0  0
 23 28  1  0  0  0  0
 24  2  1  0  0  0  0
 25  5  1  0  0  0  0
 27  5  2  0  0  0  0
 27 14  1  0  0  0  0
 28  9  1  0  0  0  0
 29 30  1  0  0  0  0
 29 20  1  0  0  0  0
 30 32  2  0  0  0  0
 31 30  1  0  0  0  0
M  END
>  <MODEL>
1

>  <REMARK>
 VINA RESULT:     -11.1      0.000      0.000
  Name = 
  2 active torsions:
  status: ('A' for Active; 'I' for Inactive)
    1  A    between atoms: C_20  and  C_29
    2  A    between atoms: C_29  and  C_30
                            x       y       z     vdW  Elec       q    Type
                         _______ _______ _______ _____ _____    ______ ____

>  <TORSDO>
F 2

$$$$
=
 OpenBabel11122410423D

 32 38  0  0  1  0  0  0  0  0999 V2000
  189.8120  176.8800  136.7250 C   0  0  1  0  0  3  0  0  0  0  0  0
  189.1300  177.4420  141.8930 C   0  0  0  0  0  0  0  0  0  0  0  0
  184.4950  178.9470  142.1680 C   0  0  0  0  0  3  0  0  0  0  0  0
  184.5600  178.9240  143.5600 C   0  0  0  0  0  3  0  0  0  0  0  0
  190.4120  177.0270  144.0010 C   0  0  0  0  0  0  0  0  0  0  0  0
  190.4190  177.0290  145.3950 C   0  0  0  0  0  0  0  0  0  0  0  0
  189.8830  176.5750  139.6570 C   0  0  1  0  0  3  0  0  0  0  0  0
  187.8230  177.8590  139.8330 N   0  0  0  0  0  2  0  0  0  0  0  0
  189.5680  177.3110  147.4990 N   0  0  0  0  0  0  0  0  0  0  0  0
  188.6000  177.3110  137.5500 C   0  0  2  0  0  3  0  0  0  0  0  0
  185.6120  178.5900  141.4120 C   0  0  0  0  0  3  0  0  0  0  0  0
  187.9240  177.8500  141.2690 C   0  0  0  0  0  0  0  0  0  0  0  0
  186.8080  178.2040  142.0390 C   0  0  0  0  0  0  0  0  0  0  0  0
  188.0740  177.7920  144.0870 C   0  0  0  0  0  0  0  0  0  0  0  0
  190.9380  176.8630  147.7190 C   0  0  0  0  0  3  0  0  0  0  0  0
  191.1290  176.8520  137.5420 C   0  0  0  0  0  2  0  0  0  0  0  0
  188.9940  177.6320  139.0000 C   0  0  2  0  0  3  0  0  0  0  0  0
  191.5400  176.6630  146.3110 C   0  0  0  0  0  3  0  0  0  0  0  0
  191.0360  176.1650  138.8420 N   0  0  0  0  0  2  0  0  0  0  0  0
  188.7820  175.8480  137.1610 C   0  0  1  0  0  3  0  0  0  0  0  0
  185.7430  178.5430  144.1970 C   0  0  0  0  0  3  0  0  0  0  0  0
  186.8790  178.1790  143.4500 C   0  0  0  0  0  0  0  0  0  0  0  0
  188.1390  177.7740  145.4970 C   0  0  0  0  0  3  0  0  0  0  0  0
  190.3190  177.0940  141.0180 C   0  0  0  0  0  2  0  0  0  0  0  0
  191.5710  176.6400  143.3350 O   0  0  0  0  0  1  0  0  0  0  0  0
  188.6190  177.6220  148.5540 C   0  0  0  0  0  1  0  0  0  0  0  0
  189.2210  177.4170  143.3130 C   0  0  0  0  0  0  0  0  0  0  0  0
  189.3220  177.3900  146.1130 C   0  0  0  0  0  0  0  0  0  0  0  0
  187.8700  175.5270  135.9930 C   0  0  0  0  0  2  0  0  0  0  0  0
  186.4880  175.2730  136.4850 C   0  0  0  0  0  0  0  0  0  0  0  0
  186.1790  174.0490  137.1390 N   0  0  0  0  0  1  0  0  0  0  0  0
  185.5850  176.1280  136.2920 O   0  0  0  0  0  0  0  0  0  0  0  0
  1 20  1  0  0  0  0
  1 16  1  1  0  0  0
  1 10  1  0  0  0  0
  2 27  1  0  0  0  0
  3  4  1  0  0  0  0
  4 21  2  0  0  0  0
  5  6  1  0  0  0  0
  6 28  2  0  0  0  0
  6 18  1  0  0  0  0
  7 24  1  1  0  0  0
  8 12  1  0  0  0  0
  9 15  1  0  0  0  0
  9 26  1  0  0  0  0
 10 17  1  0  0  0  0
 11 13  1  0  0  0  0
 11  3  2  0  0  0  0
 12  2  2  0  0  0  0
 12 13  1  0  0  0  0
 13 22  2  0  0  0  0
 14 23  2  0  0  0  0
 16 19  1  0  0  0  0
 17  7  1  0  0  0  0
 17  8  1  0  0  0  0
 18 15  2  0  0  0  0
 19  7  1  0  0  0  0
 20 10  1  0  0  0  0
 22 14  1  0  0  0  0
 22 21  1  0  0  0  0
 23 28  1  0  0  0  0
 24  2  1  0  0  0  0
 25  5  1  0  0  0  0
 27  5  2  0  0  0  0
 27 14  1  0  0  0  0
 28  9  1  0  0  0  0
 29 30  1  0  0  0  0
 29 20  1  0  0  0  0
 30 31  1  0  0  0  0
 32 30  2  0  0  0  0
M  END
>  <MODEL>
2

>  <REMARK>
 VINA RESULT:     -10.4      1.314      1.504
  Name = 
  2 active torsions:
  status: ('A' for Active; 'I' for Inactive)
    1  A    between atoms: C_20  and  C_29
    2  A    between atoms: C_29  and  C_30
                            x       y       z     vdW  Elec       q    Type
                         _______ _______ _______ _____ _____    ______ ____

>  <TORSDO>
F 2

$$$$
=
 OpenBabel11122410423D

 32 38  0  0  1  0  0  0  0  0999 V2000
  180.7590  179.1160  139.3620 C   0  0  1  0  0  3  0  0  0  0  0  0
  185.5020  178.5110  141.5130 C   0  0  0  0  0  0  0  0  0  0  0  0
  184.4790  178.4950  146.2860 C   0  0  0  0  0  3  0  0  0  0  0  0
  185.8180  178.2420  146.5810 C   0  0  0  0  0  3  0  0  0  0  0  0
  187.8560  178.1230  140.7620 C   0  0  0  0  0  0  0  0  0  0  0  0
  189.1810  177.8770  141.1190 C   0  0  0  0  0  0  0  0  0  0  0  0
  183.5350  178.3230  139.9580 C   0  0  1  0  0  3  0  0  0  0  0  0
  183.1850  178.8830  142.3000 N   0  0  0  0  0  2  0  0  0  0  0  0
  190.9420  177.5090  142.5320 N   0  0  0  0  0  0  0  0  0  0  0  0
  181.2090  179.0120  140.8190 C   0  0  2  0  0  3  0  0  0  0  0  0
  184.0710  178.6280  144.9580 C   0  0  0  0  0  3  0  0  0  0  0  0
  184.5770  178.6470  142.5800 C   0  0  0  0  0  0  0  0  0  0  0  0
  184.9980  178.5090  143.9090 C   0  0  0  0  0  0  0  0  0  0  0  0
  187.2910  178.1300  143.1580 C   0  0  0  0  0  0  0  0  0  0  0  0
  191.5300  177.4570  141.1980 C   0  0  0  0  0  3  0  0  0  0  0  0
  181.9320  179.3340  138.3740 C   0  0  0  0  0  2  0  0  0  0  0  0
  182.7320  179.1690  140.9480 C   0  0  2  0  0  3  0  0  0  0  0  0
  190.3600  177.7020  140.2190 C   0  0  0  0  0  3  0  0  0  0  0  0
  183.0780  178.4280  138.5650 N   0  0  0  0  0  2  0  0  0  0  0  0
  180.7700  177.7630  140.0600 C   0  0  1  0  0  3  0  0  0  0  0  0
  186.7490  178.1220  145.5490 C   0  0  0  0  0  3  0  0  0  0  0  0
  186.3560  178.2520  144.2030 C   0  0  0  0  0  0  0  0  0  0  0  0
  188.6470  177.8790  143.4590 C   0  0  0  0  0  3  0  0  0  0  0  0
  185.0040  178.6950  140.0920 C   0  0  0  0  0  2  0  0  0  0  0  0
  187.5440  178.2250  139.4100 O   0  0  0  0  0  1  0  0  0  0  0  0
  191.6800  177.3300  143.7690 C   0  0  0  0  0  1  0  0  0  0  0  0
  186.8740  178.2590  141.7910 C   0  0  0  0  0  0  0  0  0  0  0  0
  189.5590  177.7600  142.4200 C   0  0  0  0  0  0  0  0  0  0  0  0
  179.3570  177.4010  140.4730 C   0  0  0  0  0  2  0  0  0  0  0  0
  179.2270  175.9230  140.5920 C   0  0  0  0  0  0  0  0  0  0  0  0
  179.3980  175.1000  139.4450 N   0  0  0  0  0  1  0  0  0  0  0  0
  178.9350  175.4040  141.7000 O   0  0  0  0  0  0  0  0  0  0  0  0
  1 16  1  6  0  0  0
  1 20  1  0  0  0  0
  1 10  1  0  0  0  0
  2 27  2  0  0  0  0
  2 12  1  0  0  0  0
  3  4  1  0  0  0  0
  5  6  2  0  0  0  0
  5 27  1  0  0  0  0
  6 28  1  0  0  0  0
  7 24  1  6  0  0  0
  7 17  1  0  0  0  0
  8 12  1  0  0  0  0
  9 26  1  0  0  0  0
 10 17  1  0  0  0  0
 11  3  2  0  0  0  0
 12 13  2  0  0  0  0
 13 22  1  0  0  0  0
 13 11  1  0  0  0  0
 14 23  1  0  0  0  0
 14 22  2  0  0  0  0
 15  9  1  0  0  0  0
 16 19  1  0  0  0  0
 17  8  1  0  0  0  0
 18  6  1  0  0  0  0
 18 15  2  0  0  0  0
 19  7  1  0  0  0  0
 20 29  1  0  0  0  0
 20 10  1  0  0  0  0
 21  4  2  0  0  0  0
 22 21  1  0  0  0  0
 24  2  1  0  0  0  0
 25  5  1  0  0  0  0
 27 14  1  0  0  0  0
 28  9  1  0  0  0  0
 28 23  2  0  0  0  0
 29 30  1  0  0  0  0
 30 32  2  0  0  0  0
 31 30  1  0  0  0  0
M  END
>  <MODEL>
3

>  <REMARK>
 VINA RESULT:      -9.8      3.065      5.084
  Name = 
  2 active torsions:
  status: ('A' for Active; 'I' for Inactive)
    1  A    between atoms: C_20  and  C_29
    2  A    between atoms: C_29  and  C_30
                            x       y       z     vdW  Elec       q    Type
                         _______ _______ _______ _____ _____    ______ ____

>  <TORSDO>
F 2

$$$$
=
 OpenBabel11122410423D

 32 38  0  0  1  0  0  0  0  0999 V2000
  185.2630  178.6270  137.1450 C   0  0  1  0  0  3  0  0  0  0  0  0
  187.2230  178.1060  141.9800 C   0  0  0  0  0  0  0  0  0  0  0  0
  183.3190  178.9740  144.7790 C   0  0  0  0  0  3  0  0  0  0  0  0
  184.0650  178.6930  145.9220 C   0  0  0  0  0  3  0  0  0  0  0  0
  189.3830  177.4490  143.0580 C   0  0  0  0  0  0  0  0  0  0  0  0
  190.0790  177.1850  144.2370 C   0  0  0  0  0  0  0  0  0  0  0  0
  186.7770  177.7770  139.5280 C   0  0  1  0  0  3  0  0  0  0  0  0
  185.0650  178.7520  140.9550 N   0  0  0  0  0  2  0  0  0  0  0  0
  190.3780  176.9560  146.4930 N   0  0  0  0  0  0  0  0  0  0  0  0
  184.6150  178.7470  138.5240 C   0  0  2  0  0  3  0  0  0  0  0  0
  183.9190  178.9020  143.5200 C   0  0  0  0  0  3  0  0  0  0  0  0
  185.8630  178.4810  142.1220 C   0  0  0  0  0  0  0  0  0  0  0  0
  185.2710  178.5470  143.3910 C   0  0  0  0  0  0  0  0  0  0  0  0
  187.3880  177.9020  144.4260 C   0  0  0  0  0  0  0  0  0  0  0  0
  191.6810  176.6390  145.9200 C   0  0  0  0  0  3  0  0  0  0  0  0
  186.8120  178.5990  137.1990 C   0  0  0  0  0  2  0  0  0  0  0  0
  185.6720  178.8280  139.6360 C   0  0  2  0  0  3  0  0  0  0  0  0
  191.5090  176.7850  144.3920 C   0  0  0  0  0  3  0  0  0  0  0  0
  187.3800  177.6690  138.1910 N   0  0  0  0  0  2  0  0  0  0  0  0
  184.5910  177.4170  137.7780 C   0  0  1  0  0  3  0  0  0  0  0  0
  185.4100  178.3390  145.8080 C   0  0  0  0  0  3  0  0  0  0  0  0
  186.0310  178.2600  144.5470 C   0  0  0  0  0  0  0  0  0  0  0  0
  188.1420  177.6220  145.5860 C   0  0  0  0  0  3  0  0  0  0  0  0
  187.8260  178.0740  140.5880 C   0  0  0  0  0  2  0  0  0  0  0  0
  190.0630  177.3350  141.8490 O   0  0  0  0  0  1  0  0  0  0  0  0
  190.0730  176.9460  147.9130 C   0  0  0  0  0  1  0  0  0  0  0  0
  188.0050  177.8200  143.1340 C   0  0  0  0  0  0  0  0  0  0  0  0
  189.4780  177.2700  145.4530 C   0  0  0  0  0  0  0  0  0  0  0  0
  183.2240  177.2200  137.1540 C   0  0  0  0  0  2  0  0  0  0  0  0
  182.4550  176.2070  137.9290 C   0  0  0  0  0  0  0  0  0  0  0  0
  182.7440  175.9950  139.3050 N   0  0  0  0  0  1  0  0  0  0  0  0
  181.5710  175.5170  137.3580 O   0  0  0  0  0  0  0  0  0  0  0  0
  1 16  1  1  0  0  0
  1 20  1  0  0  0  0
  1 10  1  0  0  0  0
  2 12  2  0  0  0  0
  2 27  1  0  0  0  0
  3  4  1  0  0  0  0
  5 27  2  0  0  0  0
  5  6  1  0  0  0  0
  6 18  1  0  0  0  0
  6 28  2  0  0  0  0
  7 17  1  0  0  0  0
  7 24  1  1  0  0  0
  8 12  1  0  0  0  0
  9 26  1  0  0  0  0
 10 17  1  0  0  0  0
 11  3  2  0  0  0  0
 12 13  1  0  0  0  0
 13 11  1  0  0  0  0
 13 22  2  0  0  0  0
 14 22  1  0  0  0  0
 14 23  2  0  0  0  0
 15  9  1  0  0  0  0
 16 19  1  0  0  0  0
 17  8  1  0  0  0  0
 18 15  2  0  0  0  0
 19  7  1  0  0  0  0
 20 10  1  0  0  0  0
 21  4  2  0  0  0  0
 22 21  1  0  0  0  0
 24  2  1  0  0  0  0
 25  5  1  0  0  0  0
 27 14  1  0  0  0  0
 28 23  1  0  0  0  0
 28  9  1  0  0  0  0
 29 20  1  0  0  0  0
 29 30  1  0  0  0  0
 30 31  1  0  0  0  0
 32 30  2  0  0  0  0
M  END
>  <MODEL>
4

>  <REMARK>
 VINA RESULT:      -9.5      1.571      1.974
  Name = 
  2 active torsions:
  status: ('A' for Active; 'I' for Inactive)
    1  A    between atoms: C_20  and  C_29
    2  A    between atoms: C_29  and  C_30
                            x       y       z     vdW  Elec       q    Type
                         _______ _______ _______ _____ _____    ______ ____

>  <TORSDO>
F 2

$$$$
=
 OpenBabel11122410423D

 32 38  0  0  1  0  0  0  0  0999 V2000
  191.1790  177.1620  147.4110 C   0  0  1  0  0  3  0  0  0  0  0  0
  187.1550  178.1260  144.1920 C   0  0  0  0  0  0  0  0  0  0  0  0
  189.2930  178.0300  139.8040 C   0  0  0  0  0  3  0  0  0  0  0  0
  188.0560  178.2090  139.1880 C   0  0  0  0  0  3  0  0  0  0  0  0
  184.6770  178.4350  144.3420 C   0  0  0  0  0  0  0  0  0  0  0  0
  183.4690  178.6190  143.6690 C   0  0  0  0  0  0  0  0  0  0  0  0
  188.5330  177.2770  146.1150 C   0  0  1  0  0  3  0  0  0  0  0  0
  189.6020  177.8160  143.9970 N   0  0  0  0  0  2  0  0  0  0  0  0
  182.0890  178.8710  141.8620 N   0  0  0  0  0  0  0  0  0  0  0  0
  191.0970  177.2690  145.8890 C   0  0  2  0  0  3  0  0  0  0  0  0
  189.3750  177.9690  141.1970 C   0  0  0  0  0  3  0  0  0  0  0  0
  188.3170  178.0270  143.3850 C   0  0  0  0  0  0  0  0  0  0  0  0
  188.2210  178.0860  141.9880 C   0  0  0  0  0  0  0  0  0  0  0  0
  185.8020  178.3850  142.1530 C   0  0  0  0  0  0  0  0  0  0  0  0
  181.1960  178.9340  143.0130 C   0  0  0  0  0  3  0  0  0  0  0  0
  189.9060  177.6770  148.1290 C   0  0  0  0  0  2  0  0  0  0  0  0
  189.7640  177.8860  145.4400 C   0  0  2  0  0  3  0  0  0  0  0  0
  182.1020  178.7670  144.2520 C   0  0  0  0  0  3  0  0  0  0  0  0
  188.6360  177.1720  147.5780 N   0  0  0  0  0  2  0  0  0  0  0  0
  190.9610  175.9110  146.5710 C   0  0  1  0  0  3  0  0  0  0  0  0
  186.9010  178.3270  139.9620 C   0  0  0  0  0  3  0  0  0  0  0  0
  186.9640  178.2680  141.3670 C   0  0  0  0  0  0  0  0  0  0  0  0
  184.5510  178.5710  141.5260 C   0  0  0  0  0  3  0  0  0  0  0  0
  187.3120  178.0830  145.7000 C   0  0  0  0  0  2  0  0  0  0  0  0
  184.6550  178.3720  145.7310 O   0  0  0  0  0  1  0  0  0  0  0  0
  181.6650  178.9820  140.4780 C   0  0  0  0  0  1  0  0  0  0  0  0
  185.8820  178.3150  143.5840 C   0  0  0  0  0  0  0  0  0  0  0  0
  183.4130  178.6840  142.3120 C   0  0  0  0  0  0  0  0  0  0  0  0
  192.2710  175.1580  146.4460 C   0  0  0  0  0  2  0  0  0  0  0  0
  192.3630  174.5210  145.1030 C   0  0  0  0  0  0  0  0  0  0  0  0
  191.9430  175.2350  143.9470 N   0  0  0  0  0  1  0  0  0  0  0  0
  192.7810  173.3390  144.9950 O   0  0  0  0  0  0  0  0  0  0  0  0
  1 16  1  1  0  0  0
  2 24  1  0  0  0  0
  3 11  1  0  0  0  0
  4  3  2  0  0  0  0
  4 21  1  0  0  0  0
  5 25  1  0  0  0  0
  6 18  1  0  0  0  0
  6  5  1  0  0  0  0
  7 24  1  1  0  0  0
  7 19  1  0  0  0  0
  8 17  1  0  0  0  0
  9 28  1  0  0  0  0
  9 15  1  0  0  0  0
 10 20  1  0  0  0  0
 10  1  1  0  0  0  0
 11 13  2  0  0  0  0
 12  8  1  0  0  0  0
 12  2  2  0  0  0  0
 13 12  1  0  0  0  0
 14 27  1  0  0  0  0
 15 18  2  0  0  0  0
 17 10  1  0  0  0  0
 17  7  1  0  0  0  0
 19 16  1  0  0  0  0
 20  1  1  0  0  0  0
 21 22  2  0  0  0  0
 22 13  1  0  0  0  0
 22 14  1  0  0  0  0
 23 14  2  0  0  0  0
 23 28  1  0  0  0  0
 26  9  1  0  0  0  0
 27  2  1  0  0  0  0
 27  5  2  0  0  0  0
 28  6  2  0  0  0  0
 29 20  1  0  0  0  0
 30 29  1  0  0  0  0
 31 30  1  0  0  0  0
 32 30  2  0  0  0  0
M  END
>  <MODEL>
5

>  <REMARK>
 VINA RESULT:      -9.3      2.856      7.771
  Name = 
  2 active torsions:
  status: ('A' for Active; 'I' for Inactive)
    1  A    between atoms: C_20  and  C_29
    2  A    between atoms: C_29  and  C_30
                            x       y       z     vdW  Elec       q    Type
                         _______ _______ _______ _____ _____    ______ ____

>  <TORSDO>
F 2

$$$$
=
 OpenBabel11122410423D

 32 38  0  0  1  0  0  0  0  0999 V2000
  189.3800  177.6790  148.0930 C   0  0  1  0  0  3  0  0  0  0  0  0
  186.0370  178.4450  144.1280 C   0  0  0  0  0  0  0  0  0  0  0  0
  188.9130  177.8750  140.2250 C   0  0  0  0  0  3  0  0  0  0  0  0
  187.8140  178.0300  139.3810 C   0  0  0  0  0  3  0  0  0  0  0  0
  183.5880  178.8350  143.8000 C   0  0  0  0  0  0  0  0  0  0  0  0
  182.5280  178.9880  142.9070 C   0  0  0  0  0  0  0  0  0  0  0  0
  187.0140  177.7440  146.3350 C   0  0  1  0  0  3  0  0  0  0  0  0
  188.4640  178.0510  144.4060 N   0  0  0  0  0  2  0  0  0  0  0  0
  181.5020  179.1060  140.8660 N   0  0  0  0  0  0  0  0  0  0  0  0
  189.5740  177.6430  146.5780 C   0  0  2  0  0  3  0  0  0  0  0  0
  188.7440  177.9440  141.6090 C   0  0  0  0  0  3  0  0  0  0  0  0
  187.3180  178.2380  143.5560 C   0  0  0  0  0  0  0  0  0  0  0  0
  187.4740  178.1680  142.1650 C   0  0  0  0  0  0  0  0  0  0  0  0
  185.0800  178.5480  141.8630 C   0  0  0  0  0  0  0  0  0  0  0  0
  180.4230  179.3030  141.8260 C   0  0  0  0  0  3  0  0  0  0  0  0
  188.0240  178.2950  148.5210 C   0  0  0  0  0  2  0  0  0  0  0  0
  188.3700  178.2520  145.8430 C   0  0  2  0  0  3  0  0  0  0  0  0
  181.0870  179.2280  143.2180 C   0  0  0  0  0  3  0  0  0  0  0  0
  186.8510  177.7750  147.7960 N   0  0  0  0  0  2  0  0  0  0  0  0
  189.2600  176.3610  147.3410 C   0  0  1  0  0  3  0  0  0  0  0  0
  186.5460  178.2530  139.9210 C   0  0  0  0  0  3  0  0  0  0  0  0
  186.3570  178.3240  141.3140 C   0  0  0  0  0  0  0  0  0  0  0  0
  183.9690  178.7080  141.0080 C   0  0  0  0  0  3  0  0  0  0  0  0
  185.9220  178.5400  145.6370 C   0  0  0  0  0  2  0  0  0  0  0  0
  183.3180  178.9050  145.1630 O   0  0  0  0  0  1  0  0  0  0  0  0
  181.3360  179.0980  139.4230 C   0  0  0  0  0  1  0  0  0  0  0  0
  184.9020  178.6110  143.2860 C   0  0  0  0  0  0  0  0  0  0  0  0
  182.7160  178.9270  141.5620 C   0  0  0  0  0  0  0  0  0  0  0  0
  190.5360  175.5630  147.5210 C   0  0  0  0  0  2  0  0  0  0  0  0
  191.7160  176.4190  147.2160 C   0  0  0  0  0  0  0  0  0  0  0  0
  192.0550  176.7060  145.8650 N   0  0  0  0  0  1  0  0  0  0  0  0
  192.4310  176.8610  148.1520 O   0  0  0  0  0  0  0  0  0  0  0  0
  1 16  1  6  0  0  0
  2 24  1  0  0  0  0
  3 11  2  0  0  0  0
  4 21  2  0  0  0  0
  4  3  1  0  0  0  0
  5 25  1  0  0  0  0
  6 18  1  0  0  0  0
  6  5  2  0  0  0  0
  7 24  1  6  0  0  0
  7 19  1  0  0  0  0
  8 17  1  0  0  0  0
  9 28  1  0  0  0  0
  9 15  1  0  0  0  0
 10 20  1  0  0  0  0
 10  1  1  0  0  0  0
 11 13  1  0  0  0  0
 12  2  1  0  0  0  0
 12  8  1  0  0  0  0
 13 12  2  0  0  0  0
 14 27  1  0  0  0  0
 15 18  2  0  0  0  0
 17  7  1  0  0  0  0
 17 10  1  0  0  0  0
 19 16  1  0  0  0  0
 20 29  1  0  0  0  0
 20  1  1  0  0  0  0
 21 22  1  0  0  0  0
 22 14  2  0  0  0  0
 22 13  1  0  0  0  0
 23 28  2  0  0  0  0
 23 14  1  0  0  0  0
 26  9  1  0  0  0  0
 27  5  1  0  0  0  0
 27  2  2  0  0  0  0
 28  6  1  0  0  0  0
 30 29  1  0  0  0  0
 30 32  2  0  0  0  0
 31 30  1  0  0  0  0
M  END
>  <MODEL>
6

>  <REMARK>
 VINA RESULT:      -9.2      2.966      8.383
  Name = 
  2 active torsions:
  status: ('A' for Active; 'I' for Inactive)
    1  A    between atoms: C_20  and  C_29
    2  A    between atoms: C_29  and  C_30
                            x       y       z     vdW  Elec       q    Type
                         _______ _______ _______ _____ _____    ______ ____

>  <TORSDO>
F 2

$$$$
=
 OpenBabel11122410423D

 32 38  0  0  1  0  0  0  0  0999 V2000
  179.1390  179.6910  140.9230 C   0  0  1  0  0  3  0  0  0  0  0  0
  183.8970  178.6370  142.8560 C   0  0  0  0  0  0  0  0  0  0  0  0
  186.6090  178.3120  138.8100 C   0  0  0  0  0  3  0  0  0  0  0  0
  187.7560  178.1330  139.5820 C   0  0  0  0  0  3  0  0  0  0  0  0
  185.0010  178.4380  145.0920 C   0  0  0  0  0  0  0  0  0  0  0  0
  186.1810  178.2490  145.8110 C   0  0  0  0  0  0  0  0  0  0  0  0
  181.5840  179.5780  142.5660 C   0  0  1  0  0  3  0  0  0  0  0  0
  182.8470  178.8360  140.6230 N   0  0  0  0  0  2  0  0  0  0  0  0
  188.4230  177.9120  146.1170 N   0  0  0  0  0  0  0  0  0  0  0  0
  180.4880  179.4700  140.2390 C   0  0  2  0  0  3  0  0  0  0  0  0
  185.3700  178.4770  139.4310 C   0  0  0  0  0  3  0  0  0  0  0  0
  184.0130  178.6290  141.4420 C   0  0  0  0  0  0  0  0  0  0  0  0
  185.2630  178.4660  140.8310 C   0  0  0  0  0  0  0  0  0  0  0  0
  186.3250  178.2740  143.0230 C   0  0  0  0  0  0  0  0  0  0  0  0
  187.8770  177.9720  147.4680 C   0  0  0  0  0  3  0  0  0  0  0  0
  179.1370  179.2820  142.4170 C   0  0  0  0  0  2  0  0  0  0  0  0
  181.5180  178.8720  141.2110 C   0  0  2  0  0  3  0  0  0  0  0  0
  186.3590  178.2000  147.2930 C   0  0  0  0  0  3  0  0  0  0  0  0
  180.2750  179.7920  143.2010 N   0  0  0  0  0  2  0  0  0  0  0  0
  180.0330  180.8800  140.6000 C   0  0  1  0  0  3  0  0  0  0  0  0
  187.6640  178.1200  140.9750 C   0  0  0  0  0  3  0  0  0  0  0  0
  186.4230  178.2860  141.6180 C   0  0  0  0  0  0  0  0  0  0  0  0
  187.4870  178.0900  143.8030 C   0  0  0  0  0  3  0  0  0  0  0  0
  182.5190  178.7910  143.4710 C   0  0  0  0  0  2  0  0  0  0  0  0
  183.8160  178.6080  145.8000 O   0  0  0  0  0  1  0  0  0  0  0  0
  189.8250  177.7110  145.7990 C   0  0  0  0  0  1  0  0  0  0  0  0
  185.0540  178.4510  143.6630 C   0  0  0  0  0  0  0  0  0  0  0  0
  187.3770  178.0810  145.1860 C   0  0  0  0  0  0  0  0  0  0  0  0
  179.5160  181.5700  139.3520 C   0  0  0  0  0  2  0  0  0  0  0  0
  180.5700  181.5700  138.3010 C   0  0  0  0  0  0  0  0  0  0  0  0
  180.3460  180.8930  137.0700 N   0  0  0  0  0  1  0  0  0  0  0  0
  181.6710  182.1410  138.5130 O   0  0  0  0  0  0  0  0  0  0  0  0
  1 16  1  1  0  0  0
  2 24  1  0  0  0  0
  2 27  1  0  0  0  0
  3 11  2  0  0  0  0
  3  4  1  0  0  0  0
  4 21  2  0  0  0  0
  5 25  1  0  0  0  0
  5  6  1  0  0  0  0
  6 18  1  0  0  0  0
  7 19  1  0  0  0  0
  7 24  1  1  0  0  0
  8 17  1  0  0  0  0
  8 12  1  0  0  0  0
  9 15  1  0  0  0  0
 10 20  1  0  0  0  0
 10  1  1  0  0  0  0
 10 17  1  0  0  0  0
 11 13  1  0  0  0  0
 12  2  2  0  0  0  0
 13 12  1  0  0  0  0
 13 22  2  0  0  0  0
 14 27  1  0  0  0  0
 14 23  2  0  0  0  0
 16 19  1  0  0  0  0
 17  7  1  0  0  0  0
 18 15  2  0  0  0  0
 20  1  1  0  0  0  0
 21 22  1  0  0  0  0
 22 14  1  0  0  0  0
 23 28  1  0  0  0  0
 26  9  1  0  0  0  0
 27  5  2  0  0  0  0
 28  6  2  0  0  0  0
 28  9  1  0  0  0  0
 29 20  1  0  0  0  0
 30 32  2  0  0  0  0
 30 29  1  0  0  0  0
 31 30  1  0  0  0  0
M  END
>  <MODEL>
7

>  <REMARK>
 VINA RESULT:      -9.0      3.423      6.007
  Name = 
  2 active torsions:
  status: ('A' for Active; 'I' for Inactive)
    1  A    between atoms: C_20  and  C_29
    2  A    between atoms: C_29  and  C_30
                            x       y       z     vdW  Elec       q    Type
                         _______ _______ _______ _____ _____    ______ ____

>  <TORSDO>
F 2

$$$$
=
 OpenBabel11122410423D

 32 38  0  0  1  0  0  0  0  0999 V2000
  191.5320  176.6030  136.9750 C   0  0  1  0  0  3  0  0  0  0  0  0
  188.6570  177.5750  141.2500 C   0  0  0  0  0  0  0  0  0  0  0  0
  184.4010  179.0030  139.3320 C   0  0  0  0  0  3  0  0  0  0  0  0
  183.8470  179.0960  140.6080 C   0  0  0  0  0  3  0  0  0  0  0  0
  188.8730  177.3610  143.7330 C   0  0  0  0  0  0  0  0  0  0  0  0
  188.2660  177.4780  144.9830 C   0  0  0  0  0  0  0  0  0  0  0  0
  190.3000  176.5410  139.6530 C   0  0  1  0  0  3  0  0  0  0  0  0
  188.3970  177.7930  138.7980 N   0  0  0  0  0  2  0  0  0  0  0  0
  186.5810  177.9150  146.4670 N   0  0  0  0  0  0  0  0  0  0  0  0
  190.0890  177.0750  137.1440 C   0  0  2  0  0  3  0  0  0  0  0  0
  185.7300  178.6070  139.1770 C   0  0  0  0  0  3  0  0  0  0  0  0
  187.8550  177.9050  140.1270 C   0  0  0  0  0  0  0  0  0  0  0  0
  186.5210  178.2990  140.2960 C   0  0  0  0  0  0  0  0  0  0  0  0
  186.7490  178.0830  142.7190 C   0  0  0  0  0  0  0  0  0  0  0  0
  187.7060  177.5140  147.3030 C   0  0  0  0  0  3  0  0  0  0  0  0
  192.3540  176.6680  138.2870 C   0  0  0  0  0  2  0  0  0  0  0  0
  189.8100  177.5230  138.5870 C   0  0  2  0  0  3  0  0  0  0  0  0
  188.8620  177.2110  146.3260 C   0  0  0  0  0  3  0  0  0  0  0  0
  191.6870  176.0890  139.4660 N   0  0  0  0  0  2  0  0  0  0  0  0
  190.3960  175.5890  136.9970 C   0  0  1  0  0  3  0  0  0  0  0  0
  184.6210  178.7930  141.7290 C   0  0  0  0  0  3  0  0  0  0  0  0
  185.9640  178.3910  141.5910 C   0  0  0  0  0  0  0  0  0  0  0  0
  186.1870  178.1820  144.0090 C   0  0  0  0  0  3  0  0  0  0  0  0
  190.1030  177.1800  141.0190 C   0  0  0  0  0  2  0  0  0  0  0  0
  190.1990  176.9440  143.6790 O   0  0  0  0  0  1  0  0  0  0  0  0
  185.2710  178.2930  146.9670 C   0  0  0  0  0  1  0  0  0  0  0  0
  188.1130  177.6680  142.5620 C   0  0  0  0  0  0  0  0  0  0  0  0
  186.9720  177.8750  145.1120 C   0  0  0  0  0  0  0  0  0  0  0  0
  190.0860  175.1540  135.5790 C   0  0  0  0  0  2  0  0  0  0  0  0
  189.3560  173.8570  135.5950 C   0  0  0  0  0  0  0  0  0  0  0  0
  188.3330  173.6280  136.5570 N   0  0  0  0  0  1  0  0  0  0  0  0
  189.6650  172.9500  134.7790 O   0  0  0  0  0  0  0  0  0  0  0  0
  1 20  1  0  0  0  0
  1 10  1  0  0  0  0
  1 16  1  1  0  0  0
  2 27  1  0  0  0  0
  3  4  1  0  0  0  0
  4 21  2  0  0  0  0
  5  6  1  0  0  0  0
  6 28  2  0  0  0  0
  6 18  1  0  0  0  0
  7 24  1  1  0  0  0
  8 12  1  0  0  0  0
  9 26  1  0  0  0  0
  9 15  1  0  0  0  0
 10 17  1  0  0  0  0
 11  3  2  0  0  0  0
 11 13  1  0  0  0  0
 12 13  1  0  0  0  0
 12  2  2  0  0  0  0
 13 22  2  0  0  0  0
 14 23  2  0  0  0  0
 16 19  1  0  0  0  0
 17  8  1  0  0  0  0
 17  7  1  0  0  0  0
 18 15  2  0  0  0  0
 19  7  1  0  0  0  0
 20 10  1  0  0  0  0
 22 21  1  0  0  0  0
 22 14  1  0  0  0  0
 23 28  1  0  0  0  0
 24  2  1  0  0  0  0
 25  5  1  0  0  0  0
 27 14  1  0  0  0  0
 27  5  2  0  0  0  0
 28  9  1  0  0  0  0
 29 30  1  0  0  0  0
 29 20  1  0  0  0  0
 30 31  1  0  0  0  0
 32 30  2  0  0  0  0
M  END
>  <MODEL>
8

>  <REMARK>
 VINA RESULT:      -8.8      2.221      2.981
  Name = 
  2 active torsions:
  status: ('A' for Active; 'I' for Inactive)
    1  A    between atoms: C_20  and  C_29
    2  A    between atoms: C_29  and  C_30
                            x       y       z     vdW  Elec       q    Type
                         _______ _______ _______ _____ _____    ______ ____

>  <TORSDO>
F 2

$$$$
=
 OpenBabel11122410423D

 32 38  0  0  1  0  0  0  0  0999 V2000
  180.0730  179.3780  138.0970 C   0  0  1  0  0  3  0  0  0  0  0  0
  184.1530  178.5270  141.2780 C   0  0  0  0  0  0  0  0  0  0  0  0
  187.8770  178.2490  138.1340 C   0  0  0  0  0  3  0  0  0  0  0  0
  188.7740  178.1230  139.1940 C   0  0  0  0  0  3  0  0  0  0  0  0
  184.6090  178.3980  143.7340 C   0  0  0  0  0  0  0  0  0  0  0  0
  185.5530  178.2630  144.7520 C   0  0  0  0  0  0  0  0  0  0  0  0
  181.9780  179.3780  140.3470 C   0  0  1  0  0  3  0  0  0  0  0  0
  183.7470  178.6570  138.8400 N   0  0  0  0  0  2  0  0  0  0  0  0
  187.6350  178.0130  145.6660 N   0  0  0  0  0  0  0  0  0  0  0  0
  181.5640  179.1980  137.8130 C   0  0  2  0  0  3  0  0  0  0  0  0
  186.5100  178.3750  138.3890 C   0  0  0  0  0  3  0  0  0  0  0  0
  184.6510  178.5040  139.9500 C   0  0  0  0  0  0  0  0  0  0  0  0
  186.0250  178.3790  139.7070 C   0  0  0  0  0  0  0  0  0  0  0  0
  186.4530  178.2560  142.1090 C   0  0  0  0  0  0  0  0  0  0  0  0
  186.7390  178.0710  146.8150 C   0  0  0  0  0  3  0  0  0  0  0  0
  179.6750  178.9890  139.5430 C   0  0  0  0  0  2  0  0  0  0  0  0
  182.3070  178.6520  139.0420 C   0  0  2  0  0  3  0  0  0  0  0  0
  185.3210  178.2400  146.2270 C   0  0  0  0  0  3  0  0  0  0  0  0
  180.5400  179.5520  140.5950 N   0  0  0  0  0  2  0  0  0  0  0  0
  180.9830  180.5950  138.0030 C   0  0  1  0  0  3  0  0  0  0  0  0
  188.3050  178.1250  140.5090 C   0  0  0  0  0  3  0  0  0  0  0  0
  186.9300  178.2530  140.7850 C   0  0  0  0  0  0  0  0  0  0  0  0
  187.3620  178.1250  143.1800 C   0  0  0  0  0  3  0  0  0  0  0  0
  182.6550  178.6380  141.4900 C   0  0  0  0  0  2  0  0  0  0  0  0
  183.2710  178.5340  144.0890 O   0  0  0  0  0  1  0  0  0  0  0  0
  189.0770  177.8590  145.7470 C   0  0  0  0  0  1  0  0  0  0  0  0
  185.0500  178.3950  142.3750 C   0  0  0  0  0  0  0  0  0  0  0  0
  186.8790  178.1310  144.4810 C   0  0  0  0  0  0  0  0  0  0  0  0
  180.8050  181.2490  136.6460 C   0  0  0  0  0  2  0  0  0  0  0  0
  180.7190  182.7270  136.8040 C   0  0  0  0  0  0  0  0  0  0  0  0
  180.8060  183.5700  135.6620 N   0  0  0  0  0  1  0  0  0  0  0  0
  180.6020  183.2310  137.9510 O   0  0  0  0  0  0  0  0  0  0  0  0
  1 16  1  1  0  0  0
  2 24  1  0  0  0  0
  2 27  1  0  0  0  0
  3 11  2  0  0  0  0
  3  4  1  0  0  0  0
  4 21  2  0  0  0  0
  5 25  1  0  0  0  0
  5  6  1  0  0  0  0
  6 18  1  0  0  0  0
  7 19  1  0  0  0  0
  7 24  1  1  0  0  0
  8 17  1  0  0  0  0
  8 12  1  0  0  0  0
  9 26  1  0  0  0  0
  9 15  1  0  0  0  0
 10 20  1  0  0  0  0
 10  1  1  0  0  0  0
 10 17  1  0  0  0  0
 11 13  1  0  0  0  0
 12  2  2  0  0  0  0
 13 12  1  0  0  0  0
 13 22  2  0  0  0  0
 14 27  1  0  0  0  0
 14 23  2  0  0  0  0
 16 19  1  0  0  0  0
 17  7  1  0  0  0  0
 18 15  2  0  0  0  0
 20  1  1  0  0  0  0
 21 22  1  0  0  0  0
 22 14  1  0  0  0  0
 23 28  1  0  0  0  0
 27  5  2  0  0  0  0
 28  6  2  0  0  0  0
 28  9  1  0  0  0  0
 29 30  1  0  0  0  0
 29 20  1  0  0  0  0
 30 32  2  0  0  0  0
 31 30  1  0  0  0  0
M  END
>  <MODEL>
9

>  <REMARK>
 VINA RESULT:      -8.7      3.887      5.845
  Name = 
  2 active torsions:
  status: ('A' for Active; 'I' for Inactive)
    1  A    between atoms: C_20  and  C_29
    2  A    between atoms: C_29  and  C_30
                            x       y       z     vdW  Elec       q    Type
                         _______ _______ _______ _____ _____    ______ ____

>  <TORSDO>
F 2

$$$$
