=
 OpenBabel11122410303D

 30 36  0  0  1  0  0  0  0  0999 V2000
  187.3870  177.9250  142.3690 C   0  0  0  0  0  0  0  0  0  0  0  0
  186.0570  178.3480  144.3890 C   0  0  0  0  0  0  0  0  0  0  0  0
  184.1050  178.9380  139.9460 N   0  0  0  0  0  2  0  0  0  0  0  0
  187.4970  177.7430  140.8620 C   0  0  2  0  0  3  0  0  0  0  0  0
  188.6110  177.5300  143.1450 C   0  0  0  0  0  2  0  0  0  0  0  0
  190.1160  176.3400  140.9350 C   0  0  0  0  0  1  0  0  0  0  0  0
  188.2410  177.0690  138.1350 C   0  0  1  0  0  3  0  0  0  0  0  0
  190.0010  177.7940  141.0910 N   0  0  0  0  0  0  0  0  0  0  0  0
  186.7420  177.3440  137.9330 C   0  0  2  0  0  3  0  0  0  0  0  0
  184.6170  178.7450  138.5920 C   0  0  2  0  0  3  0  0  0  0  0  0
  189.8520  178.1620  142.5100 C   0  0  2  0  0  3  0  0  0  0  0  0
  188.8410  178.3070  140.3410 C   0  0  1  0  0  3  0  0  0  0  0  0
  184.8260  178.6840  144.9570 C   0  0  0  0  0  3  0  0  0  0  0  0
  186.6160  177.5890  136.4530 C   0  0  0  0  0  2  0  0  0  0  0  0
  188.8310  176.7530  136.8370 N   0  0  0  0  0  2  0  0  0  0  0  0
  187.1030  178.0780  145.2630 O   0  0  0  0  0  1  0  0  0  0  0  0
  185.1620  178.6430  140.8380 C   0  0  0  0  0  0  0  0  0  0  0  0
  183.7260  178.9770  144.1590 C   0  0  0  0  0  3  0  0  0  0  0  0
  186.2080  178.2870  142.9710 C   0  0  0  0  0  0  0  0  0  0  0  0
  186.3700  178.3680  140.1800 N   0  0  0  0  0  0  0  0  0  0  0  0
  183.9470  177.5970  137.9980 N   0  0  0  0  0  1  0  0  0  0  0  0
  186.1510  178.5110  138.7460 C   0  0  1  0  0  3  0  0  0  0  0  0
  187.7500  176.7920  135.8580 C   0  0  0  0  0  2  0  0  0  0  0  0
  188.9910  179.5260  138.1290 C   0  0  0  0  0  1  0  0  0  0  0  0
  183.8490  178.9490  142.7760 C   0  0  0  0  0  3  0  0  0  0  0  0
  185.0690  178.6210  142.1710 C   0  0  0  0  0  0  0  0  0  0  0  0
  189.0660  178.1760  138.8250 C   0  0  2  0  0  3  0  0  0  0  0  0
  191.1060  177.8350  143.3110 C   0  0  0  0  0  3  0  0  0  0  0  0
  191.5550  179.0680  144.0700 C   0  0  0  0  0  2  0  0  0  0  0  0
  190.8060  177.9680  144.7900 C   0  0  0  0  0  2  0  0  0  0  0  0
  1 19  2  0  0  0  0
  1  5  1  0  0  0  0
  2 13  2  0  0  0  0
  2 16  1  0  0  0  0
  3 17  1  0  0  0  0
  4  1  1  1  0  0  0
  6  8  1  0  0  0  0
  7 15  1  6  0  0  0
  7 27  1  0  0  0  0
  8 11  1  0  0  0  0
  9 14  1  6  0  0  0
  9  7  1  0  0  0  0
  9 22  1  0  0  0  0
 10 21  1  1  0  0  0
 10 22  1  0  0  0  0
 10  3  1  0  0  0  0
 11  5  1  0  0  0  0
 11 28  1  1  0  0  0
 12  4  1  0  0  0  0
 12  8  1  1  0  0  0
 17 26  2  0  0  0  0
 18 13  1  0  0  0  0
 19  2  1  0  0  0  0
 20 17  1  0  0  0  0
 20  4  1  0  0  0  0
 22 20  1  1  0  0  0
 23 14  1  0  0  0  0
 23 15  1  0  0  0  0
 25 18  2  0  0  0  0
 26 25  1  0  0  0  0
 26 19  1  0  0  0  0
 27 24  1  6  0  0  0
 27 12  1  0  0  0  0
 28 29  1  0  0  0  0
 28 30  1  0  0  0  0
 29 30  1  0  0  0  0
M  END
>  <MODEL>
1

>  <REMARK>
 VINA RESULT:      -8.8      0.000      0.000
  Name = 
  1 active torsions:
  status: ('A' for Active; 'I' for Inactive)
    1  A    between atoms: C_11  and  C_28
                            x       y       z     vdW  Elec       q    Type
                         _______ _______ _______ _____ _____    ______ ____

>  <TORSDO>
F 1

$$$$
=
 OpenBabel11122410303D

 30 36  0  0  1  0  0  0  0  0999 V2000
  186.0500  178.4840  141.7880 C   0  0  0  0  0  0  0  0  0  0  0  0
  183.6340  178.9230  141.8130 C   0  0  0  0  0  0  0  0  0  0  0  0
  185.9880  177.6900  145.9160 N   0  0  0  0  0  2  0  0  0  0  0  0
  187.3660  178.2390  142.5140 C   0  0  2  0  0  3  0  0  0  0  0  0
  186.1800  178.7620  140.3190 C   0  0  0  0  0  2  0  0  0  0  0  0
  189.0990  178.9500  140.2060 C   0  0  0  0  0  1  0  0  0  0  0  0
  190.1370  177.9920  143.3510 C   0  0  1  0  0  3  0  0  0  0  0  0
  188.4160  177.6560  140.3050 N   0  0  0  0  0  0  0  0  0  0  0  0
  189.4550  178.0380  144.7280 C   0  0  2  0  0  3  0  0  0  0  0  0
  187.3870  177.4000  146.2210 C   0  0  2  0  0  3  0  0  0  0  0  0
  187.0870  177.7120  139.6710 C   0  0  2  0  0  3  0  0  0  0  0  0
  188.2550  177.2580  141.7140 C   0  0  1  0  0  3  0  0  0  0  0  0
  182.4530  179.0470  142.5470 C   0  0  0  0  0  3  0  0  0  0  0  0
  190.4830  177.4580  145.6610 C   0  0  0  0  0  2  0  0  0  0  0  0
  191.5730  177.8140  143.5540 N   0  0  0  0  0  2  0  0  0  0  0  0
  183.5550  179.1520  140.4440 O   0  0  0  0  0  1  0  0  0  0  0  0
  185.9090  177.9450  144.5270 C   0  0  0  0  0  0  0  0  0  0  0  0
  182.4370  178.8280  143.9190 C   0  0  0  0  0  3  0  0  0  0  0  0
  184.8580  178.5790  142.4620 C   0  0  0  0  0  0  0  0  0  0  0  0
  187.1300  177.7460  143.8650 N   0  0  0  0  0  0  0  0  0  0  0  0
  187.9210  178.4820  147.0370 N   0  0  0  0  0  1  0  0  0  0  0  0
  188.1110  177.2950  144.8440 C   0  0  1  0  0  3  0  0  0  0  0  0
  191.7980  177.7820  144.9940 C   0  0  0  0  0  2  0  0  0  0  0  0
  189.6680  175.5110  142.8770 C   0  0  0  0  0  1  0  0  0  0  0  0
  183.6080  178.4690  144.5750 C   0  0  0  0  0  3  0  0  0  0  0  0
  184.8100  178.3310  143.8710 C   0  0  0  0  0  0  0  0  0  0  0  0
  189.6190  176.9370  142.3510 C   0  0  2  0  0  3  0  0  0  0  0  0
  187.1880  177.9270  138.1670 C   0  0  0  0  0  3  0  0  0  0  0  0
  186.7030  176.6840  137.4460 C   0  0  0  0  0  2  0  0  0  0  0  0
  185.8000  177.8940  137.5590 C   0  0  0  0  0  2  0  0  0  0  0  0
  1 19  2  0  0  0  0
  2 19  1  0  0  0  0
  2 13  2  0  0  0  0
  3 10  1  0  0  0  0
  4  1  1  6  0  0  0
  4 20  1  0  0  0  0
  5  1  1  0  0  0  0
  6  8  1  0  0  0  0
  7 15  1  1  0  0  0
  7  9  1  0  0  0  0
  9 22  1  0  0  0  0
  9 14  1  1  0  0  0
 10 21  1  1  0  0  0
 11 28  1  6  0  0  0
 11  8  1  0  0  0  0
 11  5  1  0  0  0  0
 12  8  1  6  0  0  0
 12 27  1  0  0  0  0
 12  4  1  0  0  0  0
 13 18  1  0  0  0  0
 15 23  1  0  0  0  0
 16  2  1  0  0  0  0
 17  3  1  0  0  0  0
 18 25  2  0  0  0  0
 19 26  1  0  0  0  0
 20 17  1  0  0  0  0
 22 20  1  6  0  0  0
 22 10  1  0  0  0  0
 23 14  1  0  0  0  0
 26 17  2  0  0  0  0
 26 25  1  0  0  0  0
 27 24  1  1  0  0  0
 27  7  1  0  0  0  0
 29 30  1  0  0  0  0
 29 28  1  0  0  0  0
 30 28  1  0  0  0  0
M  END
>  <MODEL>
2

>  <REMARK>
 VINA RESULT:      -8.8      2.400      5.737
  Name = 
  1 active torsions:
  status: ('A' for Active; 'I' for Inactive)
    1  A    between atoms: C_11  and  C_28
                            x       y       z     vdW  Elec       q    Type
                         _______ _______ _______ _____ _____    ______ ____

>  <TORSDO>
F 1

$$$$
=
 OpenBabel11122410303D

 30 36  0  0  1  0  0  0  0  0999 V2000
  187.9920  178.0480  140.5520 C   0  0  0  0  0  0  0  0  0  0  0  0
  185.9630  178.7550  139.3630 C   0  0  0  0  0  0  0  0  0  0  0  0
  185.8380  177.7860  144.1530 N   0  0  0  0  0  2  0  0  0  0  0  0
  188.7430  177.7490  141.8430 C   0  0  2  0  0  3  0  0  0  0  0  0
  188.8520  178.1250  139.3240 C   0  0  0  0  0  2  0  0  0  0  0  0
  191.4560  177.9690  140.6500 C   0  0  0  0  0  1  0  0  0  0  0  0
  190.6960  177.2980  143.9450 C   0  0  1  0  0  3  0  0  0  0  0  0
  190.6130  176.7820  140.4700 N   0  0  0  0  0  0  0  0  0  0  0  0
  189.4560  177.5920  144.8050 C   0  0  2  0  0  3  0  0  0  0  0  0
  186.8540  177.3810  145.1210 C   0  0  2  0  0  3  0  0  0  0  0  0
  189.7770  176.9070  139.2630 C   0  0  2  0  0  3  0  0  0  0  0  0
  189.7380  176.5830  141.6370 C   0  0  1  0  0  3  0  0  0  0  0  0
  184.6110  179.1010  139.4140 C   0  0  0  0  0  3  0  0  0  0  0  0
  189.8060  177.0210  146.1530 C   0  0  0  0  0  2  0  0  0  0  0  0
  191.8110  176.9870  144.8370 N   0  0  0  0  0  2  0  0  0  0  0  0
  186.5860  178.8200  138.1220 O   0  0  0  0  0  1  0  0  0  0  0  0
  186.4750  177.8730  142.8930 C   0  0  0  0  0  0  0  0  0  0  0  0
  183.9070  179.0580  140.6110 C   0  0  0  0  0  3  0  0  0  0  0  0
  186.6550  178.3590  140.5470 C   0  0  0  0  0  0  0  0  0  0  0  0
  187.8140  177.4580  142.9280 N   0  0  0  0  0  0  0  0  0  0  0  0
  187.0970  178.4890  146.0350 N   0  0  0  0  0  1  0  0  0  0  0  0
  188.1210  177.0240  144.2850 C   0  0  1  0  0  3  0  0  0  0  0  0
  191.3110  177.1090  146.2010 C   0  0  0  0  0  2  0  0  0  0  0  0
  190.1240  174.8460  143.4370 C   0  0  0  0  0  1  0  0  0  0  0  0
  184.5470  178.6540  141.7760 C   0  0  0  0  0  3  0  0  0  0  0  0
  185.9010  178.2950  141.7620 C   0  0  0  0  0  0  0  0  0  0  0  0
  190.5590  176.1920  142.8780 C   0  0  2  0  0  3  0  0  0  0  0  0
  190.6190  176.9200  137.9930 C   0  0  0  0  0  3  0  0  0  0  0  0
  190.2430  175.7340  137.1270 C   0  0  0  0  0  2  0  0  0  0  0  0
  189.7150  177.1130  136.7920 C   0  0  0  0  0  2  0  0  0  0  0  0
  2 13  2  0  0  0  0
  2 19  1  0  0  0  0
  3 10  1  0  0  0  0
  4  1  1  6  0  0  0
  4 20  1  0  0  0  0
  5  1  1  0  0  0  0
  7  9  1  0  0  0  0
  7 15  1  1  0  0  0
  8  6  1  0  0  0  0
  9 14  1  1  0  0  0
 10 21  1  1  0  0  0
 11 28  1  6  0  0  0
 11  5  1  0  0  0  0
 11  8  1  0  0  0  0
 12  8  1  6  0  0  0
 12  4  1  0  0  0  0
 12 27  1  0  0  0  0
 13 18  1  0  0  0  0
 14 23  1  0  0  0  0
 15 23  1  0  0  0  0
 16  2  1  0  0  0  0
 17 20  1  0  0  0  0
 17  3  1  0  0  0  0
 18 25  2  0  0  0  0
 19  1  2  0  0  0  0
 19 26  1  0  0  0  0
 22 20  1  6  0  0  0
 22  9  1  0  0  0  0
 22 10  1  0  0  0  0
 26 25  1  0  0  0  0
 26 17  2  0  0  0  0
 27 24  1  1  0  0  0
 27  7  1  0  0  0  0
 29 28  1  0  0  0  0
 30 29  1  0  0  0  0
 30 28  1  0  0  0  0
M  END
>  <MODEL>
3

>  <REMARK>
 VINA RESULT:      -8.5      2.579      5.765
  Name = 
  1 active torsions:
  status: ('A' for Active; 'I' for Inactive)
    1  A    between atoms: C_11  and  C_28
                            x       y       z     vdW  Elec       q    Type
                         _______ _______ _______ _____ _____    ______ ____

>  <TORSDO>
F 1

$$$$
=
 OpenBabel11122410303D

 30 36  0  0  1  0  0  0  0  0999 V2000
  187.0470  177.8760  144.8860 C   0  0  0  0  0  0  0  0  0  0  0  0
  184.6570  178.2920  145.2650 C   0  0  0  0  0  0  0  0  0  0  0  0
  186.6070  178.8230  140.8140 N   0  0  0  0  0  2  0  0  0  0  0  0
  188.2330  177.6860  143.9510 C   0  0  2  0  0  3  0  0  0  0  0  0
  187.3050  177.5050  146.3180 C   0  0  0  0  0  2  0  0  0  0  0  0
  189.9580  176.3230  145.9520 C   0  0  0  0  0  1  0  0  0  0  0  0
  190.7490  177.0060  142.6660 C   0  0  1  0  0  3  0  0  0  0  0  0
  189.7570  177.7760  145.9490 N   0  0  0  0  0  0  0  0  0  0  0  0
  189.8820  177.2560  141.4210 C   0  0  2  0  0  3  0  0  0  0  0  0
  187.9520  178.6290  140.2790 C   0  0  2  0  0  3  0  0  0  0  0  0
  188.6090  178.1520  146.7930 C   0  0  2  0  0  3  0  0  0  0  0  0
  189.5220  178.2670  144.5800 C   0  0  1  0  0  3  0  0  0  0  0  0
  183.4040  178.6120  144.7380 C   0  0  0  0  0  3  0  0  0  0  0  0
  190.8850  177.4890  140.3230 C   0  0  0  0  0  2  0  0  0  0  0  0
  192.1050  176.6900  142.2270 N   0  0  0  0  0  2  0  0  0  0  0  0
  184.7220  178.0440  146.6320 O   0  0  0  0  0  1  0  0  0  0  0  0
  186.6670  178.5500  142.2010 C   0  0  0  0  0  0  0  0  0  0  0  0
  183.2470  178.8830  143.3830 C   0  0  0  0  0  3  0  0  0  0  0  0
  185.8050  178.2240  144.4190 C   0  0  0  0  0  0  0  0  0  0  0  0
  187.9700  178.2890  142.6500 N   0  0  0  0  0  0  0  0  0  0  0  0
  187.9430  177.4660  139.4020 N   0  0  0  0  0  1  0  0  0  0  0  0
  188.8770  178.4190  141.5170 C   0  0  1  0  0  3  0  0  0  0  0  0
  192.0950  176.7060  140.7690 C   0  0  0  0  0  2  0  0  0  0  0  0
  191.2470  179.4740  143.1760 C   0  0  0  0  0  1  0  0  0  0  0  0
  184.3500  178.8480  142.5390 C   0  0  0  0  0  3  0  0  0  0  0  0
  185.6220  178.5350  143.0340 C   0  0  0  0  0  0  0  0  0  0  0  0
  190.7920  178.1290  143.7230 C   0  0  2  0  0  3  0  0  0  0  0  0
  188.8680  177.8500  148.2630 C   0  0  0  0  0  3  0  0  0  0  0  0
  187.8380  178.5650  149.1150 C   0  0  0  0  0  2  0  0  0  0  0  0
  187.6920  177.0840  148.8350 C   0  0  0  0  0  2  0  0  0  0  0  0
  1  5  1  0  0  0  0
  2 16  1  0  0  0  0
  3 17  1  0  0  0  0
  4 12  1  0  0  0  0
  4  1  1  1  0  0  0
  5 11  1  0  0  0  0
  7 15  1  6  0  0  0
  7 27  1  0  0  0  0
  8  6  1  0  0  0  0
  8 11  1  0  0  0  0
  9 14  1  6  0  0  0
  9 22  1  0  0  0  0
  9  7  1  0  0  0  0
 10 21  1  6  0  0  0
 10  3  1  0  0  0  0
 10 22  1  0  0  0  0
 11 28  1  1  0  0  0
 12  8  1  1  0  0  0
 13  2  2  0  0  0  0
 14 23  1  0  0  0  0
 17 20  1  0  0  0  0
 17 26  2  0  0  0  0
 18 13  1  0  0  0  0
 19  1  2  0  0  0  0
 19  2  1  0  0  0  0
 20  4  1  0  0  0  0
 22 20  1  1  0  0  0
 23 15  1  0  0  0  0
 25 26  1  0  0  0  0
 25 18  2  0  0  0  0
 26 19  1  0  0  0  0
 27 24  1  6  0  0  0
 27 12  1  0  0  0  0
 28 30  1  0  0  0  0
 28 29  1  0  0  0  0
 30 29  1  0  0  0  0
M  END
>  <MODEL>
4

>  <REMARK>
 VINA RESULT:      -8.1      2.268      4.153
  Name = 
  1 active torsions:
  status: ('A' for Active; 'I' for Inactive)
    1  A    between atoms: C_11  and  C_28
                            x       y       z     vdW  Elec       q    Type
                         _______ _______ _______ _____ _____    ______ ____

>  <TORSDO>
F 1

$$$$
=
 OpenBabel11122410303D

 30 36  0  0  1  0  0  0  0  0999 V2000
  187.9140  177.3790  143.4870 C   0  0  0  0  0  0  0  0  0  0  0  0
  186.0110  178.1990  144.8030 C   0  0  0  0  0  0  0  0  0  0  0  0
  186.2450  179.0010  139.9870 N   0  0  0  0  0  2  0  0  0  0  0  0
  188.5870  177.1010  142.1500 C   0  0  2  0  0  3  0  0  0  0  0  0
  188.5850  176.7510  144.6750 C   0  0  0  0  0  2  0  0  0  0  0  0
  190.5440  175.1350  143.2180 C   0  0  0  0  0  1  0  0  0  0  0  0
  190.2040  176.1370  139.9370 C   0  0  1  0  0  3  0  0  0  0  0  0
  190.7140  176.5820  143.3870 N   0  0  0  0  0  0  0  0  0  0  0  0
  189.0280  176.7410  139.1530 C   0  0  2  0  0  3  0  0  0  0  0  0
  187.2060  178.6270  138.9540 C   0  0  2  0  0  3  0  0  0  0  0  0
  190.0870  177.0470  144.6370 C   0  0  2  0  0  3  0  0  0  0  0  0
  190.1160  177.3120  142.2550 C   0  0  1  0  0  3  0  0  0  0  0  0
  184.7700  178.8390  144.8340 C   0  0  0  0  0  3  0  0  0  0  0  0
  189.5790  176.9330  137.7660 C   0  0  0  0  0  2  0  0  0  0  0  0
  191.1830  175.6280  138.9800 N   0  0  0  0  0  2  0  0  0  0  0  0
  186.5140  177.7390  146.0150 O   0  0  0  0  0  1  0  0  0  0  0  0
  186.7440  178.5140  141.2170 C   0  0  0  0  0  0  0  0  0  0  0  0
  184.1940  179.3380  143.6710 C   0  0  0  0  0  3  0  0  0  0  0  0
  186.7110  178.0340  143.5710 C   0  0  0  0  0  0  0  0  0  0  0  0
  188.0160  177.9350  141.0990 N   0  0  0  0  0  0  0  0  0  0  0  0
  186.5930  177.6360  138.0800 N   0  0  0  0  0  1  0  0  0  0  0  0
  188.4430  178.0520  139.7100 C   0  0  1  0  0  3  0  0  0  0  0  0
  190.6400  175.8670  137.6480 C   0  0  0  0  0  2  0  0  0  0  0  0
  191.4370  178.3510  140.3630 C   0  0  0  0  0  1  0  0  0  0  0  0
  184.8630  179.2130  142.4600 C   0  0  0  0  0  3  0  0  0  0  0  0
  186.1110  178.5820  142.3930 C   0  0  0  0  0  0  0  0  0  0  0  0
  190.9060  177.0560  140.9590 C   0  0  2  0  0  3  0  0  0  0  0  0
  190.7890  176.4790  145.8630 C   0  0  0  0  0  3  0  0  0  0  0  0
  191.1500  177.6100  146.8060 C   0  0  0  0  0  2  0  0  0  0  0  0
  189.9440  176.7410  147.0940 C   0  0  0  0  0  2  0  0  0  0  0  0
  1 19  2  0  0  0  0
  1  5  1  0  0  0  0
  2 13  2  0  0  0  0
  2 16  1  0  0  0  0
  3 17  1  0  0  0  0
  4 12  1  0  0  0  0
  4  1  1  1  0  0  0
  6  8  1  0  0  0  0
  7 15  1  6  0  0  0
  7 27  1  0  0  0  0
  8 11  1  0  0  0  0
  9 14  1  6  0  0  0
  9 22  1  0  0  0  0
  9  7  1  0  0  0  0
 10 21  1  6  0  0  0
 10 22  1  0  0  0  0
 10  3  1  0  0  0  0
 11  5  1  0  0  0  0
 11 28  1  1  0  0  0
 12  8  1  1  0  0  0
 17 26  2  0  0  0  0
 18 13  1  0  0  0  0
 19  2  1  0  0  0  0
 20 17  1  0  0  0  0
 20  4  1  0  0  0  0
 22 20  1  1  0  0  0
 23 14  1  0  0  0  0
 23 15  1  0  0  0  0
 25 18  2  0  0  0  0
 26 25  1  0  0  0  0
 26 19  1  0  0  0  0
 27 24  1  6  0  0  0
 27 12  1  0  0  0  0
 28 29  1  0  0  0  0
 28 30  1  0  0  0  0
 29 30  1  0  0  0  0
M  END
>  <MODEL>
5

>  <REMARK>
 VINA RESULT:      -7.4      1.653      2.363
  Name = 
  1 active torsions:
  status: ('A' for Active; 'I' for Inactive)
    1  A    between atoms: C_11  and  C_28
                            x       y       z     vdW  Elec       q    Type
                         _______ _______ _______ _____ _____    ______ ____

>  <TORSDO>
F 1

$$$$
=
 OpenBabel11122410303D

 30 36  0  0  1  0  0  0  0  0999 V2000
  186.2540  178.0220  143.0380 C   0  0  0  0  0  0  0  0  0  0  0  0
  183.9390  178.4290  142.3290 C   0  0  0  0  0  0  0  0  0  0  0  0
  187.6210  178.7500  139.1300 N   0  0  0  0  0  2  0  0  0  0  0  0
  187.7250  177.7980  142.7160 C   0  0  2  0  0  3  0  0  0  0  0  0
  185.8660  177.7300  144.4590 C   0  0  0  0  0  2  0  0  0  0  0  0
  188.4040  176.5620  145.3320 C   0  0  0  0  0  1  0  0  0  0  0  0
  190.5400  177.0810  142.6770 C   0  0  1  0  0  3  0  0  0  0  0  0
  188.2410  178.0110  145.1670 N   0  0  0  0  0  0  0  0  0  0  0  0
  190.2970  177.2560  141.1690 C   0  0  2  0  0  3  0  0  0  0  0  0
  189.0630  178.5440  139.2370 C   0  0  2  0  0  3  0  0  0  0  0  0
  186.8460  178.4170  145.4140 C   0  0  2  0  0  3  0  0  0  0  0  0
  188.6240  178.4260  143.8070 C   0  0  1  0  0  3  0  0  0  0  0  0
  183.0390  178.7070  141.2970 C   0  0  0  0  0  3  0  0  0  0  0  0
  191.6780  177.4430  140.5990 C   0  0  0  0  0  2  0  0  0  0  0  0
  191.9500  176.7590  142.8820 N   0  0  0  0  0  2  0  0  0  0  0  0
  183.4060  178.2540  143.6010 O   0  0  0  0  0  1  0  0  0  0  0  0
  187.0750  178.5510  140.4200 C   0  0  0  0  0  0  0  0  0  0  0  0
  183.4840  178.9050  139.9950 C   0  0  0  0  0  3  0  0  0  0  0  0
  185.3380  178.3310  142.0640 C   0  0  0  0  0  0  0  0  0  0  0  0
  188.0540  178.3290  141.3990 N   0  0  0  0  0  0  0  0  0  0  0  0
  189.4190  177.3380  138.5030 N   0  0  0  0  0  1  0  0  0  0  0  0
  189.3630  178.4110  140.7620 C   0  0  1  0  0  3  0  0  0  0  0  0
  192.5690  176.6990  141.5630 C   0  0  0  0  0  2  0  0  0  0  0  0
  190.7990  179.5790  143.2220 C   0  0  0  0  0  1  0  0  0  0  0  0
  184.8420  178.8390  139.7110 C   0  0  0  0  0  3  0  0  0  0  0  0
  185.7730  178.5670  140.7210 C   0  0  0  0  0  0  0  0  0  0  0  0
  190.1380  178.2590  143.5890 C   0  0  2  0  0  3  0  0  0  0  0  0
  186.4430  178.1940  146.8660 C   0  0  0  0  0  3  0  0  0  0  0  0
  185.7680  179.4430  147.3990 C   0  0  0  0  0  2  0  0  0  0  0  0
  184.9330  178.2500  146.9840 C   0  0  0  0  0  2  0  0  0  0  0  0
  1  5  1  0  0  0  0
  2 16  1  0  0  0  0
  3 10  1  0  0  0  0
  3 17  1  0  0  0  0
  4  1  1  1  0  0  0
  4 12  1  0  0  0  0
  5 11  1  0  0  0  0
  7 15  1  6  0  0  0
  7 27  1  0  0  0  0
  8  6  1  0  0  0  0
  8 11  1  0  0  0  0
  9 14  1  6  0  0  0
  9  7  1  0  0  0  0
 10 21  1  6  0  0  0
 10 22  1  0  0  0  0
 11 28  1  1  0  0  0
 12  8  1  1  0  0  0
 13  2  2  0  0  0  0
 14 23  1  0  0  0  0
 17 26  2  0  0  0  0
 17 20  1  0  0  0  0
 18 13  1  0  0  0  0
 19  2  1  0  0  0  0
 19  1  2  0  0  0  0
 20  4  1  0  0  0  0
 22  9  1  0  0  0  0
 22 20  1  1  0  0  0
 23 15  1  0  0  0  0
 25 18  2  0  0  0  0
 25 26  1  0  0  0  0
 26 19  1  0  0  0  0
 27 24  1  6  0  0  0
 27 12  1  0  0  0  0
 28 30  1  0  0  0  0
 28 29  1  0  0  0  0
 30 29  1  0  0  0  0
M  END
>  <MODEL>
6

>  <REMARK>
 VINA RESULT:      -7.2      2.021      4.515
  Name = 
  1 active torsions:
  status: ('A' for Active; 'I' for Inactive)
    1  A    between atoms: C_11  and  C_28
                            x       y       z     vdW  Elec       q    Type
                         _______ _______ _______ _____ _____    ______ ____

>  <TORSDO>
F 1

$$$$
=
 OpenBabel11122410303D

 30 36  0  0  1  0  0  0  0  0999 V2000
  185.7270  178.4290  141.7940 C   0  0  0  0  0  0  0  0  0  0  0  0
  185.6370  178.2730  144.2430 C   0  0  0  0  0  0  0  0  0  0  0  0
  189.6340  176.8780  141.7980 N   0  0  0  0  0  2  0  0  0  0  0  0
  186.5000  178.3690  140.4840 C   0  0  2  0  0  3  0  0  0  0  0  0
  184.3440  179.0030  141.6860 C   0  0  0  0  0  2  0  0  0  0  0  0
  184.4970  179.8920  138.9020 C   0  0  0  0  0  1  0  0  0  0  0  0
  187.4970  178.6290  137.7670 C   0  0  1  0  0  3  0  0  0  0  0  0
  184.3130  178.4790  139.2480 N   0  0  0  0  0  0  0  0  0  0  0  0
  188.8030  178.2520  138.4860 C   0  0  2  0  0  3  0  0  0  0  0  0
  189.9940  176.8750  140.3830 C   0  0  2  0  0  3  0  0  0  0  0  0
  183.5960  178.3370  140.5280 C   0  0  2  0  0  3  0  0  0  0  0  0
  185.6140  177.7950  139.3530 C   0  0  1  0  0  3  0  0  0  0  0  0
  186.2860  177.9740  145.4430 C   0  0  0  0  0  3  0  0  0  0  0  0
  189.6980  177.7660  137.3780 C   0  0  0  0  0  2  0  0  0  0  0  0
  187.7780  178.7600  136.3400 N   0  0  0  0  0  2  0  0  0  0  0  0
  184.3280  178.7310  144.3300 O   0  0  0  0  0  1  0  0  0  0  0  0
  188.3090  177.3650  141.8900 C   0  0  0  0  0  0  0  0  0  0  0  0
  187.5940  177.5030  145.4500 C   0  0  0  0  0  3  0  0  0  0  0  0
  186.3110  178.1110  142.9940 C   0  0  0  0  0  0  0  0  0  0  0  0
  187.7220  177.5880  140.6370 N   0  0  0  0  0  0  0  0  0  0  0  0
  191.0260  177.8780  140.1590 N   0  0  0  0  0  1  0  0  0  0  0  0
  188.6810  177.2050  139.6080 C   0  0  1  0  0  3  0  0  0  0  0  0
  189.2040  178.5100  136.1630 C   0  0  0  0  0  2  0  0  0  0  0  0
  186.5610  176.2430  137.5940 C   0  0  0  0  0  1  0  0  0  0  0  0
  188.2670  177.3130  144.2500 C   0  0  0  0  0  3  0  0  0  0  0  0
  187.6460  177.5980  143.0280 C   0  0  0  0  0  0  0  0  0  0  0  0
  186.2900  177.6900  137.9750 C   0  0  2  0  0  3  0  0  0  0  0  0
  182.1650  178.8500  140.4310 C   0  0  0  0  0  3  0  0  0  0  0  0
  181.2020  177.6910  140.5940 C   0  0  0  0  0  2  0  0  0  0  0  0
  181.4600  178.6280  141.7540 C   0  0  0  0  0  2  0  0  0  0  0  0
  1 19  2  0  0  0  0
  2 16  1  0  0  0  0
  2 13  2  0  0  0  0
  3 17  1  0  0  0  0
  4 20  1  0  0  0  0
  4  1  1  1  0  0  0
  5  1  1  0  0  0  0
  6  8  1  0  0  0  0
  7 15  1  6  0  0  0
  7 27  1  0  0  0  0
  7  9  1  0  0  0  0
  8 11  1  0  0  0  0
  9 14  1  6  0  0  0
  9 22  1  0  0  0  0
 10 21  1  1  0  0  0
 10  3  1  0  0  0  0
 11 28  1  6  0  0  0
 11  5  1  0  0  0  0
 12  8  1  6  0  0  0
 12  4  1  0  0  0  0
 13 18  1  0  0  0  0
 17 26  2  0  0  0  0
 19 26  1  0  0  0  0
 19  2  1  0  0  0  0
 20 17  1  0  0  0  0
 22 10  1  0  0  0  0
 22 20  1  1  0  0  0
 23 15  1  0  0  0  0
 23 14  1  0  0  0  0
 25 18  2  0  0  0  0
 26 25  1  0  0  0  0
 27 24  1  1  0  0  0
 27 12  1  0  0  0  0
 28 29  1  0  0  0  0
 28 30  1  0  0  0  0
 29 30  1  0  0  0  0
M  END
>  <MODEL>
7

>  <REMARK>
 VINA RESULT:      -7.2      1.672      4.986
  Name = 
  1 active torsions:
  status: ('A' for Active; 'I' for Inactive)
    1  A    between atoms: C_11  and  C_28
                            x       y       z     vdW  Elec       q    Type
                         _______ _______ _______ _____ _____    ______ ____

>  <TORSDO>
F 1

$$$$
=
 OpenBabel11122410303D

 30 36  0  0  1  0  0  0  0  0999 V2000
  186.9890  177.7170  138.0380 C   0  0  0  0  0  0  0  0  0  0  0  0
  185.3600  178.7300  139.5710 C   0  0  0  0  0  0  0  0  0  0  0  0
  189.7580  177.3260  141.1770 N   0  0  0  0  0  2  0  0  0  0  0  0
  188.3950  177.2250  137.7260 C   0  0  2  0  0  3  0  0  0  0  0  0
  186.0790  177.8260  136.8490 C   0  0  0  0  0  2  0  0  0  0  0  0
  188.0710  177.2890  134.7730 C   0  0  0  0  0  1  0  0  0  0  0  0
  190.9020  176.3860  136.5200 C   0  0  1  0  0  3  0  0  0  0  0  0
  187.5140  176.2140  135.6000 N   0  0  0  0  0  0  0  0  0  0  0  0
  191.3960  176.7170  137.9380 C   0  0  2  0  0  3  0  0  0  0  0  0
  190.9220  176.7340  140.5240 C   0  0  2  0  0  3  0  0  0  0  0  0
  186.1420  176.5340  136.0300 C   0  0  2  0  0  3  0  0  0  0  0  0
  188.3470  175.9910  136.7940 C   0  0  1  0  0  3  0  0  0  0  0  0
  185.0600  179.2010  140.8510 C   0  0  0  0  0  3  0  0  0  0  0  0
  192.7090  175.9890  138.0430 C   0  0  0  0  0  2  0  0  0  0  0  0
  192.0330  175.8840  135.7440 N   0  0  0  0  0  2  0  0  0  0  0  0
  184.3680  178.8510  138.6050 O   0  0  0  0  0  1  0  0  0  0  0  0
  188.7550  177.4700  140.1910 C   0  0  0  0  0  0  0  0  0  0  0  0
  185.9890  179.1140  141.8810 C   0  0  0  0  0  3  0  0  0  0  0  0
  186.6370  178.1570  139.2900 C   0  0  0  0  0  0  0  0  0  0  0  0
  189.1240  176.9240  138.9530 N   0  0  0  0  0  0  0  0  0  0  0  0
  191.9930  177.7210  140.4910 N   0  0  0  0  0  1  0  0  0  0  0  0
  190.4500  176.3360  139.0920 C   0  0  1  0  0  3  0  0  0  0  0  0
  193.2000  175.9240  136.6170 C   0  0  0  0  0  2  0  0  0  0  0  0
  189.9600  174.0620  137.0760 C   0  0  0  0  0  1  0  0  0  0  0  0
  187.2320  178.5400  141.6430 C   0  0  0  0  0  3  0  0  0  0  0  0
  187.5650  178.0530  140.3730 C   0  0  0  0  0  0  0  0  0  0  0  0
  189.7160  175.4060  136.4060 C   0  0  2  0  0  3  0  0  0  0  0  0
  185.1800  176.5850  134.8500 C   0  0  0  0  0  3  0  0  0  0  0  0
  184.1460  175.4850  134.9940 C   0  0  0  0  0  2  0  0  0  0  0  0
  183.7870  176.9120  135.3500 C   0  0  0  0  0  2  0  0  0  0  0  0
  1 19  2  0  0  0  0
  2 13  2  0  0  0  0
  4  1  1  1  0  0  0
  4 20  1  0  0  0  0
  5  1  1  0  0  0  0
  6  8  1  0  0  0  0
  7 15  1  6  0  0  0
  7  9  1  0  0  0  0
  8 11  1  0  0  0  0
  9 14  1  1  0  0  0
  9 22  1  0  0  0  0
 10 21  1  6  0  0  0
 10  3  1  0  0  0  0
 11 28  1  6  0  0  0
 11  5  1  0  0  0  0
 12  8  1  6  0  0  0
 12  4  1  0  0  0  0
 13 18  1  0  0  0  0
 15 23  1  0  0  0  0
 16  2  1  0  0  0  0
 17 26  2  0  0  0  0
 17  3  1  0  0  0  0
 19  2  1  0  0  0  0
 19 26  1  0  0  0  0
 20 17  1  0  0  0  0
 22 20  1  6  0  0  0
 22 10  1  0  0  0  0
 23 14  1  0  0  0  0
 25 18  2  0  0  0  0
 26 25  1  0  0  0  0
 27  7  1  0  0  0  0
 27 12  1  0  0  0  0
 27 24  1  1  0  0  0
 28 29  1  0  0  0  0
 28 30  1  0  0  0  0
 29 30  1  0  0  0  0
M  END
>  <MODEL>
8

>  <REMARK>
 VINA RESULT:      -7.1      2.770      6.164
  Name = 
  1 active torsions:
  status: ('A' for Active; 'I' for Inactive)
    1  A    between atoms: C_11  and  C_28
                            x       y       z     vdW  Elec       q    Type
                         _______ _______ _______ _____ _____    ______ ____

>  <TORSDO>
F 1

$$$$
=
 OpenBabel11122410303D

 30 36  0  0  1  0  0  0  0  0999 V2000
  184.7840  178.2390  141.5600 C   0  0  0  0  0  0  0  0  0  0  0  0
  185.9560  178.2040  143.7170 C   0  0  0  0  0  0  0  0  0  0  0  0
  181.2090  179.3440  143.4750 N   0  0  0  0  0  2  0  0  0  0  0  0
  183.5020  178.3190  140.7430 C   0  0  2  0  0  3  0  0  0  0  0  0
  186.0040  177.8320  140.7840 C   0  0  0  0  0  2  0  0  0  0  0  0
  184.6700  177.1610  138.2670 C   0  0  0  0  0  1  0  0  0  0  0  0
  181.4080  178.1730  138.7340 C   0  0  1  0  0  3  0  0  0  0  0  0
  184.9010  178.5530  138.6670 N   0  0  0  0  0  0  0  0  0  0  0  0
  180.5450  178.3430  139.9950 C   0  0  2  0  0  3  0  0  0  0  0  0
  180.2510  179.4220  142.3750 C   0  0  2  0  0  3  0  0  0  0  0  0
  186.1070  178.6690  139.5060 C   0  0  2  0  0  3  0  0  0  0  0  0
  183.7470  179.0780  139.4170 C   0  0  1  0  0  3  0  0  0  0  0  0
  185.9000  178.3320  145.1060 C   0  0  0  0  0  3  0  0  0  0  0  0
  179.2180  178.8160  139.4650 C   0  0  0  0  0  2  0  0  0  0  0  0
  180.5230  178.1280  137.5730 N   0  0  0  0  0  2  0  0  0  0  0  0
  187.1910  177.8880  143.1610 O   0  0  0  0  0  1  0  0  0  0  0  0
  182.4610  179.0000  142.9140 C   0  0  0  0  0  0  0  0  0  0  0  0
  184.7090  178.6530  145.7470 C   0  0  0  0  0  3  0  0  0  0  0  0
  184.7850  178.3920  142.9230 C   0  0  0  0  0  0  0  0  0  0  0  0
  182.4340  178.9460  141.5130 N   0  0  0  0  0  0  0  0  0  0  0  0
  179.2940  178.3330  142.5090 N   0  0  0  0  0  1  0  0  0  0  0  0
  181.0930  179.3030  141.0680 C   0  0  1  0  0  3  0  0  0  0  0  0
  179.1570  178.2320  138.0750 C   0  0  0  0  0  2  0  0  0  0  0  0
  182.0140  180.6540  138.4590 C   0  0  0  0  0  1  0  0  0  0  0  0
  183.5580  178.8650  145.0000 C   0  0  0  0  0  3  0  0  0  0  0  0
  183.5780  178.7510  143.6040 C   0  0  0  0  0  0  0  0  0  0  0  0
  182.5170  179.2190  138.5020 C   0  0  2  0  0  3  0  0  0  0  0  0
  187.3700  178.3260  138.7260 C   0  0  0  0  0  3  0  0  0  0  0  0
  188.5840  178.8030  139.4990 C   0  0  0  0  0  2  0  0  0  0  0  0
  188.2000  177.3390  139.5220 C   0  0  0  0  0  2  0  0  0  0  0  0
  1 19  2  0  0  0  0
  2 13  2  0  0  0  0
  4 20  1  0  0  0  0
  4  1  1  1  0  0  0
  5  1  1  0  0  0  0
  6  8  1  0  0  0  0
  7 15  1  6  0  0  0
  7  9  1  0  0  0  0
  8 11  1  0  0  0  0
  9 14  1  6  0  0  0
  9 22  1  0  0  0  0
 10 21  1  1  0  0  0
 10  3  1  0  0  0  0
 11 28  1  6  0  0  0
 11  5  1  0  0  0  0
 12  8  1  6  0  0  0
 12  4  1  0  0  0  0
 13 18  1  0  0  0  0
 15 23  1  0  0  0  0
 16  2  1  0  0  0  0
 17  3  1  0  0  0  0
 17 26  2  0  0  0  0
 19 26  1  0  0  0  0
 19  2  1  0  0  0  0
 20 17  1  0  0  0  0
 22 20  1  1  0  0  0
 22 10  1  0  0  0  0
 23 14  1  0  0  0  0
 25 18  2  0  0  0  0
 26 25  1  0  0  0  0
 27 24  1  1  0  0  0
 27  7  1  0  0  0  0
 27 12  1  0  0  0  0
 28 29  1  0  0  0  0
 28 30  1  0  0  0  0
 29 30  1  0  0  0  0
M  END
>  <MODEL>
9

>  <REMARK>
 VINA RESULT:      -6.6      2.729      5.292
  Name = 
  1 active torsions:
  status: ('A' for Active; 'I' for Inactive)
    1  A    between atoms: C_11  and  C_28
                            x       y       z     vdW  Elec       q    Type
                         _______ _______ _______ _____ _____    ______ ____

>  <TORSDO>
F 1

$$$$
