=
 OpenBabel11122411573D

 28 32  0  0  1  0  0  0  0  0999 V2000
  180.5740  176.4030  136.2040 C   0  0  0  0  0  0  0  0  0  0  0  0
  185.6360  175.4240  137.2070 C   0  0  0  0  0  1  0  0  0  0  0  0
  180.5300  177.7530  140.8300 O   0  0  0  0  0  0  0  0  0  0  0  0
  180.3830  179.1730  135.8290 C   0  0  0  0  0  3  0  0  0  0  0  0
  182.7360  178.3890  140.0840 C   0  0  1  0  0  3  0  0  0  0  0  0
  180.6280  174.9280  136.4590 C   0  0  0  0  0  2  0  0  0  0  0  0
  185.1630  176.2060  134.9170 C   0  0  0  0  0  1  0  0  0  0  0  0
  185.3910  176.6600  136.3460 C   0  0  0  0  0  0  0  0  0  0  0  0
  186.8040  178.3020  137.4740 C   0  0  0  0  0  0  0  0  0  0  0  0
  184.1670  177.4760  136.8210 C   0  0  2  0  0  3  0  0  0  0  0  0
  178.9310  176.3960  138.7340 O   0  0  0  0  0  1  0  0  0  0  0  0
  182.9420  176.3910  138.6290 C   0  0  1  0  0  3  0  0  0  0  0  0
  185.7870  178.5520  138.3940 O   0  0  0  0  0  0  0  0  0  0  0  0
  186.5560  177.4770  136.3800 O   0  0  0  0  0  0  0  0  0  0  0  0
  179.5310  175.1370  138.7970 C   0  0  2  0  0  3  0  0  0  0  0  0
  181.6610  177.2290  136.5520 C   0  0  0  0  0  0  0  0  0  0  0  0
  181.5280  177.5350  140.0910 C   0  0  0  0  0  0  0  0  0  0  0  0
  187.9420  178.8130  137.6350 O   0  0  0  0  0  0  0  0  0  0  0  0
  180.8910  175.1720  139.5000 C   0  0  0  0  0  2  0  0  0  0  0  0
  181.5430  178.6190  136.3750 C   0  0  0  0  0  3  0  0  0  0  0  0
  179.4200  176.9650  135.6410 C   0  0  0  0  0  3  0  0  0  0  0  0
  179.3260  178.3440  135.4530 C   0  0  0  0  0  3  0  0  0  0  0  0
  179.5420  174.4500  137.4270 C   0  0  0  0  0  2  0  0  0  0  0  0
  183.7330  177.5510  139.2490 C   0  0  1  0  0  3  0  0  0  0  0  0
  181.6210  176.4090  139.2370 N   0  0  0  0  0  0  0  0  0  0  0  0
  184.4130  178.2910  138.1000 C   0  0  2  0  0  3  0  0  0  0  0  0
  182.3950  179.7490  139.4850 C   0  0  0  0  0  1  0  0  0  0  0  0
  182.9350  176.6180  137.1090 C   0  0  1  0  0  3  0  0  0  0  0  0
  1  6  1  0  0  0  0
  1 16  1  0  0  0  0
  4 20  1  0  0  0  0
  5 27  1  6  0  0  0
  5 17  1  0  0  0  0
  6 23  1  0  0  0  0
  7  8  1  0  0  0  0
  8 14  1  0  0  0  0
  8  2  1  0  0  0  0
  9 18  2  0  0  0  0
  9 13  1  0  0  0  0
 10  8  1  1  0  0  0
 10 28  1  0  0  0  0
 10 26  1  0  0  0  0
 12 25  1  1  0  0  0
 12 24  1  0  0  0  0
 14  9  1  0  0  0  0
 15 11  1  6  0  0  0
 15 19  1  0  0  0  0
 16 28  1  0  0  0  0
 17  3  2  0  0  0  0
 20 16  2  0  0  0  0
 21  1  2  0  0  0  0
 22 21  1  0  0  0  0
 22  4  2  0  0  0  0
 23 15  1  0  0  0  0
 24  5  1  0  0  0  0
 25 19  1  0  0  0  0
 25 17  1  0  0  0  0
 26 13  1  0  0  0  0
 26 24  1  0  0  0  0
 28 12  1  0  0  0  0
M  END
>  <MODEL>
1

>  <REMARK>
 VINA RESULT:      -4.7      0.000      0.000
  Name = 
  0 active torsions:
  status: ('A' for Active; 'I' for Inactive)
                            x       y       z     vdW  Elec       q    Type
                         _______ _______ _______ _____ _____    ______ ____

>  <TORSDO>
F 0

$$$$
=
 OpenBabel11122411573D

 28 32  0  0  1  0  0  0  0  0999 V2000
  179.9880  179.2780  136.8880 C   0  0  0  0  0  0  0  0  0  0  0  0
  180.2990  174.4590  138.9520 C   0  0  0  0  0  1  0  0  0  0  0  0
  184.2820  179.8210  139.0070 O   0  0  0  0  0  0  0  0  0  0  0  0
  181.5940  179.2400  134.5940 C   0  0  0  0  0  3  0  0  0  0  0  0
  184.2790  177.5010  138.3370 C   0  0  1  0  0  3  0  0  0  0  0  0
  179.1700  179.3520  138.1420 C   0  0  0  0  0  2  0  0  0  0  0  0
  179.1390  174.5860  136.7800 C   0  0  0  0  0  1  0  0  0  0  0  0
  180.5030  174.5120  137.4410 C   0  0  0  0  0  0  0  0  0  0  0  0
  182.5140  173.1500  137.1910 C   0  0  0  0  0  0  0  0  0  0  0  0
  181.3450  175.7310  137.0010 C   0  0  2  0  0  3  0  0  0  0  0  0
  181.7500  181.2260  138.3740 O   0  0  0  0  0  1  0  0  0  0  0  0
  181.8650  177.2430  138.8430 C   0  0  1  0  0  3  0  0  0  0  0  0
  183.3060  174.2570  137.4920 O   0  0  0  0  0  0  0  0  0  0  0  0
  181.1420  173.3100  137.0240 O   0  0  0  0  0  0  0  0  0  0  0  0
  180.9660  180.7220  139.4130 C   0  0  2  0  0  3  0  0  0  0  0  0
  180.8580  178.1930  136.6660 C   0  0  0  0  0  0  0  0  0  0  0  0
  183.6430  178.7530  138.8030 C   0  0  0  0  0  0  0  0  0  0  0  0
  183.0360  172.0110  137.0790 O   0  0  0  0  0  0  0  0  0  0  0  0
  181.5690  179.4620  140.0420 C   0  0  0  0  0  2  0  0  0  0  0  0
  181.6710  178.1980  135.5190 C   0  0  0  0  0  3  0  0  0  0  0  0
  179.9040  180.3130  135.9460 C   0  0  0  0  0  3  0  0  0  0  0  0
  180.7030  180.2930  134.8030 C   0  0  0  0  0  3  0  0  0  0  0  0
  179.4980  180.5810  138.9940 C   0  0  0  0  0  2  0  0  0  0  0  0
  183.1470  176.4630  138.5210 C   0  0  1  0  0  3  0  0  0  0  0  0
  182.2560  178.6270  139.0620 N   0  0  0  0  0  0  0  0  0  0  0  0
  182.8470  175.5970  137.3000 C   0  0  2  0  0  3  0  0  0  0  0  0
  184.7520  177.6760  136.8990 C   0  0  0  0  0  1  0  0  0  0  0  0
  180.9100  177.0430  137.6560 C   0  0  1  0  0  3  0  0  0  0  0  0
  1  6  1  0  0  0  0
  4 22  2  0  0  0  0
  4 20  1  0  0  0  0
  5 27  1  6  0  0  0
  5 24  1  0  0  0  0
  5 17  1  0  0  0  0
  6 23  1  0  0  0  0
  7  8  1  0  0  0  0
  8  2  1  0  0  0  0
  9 13  1  0  0  0  0
 10 26  1  0  0  0  0
 10  8  1  1  0  0  0
 10 28  1  0  0  0  0
 12 25  1  6  0  0  0
 14  9  1  0  0  0  0
 14  8  1  0  0  0  0
 15 11  1  6  0  0  0
 15 19  1  0  0  0  0
 16  1  1  0  0  0  0
 16 28  1  0  0  0  0
 17  3  2  0  0  0  0
 17 25  1  0  0  0  0
 18  9  2  0  0  0  0
 20 16  2  0  0  0  0
 21  1  2  0  0  0  0
 22 21  1  0  0  0  0
 23 15  1  0  0  0  0
 24 12  1  0  0  0  0
 25 19  1  0  0  0  0
 26 13  1  0  0  0  0
 26 24  1  0  0  0  0
 28 12  1  0  0  0  0
M  END
>  <MODEL>
2

>  <REMARK>
 VINA RESULT:      -4.6      2.361      4.477
  Name = 
  0 active torsions:
  status: ('A' for Active; 'I' for Inactive)
                            x       y       z     vdW  Elec       q    Type
                         _______ _______ _______ _____ _____    ______ ____

>  <TORSDO>
F 0

$$$$
=
 OpenBabel11122411573D

 28 32  0  0  1  0  0  0  0  0999 V2000
  181.4850  179.1130  136.7960 C   0  0  0  0  0  0  0  0  0  0  0  0
  185.9320  176.7290  138.2540 C   0  0  0  0  0  1  0  0  0  0  0  0
  179.8800  177.3920  141.0020 O   0  0  0  0  0  0  0  0  0  0  0  0
  181.3950  181.5200  138.2260 C   0  0  0  0  0  3  0  0  0  0  0  0
  182.2000  177.8850  141.4500 C   0  0  1  0  0  3  0  0  0  0  0  0
  181.4700  177.8070  136.0620 C   0  0  0  0  0  2  0  0  0  0  0  0
  186.2420  178.8040  136.9590 C   0  0  0  0  0  1  0  0  0  0  0  0
  185.9740  178.2520  138.3460 C   0  0  0  0  0  0  0  0  0  0  0  0
  186.9070  178.5610  140.5810 C   0  0  0  0  0  0  0  0  0  0  0  0
  184.6510  178.8470  138.8810 C   0  0  2  0  0  3  0  0  0  0  0  0
  179.0900  177.9230  138.1940 O   0  0  0  0  0  1  0  0  0  0  0  0
  182.9060  177.1700  139.1830 C   0  0  1  0  0  3  0  0  0  0  0  0
  185.6380  178.4070  141.1370 O   0  0  0  0  0  0  0  0  0  0  0  0
  187.0490  178.6280  139.1980 O   0  0  0  0  0  0  0  0  0  0  0  0
  179.6510  176.7890  137.6020 C   0  0  2  0  0  3  0  0  0  0  0  0
  182.3830  179.3240  137.8610 C   0  0  0  0  0  0  0  0  0  0  0  0
  181.0700  177.4650  140.5930 C   0  0  0  0  0  0  0  0  0  0  0  0
  187.9200  178.6290  141.3240 O   0  0  0  0  0  0  0  0  0  0  0  0
  180.6970  176.1190  138.4970 C   0  0  0  0  0  2  0  0  0  0  0  0
  182.3130  180.5290  138.5810 C   0  0  0  0  0  3  0  0  0  0  0  0
  180.5780  180.1190  136.4350 C   0  0  0  0  0  3  0  0  0  0  0  0
  180.5350  181.3180  137.1470 C   0  0  0  0  0  3  0  0  0  0  0  0
  180.1280  177.0770  136.1740 C   0  0  0  0  0  2  0  0  0  0  0  0
  183.4290  177.5350  140.5780 C   0  0  1  0  0  3  0  0  0  0  0  0
  181.4570  177.0870  139.2830 N   0  0  0  0  0  0  0  0  0  0  0  0
  184.4440  178.6600  140.3920 C   0  0  2  0  0  3  0  0  0  0  0  0
  182.0610  179.3660  141.7830 C   0  0  0  0  0  1  0  0  0  0  0  0
  183.4040  178.2590  138.2190 C   0  0  1  0  0  3  0  0  0  0  0  0
  1 16  1  0  0  0  0
  2  8  1  0  0  0  0
  4 20  1  0  0  0  0
  5 27  1  6  0  0  0
  6 23  1  0  0  0  0
  6  1  1  0  0  0  0
  7  8  1  0  0  0  0
  8 14  1  0  0  0  0
  9 13  1  0  0  0  0
  9 18  2  0  0  0  0
 10  8  1  6  0  0  0
 10 26  1  0  0  0  0
 12 25  1  1  0  0  0
 12 24  1  0  0  0  0
 14  9  1  0  0  0  0
 15 11  1  1  0  0  0
 15 19  1  0  0  0  0
 16 28  1  0  0  0  0
 16 20  2  0  0  0  0
 17  3  2  0  0  0  0
 17  5  1  0  0  0  0
 19 25  1  0  0  0  0
 21  1  2  0  0  0  0
 21 22  1  0  0  0  0
 22  4  2  0  0  0  0
 23 15  1  0  0  0  0
 24  5  1  0  0  0  0
 25 17  1  0  0  0  0
 26 24  1  0  0  0  0
 26 13  1  0  0  0  0
 28 10  1  0  0  0  0
 28 12  1  0  0  0  0
M  END
>  <MODEL>
3

>  <REMARK>
 VINA RESULT:      -4.4      1.693      2.527
  Name = 
  0 active torsions:
  status: ('A' for Active; 'I' for Inactive)
                            x       y       z     vdW  Elec       q    Type
                         _______ _______ _______ _____ _____    ______ ____

>  <TORSDO>
F 0

$$$$
=
 OpenBabel11122411573D

 28 32  0  0  1  0  0  0  0  0999 V2000
  181.9290  178.2750  138.4410 C   0  0  0  0  0  0  0  0  0  0  0  0
  186.6170  177.9860  136.0910 C   0  0  0  0  0  1  0  0  0  0  0  0
  180.5500  175.5590  134.7060 O   0  0  0  0  0  0  0  0  0  0  0  0
  181.5920  175.8450  139.7930 C   0  0  0  0  0  3  0  0  0  0  0  0
  182.8070  174.8170  135.1330 C   0  0  1  0  0  3  0  0  0  0  0  0
  182.0480  179.5610  137.6800 C   0  0  0  0  0  2  0  0  0  0  0  0
  186.6930  178.0640  138.5540 C   0  0  0  0  0  1  0  0  0  0  0  0
  186.4950  177.1490  137.3610 C   0  0  0  0  0  0  0  0  0  0  0  0
  187.4070  175.0140  136.6030 C   0  0  0  0  0  0  0  0  0  0  0  0
  185.1200  176.4520  137.4790 C   0  0  2  0  0  3  0  0  0  0  0  0
  179.6860  177.7680  136.4870 O   0  0  0  0  0  1  0  0  0  0  0  0
  183.5680  177.1040  135.7150 C   0  0  1  0  0  3  0  0  0  0  0  0
  186.1660  174.6670  136.0710 O   0  0  0  0  0  0  0  0  0  0  0  0
  187.5310  176.1720  137.3650 O   0  0  0  0  0  0  0  0  0  0  0  0
  180.3610  178.8170  135.8590 C   0  0  2  0  0  3  0  0  0  0  0  0
  182.8070  177.2050  138.1780 C   0  0  0  0  0  0  0  0  0  0  0  0
  181.7220  175.8220  135.0880 C   0  0  0  0  0  0  0  0  0  0  0  0
  188.4120  174.2880  136.3890 O   0  0  0  0  0  0  0  0  0  0  0  0
  181.4800  178.3240  134.9370 C   0  0  0  0  0  2  0  0  0  0  0  0
  182.6130  175.9860  138.8510 C   0  0  0  0  0  3  0  0  0  0  0  0
  180.9160  178.1320  139.4000 C   0  0  0  0  0  3  0  0  0  0  0  0
  180.7500  176.9220  140.0740 C   0  0  0  0  0  3  0  0  0  0  0  0
  180.7940  179.8890  136.8660 C   0  0  0  0  0  2  0  0  0  0  0  0
  184.0600  175.6890  135.3850 C   0  0  1  0  0  3  0  0  0  0  0  0
  182.1370  177.1270  135.4530 N   0  0  0  0  0  0  0  0  0  0  0  0
  184.9460  175.2430  136.5450 C   0  0  2  0  0  3  0  0  0  0  0  0
  182.5120  173.7990  136.2280 C   0  0  0  0  0  1  0  0  0  0  0  0
  183.9390  177.3760  137.1810 C   0  0  1  0  0  3  0  0  0  0  0  0
  1 21  1  0  0  0  0
  2  8  1  0  0  0  0
  3 17  2  0  0  0  0
  4 22  1  0  0  0  0
  5 24  1  0  0  0  0
  5 27  1  1  0  0  0
  6  1  1  0  0  0  0
  8 14  1  0  0  0  0
  8  7  1  0  0  0  0
  9 14  1  0  0  0  0
 10  8  1  6  0  0  0
 12 25  1  1  0  0  0
 12 28  1  0  0  0  0
 13 26  1  0  0  0  0
 13  9  1  0  0  0  0
 15 11  1  1  0  0  0
 15 23  1  0  0  0  0
 16  1  2  0  0  0  0
 16 20  1  0  0  0  0
 17  5  1  0  0  0  0
 17 25  1  0  0  0  0
 18  9  2  0  0  0  0
 19 25  1  0  0  0  0
 19 15  1  0  0  0  0
 20  4  2  0  0  0  0
 21 22  2  0  0  0  0
 23  6  1  0  0  0  0
 24 12  1  0  0  0  0
 24 26  1  0  0  0  0
 26 10  1  0  0  0  0
 28 10  1  0  0  0  0
 28 16  1  0  0  0  0
M  END
>  <MODEL>
4

>  <REMARK>
 VINA RESULT:      -4.3      2.049      4.306
  Name = 
  0 active torsions:
  status: ('A' for Active; 'I' for Inactive)
                            x       y       z     vdW  Elec       q    Type
                         _______ _______ _______ _____ _____    ______ ____

>  <TORSDO>
F 0

$$$$
=
 OpenBabel11122411573D

 28 32  0  0  1  0  0  0  0  0999 V2000
  185.2910  174.9710  136.6970 C   0  0  0  0  0  0  0  0  0  0  0  0
  182.5150  177.5040  140.3660 C   0  0  0  0  0  1  0  0  0  0  0  0
  180.9740  174.4810  134.6130 O   0  0  0  0  0  0  0  0  0  0  0  0
  185.6330  176.7910  134.5950 C   0  0  0  0  0  3  0  0  0  0  0  0
  180.8330  176.6380  135.6870 C   0  0  1  0  0  3  0  0  0  0  0  0
  185.0750  173.9530  137.7750 C   0  0  0  0  0  2  0  0  0  0  0  0
  184.7950  178.3720  140.0050 C   0  0  0  0  0  1  0  0  0  0  0  0
  183.3700  178.4100  139.4850 C   0  0  0  0  0  0  0  0  0  0  0  0
  181.7560  180.1420  138.8860 C   0  0  0  0  0  0  0  0  0  0  0  0
  183.3600  177.9720  138.0020 C   0  0  2  0  0  3  0  0  0  0  0  0
  183.5490  173.0950  135.1000 O   0  0  0  0  0  1  0  0  0  0  0  0
  182.1640  175.8790  137.6370 C   0  0  1  0  0  3  0  0  0  0  0  0
  181.2700  179.3390  137.8560 O   0  0  0  0  0  0  0  0  0  0  0  0
  182.8860  179.7440  139.5950 O   0  0  0  0  0  0  0  0  0  0  0  0
  183.3040  172.6520  136.4020 C   0  0  2  0  0  3  0  0  0  0  0  0
  184.5430  176.1650  136.6820 C   0  0  0  0  0  0  0  0  0  0  0  0
  181.2970  175.2390  135.5670 C   0  0  0  0  0  0  0  0  0  0  0  0
  181.1710  181.2160  139.1810 O   0  0  0  0  0  0  0  0  0  0  0  0
  182.1470  173.4040  137.0670 C   0  0  0  0  0  2  0  0  0  0  0  0
  184.7130  177.0590  135.6100 C   0  0  0  0  0  3  0  0  0  0  0  0
  186.2260  174.7160  135.6830 C   0  0  0  0  0  3  0  0  0  0  0  0
  186.3960  175.6240  134.6370 C   0  0  0  0  0  3  0  0  0  0  0  0
  184.5920  172.6050  137.2320 C   0  0  0  0  0  2  0  0  0  0  0  0
  181.2630  177.0110  137.1250 C   0  0  1  0  0  3  0  0  0  0  0  0
  182.0880  174.8040  136.6600 N   0  0  0  0  0  0  0  0  0  0  0  0
  182.0580  178.3070  137.2570 C   0  0  2  0  0  3  0  0  0  0  0  0
  181.4790  177.4830  134.5940 C   0  0  0  0  0  1  0  0  0  0  0  0
  183.5720  176.4700  137.8080 C   0  0  1  0  0  3  0  0  0  0  0  0
  1  6  1  0  0  0  0
  3 17  2  0  0  0  0
  4 22  2  0  0  0  0
  4 20  1  0  0  0  0
  5 27  1  6  0  0  0
  5 24  1  0  0  0  0
  8 14  1  0  0  0  0
  8  7  1  0  0  0  0
  8  2  1  0  0  0  0
  9 18  2  0  0  0  0
  9 14  1  0  0  0  0
 10  8  1  1  0  0  0
 12 25  1  6  0  0  0
 12 28  1  0  0  0  0
 13  9  1  0  0  0  0
 15 11  1  6  0  0  0
 15 19  1  0  0  0  0
 15 23  1  0  0  0  0
 16  1  1  0  0  0  0
 16 28  1  0  0  0  0
 17  5  1  0  0  0  0
 17 25  1  0  0  0  0
 20 16  2  0  0  0  0
 21  1  2  0  0  0  0
 22 21  1  0  0  0  0
 23  6  1  0  0  0  0
 24 26  1  0  0  0  0
 24 12  1  0  0  0  0
 25 19  1  0  0  0  0
 26 13  1  0  0  0  0
 26 10  1  0  0  0  0
 28 10  1  0  0  0  0
M  END
>  <MODEL>
5

>  <REMARK>
 VINA RESULT:      -4.2      2.422      4.981
  Name = 
  0 active torsions:
  status: ('A' for Active; 'I' for Inactive)
                            x       y       z     vdW  Elec       q    Type
                         _______ _______ _______ _____ _____    ______ ____

>  <TORSDO>
F 0

$$$$
=
 OpenBabel11122411573D

 28 32  0  0  1  0  0  0  0  0999 V2000
  180.8310  176.4750  136.6400 C   0  0  0  0  0  0  0  0  0  0  0  0
  181.1040  181.7040  136.2320 C   0  0  0  0  0  1  0  0  0  0  0  0
  183.6290  177.2230  140.4920 O   0  0  0  0  0  0  0  0  0  0  0  0
  178.9380  175.9550  138.6390 C   0  0  0  0  0  3  0  0  0  0  0  0
  182.1990  179.1680  140.4550 C   0  0  1  0  0  3  0  0  0  0  0  0
  181.8920  176.7170  135.6110 C   0  0  0  0  0  2  0  0  0  0  0  0
  178.9640  180.7160  135.5070 C   0  0  0  0  0  1  0  0  0  0  0  0
  179.7550  181.1800  136.7150 C   0  0  0  0  0  0  0  0  0  0  0  0
  179.3530  182.6270  138.6400 C   0  0  0  0  0  0  0  0  0  0  0  0
  179.9020  180.0020  137.7070 C   0  0  2  0  0  3  0  0  0  0  0  0
  183.1510  175.3740  138.2240 O   0  0  0  0  0  1  0  0  0  0  0  0
  182.2110  179.2670  137.9780 C   0  0  1  0  0  3  0  0  0  0  0  0
  180.1370  181.7940  139.4370 O   0  0  0  0  0  0  0  0  0  0  0  0
  179.0470  182.2460  137.3370 O   0  0  0  0  0  0  0  0  0  0  0  0
  183.8170  176.0900  137.2280 C   0  0  2  0  0  3  0  0  0  0  0  0
  180.3770  177.5280  137.4600 C   0  0  0  0  0  0  0  0  0  0  0  0
  182.9700  178.0700  139.8310 C   0  0  0  0  0  0  0  0  0  0  0  0
  178.9310  183.7220  139.0940 O   0  0  0  0  0  0  0  0  0  0  0  0
  184.0500  177.5530  137.6160 C   0  0  0  0  0  2  0  0  0  0  0  0
  179.4410  177.2470  138.4710 C   0  0  0  0  0  3  0  0  0  0  0  0
  180.3080  175.1850  136.8040 C   0  0  0  0  0  3  0  0  0  0  0  0
  179.3650  174.9270  137.7980 C   0  0  0  0  0  3  0  0  0  0  0  0
  183.1590  175.8940  135.8570 C   0  0  0  0  0  2  0  0  0  0  0  0
  181.8350  180.0530  139.2400 C   0  0  1  0  0  3  0  0  0  0  0  0
  182.9560  178.0970  138.4140 N   0  0  0  0  0  0  0  0  0  0  0  0
  180.3580  180.4190  139.1140 C   0  0  2  0  0  3  0  0  0  0  0  0
  181.0010  178.5880  141.1990 C   0  0  0  0  0  1  0  0  0  0  0  0
  180.8990  178.9380  137.2480 C   0  0  1  0  0  3  0  0  0  0  0  0
  1 21  2  0  0  0  0
  1 16  1  0  0  0  0
  2  8  1  0  0  0  0
  5 27  1  6  0  0  0
  6 23  1  0  0  0  0
  6  1  1  0  0  0  0
  7  8  1  0  0  0  0
  8 14  1  0  0  0  0
  9 18  2  0  0  0  0
  9 13  1  0  0  0  0
 10  8  1  6  0  0  0
 10 26  1  0  0  0  0
 12 25  1  1  0  0  0
 12 24  1  0  0  0  0
 14  9  1  0  0  0  0
 15 19  1  0  0  0  0
 15 11  1  1  0  0  0
 16 20  2  0  0  0  0
 17  5  1  0  0  0  0
 17  3  2  0  0  0  0
 19 25  1  0  0  0  0
 20  4  1  0  0  0  0
 21 22  1  0  0  0  0
 22  4  2  0  0  0  0
 23 15  1  0  0  0  0
 24  5  1  0  0  0  0
 25 17  1  0  0  0  0
 26 24  1  0  0  0  0
 26 13  1  0  0  0  0
 28 16  1  0  0  0  0
 28 10  1  0  0  0  0
 28 12  1  0  0  0  0
M  END
>  <MODEL>
6

>  <REMARK>
 VINA RESULT:      -4.0      2.626      5.069
  Name = 
  0 active torsions:
  status: ('A' for Active; 'I' for Inactive)
                            x       y       z     vdW  Elec       q    Type
                         _______ _______ _______ _____ _____    ______ ____

>  <TORSDO>
F 0

$$$$
=
 OpenBabel11122411573D

 28 32  0  0  1  0  0  0  0  0999 V2000
  180.1690  173.8820  136.9390 C   0  0  0  0  0  0  0  0  0  0  0  0
  185.2440  172.9370  137.9010 C   0  0  0  0  0  1  0  0  0  0  0  0
  181.2130  178.1750  138.8650 O   0  0  0  0  0  0  0  0  0  0  0  0
  180.1000  175.4180  134.5980 C   0  0  0  0  0  3  0  0  0  0  0  0
  183.2470  177.5690  137.7160 C   0  0  1  0  0  3  0  0  0  0  0  0
  180.1710  173.1140  138.2260 C   0  0  0  0  0  2  0  0  0  0  0  0
  184.3500  171.8450  135.8800 C   0  0  0  0  0  1  0  0  0  0  0  0
  184.9100  173.1440  136.4270 C   0  0  0  0  0  0  0  0  0  0  0  0
  186.6450  174.7330  135.7720 C   0  0  0  0  0  0  0  0  0  0  0  0
  183.8770  174.2730  136.2090 C   0  0  2  0  0  3  0  0  0  0  0  0
  179.1090  176.0920  138.6990 O   0  0  0  0  0  1  0  0  0  0  0  0
  182.9940  175.1710  138.2970 C   0  0  1  0  0  3  0  0  0  0  0  0
  185.8690  175.7850  136.2550 O   0  0  0  0  0  0  0  0  0  0  0  0
  186.1100  173.4480  135.7260 O   0  0  0  0  0  0  0  0  0  0  0  0
  179.6170  175.2060  139.6510 C   0  0  2  0  0  3  0  0  0  0  0  0
  181.3610  174.4400  136.4380 C   0  0  0  0  0  0  0  0  0  0  0  0
  182.0110  177.2800  138.4750 C   0  0  0  0  0  0  0  0  0  0  0  0
  187.8250  174.9400  135.3890 O   0  0  0  0  0  0  0  0  0  0  0  0
  181.0950  175.4630  139.9590 C   0  0  0  0  0  2  0  0  0  0  0  0
  181.3070  175.2250  135.2720 C   0  0  0  0  0  3  0  0  0  0  0  0
  178.9630  174.0670  136.2470 C   0  0  0  0  0  3  0  0  0  0  0  0
  178.9310  174.8310  135.0800 C   0  0  0  0  0  3  0  0  0  0  0  0
  179.2850  173.7510  139.3000 C   0  0  0  0  0  2  0  0  0  0  0  0
  183.9800  176.2060  137.7400 C   0  0  1  0  0  3  0  0  0  0  0  0
  181.8380  175.9080  138.7830 N   0  0  0  0  0  0  0  0  0  0  0  0
  184.4490  175.6890  136.3820 C   0  0  2  0  0  3  0  0  0  0  0  0
  182.8830  178.0680  136.3220 C   0  0  0  0  0  1  0  0  0  0  0  0
  182.6770  174.1940  137.1540 C   0  0  1  0  0  3  0  0  0  0  0  0
  1  6  1  0  0  0  0
  4 22  2  0  0  0  0
  4 20  1  0  0  0  0
  5 27  1  6  0  0  0
  5 24  1  0  0  0  0
  5 17  1  0  0  0  0
  6 23  1  0  0  0  0
  7  8  1  0  0  0  0
  8  2  1  0  0  0  0
  9 13  1  0  0  0  0
 10 26  1  0  0  0  0
 10  8  1  1  0  0  0
 10 28  1  0  0  0  0
 12 25  1  6  0  0  0
 13 26  1  0  0  0  0
 14  9  1  0  0  0  0
 14  8  1  0  0  0  0
 15 11  1  6  0  0  0
 15 19  1  0  0  0  0
 16  1  1  0  0  0  0
 16 28  1  0  0  0  0
 17 25  1  0  0  0  0
 17  3  2  0  0  0  0
 18  9  2  0  0  0  0
 20 16  2  0  0  0  0
 21  1  2  0  0  0  0
 22 21  1  0  0  0  0
 23 15  1  0  0  0  0
 24 12  1  0  0  0  0
 25 19  1  0  0  0  0
 26 24  1  0  0  0  0
 28 12  1  0  0  0  0
M  END
>  <MODEL>
7

>  <REMARK>
 VINA RESULT:      -3.9      1.988      2.936
  Name = 
  0 active torsions:
  status: ('A' for Active; 'I' for Inactive)
                            x       y       z     vdW  Elec       q    Type
                         _______ _______ _______ _____ _____    ______ ____

>  <TORSDO>
F 0

$$$$
=
 OpenBabel11122411573D

 28 32  0  0  1  0  0  0  0  0999 V2000
  183.1320  177.3880  136.2480 C   0  0  0  0  0  0  0  0  0  0  0  0
  183.4130  177.5720  141.4890 C   0  0  0  0  0  1  0  0  0  0  0  0
  180.6710  173.3360  137.1130 O   0  0  0  0  0  0  0  0  0  0  0  0
  180.5700  178.3040  135.5800 C   0  0  0  0  0  3  0  0  0  0  0  0
  180.0660  174.7620  138.9640 C   0  0  1  0  0  3  0  0  0  0  0  0
  184.4860  176.8360  136.5720 C   0  0  0  0  0  2  0  0  0  0  0  0
  183.2720  179.7680  140.3790 C   0  0  0  0  0  1  0  0  0  0  0  0
  182.4570  178.5880  140.8730 C   0  0  0  0  0  0  0  0  0  0  0  0
  180.4750  178.2700  142.2640 C   0  0  0  0  0  0  0  0  0  0  0  0
  181.6500  178.0000  139.6930 C   0  0  2  0  0  3  0  0  0  0  0  0
  182.6360  174.5770  135.2710 O   0  0  0  0  0  1  0  0  0  0  0  0
  182.3410  175.7380  139.1010 C   0  0  1  0  0  3  0  0  0  0  0  0
  180.0850  177.1920  141.4700 O   0  0  0  0  0  0  0  0  0  0  0  0
  181.5650  179.0470  141.8840 O   0  0  0  0  0  0  0  0  0  0  0  0
  183.7860  174.3970  136.0430 C   0  0  2  0  0  3  0  0  0  0  0  0
  182.1600  177.5340  137.2570 C   0  0  0  0  0  0  0  0  0  0  0  0
  180.9850  174.2450  137.9270 C   0  0  0  0  0  0  0  0  0  0  0  0
  179.8490  178.5340  143.3230 O   0  0  0  0  0  0  0  0  0  0  0  0
  183.4650  174.1060  137.5120 C   0  0  0  0  0  2  0  0  0  0  0  0
  180.8730  177.9760  136.9030 C   0  0  0  0  0  3  0  0  0  0  0  0
  182.8250  177.7350  134.9250 C   0  0  0  0  0  3  0  0  0  0  0  0
  181.5500  178.1930  134.5940 C   0  0  0  0  0  3  0  0  0  0  0  0
  184.7920  175.5340  135.8260 C   0  0  0  0  0  2  0  0  0  0  0  0
  181.0030  175.6230  139.8430 C   0  0  1  0  0  3  0  0  0  0  0  0
  182.2790  174.8210  137.9730 N   0  0  0  0  0  0  0  0  0  0  0  0
  180.5220  177.0460  140.1170 C   0  0  2  0  0  3  0  0  0  0  0  0
  178.9330  175.5360  138.2990 C   0  0  0  0  0  1  0  0  0  0  0  0
  182.5050  177.2120  138.7010 C   0  0  1  0  0  3  0  0  0  0  0  0
  1  6  1  0  0  0  0
  1 16  1  0  0  0  0
  3 17  2  0  0  0  0
  4 20  1  0  0  0  0
  5 27  1  6  0  0  0
  5 24  1  0  0  0  0
  7  8  1  0  0  0  0
  8  2  1  0  0  0  0
  8 14  1  0  0  0  0
  9 18  2  0  0  0  0
 10 26  1  0  0  0  0
 10  8  1  1  0  0  0
 12 25  1  6  0  0  0
 12 24  1  0  0  0  0
 13  9  1  0  0  0  0
 14  9  1  0  0  0  0
 15 11  1  6  0  0  0
 15 19  1  0  0  0  0
 16 28  1  0  0  0  0
 17 25  1  0  0  0  0
 17  5  1  0  0  0  0
 19 25  1  0  0  0  0
 20 16  2  0  0  0  0
 21  1  2  0  0  0  0
 22 21  1  0  0  0  0
 22  4  2  0  0  0  0
 23 15  1  0  0  0  0
 23  6  1  0  0  0  0
 24 26  1  0  0  0  0
 26 13  1  0  0  0  0
 28 12  1  0  0  0  0
 28 10  1  0  0  0  0
M  END
>  <MODEL>
8

>  <REMARK>
 VINA RESULT:      -3.9      2.416      4.900
  Name = 
  0 active torsions:
  status: ('A' for Active; 'I' for Inactive)
                            x       y       z     vdW  Elec       q    Type
                         _______ _______ _______ _____ _____    ______ ____

>  <TORSDO>
F 0

$$$$
=
 OpenBabel11122411573D

 28 32  0  0  1  0  0  0  0  0999 V2000
  181.8820  177.3620  135.3540 C   0  0  0  0  0  0  0  0  0  0  0  0
  186.0930  176.8170  138.4450 C   0  0  0  0  0  1  0  0  0  0  0  0
  179.6380  175.2020  139.0310 O   0  0  0  0  0  0  0  0  0  0  0  0
  180.4790  179.5750  136.3460 C   0  0  0  0  0  3  0  0  0  0  0  0
  181.3390  176.5270  140.1170 C   0  0  1  0  0  3  0  0  0  0  0  0
  182.5730  176.1390  134.8360 C   0  0  0  0  0  2  0  0  0  0  0  0
  186.0870  178.8480  137.0470 C   0  0  0  0  0  1  0  0  0  0  0  0
  185.5690  178.2460  138.3400 C   0  0  0  0  0  0  0  0  0  0  0  0
  185.5120  178.8980  140.6920 C   0  0  0  0  0  0  0  0  0  0  0  0
  184.0240  178.3100  138.3460 C   0  0  2  0  0  3  0  0  0  0  0  0
  179.7260  175.3780  136.0730 O   0  0  0  0  0  1  0  0  0  0  0  0
  182.9800  176.1070  138.3050 C   0  0  1  0  0  3  0  0  0  0  0  0
  184.2670  178.2880  140.8360 O   0  0  0  0  0  0  0  0  0  0  0  0
  186.0860  179.0030  139.4290 O   0  0  0  0  0  0  0  0  0  0  0  0
  180.8120  174.5290  135.8460 C   0  0  2  0  0  3  0  0  0  0  0  0
  182.2280  177.9010  136.6090 C   0  0  0  0  0  0  0  0  0  0  0  0
  180.7920  175.7090  139.0120 C   0  0  0  0  0  0  0  0  0  0  0  0
  186.1170  179.3440  141.7010 O   0  0  0  0  0  0  0  0  0  0  0  0
  181.6510  174.3040  137.1070 C   0  0  0  0  0  2  0  0  0  0  0  0
  181.5020  179.0000  137.1020 C   0  0  0  0  0  3  0  0  0  0  0  0
  180.8650  177.9560  134.5940 C   0  0  0  0  0  3  0  0  0  0  0  0
  180.1670  179.0590  135.0880 C   0  0  0  0  0  3  0  0  0  0  0  0
  181.6170  174.9630  134.6160 C   0  0  0  0  0  2  0  0  0  0  0  0
  182.8320  176.6520  139.7320 C   0  0  1  0  0  3  0  0  0  0  0  0
  181.7100  175.4910  137.9540 N   0  0  0  0  0  0  0  0  0  0  0  0
  183.3910  178.0730  139.7260 C   0  0  2  0  0  3  0  0  0  0  0  0
  180.5890  177.8520  140.1870 C   0  0  0  0  0  1  0  0  0  0  0  0
  183.3670  177.2950  137.4110 C   0  0  1  0  0  3  0  0  0  0  0  0
  1 16  1  0  0  0  0
  4 20  1  0  0  0  0
  5 27  1  6  0  0  0
  6  1  1  0  0  0  0
  7  8  1  0  0  0  0
  8  2  1  0  0  0  0
  8 14  1  0  0  0  0
  9 13  1  0  0  0  0
  9 18  2  0  0  0  0
 10  8  1  1  0  0  0
 10 26  1  0  0  0  0
 12 25  1  6  0  0  0
 12 24  1  0  0  0  0
 14  9  1  0  0  0  0
 15 11  1  1  0  0  0
 15 19  1  0  0  0  0
 16 20  2  0  0  0  0
 16 28  1  0  0  0  0
 17  3  2  0  0  0  0
 17  5  1  0  0  0  0
 19 25  1  0  0  0  0
 21 22  1  0  0  0  0
 21  1  2  0  0  0  0
 22  4  2  0  0  0  0
 23  6  1  0  0  0  0
 23 15  1  0  0  0  0
 24  5  1  0  0  0  0
 25 17  1  0  0  0  0
 26 24  1  0  0  0  0
 26 13  1  0  0  0  0
 28 12  1  0  0  0  0
 28 10  1  0  0  0  0
M  END
>  <MODEL>
9

>  <REMARK>
 VINA RESULT:      -3.8      1.664      2.488
  Name = 
  0 active torsions:
  status: ('A' for Active; 'I' for Inactive)
                            x       y       z     vdW  Elec       q    Type
                         _______ _______ _______ _____ _____    ______ ____

>  <TORSDO>
F 0

$$$$
