=
 OpenBabel11122410373D

 32 37  0  0  1  0  0  0  0  0999 V2000
  193.1750  174.1420  136.9730 C   0  0  0  0  0  2  0  0  0  0  0  0
  189.2770  177.5960  139.1440 C   0  0  1  0  0  3  0  0  0  0  0  0
  191.5050  175.9760  143.1180 C   0  0  0  0  0  2  0  0  0  0  0  0
  190.2510  176.2420  143.9690 C   0  0  0  0  0  2  0  0  0  0  0  0
  186.7920  178.0130  139.2280 C   0  0  0  0  0  0  0  0  0  0  0  0
  185.7170  178.5450  140.0000 N   0  0  0  0  0  0  0  0  0  0  0  0
  190.7790  176.3320  137.5730 C   0  0  1  0  0  3  0  0  0  0  0  0
  191.7210  177.8700  139.2650 C   0  0  0  0  0  2  0  0  0  0  0  0
  184.5540  179.0920  141.7960 C   0  0  0  0  0  0  0  0  0  0  0  0
  193.2820  176.4930  137.8920 C   0  0  0  0  0  2  0  0  0  0  0  0
  191.6840  177.0380  142.0260 C   0  0  0  0  0  2  0  0  0  0  0  0
  190.4440  177.9310  140.0010 N   0  0  2  0  0  0  0  0  0  0  0  0
  190.4110  177.0630  141.1820 C   0  0  2  0  0  3  0  0  0  0  0  0
  188.1020  178.0360  141.3240 N   0  0  2  0  0  0  0  0  0  0  0  0
  183.7950  179.4410  140.6890 C   0  0  0  0  0  3  0  0  0  0  0  0
  191.6950  173.9460  137.2740 C   0  0  0  0  0  2  0  0  0  0  0  0
  191.9210  176.5310  138.5670 C   0  0  2  0  0  3  0  0  0  0  0  0
  184.5550  179.0830  139.5780 C   0  0  0  0  0  3  0  0  0  0  0  0
  190.8920  175.0940  136.6730 C   0  0  0  0  0  2  0  0  0  0  0  0
  193.8470  175.0820  137.9740 C   0  0  2  0  0  3  0  0  0  0  0  0
  188.9980  176.4070  143.1010 C   0  0  0  0  0  2  0  0  0  0  0  0
  189.2670  177.5180  142.0830 C   0  0  1  0  0  3  0  0  0  0  0  0
  186.8560  177.9540  142.1090 C   0  0  0  0  0  2  0  0  0  0  0  0
  189.4760  176.2970  138.3470 C   0  0  0  0  0  2  0  0  0  0  0  0
  186.7160  177.9640  137.9710 O   0  0  0  0  0  0  0  0  0  0  0  0
  184.1520  179.2590  143.2190 C   0  0  0  0  0  1  0  0  0  0  0  0
  187.9760  177.4320  139.9700 C   0  0  2  0  0  3  0  0  0  0  0  0
  185.7300  178.5570  141.3330 C   0  0  0  0  0  0  0  0  0  0  0  0
  195.2800  175.1270  137.7180 N   0  0  0  0  0  2  0  0  0  0  0  0
  196.1980  174.2100  138.3150 C   0  0  0  0  0  0  0  0  0  0  0  0
  195.7960  173.3280  139.1190 O   0  0  0  0  0  0  0  0  0  0  0  0
  197.6450  174.3020  137.9860 C   0  0  0  0  0  1  0  0  0  0  0  0
  1 16  1  0  0  0  0
  1 20  1  0  0  0  0
  2 24  1  1  0  0  0
  2 27  1  0  0  0  0
  2 12  1  0  0  0  0
  3  4  1  0  0  0  0
  5  6  1  0  0  0  0
  6 28  1  0  0  0  0
  7 19  1  1  0  0  0
  7 24  1  0  0  0  0
  7 17  1  0  0  0  0
  9 26  1  0  0  0  0
 10 20  1  0  0  0  0
 11  3  1  0  0  0  0
 12  8  1  6  0  0  0
 12 13  1  0  0  0  0
 13 11  1  1  0  0  0
 13 22  1  0  0  0  0
 14 22  1  0  0  0  0
 14 23  1  1  0  0  0
 15  9  1  0  0  0  0
 17 10  1  6  0  0  0
 17  8  1  0  0  0  0
 18  6  1  0  0  0  0
 18 15  2  0  0  0  0
 19 16  1  0  0  0  0
 20 29  1  6  0  0  0
 21  4  1  0  0  0  0
 22 21  1  6  0  0  0
 25  5  2  0  0  0  0
 27  5  1  6  0  0  0
 27 14  1  0  0  0  0
 28  9  2  0  0  0  0
 28 23  1  0  0  0  0
 29 30  1  0  0  0  0
 30 31  2  0  0  0  0
 32 30  1  0  0  0  0
M  END
>  <MODEL>
1

>  <REMARK>
 VINA RESULT:      -7.4      0.000      0.000
  Name = 
  1 active torsions:
  status: ('A' for Active; 'I' for Inactive)
    1  A    between atoms: C_20  and  N_29
                            x       y       z     vdW  Elec       q    Type
                         _______ _______ _______ _____ _____    ______ ____

>  <TORSDO>
F 1

$$$$
=
 OpenBabel11122410373D

 32 37  0  0  1  0  0  0  0  0999 V2000
  180.2260  177.6010  138.6270 C   0  0  0  0  0  2  0  0  0  0  0  0
  185.0670  178.6970  141.3100 C   0  0  1  0  0  3  0  0  0  0  0  0
  186.6050  177.6930  136.8370 C   0  0  0  0  0  2  0  0  0  0  0  0
  187.9850  177.2720  137.3710 C   0  0  0  0  0  2  0  0  0  0  0  0
  186.4800  177.9790  143.2700 C   0  0  0  0  0  0  0  0  0  0  0  0
  187.8050  177.8840  143.7910 N   0  0  0  0  0  0  0  0  0  0  0  0
  182.6370  178.4320  140.7240 C   0  0  1  0  0  3  0  0  0  0  0  0
  184.0840  179.9860  139.4560 C   0  0  0  0  0  2  0  0  0  0  0  0
  189.9980  177.6270  143.7840 C   0  0  0  0  0  0  0  0  0  0  0  0
  181.7440  179.6200  138.6780 C   0  0  0  0  0  2  0  0  0  0  0  0
  186.0210  178.8610  137.6390 C   0  0  0  0  0  2  0  0  0  0  0  0
  185.3110  179.3880  140.0170 N   0  0  2  0  0  0  0  0  0  0  0  0
  185.9660  178.4440  139.1070 C   0  0  2  0  0  3  0  0  0  0  0  0
  187.5360  178.2890  141.0580 N   0  0  2  0  0  0  0  0  0  0  0  0
  189.6010  177.7560  145.1060 C   0  0  0  0  0  3  0  0  0  0  0  0
  181.1100  176.7430  139.5230 C   0  0  0  0  0  2  0  0  0  0  0  0
  182.9540  178.9730  139.3310 C   0  0  2  0  0  3  0  0  0  0  0  0
  188.2170  177.9150  145.0730 C   0  0  0  0  0  3  0  0  0  0  0  0
  181.4230  177.4980  140.8110 C   0  0  0  0  0  2  0  0  0  0  0  0
  181.0380  178.5970  137.7990 C   0  0  2  0  0  3  0  0  0  0  0  0
  187.9520  176.9900  138.8780 C   0  0  0  0  0  2  0  0  0  0  0  0
  187.4000  178.2320  139.5810 C   0  0  1  0  0  3  0  0  0  0  0  0
  188.7370  177.5710  141.5260 C   0  0  0  0  0  2  0  0  0  0  0  0
  183.8720  177.7320  141.2540 C   0  0  0  0  0  2  0  0  0  0  0  0
  185.4910  178.0700  144.0480 O   0  0  0  0  0  0  0  0  0  0  0  0
  191.3920  177.4120  143.3080 C   0  0  0  0  0  1  0  0  0  0  0  0
  186.2980  177.8770  141.7720 C   0  0  2  0  0  3  0  0  0  0  0  0
  188.8710  177.7220  143.0070 C   0  0  0  0  0  0  0  0  0  0  0  0
  180.1580  179.2930  136.8710 N   0  0  0  0  0  2  0  0  0  0  0  0
  180.4720  179.4550  135.4870 C   0  0  0  0  0  0  0  0  0  0  0  0
  181.5540  179.0120  135.0160 O   0  0  0  0  0  0  0  0  0  0  0  0
  179.5130  180.1560  134.5940 C   0  0  0  0  0  1  0  0  0  0  0  0
  1 16  1  0  0  0  0
  2 24  1  6  0  0  0
  2 27  1  0  0  0  0
  3  4  1  0  0  0  0
  3 11  1  0  0  0  0
  4 21  1  0  0  0  0
  5  6  1  0  0  0  0
  5 25  2  0  0  0  0
  6 18  1  0  0  0  0
  7 19  1  6  0  0  0
  7 24  1  0  0  0  0
  9 15  1  0  0  0  0
 12  8  1  6  0  0  0
 12  2  1  0  0  0  0
 13 11  1  6  0  0  0
 13 22  1  0  0  0  0
 13 12  1  0  0  0  0
 14 23  1  1  0  0  0
 14 27  1  0  0  0  0
 16 19  1  0  0  0  0
 17 10  1  1  0  0  0
 17  8  1  0  0  0  0
 17  7  1  0  0  0  0
 18 15  2  0  0  0  0
 20 29  1  6  0  0  0
 20  1  1  0  0  0  0
 20 10  1  0  0  0  0
 22 21  1  1  0  0  0
 22 14  1  0  0  0  0
 23 28  1  0  0  0  0
 26  9  1  0  0  0  0
 27  5  1  1  0  0  0
 28  9  2  0  0  0  0
 28  6  1  0  0  0  0
 30 29  1  0  0  0  0
 31 30  2  0  0  0  0
 32 30  1  0  0  0  0
M  END
>  <MODEL>
2

>  <REMARK>
 VINA RESULT:      -6.9      4.427      9.249
  Name = 
  1 active torsions:
  status: ('A' for Active; 'I' for Inactive)
    1  A    between atoms: C_20  and  N_29
                            x       y       z     vdW  Elec       q    Type
                         _______ _______ _______ _____ _____    ______ ____

>  <TORSDO>
F 1

$$$$
=
 OpenBabel11122410373D

 32 37  0  0  1  0  0  0  0  0999 V2000
  189.8700  175.3300  135.7980 C   0  0  0  0  0  2  0  0  0  0  0  0
  186.8930  178.2070  139.6310 C   0  0  1  0  0  3  0  0  0  0  0  0
  190.4310  176.3100  142.3280 C   0  0  0  0  0  2  0  0  0  0  0  0
  189.5520  176.3810  143.5890 C   0  0  0  0  0  2  0  0  0  0  0  0
  184.5880  178.4250  140.6290 C   0  0  0  0  0  0  0  0  0  0  0  0
  183.8400  178.7820  141.7900 N   0  0  0  0  0  0  0  0  0  0  0  0
  187.7770  177.2500  137.4820 C   0  0  1  0  0  3  0  0  0  0  0  0
  189.2120  178.6480  138.9320 C   0  0  0  0  0  2  0  0  0  0  0  0
  183.3730  179.0280  143.9350 C   0  0  0  0  0  0  0  0  0  0  0  0
  190.2250  177.5600  136.9310 C   0  0  0  0  0  2  0  0  0  0  0  0
  190.1790  177.5020  141.3960 C   0  0  0  0  0  2  0  0  0  0  0  0
  188.2770  178.5270  140.0670 N   0  0  2  0  0  0  0  0  0  0  0  0
  188.6900  177.5290  141.0580 C   0  0  2  0  0  3  0  0  0  0  0  0
  186.5540  178.3030  142.1220 N   0  0  2  0  0  0  0  0  0  0  0  0
  182.2610  179.4460  143.2190 C   0  0  0  0  0  3  0  0  0  0  0  0
  188.5980  174.9900  136.5650 C   0  0  0  0  0  2  0  0  0  0  0  0
  189.1910  177.4180  138.0350 C   0  0  2  0  0  3  0  0  0  0  0  0
  182.5890  179.2770  141.8750 C   0  0  0  0  0  3  0  0  0  0  0  0
  187.6010  176.1370  136.4410 C   0  0  0  0  0  2  0  0  0  0  0  0
  190.8240  176.1950  136.6210 C   0  0  2  0  0  3  0  0  0  0  0  0
  188.0680  176.5510  143.2400 C   0  0  0  0  0  2  0  0  0  0  0  0
  187.9270  177.7890  142.3530 C   0  0  1  0  0  3  0  0  0  0  0  0
  185.6690  178.0380  143.2730 C   0  0  0  0  0  2  0  0  0  0  0  0
  186.8350  177.0280  138.6480 C   0  0  0  0  0  2  0  0  0  0  0  0
  184.0730  178.5160  139.4820 O   0  0  0  0  0  0  0  0  0  0  0  0
  183.4960  178.9990  145.4180 C   0  0  0  0  0  1  0  0  0  0  0  0
  185.9740  177.8520  140.8280 C   0  0  2  0  0  3  0  0  0  0  0  0
  184.3240  178.6400  143.0240 C   0  0  0  0  0  0  0  0  0  0  0  0
  192.0710  176.3770  135.8910 N   0  0  0  0  0  2  0  0  0  0  0  0
  193.3470  176.3760  136.5340 C   0  0  0  0  0  0  0  0  0  0  0  0
  193.4380  176.2380  137.7830 O   0  0  0  0  0  0  0  0  0  0  0  0
  194.5790  176.5420  135.7200 C   0  0  0  0  0  1  0  0  0  0  0  0
  1 16  1  0  0  0  0
  1 20  1  0  0  0  0
  2 24  1  6  0  0  0
  2 12  1  0  0  0  0
  2 27  1  0  0  0  0
  3  4  1  0  0  0  0
  5  6  1  0  0  0  0
  6 18  1  0  0  0  0
  6 28  1  0  0  0  0
  7 19  1  6  0  0  0
  7 17  1  0  0  0  0
  7 24  1  0  0  0  0
  9 26  1  0  0  0  0
 11  3  1  0  0  0  0
 12  8  1  6  0  0  0
 12 13  1  0  0  0  0
 13 11  1  1  0  0  0
 13 22  1  0  0  0  0
 14 22  1  0  0  0  0
 14 23  1  1  0  0  0
 15  9  1  0  0  0  0
 17 10  1  6  0  0  0
 17  8  1  0  0  0  0
 18 15  2  0  0  0  0
 19 16  1  0  0  0  0
 20 29  1  6  0  0  0
 20 10  1  0  0  0  0
 21  4  1  0  0  0  0
 22 21  1  6  0  0  0
 25  5  2  0  0  0  0
 27  5  1  6  0  0  0
 27 14  1  0  0  0  0
 28 23  1  0  0  0  0
 28  9  2  0  0  0  0
 29 30  1  0  0  0  0
 30 31  2  0  0  0  0
 32 30  1  0  0  0  0
M  END
>  <MODEL>
3

>  <REMARK>
 VINA RESULT:      -6.8      2.073      2.801
  Name = 
  1 active torsions:
  status: ('A' for Active; 'I' for Inactive)
    1  A    between atoms: C_20  and  N_29
                            x       y       z     vdW  Elec       q    Type
                         _______ _______ _______ _____ _____    ______ ____

>  <TORSDO>
F 1

$$$$
=
 OpenBabel11122410373D

 32 37  0  0  1  0  0  0  0  0999 V2000
  189.0810  178.6410  148.3590 C   0  0  0  0  0  2  0  0  0  0  0  0
  185.1570  177.8400  144.3850 C   0  0  1  0  0  3  0  0  0  0  0  0
  189.1890  178.2400  141.7460 C   0  0  0  0  0  2  0  0  0  0  0  0
  188.3810  178.7090  140.5230 C   0  0  0  0  0  2  0  0  0  0  0  0
  183.0070  178.7870  143.4710 C   0  0  0  0  0  0  0  0  0  0  0  0
  182.1870  178.9320  142.3130 N   0  0  0  0  0  0  0  0  0  0  0  0
  186.3610  178.0570  146.5800 C   0  0  1  0  0  3  0  0  0  0  0  0
  187.0260  176.3350  144.9350 C   0  0  0  0  0  2  0  0  0  0  0  0
  181.6740  179.1590  140.1760 C   0  0  0  0  0  0  0  0  0  0  0  0
  188.4050  176.6270  146.9910 C   0  0  0  0  0  2  0  0  0  0  0  0
  188.4230  177.1920  142.5620 C   0  0  0  0  0  2  0  0  0  0  0  0
  186.2530  176.9850  143.8600 N   0  0  2  0  0  0  0  0  0  0  0  0
  187.0770  177.7960  142.9590 C   0  0  2  0  0  3  0  0  0  0  0  0
  184.8280  178.1810  141.9150 N   0  0  2  0  0  0  0  0  0  0  0  0
  180.4880  179.2060  140.8930 C   0  0  0  0  0  3  0  0  0  0  0  0
  188.1030  179.5960  147.6870 C   0  0  0  0  0  2  0  0  0  0  0  0
  187.5530  177.3370  145.9530 C   0  0  2  0  0  3  0  0  0  0  0  0
  180.8480  179.0620  142.2320 C   0  0  0  0  0  3  0  0  0  0  0  0
  186.6960  179.0090  147.7360 C   0  0  0  0  0  2  0  0  0  0  0  0
  189.5510  177.5370  147.4130 C   0  0  2  0  0  3  0  0  0  0  0  0
  186.9760  179.1830  140.9160 C   0  0  0  0  0  2  0  0  0  0  0  0
  186.2880  178.0490  141.6790 C   0  0  1  0  0  3  0  0  0  0  0  0
  184.1660  178.9390  140.8360 C   0  0  0  0  0  2  0  0  0  0  0  0
  185.6270  178.8050  145.4850 C   0  0  0  0  0  2  0  0  0  0  0  0
  182.4970  178.8100  144.6240 O   0  0  0  0  0  0  0  0  0  0  0  0
  181.8080  179.2930  138.7000 C   0  0  0  0  0  1  0  0  0  0  0  0
  184.5040  178.6980  143.2710 C   0  0  2  0  0  3  0  0  0  0  0  0
  182.6920  178.9780  141.0800 C   0  0  0  0  0  0  0  0  0  0  0  0
  190.5790  176.7380  148.0650 N   0  0  0  0  0  2  0  0  0  0  0  0
  191.7980  176.3720  147.4170 C   0  0  0  0  0  0  0  0  0  0  0  0
  192.0210  176.7150  146.2250 O   0  0  0  0  0  0  0  0  0  0  0  0
  192.8110  175.5750  148.1550 C   0  0  0  0  0  1  0  0  0  0  0  0
  2 24  1  1  0  0  0
  3 11  1  0  0  0  0
  4 21  1  0  0  0  0
  4  3  1  0  0  0  0
  5 25  2  0  0  0  0
  6  5  1  0  0  0  0
  7 24  1  6  0  0  0
  7 19  1  0  0  0  0
  9 15  1  0  0  0  0
  9 28  2  0  0  0  0
 10 20  1  0  0  0  0
 12  2  1  0  0  0  0
 12  8  1  1  0  0  0
 13 11  1  6  0  0  0
 13 12  1  0  0  0  0
 14 23  1  6  0  0  0
 14 27  1  0  0  0  0
 15 18  2  0  0  0  0
 16 19  1  0  0  0  0
 16  1  1  0  0  0  0
 17  8  1  6  0  0  0
 17  7  1  0  0  0  0
 17 10  1  0  0  0  0
 18  6  1  0  0  0  0
 20 29  1  1  0  0  0
 20  1  1  0  0  0  0
 22 21  1  1  0  0  0
 22 14  1  0  0  0  0
 22 13  1  0  0  0  0
 23 28  1  0  0  0  0
 26  9  1  0  0  0  0
 27  5  1  1  0  0  0
 27  2  1  0  0  0  0
 28  6  1  0  0  0  0
 30 29  1  0  0  0  0
 30 32  1  0  0  0  0
 31 30  2  0  0  0  0
M  END
>  <MODEL>
4

>  <REMARK>
 VINA RESULT:      -6.7      5.043      7.595
  Name = 
  1 active torsions:
  status: ('A' for Active; 'I' for Inactive)
    1  A    between atoms: C_20  and  N_29
                            x       y       z     vdW  Elec       q    Type
                         _______ _______ _______ _____ _____    ______ ____

>  <TORSDO>
F 1

$$$$
=
 OpenBabel11122410373D

 32 37  0  0  1  0  0  0  0  0999 V2000
  189.0530  174.2980  136.8370 C   0  0  0  0  0  2  0  0  0  0  0  0
  184.9140  177.9990  137.8340 C   0  0  1  0  0  3  0  0  0  0  0  0
  187.2540  177.9490  142.0660 C   0  0  0  0  0  2  0  0  0  0  0  0
  185.9840  178.3950  142.8110 C   0  0  0  0  0  2  0  0  0  0  0  0
  182.4050  178.2490  137.8360 C   0  0  0  0  0  0  0  0  0  0  0  0
  181.2930  178.9320  138.4130 N   0  0  0  0  0  0  0  0  0  0  0  0
  186.5030  176.3920  136.7350 C   0  0  1  0  0  3  0  0  0  0  0  0
  187.3310  178.4650  137.7990 C   0  0  0  0  0  2  0  0  0  0  0  0
  180.0940  179.9630  139.9550 C   0  0  0  0  0  0  0  0  0  0  0  0
  188.9880  176.8220  136.9220 C   0  0  0  0  0  2  0  0  0  0  0  0
  187.3540  178.5970  140.6800 C   0  0  0  0  0  2  0  0  0  0  0  0
  186.0530  178.6790  138.5040 N   0  0  2  0  0  0  0  0  0  0  0  0
  186.0830  178.2530  139.9060 C   0  0  2  0  0  3  0  0  0  0  0  0
  183.7100  179.0570  139.7730 N   0  0  2  0  0  0  0  0  0  0  0  0
  179.3110  179.8720  138.8140 C   0  0  0  0  0  3  0  0  0  0  0  0
  187.5910  174.1110  137.2210 C   0  0  0  0  0  2  0  0  0  0  0  0
  187.6280  176.9880  137.5790 C   0  0  2  0  0  3  0  0  0  0  0  0
  180.0960  179.2180  137.8650 C   0  0  0  0  0  3  0  0  0  0  0  0
  186.7060  174.9370  136.2930 C   0  0  0  0  0  2  0  0  0  0  0  0
  189.6540  175.5600  137.4540 C   0  0  2  0  0  3  0  0  0  0  0  0
  184.7220  178.1760  141.9670 C   0  0  0  0  0  2  0  0  0  0  0  0
  184.9090  178.9010  140.6330 C   0  0  1  0  0  3  0  0  0  0  0  0
  182.4730  179.1550  140.5710 C   0  0  0  0  0  2  0  0  0  0  0  0
  185.2060  176.5260  137.5080 C   0  0  0  0  0  2  0  0  0  0  0  0
  182.3330  177.7800  136.6680 O   0  0  0  0  0  0  0  0  0  0  0  0
  179.6800  180.5660  141.2520 C   0  0  0  0  0  1  0  0  0  0  0  0
  183.6280  178.0310  138.6990 C   0  0  2  0  0  3  0  0  0  0  0  0
  181.3060  179.3870  139.6670 C   0  0  0  0  0  0  0  0  0  0  0  0
  191.0800  175.6160  137.1620 N   0  0  0  0  0  2  0  0  0  0  0  0
  192.0240  176.2180  138.0480 C   0  0  0  0  0  0  0  0  0  0  0  0
  191.6460  176.7530  139.1240 O   0  0  0  0  0  0  0  0  0  0  0  0
  193.4680  176.2150  137.6950 C   0  0  0  0  0  1  0  0  0  0  0  0
  1 16  1  0  0  0  0
  1 20  1  0  0  0  0
  2 24  1  1  0  0  0
  2 12  1  0  0  0  0
  2 27  1  0  0  0  0
  3  4  1  0  0  0  0
  5  6  1  0  0  0  0
  6 28  1  0  0  0  0
  7 19  1  1  0  0  0
  7 24  1  0  0  0  0
  7 17  1  0  0  0  0
  9 26  1  0  0  0  0
 10 20  1  0  0  0  0
 11  3  1  0  0  0  0
 12  8  1  6  0  0  0
 12 13  1  0  0  0  0
 13 22  1  0  0  0  0
 13 11  1  1  0  0  0
 14 23  1  1  0  0  0
 14 22  1  0  0  0  0
 15  9  1  0  0  0  0
 17 10  1  6  0  0  0
 17  8  1  0  0  0  0
 18  6  1  0  0  0  0
 18 15  2  0  0  0  0
 19 16  1  0  0  0  0
 20 29  1  6  0  0  0
 21  4  1  0  0  0  0
 22 21  1  1  0  0  0
 25  5  2  0  0  0  0
 27  5  1  6  0  0  0
 27 14  1  0  0  0  0
 28  9  2  0  0  0  0
 28 23  1  0  0  0  0
 29 30  1  0  0  0  0
 30 31  2  0  0  0  0
 32 30  1  0  0  0  0
M  END
>  <MODEL>
5

>  <REMARK>
 VINA RESULT:      -6.6      2.830      4.642
  Name = 
  1 active torsions:
  status: ('A' for Active; 'I' for Inactive)
    1  A    between atoms: C_20  and  N_29
                            x       y       z     vdW  Elec       q    Type
                         _______ _______ _______ _____ _____    ______ ____

>  <TORSDO>
F 1

$$$$
=
 OpenBabel11122410373D

 32 37  0  0  1  0  0  0  0  0999 V2000
  186.9750  177.5040  143.4770 C   0  0  0  0  0  2  0  0  0  0  0  0
  190.7550  177.1380  139.3050 C   0  0  1  0  0  3  0  0  0  0  0  0
  186.8960  174.9750  137.3520 C   0  0  0  0  0  2  0  0  0  0  0  0
  187.7910  174.1620  136.4010 C   0  0  0  0  0  2  0  0  0  0  0  0
  193.0510  176.2560  138.7510 C   0  0  0  0  0  0  0  0  0  0  0  0
  193.9010  175.7610  137.7180 N   0  0  0  0  0  0  0  0  0  0  0  0
  189.5750  177.6980  141.4520 C   0  0  1  0  0  3  0  0  0  0  0  0
  188.6420  178.4010  139.2730 C   0  0  0  0  0  2  0  0  0  0  0  0
  194.4770  174.7190  135.8580 C   0  0  0  0  0  0  0  0  0  0  0  0
  187.3060  178.8060  141.3380 C   0  0  0  0  0  2  0  0  0  0  0  0
  187.4540  176.3830  137.5900 C   0  0  0  0  0  2  0  0  0  0  0  0
  189.5330  177.4870  138.5340 N   0  0  2  0  0  0  0  0  0  0  0  0
  188.8780  176.2420  138.1220 C   0  0  2  0  0  3  0  0  0  0  0  0
  191.1750  175.8190  137.2040 N   0  0  2  0  0  0  0  0  0  0  0  0
  195.6420  175.1830  136.4500 C   0  0  0  0  0  3  0  0  0  0  0  0
  188.1160  176.5270  143.2190 C   0  0  0  0  0  2  0  0  0  0  0  0
  188.2850  177.8680  140.6530 C   0  0  2  0  0  3  0  0  0  0  0  0
  195.2430  175.8320  137.6170 C   0  0  0  0  0  3  0  0  0  0  0  0
  189.3960  177.3000  142.9230 C   0  0  0  0  0  2  0  0  0  0  0  0
  186.3320  177.9940  142.1800 C   0  0  2  0  0  3  0  0  0  0  0  0
  189.2510  174.1440  136.8700 C   0  0  0  0  0  2  0  0  0  0  0  0
  189.7190  175.5930  137.0270 C   0  0  1  0  0  3  0  0  0  0  0  0
  191.9760  174.7890  136.5150 C   0  0  0  0  0  2  0  0  0  0  0  0
  190.4460  176.6820  140.7390 C   0  0  0  0  0  2  0  0  0  0  0  0
  193.5400  176.8200  139.7680 O   0  0  0  0  0  0  0  0  0  0  0  0
  194.3910  173.9380  134.5940 C   0  0  0  0  0  1  0  0  0  0  0  0
  191.5650  176.0030  138.6280 C   0  0  2  0  0  3  0  0  0  0  0  0
  193.4300  175.1030  136.6590 C   0  0  0  0  0  0  0  0  0  0  0  0
  185.1700  178.8160  142.4900 N   0  0  0  0  0  2  0  0  0  0  0  0
  183.8590  178.5050  142.0180 C   0  0  0  0  0  0  0  0  0  0  0  0
  183.6610  177.5020  141.2820 O   0  0  0  0  0  0  0  0  0  0  0  0
  182.7160  179.3770  142.3960 C   0  0  0  0  0  1  0  0  0  0  0  0
  2 24  1  1  0  0  0
  3 11  1  0  0  0  0
  4 21  1  0  0  0  0
  4  3  1  0  0  0  0
  5 25  2  0  0  0  0
  6  5  1  0  0  0  0
  7 24  1  6  0  0  0
  7 19  1  0  0  0  0
  9 15  1  0  0  0  0
  9 28  2  0  0  0  0
 10 20  1  0  0  0  0
 12  8  1  1  0  0  0
 12  2  1  0  0  0  0
 13 11  1  6  0  0  0
 13 12  1  0  0  0  0
 14 23  1  1  0  0  0
 14 27  1  0  0  0  0
 15 18  2  0  0  0  0
 16  1  1  0  0  0  0
 17  8  1  6  0  0  0
 17 10  1  0  0  0  0
 17  7  1  0  0  0  0
 18  6  1  0  0  0  0
 19 16  1  0  0  0  0
 20 29  1  1  0  0  0
 20  1  1  0  0  0  0
 22 21  1  1  0  0  0
 22 14  1  0  0  0  0
 22 13  1  0  0  0  0
 23 28  1  0  0  0  0
 26  9  1  0  0  0  0
 27  5  1  6  0  0  0
 27  2  1  0  0  0  0
 28  6  1  0  0  0  0
 30 32  1  0  0  0  0
 30 29  1  0  0  0  0
 31 30  2  0  0  0  0
M  END
>  <MODEL>
6

>  <REMARK>
 VINA RESULT:      -6.5      2.002      8.739
  Name = 
  1 active torsions:
  status: ('A' for Active; 'I' for Inactive)
    1  A    between atoms: C_20  and  N_29
                            x       y       z     vdW  Elec       q    Type
                         _______ _______ _______ _____ _____    ______ ____

>  <TORSDO>
F 1

$$$$
=
 OpenBabel11122410373D

 32 37  0  0  1  0  0  0  0  0999 V2000
  185.5960  178.9880  141.1860 C   0  0  0  0  0  2  0  0  0  0  0  0
  189.6090  176.7500  137.9120 C   0  0  1  0  0  3  0  0  0  0  0  0
  185.8910  173.7610  137.1230 C   0  0  0  0  0  2  0  0  0  0  0  0
  186.8480  172.6190  136.7390 C   0  0  0  0  0  2  0  0  0  0  0  0
  191.9430  175.7980  137.9690 C   0  0  0  0  0  0  0  0  0  0  0  0
  192.8560  174.8890  137.3550 N   0  0  0  0  0  0  0  0  0  0  0  0
  188.3040  178.2540  139.4460 C   0  0  1  0  0  3  0  0  0  0  0  0
  187.4880  177.7520  137.1670 C   0  0  0  0  0  2  0  0  0  0  0  0
  193.5470  173.0860  136.2830 C   0  0  0  0  0  0  0  0  0  0  0  0
  186.0320  179.0740  138.6990 C   0  0  0  0  0  2  0  0  0  0  0  0
  186.4190  175.1230  136.6550 C   0  0  0  0  0  2  0  0  0  0  0  0
  188.4290  176.6260  137.0180 N   0  0  2  0  0  0  0  0  0  0  0  0
  187.8120  175.3170  137.2490 C   0  0  2  0  0  3  0  0  0  0  0  0
  190.1620  174.5830  136.7620 N   0  0  2  0  0  0  0  0  0  0  0  0
  194.6720  173.8260  136.6170 C   0  0  0  0  0  3  0  0  0  0  0  0
  186.7600  178.0550  141.4960 C   0  0  0  0  0  2  0  0  0  0  0  0
  187.0590  177.9570  138.6130 C   0  0  2  0  0  3  0  0  0  0  0  0
  194.2000  174.9520  137.2900 C   0  0  0  0  0  3  0  0  0  0  0  0
  188.0470  178.6290  140.9120 C   0  0  0  0  0  2  0  0  0  0  0  0
  185.0210  178.7480  139.7900 C   0  0  2  0  0  3  0  0  0  0  0  0
  188.2790  172.8900  137.2180 C   0  0  0  0  0  2  0  0  0  0  0  0
  188.7210  174.2440  136.6570 C   0  0  1  0  0  3  0  0  0  0  0  0
  191.0120  173.3780  136.7100 C   0  0  0  0  0  2  0  0  0  0  0  0
  189.2250  177.0520  139.3690 C   0  0  0  0  0  2  0  0  0  0  0  0
  192.3670  176.8080  138.5930 O   0  0  0  0  0  0  0  0  0  0  0  0
  193.5410  171.7800  135.5700 C   0  0  0  0  0  1  0  0  0  0  0  0
  190.4690  175.4600  137.9230 C   0  0  2  0  0  3  0  0  0  0  0  0
  192.4530  173.7760  136.7420 C   0  0  0  0  0  0  0  0  0  0  0  0
  183.8350  179.5710  139.6010 N   0  0  0  0  0  2  0  0  0  0  0  0
  182.7440  179.1710  138.7720 C   0  0  0  0  0  0  0  0  0  0  0  0
  182.7800  178.0790  138.1430 O   0  0  0  0  0  0  0  0  0  0  0  0
  181.5540  180.0530  138.6470 C   0  0  0  0  0  1  0  0  0  0  0  0
  1 16  1  0  0  0  0
  2 27  1  0  0  0  0
  2 24  1  1  0  0  0
  4  3  1  0  0  0  0
  4 21  1  0  0  0  0
  5 25  2  0  0  0  0
  6  5  1  0  0  0  0
  7 24  1  1  0  0  0
  7 19  1  0  0  0  0
  9 15  1  0  0  0  0
  9 28  2  0  0  0  0
 10 20  1  0  0  0  0
 11  3  1  0  0  0  0
 12  8  1  1  0  0  0
 12 13  1  0  0  0  0
 12  2  1  0  0  0  0
 13 11  1  6  0  0  0
 14 23  1  1  0  0  0
 14 27  1  0  0  0  0
 15 18  2  0  0  0  0
 17  8  1  6  0  0  0
 17 10  1  0  0  0  0
 17  7  1  0  0  0  0
 18  6  1  0  0  0  0
 19 16  1  0  0  0  0
 20 29  1  6  0  0  0
 20  1  1  0  0  0  0
 22 14  1  0  0  0  0
 22 21  1  1  0  0  0
 22 13  1  0  0  0  0
 23 28  1  0  0  0  0
 26  9  1  0  0  0  0
 27  5  1  6  0  0  0
 28  6  1  0  0  0  0
 30 29  1  0  0  0  0
 31 30  2  0  0  0  0
 32 30  1  0  0  0  0
M  END
>  <MODEL>
7

>  <REMARK>
 VINA RESULT:      -6.5      2.551      8.973
  Name = 
  1 active torsions:
  status: ('A' for Active; 'I' for Inactive)
    1  A    between atoms: C_20  and  N_29
                            x       y       z     vdW  Elec       q    Type
                         _______ _______ _______ _____ _____    ______ ____

>  <TORSDO>
F 1

$$$$
=
 OpenBabel11122410373D

 32 37  0  0  1  0  0  0  0  0999 V2000
  182.0050  177.5970  139.0380 C   0  0  0  0  0  2  0  0  0  0  0  0
  186.0540  178.4460  142.8750 C   0  0  1  0  0  3  0  0  0  0  0  0
  188.6220  177.2480  138.9560 C   0  0  0  0  0  2  0  0  0  0  0  0
  189.7870  176.7530  139.8310 C   0  0  0  0  0  2  0  0  0  0  0  0
  186.8630  177.6840  145.1380 C   0  0  0  0  0  0  0  0  0  0  0  0
  188.0000  177.5170  145.9830 N   0  0  0  0  0  0  0  0  0  0  0  0
  183.8450  178.3210  141.6820 C   0  0  1  0  0  3  0  0  0  0  0  0
  185.6700  179.7520  140.8240 C   0  0  0  0  0  2  0  0  0  0  0  0
  190.1000  177.1220  146.5440 C   0  0  0  0  0  0  0  0  0  0  0  0
  183.5900  179.5170  139.4690 C   0  0  0  0  0  2  0  0  0  0  0  0
  187.9300  178.4690  139.5740 C   0  0  0  0  0  2  0  0  0  0  0  0
  186.6680  179.0910  141.6850 N   0  0  2  0  0  0  0  0  0  0  0  0
  187.4710  178.0880  140.9800 C   0  0  2  0  0  3  0  0  0  0  0  0
  188.4720  177.8780  143.2720 N   0  0  2  0  0  0  0  0  0  0  0  0
  189.3850  177.3050  147.7190 C   0  0  0  0  0  3  0  0  0  0  0  0
  182.5700  176.7060  140.1370 C   0  0  0  0  0  2  0  0  0  0  0  0
  184.5450  178.8100  140.4160 C   0  0  2  0  0  3  0  0  0  0  0  0
  188.0690  177.5500  147.3280 C   0  0  0  0  0  3  0  0  0  0  0  0
  182.5900  177.4680  141.4570 C   0  0  0  0  0  2  0  0  0  0  0  0
  183.0670  178.5210  138.4430 C   0  0  2  0  0  3  0  0  0  0  0  0
  189.3480  176.5080  141.2790 C   0  0  0  0  0  2  0  0  0  0  0  0
  188.7180  177.7970  141.8100 C   0  0  1  0  0  3  0  0  0  0  0  0
  189.4620  177.0960  144.0370 C   0  0  0  0  0  2  0  0  0  0  0  0
  184.8520  177.5570  142.5180 C   0  0  0  0  0  2  0  0  0  0  0  0
  185.7160  177.8530  145.6320 O   0  0  0  0  0  0  0  0  0  0  0  0
  191.5520  176.8100  146.4460 C   0  0  0  0  0  1  0  0  0  0  0  0
  187.0680  177.5600  143.6440 C   0  0  2  0  0  3  0  0  0  0  0  0
  189.2190  177.2710  145.5020 C   0  0  0  0  0  0  0  0  0  0  0  0
  182.5050  179.2510  137.3150 N   0  0  0  0  0  2  0  0  0  0  0  0
  181.3060  180.0210  137.4160 C   0  0  0  0  0  0  0  0  0  0  0  0
  180.6680  180.0770  138.5010 O   0  0  0  0  0  0  0  0  0  0  0  0
  180.8050  180.7590  136.2280 C   0  0  0  0  0  1  0  0  0  0  0  0
  1 16  1  0  0  0  0
  2 24  1  6  0  0  0
  2 27  1  0  0  0  0
  3 11  1  0  0  0  0
  3  4  1  0  0  0  0
  4 21  1  0  0  0  0
  5 25  2  0  0  0  0
  5  6  1  0  0  0  0
  6 18  1  0  0  0  0
  7 19  1  6  0  0  0
  7 24  1  0  0  0  0
  9 15  1  0  0  0  0
 12  8  1  6  0  0  0
 12  2  1  0  0  0  0
 13 11  1  6  0  0  0
 13 12  1  0  0  0  0
 13 22  1  0  0  0  0
 14 27  1  0  0  0  0
 14 23  1  1  0  0  0
 16 19  1  0  0  0  0
 17 10  1  6  0  0  0
 17  8  1  0  0  0  0
 17  7  1  0  0  0  0
 18 15  2  0  0  0  0
 20 29  1  6  0  0  0
 20  1  1  0  0  0  0
 20 10  1  0  0  0  0
 22 21  1  1  0  0  0
 22 14  1  0  0  0  0
 23 28  1  0  0  0  0
 26  9  1  0  0  0  0
 27  5  1  1  0  0  0
 28  6  1  0  0  0  0
 28  9  2  0  0  0  0
 29 30  1  0  0  0  0
 30 31  2  0  0  0  0
 32 30  1  0  0  0  0
M  END
>  <MODEL>
8

>  <REMARK>
 VINA RESULT:      -6.5      4.260      8.725
  Name = 
  1 active torsions:
  status: ('A' for Active; 'I' for Inactive)
    1  A    between atoms: C_20  and  N_29
                            x       y       z     vdW  Elec       q    Type
                         _______ _______ _______ _____ _____    ______ ____

>  <TORSDO>
F 1

$$$$
=
 OpenBabel11122410373D

 32 37  0  0  1  0  0  0  0  0999 V2000
  186.8090  178.5350  141.5710 C   0  0  0  0  0  2  0  0  0  0  0  0
  190.6720  176.5490  137.9700 C   0  0  1  0  0  3  0  0  0  0  0  0
  186.8500  173.7570  136.9800 C   0  0  0  0  0  2  0  0  0  0  0  0
  187.7640  172.6370  136.4530 C   0  0  0  0  0  2  0  0  0  0  0  0
  192.9780  175.5360  137.8610 C   0  0  0  0  0  0  0  0  0  0  0  0
  193.8480  174.6730  137.1310 N   0  0  0  0  0  0  0  0  0  0  0  0
  189.4500  177.9170  139.6880 C   0  0  1  0  0  3  0  0  0  0  0  0
  188.5620  177.6780  137.3930 C   0  0  0  0  0  2  0  0  0  0  0  0
  194.4600  172.9750  135.8580 C   0  0  0  0  0  0  0  0  0  0  0  0
  187.1840  178.8700  139.0950 C   0  0  0  0  0  2  0  0  0  0  0  0
  187.4050  175.1460  136.6410 C   0  0  0  0  0  2  0  0  0  0  0  0
  189.4660  176.5500  137.1010 N   0  0  2  0  0  0  0  0  0  0  0  0
  188.8180  175.2400  137.2120 C   0  0  2  0  0  3  0  0  0  0  0  0
  191.1320  174.5000  136.5860 N   0  0  2  0  0  0  0  0  0  0  0  0
  195.6130  173.6460  136.2350 C   0  0  0  0  0  3  0  0  0  0  0  0
  187.9540  177.5450  141.7490 C   0  0  0  0  0  2  0  0  0  0  0  0
  188.1760  177.7420  138.8640 C   0  0  2  0  0  3  0  0  0  0  0  0
  195.1920  174.7070  137.0340 C   0  0  0  0  0  3  0  0  0  0  0  0
  189.2410  178.1430  141.1920 C   0  0  0  0  0  2  0  0  0  0  0  0
  186.1930  178.4580  140.1750 C   0  0  2  0  0  3  0  0  0  0  0  0
  189.2140  172.8190  136.9160 C   0  0  0  0  0  2  0  0  0  0  0  0
  189.6800  174.2120  136.4870 C   0  0  1  0  0  3  0  0  0  0  0  0
  191.9460  173.2860  136.3840 C   0  0  0  0  0  2  0  0  0  0  0  0
  190.3330  176.7070  139.4610 C   0  0  0  0  0  2  0  0  0  0  0  0
  193.4460  176.4640  138.5740 O   0  0  0  0  0  0  0  0  0  0  0  0
  194.3980  171.7510  135.0130 C   0  0  0  0  0  1  0  0  0  0  0  0
  191.4940  175.2430  137.8220 C   0  0  2  0  0  3  0  0  0  0  0  0
  193.3970  173.6410  136.4170 C   0  0  0  0  0  0  0  0  0  0  0  0
  185.0260  179.3270  140.1060 N   0  0  0  0  0  2  0  0  0  0  0  0
  183.9700  179.1260  139.1660 C   0  0  0  0  0  0  0  0  0  0  0  0
  184.0230  178.1850  138.3300 O   0  0  0  0  0  0  0  0  0  0  0  0
  182.7980  180.0390  139.1720 C   0  0  0  0  0  1  0  0  0  0  0  0
  1 16  1  0  0  0  0
  2 24  1  1  0  0  0
  4 21  1  0  0  0  0
  4  3  1  0  0  0  0
  5 25  2  0  0  0  0
  6  5  1  0  0  0  0
  7 24  1  1  0  0  0
  7 19  1  0  0  0  0
  9 15  1  0  0  0  0
  9 28  2  0  0  0  0
 10 20  1  0  0  0  0
 11  3  1  0  0  0  0
 12 13  1  0  0  0  0
 12  8  1  1  0  0  0
 12  2  1  0  0  0  0
 13 11  1  6  0  0  0
 14 23  1  1  0  0  0
 14 27  1  0  0  0  0
 15 18  2  0  0  0  0
 17  8  1  6  0  0  0
 17 10  1  0  0  0  0
 17  7  1  0  0  0  0
 18  6  1  0  0  0  0
 19 16  1  0  0  0  0
 20 29  1  1  0  0  0
 20  1  1  0  0  0  0
 22 14  1  0  0  0  0
 22 21  1  1  0  0  0
 22 13  1  0  0  0  0
 23 28  1  0  0  0  0
 26  9  1  0  0  0  0
 27  5  1  6  0  0  0
 27  2  1  0  0  0  0
 28  6  1  0  0  0  0
 30 32  1  0  0  0  0
 30 29  1  0  0  0  0
 31 30  2  0  0  0  0
M  END
>  <MODEL>
9

>  <REMARK>
 VINA RESULT:      -6.4      2.196      8.892
  Name = 
  1 active torsions:
  status: ('A' for Active; 'I' for Inactive)
    1  A    between atoms: C_20  and  N_29
                            x       y       z     vdW  Elec       q    Type
                         _______ _______ _______ _____ _____    ______ ____

>  <TORSDO>
F 1

$$$$
