=
 OpenBabel11122411533D

 28 31  0  0  1  0  0  0  0  0999 V2000
  181.0480  178.6260  138.1760 C   0  0  0  0  0  0  0  0  0  0  0  0
  184.4980  180.1870  139.0800 O   0  0  0  0  0  0  0  0  0  0  0  0
  180.2160  179.1330  140.8000 C   0  0  0  0  0  3  0  0  0  0  0  0
  181.4670  178.3580  136.8720 O   0  0  0  0  0  0  0  0  0  0  0  0
  185.4030  178.2530  140.3140 O   0  0  0  0  0  0  0  0  0  0  0  0
  185.0680  178.8030  138.9540 S   0  0  0  0  0  0  0  0  0  0  0  0
  186.6440  178.0380  136.9630 C   0  0  0  0  0  0  0  0  0  0  0  0
  183.9380  177.7810  138.1400 N   0  0  1  0  0  0  0  0  0  0  0  0
  178.9310  176.5680  136.9070 O   0  0  0  0  0  1  0  0  0  0  0  0
  182.6480  175.7910  138.4940 C   0  0  2  0  0  3  0  0  0  0  0  0
  185.5930  177.0360  136.5240 C   0  0  0  0  0  2  0  0  0  0  0  0
  186.4830  178.8370  137.9700 N   0  0  0  0  0  0  0  0  0  0  0  0
  180.0410  176.5580  136.0600 C   0  0  2  0  0  3  0  0  0  0  0  0
  181.7770  178.1010  139.2580 C   0  0  0  0  0  0  0  0  0  0  0  0
  187.7810  178.1350  136.2270 F   0  0  0  0  0  0  0  0  0  0  0  0
  181.1180  175.5870  136.5600 C   0  0  0  0  0  2  0  0  0  0  0  0
  181.3530  178.3560  140.5660 C   0  0  0  0  0  3  0  0  0  0  0  0
  179.9000  179.3950  138.4150 C   0  0  0  0  0  3  0  0  0  0  0  0
  179.4880  179.6510  139.7260 C   0  0  0  0  0  3  0  0  0  0  0  0
  180.5670  177.9770  135.8410 C   0  0  0  0  0  2  0  0  0  0  0  0
  183.7380  175.5200  137.4480 C   0  0  1  0  0  3  0  0  0  0  0  0
  181.2540  175.6310  138.0230 N   0  0  0  0  0  0  0  0  0  0  0  0
  184.7160  176.6420  137.7030 C   0  0  2  0  0  3  0  0  0  0  0  0
  182.9650  177.1960  139.0500 C   0  0  2  0  0  3  0  0  0  0  0  0
  180.0930  174.7530  139.6530 C   0  0  0  0  0  1  0  0  0  0  0  0
  180.8110  174.4390  138.4950 O   0  0  0  0  0  0  0  0  0  0  0  0
  184.4120  174.1840  137.7120 C   0  0  0  0  0  2  0  0  0  0  0  0
  183.7300  173.0820  136.9240 C   0  0  0  0  0  1  0  0  0  0  0  0
  1 18  2  0  0  0  0
  1 14  1  0  0  0  0
  4  1  1  0  0  0  0
  6  2  2  0  0  0  0
  6  5  2  0  0  0  0
  7 12  2  0  0  0  0
  8  6  1  1  0  0  0
  8 24  1  0  0  0  0
 10 22  1  6  0  0  0
 10 24  1  0  0  0  0
 11  7  1  0  0  0  0
 12  6  1  0  0  0  0
 13 16  1  0  0  0  0
 13  9  1  1  0  0  0
 14 17  2  0  0  0  0
 15  7  1  0  0  0  0
 16 22  1  0  0  0  0
 17  3  1  0  0  0  0
 18 19  1  0  0  0  0
 19  3  2  0  0  0  0
 20 13  1  0  0  0  0
 20  4  1  0  0  0  0
 21 23  1  0  0  0  0
 21 27  1  1  0  0  0
 21 10  1  0  0  0  0
 22 26  1  0  0  0  0
 23 11  1  6  0  0  0
 23  8  1  0  0  0  0
 24 14  1  6  0  0  0
 26 25  1  0  0  0  0
 28 27  1  0  0  0  0
M  END
>  <MODEL>
1

>  <REMARK>
 VINA RESULT:      -4.9      0.000      0.000
  Name = 
  2 active torsions:
  status: ('A' for Active; 'I' for Inactive)
    1  A    between atoms: C_5  and  C_24
    2  A    between atoms: O_17  and  N_25
                            x       y       z     vdW  Elec       q    Type
                         _______ _______ _______ _____ _____    ______ ____

>  <TORSDO>
F 2

$$$$
=
 OpenBabel11122411533D

 28 31  0  0  1  0  0  0  0  0999 V2000
  182.2700  176.4100  137.6950 C   0  0  0  0  0  0  0  0  0  0  0  0
  185.5760  178.4170  138.1430 O   0  0  0  0  0  0  0  0  0  0  0  0
  181.8030  177.8500  135.3400 C   0  0  0  0  0  3  0  0  0  0  0  0
  182.4930  175.7040  138.8780 O   0  0  0  0  0  0  0  0  0  0  0  0
  184.5640  180.5040  138.9810 O   0  0  0  0  0  0  0  0  0  0  0  0
  184.9190  179.0820  139.3190 S   0  0  0  0  0  0  0  0  0  0  0  0
  185.6010  178.6160  141.8400 C   0  0  0  0  0  0  0  0  0  0  0  0
  183.5140  178.1910  139.7810 N   0  0  1  0  0  0  0  0  0  0  0  0
  179.4980  174.9890  138.4850 O   0  0  0  0  0  1  0  0  0  0  0  0
  181.1390  178.4510  139.9880 C   0  0  2  0  0  3  0  0  0  0  0  0
  184.2170  178.0530  142.1020 C   0  0  0  0  0  2  0  0  0  0  0  0
  185.9780  179.0500  140.6790 N   0  0  0  0  0  0  0  0  0  0  0  0
  180.3100  174.9170  139.6190 C   0  0  2  0  0  3  0  0  0  0  0  0
  182.2210  177.8150  137.7290 C   0  0  0  0  0  0  0  0  0  0  0  0
  186.4970  178.6100  142.8590 F   0  0  0  0  0  0  0  0  0  0  0  0
  180.2200  176.2010  140.4530 C   0  0  0  0  0  2  0  0  0  0  0  0
  181.9850  178.5270  136.5480 C   0  0  0  0  0  3  0  0  0  0  0  0
  182.0760  175.7340  136.4820 C   0  0  0  0  0  3  0  0  0  0  0  0
  181.8470  176.4530  135.3070 C   0  0  0  0  0  3  0  0  0  0  0  0
  181.7440  174.5500  139.2350 C   0  0  0  0  0  2  0  0  0  0  0  0
  181.7650  178.3010  141.3810 C   0  0  1  0  0  3  0  0  0  0  0  0
  180.1690  177.4000  139.6040 N   0  0  0  0  0  0  0  0  0  0  0  0
  183.2130  178.6410  141.1230 C   0  0  2  0  0  3  0  0  0  0  0  0
  182.3360  178.5830  139.0210 C   0  0  2  0  0  3  0  0  0  0  0  0
  178.9340  179.0780  138.9490 C   0  0  0  0  0  1  0  0  0  0  0  0
  178.9310  177.9320  139.7490 O   0  0  0  0  0  0  0  0  0  0  0  0
  181.1660  179.3090  142.3480 C   0  0  0  0  0  2  0  0  0  0  0  0
  180.6050  178.6040  143.5680 C   0  0  0  0  0  1  0  0  0  0  0  0
  1 14  1  0  0  0  0
  1  4  1  0  0  0  0
  2  6  2  0  0  0  0
  3 17  1  0  0  0  0
  4 20  1  0  0  0  0
  5  6  2  0  0  0  0
  6 12  1  0  0  0  0
  7 11  1  0  0  0  0
  7 15  1  0  0  0  0
  8  6  1  6  0  0  0
  8 23  1  0  0  0  0
 10 22  1  6  0  0  0
 10 21  1  0  0  0  0
 12  7  2  0  0  0  0
 13  9  1  6  0  0  0
 13 16  1  0  0  0  0
 17 14  2  0  0  0  0
 18  1  2  0  0  0  0
 19  3  2  0  0  0  0
 19 18  1  0  0  0  0
 20 13  1  0  0  0  0
 21 27  1  1  0  0  0
 22 26  1  0  0  0  0
 22 16  1  0  0  0  0
 23 21  1  0  0  0  0
 23 11  1  1  0  0  0
 24 14  1  6  0  0  0
 24  8  1  0  0  0  0
 24 10  1  0  0  0  0
 25 26  1  0  0  0  0
 27 28  1  0  0  0  0
M  END
>  <MODEL>
2

>  <REMARK>
 VINA RESULT:      -4.9      2.443      4.496
  Name = 
  2 active torsions:
  status: ('A' for Active; 'I' for Inactive)
    1  A    between atoms: C_5  and  C_24
    2  A    between atoms: O_17  and  N_25
                            x       y       z     vdW  Elec       q    Type
                         _______ _______ _______ _____ _____    ______ ____

>  <TORSDO>
F 2

$$$$
=
 OpenBabel11122411533D

 28 31  0  0  1  0  0  0  0  0999 V2000
  182.9420  176.0300  138.8660 C   0  0  0  0  0  0  0  0  0  0  0  0
  185.3730  177.5020  141.5260 O   0  0  0  0  0  0  0  0  0  0  0  0
  184.8340  176.6540  136.9000 C   0  0  0  0  0  3  0  0  0  0  0  0
  181.9900  175.7340  139.8440 O   0  0  0  0  0  0  0  0  0  0  0  0
  184.9200  179.8850  141.0800 O   0  0  0  0  0  0  0  0  0  0  0  0
  184.3850  178.6200  141.6950 S   0  0  0  0  0  0  0  0  0  0  0  0
  182.8590  178.9200  143.8440 C   0  0  0  0  0  0  0  0  0  0  0  0
  182.8780  178.1780  140.9770 N   0  0  1  0  0  0  0  0  0  0  0  0
  180.1770  175.4280  137.3420 O   0  0  0  0  0  1  0  0  0  0  0  0
  181.3740  178.8760  139.2440 C   0  0  2  0  0  3  0  0  0  0  0  0
  181.6240  178.7120  142.9880 C   0  0  0  0  0  2  0  0  0  0  0  0
  184.0640  178.8730  143.3700 N   0  0  0  0  0  0  0  0  0  0  0  0
  179.8500  175.6090  138.6880 C   0  0  2  0  0  3  0  0  0  0  0  0
  183.3960  177.3530  138.7240 C   0  0  0  0  0  0  0  0  0  0  0  0
  182.6880  179.1090  145.1770 F   0  0  0  0  0  0  0  0  0  0  0  0
  179.6720  177.0940  139.0260 C   0  0  0  0  0  2  0  0  0  0  0  0
  184.3400  177.6580  137.7370 C   0  0  0  0  0  3  0  0  0  0  0  0
  183.4320  175.0280  138.0160 C   0  0  0  0  0  3  0  0  0  0  0  0
  184.3800  175.3400  137.0380 C   0  0  0  0  0  3  0  0  0  0  0  0
  180.8640  174.9050  139.5900 C   0  0  0  0  0  2  0  0  0  0  0  0
  180.7220  179.1010  140.6150 C   0  0  1  0  0  3  0  0  0  0  0  0
  180.6720  177.9310  138.3470 N   0  0  0  0  0  0  0  0  0  0  0  0
  181.9130  179.0930  141.5440 C   0  0  2  0  0  3  0  0  0  0  0  0
  182.8340  178.4800  139.5530 C   0  0  2  0  0  3  0  0  0  0  0  0
  180.9040  178.8390  136.3740 C   0  0  0  0  0  1  0  0  0  0  0  0
  180.0050  178.6760  137.4310 O   0  0  0  0  0  0  0  0  0  0  0  0
  180.0400  180.4580  140.6670 C   0  0  0  0  0  2  0  0  0  0  0  0
  180.4310  181.2940  139.4640 C   0  0  0  0  0  1  0  0  0  0  0  0
  1  4  1  0  0  0  0
  2  6  2  0  0  0  0
  3 19  2  0  0  0  0
  3 17  1  0  0  0  0
  5  6  2  0  0  0  0
  6 12  1  0  0  0  0
  7 15  1  0  0  0  0
  8 23  1  0  0  0  0
  8  6  1  1  0  0  0
 10 22  1  1  0  0  0
 10 24  1  0  0  0  0
 10 21  1  0  0  0  0
 11  7  1  0  0  0  0
 12  7  2  0  0  0  0
 13  9  1  6  0  0  0
 13 16  1  0  0  0  0
 13 20  1  0  0  0  0
 14  1  1  0  0  0  0
 17 14  2  0  0  0  0
 18  1  2  0  0  0  0
 19 18  1  0  0  0  0
 20  4  1  0  0  0  0
 21 27  1  6  0  0  0
 21 23  1  0  0  0  0
 22 16  1  0  0  0  0
 23 11  1  1  0  0  0
 24 14  1  6  0  0  0
 24  8  1  0  0  0  0
 25 26  1  0  0  0  0
 26 22  1  0  0  0  0
 28 27  1  0  0  0  0
M  END
>  <MODEL>
3

>  <REMARK>
 VINA RESULT:      -4.7      2.774      5.332
  Name = 
  2 active torsions:
  status: ('A' for Active; 'I' for Inactive)
    1  A    between atoms: C_5  and  C_24
    2  A    between atoms: O_17  and  N_25
                            x       y       z     vdW  Elec       q    Type
                         _______ _______ _______ _____ _____    ______ ____

>  <TORSDO>
F 2

$$$$
=
 OpenBabel11122411533D

 28 31  0  0  1  0  0  0  0  0999 V2000
  182.5020  178.0060  137.4820 C   0  0  0  0  0  0  0  0  0  0  0  0
  181.3050  180.3420  134.6060 O   0  0  0  0  0  0  0  0  0  0  0  0
  181.1640  175.8950  136.2220 C   0  0  0  0  0  3  0  0  0  0  0  0
  183.1550  179.0620  138.1190 O   0  0  0  0  0  0  0  0  0  0  0  0
  178.9840  180.6350  135.3870 O   0  0  0  0  0  0  0  0  0  0  0  0
  180.4220  181.0090  135.6220 S   0  0  0  0  0  0  0  0  0  0  0  0
  180.8560  183.4470  136.5720 C   0  0  0  0  0  0  0  0  0  0  0  0
  180.9210  180.5560  137.2130 N   0  0  1  0  0  0  0  0  0  0  0  0
  183.1690  177.0360  140.4730 O   0  0  0  0  0  1  0  0  0  0  0  0
  180.0940  179.4410  139.1690 C   0  0  2  0  0  3  0  0  0  0  0  0
  181.0570  182.8640  137.9580 C   0  0  0  0  0  2  0  0  0  0  0  0
  180.6070  182.7200  135.5290 N   0  0  0  0  0  0  0  0  0  0  0  0
  183.3500  178.4210  140.4620 C   0  0  2  0  0  3  0  0  0  0  0  0
  181.1260  178.1100  137.2090 C   0  0  0  0  0  0  0  0  0  0  0  0
  181.0010  184.7870  136.4150 F   0  0  0  0  0  0  0  0  0  0  0  0
  182.0250  179.1600  140.6900 C   0  0  0  0  0  2  0  0  0  0  0  0
  180.4640  177.0490  136.5820 C   0  0  0  0  0  3  0  0  0  0  0  0
  183.1970  176.8400  137.1300 C   0  0  0  0  0  3  0  0  0  0  0  0
  182.5290  175.7890  136.4980 C   0  0  0  0  0  3  0  0  0  0  0  0
  184.0710  178.8630  139.1870 C   0  0  0  0  0  2  0  0  0  0  0  0
  180.2890  180.9340  139.4680 C   0  0  1  0  0  3  0  0  0  0  0  0
  180.9110  178.5120  139.9820 N   0  0  0  0  0  0  0  0  0  0  0  0
  180.3190  181.5400  138.0850 C   0  0  2  0  0  3  0  0  0  0  0  0
  180.3170  179.3050  137.6470 C   0  0  2  0  0  3  0  0  0  0  0  0
  179.6450  176.7810  140.3940 C   0  0  0  0  0  1  0  0  0  0  0  0
  180.0930  177.9910  140.9290 O   0  0  0  0  0  0  0  0  0  0  0  0
  179.1020  181.4830  140.2420 C   0  0  0  0  0  2  0  0  0  0  0  0
  179.2600  181.2020  141.7240 C   0  0  0  0  0  1  0  0  0  0  0  0
  1  4  1  0  0  0  0
  2  6  2  0  0  0  0
  3 19  2  0  0  0  0
  3 17  1  0  0  0  0
  4 20  1  0  0  0  0
  5  6  2  0  0  0  0
  7 11  1  0  0  0  0
  8  6  1  6  0  0  0
  8 24  1  0  0  0  0
  8 23  1  0  0  0  0
 10 21  1  0  0  0  0
 10 22  1  1  0  0  0
 12  6  1  0  0  0  0
 12  7  2  0  0  0  0
 13  9  1  6  0  0  0
 13 16  1  0  0  0  0
 14  1  1  0  0  0  0
 15  7  1  0  0  0  0
 17 14  2  0  0  0  0
 18  1  2  0  0  0  0
 19 18  1  0  0  0  0
 20 13  1  0  0  0  0
 21 27  1  1  0  0  0
 22 16  1  0  0  0  0
 22 26  1  0  0  0  0
 23 11  1  1  0  0  0
 23 21  1  0  0  0  0
 24 14  1  1  0  0  0
 24 10  1  0  0  0  0
 25 26  1  0  0  0  0
 27 28  1  0  0  0  0
M  END
>  <MODEL>
4

>  <REMARK>
 VINA RESULT:      -4.6      3.419      6.017
  Name = 
  2 active torsions:
  status: ('A' for Active; 'I' for Inactive)
    1  A    between atoms: C_5  and  C_24
    2  A    between atoms: O_17  and  N_25
                            x       y       z     vdW  Elec       q    Type
                         _______ _______ _______ _____ _____    ______ ____

>  <TORSDO>
F 2

$$$$
=
 OpenBabel11122411533D

 28 31  0  0  1  0  0  0  0  0999 V2000
  185.5400  175.7940  136.7250 C   0  0  0  0  0  0  0  0  0  0  0  0
  186.4960  178.6030  139.2450 O   0  0  0  0  0  0  0  0  0  0  0  0
  186.6570  177.3480  134.6830 C   0  0  0  0  0  3  0  0  0  0  0  0
  184.9670  175.0250  137.7400 O   0  0  0  0  0  0  0  0  0  0  0  0
  184.6650  180.1580  138.6900 O   0  0  0  0  0  0  0  0  0  0  0  0
  185.0250  178.8720  139.3820 S   0  0  0  0  0  0  0  0  0  0  0  0
  183.6180  178.2770  141.5500 C   0  0  0  0  0  0  0  0  0  0  0  0
  184.1290  177.5490  138.7250 N   0  0  1  0  0  0  0  0  0  0  0  0
  183.7670  173.5200  135.3040 O   0  0  0  0  0  1  0  0  0  0  0  0
  182.5380  177.0650  136.9970 C   0  0  2  0  0  3  0  0  0  0  0  0
  182.7910  177.2990  140.7370 C   0  0  0  0  0  2  0  0  0  0  0  0
  184.5960  178.9620  141.0490 N   0  0  0  0  0  0  0  0  0  0  0  0
  183.3830  173.5330  136.6460 C   0  0  2  0  0  3  0  0  0  0  0  0
  185.0750  177.1020  136.5040 C   0  0  0  0  0  0  0  0  0  0  0  0
  183.3510  178.3920  142.8760 F   0  0  0  0  0  0  0  0  0  0  0  0
  182.3150  174.6020  136.9130 C   0  0  0  0  0  2  0  0  0  0  0  0
  185.6360  177.8720  135.4800 C   0  0  0  0  0  3  0  0  0  0  0  0
  186.5570  175.2680  135.9150 C   0  0  0  0  0  3  0  0  0  0  0  0
  187.1170  176.0460  134.8990 C   0  0  0  0  0  3  0  0  0  0  0  0
  184.6040  173.6640  137.5580 C   0  0  0  0  0  2  0  0  0  0  0  0
  181.8710  176.9110  138.3710 C   0  0  1  0  0  3  0  0  0  0  0  0
  182.5860  175.8400  136.1670 N   0  0  0  0  0  0  0  0  0  0  0  0
  182.7970  177.6970  139.2690 C   0  0  2  0  0  3  0  0  0  0  0  0
  183.9240  177.6790  137.2890 C   0  0  2  0  0  3  0  0  0  0  0  0
  181.8670  177.1730  134.5940 C   0  0  0  0  0  1  0  0  0  0  0  0
  181.6110  175.9560  135.2320 O   0  0  0  0  0  0  0  0  0  0  0  0
  180.4930  177.5500  138.3710 C   0  0  0  0  0  2  0  0  0  0  0  0
  180.5730  178.9840  137.8820 C   0  0  0  0  0  1  0  0  0  0  0  0
  1  4  1  0  0  0  0
  2  6  2  0  0  0  0
  3 19  2  0  0  0  0
  3 17  1  0  0  0  0
  5  6  2  0  0  0  0
  6 12  1  0  0  0  0
  7 15  1  0  0  0  0
  8 23  1  0  0  0  0
  8  6  1  1  0  0  0
 10 22  1  1  0  0  0
 10 24  1  0  0  0  0
 10 21  1  0  0  0  0
 11  7  1  0  0  0  0
 12  7  2  0  0  0  0
 13  9  1  6  0  0  0
 13 16  1  0  0  0  0
 13 20  1  0  0  0  0
 14  1  1  0  0  0  0
 17 14  2  0  0  0  0
 18  1  2  0  0  0  0
 19 18  1  0  0  0  0
 20  4  1  0  0  0  0
 21 27  1  6  0  0  0
 21 23  1  0  0  0  0
 22 16  1  0  0  0  0
 23 11  1  1  0  0  0
 24 14  1  6  0  0  0
 24  8  1  0  0  0  0
 25 26  1  0  0  0  0
 26 22  1  0  0  0  0
 28 27  1  0  0  0  0
M  END
>  <MODEL>
5

>  <REMARK>
 VINA RESULT:      -4.5      2.484      5.188
  Name = 
  2 active torsions:
  status: ('A' for Active; 'I' for Inactive)
    1  A    between atoms: C_5  and  C_24
    2  A    between atoms: O_17  and  N_25
                            x       y       z     vdW  Elec       q    Type
                         _______ _______ _______ _____ _____    ______ ____

>  <TORSDO>
F 2

$$$$
=
 OpenBabel11122411533D

 28 31  0  0  1  0  0  0  0  0999 V2000
  183.1110  175.5530  138.0660 C   0  0  0  0  0  0  0  0  0  0  0  0
  184.2710  177.4630  141.2540 O   0  0  0  0  0  0  0  0  0  0  0  0
  185.6440  176.0070  136.9640 C   0  0  0  0  0  3  0  0  0  0  0  0
  181.8420  175.3410  138.6080 O   0  0  0  0  0  0  0  0  0  0  0  0
  184.0610  179.7450  140.3460 O   0  0  0  0  0  0  0  0  0  0  0  0
  183.3100  178.5470  140.8580 S   0  0  0  0  0  0  0  0  0  0  0  0
  181.0470  179.0480  142.1480 C   0  0  0  0  0  0  0  0  0  0  0  0
  182.2190  177.9470  139.6610 N   0  0  1  0  0  0  0  0  0  0  0  0
  181.1950  174.6360  135.6540 O   0  0  0  0  0  1  0  0  0  0  0  0
  181.5530  178.3500  137.3920 C   0  0  2  0  0  3  0  0  0  0  0  0
  180.2630  178.6760  140.9040 C   0  0  0  0  0  2  0  0  0  0  0  0
  182.3400  178.9960  142.2110 N   0  0  0  0  0  0  0  0  0  0  0  0
  180.3520  174.9720  136.7160 C   0  0  2  0  0  3  0  0  0  0  0  0
  183.5970  176.8670  137.9410 C   0  0  0  0  0  0  0  0  0  0  0  0
  180.3520  179.3970  143.2610 F   0  0  0  0  0  0  0  0  0  0  0  0
  180.0670  176.4790  136.7500 C   0  0  0  0  0  2  0  0  0  0  0  0
  184.8630  177.0860  137.3870 C   0  0  0  0  0  3  0  0  0  0  0  0
  183.8930  174.4740  137.6300 C   0  0  0  0  0  3  0  0  0  0  0  0
  185.1590  174.7020  137.0830 C   0  0  0  0  0  3  0  0  0  0  0  0
  180.9070  174.4360  138.0370 C   0  0  0  0  0  2  0  0  0  0  0  0
  180.4040  178.7180  138.3400 C   0  0  1  0  0  3  0  0  0  0  0  0
  181.2650  177.2670  136.4250 N   0  0  0  0  0  0  0  0  0  0  0  0
  181.1160  178.8830  139.6620 C   0  0  2  0  0  3  0  0  0  0  0  0
  182.7590  178.0630  138.3140 C   0  0  2  0  0  3  0  0  0  0  0  0
  182.2790  177.8910  134.5940 C   0  0  0  0  0  1  0  0  0  0  0  0
  181.0330  177.8570  135.2260 O   0  0  0  0  0  0  0  0  0  0  0  0
  179.7730  180.0370  137.9290 C   0  0  0  0  0  2  0  0  0  0  0  0
  180.7640  180.8790  137.1490 C   0  0  0  0  0  1  0  0  0  0  0  0
  1  4  1  0  0  0  0
  3 19  2  0  0  0  0
  3 17  1  0  0  0  0
  5  6  2  0  0  0  0
  6  2  2  0  0  0  0
  6 12  1  0  0  0  0
  7 12  2  0  0  0  0
  7 15  1  0  0  0  0
  8 23  1  0  0  0  0
  8  6  1  1  0  0  0
 10 22  1  1  0  0  0
 10 24  1  0  0  0  0
 10 21  1  0  0  0  0
 11  7  1  0  0  0  0
 13  9  1  6  0  0  0
 13 16  1  0  0  0  0
 13 20  1  0  0  0  0
 14  1  1  0  0  0  0
 17 14  2  0  0  0  0
 18  1  2  0  0  0  0
 19 18  1  0  0  0  0
 20  4  1  0  0  0  0
 21 27  1  6  0  0  0
 21 23  1  0  0  0  0
 22 16  1  0  0  0  0
 23 11  1  1  0  0  0
 24 14  1  6  0  0  0
 24  8  1  0  0  0  0
 25 26  1  0  0  0  0
 26 22  1  0  0  0  0
 28 27  1  0  0  0  0
M  END
>  <MODEL>
6

>  <REMARK>
 VINA RESULT:      -4.3      2.606      5.260
  Name = 
  2 active torsions:
  status: ('A' for Active; 'I' for Inactive)
    1  A    between atoms: C_5  and  C_24
    2  A    between atoms: O_17  and  N_25
                            x       y       z     vdW  Elec       q    Type
                         _______ _______ _______ _____ _____    ______ ____

>  <TORSDO>
F 2

$$$$
=
 OpenBabel11122411533D

 28 31  0  0  1  0  0  0  0  0999 V2000
  180.2130  178.0360  140.6180 C   0  0  0  0  0  0  0  0  0  0  0  0
  180.2870  181.7570  139.4770 O   0  0  0  0  0  0  0  0  0  0  0  0
  181.6030  178.7940  142.9260 C   0  0  0  0  0  3  0  0  0  0  0  0
  179.5340  177.6540  139.4600 O   0  0  0  0  0  0  0  0  0  0  0  0
  182.6280  181.8010  138.7040 O   0  0  0  0  0  0  0  0  0  0  0  0
  181.2350  181.3240  138.3960 S   0  0  0  0  0  0  0  0  0  0  0  0
  180.5810  181.2080  135.8280 C   0  0  0  0  0  0  0  0  0  0  0  0
  181.1950  179.6040  138.2420 N   0  0  1  0  0  0  0  0  0  0  0  0
  180.4190  174.8350  140.4140 O   0  0  0  0  0  1  0  0  0  0  0  0
  182.6280  177.6910  138.4380 C   0  0  2  0  0  3  0  0  0  0  0  0
  180.8050  179.7070  135.8460 C   0  0  0  0  0  2  0  0  0  0  0  0
  180.7220  181.9560  136.8760 N   0  0  0  0  0  0  0  0  0  0  0  0
  179.9880  175.2790  139.1620 C   0  0  2  0  0  3  0  0  0  0  0  0
  181.4500  178.6960  140.5080 C   0  0  0  0  0  0  0  0  0  0  0  0
  180.1590  181.7770  134.6710 F   0  0  0  0  0  0  0  0  0  0  0  0
  181.1700  175.6980  138.2790 C   0  0  0  0  0  2  0  0  0  0  0  0
  182.1400  179.0690  141.6660 C   0  0  0  0  0  3  0  0  0  0  0  0
  179.6840  177.7510  141.8850 C   0  0  0  0  0  3  0  0  0  0  0  0
  180.3770  178.1340  143.0370 C   0  0  0  0  0  3  0  0  0  0  0  0
  178.9320  176.3760  139.3100 C   0  0  0  0  0  2  0  0  0  0  0  0
  182.2330  177.8920  136.9690 C   0  0  1  0  0  3  0  0  0  0  0  0
  182.1980  176.4130  139.0490 N   0  0  0  0  0  0  0  0  0  0  0  0
  181.7840  179.3330  136.9490 C   0  0  2  0  0  3  0  0  0  0  0  0
  182.1010  178.9440  139.1710 C   0  0  2  0  0  3  0  0  0  0  0  0
  183.1600  174.7680  137.9810 C   0  0  0  0  0  1  0  0  0  0  0  0
  183.2890  175.6080  139.0910 O   0  0  0  0  0  0  0  0  0  0  0  0
  183.4390  177.7180  136.0620 C   0  0  0  0  0  2  0  0  0  0  0  0
  183.0730  176.8900  134.8460 C   0  0  0  0  0  1  0  0  0  0  0  0
  1 18  1  0  0  0  0
  3 19  1  0  0  0  0
  4  1  1  0  0  0  0
  6  5  2  0  0  0  0
  6  2  2  0  0  0  0
  7 11  1  0  0  0  0
  7 12  2  0  0  0  0
  8  6  1  1  0  0  0
  8 24  1  0  0  0  0
 10 22  1  1  0  0  0
 10 24  1  0  0  0  0
 12  6  1  0  0  0  0
 13 20  1  0  0  0  0
 13  9  1  1  0  0  0
 14  1  2  0  0  0  0
 14 17  1  0  0  0  0
 15  7  1  0  0  0  0
 16 22  1  0  0  0  0
 16 13  1  0  0  0  0
 17  3  2  0  0  0  0
 18 19  2  0  0  0  0
 20  4  1  0  0  0  0
 21 27  1  6  0  0  0
 21 10  1  0  0  0  0
 22 26  1  0  0  0  0
 23 11  1  6  0  0  0
 23 21  1  0  0  0  0
 23  8  1  0  0  0  0
 24 14  1  1  0  0  0
 25 26  1  0  0  0  0
 28 27  1  0  0  0  0
M  END
>  <MODEL>
7

>  <REMARK>
 VINA RESULT:      -4.2      2.961      4.091
  Name = 
  2 active torsions:
  status: ('A' for Active; 'I' for Inactive)
    1  A    between atoms: C_5  and  C_24
    2  A    between atoms: O_17  and  N_25
                            x       y       z     vdW  Elec       q    Type
                         _______ _______ _______ _____ _____    ______ ____

>  <TORSDO>
F 2

$$$$
=
 OpenBabel11122411533D

 28 31  0  0  1  0  0  0  0  0999 V2000
  180.0440  175.6420  138.1320 C   0  0  0  0  0  0  0  0  0  0  0  0
  178.9320  178.6760  140.3030 O   0  0  0  0  0  0  0  0  0  0  0  0
  179.5850  173.9870  140.3420 C   0  0  0  0  0  3  0  0  0  0  0  0
  180.2880  176.4680  137.0330 O   0  0  0  0  0  0  0  0  0  0  0  0
  181.0180  178.9160  141.5960 O   0  0  0  0  0  0  0  0  0  0  0  0
  180.3630  179.1300  140.2590 S   0  0  0  0  0  0  0  0  0  0  0  0
  181.1940  181.2330  138.8730 C   0  0  0  0  0  0  0  0  0  0  0  0
  181.2060  178.2750  139.0180 N   0  0  1  0  0  0  0  0  0  0  0  0
  181.7810  173.9350  136.0330 O   0  0  0  0  0  1  0  0  0  0  0  0
  183.0540  176.7740  138.7280 C   0  0  2  0  0  3  0  0  0  0  0  0
  182.0470  180.3200  138.0120 C   0  0  0  0  0  2  0  0  0  0  0  0
  180.4370  180.7980  139.8300 N   0  0  0  0  0  0  0  0  0  0  0  0
  181.8710  175.2680  135.6230 C   0  0  2  0  0  3  0  0  0  0  0  0
  180.7040  175.8950  139.3470 C   0  0  0  0  0  0  0  0  0  0  0  0
  181.1870  182.5590  138.5860 F   0  0  0  0  0  0  0  0  0  0  0  0
  182.9820  176.0110  136.3760 C   0  0  0  0  0  2  0  0  0  0  0  0
  180.4720  175.0620  140.4460 C   0  0  0  0  0  3  0  0  0  0  0  0
  179.1640  174.5550  138.0280 C   0  0  0  0  0  3  0  0  0  0  0  0
  178.9320  173.7320  139.1330 C   0  0  0  0  0  3  0  0  0  0  0  0
  180.5100  175.9590  135.7260 C   0  0  0  0  0  2  0  0  0  0  0  0
  183.3910  178.1340  138.1020 C   0  0  1  0  0  3  0  0  0  0  0  0
  183.0310  175.6260  137.7940 N   0  0  0  0  0  0  0  0  0  0  0  0
  182.4010  179.0530  138.7760 C   0  0  2  0  0  3  0  0  0  0  0  0
  181.7250  176.9960  139.4820 C   0  0  2  0  0  3  0  0  0  0  0  0
  184.9790  175.2720  136.8720 C   0  0  0  0  0  1  0  0  0  0  0  0
  184.1880  174.9430  137.9760 O   0  0  0  0  0  0  0  0  0  0  0  0
  184.8070  178.5530  138.4620 C   0  0  0  0  0  2  0  0  0  0  0  0
  184.8950  178.9150  139.9310 C   0  0  0  0  0  1  0  0  0  0  0  0
  1 14  1  0  0  0  0
  3 17  1  0  0  0  0
  4  1  1  0  0  0  0
  6  2  2  0  0  0  0
  6  5  2  0  0  0  0
  7 12  2  0  0  0  0
  8 24  1  0  0  0  0
  8  6  1  1  0  0  0
 10 22  1  6  0  0  0
 10 24  1  0  0  0  0
 11  7  1  0  0  0  0
 12  6  1  0  0  0  0
 13 20  1  0  0  0  0
 13  9  1  1  0  0  0
 13 16  1  0  0  0  0
 14 17  2  0  0  0  0
 15  7  1  0  0  0  0
 16 22  1  0  0  0  0
 18  1  2  0  0  0  0
 18 19  1  0  0  0  0
 19  3  2  0  0  0  0
 20  4  1  0  0  0  0
 21 27  1  1  0  0  0
 21 10  1  0  0  0  0
 21 23  1  0  0  0  0
 22 26  1  0  0  0  0
 23 11  1  6  0  0  0
 23  8  1  0  0  0  0
 24 14  1  6  0  0  0
 25 26  1  0  0  0  0
 27 28  1  0  0  0  0
M  END
>  <MODEL>
8

>  <REMARK>
 VINA RESULT:      -4.1      2.883      4.441
  Name = 
  2 active torsions:
  status: ('A' for Active; 'I' for Inactive)
    1  A    between atoms: C_5  and  C_24
    2  A    between atoms: O_17  and  N_25
                            x       y       z     vdW  Elec       q    Type
                         _______ _______ _______ _____ _____    ______ ____

>  <TORSDO>
F 2

$$$$
=
 OpenBabel11122411533D

 28 31  0  0  1  0  0  0  0  0999 V2000
  182.5010  177.9370  137.8830 C   0  0  0  0  0  0  0  0  0  0  0  0
  180.6980  174.7380  136.5900 O   0  0  0  0  0  0  0  0  0  0  0  0
  181.1750  179.3970  135.8970 C   0  0  0  0  0  3  0  0  0  0  0  0
  183.1760  177.2070  138.8630 O   0  0  0  0  0  0  0  0  0  0  0  0
  182.1160  174.3600  134.6080 O   0  0  0  0  0  0  0  0  0  0  0  0
  182.0420  174.2720  136.1080 S   0  0  0  0  0  0  0  0  0  0  0  0
  183.3990  172.2880  137.2300 C   0  0  0  0  0  0  0  0  0  0  0  0
  183.2850  175.2230  136.8400 N   0  0  1  0  0  0  0  0  0  0  0  0
  184.8810  179.7990  138.9770 O   0  0  0  0  0  1  0  0  0  0  0  0
  185.0630  176.7210  136.2520 C   0  0  2  0  0  3  0  0  0  0  0  0
  184.4990  173.2630  137.6060 C   0  0  0  0  0  2  0  0  0  0  0  0
  182.3180  172.6470  136.6140 N   0  0  0  0  0  0  0  0  0  0  0  0
  185.1560  178.5070  139.4310 C   0  0  2  0  0  3  0  0  0  0  0  0
  182.6380  177.5700  136.5330 C   0  0  0  0  0  0  0  0  0  0  0  0
  183.5370  170.9930  137.6090 F   0  0  0  0  0  0  0  0  0  0  0  0
  185.9000  177.6880  138.3700 C   0  0  0  0  0  2  0  0  0  0  0  0
  181.9740  178.3060  135.5460 C   0  0  0  0  0  3  0  0  0  0  0  0
  181.7070  179.0390  138.2300 C   0  0  0  0  0  3  0  0  0  0  0  0
  181.0420  179.7650  137.2390 C   0  0  0  0  0  3  0  0  0  0  0  0
  183.8810  177.8260  139.9300 C   0  0  0  0  0  2  0  0  0  0  0  0
  185.6490  175.4160  136.8090 C   0  0  1  0  0  3  0  0  0  0  0  0
  185.3810  177.9460  137.0190 N   0  0  0  0  0  0  0  0  0  0  0  0
  184.4960  174.4530  136.6590 C   0  0  2  0  0  3  0  0  0  0  0  0
  183.5500  176.4490  136.1020 C   0  0  2  0  0  3  0  0  0  0  0  0
  187.5200  178.3800  137.0840 C   0  0  0  0  0  1  0  0  0  0  0  0
  186.3570  178.5960  136.3390 O   0  0  0  0  0  0  0  0  0  0  0  0
  186.8200  174.9510  135.9600 C   0  0  0  0  0  2  0  0  0  0  0  0
  188.0610  174.7840  136.8150 C   0  0  0  0  0  1  0  0  0  0  0  0
  1 18  1  0  0  0  0
  1  4  1  0  0  0  0
  3 19  1  0  0  0  0
  4 20  1  0  0  0  0
  5  6  2  0  0  0  0
  6  2  2  0  0  0  0
  6 12  1  0  0  0  0
  7 11  1  0  0  0  0
  7 15  1  0  0  0  0
  8  6  1  6  0  0  0
 10 21  1  0  0  0  0
 10 22  1  1  0  0  0
 12  7  2  0  0  0  0
 13  9  1  6  0  0  0
 13 20  1  0  0  0  0
 14  1  2  0  0  0  0
 16 13  1  0  0  0  0
 17  3  2  0  0  0  0
 17 14  1  0  0  0  0
 19 18  2  0  0  0  0
 21 27  1  6  0  0  0
 22 16  1  0  0  0  0
 23 21  1  0  0  0  0
 23  8  1  0  0  0  0
 23 11  1  1  0  0  0
 24 10  1  0  0  0  0
 24 14  1  1  0  0  0
 24  8  1  0  0  0  0
 26 22  1  0  0  0  0
 26 25  1  0  0  0  0
 27 28  1  0  0  0  0
M  END
>  <MODEL>
9

>  <REMARK>
 VINA RESULT:      -4.0      2.833      5.309
  Name = 
  2 active torsions:
  status: ('A' for Active; 'I' for Inactive)
    1  A    between atoms: C_5  and  C_24
    2  A    between atoms: O_17  and  N_25
                            x       y       z     vdW  Elec       q    Type
                         _______ _______ _______ _____ _____    ______ ____

>  <TORSDO>
F 2

$$$$
