=
 OpenBabel11122411593D

 28 32  0  0  1  0  0  0  0  0999 V2000
  180.3660  178.2270  140.0680 C   0  0  0  0  0  0  0  0  0  0  0  0
  183.1980  176.8190  139.0120 O   0  0  0  0  0  0  0  0  0  0  0  0
  183.5300  179.4190  145.0880 O   0  0  0  0  0  1  0  0  0  0  0  0
  179.8920  180.3060  138.2440 C   0  0  0  0  0  3  0  0  0  0  0  0
  184.9090  178.8810  143.1550 C   0  0  2  0  0  3  0  0  0  0  0  0
  180.5190  177.1090  141.0460 C   0  0  0  0  0  2  0  0  0  0  0  0
  183.4290  178.4600  137.1940 O   0  0  0  0  0  0  0  0  0  0  0  0
  183.9780  178.0050  138.5160 S   0  0  0  0  0  0  0  0  0  0  0  0
  186.6440  178.1160  139.1650 C   0  0  0  0  0  0  0  0  0  0  0  0
  183.9210  179.3680  139.6820 C   0  0  2  0  0  3  0  0  0  0  0  0
  179.3380  178.4270  144.2730 O   0  0  0  0  0  0  0  0  0  0  0  0
  183.0380  178.2670  141.6780 C   0  0  1  0  0  3  0  0  0  0  0  0
  186.3680  178.8900  140.1730 N   0  0  0  0  0  0  0  0  0  0  0  0
  185.6290  177.5580  138.3330 N   0  0  0  0  0  2  0  0  0  0  0  0
  180.0430  178.3590  143.2350 C   0  0  0  0  0  0  0  0  0  0  0  0
  181.3590  179.2240  139.8630 C   0  0  0  0  0  0  0  0  0  0  0  0
  183.6020  179.4660  143.6920 C   0  0  1  0  0  3  0  0  0  0  0  0
  188.0670  177.8420  138.8370 C   0  0  0  0  0  1  0  0  0  0  0  0
  181.1630  179.3380  143.0630 C   0  0  0  0  0  2  0  0  0  0  0  0
  181.0910  180.2600  138.9550 C   0  0  0  0  0  3  0  0  0  0  0  0
  179.1660  178.2850  139.3470 C   0  0  0  0  0  3  0  0  0  0  0  0
  178.9310  179.3150  138.4380 C   0  0  0  0  0  3  0  0  0  0  0  0
  179.7390  177.3590  142.2520 N   0  0  0  0  0  2  0  0  0  0  0  0
  184.5660  178.2960  141.7890 C   0  0  1  0  0  3  0  0  0  0  0  0
  182.5130  178.6300  143.0670 C   0  0  1  0  0  3  0  0  0  0  0  0
  185.0450  179.2450  140.6990 C   0  0  2  0  0  3  0  0  0  0  0  0
  185.4530  177.7620  144.0330 C   0  0  0  0  0  1  0  0  0  0  0  0
  182.6960  179.2940  140.5850 C   0  0  2  0  0  3  0  0  0  0  0  0
  1  6  1  0  0  0  0
  4 22  2  0  0  0  0
  4 20  1  0  0  0  0
  5 17  1  0  0  0  0
  5 27  1  1  0  0  0
  6 23  1  0  0  0  0
  7  8  2  0  0  0  0
  8  2  2  0  0  0  0
  9 13  2  0  0  0  0
 10  8  1  6  0  0  0
 10 28  1  0  0  0  0
 10 26  1  0  0  0  0
 12 24  1  0  0  0  0
 12 25  1  0  0  0  0
 13 26  1  0  0  0  0
 14  8  1  0  0  0  0
 14  9  1  0  0  0  0
 15 11  2  0  0  0  0
 16  1  1  0  0  0  0
 16 28  1  0  0  0  0
 17  3  1  0  0  0  0
 18  9  1  0  0  0  0
 19 25  1  0  0  0  0
 19 15  1  0  0  0  0
 20 16  2  0  0  0  0
 21  1  2  0  0  0  0
 22 21  1  0  0  0  0
 23 15  1  0  0  0  0
 24  5  1  0  0  0  0
 25 17  1  0  0  0  0
 26 24  1  0  0  0  0
 28 12  1  0  0  0  0
M  END
>  <MODEL>
1

>  <REMARK>
 VINA RESULT:      -6.9      0.000      0.000
  Name = 
  0 active torsions:
  status: ('A' for Active; 'I' for Inactive)
                            x       y       z     vdW  Elec       q    Type
                         _______ _______ _______ _____ _____    ______ ____

>  <TORSDO>
F 0

$$$$
=
 OpenBabel11122411593D

 28 32  0  0  1  0  0  0  0  0999 V2000
  190.0650  177.4310  144.4400 C   0  0  0  0  0  0  0  0  0  0  0  0
  188.7350  179.2080  141.9510 O   0  0  0  0  0  0  0  0  0  0  0  0
  184.6480  178.1400  147.0440 O   0  0  0  0  0  1  0  0  0  0  0  0
  190.6930  174.9560  143.2790 C   0  0  0  0  0  3  0  0  0  0  0  0
  184.6540  178.5580  144.6450 C   0  0  2  0  0  3  0  0  0  0  0  0
  189.8110  178.7390  145.1160 C   0  0  0  0  0  2  0  0  0  0  0  0
  188.9270  177.3150  140.3920 O   0  0  0  0  0  0  0  0  0  0  0  0
  187.9730  178.1630  141.1850 S   0  0  0  0  0  0  0  0  0  0  0  0
  185.4580  178.8300  140.3100 C   0  0  0  0  0  0  0  0  0  0  0  0
  187.0140  177.1110  142.2770 C   0  0  2  0  0  3  0  0  0  0  0  0
  188.7610  177.9090  148.5450 O   0  0  0  0  0  0  0  0  0  0  0  0
  187.0930  178.3760  144.3680 C   0  0  1  0  0  3  0  0  0  0  0  0
  184.9400  178.2500  141.3530 N   0  0  0  0  0  0  0  0  0  0  0  0
  186.8670  178.9380  140.1210 N   0  0  0  0  0  2  0  0  0  0  0  0
  188.7240  177.9160  147.2890 C   0  0  0  0  0  0  0  0  0  0  0  0
  189.0470  176.6790  143.7940 C   0  0  0  0  0  0  0  0  0  0  0  0
  185.2630  177.8100  145.8320 C   0  0  1  0  0  3  0  0  0  0  0  0
  184.5520  179.3570  139.2560 C   0  0  0  0  0  1  0  0  0  0  0  0
  187.5910  177.2170  146.6020 C   0  0  0  0  0  2  0  0  0  0  0  0
  189.3850  175.4370  143.2330 C   0  0  0  0  0  3  0  0  0  0  0  0
  191.3750  176.9360  144.4780 C   0  0  0  0  0  3  0  0  0  0  0  0
  191.6890  175.7080  143.8990 C   0  0  0  0  0  3  0  0  0  0  0  0
  189.7690  178.5780  146.5650 N   0  0  0  0  0  2  0  0  0  0  0  0
  185.7900  178.7350  143.6440 C   0  0  1  0  0  3  0  0  0  0  0  0
  186.7190  178.2090  145.8400 C   0  0  1  0  0  3  0  0  0  0  0  0
  185.6400  177.7140  142.5250 C   0  0  2  0  0  3  0  0  0  0  0  0
  184.1320  179.9370  145.0280 C   0  0  0  0  0  1  0  0  0  0  0  0
  187.5850  177.0850  143.6900 C   0  0  2  0  0  3  0  0  0  0  0  0
  1 21  1  0  0  0  0
  1  6  1  0  0  0  0
  4 22  1  0  0  0  0
  5 27  1  1  0  0  0
  5 17  1  0  0  0  0
  6 23  1  0  0  0  0
  7  8  2  0  0  0  0
  8  2  2  0  0  0  0
  9 13  2  0  0  0  0
 10  8  1  6  0  0  0
 10 26  1  0  0  0  0
 10 28  1  0  0  0  0
 12 25  1  0  0  0  0
 13 26  1  0  0  0  0
 14  9  1  0  0  0  0
 14  8  1  0  0  0  0
 15 11  2  0  0  0  0
 16  1  2  0  0  0  0
 17 25  1  0  0  0  0
 17  3  1  0  0  0  0
 18  9  1  0  0  0  0
 19 15  1  0  0  0  0
 20  4  2  0  0  0  0
 20 16  1  0  0  0  0
 22 21  2  0  0  0  0
 23 15  1  0  0  0  0
 24 12  1  0  0  0  0
 24  5  1  0  0  0  0
 25 19  1  0  0  0  0
 26 24  1  0  0  0  0
 28 16  1  0  0  0  0
 28 12  1  0  0  0  0
M  END
>  <MODEL>
2

>  <REMARK>
 VINA RESULT:      -6.5      4.035      7.625
  Name = 
  0 active torsions:
  status: ('A' for Active; 'I' for Inactive)
                            x       y       z     vdW  Elec       q    Type
                         _______ _______ _______ _____ _____    ______ ____

>  <TORSDO>
F 0

$$$$
=
 OpenBabel11122411593D

 28 32  0  0  1  0  0  0  0  0999 V2000
  190.6250  178.0650  142.5200 C   0  0  0  0  0  0  0  0  0  0  0  0
  187.8760  179.9040  142.0930 O   0  0  0  0  0  0  0  0  0  0  0  0
  188.0810  176.5660  147.8020 O   0  0  0  0  0  1  0  0  0  0  0  0
  190.5640  176.2110  140.4150 C   0  0  0  0  0  3  0  0  0  0  0  0
  186.5220  177.5060  146.1860 C   0  0  2  0  0  3  0  0  0  0  0  0
  190.7570  179.0530  143.6330 C   0  0  0  0  0  2  0  0  0  0  0  0
  187.1800  178.5570  140.1560 O   0  0  0  0  0  0  0  0  0  0  0  0
  186.8880  178.8880  141.5920 S   0  0  0  0  0  0  0  0  0  0  0  0
  184.3490  178.9840  142.6350 C   0  0  0  0  0  0  0  0  0  0  0  0
  186.9340  177.3840  142.5680 C   0  0  2  0  0  3  0  0  0  0  0  0
  192.2070  177.1930  146.4590 O   0  0  0  0  0  0  0  0  0  0  0  0
  188.2270  178.1030  144.5140 C   0  0  1  0  0  3  0  0  0  0  0  0
  184.6650  178.0570  143.4900 N   0  0  0  0  0  0  0  0  0  0  0  0
  185.2990  179.5350  141.7240 N   0  0  0  0  0  2  0  0  0  0  0  0
  191.3760  177.4760  145.5590 C   0  0  0  0  0  0  0  0  0  0  0  0
  189.4930  177.2200  142.3600 C   0  0  0  0  0  0  0  0  0  0  0  0
  187.8050  176.7140  146.4400 C   0  0  1  0  0  3  0  0  0  0  0  0
  182.9410  179.4550  142.5700 C   0  0  0  0  0  1  0  0  0  0  0  0
  190.1260  176.6580  145.4540 C   0  0  0  0  0  2  0  0  0  0  0  0
  189.4940  176.2920  141.3070 C   0  0  0  0  0  3  0  0  0  0  0  0
  191.6920  177.9730  141.6170 C   0  0  0  0  0  3  0  0  0  0  0  0
  191.6620  177.0550  140.5690 C   0  0  0  0  0  3  0  0  0  0  0  0
  191.6620  178.5590  144.6640 N   0  0  0  0  0  2  0  0  0  0  0  0
  186.7390  178.2280  144.8600 C   0  0  1  0  0  3  0  0  0  0  0  0
  188.8930  177.5020  145.7520 C   0  0  1  0  0  3  0  0  0  0  0  0
  185.9920  177.4910  143.7570 C   0  0  2  0  0  3  0  0  0  0  0  0
  186.2560  178.5500  147.2630 C   0  0  0  0  0  1  0  0  0  0  0  0
  188.2750  177.2010  143.2700 C   0  0  2  0  0  3  0  0  0  0  0  0
  1  6  1  0  0  0  0
  4 22  2  0  0  0  0
  4 20  1  0  0  0  0
  5 17  1  0  0  0  0
  5 27  1  1  0  0  0
  6 23  1  0  0  0  0
  7  8  2  0  0  0  0
  8 14  1  0  0  0  0
  8  2  2  0  0  0  0
  9 13  2  0  0  0  0
 10  8  1  1  0  0  0
 10 28  1  0  0  0  0
 10 26  1  0  0  0  0
 12 24  1  0  0  0  0
 12 25  1  0  0  0  0
 13 26  1  0  0  0  0
 14  9  1  0  0  0  0
 15 11  2  0  0  0  0
 16  1  1  0  0  0  0
 16 28  1  0  0  0  0
 17  3  1  0  0  0  0
 18  9  1  0  0  0  0
 19 15  1  0  0  0  0
 19 25  1  0  0  0  0
 20 16  2  0  0  0  0
 21  1  2  0  0  0  0
 22 21  1  0  0  0  0
 23 15  1  0  0  0  0
 24  5  1  0  0  0  0
 25 17  1  0  0  0  0
 26 24  1  0  0  0  0
 28 12  1  0  0  0  0
M  END
>  <MODEL>
3

>  <REMARK>
 VINA RESULT:      -6.3      4.268      8.144
  Name = 
  0 active torsions:
  status: ('A' for Active; 'I' for Inactive)
                            x       y       z     vdW  Elec       q    Type
                         _______ _______ _______ _____ _____    ______ ____

>  <TORSDO>
F 0

$$$$
=
 OpenBabel11122411593D

 28 32  0  0  1  0  0  0  0  0999 V2000
  186.6900  175.7200  135.6780 C   0  0  0  0  0  0  0  0  0  0  0  0
  183.4290  175.4560  135.0310 O   0  0  0  0  0  0  0  0  0  0  0  0
  184.9300  179.7530  139.8340 O   0  0  0  0  0  1  0  0  0  0  0  0
  187.4490  173.1540  136.5210 C   0  0  0  0  0  3  0  0  0  0  0  0
  183.1460  178.2870  139.0610 C   0  0  2  0  0  3  0  0  0  0  0  0
  186.3760  177.0960  135.1880 C   0  0  0  0  0  2  0  0  0  0  0  0
  183.3960  173.1040  135.7490 O   0  0  0  0  0  0  0  0  0  0  0  0
  182.9690  174.5020  136.0970 S   0  0  0  0  0  0  0  0  0  0  0  0
  180.6100  175.0880  137.3750 C   0  0  0  0  0  0  0  0  0  0  0  0
  183.6290  174.9400  137.7070 C   0  0  2  0  0  3  0  0  0  0  0  0
  188.4290  179.3780  137.2190 O   0  0  0  0  0  0  0  0  0  0  0  0
  184.4670  177.1990  137.2930 C   0  0  1  0  0  3  0  0  0  0  0  0
  181.2730  175.6420  138.3470 N   0  0  0  0  0  0  0  0  0  0  0  0
  181.2540  174.5700  136.2120 N   0  0  0  0  0  2  0  0  0  0  0  0
  187.5710  178.4920  136.9770 C   0  0  0  0  0  0  0  0  0  0  0  0
  186.0220  175.1150  136.7770 C   0  0  0  0  0  0  0  0  0  0  0  0
  184.6390  178.4830  139.3260 C   0  0  1  0  0  3  0  0  0  0  0  0
  179.1360  174.9450  137.4990 C   0  0  0  0  0  1  0  0  0  0  0  0
  186.7840  177.9270  138.1200 C   0  0  0  0  0  2  0  0  0  0  0  0
  186.4300  173.8360  137.1870 C   0  0  0  0  0  3  0  0  0  0  0  0
  187.7100  175.0240  135.0180 C   0  0  0  0  0  3  0  0  0  0  0  0
  188.0860  173.7470  135.4340 C   0  0  0  0  0  3  0  0  0  0  0  0
  187.3880  178.0490  135.6260 N   0  0  0  0  0  2  0  0  0  0  0  0
  183.0600  177.3160  137.8880 C   0  0  1  0  0  3  0  0  0  0  0  0
  185.3050  178.2720  137.9880 C   0  0  1  0  0  3  0  0  0  0  0  0
  182.7100  175.9290  138.4080 C   0  0  2  0  0  3  0  0  0  0  0  0
  182.4480  179.5820  138.6640 C   0  0  0  0  0  1  0  0  0  0  0  0
  184.9110  175.7570  137.5940 C   0  0  2  0  0  3  0  0  0  0  0  0
  1 16  1  0  0  0  0
  2  8  2  0  0  0  0
  4 20  1  0  0  0  0
  5 27  1  6  0  0  0
  5 17  1  0  0  0  0
  6 23  1  0  0  0  0
  6  1  1  0  0  0  0
  7  8  2  0  0  0  0
  8 14  1  0  0  0  0
  9 18  1  0  0  0  0
  9 13  2  0  0  0  0
 10  8  1  6  0  0  0
 10 26  1  0  0  0  0
 12 28  1  0  0  0  0
 12 24  1  0  0  0  0
 12 25  1  0  0  0  0
 13 26  1  0  0  0  0
 14  9  1  0  0  0  0
 15 11  2  0  0  0  0
 15 19  1  0  0  0  0
 16 20  2  0  0  0  0
 16 28  1  0  0  0  0
 17  3  1  0  0  0  0
 21 22  1  0  0  0  0
 21  1  2  0  0  0  0
 22  4  2  0  0  0  0
 23 15  1  0  0  0  0
 24 26  1  0  0  0  0
 24  5  1  0  0  0  0
 25 19  1  0  0  0  0
 25 17  1  0  0  0  0
 28 10  1  0  0  0  0
M  END
>  <MODEL>
4

>  <REMARK>
 VINA RESULT:      -6.0      3.846      7.368
  Name = 
  0 active torsions:
  status: ('A' for Active; 'I' for Inactive)
                            x       y       z     vdW  Elec       q    Type
                         _______ _______ _______ _____ _____    ______ ____

>  <TORSDO>
F 0

$$$$
=
 OpenBabel11122411593D

 28 32  0  0  1  0  0  0  0  0999 V2000
  181.0810  176.3360  137.6830 C   0  0  0  0  0  0  0  0  0  0  0  0
  184.3470  175.6650  137.6090 O   0  0  0  0  0  0  0  0  0  0  0  0
  182.3750  179.1020  142.9080 O   0  0  0  0  0  1  0  0  0  0  0  0
  180.6350  177.9030  135.3990 C   0  0  0  0  0  3  0  0  0  0  0  0
  184.3150  178.7080  141.4910 C   0  0  2  0  0  3  0  0  0  0  0  0
  181.2280  175.4630  138.8860 C   0  0  0  0  0  2  0  0  0  0  0  0
  184.6600  177.0210  135.5810 O   0  0  0  0  0  0  0  0  0  0  0  0
  184.9220  176.9400  137.0580 S   0  0  0  0  0  0  0  0  0  0  0  0
  187.2020  177.9060  138.2460 C   0  0  0  0  0  0  0  0  0  0  0  0
  184.2230  178.3820  137.8640 C   0  0  2  0  0  3  0  0  0  0  0  0
  178.9310  176.8390  141.4120 O   0  0  0  0  0  0  0  0  0  0  0  0
  183.1220  177.3760  139.8010 C   0  0  1  0  0  3  0  0  0  0  0  0
  186.4830  178.7050  138.9780 N   0  0  0  0  0  0  0  0  0  0  0  0
  186.6170  176.9640  137.3470 N   0  0  0  0  0  2  0  0  0  0  0  0
  179.8860  176.8270  140.5950 C   0  0  0  0  0  0  0  0  0  0  0  0
  181.8210  177.5360  137.4970 C   0  0  0  0  0  0  0  0  0  0  0  0
  182.8110  178.9650  141.5870 C   0  0  1  0  0  3  0  0  0  0  0  0
  188.6830  178.0070  138.3100 C   0  0  0  0  0  1  0  0  0  0  0  0
  180.7400  178.0510  140.4730 C   0  0  0  0  0  2  0  0  0  0  0  0
  181.5690  178.3080  136.3520 C   0  0  0  0  0  3  0  0  0  0  0  0
  180.1460  175.9420  136.7170 C   0  0  0  0  0  3  0  0  0  0  0  0
  179.9260  176.7170  135.5800 C   0  0  0  0  0  3  0  0  0  0  0  0
  180.1130  175.6510  139.8060 N   0  0  0  0  0  2  0  0  0  0  0  0
  184.5090  177.8580  140.2400 C   0  0  1  0  0  3  0  0  0  0  0  0
  182.1680  177.7690  140.9280 C   0  0  1  0  0  3  0  0  0  0  0  0
  185.0230  178.7370  139.1080 C   0  0  2  0  0  3  0  0  0  0  0  0
  184.8530  177.9330  142.6870 C   0  0  0  0  0  1  0  0  0  0  0  0
  182.8530  178.0910  138.4660 C   0  0  2  0  0  3  0  0  0  0  0  0
  1  6  1  0  0  0  0
  4 22  2  0  0  0  0
  4 20  1  0  0  0  0
  5 17  1  0  0  0  0
  5 27  1  1  0  0  0
  6 23  1  0  0  0  0
  7  8  2  0  0  0  0
  8 14  1  0  0  0  0
  8  2  2  0  0  0  0
  9 18  1  0  0  0  0
  9 13  2  0  0  0  0
 10  8  1  1  0  0  0
 10 28  1  0  0  0  0
 10 26  1  0  0  0  0
 12 24  1  0  0  0  0
 12 25  1  0  0  0  0
 13 26  1  0  0  0  0
 14  9  1  0  0  0  0
 15 11  2  0  0  0  0
 16  1  1  0  0  0  0
 16 28  1  0  0  0  0
 17  3  1  0  0  0  0
 19 15  1  0  0  0  0
 19 25  1  0  0  0  0
 20 16  2  0  0  0  0
 21  1  2  0  0  0  0
 22 21  1  0  0  0  0
 23 15  1  0  0  0  0
 24  5  1  0  0  0  0
 25 17  1  0  0  0  0
 26 24  1  0  0  0  0
 28 12  1  0  0  0  0
M  END
>  <MODEL>
5

>  <REMARK>
 VINA RESULT:      -5.7      2.303      2.547
  Name = 
  0 active torsions:
  status: ('A' for Active; 'I' for Inactive)
                            x       y       z     vdW  Elec       q    Type
                         _______ _______ _______ _____ _____    ______ ____

>  <TORSDO>
F 0

$$$$
=
 OpenBabel11122411593D

 28 32  0  0  1  0  0  0  0  0999 V2000
  182.8660  178.5960  138.4780 C   0  0  0  0  0  0  0  0  0  0  0  0
  181.2610  175.7940  139.3120 O   0  0  0  0  0  0  0  0  0  0  0  0
  186.8850  174.8370  135.9590 O   0  0  0  0  0  1  0  0  0  0  0  0
  181.0690  179.9660  136.8150 C   0  0  0  0  0  3  0  0  0  0  0  0
  184.7200  173.8160  136.4030 C   0  0  2  0  0  3  0  0  0  0  0  0
  183.8530  177.9560  139.3980 C   0  0  0  0  0  2  0  0  0  0  0  0
  179.3320  176.3870  137.9070 O   0  0  0  0  0  0  0  0  0  0  0  0
  180.5120  175.4680  138.0510 S   0  0  0  0  0  0  0  0  0  0  0  0
  180.4930  172.8440  137.2420 C   0  0  0  0  0  0  0  0  0  0  0  0
  181.5600  175.6190  136.6020 C   0  0  2  0  0  3  0  0  0  0  0  0
  187.1710  178.7110  137.9920 O   0  0  0  0  0  0  0  0  0  0  0  0
  183.7810  175.7410  137.6160 C   0  0  1  0  0  3  0  0  0  0  0  0
  181.4820  173.0850  136.4330 N   0  0  0  0  0  0  0  0  0  0  0  0
  179.9700  173.8380  138.1220 N   0  0  0  0  0  2  0  0  0  0  0  0
  186.0000  178.2530  138.0260 C   0  0  0  0  0  0  0  0  0  0  0  0
  182.3600  177.9580  137.3130 C   0  0  0  0  0  0  0  0  0  0  0  0
  185.5130  175.0810  136.0730 C   0  0  1  0  0  3  0  0  0  0  0  0
  179.8540  171.5030  137.2180 C   0  0  0  0  0  1  0  0  0  0  0  0
  185.4980  177.4840  136.8430 C   0  0  0  0  0  2  0  0  0  0  0  0
  181.4730  178.6710  136.4910 C   0  0  0  0  0  3  0  0  0  0  0  0
  182.4510  179.8970  138.7920 C   0  0  0  0  0  3  0  0  0  0  0  0
  181.5560  180.5770  137.9680 C   0  0  0  0  0  3  0  0  0  0  0  0
  185.1910  178.4950  139.1840 N   0  0  0  0  0  2  0  0  0  0  0  0
  183.5200  174.2840  137.2200 C   0  0  1  0  0  3  0  0  0  0  0  0
  185.2270  176.0300  137.2120 C   0  0  1  0  0  3  0  0  0  0  0  0
  182.2840  174.3090  136.3310 C   0  0  2  0  0  3  0  0  0  0  0  0
  185.5180  172.8280  137.2440 C   0  0  0  0  0  1  0  0  0  0  0  0
  182.7340  176.5610  136.8430 C   0  0  2  0  0  3  0  0  0  0  0  0
  1 21  1  0  0  0  0
  1  6  1  0  0  0  0
  3 17  1  0  0  0  0
  4 22  1  0  0  0  0
  5 24  1  0  0  0  0
  5 27  1  1  0  0  0
  7  8  2  0  0  0  0
  8 14  1  0  0  0  0
  8  2  2  0  0  0  0
  9 14  1  0  0  0  0
 10 28  1  0  0  0  0
 10  8  1  1  0  0  0
 11 15  2  0  0  0  0
 13  9  2  0  0  0  0
 15 23  1  0  0  0  0
 16  1  2  0  0  0  0
 17  5  1  0  0  0  0
 17 25  1  0  0  0  0
 18  9  1  0  0  0  0
 19 25  1  0  0  0  0
 19 15  1  0  0  0  0
 20  4  2  0  0  0  0
 20 16  1  0  0  0  0
 22 21  2  0  0  0  0
 23  6  1  0  0  0  0
 24 12  1  0  0  0  0
 25 12  1  0  0  0  0
 26 13  1  0  0  0  0
 26 10  1  0  0  0  0
 26 24  1  0  0  0  0
 28 16  1  0  0  0  0
 28 12  1  0  0  0  0
M  END
>  <MODEL>
6

>  <REMARK>
 VINA RESULT:      -5.7      4.135      6.612
  Name = 
  0 active torsions:
  status: ('A' for Active; 'I' for Inactive)
                            x       y       z     vdW  Elec       q    Type
                         _______ _______ _______ _____ _____    ______ ____

>  <TORSDO>
F 0

$$$$
=
 OpenBabel11122411593D

 28 32  0  0  1  0  0  0  0  0999 V2000
  190.7890  176.9850  144.9740 C   0  0  0  0  0  0  0  0  0  0  0  0
  191.1630  178.6070  142.0850 O   0  0  0  0  0  0  0  0  0  0  0  0
  184.8810  177.9090  144.0420 O   0  0  0  0  0  1  0  0  0  0  0  0
  191.8510  174.4340  144.4910 C   0  0  0  0  0  3  0  0  0  0  0  0
  186.2500  178.1690  142.0450 C   0  0  2  0  0  3  0  0  0  0  0  0
  190.2570  178.3360  145.3260 C   0  0  0  0  0  2  0  0  0  0  0  0
  192.1130  176.6150  140.9990 O   0  0  0  0  0  0  0  0  0  0  0  0
  190.9170  177.5210  141.0760 S   0  0  0  0  0  0  0  0  0  0  0  0
  189.3570  178.1510  138.9060 C   0  0  0  0  0  0  0  0  0  0  0  0
  189.4660  176.5510  141.4890 C   0  0  2  0  0  3  0  0  0  0  0  0
  187.4300  177.7410  147.6060 O   0  0  0  0  0  0  0  0  0  0  0  0
  188.4140  177.9480  143.1970 C   0  0  1  0  0  3  0  0  0  0  0  0
  188.3190  177.6450  139.5040 N   0  0  0  0  0  0  0  0  0  0  0  0
  190.6330  178.2340  139.5370 N   0  0  0  0  0  2  0  0  0  0  0  0
  188.1040  177.6660  146.5470 C   0  0  0  0  0  0  0  0  0  0  0  0
  190.2770  176.2010  143.9060 C   0  0  0  0  0  0  0  0  0  0  0  0
  186.0540  177.4950  143.4040 C   0  0  1  0  0  3  0  0  0  0  0  0
  189.2230  178.6160  137.5010 C   0  0  0  0  0  1  0  0  0  0  0  0
  187.5220  176.9340  145.3780 C   0  0  0  0  0  2  0  0  0  0  0  0
  190.8160  174.9230  143.6930 C   0  0  0  0  0  3  0  0  0  0  0  0
  191.8290  176.4820  145.7670 C   0  0  0  0  0  3  0  0  0  0  0  0
  192.3600  175.2160  145.5260 C   0  0  0  0  0  3  0  0  0  0  0  0
  189.4030  178.2700  146.5060 N   0  0  0  0  0  2  0  0  0  0  0  0
  187.7580  178.2710  141.8490 C   0  0  1  0  0  3  0  0  0  0  0  0
  187.2710  177.8810  144.2100 C   0  0  1  0  0  3  0  0  0  0  0  0
  188.2170  177.1800  140.8910 C   0  0  2  0  0  3  0  0  0  0  0  0
  185.6640  179.5750  142.0000 C   0  0  0  0  0  1  0  0  0  0  0  0
  189.1440  176.6130  142.9780 C   0  0  2  0  0  3  0  0  0  0  0  0
  1  6  1  0  0  0  0
  1 21  1  0  0  0  0
  4 22  1  0  0  0  0
  5 27  1  1  0  0  0
  5 17  1  0  0  0  0
  6 23  1  0  0  0  0
  7  8  2  0  0  0  0
  8  2  2  0  0  0  0
  9 13  2  0  0  0  0
  9 14  1  0  0  0  0
 10  8  1  1  0  0  0
 10 28  1  0  0  0  0
 12 25  1  0  0  0  0
 13 26  1  0  0  0  0
 14  8  1  0  0  0  0
 15 11  2  0  0  0  0
 16  1  2  0  0  0  0
 17  3  1  0  0  0  0
 17 25  1  0  0  0  0
 18  9  1  0  0  0  0
 19 15  1  0  0  0  0
 20 16  1  0  0  0  0
 20  4  2  0  0  0  0
 22 21  2  0  0  0  0
 23 15  1  0  0  0  0
 24  5  1  0  0  0  0
 24 12  1  0  0  0  0
 25 19  1  0  0  0  0
 26 10  1  0  0  0  0
 26 24  1  0  0  0  0
 28 12  1  0  0  0  0
 28 16  1  0  0  0  0
M  END
>  <MODEL>
7

>  <REMARK>
 VINA RESULT:      -5.6      4.878      8.360
  Name = 
  0 active torsions:
  status: ('A' for Active; 'I' for Inactive)
                            x       y       z     vdW  Elec       q    Type
                         _______ _______ _______ _____ _____    ______ ____

>  <TORSDO>
F 0

$$$$
=
 OpenBabel11122411593D

 28 32  0  0  1  0  0  0  0  0999 V2000
  181.9860  178.4090  140.8730 C   0  0  0  0  0  0  0  0  0  0  0  0
  181.3350  175.5730  139.2430 O   0  0  0  0  0  0  0  0  0  0  0  0
  187.0810  178.4190  137.6060 O   0  0  0  0  0  1  0  0  0  0  0  0
  179.9030  180.1380  140.1340 C   0  0  0  0  0  3  0  0  0  0  0  0
  185.3420  176.9610  136.7220 C   0  0  2  0  0  3  0  0  0  0  0  0
  183.0950  177.5330  141.3560 C   0  0  0  0  0  2  0  0  0  0  0  0
  179.3670  176.5610  138.1480 O   0  0  0  0  0  0  0  0  0  0  0  0
  180.7740  176.0750  137.9430 S   0  0  0  0  0  0  0  0  0  0  0  0
  181.6240  174.8350  135.6450 C   0  0  0  0  0  0  0  0  0  0  0  0
  181.7670  177.4050  137.2620 C   0  0  2  0  0  3  0  0  0  0  0  0
  186.0410  179.7180  141.6630 O   0  0  0  0  0  0  0  0  0  0  0  0
  183.7960  177.2420  138.6160 C   0  0  1  0  0  3  0  0  0  0  0  0
  182.5100  175.7690  135.4670 N   0  0  0  0  0  0  0  0  0  0  0  0
  180.7800  174.7940  136.7950 N   0  0  0  0  0  2  0  0  0  0  0  0
  185.0790  179.1380  141.0990 C   0  0  0  0  0  0  0  0  0  0  0  0
  181.7510  178.6800  139.4970 C   0  0  0  0  0  0  0  0  0  0  0  0
  185.6990  178.2230  137.5090 C   0  0  1  0  0  3  0  0  0  0  0  0
  181.4490  173.7990  134.5940 C   0  0  0  0  0  1  0  0  0  0  0  0
  184.8900  179.3310  139.6260 C   0  0  0  0  0  2  0  0  0  0  0  0
  180.7110  179.5590  139.1550 C   0  0  0  0  0  3  0  0  0  0  0  0
  181.1660  178.9970  141.8450 C   0  0  0  0  0  3  0  0  0  0  0  0
  180.1290  179.8530  141.4790 C   0  0  0  0  0  3  0  0  0  0  0  0
  184.1960  178.3290  141.8860 N   0  0  0  0  0  2  0  0  0  0  0  0
  184.0290  176.4640  137.3160 C   0  0  1  0  0  3  0  0  0  0  0  0
  185.0860  178.0200  138.8730 C   0  0  1  0  0  3  0  0  0  0  0  0
  182.8810  176.8460  136.3910 C   0  0  2  0  0  3  0  0  0  0  0  0
  186.3850  175.8620  136.8760 C   0  0  0  0  0  1  0  0  0  0  0  0
  182.5680  178.1260  138.3400 C   0  0  2  0  0  3  0  0  0  0  0  0
  1  6  1  0  0  0  0
  1 21  1  0  0  0  0
  4 22  1  0  0  0  0
  5 27  1  1  0  0  0
  5 24  1  0  0  0  0
  5 17  1  0  0  0  0
  6 23  1  0  0  0  0
  8  7  2  0  0  0  0
  8  2  2  0  0  0  0
  9 14  1  0  0  0  0
 10  8  1  1  0  0  0
 10 28  1  0  0  0  0
 12 25  1  0  0  0  0
 13  9  2  0  0  0  0
 13 26  1  0  0  0  0
 14  8  1  0  0  0  0
 15 11  2  0  0  0  0
 15 23  1  0  0  0  0
 16  1  2  0  0  0  0
 17  3  1  0  0  0  0
 17 25  1  0  0  0  0
 18  9  1  0  0  0  0
 19 15  1  0  0  0  0
 20 16  1  0  0  0  0
 20  4  2  0  0  0  0
 22 21  2  0  0  0  0
 24 12  1  0  0  0  0
 25 19  1  0  0  0  0
 26 10  1  0  0  0  0
 26 24  1  0  0  0  0
 28 12  1  0  0  0  0
 28 16  1  0  0  0  0
M  END
>  <MODEL>
8

>  <REMARK>
 VINA RESULT:      -5.3      3.268      5.135
  Name = 
  0 active torsions:
  status: ('A' for Active; 'I' for Inactive)
                            x       y       z     vdW  Elec       q    Type
                         _______ _______ _______ _____ _____    ______ ____

>  <TORSDO>
F 0

$$$$
=
 OpenBabel11122411593D

 28 32  0  0  1  0  0  0  0  0999 V2000
  183.2170  177.8880  137.2200 C   0  0  0  0  0  0  0  0  0  0  0  0
  185.8420  177.9330  135.1630 O   0  0  0  0  0  0  0  0  0  0  0  0
  184.2050  171.9190  137.3870 O   0  0  0  0  0  1  0  0  0  0  0  0
  184.0130  179.4520  139.4090 C   0  0  0  0  0  3  0  0  0  0  0  0
  186.1010  173.2130  136.5750 C   0  0  2  0  0  3  0  0  0  0  0  0
  182.7010  177.0900  136.0680 C   0  0  0  0  0  2  0  0  0  0  0  0
  187.1600  179.2740  136.7480 O   0  0  0  0  0  0  0  0  0  0  0  0
  186.9990  177.9180  136.1230 S   0  0  0  0  0  0  0  0  0  0  0  0
  189.1110  176.2700  135.5200 C   0  0  0  0  0  0  0  0  0  0  0  0
  186.7710  176.6940  137.4150 C   0  0  2  0  0  3  0  0  0  0  0  0
  180.6180  174.4350  137.5390 O   0  0  0  0  0  0  0  0  0  0  0  0
  184.9220  175.3720  136.5150 C   0  0  1  0  0  3  0  0  0  0  0  0
  188.6230  175.3550  136.3050 N   0  0  0  0  0  0  0  0  0  0  0  0
  188.4330  177.5000  135.2710 N   0  0  0  0  0  2  0  0  0  0  0  0
  181.6540  175.1140  137.3260 C   0  0  0  0  0  0  0  0  0  0  0  0
  184.4000  177.5510  137.9320 C   0  0  0  0  0  0  0  0  0  0  0  0
  184.8560  173.1550  137.4600 C   0  0  1  0  0  3  0  0  0  0  0  0
  190.4420  176.0480  134.8980 C   0  0  0  0  0  1  0  0  0  0  0  0
  182.9320  174.6990  137.9870 C   0  0  0  0  0  2  0  0  0  0  0  0
  184.7690  178.3410  139.0320 C   0  0  0  0  0  3  0  0  0  0  0  0
  182.4680  179.0060  137.6100 C   0  0  0  0  0  3  0  0  0  0  0  0
  182.8640  179.7850  138.6950 C   0  0  0  0  0  3  0  0  0  0  0  0
  181.5690  176.2630  136.4720 N   0  0  0  0  0  2  0  0  0  0  0  0
  186.2330  174.6700  136.1440 C   0  0  1  0  0  3  0  0  0  0  0  0
  183.9650  174.2640  136.9550 C   0  0  1  0  0  3  0  0  0  0  0  0
  187.3160  175.3450  136.9730 C   0  0  2  0  0  3  0  0  0  0  0  0
  185.9710  172.3520  135.3250 C   0  0  0  0  0  1  0  0  0  0  0  0
  185.2990  176.3610  137.6310 C   0  0  2  0  0  3  0  0  0  0  0  0
  1 21  2  0  0  0  0
  1 16  1  0  0  0  0
  2  8  2  0  0  0  0
  3 17  1  0  0  0  0
  5 27  1  6  0  0  0
  5 17  1  0  0  0  0
  6 23  1  0  0  0  0
  6  1  1  0  0  0  0
  8  7  2  0  0  0  0
  9 13  2  0  0  0  0
 10  8  1  6  0  0  0
 10 28  1  0  0  0  0
 12 25  1  0  0  0  0
 12 28  1  0  0  0  0
 13 26  1  0  0  0  0
 14  9  1  0  0  0  0
 14  8  1  0  0  0  0
 15 11  2  0  0  0  0
 15 19  1  0  0  0  0
 16 20  2  0  0  0  0
 18  9  1  0  0  0  0
 20  4  1  0  0  0  0
 21 22  1  0  0  0  0
 22  4  2  0  0  0  0
 23 15  1  0  0  0  0
 24 12  1  0  0  0  0
 24  5  1  0  0  0  0
 24 26  1  0  0  0  0
 25 17  1  0  0  0  0
 25 19  1  0  0  0  0
 26 10  1  0  0  0  0
 28 16  1  0  0  0  0
M  END
>  <MODEL>
9

>  <REMARK>
 VINA RESULT:      -5.2      4.228      6.208
  Name = 
  0 active torsions:
  status: ('A' for Active; 'I' for Inactive)
                            x       y       z     vdW  Elec       q    Type
                         _______ _______ _______ _____ _____    ______ ____

>  <TORSDO>
F 0

$$$$
