=
 OpenBabel11122411033D

 31 35  0  0  1  0  0  0  0  0999 V2000
  185.0960  178.6000  144.4320 C   0  0  0  0  0  0  0  0  0  0  0  0
  188.8100  178.2730  143.9430 N   0  0  0  0  0  0  0  0  0  0  0  0
  189.3810  177.6740  145.1340 C   0  0  0  0  0  0  0  0  0  0  0  0
  189.1680  176.7700  147.3850 C   0  0  0  0  0  0  0  0  0  0  0  0
  187.3890  178.2640  143.7020 C   0  0  0  0  0  0  0  0  0  0  0  0
  184.6350  178.2080  143.1720 C   0  0  0  0  0  3  0  0  0  0  0  0
  188.6110  177.4180  146.2800 C   0  0  0  0  0  3  0  0  0  0  0  0
  189.2540  177.3260  141.7950 N   0  0  0  0  0  0  0  0  0  0  0  0
  184.1290  178.9820  145.4920 C   0  0  0  0  0  1  0  0  0  0  0  0
  191.5100  177.5030  143.9950 O   0  0  0  0  0  0  0  0  0  0  0  0
  188.3940  176.5310  148.5120 O   0  0  0  0  0  1  0  0  0  0  0  0
  187.8880  177.5820  141.3160 C   0  0  0  0  0  2  0  0  0  0  0  0
  189.6240  178.4060  142.7230 C   0  0  2  0  0  3  0  0  0  0  0  0
  186.4680  178.6330  144.6950 C   0  0  0  0  0  3  0  0  0  0  0  0
  190.5010  176.3550  147.3530 C   0  0  0  0  0  3  0  0  0  0  0  0
  186.9170  177.8740  142.4320 C   0  0  0  0  0  0  0  0  0  0  0  0
  185.5440  177.8540  142.1720 C   0  0  0  0  0  3  0  0  0  0  0  0
  191.1280  178.4800  143.0360 C   0  0  0  0  0  2  0  0  0  0  0  0
  190.7260  177.2640  145.1200 C   0  0  0  0  0  0  0  0  0  0  0  0
  191.2790  176.6000  146.2190 C   0  0  0  0  0  3  0  0  0  0  0  0
  190.1100  177.3650  140.6140 C   0  0  0  0  0  2  0  0  0  0  0  0
  189.2760  178.6990  138.6660 C   0  0  0  0  0  1  0  0  0  0  0  0
  189.2550  177.3450  139.3520 C   0  0  1  0  0  3  0  0  0  0  0  0
  190.6670  174.8830  136.0730 C   0  0  0  0  0  0  0  0  0  0  0  0
  191.0750  175.8660  138.4830 C   0  0  0  0  0  2  0  0  0  0  0  0
  187.5630  175.8900  137.4980 O   0  0  0  0  0  0  0  0  0  0  0  0
  191.1650  173.9660  135.1080 N   0  0  0  0  0  1  0  0  0  0  0  0
  191.8010  176.0640  136.8280 S   0  0  0  0  0  0  0  0  0  0  0  0
  188.8070  175.7070  137.4460 C   0  0  0  0  0  0  0  0  0  0  0  0
  189.6790  176.2830  138.4390 N   0  0  0  0  0  0  0  0  0  0  0  0
  189.3650  174.8750  136.3680 C   0  0  0  0  0  3  0  0  0  0  0  0
  1 14  1  0  0  0  0
  1  9  1  0  0  0  0
  2  3  1  0  0  0  0
  3  7  1  0  0  0  0
  4 11  1  0  0  0  0
  5  2  1  0  0  0  0
  5 14  2  0  0  0  0
  6  1  2  0  0  0  0
  7  4  2  0  0  0  0
  8 13  1  0  0  0  0
 10 19  1  0  0  0  0
 12  8  1  0  0  0  0
 12 16  1  0  0  0  0
 13 18  1  1  0  0  0
 13  2  1  0  0  0  0
 15  4  1  0  0  0  0
 16  5  1  0  0  0  0
 17 16  2  0  0  0  0
 17  6  1  0  0  0  0
 18 10  1  0  0  0  0
 19  3  2  0  0  0  0
 19 20  1  0  0  0  0
 20 15  2  0  0  0  0
 21  8  1  0  0  0  0
 23 22  1  6  0  0  0
 23 21  1  0  0  0  0
 24 31  2  0  0  0  0
 24 28  1  0  0  0  0
 27 24  1  0  0  0  0
 28 25  1  0  0  0  0
 29 26  2  0  0  0  0
 29 30  1  0  0  0  0
 30 25  1  0  0  0  0
 30 23  1  0  0  0  0
 31 29  1  0  0  0  0
M  END
>  <MODEL>
1

>  <REMARK>
 VINA RESULT:      -8.4      0.000      0.000
  Name = 
  3 active torsions:
  status: ('A' for Active; 'I' for Inactive)
    1  A    between atoms: C_5  and  C_16
    2  A    between atoms: C_5  and  N_30
    3  A    between atoms: N_10  and  C_16
                            x       y       z     vdW  Elec       q    Type
                         _______ _______ _______ _____ _____    ______ ____

>  <TORSDO>
F 3

$$$$
=
 OpenBabel11122411033D

 31 35  0  0  1  0  0  0  0  0999 V2000
  187.5420  177.5200  135.9150 C   0  0  0  0  0  0  0  0  0  0  0  0
  187.2690  178.4990  139.5350 N   0  0  0  0  0  0  0  0  0  0  0  0
  185.8690  178.4770  139.9140 C   0  0  0  0  0  0  0  0  0  0  0  0
  183.5140  178.1560  139.3820 C   0  0  0  0  0  0  0  0  0  0  0  0
  187.7260  177.8970  138.3080 C   0  0  0  0  0  0  0  0  0  0  0  0
  188.6600  176.6810  135.9580 C   0  0  0  0  0  3  0  0  0  0  0  0
  184.8480  178.2480  138.9770 C   0  0  0  0  0  3  0  0  0  0  0  0
  188.8740  177.2810  140.8170 N   0  0  0  0  0  0  0  0  0  0  0  0
  186.8460  177.7650  134.6260 C   0  0  0  0  0  1  0  0  0  0  0  0
  186.5140  178.8380  142.2190 O   0  0  0  0  0  0  0  0  0  0  0  0
  182.5180  177.9350  138.4410 O   0  0  0  0  0  1  0  0  0  0  0  0
  189.6330  176.8770  139.6240 C   0  0  0  0  0  2  0  0  0  0  0  0
  188.3090  178.6160  140.5700 C   0  0  2  0  0  3  0  0  0  0  0  0
  187.0800  178.1300  137.0840 C   0  0  0  0  0  3  0  0  0  0  0  0
  183.1840  178.2780  140.7330 C   0  0  0  0  0  3  0  0  0  0  0  0
  188.8550  177.0540  138.3440 C   0  0  0  0  0  0  0  0  0  0  0  0
  189.3190  176.4550  137.1690 C   0  0  0  0  0  3  0  0  0  0  0  0
  187.7920  179.3250  141.8330 C   0  0  0  0  0  2  0  0  0  0  0  0
  185.5210  178.6130  141.2700 C   0  0  0  0  0  0  0  0  0  0  0  0
  184.1880  178.5040  141.6760 C   0  0  0  0  0  3  0  0  0  0  0  0
  189.8420  177.3400  141.9080 C   0  0  0  0  0  2  0  0  0  0  0  0
  190.4170  175.2420  143.1470 C   0  0  0  0  0  1  0  0  0  0  0  0
  189.4280  176.3860  143.0230 C   0  0  1  0  0  3  0  0  0  0  0  0
  189.0830  177.6540  147.1560 C   0  0  0  0  0  0  0  0  0  0  0  0
  190.4680  177.6490  144.9140 C   0  0  0  0  0  2  0  0  0  0  0  0
  186.9360  176.8850  144.4220 O   0  0  0  0  0  0  0  0  0  0  0  0
  189.0130  178.2140  148.4610 N   0  0  0  0  0  1  0  0  0  0  0  0
  190.6440  176.9540  146.5860 S   0  0  0  0  0  0  0  0  0  0  0  0
  188.0160  177.1750  144.9990 C   0  0  0  0  0  0  0  0  0  0  0  0
  189.2720  177.0920  144.2960 N   0  0  0  0  0  0  0  0  0  0  0  0
  187.9840  177.6220  146.4000 C   0  0  0  0  0  3  0  0  0  0  0  0
  1  6  2  0  0  0  0
  1 14  1  0  0  0  0
  2  3  1  0  0  0  0
  2 13  1  0  0  0  0
  3 19  1  0  0  0  0
  4 15  2  0  0  0  0
  5 16  1  0  0  0  0
  5  2  1  0  0  0  0
  6 17  1  0  0  0  0
  7  4  1  0  0  0  0
  7  3  2  0  0  0  0
  8 21  1  0  0  0  0
  9  1  1  0  0  0  0
 11  4  1  0  0  0  0
 12  8  1  0  0  0  0
 13  8  1  0  0  0  0
 13 18  1  1  0  0  0
 14  5  2  0  0  0  0
 15 20  1  0  0  0  0
 16 12  1  0  0  0  0
 17 16  2  0  0  0  0
 18 10  1  0  0  0  0
 19 20  2  0  0  0  0
 19 10  1  0  0  0  0
 21 23  1  0  0  0  0
 23 22  1  1  0  0  0
 23 30  1  0  0  0  0
 24 27  1  0  0  0  0
 25 28  1  0  0  0  0
 26 29  2  0  0  0  0
 28 24  1  0  0  0  0
 29 31  1  0  0  0  0
 30 25  1  0  0  0  0
 30 29  1  0  0  0  0
 31 24  2  0  0  0  0
M  END
>  <MODEL>
2

>  <REMARK>
 VINA RESULT:      -8.1      3.178      7.726
  Name = 
  3 active torsions:
  status: ('A' for Active; 'I' for Inactive)
    1  A    between atoms: C_5  and  C_16
    2  A    between atoms: C_5  and  N_30
    3  A    between atoms: N_10  and  C_16
                            x       y       z     vdW  Elec       q    Type
                         _______ _______ _______ _____ _____    ______ ____

>  <TORSDO>
F 3

$$$$
=
 OpenBabel11122411033D

 31 35  0  0  1  0  0  0  0  0999 V2000
  179.6430  179.1140  143.0310 C   0  0  0  0  0  0  0  0  0  0  0  0
  183.1160  178.8910  141.6070 N   0  0  0  0  0  0  0  0  0  0  0  0
  184.0540  178.7300  142.7010 C   0  0  0  0  0  0  0  0  0  0  0  0
  184.5580  178.5590  145.0770 C   0  0  0  0  0  0  0  0  0  0  0  0
  181.6980  178.7160  141.7980 C   0  0  0  0  0  0  0  0  0  0  0  0
  178.9390  178.3210  142.1200 C   0  0  0  0  0  3  0  0  0  0  0  0
  183.6480  178.7940  144.0440 C   0  0  0  0  0  3  0  0  0  0  0  0
  183.1350  177.3540  139.7780 N   0  0  0  0  0  0  0  0  0  0  0  0
  178.9320  179.7440  144.1730 C   0  0  0  0  0  1  0  0  0  0  0  0
  185.8240  178.3510  141.0940 O   0  0  0  0  0  0  0  0  0  0  0  0
  184.1400  178.6330  146.3990 O   0  0  0  0  0  1  0  0  0  0  0  0
  181.6690  177.3600  139.6600 C   0  0  0  0  0  2  0  0  0  0  0  0
  183.5630  178.6900  140.2190 C   0  0  2  0  0  3  0  0  0  0  0  0
  181.0160  179.3150  142.8680 C   0  0  0  0  0  3  0  0  0  0  0  0
  185.8850  178.2420  144.7810 C   0  0  0  0  0  3  0  0  0  0  0  0
  180.9810  177.9210  140.8800 C   0  0  0  0  0  0  0  0  0  0  0  0
  179.6060  177.7330  141.0420 C   0  0  0  0  0  3  0  0  0  0  0  0
  185.0700  178.9550  140.0520 C   0  0  0  0  0  2  0  0  0  0  0  0
  185.3970  178.4240  142.4170 C   0  0  0  0  0  0  0  0  0  0  0  0
  186.3030  178.1720  143.4510 C   0  0  0  0  0  3  0  0  0  0  0  0
  183.6450  177.0790  138.4390 C   0  0  0  0  0  2  0  0  0  0  0  0
  182.5500  176.9550  136.1910 C   0  0  0  0  0  1  0  0  0  0  0  0
  182.5690  176.3960  137.6020 C   0  0  1  0  0  3  0  0  0  0  0  0
  183.1490  172.1990  136.6780 C   0  0  0  0  0  0  0  0  0  0  0  0
  184.1000  174.4220  137.7240 C   0  0  0  0  0  2  0  0  0  0  0  0
  180.4630  174.4080  137.4450 O   0  0  0  0  0  0  0  0  0  0  0  0
  183.3920  170.8070  136.5230 N   0  0  0  0  0  1  0  0  0  0  0  0
  184.4660  173.3670  136.2890 S   0  0  0  0  0  0  0  0  0  0  0  0
  181.6590  174.0220  137.3680 C   0  0  0  0  0  0  0  0  0  0  0  0
  182.7450  174.9430  137.5940 N   0  0  0  0  0  0  0  0  0  0  0  0
  181.9400  172.6100  137.0660 C   0  0  0  0  0  3  0  0  0  0  0  0
  1  9  1  0  0  0  0
  2  5  1  0  0  0  0
  2  3  1  0  0  0  0
  3  7  1  0  0  0  0
  4 11  1  0  0  0  0
  5 14  2  0  0  0  0
  6  1  2  0  0  0  0
  7  4  2  0  0  0  0
  8 13  1  0  0  0  0
 10 19  1  0  0  0  0
 12  8  1  0  0  0  0
 12 16  1  0  0  0  0
 13 18  1  1  0  0  0
 13  2  1  0  0  0  0
 14  1  1  0  0  0  0
 15  4  1  0  0  0  0
 16 17  2  0  0  0  0
 16  5  1  0  0  0  0
 17  6  1  0  0  0  0
 18 10  1  0  0  0  0
 19  3  2  0  0  0  0
 19 20  1  0  0  0  0
 20 15  2  0  0  0  0
 21  8  1  0  0  0  0
 23 22  1  6  0  0  0
 23 21  1  0  0  0  0
 24 31  2  0  0  0  0
 27 24  1  0  0  0  0
 28 24  1  0  0  0  0
 28 25  1  0  0  0  0
 29 26  2  0  0  0  0
 29 30  1  0  0  0  0
 30 23  1  0  0  0  0
 30 25  1  0  0  0  0
 31 29  1  0  0  0  0
M  END
>  <MODEL>
3

>  <REMARK>
 VINA RESULT:      -7.6      5.207      6.561
  Name = 
  3 active torsions:
  status: ('A' for Active; 'I' for Inactive)
    1  A    between atoms: C_5  and  C_16
    2  A    between atoms: C_5  and  N_30
    3  A    between atoms: N_10  and  C_16
                            x       y       z     vdW  Elec       q    Type
                         _______ _______ _______ _____ _____    ______ ____

>  <TORSDO>
F 3

$$$$
=
 OpenBabel11122411033D

 31 35  0  0  1  0  0  0  0  0999 V2000
  184.2930  179.0550  142.7260 C   0  0  0  0  0  0  0  0  0  0  0  0
  187.3560  178.5300  140.6100 N   0  0  0  0  0  0  0  0  0  0  0  0
  188.3480  177.8260  141.4010 C   0  0  0  0  0  0  0  0  0  0  0  0
  189.0890  176.8030  143.4830 C   0  0  0  0  0  0  0  0  0  0  0  0
  185.9820  178.6220  141.0340 C   0  0  0  0  0  0  0  0  0  0  0  0
  183.2870  178.7690  141.7980 C   0  0  0  0  0  3  0  0  0  0  0  0
  188.1530  177.5500  142.7640 C   0  0  0  0  0  3  0  0  0  0  0  0
  186.7160  177.6880  138.4680 N   0  0  0  0  0  0  0  0  0  0  0  0
  183.9360  179.4310  144.1170 C   0  0  0  0  0  1  0  0  0  0  0  0
  189.7230  177.5930  139.4220 O   0  0  0  0  0  0  0  0  0  0  0  0
  188.8830  176.5450  144.8310 O   0  0  0  0  0  1  0  0  0  0  0  0
  185.3060  178.0560  138.6620 C   0  0  0  0  0  2  0  0  0  0  0  0
  187.5480  178.6850  139.1590 C   0  0  2  0  0  3  0  0  0  0  0  0
  185.6350  178.9870  142.3440 C   0  0  0  0  0  3  0  0  0  0  0  0
  190.2280  176.3100  142.8440 C   0  0  0  0  0  3  0  0  0  0  0  0
  184.9630  178.3400  140.1030 C   0  0  0  0  0  0  0  0  0  0  0  0
  183.6210  178.4200  140.4880 C   0  0  0  0  0  3  0  0  0  0  0  0
  189.0340  178.6480  138.7630 C   0  0  0  0  0  2  0  0  0  0  0  0
  189.5070  177.3350  140.7730 C   0  0  0  0  0  0  0  0  0  0  0  0
  190.4350  176.5740  141.4880 C   0  0  0  0  0  3  0  0  0  0  0  0
  186.9540  177.7450  137.0300 C   0  0  0  0  0  2  0  0  0  0  0  0
  186.2070  176.5270  134.9740 C   0  0  0  0  0  1  0  0  0  0  0  0
  186.6930  176.3800  136.4050 C   0  0  1  0  0  3  0  0  0  0  0  0
  189.9910  173.6390  135.7600 C   0  0  0  0  0  0  0  0  0  0  0  0
  189.1620  176.1160  136.1080 C   0  0  0  0  0  2  0  0  0  0  0  0
  186.7830  173.6230  137.3030 O   0  0  0  0  0  0  0  0  0  0  0  0
  191.1480  172.8190  135.6640 N   0  0  0  0  0  1  0  0  0  0  0  0
  189.8940  175.1370  134.7610 S   0  0  0  0  0  0  0  0  0  0  0  0
  187.8210  174.1230  136.7960 C   0  0  0  0  0  0  0  0  0  0  0  0
  187.8800  175.5270  136.4750 N   0  0  0  0  0  0  0  0  0  0  0  0
  188.9880  173.2610  136.5540 C   0  0  0  0  0  3  0  0  0  0  0  0
  1  9  1  0  0  0  0
  2  5  1  0  0  0  0
  2  3  1  0  0  0  0
  3  7  1  0  0  0  0
  4 11  1  0  0  0  0
  5 14  2  0  0  0  0
  6  1  2  0  0  0  0
  7  4  2  0  0  0  0
  8 12  1  0  0  0  0
  8 13  1  0  0  0  0
 10 19  1  0  0  0  0
 12 16  1  0  0  0  0
 13 18  1  1  0  0  0
 13  2  1  0  0  0  0
 14  1  1  0  0  0  0
 15  4  1  0  0  0  0
 16 17  2  0  0  0  0
 16  5  1  0  0  0  0
 17  6  1  0  0  0  0
 18 10  1  0  0  0  0
 19  3  2  0  0  0  0
 19 20  1  0  0  0  0
 20 15  2  0  0  0  0
 21  8  1  0  0  0  0
 23 22  1  6  0  0  0
 23 30  1  0  0  0  0
 23 21  1  0  0  0  0
 24 31  2  0  0  0  0
 25 30  1  0  0  0  0
 27 24  1  0  0  0  0
 28 24  1  0  0  0  0
 28 25  1  0  0  0  0
 29 26  2  0  0  0  0
 30 29  1  0  0  0  0
 31 29  1  0  0  0  0
M  END
>  <MODEL>
4

>  <REMARK>
 VINA RESULT:      -7.5      2.351      3.501
  Name = 
  3 active torsions:
  status: ('A' for Active; 'I' for Inactive)
    1  A    between atoms: C_5  and  C_16
    2  A    between atoms: C_5  and  N_30
    3  A    between atoms: N_10  and  C_16
                            x       y       z     vdW  Elec       q    Type
                         _______ _______ _______ _____ _____    ______ ____

>  <TORSDO>
F 3

$$$$
=
 OpenBabel11122411033D

 31 35  0  0  1  0  0  0  0  0999 V2000
  184.8370  179.0980  145.0100 C   0  0  0  0  0  0  0  0  0  0  0  0
  185.0860  179.1620  141.2590 N   0  0  0  0  0  0  0  0  0  0  0  0
  186.3780  178.6280  140.8730 C   0  0  0  0  0  0  0  0  0  0  0  0
  188.5650  177.7100  141.4290 C   0  0  0  0  0  0  0  0  0  0  0  0
  184.5750  179.0030  142.5970 C   0  0  0  0  0  0  0  0  0  0  0  0
  183.5200  178.6580  145.1740 C   0  0  0  0  0  3  0  0  0  0  0  0
  187.3590  178.2940  141.8220 C   0  0  0  0  0  3  0  0  0  0  0  0
  183.0880  178.2640  140.3080 N   0  0  0  0  0  0  0  0  0  0  0  0
  185.6800  179.3780  146.2000 C   0  0  0  0  0  1  0  0  0  0  0  0
  185.6800  178.6800  138.5560 O   0  0  0  0  0  0  0  0  0  0  0  0
  189.5240  177.3920  142.3800 O   0  0  0  0  0  1  0  0  0  0  0  0
  182.3460  178.3740  141.5730 C   0  0  0  0  0  2  0  0  0  0  0  0
  184.0460  179.3780  140.2400 C   0  0  2  0  0  3  0  0  0  0  0  0
  185.3610  179.2740  143.7270 C   0  0  0  0  0  3  0  0  0  0  0  0
  188.8010  177.4370  140.0800 C   0  0  0  0  0  3  0  0  0  0  0  0
  183.2460  178.5640  142.7690 C   0  0  0  0  0  0  0  0  0  0  0  0
  182.7240  178.4000  144.0550 C   0  0  0  0  0  3  0  0  0  0  0  0
  184.6440  179.6100  138.8420 C   0  0  0  0  0  2  0  0  0  0  0  0
  186.6360  178.3610  139.5170 C   0  0  0  0  0  0  0  0  0  0  0  0
  187.8350  177.7610  139.1250 C   0  0  0  0  0  3  0  0  0  0  0  0
  182.0940  178.3910  139.2470 C   0  0  0  0  0  2  0  0  0  0  0  0
  179.6000  178.4850  139.0480 C   0  0  0  0  0  1  0  0  0  0  0  0
  180.7750  177.7710  139.6920 C   0  0  1  0  0  3  0  0  0  0  0  0
  179.9580  173.7310  138.3450 C   0  0  0  0  0  0  0  0  0  0  0  0
  181.5310  175.8430  138.2900 C   0  0  0  0  0  2  0  0  0  0  0  0
  179.3510  175.7520  141.2120 O   0  0  0  0  0  0  0  0  0  0  0  0
  179.8420  172.3750  137.9340 N   0  0  0  0  0  1  0  0  0  0  0  0
  180.4320  174.9760  137.1300 S   0  0  0  0  0  0  0  0  0  0  0  0
  179.8940  175.4140  140.1280 C   0  0  0  0  0  0  0  0  0  0  0  0
  180.7410  176.3350  139.4110 N   0  0  0  0  0  0  0  0  0  0  0  0
  179.6730  174.0570  139.6060 C   0  0  0  0  0  3  0  0  0  0  0  0
  1  6  1  0  0  0  0
  1  9  1  0  0  0  0
  2  5  1  0  0  0  0
  3  2  1  0  0  0  0
  3  7  1  0  0  0  0
  4  7  2  0  0  0  0
  4 11  1  0  0  0  0
  5 16  2  0  0  0  0
  5 14  1  0  0  0  0
  8 12  1  0  0  0  0
 10 18  1  0  0  0  0
 10 19  1  0  0  0  0
 12 16  1  0  0  0  0
 13 18  1  6  0  0  0
 13  8  1  0  0  0  0
 13  2  1  0  0  0  0
 14  1  2  0  0  0  0
 15  4  1  0  0  0  0
 16 17  1  0  0  0  0
 17  6  2  0  0  0  0
 19  3  2  0  0  0  0
 20 19  1  0  0  0  0
 20 15  2  0  0  0  0
 21 23  1  0  0  0  0
 21  8  1  0  0  0  0
 23 22  1  6  0  0  0
 24 31  2  0  0  0  0
 25 30  1  0  0  0  0
 27 24  1  0  0  0  0
 28 25  1  0  0  0  0
 28 24  1  0  0  0  0
 29 26  2  0  0  0  0
 30 23  1  0  0  0  0
 30 29  1  0  0  0  0
 31 29  1  0  0  0  0
M  END
>  <MODEL>
5

>  <REMARK>
 VINA RESULT:      -7.5      5.154      7.342
  Name = 
  3 active torsions:
  status: ('A' for Active; 'I' for Inactive)
    1  A    between atoms: C_5  and  C_16
    2  A    between atoms: C_5  and  N_30
    3  A    between atoms: N_10  and  C_16
                            x       y       z     vdW  Elec       q    Type
                         _______ _______ _______ _____ _____    ______ ____

>  <TORSDO>
F 3

$$$$
=
 OpenBabel11122411033D

 31 35  0  0  1  0  0  0  0  0999 V2000
  188.6330  177.8320  144.1090 C   0  0  0  0  0  0  0  0  0  0  0  0
  186.7420  178.6170  140.9560 N   0  0  0  0  0  0  0  0  0  0  0  0
  187.4470  178.0250  139.8350 C   0  0  0  0  0  0  0  0  0  0  0  0
  189.3140  176.7660  138.9080 C   0  0  0  0  0  0  0  0  0  0  0  0
  187.0490  178.2540  142.3160 C   0  0  0  0  0  0  0  0  0  0  0  0
  187.5770  177.5240  144.9730 C   0  0  0  0  0  3  0  0  0  0  0  0
  188.6930  177.3960  139.9900 C   0  0  0  0  0  3  0  0  0  0  0  0
  184.4190  178.1660  141.2810 N   0  0  0  0  0  0  0  0  0  0  0  0
  190.0340  177.7670  144.5960 C   0  0  0  0  0  1  0  0  0  0  0  0
  185.5990  178.6210  138.3900 O   0  0  0  0  0  0  0  0  0  0  0  0
  190.5490  176.1550  139.0780 O   0  0  0  0  0  1  0  0  0  0  0  0
  184.5580  178.1070  142.7440 C   0  0  0  0  0  2  0  0  0  0  0  0
  185.3830  179.1520  140.7700 C   0  0  2  0  0  3  0  0  0  0  0  0
  188.3690  178.2000  142.7880 C   0  0  0  0  0  3  0  0  0  0  0  0
  188.6900  176.7440  137.6600 C   0  0  0  0  0  3  0  0  0  0  0  0
  185.9890  177.9470  143.1940 C   0  0  0  0  0  0  0  0  0  0  0  0
  186.2580  177.5900  144.5180 C   0  0  0  0  0  3  0  0  0  0  0  0
  185.1260  179.5890  139.3170 C   0  0  0  0  0  2  0  0  0  0  0  0
  186.8350  178.0070  138.5690 C   0  0  0  0  0  0  0  0  0  0  0  0
  187.4490  177.3620  137.4920 C   0  0  0  0  0  3  0  0  0  0  0  0
  183.0550  178.6180  141.0250 C   0  0  0  0  0  2  0  0  0  0  0  0
  180.8280  177.4930  140.8130 C   0  0  0  0  0  1  0  0  0  0  0  0
  182.2660  177.5180  140.3240 C   0  0  1  0  0  3  0  0  0  0  0  0
  181.6440  177.5350  136.0330 C   0  0  0  0  0  0  0  0  0  0  0  0
  181.8000  178.8910  138.2870 C   0  0  0  0  0  2  0  0  0  0  0  0
  183.4320  175.6330  138.4540 O   0  0  0  0  0  0  0  0  0  0  0  0
  181.5400  177.6630  134.6210 N   0  0  0  0  0  1  0  0  0  0  0  0
  180.5070  178.4620  137.0820 S   0  0  0  0  0  0  0  0  0  0  0  0
  182.7950  176.6170  137.9950 C   0  0  0  0  0  0  0  0  0  0  0  0
  182.3280  177.6640  138.8700 N   0  0  0  0  0  0  0  0  0  0  0  0
  182.5490  176.7020  136.5470 C   0  0  0  0  0  3  0  0  0  0  0  0
  1  9  1  0  0  0  0
  1  6  1  0  0  0  0
  2  5  1  0  0  0  0
  3  7  1  0  0  0  0
  3  2  1  0  0  0  0
  4 11  1  0  0  0  0
  4  7  2  0  0  0  0
  5 14  1  0  0  0  0
  5 16  2  0  0  0  0
  8 12  1  0  0  0  0
 10 19  1  0  0  0  0
 10 18  1  0  0  0  0
 12 16  1  0  0  0  0
 13 18  1  6  0  0  0
 13  2  1  0  0  0  0
 13  8  1  0  0  0  0
 14  1  2  0  0  0  0
 15  4  1  0  0  0  0
 16 17  1  0  0  0  0
 17  6  2  0  0  0  0
 19  3  2  0  0  0  0
 20 15  2  0  0  0  0
 20 19  1  0  0  0  0
 21  8  1  0  0  0  0
 23 22  1  1  0  0  0
 23 21  1  0  0  0  0
 24 31  2  0  0  0  0
 24 28  1  0  0  0  0
 25 30  1  0  0  0  0
 27 24  1  0  0  0  0
 28 25  1  0  0  0  0
 29 26  2  0  0  0  0
 29 30  1  0  0  0  0
 30 23  1  0  0  0  0
 31 29  1  0  0  0  0
M  END
>  <MODEL>
6

>  <REMARK>
 VINA RESULT:      -7.5      4.324      7.002
  Name = 
  3 active torsions:
  status: ('A' for Active; 'I' for Inactive)
    1  A    between atoms: C_5  and  C_16
    2  A    between atoms: C_5  and  N_30
    3  A    between atoms: N_10  and  C_16
                            x       y       z     vdW  Elec       q    Type
                         _______ _______ _______ _____ _____    ______ ____

>  <TORSDO>
F 3

$$$$
=
 OpenBabel11122411033D

 31 35  0  0  1  0  0  0  0  0999 V2000
  190.7600  176.3670  136.0710 C   0  0  0  0  0  0  0  0  0  0  0  0
  188.5820  177.9950  138.6680 N   0  0  0  0  0  0  0  0  0  0  0  0
  187.1980  177.8720  138.2530 C   0  0  0  0  0  0  0  0  0  0  0  0
  185.4990  177.1580  136.6610 C   0  0  0  0  0  0  0  0  0  0  0  0
  189.6280  177.2270  138.0410 C   0  0  0  0  0  0  0  0  0  0  0  0
  191.6790  175.7010  136.8860 C   0  0  0  0  0  3  0  0  0  0  0  0
  186.8410  177.3360  137.0040 C   0  0  0  0  0  3  0  0  0  0  0  0
  189.2480  177.2660  140.8430 N   0  0  0  0  0  0  0  0  0  0  0  0
  190.8650  176.2640  134.5940 C   0  0  0  0  0  1  0  0  0  0  0  0
  186.5030  178.7570  140.3960 O   0  0  0  0  0  0  0  0  0  0  0  0
  185.1650  176.6330  135.4200 O   0  0  0  0  0  1  0  0  0  0  0  0
  190.5290  176.7340  140.3550 C   0  0  0  0  0  2  0  0  0  0  0  0
  188.9030  178.4440  140.0330 C   0  0  2  0  0  3  0  0  0  0  0  0
  189.7410  177.1310  136.6460 C   0  0  0  0  0  3  0  0  0  0  0  0
  184.4950  177.5010  137.5670 C   0  0  0  0  0  3  0  0  0  0  0  0
  190.5610  176.5560  138.8580 C   0  0  0  0  0  0  0  0  0  0  0  0
  191.5850  175.8020  138.2770 C   0  0  0  0  0  3  0  0  0  0  0  0
  187.7870  179.3170  140.6330 C   0  0  0  0  0  2  0  0  0  0  0  0
  186.1760  178.2260  139.1510 C   0  0  0  0  0  0  0  0  0  0  0  0
  184.8340  178.0320  138.8130 C   0  0  0  0  0  3  0  0  0  0  0  0
  189.4770  177.6590  142.2300 C   0  0  0  0  0  2  0  0  0  0  0  0
  189.0680  175.4310  143.2950 C   0  0  0  0  0  1  0  0  0  0  0  0
  188.5690  176.8570  143.1550 C   0  0  1  0  0  3  0  0  0  0  0  0
  188.1580  177.9200  147.3390 C   0  0  0  0  0  0  0  0  0  0  0  0
  189.6620  177.8410  145.1780 C   0  0  0  0  0  2  0  0  0  0  0  0
  186.0930  177.6350  144.4520 O   0  0  0  0  0  0  0  0  0  0  0  0
  188.0890  178.4070  148.6730 N   0  0  0  0  0  1  0  0  0  0  0  0
  189.6340  177.0320  146.8060 S   0  0  0  0  0  0  0  0  0  0  0  0
  187.1670  177.7280  145.1030 C   0  0  0  0  0  0  0  0  0  0  0  0
  188.4390  177.5030  144.4620 N   0  0  0  0  0  0  0  0  0  0  0  0
  187.1130  178.0930  146.5270 C   0  0  0  0  0  3  0  0  0  0  0  0
  1 14  2  0  0  0  0
  1  6  1  0  0  0  0
  2 13  1  0  0  0  0
  3  2  1  0  0  0  0
  3 19  1  0  0  0  0
  4  7  1  0  0  0  0
  4 15  2  0  0  0  0
  5  2  1  0  0  0  0
  5 16  2  0  0  0  0
  6 17  2  0  0  0  0
  7  3  2  0  0  0  0
  8 21  1  0  0  0  0
  9  1  1  0  0  0  0
 10 18  1  0  0  0  0
 11  4  1  0  0  0  0
 12  8  1  0  0  0  0
 13 18  1  1  0  0  0
 13  8  1  0  0  0  0
 14  5  1  0  0  0  0
 15 20  1  0  0  0  0
 16 12  1  0  0  0  0
 17 16  1  0  0  0  0
 19 10  1  0  0  0  0
 20 19  2  0  0  0  0
 21 23  1  0  0  0  0
 23 22  1  1  0  0  0
 23 30  1  0  0  0  0
 24 27  1  0  0  0  0
 25 28  1  0  0  0  0
 26 29  2  0  0  0  0
 28 24  1  0  0  0  0
 29 31  1  0  0  0  0
 30 29  1  0  0  0  0
 30 25  1  0  0  0  0
 31 24  2  0  0  0  0
M  END
>  <MODEL>
7

>  <REMARK>
 VINA RESULT:      -7.4      3.088      8.530
  Name = 
  3 active torsions:
  status: ('A' for Active; 'I' for Inactive)
    1  A    between atoms: C_5  and  C_16
    2  A    between atoms: C_5  and  N_30
    3  A    between atoms: N_10  and  C_16
                            x       y       z     vdW  Elec       q    Type
                         _______ _______ _______ _____ _____    ______ ____

>  <TORSDO>
F 3

$$$$
=
 OpenBabel11122411033D

 31 35  0  0  1  0  0  0  0  0999 V2000
  193.1820  176.1590  136.9940 C   0  0  0  0  0  0  0  0  0  0  0  0
  189.6590  177.0760  137.9350 N   0  0  0  0  0  0  0  0  0  0  0  0
  188.7480  176.2180  137.2020 C   0  0  0  0  0  0  0  0  0  0  0  0
  188.3090  174.4480  135.5880 C   0  0  0  0  0  0  0  0  0  0  0  0
  191.0680  176.7840  138.0160 C   0  0  0  0  0  0  0  0  0  0  0  0
  193.8050  176.2110  138.2440 C   0  0  0  0  0  3  0  0  0  0  0  0
  189.1990  175.3170  136.2250 C   0  0  0  0  0  3  0  0  0  0  0  0
  189.4850  177.2530  140.3110 N   0  0  0  0  0  0  0  0  0  0  0  0
  193.9670  175.7950  135.7870 C   0  0  0  0  0  1  0  0  0  0  0  0
  186.9070  177.1110  138.4970 O   0  0  0  0  0  0  0  0  0  0  0  0
  188.7720  173.5680  134.6200 O   0  0  0  0  0  1  0  0  0  0  0  0
  190.9440  177.3050  140.4900 C   0  0  0  0  0  2  0  0  0  0  0  0
  189.1560  177.9120  139.0380 C   0  0  2  0  0  3  0  0  0  0  0  0
  191.8200  176.4490  136.8790 C   0  0  0  0  0  3  0  0  0  0  0  0
  186.9560  174.4590  135.9320 C   0  0  0  0  0  3  0  0  0  0  0  0
  191.7040  176.8390  139.2730 C   0  0  0  0  0  0  0  0  0  0  0  0
  193.0690  176.5590  139.3800 C   0  0  0  0  0  3  0  0  0  0  0  0
  187.6650  178.2530  138.8720 C   0  0  0  0  0  2  0  0  0  0  0  0
  187.3800  176.2290  137.5290 C   0  0  0  0  0  0  0  0  0  0  0  0
  186.4930  175.3480  136.9040 C   0  0  0  0  0  3  0  0  0  0  0  0
  188.9160  178.0040  141.4260 C   0  0  0  0  0  2  0  0  0  0  0  0
  189.1450  176.0740  143.0050 C   0  0  0  0  0  1  0  0  0  0  0  0
  188.1800  177.0570  142.3680 C   0  0  1  0  0  3  0  0  0  0  0  0
  185.6710  178.4250  145.6300 C   0  0  0  0  0  0  0  0  0  0  0  0
  188.0920  178.0740  144.6510 C   0  0  0  0  0  2  0  0  0  0  0  0
  185.4990  178.1300  142.0860 O   0  0  0  0  0  0  0  0  0  0  0  0
  184.9390  179.0030  146.7030 N   0  0  0  0  0  1  0  0  0  0  0  0
  187.0930  177.3800  146.0020 S   0  0  0  0  0  0  0  0  0  0  0  0
  186.0460  178.1730  143.2190 C   0  0  0  0  0  0  0  0  0  0  0  0
  187.4290  177.7970  143.3830 N   0  0  0  0  0  0  0  0  0  0  0  0
  185.2650  178.6340  144.3770 C   0  0  0  0  0  3  0  0  0  0  0  0
  1  6  1  0  0  0  0
  2  5  1  0  0  0  0
  2 13  1  0  0  0  0
  3 19  1  0  0  0  0
  3  2  1  0  0  0  0
  4 15  2  0  0  0  0
  4  7  1  0  0  0  0
  5 16  2  0  0  0  0
  6 17  2  0  0  0  0
  7  3  2  0  0  0  0
  8 12  1  0  0  0  0
  8 21  1  0  0  0  0
  9  1  1  0  0  0  0
 10 18  1  0  0  0  0
 11  4  1  0  0  0  0
 13 18  1  6  0  0  0
 13  8  1  0  0  0  0
 14  1  2  0  0  0  0
 14  5  1  0  0  0  0
 15 20  1  0  0  0  0
 16 17  1  0  0  0  0
 16 12  1  0  0  0  0
 19 10  1  0  0  0  0
 20 19  2  0  0  0  0
 21 23  1  0  0  0  0
 23 22  1  1  0  0  0
 23 30  1  0  0  0  0
 24 28  1  0  0  0  0
 24 27  1  0  0  0  0
 25 28  1  0  0  0  0
 26 29  2  0  0  0  0
 29 30  1  0  0  0  0
 29 31  1  0  0  0  0
 30 25  1  0  0  0  0
 31 24  2  0  0  0  0
M  END
>  <MODEL>
8

>  <REMARK>
 VINA RESULT:      -7.3      3.168      8.807
  Name = 
  3 active torsions:
  status: ('A' for Active; 'I' for Inactive)
    1  A    between atoms: C_5  and  C_16
    2  A    between atoms: C_5  and  N_30
    3  A    between atoms: N_10  and  C_16
                            x       y       z     vdW  Elec       q    Type
                         _______ _______ _______ _____ _____    ______ ____

>  <TORSDO>
F 3

$$$$
=
 OpenBabel11122411033D

 31 35  0  0  1  0  0  0  0  0999 V2000
  188.9450  177.1320  141.8000 C   0  0  0  0  0  0  0  0  0  0  0  0
  186.3620  177.7620  144.4570 N   0  0  0  0  0  0  0  0  0  0  0  0
  187.0350  177.8770  145.7370 C   0  0  0  0  0  0  0  0  0  0  0  0
  189.0500  177.8350  147.1050 C   0  0  0  0  0  0  0  0  0  0  0  0
  187.0910  177.8100  143.2160 C   0  0  0  0  0  0  0  0  0  0  0  0
  188.4720  177.9610  140.7780 C   0  0  0  0  0  3  0  0  0  0  0  0
  188.4130  177.6420  145.8760 C   0  0  0  0  0  3  0  0  0  0  0  0
  184.8690  179.4810  143.7320 N   0  0  0  0  0  0  0  0  0  0  0  0
  190.1810  176.3340  141.5970 C   0  0  0  0  0  1  0  0  0  0  0  0
  184.9430  178.5550  146.7480 O   0  0  0  0  0  0  0  0  0  0  0  0
  190.4110  177.5910  147.2250 O   0  0  0  0  0  1  0  0  0  0  0  0
  185.3100  179.3770  142.3330 C   0  0  0  0  0  2  0  0  0  0  0  0
  184.9450  178.1410  144.3360 C   0  0  2  0  0  3  0  0  0  0  0  0
  188.2550  177.0530  143.0110 C   0  0  0  0  0  3  0  0  0  0  0  0
  188.3190  178.2800  148.2080 C   0  0  0  0  0  3  0  0  0  0  0  0
  186.6170  178.6410  142.1800 C   0  0  0  0  0  0  0  0  0  0  0  0
  187.3060  178.7080  140.9660 C   0  0  0  0  0  3  0  0  0  0  0  0
  184.1920  178.0090  145.6710 C   0  0  0  0  0  2  0  0  0  0  0  0
  186.3090  178.3120  146.8600 C   0  0  0  0  0  0  0  0  0  0  0  0
  186.9490  178.5210  148.0850 C   0  0  0  0  0  3  0  0  0  0  0  0
  183.4820  179.9330  143.6850 C   0  0  0  0  0  2  0  0  0  0  0  0
  181.4700  178.5970  144.3430 C   0  0  0  0  0  1  0  0  0  0  0  0
  182.5690  178.7710  143.3110 C   0  0  1  0  0  3  0  0  0  0  0  0
  180.3850  178.5890  139.5690 C   0  0  0  0  0  0  0  0  0  0  0  0
  180.9040  179.8770  141.8080 C   0  0  0  0  0  2  0  0  0  0  0  0
  183.5130  177.5030  140.8790 O   0  0  0  0  0  0  0  0  0  0  0  0
  179.7090  178.6810  138.3210 N   0  0  0  0  0  1  0  0  0  0  0  0
  179.4910  178.9930  141.0810 S   0  0  0  0  0  0  0  0  0  0  0  0
  182.4450  178.1680  140.8330 C   0  0  0  0  0  0  0  0  0  0  0  0
  182.0120  178.9440  141.9690 N   0  0  0  0  0  0  0  0  0  0  0  0
  181.6500  178.1650  139.5950 C   0  0  0  0  0  3  0  0  0  0  0  0
  1 14  1  0  0  0  0
  2  3  1  0  0  0  0
  3  7  2  0  0  0  0
  3 19  1  0  0  0  0
  4 11  1  0  0  0  0
  4 15  2  0  0  0  0
  5  2  1  0  0  0  0
  6 17  1  0  0  0  0
  6  1  2  0  0  0  0
  7  4  1  0  0  0  0
  8 13  1  0  0  0  0
  9  1  1  0  0  0  0
 10 19  1  0  0  0  0
 12  8  1  0  0  0  0
 13  2  1  0  0  0  0
 13 18  1  1  0  0  0
 14  5  2  0  0  0  0
 16 12  1  0  0  0  0
 16  5  1  0  0  0  0
 17 16  2  0  0  0  0
 18 10  1  0  0  0  0
 19 20  2  0  0  0  0
 20 15  1  0  0  0  0
 21  8  1  0  0  0  0
 23 21  1  0  0  0  0
 23 22  1  1  0  0  0
 24 31  2  0  0  0  0
 24 28  1  0  0  0  0
 25 30  1  0  0  0  0
 27 24  1  0  0  0  0
 28 25  1  0  0  0  0
 29 26  2  0  0  0  0
 29 30  1  0  0  0  0
 30 23  1  0  0  0  0
 31 29  1  0  0  0  0
M  END
>  <MODEL>
9

>  <REMARK>
 VINA RESULT:      -7.2      4.264      6.804
  Name = 
  3 active torsions:
  status: ('A' for Active; 'I' for Inactive)
    1  A    between atoms: C_5  and  C_16
    2  A    between atoms: C_5  and  N_30
    3  A    between atoms: N_10  and  C_16
                            x       y       z     vdW  Elec       q    Type
                         _______ _______ _______ _____ _____    ______ ____

>  <TORSDO>
F 3

$$$$
