=
 OpenBabel11122411133D

 31 35  0  0  1  0  0  0  0  0999 V2000
  190.0570  175.9140  142.7680 C   0  0  0  0  0  0  0  0  0  0  0  0
  186.7370  177.1930  144.1160 C   0  0  2  0  0  3  0  0  0  0  0  0
  187.0650  178.0950  145.3330 C   0  0  2  0  0  3  0  0  0  0  0  0
  188.5220  178.3720  147.3540 C   0  0  2  0  0  3  0  0  0  0  0  0
  187.9300  177.0030  143.2040 C   0  0  0  0  0  0  0  0  0  0  0  0
  190.2130  176.6720  141.6060 C   0  0  0  0  0  3  0  0  0  0  0  0
  188.1860  177.4710  146.1720 C   0  0  0  0  0  2  0  0  0  0  0  0
  185.9380  178.9990  142.5460 C   0  0  2  0  0  3  0  0  0  0  0  0
  191.0110  175.0210  143.1270 F   0  0  0  0  0  0  0  0  0  0  0  0
  184.8150  178.9290  145.4080 C   0  0  0  0  0  2  0  0  0  0  0  0
  189.5600  177.6990  148.2260 C   0  0  0  0  0  1  0  0  0  0  0  0
  186.9950  178.6520  141.4990 C   0  0  0  0  0  2  0  0  0  0  0  0
  185.5320  177.7430  143.3300 C   0  0  2  0  0  3  0  0  0  0  0  0
  188.9200  176.0770  143.5610 C   0  0  0  0  0  3  0  0  0  0  0  0
  187.2660  178.6420  148.1700 C   0  0  0  0  0  2  0  0  0  0  0  0
  188.0870  177.7640  142.0240 C   0  0  0  0  0  0  0  0  0  0  0  0
  189.2250  177.5860  141.2310 C   0  0  0  0  0  3  0  0  0  0  0  0
  184.3640  178.0150  144.2760 C   0  0  0  0  0  2  0  0  0  0  0  0
  185.8700  178.2840  146.1830 N   0  0  2  0  0  0  0  0  0  0  0  0
  186.1930  179.2250  147.2570 C   0  0  0  0  0  2  0  0  0  0  0  0
  184.0630  177.5700  140.9400 O   0  0  0  0  0  0  0  0  0  0  0  0
  183.8720  178.8070  141.0980 C   0  0  0  0  0  0  0  0  0  0  0  0
  184.7800  179.5830  141.8820 N   0  0  0  0  0  2  0  0  0  0  0  0
  181.5070  177.8730  138.2900 C   0  0  1  0  0  3  0  0  0  0  0  0
  181.3980  178.7020  140.6580 C   0  0  0  0  0  2  0  0  0  0  0  0
  184.1350  180.4790  138.7810 O   0  0  0  0  0  1  0  0  0  0  0  0
  181.4570  176.7360  137.4860 O   0  0  0  0  0  1  0  0  0  0  0  0
  181.3360  177.4710  139.7520 C   0  0  0  0  0  2  0  0  0  0  0  0
  182.9170  179.8240  138.9710 C   0  0  2  0  0  3  0  0  0  0  0  0
  182.6980  179.4870  140.4550 C   0  0  2  0  0  3  0  0  0  0  0  0
  182.8450  178.5780  138.0910 C   0  0  0  0  0  2  0  0  0  0  0  0
  1  9  1  0  0  0  0
  1 14  1  0  0  0  0
  2  5  1  6  0  0  0
  2  3  1  0  0  0  0
  3  7  1  1  0  0  0
  3 19  1  0  0  0  0
  4 15  1  0  0  0  0
  4 11  1  1  0  0  0
  5 14  2  0  0  0  0
  6  1  2  0  0  0  0
  7  4  1  0  0  0  0
  8 23  1  6  0  0  0
  8 13  1  0  0  0  0
 12 16  1  0  0  0  0
 12  8  1  0  0  0  0
 13  2  1  0  0  0  0
 13 18  1  1  0  0  0
 16  5  1  0  0  0  0
 17  6  1  0  0  0  0
 17 16  2  0  0  0  0
 18 10  1  0  0  0  0
 19 10  1  6  0  0  0
 19 20  1  0  0  0  0
 20 15  1  0  0  0  0
 21 22  2  0  0  0  0
 22 23  1  0  0  0  0
 24 27  1  6  0  0  0
 24 28  1  0  0  0  0
 28 25  1  0  0  0  0
 29 26  1  1  0  0  0
 29 30  1  0  0  0  0
 30 25  1  0  0  0  0
 30 22  1  6  0  0  0
 31 24  1  0  0  0  0
 31 29  1  0  0  0  0
M  END
>  <MODEL>
1

>  <REMARK>
 VINA RESULT:      -9.6      0.000      0.000
  Name = 
  2 active torsions:
  status: ('A' for Active; 'I' for Inactive)
    1  A    between atoms: C_5  and  C_30
    2  A    between atoms: C_10  and  N_16
                            x       y       z     vdW  Elec       q    Type
                         _______ _______ _______ _____ _____    ______ ____

>  <TORSDO>
F 2

$$$$
=
 OpenBabel11122411133D

 31 35  0  0  1  0  0  0  0  0999 V2000
  191.3650  176.3380  144.4340 C   0  0  0  0  0  0  0  0  0  0  0  0
  187.7030  177.0980  143.7350 C   0  0  2  0  0  3  0  0  0  0  0  0
  187.2430  178.1160  144.8100 C   0  0  2  0  0  3  0  0  0  0  0  0
  187.3960  178.7620  147.2270 C   0  0  2  0  0  3  0  0  0  0  0  0
  189.2080  177.0640  143.5830 C   0  0  0  0  0  0  0  0  0  0  0  0
  192.0090  177.0410  143.4140 C   0  0  0  0  0  3  0  0  0  0  0  0
  187.8310  177.7480  146.1780 C   0  0  0  0  0  2  0  0  0  0  0  0
  187.6270  178.6400  141.7390 C   0  0  2  0  0  3  0  0  0  0  0  0
  192.0920  175.6490  145.3460 F   0  0  0  0  0  0  0  0  0  0  0  0
  185.2000  178.5470  143.6250 C   0  0  0  0  0  2  0  0  0  0  0  0
  187.9020  178.3350  148.5870 C   0  0  0  0  0  1  0  0  0  0  0  0
  189.1060  178.4200  141.4270 C   0  0  0  0  0  2  0  0  0  0  0  0
  187.0250  177.3810  142.3810 C   0  0  2  0  0  3  0  0  0  0  0  0
  189.9710  176.3480  144.5160 C   0  0  0  0  0  3  0  0  0  0  0  0
  185.8770  178.8580  147.2530 C   0  0  0  0  0  2  0  0  0  0  0  0
  189.8640  177.7690  142.5480 C   0  0  0  0  0  0  0  0  0  0  0  0
  191.2600  177.7440  142.4690 C   0  0  0  0  0  3  0  0  0  0  0  0
  185.5130  177.5020  142.5630 C   0  0  0  0  0  2  0  0  0  0  0  0
  185.7680  178.1450  144.9080 N   0  0  2  0  0  0  0  0  0  0  0  0
  185.3740  179.1900  145.8540 C   0  0  0  0  0  2  0  0  0  0  0  0
  187.9670  177.3180  139.2340 O   0  0  0  0  0  0  0  0  0  0  0  0
  187.1320  178.2630  139.2870 C   0  0  0  0  0  0  0  0  0  0  0  0
  186.9210  178.9720  140.5080 N   0  0  0  0  0  2  0  0  0  0  0  0
  186.4530  176.6170  135.9430 C   0  0  1  0  0  3  0  0  0  0  0  0
  185.1760  177.7240  137.8000 C   0  0  0  0  0  2  0  0  0  0  0  0
  188.3370  179.6350  137.0740 O   0  0  0  0  0  1  0  0  0  0  0  0
  186.8730  175.3910  135.4330 O   0  0  0  0  0  1  0  0  0  0  0  0
  185.6400  176.3900  137.2140 C   0  0  0  0  0  2  0  0  0  0  0  0
  187.2260  178.8330  136.8100 C   0  0  2  0  0  3  0  0  0  0  0  0
  186.3560  178.6650  138.0660 C   0  0  2  0  0  3  0  0  0  0  0  0
  187.6710  177.4860  136.2440 C   0  0  0  0  0  2  0  0  0  0  0  0
  1 14  1  0  0  0  0
  1  9  1  0  0  0  0
  2  5  1  6  0  0  0
  2  3  1  0  0  0  0
  3 19  1  0  0  0  0
  3  7  1  1  0  0  0
  4 15  1  0  0  0  0
  4 11  1  1  0  0  0
  5 14  2  0  0  0  0
  6  1  2  0  0  0  0
  7  4  1  0  0  0  0
  8 23  1  6  0  0  0
  8 13  1  0  0  0  0
 12  8  1  0  0  0  0
 12 16  1  0  0  0  0
 13 18  1  1  0  0  0
 13  2  1  0  0  0  0
 16  5  1  0  0  0  0
 17 16  2  0  0  0  0
 17  6  1  0  0  0  0
 18 10  1  0  0  0  0
 19 10  1  6  0  0  0
 19 20  1  0  0  0  0
 20 15  1  0  0  0  0
 21 22  2  0  0  0  0
 22 23  1  0  0  0  0
 24 27  1  1  0  0  0
 24 31  1  0  0  0  0
 24 28  1  0  0  0  0
 25 30  1  0  0  0  0
 28 25  1  0  0  0  0
 29 26  1  1  0  0  0
 29 30  1  0  0  0  0
 30 22  1  1  0  0  0
 31 29  1  0  0  0  0
M  END
>  <MODEL>
2

>  <REMARK>
 VINA RESULT:      -8.7      2.677      3.175
  Name = 
  2 active torsions:
  status: ('A' for Active; 'I' for Inactive)
    1  A    between atoms: C_5  and  C_30
    2  A    between atoms: C_10  and  N_16
                            x       y       z     vdW  Elec       q    Type
                         _______ _______ _______ _____ _____    ______ ____

>  <TORSDO>
F 2

$$$$
=
 OpenBabel11122411133D

 31 35  0  0  1  0  0  0  0  0999 V2000
  193.4970  175.1980  135.7740 C   0  0  0  0  0  0  0  0  0  0  0  0
  190.1930  176.6380  136.9970 C   0  0  2  0  0  3  0  0  0  0  0  0
  189.1800  175.4650  137.0340 C   0  0  2  0  0  3  0  0  0  0  0  0
  188.3780  173.4030  135.8580 C   0  0  2  0  0  3  0  0  0  0  0  0
  191.6280  176.1560  136.9960 C   0  0  0  0  0  0  0  0  0  0  0  0
  194.2520  175.1620  136.9470 C   0  0  0  0  0  3  0  0  0  0  0  0
  189.3600  174.5660  135.8050 C   0  0  0  0  0  2  0  0  0  0  0  0
  190.4090  176.9940  139.4850 C   0  0  2  0  0  3  0  0  0  0  0  0
  194.0280  174.7490  134.6120 F   0  0  0  0  0  0  0  0  0  0  0  0
  187.5950  176.7860  138.2620 C   0  0  0  0  0  2  0  0  0  0  0  0
  188.4990  172.5790  134.5940 C   0  0  0  0  0  1  0  0  0  0  0  0
  191.9170  176.7480  139.4590 C   0  0  0  0  0  2  0  0  0  0  0  0
  189.9480  177.6180  138.1590 C   0  0  2  0  0  3  0  0  0  0  0  0
  192.1930  175.6960  135.7980 C   0  0  0  0  0  3  0  0  0  0  0  0
  186.9570  173.9320  135.9890 C   0  0  0  0  0  2  0  0  0  0  0  0
  192.3980  176.1240  138.1810 C   0  0  0  0  0  0  0  0  0  0  0  0
  193.7070  175.6330  138.1440 C   0  0  0  0  0  3  0  0  0  0  0  0
  188.4770  178.0260  138.2030 C   0  0  0  0  0  2  0  0  0  0  0  0
  187.7920  175.9730  137.0660 N   0  0  2  0  0  0  0  0  0  0  0  0
  186.8740  174.8420  137.2090 C   0  0  0  0  0  2  0  0  0  0  0  0
  190.1130  176.1720  142.2010 O   0  0  0  0  0  0  0  0  0  0  0  0
  189.9610  177.3980  141.9420 C   0  0  0  0  0  0  0  0  0  0  0  0
  190.0860  177.8730  140.6010 N   0  0  0  0  0  2  0  0  0  0  0  0
  190.4800  177.4140  145.6950 C   0  0  1  0  0  3  0  0  0  0  0  0
  190.8920  178.9120  143.7220 C   0  0  0  0  0  2  0  0  0  0  0  0
  187.5120  177.2800  143.4330 O   0  0  0  0  0  1  0  0  0  0  0  0
  191.0570  176.4650  146.5360 O   0  0  0  0  0  1  0  0  0  0  0  0
  191.5060  177.8760  144.6650 C   0  0  0  0  0  2  0  0  0  0  0  0
  188.6280  177.8310  144.0650 C   0  0  2  0  0  3  0  0  0  0  0  0
  189.6330  178.3730  143.0350 C   0  0  2  0  0  3  0  0  0  0  0  0
  189.2690  176.8030  144.9950 C   0  0  0  0  0  2  0  0  0  0  0  0
  1 14  2  0  0  0  0
  1  6  1  0  0  0  0
  2  5  1  1  0  0  0
  2  3  1  0  0  0  0
  2 13  1  0  0  0  0
  3  7  1  6  0  0  0
  3 19  1  0  0  0  0
  4 11  1  6  0  0  0
  4 15  1  0  0  0  0
  5 16  2  0  0  0  0
  6 17  2  0  0  0  0
  7  4  1  0  0  0  0
  8 23  1  1  0  0  0
  9  1  1  0  0  0  0
 12  8  1  0  0  0  0
 13 18  1  1  0  0  0
 13  8  1  0  0  0  0
 14  5  1  0  0  0  0
 15 20  1  0  0  0  0
 16 12  1  0  0  0  0
 17 16  1  0  0  0  0
 18 10  1  0  0  0  0
 19 20  1  1  0  0  0
 19 10  1  0  0  0  0
 22 21  2  0  0  0  0
 23 22  1  0  0  0  0
 24 27  1  1  0  0  0
 25 28  1  0  0  0  0
 28 24  1  0  0  0  0
 29 26  1  6  0  0  0
 29 31  1  0  0  0  0
 30 22  1  6  0  0  0
 30 25  1  0  0  0  0
 30 29  1  0  0  0  0
 31 24  1  0  0  0  0
M  END
>  <MODEL>
3

>  <REMARK>
 VINA RESULT:      -8.3      5.199      9.022
  Name = 
  2 active torsions:
  status: ('A' for Active; 'I' for Inactive)
    1  A    between atoms: C_5  and  C_30
    2  A    between atoms: C_10  and  N_16
                            x       y       z     vdW  Elec       q    Type
                         _______ _______ _______ _____ _____    ______ ____

>  <TORSDO>
F 2

$$$$
=
 OpenBabel11122411133D

 31 35  0  0  1  0  0  0  0  0999 V2000
  185.1120  178.6130  139.1310 C   0  0  0  0  0  0  0  0  0  0  0  0
  188.8220  178.1360  139.8320 C   0  0  2  0  0  3  0  0  0  0  0  0
  188.9300  177.1650  141.0360 C   0  0  2  0  0  3  0  0  0  0  0  0
  187.9540  176.5240  143.2530 C   0  0  2  0  0  3  0  0  0  0  0  0
  187.4760  178.0510  139.1450 C   0  0  0  0  0  0  0  0  0  0  0  0
  184.9340  177.8550  137.9730 C   0  0  0  0  0  3  0  0  0  0  0  0
  187.8600  177.4950  142.0840 C   0  0  0  0  0  2  0  0  0  0  0  0
  189.7260  176.5910  138.0530 C   0  0  2  0  0  3  0  0  0  0  0  0
  184.0570  179.2490  139.6940 F   0  0  0  0  0  0  0  0  0  0  0  0
  191.2880  176.8860  140.6860 C   0  0  0  0  0  2  0  0  0  0  0  0
  186.9590  176.9200  144.3230 C   0  0  0  0  0  1  0  0  0  0  0  0
  188.4500  176.6940  137.2200 C   0  0  0  0  0  2  0  0  0  0  0  0
  189.9630  177.8980  138.8260 C   0  0  2  0  0  3  0  0  0  0  0  0
  186.3780  178.7120  139.7120 C   0  0  0  0  0  3  0  0  0  0  0  0
  189.3620  176.5480  143.8310 C   0  0  0  0  0  2  0  0  0  0  0  0
  187.2930  177.2910  137.9680 C   0  0  0  0  0  0  0  0  0  0  0  0
  186.0230  177.2060  137.3880 C   0  0  0  0  0  3  0  0  0  0  0  0
  191.3100  177.8960  139.5470 C   0  0  0  0  0  2  0  0  0  0  0  0
  190.2660  177.2520  141.6610 N   0  0  2  0  0  0  0  0  0  0  0  0
  190.3620  176.2470  142.7210 C   0  0  0  0  0  2  0  0  0  0  0  0
  191.2210  174.1630  138.0210 O   0  0  0  0  0  0  0  0  0  0  0  0
  191.5540  175.0640  137.2030 C   0  0  0  0  0  0  0  0  0  0  0  0
  190.8520  176.3070  137.1740 N   0  0  0  0  0  2  0  0  0  0  0  0
  194.8320  173.1780  137.4260 C   0  0  1  0  0  3  0  0  0  0  0  0
  192.8650  173.3740  135.8780 C   0  0  0  0  0  2  0  0  0  0  0  0
  193.8590  176.7720  137.1570 O   0  0  0  0  0  1  0  0  0  0  0  0
  195.3830  172.4350  138.4670 O   0  0  0  0  0  1  0  0  0  0  0  0
  193.4950  172.5680  137.0150 C   0  0  0  0  0  2  0  0  0  0  0  0
  194.0270  175.4480  136.7490 C   0  0  2  0  0  3  0  0  0  0  0  0
  192.7000  174.8500  136.2560 C   0  0  2  0  0  3  0  0  0  0  0  0
  194.6360  174.6220  137.8800 C   0  0  0  0  0  2  0  0  0  0  0  0
  1  9  1  0  0  0  0
  1 14  1  0  0  0  0
  2  5  1  6  0  0  0
  2  3  1  0  0  0  0
  3 19  1  0  0  0  0
  3  7  1  1  0  0  0
  4 15  1  0  0  0  0
  4 11  1  1  0  0  0
  5 14  2  0  0  0  0
  6  1  2  0  0  0  0
  7  4  1  0  0  0  0
  8 23  1  6  0  0  0
  8 13  1  0  0  0  0
 12 16  1  0  0  0  0
 12  8  1  0  0  0  0
 13 18  1  1  0  0  0
 13  2  1  0  0  0  0
 16  5  1  0  0  0  0
 17 16  2  0  0  0  0
 17  6  1  0  0  0  0
 18 10  1  0  0  0  0
 19 10  1  6  0  0  0
 19 20  1  0  0  0  0
 20 15  1  0  0  0  0
 22 21  2  0  0  0  0
 23 22  1  0  0  0  0
 24 31  1  0  0  0  0
 24 27  1  1  0  0  0
 25 30  1  0  0  0  0
 25 28  1  0  0  0  0
 28 24  1  0  0  0  0
 29 26  1  1  0  0  0
 29 31  1  0  0  0  0
 30 29  1  0  0  0  0
 30 22  1  1  0  0  0
M  END
>  <MODEL>
4

>  <REMARK>
 VINA RESULT:      -8.2      5.421      8.570
  Name = 
  2 active torsions:
  status: ('A' for Active; 'I' for Inactive)
    1  A    between atoms: C_5  and  C_30
    2  A    between atoms: C_10  and  N_16
                            x       y       z     vdW  Elec       q    Type
                         _______ _______ _______ _____ _____    ______ ____

>  <TORSDO>
F 2

$$$$
=
 OpenBabel11122411133D

 31 35  0  0  1  0  0  0  0  0999 V2000
  190.3150  176.7830  145.9890 C   0  0  0  0  0  0  0  0  0  0  0  0
  187.6620  177.2770  143.3060 C   0  0  2  0  0  3  0  0  0  0  0  0
  186.6340  178.2890  143.8720 C   0  0  2  0  0  3  0  0  0  0  0  0
  185.3680  179.0090  145.9120 C   0  0  2  0  0  3  0  0  0  0  0  0
  188.9900  177.3400  144.0300 C   0  0  0  0  0  0  0  0  0  0  0  0
  191.3940  177.5000  145.4690 C   0  0  0  0  0  3  0  0  0  0  0  0
  186.3610  177.9980  145.3530 C   0  0  0  0  0  2  0  0  0  0  0  0
  188.6670  178.7570  141.5260 C   0  0  2  0  0  3  0  0  0  0  0  0
  190.4260  176.1680  147.1910 F   0  0  0  0  0  0  0  0  0  0  0  0
  185.6040  178.5510  141.7200 C   0  0  0  0  0  2  0  0  0  0  0  0
  185.0330  178.6530  147.3440 C   0  0  0  0  0  1  0  0  0  0  0  0
  190.0710  178.6280  142.1140 C   0  0  0  0  0  2  0  0  0  0  0  0
  187.8580  177.4780  141.7910 C   0  0  2  0  0  3  0  0  0  0  0  0
  189.1200  176.7010  145.2710 C   0  0  0  0  0  3  0  0  0  0  0  0
  184.0980  179.0030  145.0730 C   0  0  0  0  0  2  0  0  0  0  0  0
  190.0870  178.0590  143.5040 C   0  0  0  0  0  0  0  0  0  0  0  0
  191.2820  178.1260  144.2260 C   0  0  0  0  0  3  0  0  0  0  0  0
  186.5050  177.5020  141.0830 C   0  0  0  0  0  2  0  0  0  0  0  0
  185.3630  178.2220  143.1210 N   0  0  2  0  0  0  0  0  0  0  0  0
  184.4610  179.2630  143.6160 C   0  0  0  0  0  2  0  0  0  0  0  0
  189.8700  177.0040  139.6240 O   0  0  0  0  0  0  0  0  0  0  0  0
  189.3760  178.0820  139.1930 C   0  0  0  0  0  0  0  0  0  0  0  0
  188.7680  179.0080  140.0940 N   0  0  0  0  0  2  0  0  0  0  0  0
  187.5340  176.8120  136.1360 C   0  0  1  0  0  3  0  0  0  0  0  0
  188.1080  179.0010  137.2240 C   0  0  0  0  0  2  0  0  0  0  0  0
  191.0620  176.6710  137.3500 O   0  0  0  0  0  1  0  0  0  0  0  0
  186.5490  175.8350  136.0100 O   0  0  0  0  0  1  0  0  0  0  0  0
  187.0390  177.9190  137.0610 C   0  0  0  0  0  2  0  0  0  0  0  0
  189.8930  177.2450  136.8470 C   0  0  2  0  0  3  0  0  0  0  0  0
  189.4310  178.4160  137.7300 C   0  0  2  0  0  3  0  0  0  0  0  0
  188.8050  176.1830  136.6990 C   0  0  0  0  0  2  0  0  0  0  0  0
  1  9  1  0  0  0  0
  2  3  1  0  0  0  0
  2  5  1  1  0  0  0
  3  7  1  1  0  0  0
  4 11  1  1  0  0  0
  5 14  1  0  0  0  0
  6  1  1  0  0  0  0
  7  4  1  0  0  0  0
  8 23  1  6  0  0  0
  8 13  1  0  0  0  0
  8 12  1  0  0  0  0
 12 16  1  0  0  0  0
 13 18  1  6  0  0  0
 13  2  1  0  0  0  0
 14  1  2  0  0  0  0
 15  4  1  0  0  0  0
 16  5  2  0  0  0  0
 16 17  1  0  0  0  0
 17  6  2  0  0  0  0
 18 10  1  0  0  0  0
 19 10  1  6  0  0  0
 19 20  1  0  0  0  0
 19  3  1  0  0  0  0
 20 15  1  0  0  0  0
 22 21  2  0  0  0  0
 22 23  1  0  0  0  0
 24 27  1  1  0  0  0
 24 31  1  0  0  0  0
 24 28  1  0  0  0  0
 25 30  1  0  0  0  0
 28 25  1  0  0  0  0
 29 26  1  1  0  0  0
 29 30  1  0  0  0  0
 30 22  1  1  0  0  0
 31 29  1  0  0  0  0
M  END
>  <MODEL>
5

>  <REMARK>
 VINA RESULT:      -7.8      3.328      4.733
  Name = 
  2 active torsions:
  status: ('A' for Active; 'I' for Inactive)
    1  A    between atoms: C_5  and  C_30
    2  A    between atoms: C_10  and  N_16
                            x       y       z     vdW  Elec       q    Type
                         _______ _______ _______ _____ _____    ______ ____

>  <TORSDO>
F 2

$$$$
=
 OpenBabel11122411133D

 31 35  0  0  1  0  0  0  0  0999 V2000
  189.1770  178.0780  143.5480 C   0  0  0  0  0  0  0  0  0  0  0  0
  186.7260  178.9540  140.7730 C   0  0  2  0  0  3  0  0  0  0  0  0
  186.9580  177.9320  139.6300 C   0  0  2  0  0  3  0  0  0  0  0  0
  188.6800  176.6510  138.3380 C   0  0  2  0  0  3  0  0  0  0  0  0
  187.2660  178.4640  142.0990 C   0  0  0  0  0  0  0  0  0  0  0  0
  188.3440  177.4880  144.4990 C   0  0  0  0  0  3  0  0  0  0  0  0
  188.4580  177.6720  139.4450 C   0  0  0  0  0  2  0  0  0  0  0  0
  184.4490  178.1490  141.5060 C   0  0  2  0  0  3  0  0  0  0  0  0
  190.5090  178.1740  143.7800 F   0  0  0  0  0  0  0  0  0  0  0  0
  184.9520  178.6280  138.5090 C   0  0  0  0  0  2  0  0  0  0  0  0
  190.1650  176.4760  138.0990 C   0  0  0  0  0  1  0  0  0  0  0  0
  184.9280  177.8780  142.9310 C   0  0  0  0  0  2  0  0  0  0  0  0
  185.2340  179.3190  140.8930 C   0  0  2  0  0  3  0  0  0  0  0  0
  188.6400  178.5660  142.3560 C   0  0  0  0  0  3  0  0  0  0  0  0
  188.0090  177.1240  137.0560 C   0  0  0  0  0  2  0  0  0  0  0  0
  186.4230  177.8730  143.0680 C   0  0  0  0  0  0  0  0  0  0  0  0
  186.9700  177.3960  144.2640 C   0  0  0  0  0  3  0  0  0  0  0  0
  184.6790  179.7250  139.5290 C   0  0  0  0  0  2  0  0  0  0  0  0
  186.3900  178.4290  138.3590 N   0  0  2  0  0  0  0  0  0  0  0  0
  186.5350  177.3930  137.3350 C   0  0  0  0  0  2  0  0  0  0  0  0
  182.4580  176.8010  139.9700 O   0  0  0  0  0  0  0  0  0  0  0  0
  182.0760  177.7260  140.7380 C   0  0  0  0  0  0  0  0  0  0  0  0
  183.0230  178.4470  141.5270 N   0  0  0  0  0  2  0  0  0  0  0  0
  179.0520  177.0280  138.5660 C   0  0  1  0  0  3  0  0  0  0  0  0
  179.7260  176.8600  140.9790 C   0  0  0  0  0  2  0  0  0  0  0  0
  180.9990  180.0750  139.4920 O   0  0  0  0  0  1  0  0  0  0  0  0
  178.9350  176.3200  137.3720 O   0  0  0  0  0  1  0  0  0  0  0  0
  179.5800  176.1020  139.6580 C   0  0  0  0  0  2  0  0  0  0  0  0
  180.1420  178.9890  139.6720 C   0  0  2  0  0  3  0  0  0  0  0  0
  180.6220  178.0940  140.8260 C   0  0  2  0  0  3  0  0  0  0  0  0
  180.0000  178.2060  138.3690 C   0  0  0  0  0  2  0  0  0  0  0  0
  1  9  1  0  0  0  0
  1  6  1  0  0  0  0
  2 13  1  0  0  0  0
  2  5  1  1  0  0  0
  3  7  1  6  0  0  0
  3  2  1  0  0  0  0
  4 11  1  6  0  0  0
  4  7  1  0  0  0  0
  5 14  1  0  0  0  0
  5 16  2  0  0  0  0
  8 23  1  1  0  0  0
  8 12  1  0  0  0  0
 10 18  1  0  0  0  0
 12 16  1  0  0  0  0
 13 18  1  6  0  0  0
 13  8  1  0  0  0  0
 14  1  2  0  0  0  0
 15 20  1  0  0  0  0
 15  4  1  0  0  0  0
 16 17  1  0  0  0  0
 17  6  2  0  0  0  0
 19 20  1  6  0  0  0
 19 10  1  0  0  0  0
 19  3  1  0  0  0  0
 21 22  2  0  0  0  0
 22 23  1  0  0  0  0
 24 27  1  6  0  0  0
 24 28  1  0  0  0  0
 28 25  1  0  0  0  0
 29 26  1  6  0  0  0
 29 30  1  0  0  0  0
 30 22  1  6  0  0  0
 30 25  1  0  0  0  0
 31 24  1  0  0  0  0
 31 29  1  0  0  0  0
M  END
>  <MODEL>
6

>  <REMARK>
 VINA RESULT:      -7.8      2.377      5.061
  Name = 
  2 active torsions:
  status: ('A' for Active; 'I' for Inactive)
    1  A    between atoms: C_5  and  C_30
    2  A    between atoms: C_10  and  N_16
                            x       y       z     vdW  Elec       q    Type
                         _______ _______ _______ _____ _____    ______ ____

>  <TORSDO>
F 2

$$$$
=
 OpenBabel11122411133D

 31 35  0  0  1  0  0  0  0  0999 V2000
  188.4200  178.1940  143.7870 C   0  0  0  0  0  0  0  0  0  0  0  0
  186.4040  178.9560  140.6520 C   0  0  2  0  0  3  0  0  0  0  0  0
  186.8300  177.9190  139.5810 C   0  0  2  0  0  3  0  0  0  0  0  0
  188.7570  176.6560  138.5960 C   0  0  2  0  0  3  0  0  0  0  0  0
  186.7450  178.5060  142.0560 C   0  0  0  0  0  0  0  0  0  0  0  0
  187.4640  177.6020  144.6140 C   0  0  0  0  0  3  0  0  0  0  0  0
  188.3460  177.6920  139.6330 C   0  0  0  0  0  2  0  0  0  0  0  0
  184.0600  178.1090  141.0470 C   0  0  2  0  0  3  0  0  0  0  0  0
  189.6980  178.3280  144.2170 F   0  0  0  0  0  0  0  0  0  0  0  0
  185.0050  178.5430  138.1520 C   0  0  0  0  0  2  0  0  0  0  0  0
  190.2640  176.5140  138.5900 C   0  0  0  0  0  1  0  0  0  0  0  0
  184.3210  177.8780  142.5340 C   0  0  0  0  0  2  0  0  0  0  0  0
  184.9040  179.2860  140.5350 C   0  0  2  0  0  3  0  0  0  0  0  0
  188.0620  178.6460  142.5160 C   0  0  0  0  0  3  0  0  0  0  0  0
  188.2800  177.0880  137.2170 C   0  0  0  0  0  2  0  0  0  0  0  0
  185.7780  177.9120  142.8980 C   0  0  0  0  0  0  0  0  0  0  0  0
  186.1450  177.4720  144.1730 C   0  0  0  0  0  3  0  0  0  0  0  0
  184.5550  179.6530  139.0930 C   0  0  0  0  0  2  0  0  0  0  0  0
  186.4530  178.3770  138.2280 N   0  0  2  0  0  0  0  0  0  0  0  0
  186.7750  177.3260  137.2620 C   0  0  0  0  0  2  0  0  0  0  0  0
  182.2450  176.3960  139.6660 O   0  0  0  0  0  0  0  0  0  0  0  0
  181.7840  177.4670  140.1490 C   0  0  0  0  0  0  0  0  0  0  0  0
  182.6410  178.3730  140.8440 N   0  0  0  0  0  2  0  0  0  0  0  0
  179.4750  179.9550  141.8310 C   0  0  1  0  0  3  0  0  0  0  0  0
  180.1320  179.2540  139.5110 C   0  0  0  0  0  2  0  0  0  0  0  0
  179.7230  176.2320  141.7190 O   0  0  0  0  0  1  0  0  0  0  0  0
  179.7180  180.8780  142.8460 O   0  0  0  0  0  1  0  0  0  0  0  0
  180.3740  180.2610  140.6370 C   0  0  0  0  0  2  0  0  0  0  0  0
  179.4880  177.5240  141.2440 C   0  0  2  0  0  3  0  0  0  0  0  0
  180.3310  177.8120  139.9910 C   0  0  2  0  0  3  0  0  0  0  0  0
  179.7470  178.5470  142.3490 C   0  0  0  0  0  2  0  0  0  0  0  0
  1  9  1  0  0  0  0
  1  6  1  0  0  0  0
  2  5  1  1  0  0  0
  3  7  1  6  0  0  0
  3  2  1  0  0  0  0
  4 11  1  6  0  0  0
  4  7  1  0  0  0  0
  5 14  1  0  0  0  0
  5 16  2  0  0  0  0
  8 23  1  1  0  0  0
  8 12  1  0  0  0  0
 10 19  1  0  0  0  0
 10 18  1  0  0  0  0
 12 16  1  0  0  0  0
 13 18  1  6  0  0  0
 13  2  1  0  0  0  0
 13  8  1  0  0  0  0
 14  1  2  0  0  0  0
 15 20  1  0  0  0  0
 15  4  1  0  0  0  0
 16 17  1  0  0  0  0
 17  6  2  0  0  0  0
 19 20  1  6  0  0  0
 19  3  1  0  0  0  0
 21 22  2  0  0  0  0
 22 23  1  0  0  0  0
 24 31  1  0  0  0  0
 24 27  1  1  0  0  0
 25 30  1  0  0  0  0
 25 28  1  0  0  0  0
 28 24  1  0  0  0  0
 29 26  1  1  0  0  0
 29 31  1  0  0  0  0
 30 22  1  1  0  0  0
 30 29  1  0  0  0  0
M  END
>  <MODEL>
7

>  <REMARK>
 VINA RESULT:      -7.7      2.575      5.538
  Name = 
  2 active torsions:
  status: ('A' for Active; 'I' for Inactive)
    1  A    between atoms: C_5  and  C_30
    2  A    between atoms: C_10  and  N_16
                            x       y       z     vdW  Elec       q    Type
                         _______ _______ _______ _____ _____    ______ ____

>  <TORSDO>
F 2

$$$$
=
 OpenBabel11122411133D

 31 35  0  0  1  0  0  0  0  0999 V2000
  191.5540  177.3630  141.0740 C   0  0  0  0  0  0  0  0  0  0  0  0
  189.3010  177.8080  138.0410 C   0  0  2  0  0  3  0  0  0  0  0  0
  189.1320  176.4070  137.3980 C   0  0  2  0  0  3  0  0  0  0  0  0
  190.2900  174.2660  136.8030 C   0  0  2  0  0  3  0  0  0  0  0  0
  189.7560  177.7270  139.4820 C   0  0  0  0  0  0  0  0  0  0  0  0
  190.6480  177.4710  142.1300 C   0  0  0  0  0  3  0  0  0  0  0  0
  190.4650  175.6500  137.4140 C   0  0  0  0  0  2  0  0  0  0  0  0
  186.9430  178.0870  138.8960 C   0  0  2  0  0  3  0  0  0  0  0  0
  192.8650  177.1280  141.3270 F   0  0  0  0  0  0  0  0  0  0  0  0
  187.3610  177.1950  135.9820 C   0  0  0  0  0  2  0  0  0  0  0  0
  191.6310  173.5670  136.7360 C   0  0  0  0  0  1  0  0  0  0  0  0
  187.4140  178.2530  140.3400 C   0  0  0  0  0  2  0  0  0  0  0  0
  188.0020  178.6290  137.9250 C   0  0  2  0  0  3  0  0  0  0  0  0
  191.1100  177.4930  139.7570 C   0  0  0  0  0  3  0  0  0  0  0  0
  189.7080  174.3900  135.4020 C   0  0  0  0  0  2  0  0  0  0  0  0
  188.8430  177.8430  140.5540 C   0  0  0  0  0  0  0  0  0  0  0  0
  189.2990  177.7210  141.8700 C   0  0  0  0  0  3  0  0  0  0  0  0
  187.5050  178.6270  136.4800 C   0  0  0  0  0  2  0  0  0  0  0  0
  188.6570  176.5240  136.0030 N   0  0  2  0  0  0  0  0  0  0  0  0
  188.4090  175.1840  135.4700 C   0  0  0  0  0  2  0  0  0  0  0  0
  184.4300  176.8560  138.3440 O   0  0  0  0  0  0  0  0  0  0  0  0
  184.4530  178.1130  138.4520 C   0  0  0  0  0  0  0  0  0  0  0  0
  185.6800  178.7920  138.7180 N   0  0  0  0  0  2  0  0  0  0  0  0
  180.8540  177.6060  139.5210 C   0  0  1  0  0  3  0  0  0  0  0  0
  182.6290  179.3770  139.6380 C   0  0  0  0  0  2  0  0  0  0  0  0
  182.6510  177.7340  136.2510 O   0  0  0  0  0  1  0  0  0  0  0  0
  180.2520  176.5590  140.2160 O   0  0  0  0  0  1  0  0  0  0  0  0
  181.9460  178.2300  140.3840 C   0  0  0  0  0  2  0  0  0  0  0  0
  182.1170  178.2120  137.4490 C   0  0  2  0  0  3  0  0  0  0  0  0
  183.1940  178.9160  138.2900 C   0  0  2  0  0  3  0  0  0  0  0  0
  181.4490  177.0760  138.2200 C   0  0  0  0  0  2  0  0  0  0  0  0
  1  9  1  0  0  0  0
  1  6  1  0  0  0  0
  2  5  1  1  0  0  0
  3  7  1  6  0  0  0
  3  2  1  0  0  0  0
  4 11  1  6  0  0  0
  4  7  1  0  0  0  0
  5 14  1  0  0  0  0
  5 16  2  0  0  0  0
  8 23  1  1  0  0  0
  8 12  1  0  0  0  0
 10 19  1  0  0  0  0
 10 18  1  0  0  0  0
 12 16  1  0  0  0  0
 13 18  1  6  0  0  0
 13  2  1  0  0  0  0
 13  8  1  0  0  0  0
 14  1  2  0  0  0  0
 15 20  1  0  0  0  0
 15  4  1  0  0  0  0
 16 17  1  0  0  0  0
 17  6  2  0  0  0  0
 19 20  1  1  0  0  0
 19  3  1  0  0  0  0
 21 22  2  0  0  0  0
 22 23  1  0  0  0  0
 24 27  1  1  0  0  0
 24 28  1  0  0  0  0
 25 28  1  0  0  0  0
 29 26  1  6  0  0  0
 29 31  1  0  0  0  0
 29 30  1  0  0  0  0
 30 22  1  1  0  0  0
 30 25  1  0  0  0  0
 31 24  1  0  0  0  0
M  END
>  <MODEL>
8

>  <REMARK>
 VINA RESULT:      -7.5      3.621      6.482
  Name = 
  2 active torsions:
  status: ('A' for Active; 'I' for Inactive)
    1  A    between atoms: C_5  and  C_30
    2  A    between atoms: C_10  and  N_16
                            x       y       z     vdW  Elec       q    Type
                         _______ _______ _______ _____ _____    ______ ____

>  <TORSDO>
F 2

$$$$
=
 OpenBabel11122411133D

 31 35  0  0  1  0  0  0  0  0999 V2000
  184.9890  179.5820  144.8470 C   0  0  0  0  0  0  0  0  0  0  0  0
  185.2860  179.3580  141.0600 C   0  0  2  0  0  3  0  0  0  0  0  0
  186.4350  178.3620  140.7580 C   0  0  2  0  0  3  0  0  0  0  0  0
  188.7170  177.5870  141.4480 C   0  0  2  0  0  3  0  0  0  0  0  0
  184.7380  179.1950  142.4620 C   0  0  0  0  0  0  0  0  0  0  0  0
  183.8280  178.8480  145.0930 C   0  0  0  0  0  3  0  0  0  0  0  0
  187.5990  178.5820  141.7330 C   0  0  0  0  0  2  0  0  0  0  0  0
  183.3680  177.9360  140.2430 C   0  0  2  0  0  3  0  0  0  0  0  0
  185.6800  180.1240  145.8790 F   0  0  0  0  0  0  0  0  0  0  0  0
  185.8350  178.2670  138.4370 C   0  0  0  0  0  2  0  0  0  0  0  0
  189.8970  177.8770  142.3500 C   0  0  0  0  0  1  0  0  0  0  0  0
  182.6740  177.9690  141.6040 C   0  0  0  0  0  2  0  0  0  0  0  0
  184.1600  179.2330  140.0170 C   0  0  2  0  0  3  0  0  0  0  0  0
  185.4400  179.7570  143.5370 C   0  0  0  0  0  3  0  0  0  0  0  0
  189.1470  177.6960  139.9920 C   0  0  0  0  0  2  0  0  0  0  0  0
  183.5590  178.4580  142.7140 C   0  0  0  0  0  0  0  0  0  0  0  0
  183.1110  178.2980  144.0290 C   0  0  0  0  0  3  0  0  0  0  0  0
  184.7370  179.3090  138.6050 C   0  0  0  0  0  2  0  0  0  0  0  0
  186.9230  178.5280  139.3730 N   0  0  2  0  0  0  0  0  0  0  0  0
  187.9300  177.5020  139.0960 C   0  0  0  0  0  2  0  0  0  0  0  0
  182.6840  175.4550  139.0130 O   0  0  0  0  0  0  0  0  0  0  0  0
  182.0660  176.4860  138.6300 C   0  0  0  0  0  0  0  0  0  0  0  0
  182.3680  177.7610  139.1980 N   0  0  0  0  0  2  0  0  0  0  0  0
  179.9590  173.6540  137.2550 C   0  0  1  0  0  3  0  0  0  0  0  0
  179.6510  175.9860  138.1330 C   0  0  0  0  0  2  0  0  0  0  0  0
  182.6840  175.8220  135.9080 O   0  0  0  0  0  1  0  0  0  0  0  0
  179.9210  172.3030  137.5940 O   0  0  0  0  0  1  0  0  0  0  0  0
  179.6070  174.4960  138.4770 C   0  0  0  0  0  2  0  0  0  0  0  0
  181.4120  175.4930  136.3810 C   0  0  2  0  0  3  0  0  0  0  0  0
  181.0140  176.3930  137.5620 C   0  0  2  0  0  3  0  0  0  0  0  0
  181.3540  174.0120  136.7520 C   0  0  0  0  0  2  0  0  0  0  0  0
  1  6  1  0  0  0  0
  1  9  1  0  0  0  0
  2  5  1  1  0  0  0
  3  2  1  0  0  0  0
  3  7  1  1  0  0  0
  4  7  1  0  0  0  0
  4 11  1  1  0  0  0
  5 16  2  0  0  0  0
  5 14  1  0  0  0  0
  8 23  1  6  0  0  0
  8 12  1  0  0  0  0
 10 18  1  0  0  0  0
 12 16  1  0  0  0  0
 13 18  1  6  0  0  0
 13  8  1  0  0  0  0
 13  2  1  0  0  0  0
 14  1  2  0  0  0  0
 15  4  1  0  0  0  0
 16 17  1  0  0  0  0
 17  6  2  0  0  0  0
 19 10  1  6  0  0  0
 19  3  1  0  0  0  0
 20 19  1  0  0  0  0
 20 15  1  0  0  0  0
 22 21  2  0  0  0  0
 22 23  1  0  0  0  0
 24 27  1  1  0  0  0
 24 28  1  0  0  0  0
 25 28  1  0  0  0  0
 29 26  1  1  0  0  0
 29 31  1  0  0  0  0
 29 30  1  0  0  0  0
 30 25  1  0  0  0  0
 30 22  1  1  0  0  0
 31 24  1  0  0  0  0
M  END
>  <MODEL>
9

>  <REMARK>
 VINA RESULT:      -7.5      3.208      5.517
  Name = 
  2 active torsions:
  status: ('A' for Active; 'I' for Inactive)
    1  A    between atoms: C_5  and  C_30
    2  A    between atoms: C_10  and  N_16
                            x       y       z     vdW  Elec       q    Type
                         _______ _______ _______ _____ _____    ______ ____

>  <TORSDO>
F 2

$$$$
