=
 OpenBabel11122412143D

 34 40  0  0  1  0  0  0  0  0999 V2000
  184.1420  178.5520  144.1510 C   0  0  0  0  0  0  0  0  0  0  0  0
  181.7200  179.0320  143.4510 C   0  0  0  0  0  2  0  0  0  0  0  0
  191.1880  176.1800  144.6830 N   0  0  0  0  0  2  0  0  0  0  0  0
  186.4630  178.1210  144.6820 C   0  0  0  0  0  0  0  0  0  0  0  0
  188.0540  177.8070  142.8710 C   0  0  0  0  0  0  0  0  0  0  0  0
  189.9650  176.2200  142.5740 C   0  0  0  0  0  2  0  0  0  0  0  0
  191.3310  176.3060  143.2390 C   0  0  0  0  0  2  0  0  0  0  0  0
  190.1080  178.3780  145.0940 C   0  0  0  0  0  2  0  0  0  0  0  0
  183.4270  178.6430  141.8460 C   0  0  0  0  0  0  0  0  0  0  0  0
  183.0060  178.9610  138.6470 C   0  0  0  0  0  2  0  0  0  0  0  0
  187.0460  177.9840  141.9730 N   0  0  0  0  0  0  0  0  0  0  0  0
  188.8240  177.5890  145.3120 C   0  0  0  0  0  2  0  0  0  0  0  0
  184.7420  178.3880  141.3870 C   0  0  0  0  0  0  0  0  0  0  0  0
  181.1590  179.3290  142.0590 C   0  0  0  0  0  2  0  0  0  0  0  0
  187.7820  177.8780  144.2640 C   0  0  0  0  0  0  0  0  0  0  0  0
  191.3380  177.4940  145.3090 C   0  0  0  0  0  2  0  0  0  0  0  0
  182.4090  179.7290  139.8360 C   0  0  2  0  0  3  0  0  0  0  0  0
  185.4520  178.2940  143.7250 C   0  0  0  0  0  0  0  0  0  0  0  0
  189.4370  177.6220  142.3280 C   0  0  0  0  0  2  0  0  0  0  0  0
  185.7610  178.2170  142.3510 C   0  0  0  0  0  0  0  0  0  0  0  0
  184.9230  178.4320  146.4950 C   0  0  0  0  0  3  0  0  0  0  0  0
  184.0200  177.8790  139.0220 C   0  0  0  0  0  2  0  0  0  0  0  0
  186.1340  178.1950  146.0830 N   0  0  0  0  0  0  0  0  0  0  0  0
  185.1110  178.4310  139.9270 C   0  0  0  0  0  2  0  0  0  0  0  0
  182.1820  178.8000  141.0380 C   0  0  1  0  0  3  0  0  0  0  0  0
  183.8600  178.6280  145.5520 N   0  0  0  0  0  0  0  0  0  0  0  0
  183.1470  178.7300  143.1910 C   0  0  1  0  0  3  0  0  0  0  0  0
  181.1250  180.4070  139.3750 C   0  0  0  0  0  2  0  0  0  0  0  0
  181.4350  181.6660  138.7180 N   0  0  0  0  0  2  0  0  0  0  0  0
  180.8000  183.2630  135.7140 C   0  0  0  0  0  2  0  0  0  0  0  0
  180.7670  180.9910  136.4790 C   0  0  0  0  0  2  0  0  0  0  0  0
  180.4400  181.8630  137.6770 C   0  0  0  0  0  3  0  0  0  0  0  0
  180.5030  181.8500  135.2650 C   0  0  0  0  0  2  0  0  0  0  0  0
  180.4800  183.3030  137.1950 C   0  0  0  0  0  2  0  0  0  0  0  0
  1 26  2  0  0  0  0
  3 16  1  0  0  0  0
  4 23  1  0  0  0  0
  5 15  1  0  0  0  0
  6  7  1  0  0  0  0
  7  3  1  0  0  0  0
  8 16  1  0  0  0  0
  8 12  1  0  0  0  0
  9 27  1  0  0  0  0
 10 22  1  0  0  0  0
 10 17  1  0  0  0  0
 11 20  1  0  0  0  0
 11  5  2  0  0  0  0
 13  9  2  0  0  0  0
 13 20  1  0  0  0  0
 14  2  1  0  0  0  0
 15  4  2  0  0  0  0
 15 12  1  0  0  0  0
 17 28  1  6  0  0  0
 17 25  1  0  0  0  0
 18  1  1  0  0  0  0
 18  4  1  0  0  0  0
 19  6  1  0  0  0  0
 19  5  1  0  0  0  0
 20 18  2  0  0  0  0
 22 24  1  0  0  0  0
 23 21  2  0  0  0  0
 24 13  1  0  0  0  0
 25  9  1  0  0  0  0
 25 14  1  1  0  0  0
 26 21  1  0  0  0  0
 27  2  1  6  0  0  0
 27  1  1  0  0  0  0
 29 28  1  0  0  0  0
 30 34  1  0  0  0  0
 31 32  1  0  0  0  0
 32 29  1  0  0  0  0
 33 30  1  0  0  0  0
 33 31  1  0  0  0  0
 34 32  1  0  0  0  0
M  END
>  <MODEL>
1

>  <REMARK>
 VINA RESULT:     -10.5      0.000      0.000
  Name = 
  3 active torsions:
  status: ('A' for Active; 'I' for Inactive)
    1  A    between atoms: C_17  and  C_28
    2  A    between atoms: C_28  and  N_29
    3  A    between atoms: N_29  and  C_32
                            x       y       z     vdW  Elec       q    Type
                         _______ _______ _______ _____ _____    ______ ____

>  <TORSDO>
F 3

$$$$
=
 OpenBabel11122412143D

 34 40  0  0  1  0  0  0  0  0999 V2000
  186.3460  178.5520  141.2010 C   0  0  0  0  0  0  0  0  0  0  0  0
  184.8430  178.9710  139.1640 C   0  0  0  0  0  2  0  0  0  0  0  0
  189.4580  178.2940  147.9700 N   0  0  0  0  0  2  0  0  0  0  0  0
  187.6510  178.1270  143.1950 C   0  0  0  0  0  0  0  0  0  0  0  0
  186.5140  177.9240  145.3340 C   0  0  0  0  0  0  0  0  0  0  0  0
  187.0880  178.7520  147.6230 C   0  0  0  0  0  2  0  0  0  0  0  0
  188.1340  178.1720  148.5650 C   0  0  0  0  0  2  0  0  0  0  0  0
  189.1630  176.5990  146.1770 C   0  0  0  0  0  2  0  0  0  0  0  0
  183.9480  178.7920  141.3570 C   0  0  0  0  0  0  0  0  0  0  0  0
  180.7730  178.7450  142.0130 C   0  0  0  0  0  2  0  0  0  0  0  0
  185.3240  178.1400  144.7070 N   0  0  0  0  0  0  0  0  0  0  0  0
  189.0760  177.7800  145.2210 C   0  0  0  0  0  2  0  0  0  0  0  0
  183.9780  178.5860  142.7560 C   0  0  0  0  0  0  0  0  0  0  0  0
  183.3170  178.9340  139.0670 C   0  0  0  0  0  2  0  0  0  0  0  0
  187.7190  177.9070  144.5810 C   0  0  0  0  0  0  0  0  0  0  0  0
  189.8920  176.9900  147.4650 C   0  0  0  0  0  2  0  0  0  0  0  0
  181.5780  178.1950  140.8250 C   0  0  2  0  0  3  0  0  0  0  0  0
  186.4060  178.3500  142.5870 C   0  0  0  0  0  0  0  0  0  0  0  0
  186.4760  177.6310  146.8020 C   0  0  0  0  0  2  0  0  0  0  0  0
  185.2310  178.3590  143.3680 C   0  0  0  0  0  0  0  0  0  0  0  0
  188.8060  178.3150  141.1010 C   0  0  0  0  0  3  0  0  0  0  0  0
  181.6130  179.3910  143.1150 C   0  0  0  0  0  2  0  0  0  0  0  0
  188.8440  178.1270  142.3880 N   0  0  0  0  0  0  0  0  0  0  0  0
  182.7240  178.4640  143.5840 C   0  0  0  0  0  2  0  0  0  0  0  0
  182.7700  179.1060  140.4950 C   0  0  1  0  0  3  0  0  0  0  0  0
  187.5550  178.5340  140.4350 N   0  0  0  0  0  2  0  0  0  0  0  0
  185.1030  178.7640  140.6070 C   0  0  0  0  0  0  0  0  0  0  0  0
  180.6320  178.0250  139.6430 C   0  0  0  0  0  2  0  0  0  0  0  0
  179.3750  178.7050  139.9080 N   0  0  0  0  0  2  0  0  0  0  0  0
  180.7570  181.5150  138.4340 C   0  0  0  0  0  2  0  0  0  0  0  0
  180.0670  179.3510  137.6680 C   0  0  0  0  0  2  0  0  0  0  0  0
  179.1930  179.6940  138.8590 C   0  0  0  0  0  3  0  0  0  0  0  0
  180.6400  180.6640  137.1910 C   0  0  0  0  0  2  0  0  0  0  0  0
  179.6430  181.0570  139.3550 C   0  0  0  0  0  2  0  0  0  0  0  0
  1 18  1  0  0  0  0
  2 27  1  0  0  0  0
  3  7  1  0  0  0  0
  4 15  1  0  0  0  0
  5 19  1  0  0  0  0
  6  7  1  0  0  0  0
  8 16  1  0  0  0  0
  9 13  2  0  0  0  0
 10 22  1  0  0  0  0
 11  5  1  0  0  0  0
 12  8  1  0  0  0  0
 13 20  1  0  0  0  0
 13 24  1  0  0  0  0
 14  2  1  0  0  0  0
 15 12  1  0  0  0  0
 15  5  2  0  0  0  0
 16  3  1  0  0  0  0
 17 28  1  6  0  0  0
 17 10  1  0  0  0  0
 18  4  2  0  0  0  0
 18 20  1  0  0  0  0
 19  6  1  0  0  0  0
 20 11  2  0  0  0  0
 21 23  2  0  0  0  0
 22 24  1  0  0  0  0
 23  4  1  0  0  0  0
 25 14  1  6  0  0  0
 25 17  1  0  0  0  0
 25  9  1  0  0  0  0
 26 21  1  0  0  0  0
 26  1  1  0  0  0  0
 27  1  2  0  0  0  0
 27  9  1  0  0  0  0
 28 29  1  0  0  0  0
 30 34  1  0  0  0  0
 31 32  1  0  0  0  0
 32 34  1  0  0  0  0
 32 29  1  0  0  0  0
 33 31  1  0  0  0  0
 33 30  1  0  0  0  0
M  END
>  <MODEL>
2

>  <REMARK>
 VINA RESULT:     -10.2      1.728      3.700
  Name = 
  3 active torsions:
  status: ('A' for Active; 'I' for Inactive)
    1  A    between atoms: C_17  and  C_28
    2  A    between atoms: C_28  and  N_29
    3  A    between atoms: N_29  and  C_32
                            x       y       z     vdW  Elec       q    Type
                         _______ _______ _______ _____ _____    ______ ____

>  <TORSDO>
F 3

$$$$
=
 OpenBabel11122412143D

 34 40  0  0  1  0  0  0  0  0999 V2000
  186.4360  178.5960  140.4080 C   0  0  0  0  0  0  0  0  0  0  0  0
  184.3600  179.3430  139.0990 C   0  0  0  0  0  2  0  0  0  0  0  0
  191.6790  177.3200  145.5510 N   0  0  0  0  0  2  0  0  0  0  0  0
  188.3120  177.8580  141.7460 C   0  0  0  0  0  0  0  0  0  0  0  0
  187.9790  177.4250  144.1150 C   0  0  0  0  0  0  0  0  0  0  0  0
  189.3860  177.9200  146.1240 C   0  0  0  0  0  2  0  0  0  0  0  0
  190.6400  177.1780  146.5620 C   0  0  0  0  0  2  0  0  0  0  0  0
  190.6320  175.8890  143.8100 C   0  0  0  0  0  2  0  0  0  0  0  0
  184.2730  178.9150  141.4330 C   0  0  0  0  0  0  0  0  0  0  0  0
  181.5350  178.9180  143.1700 C   0  0  0  0  0  2  0  0  0  0  0  0
  186.6690  177.7720  143.9810 N   0  0  0  0  0  0  0  0  0  0  0  0
  190.3190  177.1880  143.0810 C   0  0  0  0  0  2  0  0  0  0  0  0
  184.7720  178.5260  142.6990 C   0  0  0  0  0  0  0  0  0  0  0  0
  182.8980  179.3840  139.5480 C   0  0  0  0  0  2  0  0  0  0  0  0
  188.8400  177.4560  142.9850 C   0  0  0  0  0  0  0  0  0  0  0  0
  191.7950  176.0760  144.7880 C   0  0  0  0  0  2  0  0  0  0  0  0
  181.8240  178.4950  141.7210 C   0  0  2  0  0  3  0  0  0  0  0  0
  186.9580  178.2110  141.6510 C   0  0  0  0  0  0  0  0  0  0  0  0
  188.4310  176.9430  145.4600 C   0  0  0  0  0  2  0  0  0  0  0  0
  186.1350  178.1680  142.7950 C   0  0  0  0  0  0  0  0  0  0  0  0
  188.6770  178.2710  139.4110 C   0  0  0  0  0  3  0  0  0  0  0  0
  182.7590  179.3780  143.9630 C   0  0  0  0  0  2  0  0  0  0  0  0
  189.1450  177.9130  140.5720 N   0  0  0  0  0  0  0  0  0  0  0  0
  183.8790  178.3510  143.9010 C   0  0  0  0  0  2  0  0  0  0  0  0
  182.9000  179.3900  141.0880 C   0  0  1  0  0  3  0  0  0  0  0  0
  187.2960  178.6280  139.2640 N   0  0  0  0  0  2  0  0  0  0  0  0
  185.0870  178.9370  140.3230 C   0  0  0  0  0  0  0  0  0  0  0  0
  180.5150  178.5220  140.9420 C   0  0  0  0  0  2  0  0  0  0  0  0
  179.6640  179.5930  141.4360 N   0  0  0  0  0  2  0  0  0  0  0  0
  180.1740  181.6290  138.6840 C   0  0  0  0  0  2  0  0  0  0  0  0
  179.3550  179.4030  139.0310 C   0  0  0  0  0  2  0  0  0  0  0  0
  179.0190  180.1940  140.2800 C   0  0  0  0  0  3  0  0  0  0  0  0
  179.6120  180.4310  137.9540 C   0  0  0  0  0  2  0  0  0  0  0  0
  179.5540  181.6000  140.0670 C   0  0  0  0  0  2  0  0  0  0  0  0
  1 18  1  0  0  0  0
  2 14  1  0  0  0  0
  2 27  1  0  0  0  0
  3  7  1  0  0  0  0
  4 15  1  0  0  0  0
  5 19  1  0  0  0  0
  6  7  1  0  0  0  0
  8 16  1  0  0  0  0
  9 13  2  0  0  0  0
 10 22  1  0  0  0  0
 11  5  1  0  0  0  0
 12  8  1  0  0  0  0
 13 20  1  0  0  0  0
 13 24  1  0  0  0  0
 15 12  1  0  0  0  0
 15  5  2  0  0  0  0
 16  3  1  0  0  0  0
 17 28  1  6  0  0  0
 17 10  1  0  0  0  0
 18  4  2  0  0  0  0
 18 20  1  0  0  0  0
 19  6  1  0  0  0  0
 20 11  2  0  0  0  0
 21 23  2  0  0  0  0
 23  4  1  0  0  0  0
 24 22  1  0  0  0  0
 25 14  1  6  0  0  0
 25  9  1  0  0  0  0
 25 17  1  0  0  0  0
 26 21  1  0  0  0  0
 26  1  1  0  0  0  0
 27  1  2  0  0  0  0
 27  9  1  0  0  0  0
 28 29  1  0  0  0  0
 30 34  1  0  0  0  0
 31 32  1  0  0  0  0
 32 29  1  0  0  0  0
 33 30  1  0  0  0  0
 33 31  1  0  0  0  0
 34 32  1  0  0  0  0
M  END
>  <MODEL>
3

>  <REMARK>
 VINA RESULT:     -10.0      1.736      3.695
  Name = 
  3 active torsions:
  status: ('A' for Active; 'I' for Inactive)
    1  A    between atoms: C_17  and  C_28
    2  A    between atoms: C_28  and  N_29
    3  A    between atoms: N_29  and  C_32
                            x       y       z     vdW  Elec       q    Type
                         _______ _______ _______ _____ _____    ______ ____

>  <TORSDO>
F 3

$$$$
=
 OpenBabel11122412143D

 34 40  0  0  1  0  0  0  0  0999 V2000
  186.1440  178.5650  140.2540 C   0  0  0  0  0  0  0  0  0  0  0  0
  183.9950  179.2860  139.0510 C   0  0  0  0  0  2  0  0  0  0  0  0
  191.6670  177.3800  145.1170 N   0  0  0  0  0  2  0  0  0  0  0  0
  188.0940  177.8530  141.4970 C   0  0  0  0  0  0  0  0  0  0  0  0
  187.8940  177.4500  143.8860 C   0  0  0  0  0  0  0  0  0  0  0  0
  189.4060  177.9780  145.8070 C   0  0  0  0  0  2  0  0  0  0  0  0
  190.6860  177.2470  146.1860 C   0  0  0  0  0  2  0  0  0  0  0  0
  190.5340  175.9220  143.4550 C   0  0  0  0  0  2  0  0  0  0  0  0
  184.0390  178.8890  141.3930 C   0  0  0  0  0  0  0  0  0  0  0  0
  181.4000  178.9030  143.2770 C   0  0  0  0  0  2  0  0  0  0  0  0
  186.5770  177.7890  143.8200 N   0  0  0  0  0  0  0  0  0  0  0  0
  190.1740  177.2090  142.7270 C   0  0  0  0  0  2  0  0  0  0  0  0
  184.6080  178.5190  142.6340 C   0  0  0  0  0  0  0  0  0  0  0  0
  182.5600  179.3260  139.5800 C   0  0  0  0  0  2  0  0  0  0  0  0
  188.6910  177.4690  142.7090 C   0  0  0  0  0  0  0  0  0  0  0  0
  191.7480  176.1270  144.3650 C   0  0  0  0  0  2  0  0  0  0  0  0
  181.6110  178.4620  141.8210 C   0  0  2  0  0  3  0  0  0  0  0  0
  186.7350  178.1990  141.4710 C   0  0  0  0  0  0  0  0  0  0  0  0
  188.4220  176.9890  145.2090 C   0  0  0  0  0  2  0  0  0  0  0  0
  185.9760  178.1670  142.6600 C   0  0  0  0  0  0  0  0  0  0  0  0
  188.3270  178.2360  139.1400 C   0  0  0  0  0  3  0  0  0  0  0  0
  182.6630  179.3780  143.9960 C   0  0  0  0  0  2  0  0  0  0  0  0
  188.8600  177.8960  140.2780 N   0  0  0  0  0  0  0  0  0  0  0  0
  183.7840  178.3550  143.8860 C   0  0  0  0  0  2  0  0  0  0  0  0
  182.6460  179.3530  141.1170 C   0  0  1  0  0  3  0  0  0  0  0  0
  186.9380  178.5850  139.0640 N   0  0  0  0  0  2  0  0  0  0  0  0
  184.7900  178.8990  140.2390 C   0  0  0  0  0  0  0  0  0  0  0  0
  180.2610  178.4720  141.1150 C   0  0  0  0  0  2  0  0  0  0  0  0
  179.3970  177.4480  141.6780 N   0  0  0  0  0  2  0  0  0  0  0  0
  180.5280  175.6740  138.9310 C   0  0  0  0  0  2  0  0  0  0  0  0
  179.3010  175.1390  140.9190 C   0  0  0  0  0  2  0  0  0  0  0  0
  178.9860  176.5850  140.5840 C   0  0  0  0  0  3  0  0  0  0  0  0
  179.8410  174.5330  139.6460 C   0  0  0  0  0  2  0  0  0  0  0  0
  179.7780  176.9280  139.3340 C   0  0  0  0  0  2  0  0  0  0  0  0
  1 18  1  0  0  0  0
  2 14  1  0  0  0  0
  2 27  1  0  0  0  0
  3  7  1  0  0  0  0
  4 15  1  0  0  0  0
  5 19  1  0  0  0  0
  6  7  1  0  0  0  0
  8 16  1  0  0  0  0
  9 13  2  0  0  0  0
 10 22  1  0  0  0  0
 11  5  1  0  0  0  0
 12  8  1  0  0  0  0
 13 20  1  0  0  0  0
 13 24  1  0  0  0  0
 15 12  1  0  0  0  0
 15  5  2  0  0  0  0
 16  3  1  0  0  0  0
 17 28  1  6  0  0  0
 17 10  1  0  0  0  0
 18  4  2  0  0  0  0
 18 20  1  0  0  0  0
 19  6  1  0  0  0  0
 20 11  2  0  0  0  0
 21 23  2  0  0  0  0
 23  4  1  0  0  0  0
 24 22  1  0  0  0  0
 25 14  1  6  0  0  0
 25  9  1  0  0  0  0
 25 17  1  0  0  0  0
 26 21  1  0  0  0  0
 26  1  1  0  0  0  0
 27  1  2  0  0  0  0
 27  9  1  0  0  0  0
 28 29  1  0  0  0  0
 30 34  1  0  0  0  0
 30 33  1  0  0  0  0
 32 31  1  0  0  0  0
 32 29  1  0  0  0  0
 33 31  1  0  0  0  0
 34 32  1  0  0  0  0
M  END
>  <MODEL>
4

>  <REMARK>
 VINA RESULT:      -9.9      2.439      4.553
  Name = 
  3 active torsions:
  status: ('A' for Active; 'I' for Inactive)
    1  A    between atoms: C_17  and  C_28
    2  A    between atoms: C_28  and  N_29
    3  A    between atoms: N_29  and  C_32
                            x       y       z     vdW  Elec       q    Type
                         _______ _______ _______ _____ _____    ______ ____

>  <TORSDO>
F 3

$$$$
=
 OpenBabel11122412143D

 34 40  0  0  1  0  0  0  0  0999 V2000
  186.1220  178.5690  141.1800 C   0  0  0  0  0  0  0  0  0  0  0  0
  184.5670  178.9740  139.1790 C   0  0  0  0  0  2  0  0  0  0  0  0
  189.3950  178.3450  147.8730 N   0  0  0  0  0  2  0  0  0  0  0  0
  187.4770  178.1580  143.1420 C   0  0  0  0  0  0  0  0  0  0  0  0
  186.3930  177.9460  145.3080 C   0  0  0  0  0  0  0  0  0  0  0  0
  187.0140  178.7800  147.5830 C   0  0  0  0  0  2  0  0  0  0  0  0
  188.0870  178.2110  148.4990 C   0  0  0  0  0  2  0  0  0  0  0  0
  189.0740  176.6460  146.0890 C   0  0  0  0  0  2  0  0  0  0  0  0
  183.7260  178.7870  141.3920 C   0  0  0  0  0  0  0  0  0  0  0  0
  180.5670  178.7100  142.1230 C   0  0  0  0  0  2  0  0  0  0  0  0
  185.1870  178.1500  144.7090 N   0  0  0  0  0  0  0  0  0  0  0  0
  188.9530  177.8260  145.1340 C   0  0  0  0  0  2  0  0  0  0  0  0
  183.7910  178.5820  142.7910 C   0  0  0  0  0  0  0  0  0  0  0  0
  183.0400  178.9220  139.1180 C   0  0  0  0  0  2  0  0  0  0  0  0
  187.5800  177.9400  144.5260 C   0  0  0  0  0  0  0  0  0  0  0  0
  189.8290  177.0450  147.3590 C   0  0  0  0  0  2  0  0  0  0  0  0
  181.3490  178.1670  140.9170 C   0  0  2  0  0  3  0  0  0  0  0  0
  186.2170  178.3680  142.5640 C   0  0  0  0  0  0  0  0  0  0  0  0
  186.3930  177.6530  146.7770 C   0  0  0  0  0  2  0  0  0  0  0  0
  185.0600  178.3670  143.3730 C   0  0  0  0  0  0  0  0  0  0  0  0
  188.5810  178.3560  141.0210 C   0  0  0  0  0  3  0  0  0  0  0  0
  181.4270  179.3650  143.2050 C   0  0  0  0  0  2  0  0  0  0  0  0
  188.6510  178.1680  142.3070 N   0  0  0  0  0  0  0  0  0  0  0  0
  182.5580  178.4490  143.6470 C   0  0  0  0  0  2  0  0  0  0  0  0
  182.5240  179.0890  140.5580 C   0  0  1  0  0  3  0  0  0  0  0  0
  187.3120  178.5620  140.3860 N   0  0  0  0  0  2  0  0  0  0  0  0
  184.8620  178.7690  140.6160 C   0  0  0  0  0  0  0  0  0  0  0  0
  180.3780  177.9870  139.7570 C   0  0  0  0  0  2  0  0  0  0  0  0
  179.5840  176.7860  139.9550 N   0  0  0  0  0  2  0  0  0  0  0  0
  179.7540  173.5810  138.6600 C   0  0  0  0  0  2  0  0  0  0  0  0
  180.9380  175.6330  138.2950 C   0  0  0  0  0  2  0  0  0  0  0  0
  180.4630  175.6500  139.7360 C   0  0  0  0  0  3  0  0  0  0  0  0
  180.8890  174.1860  137.8670 C   0  0  0  0  0  2  0  0  0  0  0  0
  179.6980  174.3570  139.9610 C   0  0  0  0  0  2  0  0  0  0  0  0
  1 18  1  0  0  0  0
  2 27  1  0  0  0  0
  3  7  1  0  0  0  0
  4 15  1  0  0  0  0
  5 19  1  0  0  0  0
  6  7  1  0  0  0  0
  8 16  1  0  0  0  0
  9 13  2  0  0  0  0
 10 22  1  0  0  0  0
 11  5  1  0  0  0  0
 12  8  1  0  0  0  0
 13 20  1  0  0  0  0
 13 24  1  0  0  0  0
 14  2  1  0  0  0  0
 15 12  1  0  0  0  0
 15  5  2  0  0  0  0
 16  3  1  0  0  0  0
 17 28  1  6  0  0  0
 17 10  1  0  0  0  0
 18  4  2  0  0  0  0
 18 20  1  0  0  0  0
 19  6  1  0  0  0  0
 20 11  2  0  0  0  0
 21 23  2  0  0  0  0
 22 24  1  0  0  0  0
 23  4  1  0  0  0  0
 25 14  1  6  0  0  0
 25 17  1  0  0  0  0
 25  9  1  0  0  0  0
 26 21  1  0  0  0  0
 26  1  1  0  0  0  0
 27  1  2  0  0  0  0
 27  9  1  0  0  0  0
 28 29  1  0  0  0  0
 30 34  1  0  0  0  0
 31 32  1  0  0  0  0
 32 29  1  0  0  0  0
 32 34  1  0  0  0  0
 33 31  1  0  0  0  0
 33 30  1  0  0  0  0
M  END
>  <MODEL>
5

>  <REMARK>
 VINA RESULT:      -9.8      2.602      4.766
  Name = 
  3 active torsions:
  status: ('A' for Active; 'I' for Inactive)
    1  A    between atoms: C_17  and  C_28
    2  A    between atoms: C_28  and  N_29
    3  A    between atoms: N_29  and  C_32
                            x       y       z     vdW  Elec       q    Type
                         _______ _______ _______ _____ _____    ______ ____

>  <TORSDO>
F 3

$$$$
=
 OpenBabel11122412143D

 34 40  0  0  1  0  0  0  0  0999 V2000
  190.9800  177.4620  142.1250 C   0  0  0  0  0  0  0  0  0  0  0  0
  192.7850  177.1280  140.3320 C   0  0  0  0  0  2  0  0  0  0  0  0
  184.9310  179.3770  146.0360 N   0  0  0  0  0  2  0  0  0  0  0  0
  189.1830  177.7510  143.7190 C   0  0  0  0  0  0  0  0  0  0  0  0
  186.8970  177.9220  142.9100 C   0  0  0  0  0  0  0  0  0  0  0  0
  184.9790  179.3730  143.5990 C   0  0  0  0  0  2  0  0  0  0  0  0
  184.1150  179.2120  144.8400 C   0  0  0  0  0  2  0  0  0  0  0  0
  186.2210  177.2630  145.8420 C   0  0  0  0  0  2  0  0  0  0  0  0
  190.4930  177.3710  139.7610 C   0  0  0  0  0  0  0  0  0  0  0  0
  189.3330  177.0140  136.7540 C   0  0  0  0  0  2  0  0  0  0  0  0
  187.3530  177.7930  141.6340 N   0  0  0  0  0  0  0  0  0  0  0  0
  187.3920  178.1400  145.4220 C   0  0  0  0  0  2  0  0  0  0  0  0
  189.1070  177.5290  140.0000 C   0  0  0  0  0  0  0  0  0  0  0  0
  192.6210  176.8390  138.8390 C   0  0  0  0  0  2  0  0  0  0  0  0
  187.8130  177.8980  143.9960 C   0  0  0  0  0  0  0  0  0  0  0  0
  185.1920  178.0690  146.6380 C   0  0  0  0  0  2  0  0  0  0  0  0
  190.4810  176.3120  137.4950 C   0  0  2  0  0  3  0  0  0  0  0  0
  189.6130  177.6250  142.3910 C   0  0  0  0  0  0  0  0  0  0  0  0
  185.4150  178.0040  143.1080 C   0  0  0  0  0  2  0  0  0  0  0  0
  188.6730  177.6530  141.3390 C   0  0  0  0  0  0  0  0  0  0  0  0
  191.4250  177.5790  144.5550 C   0  0  0  0  0  3  0  0  0  0  0  0
  188.5570  178.0350  137.5880 C   0  0  0  0  0  2  0  0  0  0  0  0
  190.1530  177.7270  144.7840 N   0  0  0  0  0  0  0  0  0  0  0  0
  188.0800  177.4320  138.9010 C   0  0  0  0  0  2  0  0  0  0  0  0
  191.1990  177.2790  138.4480 C   0  0  1  0  0  3  0  0  0  0  0  0
  191.9090  177.4340  143.2120 N   0  0  0  0  0  0  0  0  0  0  0  0
  191.3950  177.3300  140.8000 C   0  0  1  0  0  3  0  0  0  0  0  0
  191.4230  175.7110  136.4600 C   0  0  0  0  0  2  0  0  0  0  0  0
  191.6570  174.3070  136.7550 N   0  0  0  0  0  2  0  0  0  0  0  0
  194.8120  175.5810  136.1240 C   0  0  0  0  0  2  0  0  0  0  0  0
  193.9340  173.7600  137.4120 C   0  0  0  0  0  2  0  0  0  0  0  0
  192.9800  173.9770  136.2530 C   0  0  0  0  0  3  0  0  0  0  0  0
  195.2270  174.4270  137.0070 C   0  0  0  0  0  2  0  0  0  0  0  0
  193.5280  175.1430  135.4470 C   0  0  0  0  0  2  0  0  0  0  0  0
  1 18  1  0  0  0  0
  1 26  2  0  0  0  0
  3 16  1  0  0  0  0
  4 15  2  0  0  0  0
  4 23  1  0  0  0  0
  5 19  1  0  0  0  0
  5 15  1  0  0  0  0
  6  7  1  0  0  0  0
  7  3  1  0  0  0  0
  8 16  1  0  0  0  0
  9 13  2  0  0  0  0
  9 27  1  0  0  0  0
 10 17  1  0  0  0  0
 10 22  1  0  0  0  0
 11  5  2  0  0  0  0
 12  8  1  0  0  0  0
 13 20  1  0  0  0  0
 14  2  1  0  0  0  0
 15 12  1  0  0  0  0
 17 28  1  6  0  0  0
 17 25  1  0  0  0  0
 18  4  1  0  0  0  0
 19  6  1  0  0  0  0
 20 11  1  0  0  0  0
 20 18  2  0  0  0  0
 21 23  2  0  0  0  0
 22 24  1  0  0  0  0
 24 13  1  0  0  0  0
 25 14  1  1  0  0  0
 25  9  1  0  0  0  0
 26 21  1  0  0  0  0
 27  2  1  1  0  0  0
 27  1  1  0  0  0  0
 28 29  1  0  0  0  0
 30 33  1  0  0  0  0
 32 29  1  0  0  0  0
 32 31  1  0  0  0  0
 33 31  1  0  0  0  0
 34 30  1  0  0  0  0
 34 32  1  0  0  0  0
M  END
>  <MODEL>
6

>  <REMARK>
 VINA RESULT:      -9.6      4.299      8.849
  Name = 
  3 active torsions:
  status: ('A' for Active; 'I' for Inactive)
    1  A    between atoms: C_17  and  C_28
    2  A    between atoms: C_28  and  N_29
    3  A    between atoms: N_29  and  C_32
                            x       y       z     vdW  Elec       q    Type
                         _______ _______ _______ _____ _____    ______ ____

>  <TORSDO>
F 3

$$$$
=
 OpenBabel11122412143D

 34 40  0  0  1  0  0  0  0  0999 V2000
  184.3470  178.3890  143.7550 C   0  0  0  0  0  0  0  0  0  0  0  0
  186.3860  177.7110  145.1570 C   0  0  0  0  0  2  0  0  0  0  0  0
  179.6550  181.2220  138.7040 N   0  0  0  0  0  2  0  0  0  0  0  0
  182.4970  179.0000  142.3200 C   0  0  0  0  0  0  0  0  0  0  0  0
  182.8870  179.2760  139.9370 C   0  0  0  0  0  0  0  0  0  0  0  0
  182.0410  180.9510  138.2820 C   0  0  0  0  0  2  0  0  0  0  0  0
  180.6510  180.9980  137.6650 C   0  0  0  0  0  2  0  0  0  0  0  0
  179.8230  178.9970  139.7970 C   0  0  0  0  0  2  0  0  0  0  0  0
  186.5520  178.0850  142.8180 C   0  0  0  0  0  0  0  0  0  0  0  0
  189.2290  177.5060  141.0820 C   0  0  0  0  0  2  0  0  0  0  0  0
  184.2010  178.9720  140.1300 N   0  0  0  0  0  0  0  0  0  0  0  0
  180.5550  179.7210  140.9180 C   0  0  0  0  0  2  0  0  0  0  0  0
  186.0840  178.3850  141.5170 C   0  0  0  0  0  0  0  0  0  0  0  0
  187.7770  177.2780  144.6910 C   0  0  0  0  0  2  0  0  0  0  0  0
  181.9930  179.2910  141.0410 C   0  0  0  0  0  0  0  0  0  0  0  0
  178.9560  179.9690  138.9920 C   0  0  0  0  0  2  0  0  0  0  0  0
  188.6310  176.7930  142.3040 C   0  0  2  0  0  3  0  0  0  0  0  0
  183.8570  178.6950  142.4780 C   0  0  2  0  0  3  0  0  0  0  0  0
  182.4320  179.5040  138.5280 C   0  0  0  0  0  2  0  0  0  0  0  0
  184.7140  178.6890  141.3570 C   0  0  0  0  0  0  0  0  0  0  0  0
  182.0730  178.7300  144.6660 C   0  0  0  0  0  3  0  0  0  0  0  0
  188.3970  178.6720  140.5470 C   0  0  0  0  0  2  0  0  0  0  0  0
  181.6340  179.0090  143.4730 N   0  0  0  0  0  0  0  0  0  0  0  0
  186.9560  178.2570  140.2940 C   0  0  0  0  0  2  0  0  0  0  0  0
  187.9510  177.7930  143.2510 C   0  0  1  0  0  3  0  0  0  0  0  0
  183.4530  178.4000  144.8730 N   0  0  0  0  0  0  0  0  0  0  0  0
  185.6990  178.0800  143.8990 C   0  0  0  0  0  0  0  0  0  0  0  0
  189.7410  176.0060  142.9900 C   0  0  0  0  0  2  0  0  0  0  0  0
  191.0320  176.3830  142.4400 N   0  0  0  0  0  2  0  0  0  0  0  0
  191.1290  177.8900  145.5540 C   0  0  0  0  0  2  0  0  0  0  0  0
  191.6810  175.7230  144.6890 C   0  0  0  0  0  2  0  0  0  0  0  0
  191.8960  176.7140  143.5610 C   0  0  0  0  0  3  0  0  0  0  0  0
  191.6820  176.5430  145.9580 C   0  0  0  0  0  2  0  0  0  0  0  0
  191.5280  178.0840  144.1050 C   0  0  0  0  0  2  0  0  0  0  0  0
  1 27  1  0  0  0  0
  1 26  2  0  0  0  0
  3 16  1  0  0  0  0
  4 18  1  0  0  0  0
  4 23  1  0  0  0  0
  5 11  2  0  0  0  0
  5 15  1  0  0  0  0
  6 19  1  0  0  0  0
  7  6  1  0  0  0  0
  7  3  1  0  0  0  0
  8 12  1  0  0  0  0
  9 25  1  0  0  0  0
  9 27  2  0  0  0  0
 10 17  1  0  0  0  0
 11 20  1  0  0  0  0
 12 15  1  0  0  0  0
 13  9  1  0  0  0  0
 14  2  1  0  0  0  0
 15  4  2  0  0  0  0
 16  8  1  0  0  0  0
 17 28  1  1  0  0  0
 17 25  1  0  0  0  0
 18 20  1  6  0  0  0
 18  1  1  0  0  0  0
 19  5  1  0  0  0  0
 20 13  2  0  0  0  0
 21 26  1  0  0  0  0
 22 10  1  0  0  0  0
 23 21  2  0  0  0  0
 24 22  1  0  0  0  0
 24 13  1  0  0  0  0
 25 14  1  1  0  0  0
 27  2  1  0  0  0  0
 29 28  1  0  0  0  0
 29 32  1  0  0  0  0
 30 33  1  0  0  0  0
 31 33  1  0  0  0  0
 32 34  1  0  0  0  0
 32 31  1  0  0  0  0
 34 30  1  0  0  0  0
M  END
>  <MODEL>
7

>  <REMARK>
 VINA RESULT:      -9.6      1.543      8.966
  Name = 
  3 active torsions:
  status: ('A' for Active; 'I' for Inactive)
    1  A    between atoms: C_17  and  C_28
    2  A    between atoms: C_28  and  N_29
    3  A    between atoms: N_29  and  C_32
                            x       y       z     vdW  Elec       q    Type
                         _______ _______ _______ _____ _____    ______ ____

>  <TORSDO>
F 3

$$$$
=
 OpenBabel11122412143D

 34 40  0  0  1  0  0  0  0  0999 V2000
  189.2790  177.8210  140.9010 C   0  0  0  0  0  0  0  0  0  0  0  0
  189.3410  177.9160  138.3380 C   0  0  0  0  0  2  0  0  0  0  0  0
  187.7480  178.7070  148.1420 N   0  0  0  0  0  2  0  0  0  0  0  0
  189.0840  177.7220  143.3110 C   0  0  0  0  0  0  0  0  0  0  0  0
  186.8940  177.9800  144.3340 C   0  0  0  0  0  0  0  0  0  0  0  0
  186.1340  179.1990  146.3820 C   0  0  0  0  0  2  0  0  0  0  0  0
  186.3260  178.7610  147.8260 C   0  0  0  0  0  2  0  0  0  0  0  0
  188.3090  176.7190  146.7620 C   0  0  0  0  0  2  0  0  0  0  0  0
  187.3150  178.1960  139.5460 C   0  0  0  0  0  0  0  0  0  0  0  0
  184.3960  178.4190  138.1510 C   0  0  0  0  0  2  0  0  0  0  0  0
  186.3480  178.1280  143.0960 N   0  0  0  0  0  0  0  0  0  0  0  0
  188.9780  177.7000  145.8100 C   0  0  0  0  0  2  0  0  0  0  0  0
  186.4870  178.2570  140.6920 C   0  0  0  0  0  0  0  0  0  0  0  0
  188.1780  177.9310  137.3440 C   0  0  0  0  0  2  0  0  0  0  0  0
  188.2930  177.7660  144.4710 C   0  0  0  0  0  0  0  0  0  0  0  0
  188.1930  177.3130  148.1680 C   0  0  0  0  0  2  0  0  0  0  0  0
  185.6510  177.6180  137.7700 C   0  0  2  0  0  3  0  0  0  0  0  0
  188.4840  177.8820  142.0540 C   0  0  0  0  0  0  0  0  0  0  0  0
  185.9600  177.9720  145.5050 C   0  0  0  0  0  2  0  0  0  0  0  0
  187.0920  178.0930  141.9580 C   0  0  0  0  0  0  0  0  0  0  0  0
  191.2600  177.4580  142.3360 C   0  0  0  0  0  3  0  0  0  0  0  0
  184.5150  179.2240  139.4470 C   0  0  0  0  0  2  0  0  0  0  0  0
  190.5070  177.5140  143.3960 N   0  0  0  0  0  0  0  0  0  0  0  0
  184.9860  178.3520  140.6010 C   0  0  0  0  0  2  0  0  0  0  0  0
  186.9300  178.3950  138.1170 C   0  0  1  0  0  3  0  0  0  0  0  0
  190.6880  177.6030  141.0300 N   0  0  0  0  0  0  0  0  0  0  0  0
  188.6700  177.9740  139.6560 C   0  0  1  0  0  3  0  0  0  0  0  0
  185.5660  177.2710  136.2890 C   0  0  0  0  0  2  0  0  0  0  0  0
  184.9580  175.9610  136.1200 N   0  0  0  0  0  2  0  0  0  0  0  0
  184.7430  172.8070  137.5280 C   0  0  0  0  0  2  0  0  0  0  0  0
  186.5280  174.2320  136.7980 C   0  0  0  0  0  2  0  0  0  0  0  0
  185.3930  175.1380  137.2360 C   0  0  0  0  0  3  0  0  0  0  0  0
  186.2490  172.8920  137.4380 C   0  0  0  0  0  2  0  0  0  0  0  0
  184.2560  174.2340  137.6810 C   0  0  0  0  0  2  0  0  0  0  0  0
  1 26  2  0  0  0  0
  1 18  1  0  0  0  0
  3 16  1  0  0  0  0
  4 23  1  0  0  0  0
  4 15  2  0  0  0  0
  5 15  1  0  0  0  0
  5 19  1  0  0  0  0
  6  7  1  0  0  0  0
  7  3  1  0  0  0  0
  8 16  1  0  0  0  0
  9 27  1  0  0  0  0
  9 13  2  0  0  0  0
 10 22  1  0  0  0  0
 11  5  2  0  0  0  0
 12  8  1  0  0  0  0
 13 20  1  0  0  0  0
 14  2  1  0  0  0  0
 15 12  1  0  0  0  0
 17 28  1  6  0  0  0
 17 25  1  0  0  0  0
 17 10  1  0  0  0  0
 18  4  1  0  0  0  0
 19  6  1  0  0  0  0
 20 18  2  0  0  0  0
 20 11  1  0  0  0  0
 21 23  2  0  0  0  0
 22 24  1  0  0  0  0
 24 13  1  0  0  0  0
 25 14  1  6  0  0  0
 25  9  1  0  0  0  0
 26 21  1  0  0  0  0
 27  2  1  6  0  0  0
 27  1  1  0  0  0  0
 29 28  1  0  0  0  0
 29 32  1  0  0  0  0
 30 34  1  0  0  0  0
 31 32  1  0  0  0  0
 31 33  1  0  0  0  0
 32 34  1  0  0  0  0
 33 30  1  0  0  0  0
M  END
>  <MODEL>
8

>  <REMARK>
 VINA RESULT:      -9.3      3.219      6.073
  Name = 
  3 active torsions:
  status: ('A' for Active; 'I' for Inactive)
    1  A    between atoms: C_17  and  C_28
    2  A    between atoms: C_28  and  N_29
    3  A    between atoms: N_29  and  C_32
                            x       y       z     vdW  Elec       q    Type
                         _______ _______ _______ _____ _____    ______ ____

>  <TORSDO>
F 3

$$$$
=
 OpenBabel11122412143D

 34 40  0  0  1  0  0  0  0  0999 V2000
  187.8450  177.9820  141.5450 C   0  0  0  0  0  0  0  0  0  0  0  0
  186.0690  178.6520  139.8180 C   0  0  0  0  0  2  0  0  0  0  0  0
  192.0630  177.1280  147.6310 N   0  0  0  0  0  2  0  0  0  0  0  0
  189.4180  177.3340  143.2650 C   0  0  0  0  0  0  0  0  0  0  0  0
  188.6690  177.2220  145.5750 C   0  0  0  0  0  0  0  0  0  0  0  0
  189.7520  177.9030  147.7250 C   0  0  0  0  0  2  0  0  0  0  0  0
  190.8630  177.1650  148.4570 C   0  0  0  0  0  2  0  0  0  0  0  0
  191.2250  175.5380  145.9160 C   0  0  0  0  0  2  0  0  0  0  0  0
  185.5680  178.5300  142.1360 C   0  0  0  0  0  0  0  0  0  0  0  0
  182.5860  178.8810  143.3600 C   0  0  0  0  0  2  0  0  0  0  0  0
  187.4250  177.6100  145.1770 N   0  0  0  0  0  0  0  0  0  0  0  0
  191.1260  176.7460  144.9960 C   0  0  0  0  0  2  0  0  0  0  0  0
  185.8220  178.2830  143.5060 C   0  0  0  0  0  0  0  0  0  0  0  0
  184.5600  178.8180  140.0000 C   0  0  0  0  0  2  0  0  0  0  0  0
  189.7050  177.0680  144.6150 C   0  0  0  0  0  0  0  0  0  0  0  0
  192.2200  175.7940  147.0510 C   0  0  0  0  0  2  0  0  0  0  0  0
  183.0820  178.2640  142.0440 C   0  0  2  0  0  3  0  0  0  0  0  0
  188.1260  177.7350  142.8960 C   0  0  0  0  0  0  0  0  0  0  0  0
  188.8580  176.8950  147.0250 C   0  0  0  0  0  2  0  0  0  0  0  0
  187.1230  177.8760  143.8780 C   0  0  0  0  0  0  0  0  0  0  0  0
  190.1920  177.4280  140.9970 C   0  0  0  0  0  3  0  0  0  0  0  0
  183.6900  179.3810  144.2940 C   0  0  0  0  0  2  0  0  0  0  0  0
  190.4360  177.2000  142.2540 N   0  0  0  0  0  0  0  0  0  0  0  0
  184.7330  178.3030  144.5480 C   0  0  0  0  0  2  0  0  0  0  0  0
  184.3070  179.0200  141.5050 C   0  0  1  0  0  3  0  0  0  0  0  0
  188.8820  177.8270  140.5710 N   0  0  0  0  0  2  0  0  0  0  0  0
  186.5540  178.3720  141.1890 C   0  0  0  0  0  0  0  0  0  0  0  0
  181.9250  178.2530  141.0530 C   0  0  0  0  0  2  0  0  0  0  0  0
  181.1210  179.4530  141.2130 N   0  0  0  0  0  2  0  0  0  0  0  0
  181.5490  179.9360  137.8120 C   0  0  0  0  0  2  0  0  0  0  0  0
  180.3470  178.3730  139.1760 C   0  0  0  0  0  2  0  0  0  0  0  0
  180.4210  179.6710  139.9570 C   0  0  0  0  0  3  0  0  0  0  0  0
  180.6200  178.7460  137.7380 C   0  0  0  0  0  2  0  0  0  0  0  0
  181.1990  180.6550  139.1000 C   0  0  0  0  0  2  0  0  0  0  0  0
  1 18  1  0  0  0  0
  2 14  1  0  0  0  0
  2 27  1  0  0  0  0
  3  7  1  0  0  0  0
  4 15  1  0  0  0  0
  5 19  1  0  0  0  0
  6  7  1  0  0  0  0
  8 16  1  0  0  0  0
  9 13  2  0  0  0  0
 10 22  1  0  0  0  0
 11  5  1  0  0  0  0
 12  8  1  0  0  0  0
 13 20  1  0  0  0  0
 13 24  1  0  0  0  0
 15 12  1  0  0  0  0
 15  5  2  0  0  0  0
 16  3  1  0  0  0  0
 17 28  1  6  0  0  0
 17 10  1  0  0  0  0
 18  4  2  0  0  0  0
 18 20  1  0  0  0  0
 19  6  1  0  0  0  0
 20 11  2  0  0  0  0
 21 23  2  0  0  0  0
 22 24  1  0  0  0  0
 23  4  1  0  0  0  0
 25 14  1  6  0  0  0
 25 17  1  0  0  0  0
 25  9  1  0  0  0  0
 26 21  1  0  0  0  0
 26  1  1  0  0  0  0
 27  1  2  0  0  0  0
 27  9  1  0  0  0  0
 28 29  1  0  0  0  0
 30 34  1  0  0  0  0
 31 32  1  0  0  0  0
 32 29  1  0  0  0  0
 33 30  1  0  0  0  0
 33 31  1  0  0  0  0
 34 32  1  0  0  0  0
M  END
>  <MODEL>
9

>  <REMARK>
 VINA RESULT:      -9.3      1.857      4.103
  Name = 
  3 active torsions:
  status: ('A' for Active; 'I' for Inactive)
    1  A    between atoms: C_17  and  C_28
    2  A    between atoms: C_28  and  N_29
    3  A    between atoms: N_29  and  C_32
                            x       y       z     vdW  Elec       q    Type
                         _______ _______ _______ _____ _____    ______ ____

>  <TORSDO>
F 3

$$$$
