=
 OpenBabel11122410273D

 30 35  0  0  1  0  0  0  0  0999 V2000
  185.7440  178.4260  142.4910 C   0  0  0  0  0  0  0  0  0  0  0  0
  186.6200  178.2640  144.8710 C   0  0  0  0  0  0  0  0  0  0  0  0
  181.8400  178.7650  143.8850 O   0  0  0  0  0  0  0  0  0  0  0  0
  184.6160  178.5440  141.6170 C   0  0  0  0  0  0  0  0  0  0  0  0
  187.0160  178.3550  141.9130 C   0  0  0  0  0  3  0  0  0  0  0  0
  186.2980  178.5120  138.3040 O   0  0  0  0  0  1  0  0  0  0  0  0
  182.5950  177.5330  139.4820 C   0  0  1  0  0  3  0  0  0  0  0  0
  186.1040  178.4870  139.6820 C   0  0  0  0  0  0  0  0  0  0  0  0
  181.6830  177.7140  140.6350 N   0  0  2  0  0  0  0  0  0  0  0  0
  181.0370  178.9080  142.7190 C   0  0  1  0  0  3  0  0  0  0  0  0
  187.2050  178.3840  140.5360 C   0  0  0  0  0  0  0  0  0  0  0  0
  184.8040  178.5580  140.2110 C   0  0  0  0  0  0  0  0  0  0  0  0
  186.3340  178.2460  146.2390 C   0  0  0  0  0  3  0  0  0  0  0  0
  180.3670  177.9510  140.0480 C   0  0  0  0  0  2  0  0  0  0  0  0
  181.7620  177.3190  138.2320 C   0  0  0  0  0  2  0  0  0  0  0  0
  188.3330  178.1160  144.4830 Cl  0  0  0  0  0  0  0  0  0  0  0  0
  183.1660  178.6180  143.5420 C   0  0  0  0  0  0  0  0  0  0  0  0
  185.0290  178.3510  146.7040 C   0  0  0  0  0  3  0  0  0  0  0  0
  185.5600  178.3900  143.9180 C   0  0  0  0  0  0  0  0  0  0  0  0
  183.3400  178.6340  142.1920 C   0  0  0  0  0  0  0  0  0  0  0  0
  180.3460  180.2560  142.7400 C   0  0  0  0  0  1  0  0  0  0  0  0
  182.0160  178.8410  141.5210 C   0  0  1  0  0  3  0  0  0  0  0  0
  180.3390  177.2500  138.7130 C   0  0  0  0  0  2  0  0  0  0  0  0
  183.1150  180.0340  139.0430 C   0  0  0  0  0  1  0  0  0  0  0  0
  183.9800  178.4730  145.8010 C   0  0  0  0  0  3  0  0  0  0  0  0
  184.2310  178.4900  144.4270 C   0  0  0  0  0  0  0  0  0  0  0  0
  183.6570  178.6220  139.2390 C   0  0  2  0  0  3  0  0  0  0  0  0
  188.5940  178.3240  139.9930 C   0  0  0  0  0  2  0  0  0  0  0  0
  190.7440  177.1110  140.1660 C   0  0  0  0  0  1  0  0  0  0  0  0
  189.4730  177.4830  140.9000 C   0  0  0  0  0  2  0  0  0  0  0  0
  1 19  1  0  0  0  0
  2 13  1  0  0  0  0
  4 20  1  0  0  0  0
  4  1  2  0  0  0  0
  5  1  1  0  0  0  0
  6  8  1  0  0  0  0
  7 15  1  6  0  0  0
  7  9  1  0  0  0  0
  8 12  2  0  0  0  0
  8 11  1  0  0  0  0
  9 14  1  6  0  0  0
  9 22  1  0  0  0  0
 10 21  1  1  0  0  0
 10  3  1  0  0  0  0
 11  5  2  0  0  0  0
 12  4  1  0  0  0  0
 13 18  2  0  0  0  0
 15 23  1  0  0  0  0
 16  2  1  0  0  0  0
 17  3  1  0  0  0  0
 17 26  1  0  0  0  0
 19 26  1  0  0  0  0
 19  2  2  0  0  0  0
 20 17  2  0  0  0  0
 22 20  1  1  0  0  0
 22 10  1  0  0  0  0
 23 14  1  0  0  0  0
 25 18  1  0  0  0  0
 26 25  2  0  0  0  0
 27 24  1  1  0  0  0
 27  7  1  0  0  0  0
 27 12  1  0  0  0  0
 28 11  1  0  0  0  0
 28 30  1  0  0  0  0
 29 30  1  0  0  0  0
M  END
>  <MODEL>
1

>  <REMARK>
 VINA RESULT:      -9.4      0.000      0.000
  Name = 
  2 active torsions:
  status: ('A' for Active; 'I' for Inactive)
    1  A    between atoms: C_11  and  C_28
    2  A    between atoms: C_28  and  C_30
                            x       y       z     vdW  Elec       q    Type
                         _______ _______ _______ _____ _____    ______ ____

>  <TORSDO>
F 2

$$$$
=
 OpenBabel11122410273D

 30 35  0  0  1  0  0  0  0  0999 V2000
  189.0850  177.3690  143.6660 C   0  0  0  0  0  0  0  0  0  0  0  0
  191.0900  176.3280  144.8290 C   0  0  0  0  0  0  0  0  0  0  0  0
  187.2560  178.0920  147.3310 O   0  0  0  0  0  0  0  0  0  0  0  0
  187.7930  177.9750  143.7820 C   0  0  0  0  0  0  0  0  0  0  0  0
  189.6200  177.2070  142.3840 C   0  0  0  0  0  3  0  0  0  0  0  0
  186.9830  178.5740  140.2040 O   0  0  0  0  0  1  0  0  0  0  0  0
  184.7020  178.0910  143.4640 C   0  0  1  0  0  3  0  0  0  0  0  0
  187.6680  178.1830  141.3530 C   0  0  0  0  0  0  0  0  0  0  0  0
  184.8100  178.1100  144.9410 N   0  0  2  0  0  0  0  0  0  0  0  0
  186.0290  178.7400  147.0160 C   0  0  1  0  0  3  0  0  0  0  0  0
  188.9340  177.6030  141.2410 C   0  0  0  0  0  0  0  0  0  0  0  0
  187.0830  178.3660  142.6170 C   0  0  0  0  0  0  0  0  0  0  0  0
  191.7050  175.9670  146.0310 C   0  0  0  0  0  3  0  0  0  0  0  0
  183.5990  178.7810  145.4050 C   0  0  0  0  0  2  0  0  0  0  0  0
  183.2760  178.4370  143.0760 C   0  0  0  0  0  2  0  0  0  0  0  0
  192.0280  175.9460  143.3870 Cl  0  0  0  0  0  0  0  0  0  0  0  0
  187.9450  177.7780  146.1800 C   0  0  0  0  0  0  0  0  0  0  0  0
  191.0900  176.2000  147.2550 C   0  0  0  0  0  3  0  0  0  0  0  0
  189.8010  176.9510  144.8420 C   0  0  0  0  0  0  0  0  0  0  0  0
  187.2590  178.1560  145.0660 C   0  0  0  0  0  0  0  0  0  0  0  0
  186.0230  180.1350  147.6070 C   0  0  0  0  0  1  0  0  0  0  0  0
  185.9810  178.8270  145.4710 C   0  0  1  0  0  3  0  0  0  0  0  0
  182.5260  178.5300  144.3760 C   0  0  0  0  0  2  0  0  0  0  0  0
  185.6920  180.4420  143.0040 C   0  0  0  0  0  1  0  0  0  0  0  0
  189.8380  176.8020  147.2960 C   0  0  0  0  0  3  0  0  0  0  0  0
  189.1940  177.1730  146.1140 C   0  0  0  0  0  0  0  0  0  0  0  0
  185.6990  178.9540  142.6680 C   0  0  2  0  0  3  0  0  0  0  0  0
  189.5780  177.4160  139.9080 C   0  0  0  0  0  2  0  0  0  0  0  0
  191.6120  176.5900  138.7650 C   0  0  0  0  0  1  0  0  0  0  0  0
  191.0490  177.0870  140.0800 C   0  0  0  0  0  2  0  0  0  0  0  0
  1  4  1  0  0  0  0
  1 19  1  0  0  0  0
  2 19  2  0  0  0  0
  2 13  1  0  0  0  0
  4 20  1  0  0  0  0
  5  1  2  0  0  0  0
  6  8  1  0  0  0  0
  7 15  1  1  0  0  0
  7  9  1  0  0  0  0
  8 12  1  0  0  0  0
  9 14  1  1  0  0  0
  9 22  1  0  0  0  0
 10  3  1  0  0  0  0
 10 21  1  1  0  0  0
 11  8  2  0  0  0  0
 11  5  1  0  0  0  0
 12 27  1  0  0  0  0
 12  4  2  0  0  0  0
 13 18  2  0  0  0  0
 15 23  1  0  0  0  0
 16  2  1  0  0  0  0
 17  3  1  0  0  0  0
 18 25  1  0  0  0  0
 19 26  1  0  0  0  0
 20 17  2  0  0  0  0
 22 20  1  6  0  0  0
 22 10  1  0  0  0  0
 23 14  1  0  0  0  0
 26 17  1  0  0  0  0
 26 25  2  0  0  0  0
 27 24  1  1  0  0  0
 27  7  1  0  0  0  0
 28 30  1  0  0  0  0
 28 11  1  0  0  0  0
 29 30  1  0  0  0  0
M  END
>  <MODEL>
2

>  <REMARK>
 VINA RESULT:      -8.8      2.938      4.823
  Name = 
  2 active torsions:
  status: ('A' for Active; 'I' for Inactive)
    1  A    between atoms: C_11  and  C_28
    2  A    between atoms: C_28  and  C_30
                            x       y       z     vdW  Elec       q    Type
                         _______ _______ _______ _____ _____    ______ ____

>  <TORSDO>
F 2

$$$$
=
 OpenBabel11122410273D

 30 35  0  0  1  0  0  0  0  0999 V2000
  187.7570  177.9370  142.6280 C   0  0  0  0  0  0  0  0  0  0  0  0
  186.5950  178.0840  144.8830 C   0  0  0  0  0  0  0  0  0  0  0  0
  184.2020  178.8360  140.6660 O   0  0  0  0  0  0  0  0  0  0  0  0
  187.6560  178.0110  141.2020 C   0  0  0  0  0  0  0  0  0  0  0  0
  189.0120  177.6630  143.1820 C   0  0  0  0  0  3  0  0  0  0  0  0
  191.1690  177.3000  140.2180 O   0  0  0  0  0  1  0  0  0  0  0  0
  187.6690  176.8510  138.3170 C   0  0  1  0  0  3  0  0  0  0  0  0
  190.0380  177.5140  141.0020 C   0  0  0  0  0  0  0  0  0  0  0  0
  186.2580  177.2950  138.4100 N   0  0  2  0  0  0  0  0  0  0  0  0
  184.5340  178.8600  139.2820 C   0  0  1  0  0  3  0  0  0  0  0  0
  190.1390  177.4540  142.3940 C   0  0  0  0  0  0  0  0  0  0  0  0
  188.8010  177.7830  140.3940 C   0  0  0  0  0  0  0  0  0  0  0  0
  185.4120  178.3120  145.5910 C   0  0  0  0  0  3  0  0  0  0  0  0
  185.8460  177.5480  137.0330 C   0  0  0  0  0  2  0  0  0  0  0  0
  187.9780  176.5130  136.8700 C   0  0  0  0  0  2  0  0  0  0  0  0
  187.9930  177.7260  145.8940 Cl  0  0  0  0  0  0  0  0  0  0  0  0
  185.3100  178.5210  141.4210 C   0  0  0  0  0  0  0  0  0  0  0  0
  184.2220  178.6030  144.9350 C   0  0  0  0  0  3  0  0  0  0  0  0
  186.5970  178.1470  143.4520 C   0  0  0  0  0  0  0  0  0  0  0  0
  186.4040  178.3040  140.6410 C   0  0  0  0  0  0  0  0  0  0  0  0
  184.2960  180.2490  138.7250 C   0  0  0  0  0  1  0  0  0  0  0  0
  186.0410  178.5160  139.2020 C   0  0  1  0  0  3  0  0  0  0  0  0
  186.6660  176.6470  136.1460 C   0  0  0  0  0  2  0  0  0  0  0  0
  188.7780  179.1930  138.2950 C   0  0  0  0  0  1  0  0  0  0  0  0
  184.1960  178.6700  143.5480 C   0  0  0  0  0  3  0  0  0  0  0  0
  185.3590  178.4440  142.8090 C   0  0  0  0  0  0  0  0  0  0  0  0
  188.7470  177.7900  138.8900 C   0  0  2  0  0  3  0  0  0  0  0  0
  191.4480  177.1860  143.0580 C   0  0  0  0  0  2  0  0  0  0  0  0
  191.6010  176.6560  145.4710 C   0  0  0  0  0  1  0  0  0  0  0  0
  191.4540  177.7720  144.4580 C   0  0  0  0  0  2  0  0  0  0  0  0
  1  5  1  0  0  0  0
  1 19  1  0  0  0  0
  2 13  1  0  0  0  0
  2 16  1  0  0  0  0
  3 17  1  0  0  0  0
  4  1  2  0  0  0  0
  6  8  1  0  0  0  0
  7 15  1  6  0  0  0
  7  9  1  0  0  0  0
  7 27  1  0  0  0  0
  8 11  1  0  0  0  0
  9 14  1  6  0  0  0
  9 22  1  0  0  0  0
 10 21  1  1  0  0  0
 10  3  1  0  0  0  0
 11 28  1  0  0  0  0
 11  5  2  0  0  0  0
 12  8  2  0  0  0  0
 12  4  1  0  0  0  0
 17 26  1  0  0  0  0
 18 13  2  0  0  0  0
 19  2  2  0  0  0  0
 20  4  1  0  0  0  0
 20 17  2  0  0  0  0
 22 10  1  0  0  0  0
 22 20  1  1  0  0  0
 23 15  1  0  0  0  0
 23 14  1  0  0  0  0
 25 18  1  0  0  0  0
 26 19  1  0  0  0  0
 26 25  2  0  0  0  0
 27 24  1  1  0  0  0
 27 12  1  0  0  0  0
 28 30  1  0  0  0  0
 30 29  1  0  0  0  0
M  END
>  <MODEL>
3

>  <REMARK>
 VINA RESULT:      -8.5      2.490      4.221
  Name = 
  2 active torsions:
  status: ('A' for Active; 'I' for Inactive)
    1  A    between atoms: C_11  and  C_28
    2  A    between atoms: C_28  and  C_30
                            x       y       z     vdW  Elec       q    Type
                         _______ _______ _______ _____ _____    ______ ____

>  <TORSDO>
F 2

$$$$
=
 OpenBabel11122410273D

 30 35  0  0  1  0  0  0  0  0999 V2000
  186.0850  178.3980  142.9990 C   0  0  0  0  0  0  0  0  0  0  0  0
  185.7100  178.5020  140.4880 C   0  0  0  0  0  0  0  0  0  0  0  0
  190.1830  177.9730  142.4330 O   0  0  0  0  0  0  0  0  0  0  0  0
  187.0060  178.2510  144.0850 C   0  0  0  0  0  0  0  0  0  0  0  0
  184.7310  178.5710  143.3080 C   0  0  0  0  0  3  0  0  0  0  0  0
  184.6960  178.4520  146.9890 O   0  0  0  0  0  1  0  0  0  0  0  0
  188.3010  176.7720  146.4950 C   0  0  1  0  0  3  0  0  0  0  0  0
  185.1660  178.4350  145.6790 C   0  0  0  0  0  0  0  0  0  0  0  0
  189.4510  176.8010  145.5610 N   0  0  2  0  0  0  0  0  0  0  0  0
  190.7370  177.9070  143.7420 C   0  0  1  0  0  3  0  0  0  0  0  0
  184.2680  178.5910  144.6190 C   0  0  0  0  0  0  0  0  0  0  0  0
  186.5350  178.2550  145.4240 C   0  0  0  0  0  0  0  0  0  0  0  0
  186.2670  178.4730  139.2060 C   0  0  0  0  0  3  0  0  0  0  0  0
  190.6360  176.7410  146.4130 C   0  0  0  0  0  2  0  0  0  0  0  0
  188.7970  176.3480  147.8650 C   0  0  0  0  0  2  0  0  0  0  0  0
  183.9590  178.6970  140.5180 Cl  0  0  0  0  0  0  0  0  0  0  0  0
  188.8120  178.0910  142.4950 C   0  0  0  0  0  0  0  0  0  0  0  0
  187.6350  178.3220  139.0170 C   0  0  0  0  0  3  0  0  0  0  0  0
  186.5520  178.3740  141.6390 C   0  0  0  0  0  0  0  0  0  0  0  0
  188.3670  178.0950  143.7820 C   0  0  0  0  0  0  0  0  0  0  0  0
  191.6660  179.0840  143.9610 C   0  0  0  0  0  1  0  0  0  0  0  0
  189.5360  178.0020  144.7150 C   0  0  1  0  0  3  0  0  0  0  0  0
  190.2480  176.0040  147.6690 C   0  0  0  0  0  2  0  0  0  0  0  0
  188.1970  179.3100  147.0110 C   0  0  0  0  0  1  0  0  0  0  0  0
  188.4750  178.1940  140.1160 C   0  0  0  0  0  3  0  0  0  0  0  0
  187.9510  178.2150  141.4110 C   0  0  0  0  0  0  0  0  0  0  0  0
  187.4440  178.0470  146.6050 C   0  0  2  0  0  3  0  0  0  0  0  0
  182.8120  178.8000  144.8700 C   0  0  0  0  0  2  0  0  0  0  0  0
  180.6180  178.6270  143.7380 C   0  0  0  0  0  1  0  0  0  0  0  0
  182.0770  178.9890  143.5570 C   0  0  0  0  0  2  0  0  0  0  0  0
  1  5  2  0  0  0  0
  1  4  1  0  0  0  0
  2 16  1  0  0  0  0
  2 19  1  0  0  0  0
  3 17  1  0  0  0  0
  3 10  1  0  0  0  0
  4 12  2  0  0  0  0
  5 11  1  0  0  0  0
  7 27  1  0  0  0  0
  7 15  1  1  0  0  0
  8  6  1  0  0  0  0
  9 14  1  1  0  0  0
  9  7  1  0  0  0  0
 10 21  1  1  0  0  0
 10 22  1  0  0  0  0
 11 28  1  0  0  0  0
 11  8  2  0  0  0  0
 12  8  1  0  0  0  0
 12 27  1  0  0  0  0
 13  2  2  0  0  0  0
 14 23  1  0  0  0  0
 17 20  2  0  0  0  0
 18 13  1  0  0  0  0
 18 25  2  0  0  0  0
 19  1  1  0  0  0  0
 20  4  1  0  0  0  0
 22 20  1  6  0  0  0
 22  9  1  0  0  0  0
 23 15  1  0  0  0  0
 25 26  1  0  0  0  0
 26 19  2  0  0  0  0
 26 17  1  0  0  0  0
 27 24  1  6  0  0  0
 30 29  1  0  0  0  0
 30 28  1  0  0  0  0
M  END
>  <MODEL>
4

>  <REMARK>
 VINA RESULT:      -8.4      3.138      7.973
  Name = 
  2 active torsions:
  status: ('A' for Active; 'I' for Inactive)
    1  A    between atoms: C_11  and  C_28
    2  A    between atoms: C_28  and  C_30
                            x       y       z     vdW  Elec       q    Type
                         _______ _______ _______ _____ _____    ______ ____

>  <TORSDO>
F 2

$$$$
=
 OpenBabel11122410273D

 30 35  0  0  1  0  0  0  0  0999 V2000
  185.9410  178.2560  142.0050 C   0  0  0  0  0  0  0  0  0  0  0  0
  183.4990  178.8230  142.4220 C   0  0  0  0  0  0  0  0  0  0  0  0
  186.6620  178.0680  146.0960 O   0  0  0  0  0  0  0  0  0  0  0  0
  187.2330  177.9730  142.5520 C   0  0  0  0  0  0  0  0  0  0  0  0
  185.8050  178.2580  140.6120 C   0  0  0  0  0  3  0  0  0  0  0  0
  189.2150  177.4980  139.4440 O   0  0  0  0  0  1  0  0  0  0  0  0
  190.2200  178.5790  143.1700 C   0  0  1  0  0  3  0  0  0  0  0  0
  188.1430  177.7440  140.2980 C   0  0  0  0  0  0  0  0  0  0  0  0
  189.6680  178.5700  144.5450 N   0  0  2  0  0  0  0  0  0  0  0  0
  188.0360  177.7200  146.2190 C   0  0  1  0  0  3  0  0  0  0  0  0
  186.8790  178.0080  139.7640 C   0  0  0  0  0  0  0  0  0  0  0  0
  188.3340  177.7330  141.6890 C   0  0  0  0  0  0  0  0  0  0  0  0
  182.4810  179.0580  143.3500 C   0  0  0  0  0  3  0  0  0  0  0  0
  190.7920  178.2130  145.4050 C   0  0  0  0  0  2  0  0  0  0  0  0
  191.7350  178.5680  143.2540 C   0  0  0  0  0  2  0  0  0  0  0  0
  182.9920  178.9410  140.7390 Cl  0  0  0  0  0  0  0  0  0  0  0  0
  186.3110  178.1850  144.7690 C   0  0  0  0  0  0  0  0  0  0  0  0
  182.7240  179.0050  144.7180 C   0  0  0  0  0  3  0  0  0  0  0  0
  184.8240  178.5210  142.8720 C   0  0  0  0  0  0  0  0  0  0  0  0
  187.3710  177.9520  143.9470 C   0  0  0  0  0  0  0  0  0  0  0  0
  188.1610  176.3790  146.9130 C   0  0  0  0  0  1  0  0  0  0  0  0
  188.5760  177.6100  144.7710 C   0  0  1  0  0  3  0  0  0  0  0  0
  192.0490  178.6850  144.7200 C   0  0  0  0  0  2  0  0  0  0  0  0
  189.9530  176.0510  142.6630 C   0  0  0  0  0  1  0  0  0  0  0  0
  184.0010  178.7150  145.1820 C   0  0  0  0  0  3  0  0  0  0  0  0
  185.0420  178.4780  144.2810 C   0  0  0  0  0  0  0  0  0  0  0  0
  189.7280  177.4870  142.2010 C   0  0  2  0  0  3  0  0  0  0  0  0
  186.6520  178.0070  138.2890 C   0  0  0  0  0  2  0  0  0  0  0  0
  184.6040  177.0230  137.3100 C   0  0  0  0  0  1  0  0  0  0  0  0
  185.1850  178.2470  137.9860 C   0  0  0  0  0  2  0  0  0  0  0  0
  1  4  1  0  0  0  0
  1 19  1  0  0  0  0
  2 19  2  0  0  0  0
  2 13  1  0  0  0  0
  3 10  1  0  0  0  0
  4 20  1  0  0  0  0
  5  1  2  0  0  0  0
  6  8  1  0  0  0  0
  7 15  1  1  0  0  0
  7  9  1  0  0  0  0
  8 12  1  0  0  0  0
  9 22  1  0  0  0  0
  9 14  1  1  0  0  0
 10 21  1  6  0  0  0
 11  8  2  0  0  0  0
 11  5  1  0  0  0  0
 12 27  1  0  0  0  0
 12  4  2  0  0  0  0
 13 18  2  0  0  0  0
 15 23  1  0  0  0  0
 16  2  1  0  0  0  0
 17  3  1  0  0  0  0
 18 25  1  0  0  0  0
 19 26  1  0  0  0  0
 20 17  2  0  0  0  0
 22 20  1  6  0  0  0
 22 10  1  0  0  0  0
 23 14  1  0  0  0  0
 26 17  1  0  0  0  0
 26 25  2  0  0  0  0
 27 24  1  1  0  0  0
 27  7  1  0  0  0  0
 28 11  1  0  0  0  0
 29 30  1  0  0  0  0
 30 28  1  0  0  0  0
M  END
>  <MODEL>
5

>  <REMARK>
 VINA RESULT:      -8.2      2.990      6.337
  Name = 
  2 active torsions:
  status: ('A' for Active; 'I' for Inactive)
    1  A    between atoms: C_11  and  C_28
    2  A    between atoms: C_28  and  C_30
                            x       y       z     vdW  Elec       q    Type
                         _______ _______ _______ _____ _____    ______ ____

>  <TORSDO>
F 2

$$$$
=
 OpenBabel11122410273D

 30 35  0  0  1  0  0  0  0  0999 V2000
  185.6160  178.4120  142.0560 C   0  0  0  0  0  0  0  0  0  0  0  0
  188.1400  178.1440  142.1640 C   0  0  0  0  0  0  0  0  0  0  0  0
  185.6970  178.1090  137.9090 O   0  0  0  0  0  0  0  0  0  0  0  0
  184.4370  178.5050  141.2490 C   0  0  0  0  0  0  0  0  0  0  0  0
  185.4660  178.4910  143.4450 C   0  0  0  0  0  3  0  0  0  0  0  0
  181.8350  178.9480  143.8650 O   0  0  0  0  0  1  0  0  0  0  0  0
  181.9960  179.9650  139.9920 C   0  0  1  0  0  3  0  0  0  0  0  0
  183.0750  178.7690  143.2580 C   0  0  0  0  0  0  0  0  0  0  0  0
  182.7750  179.6640  138.7680 N   0  0  2  0  0  0  0  0  0  0  0  0
  184.3380  178.2020  137.5000 C   0  0  1  0  0  3  0  0  0  0  0  0
  184.2240  178.6660  144.0460 C   0  0  0  0  0  0  0  0  0  0  0  0
  183.1700  178.6990  141.8590 C   0  0  0  0  0  0  0  0  0  0  0  0
  189.3420  177.9650  141.4730 C   0  0  0  0  0  3  0  0  0  0  0  0
  181.7900  179.6060  137.6930 C   0  0  0  0  0  2  0  0  0  0  0  0
  180.6080  180.4250  139.5850 C   0  0  0  0  0  2  0  0  0  0  0  0
  188.3140  178.2410  143.9150 Cl  0  0  0  0  0  0  0  0  0  0  0  0
  185.7980  178.2230  139.2780 C   0  0  0  0  0  0  0  0  0  0  0  0
  189.3700  177.8730  140.0860 C   0  0  0  0  0  3  0  0  0  0  0  0
  186.9060  178.2360  141.4450 C   0  0  0  0  0  0  0  0  0  0  0  0
  184.5790  178.4080  139.8570 C   0  0  0  0  0  0  0  0  0  0  0  0
  183.9220  176.9150  136.8180 C   0  0  0  0  0  1  0  0  0  0  0  0
  183.5170  178.3930  138.7990 C   0  0  1  0  0  3  0  0  0  0  0  0
  180.6460  180.5080  138.0840 C   0  0  0  0  0  2  0  0  0  0  0  0
  181.3180  177.5360  140.5890 C   0  0  0  0  0  1  0  0  0  0  0  0
  188.1870  177.9610  139.3630 C   0  0  0  0  0  3  0  0  0  0  0  0
  186.9690  178.1430  140.0230 C   0  0  0  0  0  0  0  0  0  0  0  0
  181.9030  178.8620  141.0630 C   0  0  2  0  0  3  0  0  0  0  0  0
  184.1420  178.7220  145.5360 C   0  0  0  0  0  2  0  0  0  0  0  0
  186.0080  179.1170  147.1120 C   0  0  0  0  0  1  0  0  0  0  0  0
  185.3920  178.1220  146.1510 C   0  0  0  0  0  2  0  0  0  0  0  0
  1  5  1  0  0  0  0
  2 16  1  0  0  0  0
  3 17  1  0  0  0  0
  4 12  1  0  0  0  0
  4  1  2  0  0  0  0
  5 11  2  0  0  0  0
  7 15  1  6  0  0  0
  7 27  1  0  0  0  0
  8  6  1  0  0  0  0
  8 11  1  0  0  0  0
  9 14  1  6  0  0  0
  9 22  1  0  0  0  0
  9  7  1  0  0  0  0
 10 21  1  1  0  0  0
 10  3  1  0  0  0  0
 10 22  1  0  0  0  0
 11 28  1  0  0  0  0
 12  8  2  0  0  0  0
 13  2  1  0  0  0  0
 14 23  1  0  0  0  0
 17 20  2  0  0  0  0
 17 26  1  0  0  0  0
 18 13  2  0  0  0  0
 19  1  1  0  0  0  0
 19  2  2  0  0  0  0
 20  4  1  0  0  0  0
 22 20  1  1  0  0  0
 23 15  1  0  0  0  0
 25 26  2  0  0  0  0
 25 18  1  0  0  0  0
 26 19  1  0  0  0  0
 27 24  1  6  0  0  0
 27 12  1  0  0  0  0
 28 30  1  0  0  0  0
 30 29  1  0  0  0  0
M  END
>  <MODEL>
6

>  <REMARK>
 VINA RESULT:      -7.9      1.283      4.941
  Name = 
  2 active torsions:
  status: ('A' for Active; 'I' for Inactive)
    1  A    between atoms: C_11  and  C_28
    2  A    between atoms: C_28  and  C_30
                            x       y       z     vdW  Elec       q    Type
                         _______ _______ _______ _____ _____    ______ ____

>  <TORSDO>
F 2

$$$$
=
 OpenBabel11122410273D

 30 35  0  0  1  0  0  0  0  0999 V2000
  184.8270  178.5030  141.6890 C   0  0  0  0  0  0  0  0  0  0  0  0
  187.3160  178.3420  141.1990 C   0  0  0  0  0  0  0  0  0  0  0  0
  183.9520  178.3370  137.6270 O   0  0  0  0  0  0  0  0  0  0  0  0
  183.4910  178.5690  141.1810 C   0  0  0  0  0  0  0  0  0  0  0  0
  185.0030  178.5300  143.0770 C   0  0  0  0  0  3  0  0  0  0  0  0
  181.5550  178.8120  144.3440 O   0  0  0  0  0  1  0  0  0  0  0  0
  180.7740  179.9600  140.5840 C   0  0  1  0  0  3  0  0  0  0  0  0
  182.6250  178.7070  143.4590 C   0  0  0  0  0  0  0  0  0  0  0  0
  181.2570  179.7330  139.2020 N   0  0  2  0  0  0  0  0  0  0  0  0
  182.5320  178.3830  137.5470 C   0  0  1  0  0  3  0  0  0  0  0  0
  183.9290  178.6300  143.9560 C   0  0  0  0  0  0  0  0  0  0  0  0
  182.3950  178.6870  142.0740 C   0  0  0  0  0  0  0  0  0  0  0  0
  188.3290  178.2390  140.2420 C   0  0  0  0  0  3  0  0  0  0  0  0
  180.0510  179.6660  138.3820 C   0  0  0  0  0  2  0  0  0  0  0  0
  179.3140  180.3700  140.5280 C   0  0  0  0  0  2  0  0  0  0  0  0
  187.8890  178.3900  142.8640 Cl  0  0  0  0  0  0  0  0  0  0  0  0
  184.3640  178.4110  138.9390 C   0  0  0  0  0  0  0  0  0  0  0  0
  188.0370  178.1930  138.8840 C   0  0  0  0  0  3  0  0  0  0  0  0
  185.9450  178.4040  140.7890 C   0  0  0  0  0  0  0  0  0  0  0  0
  183.3080  178.5230  139.7910 C   0  0  0  0  0  0  0  0  0  0  0  0
  182.0160  177.1010  136.9270 C   0  0  0  0  0  1  0  0  0  0  0  0
  182.0300  178.4950  139.0080 C   0  0  1  0  0  3  0  0  0  0  0  0
  178.9980  180.5030  139.0640 C   0  0  0  0  0  2  0  0  0  0  0  0
  180.3400  177.4850  141.2200 C   0  0  0  0  0  1  0  0  0  0  0  0
  186.7150  178.2520  138.4580 C   0  0  0  0  0  3  0  0  0  0  0  0
  185.6790  178.3590  139.3880 C   0  0  0  0  0  0  0  0  0  0  0  0
  180.9720  178.8190  141.6010 C   0  0  2  0  0  3  0  0  0  0  0  0
  184.1930  178.6340  145.4250 C   0  0  0  0  0  2  0  0  0  0  0  0
  186.3780  177.7910  146.2260 C   0  0  0  0  0  1  0  0  0  0  0  0
  185.6400  179.0020  145.6940 C   0  0  0  0  0  2  0  0  0  0  0  0
  1  5  2  0  0  0  0
  2 16  1  0  0  0  0
  3 17  1  0  0  0  0
  4  1  1  0  0  0  0
  4 12  2  0  0  0  0
  5 11  1  0  0  0  0
  7 15  1  6  0  0  0
  7 27  1  0  0  0  0
  8 11  2  0  0  0  0
  8  6  1  0  0  0  0
  9 14  1  6  0  0  0
  9  7  1  0  0  0  0
 10 21  1  1  0  0  0
 10  3  1  0  0  0  0
 10 22  1  0  0  0  0
 11 28  1  0  0  0  0
 12  8  1  0  0  0  0
 13  2  2  0  0  0  0
 14 23  1  0  0  0  0
 17 26  1  0  0  0  0
 17 20  2  0  0  0  0
 18 13  1  0  0  0  0
 19  2  1  0  0  0  0
 19  1  1  0  0  0  0
 20  4  1  0  0  0  0
 22  9  1  0  0  0  0
 22 20  1  1  0  0  0
 23 15  1  0  0  0  0
 25 18  2  0  0  0  0
 25 26  1  0  0  0  0
 26 19  2  0  0  0  0
 27 24  1  6  0  0  0
 27 12  1  0  0  0  0
 28 30  1  0  0  0  0
 30 29  1  0  0  0  0
M  END
>  <MODEL>
7

>  <REMARK>
 VINA RESULT:      -7.8      1.415      4.962
  Name = 
  2 active torsions:
  status: ('A' for Active; 'I' for Inactive)
    1  A    between atoms: C_11  and  C_28
    2  A    between atoms: C_28  and  C_30
                            x       y       z     vdW  Elec       q    Type
                         _______ _______ _______ _____ _____    ______ ____

>  <TORSDO>
F 2

$$$$
=
 OpenBabel11122410273D

 30 35  0  0  1  0  0  0  0  0999 V2000
  187.8670  178.0590  141.2640 C   0  0  0  0  0  0  0  0  0  0  0  0
  189.5700  177.6060  143.0950 C   0  0  0  0  0  0  0  0  0  0  0  0
  184.8020  178.2290  144.0700 O   0  0  0  0  0  0  0  0  0  0  0  0
  186.5000  178.2840  140.9050 C   0  0  0  0  0  0  0  0  0  0  0  0
  188.8220  178.0580  140.2400 C   0  0  0  0  0  3  0  0  0  0  0  0
  186.7990  178.6560  137.2200 O   0  0  0  0  0  1  0  0  0  0  0  0
  183.7750  177.5440  139.6020 C   0  0  1  0  0  3  0  0  0  0  0  0
  187.1400  178.4630  138.5560 C   0  0  0  0  0  0  0  0  0  0  0  0
  183.3770  177.5840  141.0290 N   0  0  2  0  0  0  0  0  0  0  0  0
  183.6250  178.5140  143.3220 C   0  0  1  0  0  3  0  0  0  0  0  0
  188.4760  178.2560  138.9080 C   0  0  0  0  0  0  0  0  0  0  0  0
  186.1420  178.4700  139.5450 C   0  0  0  0  0  0  0  0  0  0  0  0
  189.8220  177.4210  144.4570 C   0  0  0  0  0  3  0  0  0  0  0  0
  181.9500  177.8920  141.0190 C   0  0  0  0  0  2  0  0  0  0  0  0
  182.5220  177.4860  138.7490 C   0  0  0  0  0  2  0  0  0  0  0  0
  190.9990  177.5050  142.0690 Cl  0  0  0  0  0  0  0  0  0  0  0  0
  185.8910  178.1240  143.2330 C   0  0  0  0  0  0  0  0  0  0  0  0
  188.7960  177.4690  145.3940 C   0  0  0  0  0  3  0  0  0  0  0  0
  188.2350  177.8490  142.6390 C   0  0  0  0  0  0  0  0  0  0  0  0
  185.5420  178.3040  141.9290 C   0  0  0  0  0  0  0  0  0  0  0  0
  183.0580  179.8500  143.7570 C   0  0  0  0  0  1  0  0  0  0  0  0
  184.0730  178.5940  141.8420 C   0  0  1  0  0  3  0  0  0  0  0  0
  181.3850  177.3600  139.7260 C   0  0  0  0  0  2  0  0  0  0  0  0
  184.2090  180.0790  139.2830 C   0  0  0  0  0  1  0  0  0  0  0  0
  187.4910  177.7020  144.9780 C   0  0  0  0  0  3  0  0  0  0  0  0
  187.2040  177.8870  143.6240 C   0  0  0  0  0  0  0  0  0  0  0  0
  184.7170  178.6540  139.0980 C   0  0  2  0  0  3  0  0  0  0  0  0
  189.5520  178.2610  137.8740 C   0  0  0  0  0  2  0  0  0  0  0  0
  189.8330  177.1290  135.6910 C   0  0  0  0  0  1  0  0  0  0  0  0
  189.6110  176.9160  137.1740 C   0  0  0  0  0  2  0  0  0  0  0  0
  1 19  1  0  0  0  0
  2 13  1  0  0  0  0
  4  1  1  0  0  0  0
  4 20  1  0  0  0  0
  5  1  2  0  0  0  0
  6  8  1  0  0  0  0
  7 15  1  6  0  0  0
  7  9  1  0  0  0  0
  8 11  2  0  0  0  0
  8 12  1  0  0  0  0
  9 14  1  6  0  0  0
  9 22  1  0  0  0  0
 10 21  1  1  0  0  0
 10  3  1  0  0  0  0
 11  5  1  0  0  0  0
 12  4  2  0  0  0  0
 13 18  2  0  0  0  0
 15 23  1  0  0  0  0
 16  2  1  0  0  0  0
 17 26  1  0  0  0  0
 17  3  1  0  0  0  0
 19  2  2  0  0  0  0
 19 26  1  0  0  0  0
 20 17  2  0  0  0  0
 22 20  1  1  0  0  0
 22 10  1  0  0  0  0
 23 14  1  0  0  0  0
 25 18  1  0  0  0  0
 26 25  2  0  0  0  0
 27 24  1  1  0  0  0
 27 12  1  0  0  0  0
 27  7  1  0  0  0  0
 28 11  1  0  0  0  0
 29 30  1  0  0  0  0
 30 28  1  0  0  0  0
M  END
>  <MODEL>
8

>  <REMARK>
 VINA RESULT:      -7.8      1.880      2.667
  Name = 
  2 active torsions:
  status: ('A' for Active; 'I' for Inactive)
    1  A    between atoms: C_11  and  C_28
    2  A    between atoms: C_28  and  C_30
                            x       y       z     vdW  Elec       q    Type
                         _______ _______ _______ _____ _____    ______ ____

>  <TORSDO>
F 2

$$$$
=
 OpenBabel11122410273D

 30 35  0  0  1  0  0  0  0  0999 V2000
  185.7290  178.4810  140.9270 C   0  0  0  0  0  0  0  0  0  0  0  0
  188.2420  178.3240  140.5870 C   0  0  0  0  0  0  0  0  0  0  0  0
  185.0750  177.7840  136.8790 O   0  0  0  0  0  0  0  0  0  0  0  0
  184.4200  178.4480  140.3480 C   0  0  0  0  0  0  0  0  0  0  0  0
  185.8290  178.6870  142.3070 C   0  0  0  0  0  3  0  0  0  0  0  0
  182.3140  179.0360  143.3530 O   0  0  0  0  0  1  0  0  0  0  0  0
  181.7130  179.6820  139.4430 C   0  0  1  0  0  3  0  0  0  0  0  0
  183.4320  178.8490  142.5440 C   0  0  0  0  0  0  0  0  0  0  0  0
  182.2730  179.2960  138.1270 N   0  0  2  0  0  0  0  0  0  0  0  0
  183.6600  177.7830  136.7230 C   0  0  1  0  0  3  0  0  0  0  0  0
  184.7090  178.8690  143.1110 C   0  0  0  0  0  0  0  0  0  0  0  0
  183.2760  178.6490  141.1630 C   0  0  0  0  0  0  0  0  0  0  0  0
  189.3070  178.1280  139.7030 C   0  0  0  0  0  3  0  0  0  0  0  0
  181.1140  179.0960  137.2630 C   0  0  0  0  0  2  0  0  0  0  0  0
  180.2500  180.0450  139.2620 C   0  0  0  0  0  2  0  0  0  0  0  0
  188.7250  178.5960  142.2600 Cl  0  0  0  0  0  0  0  0  0  0  0  0
  185.4150  178.0330  138.1910 C   0  0  0  0  0  0  0  0  0  0  0  0
  189.0880  177.9040  138.3490 C   0  0  0  0  0  3  0  0  0  0  0  0
  186.8940  178.2980  140.1040 C   0  0  0  0  0  0  0  0  0  0  0  0
  184.3120  178.2240  138.9670 C   0  0  0  0  0  0  0  0  0  0  0  0
  183.2020  176.4200  136.2450 C   0  0  0  0  0  1  0  0  0  0  0  0
  183.0790  178.0650  138.1310 C   0  0  1  0  0  3  0  0  0  0  0  0
  180.0100  179.9850  137.7790 C   0  0  0  0  0  2  0  0  0  0  0  0
  181.2930  177.2960  140.3650 C   0  0  0  0  0  1  0  0  0  0  0  0
  187.7910  177.8750  137.8530 C   0  0  0  0  0  3  0  0  0  0  0  0
  186.7040  178.0710  138.7090 C   0  0  0  0  0  0  0  0  0  0  0  0
  181.8780  178.6840  140.6050 C   0  0  2  0  0  3  0  0  0  0  0  0
  184.8940  179.0640  144.5790 C   0  0  0  0  0  2  0  0  0  0  0  0
  186.2240  178.4190  146.5640 C   0  0  0  0  0  1  0  0  0  0  0  0
  185.9830  178.1420  145.0950 C   0  0  0  0  0  2  0  0  0  0  0  0
  1  5  2  0  0  0  0
  2 16  1  0  0  0  0
  3 17  1  0  0  0  0
  4  1  1  0  0  0  0
  4 12  2  0  0  0  0
  5 11  1  0  0  0  0
  7 15  1  6  0  0  0
  7 27  1  0  0  0  0
  8 11  2  0  0  0  0
  8  6  1  0  0  0  0
  9 14  1  6  0  0  0
  9 22  1  0  0  0  0
  9  7  1  0  0  0  0
 10 21  1  1  0  0  0
 10  3  1  0  0  0  0
 10 22  1  0  0  0  0
 11 28  1  0  0  0  0
 12  8  1  0  0  0  0
 13  2  2  0  0  0  0
 14 23  1  0  0  0  0
 17 26  1  0  0  0  0
 17 20  2  0  0  0  0
 18 13  1  0  0  0  0
 19  2  1  0  0  0  0
 19  1  1  0  0  0  0
 20  4  1  0  0  0  0
 22 20  1  1  0  0  0
 23 15  1  0  0  0  0
 25 18  2  0  0  0  0
 25 26  1  0  0  0  0
 26 19  2  0  0  0  0
 27 24  1  6  0  0  0
 27 12  1  0  0  0  0
 28 30  1  0  0  0  0
 30 29  1  0  0  0  0
M  END
>  <MODEL>
9

>  <REMARK>
 VINA RESULT:      -7.7      1.605      5.148
  Name = 
  2 active torsions:
  status: ('A' for Active; 'I' for Inactive)
    1  A    between atoms: C_11  and  C_28
    2  A    between atoms: C_28  and  C_30
                            x       y       z     vdW  Elec       q    Type
                         _______ _______ _______ _____ _____    ______ ____

>  <TORSDO>
F 2

$$$$
