=
 OpenBabel11122412283D

 34 40  0  0  1  0  0  0  0  0999 V2000
  189.0440  177.8090  140.0190 C   0  0  1  0  0  3  0  0  0  0  0  0
  190.8820  176.9290  138.6900 C   0  0  0  0  0  2  0  0  0  0  0  0
  182.5630  178.5040  140.8430 C   0  0  1  0  0  3  0  0  0  0  0  0
  187.0300  178.5650  141.3160 C   0  0  2  0  0  3  0  0  0  0  0  0
  184.9660  179.1850  140.0120 C   0  0  2  0  0  3  0  0  0  0  0  0
  182.8660  179.5380  138.5620 C   0  0  0  0  0  1  0  0  0  0  0  0
  182.9060  177.1550  140.7120 O   0  0  0  0  0  1  0  0  0  0  0  0
  183.7830  178.5170  143.0160 N   0  0  0  0  0  2  0  0  0  0  0  0
  189.0190  177.7330  137.6960 C   0  0  2  0  0  3  0  0  0  0  0  0
  187.7920  176.3930  135.0920 C   0  0  0  0  0  2  0  0  0  0  0  0
  185.5140  178.3560  138.8480 C   0  0  0  0  0  2  0  0  0  0  0  0
  184.9350  179.2770  142.5490 C   0  0  0  0  0  2  0  0  0  0  0  0
  187.4830  177.7810  137.6170 C   0  0  1  0  0  3  0  0  0  0  0  0
  191.1020  176.7060  137.1960 C   0  0  0  0  0  2  0  0  0  0  0  0
  185.5020  178.5840  141.3190 C   0  0  2  0  0  3  0  0  0  0  0  0
  182.5840  178.9610  142.3060 C   0  0  0  0  0  2  0  0  0  0  0  0
  189.0940  175.9920  135.8120 C   0  0  1  0  0  3  0  0  0  0  0  0
  187.5060  177.8450  140.0380 C   0  0  1  0  0  3  0  0  0  0  0  0
  183.4330  179.4070  139.9670 C   0  0  1  0  0  3  0  0  0  0  0  0
  186.9740  178.4820  138.8140 N   0  0  2  0  0  0  0  0  0  0  0  0
  188.8980  178.0010  142.4850 C   0  0  0  0  0  2  0  0  0  0  0  0
  187.5570  177.9030  135.0250 C   0  0  0  0  0  2  0  0  0  0  0  0
  187.4960  177.8590  142.4460 O   0  0  0  0  0  0  0  0  0  0  0  0
  187.0030  178.4850  136.3340 C   0  0  0  0  0  2  0  0  0  0  0  0
  189.8080  177.1580  136.5320 C   0  0  1  0  0  3  0  0  0  0  0  0
  189.5400  177.2180  141.3390 C   0  0  0  0  0  2  0  0  0  0  0  0
  189.4400  176.9990  138.8730 N   0  0  2  0  0  0  0  0  0  0  0  0
  188.8330  174.9360  136.6920 O   0  0  0  0  0  0  0  0  0  0  0  0
  187.6630  174.3430  136.2120 C   0  0  0  0  0  2  0  0  0  0  0  0
  184.4750  174.1570  137.6110 C   0  0  0  0  0  2  0  0  0  0  0  0
  186.3090  172.7220  137.2100 C   0  0  0  0  0  2  0  0  0  0  0  0
  186.7490  174.1030  137.3170 N   0  0  0  0  0  0  0  0  0  0  0  0
  184.8470  172.7010  137.5610 C   0  0  0  0  0  2  0  0  0  0  0  0
  185.6130  174.9040  137.1000 N   0  0  0  0  0  2  0  0  0  0  0  0
  1 18  1  0  0  0  0
  1 26  1  1  0  0  0
  2 27  1  0  0  0  0
  3  7  1  1  0  0  0
  3 16  1  0  0  0  0
  4 15  1  0  0  0  0
  4 23  1  1  0  0  0
  5 11  1  6  0  0  0
  5 15  1  0  0  0  0
  6 19  1  0  0  0  0
  9 27  1  0  0  0  0
 10 17  1  0  0  0  0
 12  8  1  0  0  0  0
 13  9  1  0  0  0  0
 13 20  1  0  0  0  0
 14  2  1  0  0  0  0
 15 12  1  0  0  0  0
 16  8  1  0  0  0  0
 17 25  1  0  0  0  0
 17 28  1  0  0  0  0
 18  4  1  0  0  0  0
 19  5  1  0  0  0  0
 19  3  1  0  0  0  0
 20 11  1  0  0  0  0
 20 18  1  0  0  0  0
 22 10  1  0  0  0  0
 22 24  1  0  0  0  0
 23 21  1  0  0  0  0
 24 13  1  0  0  0  0
 25 14  1  0  0  0  0
 25  9  1  0  0  0  0
 26 21  1  0  0  0  0
 27  1  1  0  0  0  0
 29 28  1  0  0  0  0
 29 32  1  0  0  0  0
 31 32  1  0  0  0  0
 31 33  1  0  0  0  0
 33 30  1  0  0  0  0
 34 32  1  0  0  0  0
 34 30  1  0  0  0  0
M  END
>  <MODEL>
1

>  <REMARK>
 VINA RESULT:      -7.7      0.000      0.000
  Name = 
  3 active torsions:
  status: ('A' for Active; 'I' for Inactive)
    1  A    between atoms: C_17  and  O_28
    2  A    between atoms: O_28  and  C_29
    3  A    between atoms: C_29  and  N_32
                            x       y       z     vdW  Elec       q    Type
                         _______ _______ _______ _____ _____    ______ ____

>  <TORSDO>
F 3

$$$$
=
 OpenBabel11122412283D

 34 40  0  0  1  0  0  0  0  0999 V2000
  189.1790  177.7950  140.4780 C   0  0  1  0  0  3  0  0  0  0  0  0
  191.1170  176.9190  139.2980 C   0  0  0  0  0  2  0  0  0  0  0  0
  182.6480  178.4230  140.8230 C   0  0  1  0  0  3  0  0  0  0  0  0
  187.0680  178.5430  141.6150 C   0  0  2  0  0  3  0  0  0  0  0  0
  185.0970  179.1210  140.1580 C   0  0  2  0  0  3  0  0  0  0  0  0
  183.1040  179.4300  138.5550 C   0  0  0  0  0  1  0  0  0  0  0  0
  183.0140  177.0770  140.7360 O   0  0  0  0  0  1  0  0  0  0  0  0
  183.7080  178.4800  143.0780 N   0  0  0  0  0  2  0  0  0  0  0  0
  189.3230  177.6870  138.1600 C   0  0  2  0  0  3  0  0  0  0  0  0
  188.3020  176.2970  135.4940 C   0  0  0  0  0  2  0  0  0  0  0  0
  185.7370  178.2840  139.0480 C   0  0  0  0  0  2  0  0  0  0  0  0
  184.8820  179.2470  142.6840 C   0  0  0  0  0  2  0  0  0  0  0  0
  187.7960  177.7160  137.9710 C   0  0  1  0  0  3  0  0  0  0  0  0
  191.4480  176.6790  137.8270 C   0  0  0  0  0  2  0  0  0  0  0  0
  185.5440  178.5450  141.5090 C   0  0  2  0  0  3  0  0  0  0  0  0
  182.5590  178.9000  142.2770 C   0  0  0  0  0  2  0  0  0  0  0  0
  189.5530  175.9220  136.3120 C   0  0  1  0  0  3  0  0  0  0  0  0
  187.6440  177.8120  140.3860 C   0  0  1  0  0  3  0  0  0  0  0  0
  183.5690  179.3240  139.9990 C   0  0  1  0  0  3  0  0  0  0  0  0
  187.1940  178.4260  139.1180 N   0  0  2  0  0  0  0  0  0  0  0  0
  188.8530  178.0180  142.9240 C   0  0  0  0  0  2  0  0  0  0  0  0
  188.0550  177.8040  135.3890 C   0  0  0  0  0  2  0  0  0  0  0  0
  187.4590  177.8590  142.7860 O   0  0  0  0  0  0  0  0  0  0  0  0
  187.4020  178.3970  136.6460 C   0  0  0  0  0  2  0  0  0  0  0  0
  190.2000  177.1060  137.0640 C   0  0  1  0  0  3  0  0  0  0  0  0
  189.5850  177.2280  141.8380 C   0  0  0  0  0  2  0  0  0  0  0  0
  189.6650  176.9740  139.3750 N   0  0  2  0  0  0  0  0  0  0  0  0
  189.2400  174.8750  137.1860 O   0  0  0  0  0  0  0  0  0  0  0  0
  188.2600  174.1290  136.5250 C   0  0  0  0  0  2  0  0  0  0  0  0
  187.7790  170.7960  135.6210 C   0  0  0  0  0  2  0  0  0  0  0  0
  189.3740  172.5040  135.2700 C   0  0  0  0  0  2  0  0  0  0  0  0
  188.6450  172.7270  136.5070 N   0  0  0  0  0  0  0  0  0  0  0  0
  188.9470  171.1610  134.7470 C   0  0  0  0  0  2  0  0  0  0  0  0
  187.4610  171.9720  136.4170 N   0  0  0  0  0  2  0  0  0  0  0  0
  1 26  1  1  0  0  0
  2 27  1  0  0  0  0
  3  7  1  1  0  0  0
  3 16  1  0  0  0  0
  4 23  1  1  0  0  0
  5 11  1  6  0  0  0
  5 15  1  0  0  0  0
  6 19  1  0  0  0  0
  9 27  1  0  0  0  0
 10 17  1  0  0  0  0
 11 20  1  0  0  0  0
 12  8  1  0  0  0  0
 13  9  1  0  0  0  0
 13 20  1  0  0  0  0
 14  2  1  0  0  0  0
 15  4  1  0  0  0  0
 15 12  1  0  0  0  0
 16  8  1  0  0  0  0
 17 25  1  0  0  0  0
 17 28  1  0  0  0  0
 18  1  1  0  0  0  0
 18  4  1  0  0  0  0
 19  5  1  0  0  0  0
 19  3  1  0  0  0  0
 20 18  1  0  0  0  0
 22 10  1  0  0  0  0
 22 24  1  0  0  0  0
 23 21  1  0  0  0  0
 24 13  1  0  0  0  0
 25 14  1  0  0  0  0
 25  9  1  0  0  0  0
 26 21  1  0  0  0  0
 27  1  1  0  0  0  0
 29 28  1  0  0  0  0
 30 34  1  0  0  0  0
 31 32  1  0  0  0  0
 32 29  1  0  0  0  0
 33 31  1  0  0  0  0
 33 30  1  0  0  0  0
 34 32  1  0  0  0  0
M  END
>  <MODEL>
2

>  <REMARK>
 VINA RESULT:      -7.3      1.340      1.639
  Name = 
  3 active torsions:
  status: ('A' for Active; 'I' for Inactive)
    1  A    between atoms: C_17  and  O_28
    2  A    between atoms: O_28  and  C_29
    3  A    between atoms: C_29  and  N_32
                            x       y       z     vdW  Elec       q    Type
                         _______ _______ _______ _____ _____    ______ ____

>  <TORSDO>
F 3

$$$$
=
 OpenBabel11122412283D

 34 40  0  0  1  0  0  0  0  0999 V2000
  189.2830  177.7940  140.7040 C   0  0  1  0  0  3  0  0  0  0  0  0
  191.2440  176.9240  139.5570 C   0  0  0  0  0  2  0  0  0  0  0  0
  182.7470  178.4220  140.9270 C   0  0  1  0  0  3  0  0  0  0  0  0
  187.1510  178.5370  141.8050 C   0  0  2  0  0  3  0  0  0  0  0  0
  185.2080  179.1230  140.3130 C   0  0  2  0  0  3  0  0  0  0  0  0
  183.2460  179.4410  138.6740 C   0  0  0  0  0  1  0  0  0  0  0  0
  183.1150  177.0760  140.8400 O   0  0  0  0  0  1  0  0  0  0  0  0
  183.7630  178.4650  143.2030 N   0  0  0  0  0  2  0  0  0  0  0  0
  189.4720  177.7000  138.3890 C   0  0  2  0  0  3  0  0  0  0  0  0
  188.5020  176.3250  135.6960 C   0  0  0  0  0  2  0  0  0  0  0  0
  185.8690  178.2920  139.2110 C   0  0  0  0  0  2  0  0  0  0  0  0
  184.9450  179.2340  142.8350 C   0  0  0  0  0  2  0  0  0  0  0  0
  187.9490  177.7300  138.1700 C   0  0  1  0  0  3  0  0  0  0  0  0
  191.6030  176.6920  138.0910 C   0  0  0  0  0  2  0  0  0  0  0  0
  185.6290  178.5390  141.6690 C   0  0  2  0  0  3  0  0  0  0  0  0
  182.6300  178.8900  142.3820 C   0  0  0  0  0  2  0  0  0  0  0  0
  189.7370  175.9450  136.5350 C   0  0  1  0  0  3  0  0  0  0  0  0
  187.7500  177.8120  140.5830 C   0  0  1  0  0  3  0  0  0  0  0  0
  183.6840  179.3280  140.1260 C   0  0  1  0  0  3  0  0  0  0  0  0
  187.3250  178.4340  139.3100 N   0  0  2  0  0  0  0  0  0  0  0  0
  188.9110  178.0030  143.1450 C   0  0  0  0  0  2  0  0  0  0  0  0
  188.2580  177.8320  135.5950 C   0  0  0  0  0  2  0  0  0  0  0  0
  187.5200  177.8460  142.9790 O   0  0  0  0  0  0  0  0  0  0  0  0
  187.5810  178.4180  136.8420 C   0  0  0  0  0  2  0  0  0  0  0  0
  190.3700  177.1240  137.3070 C   0  0  1  0  0  3  0  0  0  0  0  0
  189.6630  177.2190  142.0690 C   0  0  0  0  0  2  0  0  0  0  0  0
  189.7910  176.9790  139.6060 N   0  0  2  0  0  0  0  0  0  0  0  0
  189.4070  174.8930  137.3970 O   0  0  0  0  0  0  0  0  0  0  0  0
  189.5540  173.7340  136.6300 C   0  0  0  0  0  2  0  0  0  0  0  0
  192.8080  172.6240  136.0470 C   0  0  0  0  0  2  0  0  0  0  0  0
  190.7600  172.7710  134.8770 C   0  0  0  0  0  2  0  0  0  0  0  0
  190.8260  173.7740  135.9270 N   0  0  0  0  0  0  0  0  0  0  0  0
  192.1090  172.1080  134.8200 C   0  0  0  0  0  2  0  0  0  0  0  0
  191.8150  173.3440  136.8300 N   0  0  0  0  0  2  0  0  0  0  0  0
  1 26  1  1  0  0  0
  2 27  1  0  0  0  0
  3  7  1  1  0  0  0
  3 16  1  0  0  0  0
  4 23  1  1  0  0  0
  5 11  1  6  0  0  0
  5 15  1  0  0  0  0
  6 19  1  0  0  0  0
  9 27  1  0  0  0  0
 10 17  1  0  0  0  0
 11 20  1  0  0  0  0
 12  8  1  0  0  0  0
 13  9  1  0  0  0  0
 13 20  1  0  0  0  0
 14  2  1  0  0  0  0
 15  4  1  0  0  0  0
 15 12  1  0  0  0  0
 16  8  1  0  0  0  0
 17 25  1  0  0  0  0
 17 28  1  0  0  0  0
 18  1  1  0  0  0  0
 18  4  1  0  0  0  0
 19  5  1  0  0  0  0
 19  3  1  0  0  0  0
 20 18  1  0  0  0  0
 22 10  1  0  0  0  0
 22 24  1  0  0  0  0
 23 21  1  0  0  0  0
 24 13  1  0  0  0  0
 25 14  1  0  0  0  0
 25  9  1  0  0  0  0
 26 21  1  0  0  0  0
 27  1  1  0  0  0  0
 29 28  1  0  0  0  0
 30 34  1  0  0  0  0
 31 32  1  0  0  0  0
 32 29  1  0  0  0  0
 32 34  1  0  0  0  0
 33 31  1  0  0  0  0
 33 30  1  0  0  0  0
M  END
>  <MODEL>
3

>  <REMARK>
 VINA RESULT:      -7.1      1.861      2.637
  Name = 
  3 active torsions:
  status: ('A' for Active; 'I' for Inactive)
    1  A    between atoms: C_17  and  O_28
    2  A    between atoms: O_28  and  C_29
    3  A    between atoms: C_29  and  N_32
                            x       y       z     vdW  Elec       q    Type
                         _______ _______ _______ _____ _____    ______ ____

>  <TORSDO>
F 3

$$$$
=
 OpenBabel11122412283D

 34 40  0  0  1  0  0  0  0  0999 V2000
  189.1540  177.8380  139.8850 C   0  0  1  0  0  3  0  0  0  0  0  0
  188.8490  177.5780  137.4860 C   0  0  0  0  0  2  0  0  0  0  0  0
  186.6070  177.4370  145.9280 C   0  0  1  0  0  3  0  0  0  0  0  0
  189.3220  177.9640  142.3880 C   0  0  2  0  0  3  0  0  0  0  0  0
  187.2540  178.6190  143.6670 C   0  0  2  0  0  3  0  0  0  0  0  0
  185.0010  179.0510  144.8410 C   0  0  0  0  0  1  0  0  0  0  0  0
  186.4670  176.2240  145.2470 O   0  0  0  0  0  1  0  0  0  0  0  0
  189.0700  177.0540  145.9300 N   0  0  0  0  0  2  0  0  0  0  0  0
  187.1730  178.3570  138.7850 C   0  0  2  0  0  3  0  0  0  0  0  0
  184.1400  177.5770  138.2610 C   0  0  0  0  0  2  0  0  0  0  0  0
  186.4290  178.1960  142.4490 C   0  0  0  0  0  2  0  0  0  0  0  0
  189.3880  178.0540  144.9180 C   0  0  0  0  0  2  0  0  0  0  0  0
  186.3210  178.2200  140.0590 C   0  0  1  0  0  3  0  0  0  0  0  0
  187.6700  177.7760  136.5360 C   0  0  0  0  0  2  0  0  0  0  0  0
  188.5390  177.7800  143.6870 C   0  0  2  0  0  3  0  0  0  0  0  0
  187.9210  177.5030  146.7150 C   0  0  0  0  0  2  0  0  0  0  0  0
  185.3580  177.1810  137.4040 C   0  0  1  0  0  3  0  0  0  0  0  0
  188.3820  177.6640  141.2030 C   0  0  1  0  0  3  0  0  0  0  0  0
  186.4580  178.6410  144.9950 C   0  0  1  0  0  3  0  0  0  0  0  0
  187.1740  178.5170  141.2280 N   0  0  2  0  0  0  0  0  0  0  0  0
  191.1860  177.3720  141.2250 C   0  0  0  0  0  2  0  0  0  0  0  0
  184.1950  179.0100  138.7970 C   0  0  0  0  0  2  0  0  0  0  0  0
  190.4060  177.0610  142.3580 O   0  0  0  0  0  0  0  0  0  0  0  0
  185.1000  179.1590  140.0280 C   0  0  0  0  0  2  0  0  0  0  0  0
  186.5120  178.2080  137.4250 C   0  0  1  0  0  3  0  0  0  0  0  0
  190.4310  177.0010  139.9480 C   0  0  0  0  0  2  0  0  0  0  0  0
  188.2690  177.4080  138.8090 N   0  0  2  0  0  0  0  0  0  0  0  0
  185.8010  175.9100  137.7860 O   0  0  0  0  0  0  0  0  0  0  0  0
  185.2630  175.0360  136.8380 C   0  0  0  0  0  2  0  0  0  0  0  0
  182.6070  172.7780  136.7900 C   0  0  0  0  0  2  0  0  0  0  0  0
  184.8870  172.8030  137.4100 C   0  0  0  0  0  2  0  0  0  0  0  0
  184.3190  174.1390  137.4830 N   0  0  0  0  0  0  0  0  0  0  0  0
  183.7520  171.8610  137.1180 C   0  0  0  0  0  2  0  0  0  0  0  0
  183.1540  174.1220  136.6950 N   0  0  0  0  0  2  0  0  0  0  0  0
  1 26  1  1  0  0  0
  1 18  1  0  0  0  0
  2 27  1  0  0  0  0
  3  7  1  6  0  0  0
  3 16  1  0  0  0  0
  4 23  1  1  0  0  0
  4 15  1  0  0  0  0
  5 11  1  6  0  0  0
  5 15  1  0  0  0  0
  5 19  1  0  0  0  0
  6 19  1  0  0  0  0
  8 16  1  0  0  0  0
  9 27  1  0  0  0  0
  9 13  1  0  0  0  0
 10 22  1  0  0  0  0
 12  8  1  0  0  0  0
 13 20  1  0  0  0  0
 14 25  1  0  0  0  0
 14  2  1  0  0  0  0
 15 12  1  0  0  0  0
 17 25  1  0  0  0  0
 17 28  1  0  0  0  0
 17 10  1  0  0  0  0
 18 20  1  0  0  0  0
 18  4  1  0  0  0  0
 19  3  1  0  0  0  0
 20 11  1  0  0  0  0
 21 23  1  0  0  0  0
 22 24  1  0  0  0  0
 24 13  1  0  0  0  0
 25  9  1  0  0  0  0
 26 21  1  0  0  0  0
 27  1  1  0  0  0  0
 29 32  1  0  0  0  0
 29 28  1  0  0  0  0
 30 33  1  0  0  0  0
 31 32  1  0  0  0  0
 33 31  1  0  0  0  0
 34 30  1  0  0  0  0
 34 32  1  0  0  0  0
M  END
>  <MODEL>
4

>  <REMARK>
 VINA RESULT:      -7.0      2.313      3.943
  Name = 
  3 active torsions:
  status: ('A' for Active; 'I' for Inactive)
    1  A    between atoms: C_17  and  O_28
    2  A    between atoms: O_28  and  C_29
    3  A    between atoms: C_29  and  N_32
                            x       y       z     vdW  Elec       q    Type
                         _______ _______ _______ _____ _____    ______ ____

>  <TORSDO>
F 3

$$$$
=
 OpenBabel11122412283D

 34 40  0  0  1  0  0  0  0  0999 V2000
  189.9460  177.3300  137.4430 C   0  0  1  0  0  3  0  0  0  0  0  0
  189.0350  177.1490  135.1950 C   0  0  0  0  0  2  0  0  0  0  0  0
  189.0850  176.5670  143.9110 C   0  0  1  0  0  3  0  0  0  0  0  0
  190.7580  177.3670  139.8190 C   0  0  2  0  0  3  0  0  0  0  0  0
  189.0720  177.8670  141.6230 C   0  0  2  0  0  3  0  0  0  0  0  0
  187.1910  178.1400  143.3610 C   0  0  0  0  0  1  0  0  0  0  0  0
  188.8180  175.3760  143.2300 O   0  0  0  0  0  1  0  0  0  0  0  0
  191.4760  176.3090  143.2550 N   0  0  0  0  0  2  0  0  0  0  0  0
  187.7280  177.7910  136.9220 C   0  0  2  0  0  3  0  0  0  0  0  0
  184.6960  176.8810  137.1650 C   0  0  0  0  0  2  0  0  0  0  0  0
  187.9740  177.4510  140.6410 C   0  0  0  0  0  2  0  0  0  0  0  0
  191.4800  177.3620  142.2480 C   0  0  0  0  0  2  0  0  0  0  0  0
  187.2450  177.5630  138.3650 C   0  0  1  0  0  3  0  0  0  0  0  0
  187.6420  177.3240  134.5950 C   0  0  0  0  0  2  0  0  0  0  0  0
  190.3500  177.0940  141.2660 C   0  0  2  0  0  3  0  0  0  0  0  0
  190.5560  176.6690  144.3330 C   0  0  0  0  0  2  0  0  0  0  0  0
  185.6610  176.5810  136.0020 C   0  0  1  0  0  3  0  0  0  0  0  0
  189.5530  177.0670  138.9060 C   0  0  1  0  0  3  0  0  0  0  0  0
  188.6520  177.7980  143.1120 C   0  0  1  0  0  3  0  0  0  0  0  0
  188.3620  177.8570  139.2870 N   0  0  2  0  0  0  0  0  0  0  0  0
  192.2740  176.9150  138.1840 C   0  0  0  0  0  2  0  0  0  0  0  0
  184.8340  178.2930  137.7400 C   0  0  0  0  0  2  0  0  0  0  0  0
  191.8300  176.5220  139.4640 O   0  0  0  0  0  0  0  0  0  0  0  0
  186.0230  178.4400  138.6990 C   0  0  0  0  0  2  0  0  0  0  0  0
  186.7410  177.6620  135.7750 C   0  0  1  0  0  3  0  0  0  0  0  0
  191.2260  176.5560  137.1300 C   0  0  0  0  0  2  0  0  0  0  0  0
  188.8280  176.8980  136.6130 N   0  0  2  0  0  0  0  0  0  0  0  0
  186.2370  175.3190  136.1910 O   0  0  0  0  0  0  0  0  0  0  0  0
  185.3420  174.6290  137.0120 C   0  0  0  0  0  2  0  0  0  0  0  0
  186.1670  171.4800  135.7620 C   0  0  0  0  0  2  0  0  0  0  0  0
  187.2210  173.2420  136.9320 C   0  0  0  0  0  2  0  0  0  0  0  0
  185.7860  173.2530  137.1670 N   0  0  0  0  0  0  0  0  0  0  0  0
  187.5260  171.9960  136.1480 C   0  0  0  0  0  2  0  0  0  0  0  0
  185.2040  172.5070  136.1260 N   0  0  0  0  0  2  0  0  0  0  0  0
  1 26  1  6  0  0  0
  1 18  1  0  0  0  0
  2 27  1  0  0  0  0
  3  7  1  6  0  0  0
  3 16  1  0  0  0  0
  4 23  1  6  0  0  0
  4 15  1  0  0  0  0
  5 11  1  6  0  0  0
  5 19  1  0  0  0  0
  8 16  1  0  0  0  0
  9 13  1  0  0  0  0
 10 22  1  0  0  0  0
 12  8  1  0  0  0  0
 13 24  1  0  0  0  0
 13 20  1  0  0  0  0
 14  2  1  0  0  0  0
 14 25  1  0  0  0  0
 15  5  1  0  0  0  0
 15 12  1  0  0  0  0
 17 28  1  0  0  0  0
 17 10  1  0  0  0  0
 18 20  1  0  0  0  0
 18  4  1  0  0  0  0
 19  6  1  0  0  0  0
 19  3  1  0  0  0  0
 20 11  1  0  0  0  0
 21 23  1  0  0  0  0
 22 24  1  0  0  0  0
 25 17  1  0  0  0  0
 25  9  1  0  0  0  0
 26 21  1  0  0  0  0
 27  9  1  0  0  0  0
 27  1  1  0  0  0  0
 28 29  1  0  0  0  0
 29 32  1  0  0  0  0
 30 34  1  0  0  0  0
 30 33  1  0  0  0  0
 31 32  1  0  0  0  0
 33 31  1  0  0  0  0
 34 32  1  0  0  0  0
M  END
>  <MODEL>
5

>  <REMARK>
 VINA RESULT:      -6.9      2.353      4.495
  Name = 
  3 active torsions:
  status: ('A' for Active; 'I' for Inactive)
    1  A    between atoms: C_17  and  O_28
    2  A    between atoms: O_28  and  C_29
    3  A    between atoms: C_29  and  N_32
                            x       y       z     vdW  Elec       q    Type
                         _______ _______ _______ _____ _____    ______ ____

>  <TORSDO>
F 3

$$$$
=
 OpenBabel11122412283D

 34 40  0  0  1  0  0  0  0  0999 V2000
  183.5460  179.0310  139.6200 C   0  0  1  0  0  3  0  0  0  0  0  0
  181.2860  179.0130  138.7200 C   0  0  0  0  0  2  0  0  0  0  0  0
  187.7010  177.1660  144.3550 C   0  0  1  0  0  3  0  0  0  0  0  0
  185.8350  178.8710  140.6410 C   0  0  2  0  0  3  0  0  0  0  0  0
  185.9900  178.7640  143.1530 C   0  0  2  0  0  3  0  0  0  0  0  0
  185.9690  178.4080  145.7040 C   0  0  0  0  0  1  0  0  0  0  0  0
  187.0500  176.0600  143.8010 O   0  0  0  0  0  1  0  0  0  0  0  0
  188.8600  177.4730  142.1690 N   0  0  0  0  0  2  0  0  0  0  0  0
  181.6410  179.1290  140.9480 C   0  0  2  0  0  3  0  0  0  0  0  0
  179.7700  177.6270  143.0280 C   0  0  0  0  0  2  0  0  0  0  0  0
  184.5340  178.2940  143.1720 C   0  0  0  0  0  2  0  0  0  0  0  0
  188.1020  178.6440  141.7500 C   0  0  0  0  0  2  0  0  0  0  0  0
  182.3700  178.6000  142.1960 C   0  0  1  0  0  3  0  0  0  0  0  0
  179.8930  179.0040  139.3440 C   0  0  0  0  0  2  0  0  0  0  0  0
  186.6200  178.3120  141.8270 C   0  0  2  0  0  3  0  0  0  0  0  0
  189.0110  177.4850  143.6240 C   0  0  0  0  0  2  0  0  0  0  0  0
  179.5870  177.6930  141.5000 C   0  0  1  0  0  3  0  0  0  0  0  0
  184.3530  178.4830  140.8090 C   0  0  1  0  0  3  0  0  0  0  0  0
  186.7920  178.3950  144.4250 C   0  0  1  0  0  3  0  0  0  0  0  0
  183.7990  178.9630  142.0940 N   0  0  2  0  0  0  0  0  0  0  0  0
  185.6870  178.9660  138.3730 C   0  0  0  0  0  2  0  0  0  0  0  0
  180.2510  178.9370  143.6550 C   0  0  0  0  0  2  0  0  0  0  0  0
  186.3280  178.3100  139.4430 O   0  0  0  0  0  0  0  0  0  0  0  0
  181.7600  179.1660  143.4920 C   0  0  0  0  0  2  0  0  0  0  0  0
  180.1320  178.9840  140.8490 C   0  0  1  0  0  3  0  0  0  0  0  0
  184.2100  178.5730  138.3210 C   0  0  0  0  0  2  0  0  0  0  0  0
  182.1870  178.5200  139.7510 N   0  0  2  0  0  0  0  0  0  0  0  0
  180.1480  176.5530  140.9140 O   0  0  0  0  0  0  0  0  0  0  0  0
  179.0610  175.7360  140.5910 C   0  0  0  0  0  2  0  0  0  0  0  0
  180.8540  174.3400  137.9470 C   0  0  0  0  0  2  0  0  0  0  0  0
  178.9310  173.8440  139.2280 C   0  0  0  0  0  2  0  0  0  0  0  0
  179.1890  175.2750  139.2190 N   0  0  0  0  0  0  0  0  0  0  0  0
  179.9060  173.2180  138.2700 C   0  0  0  0  0  2  0  0  0  0  0  0
  180.5360  175.4370  138.8490 N   0  0  0  0  0  2  0  0  0  0  0  0
  1 26  1  6  0  0  0
  1 27  1  0  0  0  0
  1 18  1  0  0  0  0
  2 14  1  0  0  0  0
  2 27  1  0  0  0  0
  3  7  1  6  0  0  0
  3 19  1  0  0  0  0
  4 23  1  6  0  0  0
  4 18  1  0  0  0  0
  4 15  1  0  0  0  0
  5 11  1  1  0  0  0
  5 19  1  0  0  0  0
  8 16  1  0  0  0  0
  9 13  1  0  0  0  0
 10 22  1  0  0  0  0
 12 15  1  0  0  0  0
 12  8  1  0  0  0  0
 13 24  1  0  0  0  0
 14 25  1  0  0  0  0
 15  5  1  0  0  0  0
 16  3  1  0  0  0  0
 17 10  1  0  0  0  0
 18 20  1  0  0  0  0
 19  6  1  0  0  0  0
 20 13  1  0  0  0  0
 20 11  1  0  0  0  0
 21 23  1  0  0  0  0
 24 22  1  0  0  0  0
 25  9  1  0  0  0  0
 25 17  1  0  0  0  0
 26 21  1  0  0  0  0
 27  9  1  0  0  0  0
 28 17  1  0  0  0  0
 29 28  1  0  0  0  0
 30 33  1  0  0  0  0
 30 34  1  0  0  0  0
 32 31  1  0  0  0  0
 32 29  1  0  0  0  0
 33 31  1  0  0  0  0
 34 32  1  0  0  0  0
M  END
>  <MODEL>
6

>  <REMARK>
 VINA RESULT:      -6.7      3.510      7.243
  Name = 
  3 active torsions:
  status: ('A' for Active; 'I' for Inactive)
    1  A    between atoms: C_17  and  O_28
    2  A    between atoms: O_28  and  C_29
    3  A    between atoms: C_29  and  N_32
                            x       y       z     vdW  Elec       q    Type
                         _______ _______ _______ _____ _____    ______ ____

>  <TORSDO>
F 3

$$$$
=
 OpenBabel11122412283D

 34 40  0  0  1  0  0  0  0  0999 V2000
  185.3110  178.7950  139.0680 C   0  0  1  0  0  3  0  0  0  0  0  0
  183.0530  179.1580  138.2370 C   0  0  0  0  0  2  0  0  0  0  0  0
  189.2330  176.3220  143.7230 C   0  0  1  0  0  3  0  0  0  0  0  0
  187.5690  178.2530  140.0230 C   0  0  2  0  0  3  0  0  0  0  0  0
  187.7890  178.1720  142.5310 C   0  0  2  0  0  3  0  0  0  0  0  0
  187.7940  177.8790  145.0900 C   0  0  0  0  0  1  0  0  0  0  0  0
  188.3780  175.3380  143.2190 O   0  0  0  0  0  1  0  0  0  0  0  0
  190.3510  176.3740  141.4960 N   0  0  0  0  0  2  0  0  0  0  0  0
  183.4990  179.2550  140.4500 C   0  0  2  0  0  3  0  0  0  0  0  0
  181.4660  178.1510  142.6250 C   0  0  0  0  0  2  0  0  0  0  0  0
  186.2740  177.9690  142.6060 C   0  0  0  0  0  2  0  0  0  0  0  0
  189.7970  177.6520  141.0680 C   0  0  0  0  0  2  0  0  0  0  0  0
  184.1670  178.6320  141.6890 C   0  0  1  0  0  3  0  0  0  0  0  0
  181.7020  179.4090  138.9040 C   0  0  0  0  0  2  0  0  0  0  0  0
  188.2840  177.5890  141.2000 C   0  0  2  0  0  3  0  0  0  0  0  0
  190.5520  176.3890  142.9440 C   0  0  0  0  0  2  0  0  0  0  0  0
  181.2440  178.2180  141.1010 C   0  0  1  0  0  3  0  0  0  0  0  0
  186.0480  178.1370  140.2460 C   0  0  1  0  0  3  0  0  0  0  0  0
  188.5570  177.6930  143.7880 C   0  0  1  0  0  3  0  0  0  0  0  0
  185.6320  178.7340  141.5340 N   0  0  2  0  0  0  0  0  0  0  0  0
  187.3620  178.3260  137.7590 C   0  0  0  0  0  2  0  0  0  0  0  0
  182.1910  179.3690  143.2020 C   0  0  0  0  0  2  0  0  0  0  0  0
  187.9130  177.5890  138.8270 O   0  0  0  0  0  0  0  0  0  0  0  0
  183.7100  179.3240  142.9870 C   0  0  0  0  0  2  0  0  0  0  0  0
  181.9860  179.3780  140.4000 C   0  0  1  0  0  3  0  0  0  0  0  0
  185.8380  178.1990  137.7620 C   0  0  0  0  0  2  0  0  0  0  0  0
  183.8880  178.5350  139.2530 N   0  0  2  0  0  0  0  0  0  0  0  0
  181.5750  176.9840  140.5290 O   0  0  0  0  0  0  0  0  0  0  0  0
  180.3510  176.3870  140.2180 C   0  0  0  0  0  2  0  0  0  0  0  0
  180.6890  176.1990  136.7530 C   0  0  0  0  0  2  0  0  0  0  0  0
  181.8920  175.5420  138.6790 C   0  0  0  0  0  2  0  0  0  0  0  0
  180.4710  175.6510  138.9700 N   0  0  0  0  0  0  0  0  0  0  0  0
  182.0490  175.7340  137.1960 C   0  0  0  0  0  2  0  0  0  0  0  0
  179.9150  176.4540  137.9580 N   0  0  0  0  0  2  0  0  0  0  0  0
  1 26  1  6  0  0  0
  1 27  1  0  0  0  0
  1 18  1  0  0  0  0
  2 14  1  0  0  0  0
  2 27  1  0  0  0  0
  3  7  1  6  0  0  0
  3 19  1  0  0  0  0
  4 23  1  6  0  0  0
  4 18  1  0  0  0  0
  4 15  1  0  0  0  0
  5 11  1  1  0  0  0
  5 19  1  0  0  0  0
  8 16  1  0  0  0  0
  9 13  1  0  0  0  0
 10 22  1  0  0  0  0
 12 15  1  0  0  0  0
 12  8  1  0  0  0  0
 13 24  1  0  0  0  0
 14 25  1  0  0  0  0
 15  5  1  0  0  0  0
 16  3  1  0  0  0  0
 17 10  1  0  0  0  0
 18 20  1  0  0  0  0
 19  6  1  0  0  0  0
 20 13  1  0  0  0  0
 20 11  1  0  0  0  0
 21 26  1  0  0  0  0
 21 23  1  0  0  0  0
 24 22  1  0  0  0  0
 25  9  1  0  0  0  0
 25 17  1  0  0  0  0
 27  9  1  0  0  0  0
 28 17  1  0  0  0  0
 29 28  1  0  0  0  0
 30 33  1  0  0  0  0
 30 34  1  0  0  0  0
 31 32  1  0  0  0  0
 32 29  1  0  0  0  0
 33 31  1  0  0  0  0
 34 32  1  0  0  0  0
M  END
>  <MODEL>
7

>  <REMARK>
 VINA RESULT:      -6.6      2.721      6.600
  Name = 
  3 active torsions:
  status: ('A' for Active; 'I' for Inactive)
    1  A    between atoms: C_17  and  O_28
    2  A    between atoms: O_28  and  C_29
    3  A    between atoms: C_29  and  N_32
                            x       y       z     vdW  Elec       q    Type
                         _______ _______ _______ _____ _____    ______ ____

>  <TORSDO>
F 3

$$$$
=
 OpenBabel11122412283D

 34 40  0  0  1  0  0  0  0  0999 V2000
  190.0080  177.6010  139.2170 C   0  0  1  0  0  3  0  0  0  0  0  0
  190.0140  177.1130  136.8340 C   0  0  0  0  0  2  0  0  0  0  0  0
  186.8130  177.4370  144.9560 C   0  0  1  0  0  3  0  0  0  0  0  0
  189.8660  177.9490  141.7010 C   0  0  2  0  0  3  0  0  0  0  0  0
  187.6090  178.4890  142.6790 C   0  0  2  0  0  3  0  0  0  0  0  0
  185.2040  178.7800  143.5540 C   0  0  0  0  0  1  0  0  0  0  0  0
  186.8680  176.1640  144.3810 O   0  0  0  0  0  1  0  0  0  0  0  0
  189.2840  177.3130  145.2640 N   0  0  0  0  0  2  0  0  0  0  0  0
  188.1310  177.8190  137.8640 C   0  0  2  0  0  3  0  0  0  0  0  0
  185.2670  176.6880  137.0870 C   0  0  0  0  0  2  0  0  0  0  0  0
  186.9770  177.8840  141.4230 C   0  0  0  0  0  2  0  0  0  0  0  0
  189.6240  178.2530  144.2040 C   0  0  0  0  0  2  0  0  0  0  0  0
  187.1500  177.7000  139.0440 C   0  0  1  0  0  3  0  0  0  0  0  0
  188.9420  177.1090  135.7470 C   0  0  0  0  0  2  0  0  0  0  0  0
  188.9560  177.7920  142.9180 C   0  0  2  0  0  3  0  0  0  0  0  0
  188.0130  177.7030  145.8730 C   0  0  0  0  0  2  0  0  0  0  0  0
  186.6090  176.3520  136.4090 C   0  0  1  0  0  3  0  0  0  0  0  0
  189.1050  177.4570  140.4540 C   0  0  1  0  0  3  0  0  0  0  0  0
  186.6640  178.5380  143.9050 C   0  0  1  0  0  3  0  0  0  0  0  0
  187.8280  178.1790  140.2670 N   0  0  2  0  0  0  0  0  0  0  0  0
  191.9020  177.4590  140.8090 C   0  0  0  0  0  2  0  0  0  0  0  0
  185.1240  178.1580  137.4890 C   0  0  0  0  0  2  0  0  0  0  0  0
  191.0260  177.1640  141.8740 O   0  0  0  0  0  0  0  0  0  0  0  0
  185.8590  178.5020  138.7920 C   0  0  0  0  0  2  0  0  0  0  0  0
  187.6510  177.4910  136.4600 C   0  0  1  0  0  3  0  0  0  0  0  0
  191.3410  176.9080  139.4980 C   0  0  0  0  0  2  0  0  0  0  0  0
  189.3000  176.9930  138.0960 N   0  0  2  0  0  0  0  0  0  0  0  0
  187.1210  175.1690  136.9540 O   0  0  0  0  0  0  0  0  0  0  0  0
  186.7090  174.1570  136.0830 C   0  0  0  0  0  2  0  0  0  0  0  0
  189.8780  173.5540  134.7600 C   0  0  0  0  0  2  0  0  0  0  0  0
  188.7920  173.4390  136.8560 C   0  0  0  0  0  2  0  0  0  0  0  0
  187.8350  173.2930  135.7720 N   0  0  0  0  0  0  0  0  0  0  0  0
  190.1610  173.4470  136.2330 C   0  0  0  0  0  2  0  0  0  0  0  0
  188.4530  173.8110  134.6200 N   0  0  0  0  0  2  0  0  0  0  0  0
  1 26  1  1  0  0  0
  1 18  1  0  0  0  0
  2 27  1  0  0  0  0
  3  7  1  6  0  0  0
  3 16  1  0  0  0  0
  4 23  1  1  0  0  0
  4 15  1  0  0  0  0
  5 11  1  6  0  0  0
  5 15  1  0  0  0  0
  5 19  1  0  0  0  0
  6 19  1  0  0  0  0
  8 16  1  0  0  0  0
  9 27  1  0  0  0  0
  9 13  1  0  0  0  0
 10 22  1  0  0  0  0
 12  8  1  0  0  0  0
 13 20  1  0  0  0  0
 14 25  1  0  0  0  0
 14  2  1  0  0  0  0
 15 12  1  0  0  0  0
 17 25  1  0  0  0  0
 17 28  1  0  0  0  0
 17 10  1  0  0  0  0
 18  4  1  0  0  0  0
 19  3  1  0  0  0  0
 20 18  1  0  0  0  0
 20 11  1  0  0  0  0
 21 23  1  0  0  0  0
 22 24  1  0  0  0  0
 24 13  1  0  0  0  0
 25  9  1  0  0  0  0
 26 21  1  0  0  0  0
 27  1  1  0  0  0  0
 29 28  1  0  0  0  0
 30 33  1  0  0  0  0
 32 29  1  0  0  0  0
 32 31  1  0  0  0  0
 33 31  1  0  0  0  0
 34 30  1  0  0  0  0
 34 32  1  0  0  0  0
M  END
>  <MODEL>
8

>  <REMARK>
 VINA RESULT:      -6.6      2.175      3.725
  Name = 
  3 active torsions:
  status: ('A' for Active; 'I' for Inactive)
    1  A    between atoms: C_17  and  O_28
    2  A    between atoms: O_28  and  C_29
    3  A    between atoms: C_29  and  N_32
                            x       y       z     vdW  Elec       q    Type
                         _______ _______ _______ _____ _____    ______ ____

>  <TORSDO>
F 3

$$$$
=
 OpenBabel11122412283D

 34 40  0  0  1  0  0  0  0  0999 V2000
  183.4460  178.4660  141.1680 C   0  0  1  0  0  3  0  0  0  0  0  0
  181.1140  178.8530  141.7430 C   0  0  0  0  0  2  0  0  0  0  0  0
  188.1860  178.5890  136.6200 C   0  0  1  0  0  3  0  0  0  0  0  0
  185.8330  178.2100  140.4280 C   0  0  2  0  0  3  0  0  0  0  0  0
  186.2490  177.5170  138.0430 C   0  0  2  0  0  3  0  0  0  0  0  0
  186.5130  177.0530  135.5230 C   0  0  0  0  0  1  0  0  0  0  0  0
  187.5650  179.8370  136.7250 O   0  0  0  0  0  1  0  0  0  0  0  0
  189.0920  178.9410  138.9160 N   0  0  0  0  0  2  0  0  0  0  0  0
  181.6840  178.0290  139.7170 C   0  0  2  0  0  3  0  0  0  0  0  0
  180.1490  178.8720  137.0680 C   0  0  0  0  0  2  0  0  0  0  0  0
  184.8400  178.0120  137.7070 C   0  0  0  0  0  2  0  0  0  0  0  0
  188.2110  177.9900  139.5830 C   0  0  0  0  0  2  0  0  0  0  0  0
  182.5730  178.1110  138.4640 C   0  0  1  0  0  3  0  0  0  0  0  0
  179.7960  178.7180  140.9840 C   0  0  0  0  0  2  0  0  0  0  0  0
  186.7730  178.3370  139.2300 C   0  0  2  0  0  3  0  0  0  0  0  0
  189.3880  178.4670  137.5650 C   0  0  0  0  0  2  0  0  0  0  0  0
  179.8070  179.2960  138.5100 C   0  0  1  0  0  3  0  0  0  0  0  0
  184.4080  178.5820  139.9730 C   0  0  1  0  0  3  0  0  0  0  0  0
  187.2010  177.4360  136.8240 C   0  0  1  0  0  3  0  0  0  0  0  0
  183.9530  177.7440  138.8420 N   0  0  2  0  0  0  0  0  0  0  0  0
  185.4480  178.8380  142.5810 C   0  0  0  0  0  2  0  0  0  0  0  0
  180.5930  177.4130  136.9370 C   0  0  0  0  0  2  0  0  0  0  0  0
  186.2410  179.1000  141.4450 O   0  0  0  0  0  0  0  0  0  0  0  0
  182.0570  177.1900  137.3420 C   0  0  0  0  0  2  0  0  0  0  0  0
  180.1870  178.2560  139.5870 C   0  0  1  0  0  3  0  0  0  0  0  0
  184.0060  179.2840  142.3320 C   0  0  0  0  0  2  0  0  0  0  0  0
  182.1490  178.9620  140.7250 N   0  0  2  0  0  0  0  0  0  0  0  0
  180.3880  180.5410  138.7780 O   0  0  0  0  0  0  0  0  0  0  0  0
  180.7200  181.0660  137.5270 C   0  0  0  0  0  2  0  0  0  0  0  0
  181.6150  184.4260  137.2750 C   0  0  0  0  0  2  0  0  0  0  0  0
  180.2890  182.8630  136.0980 C   0  0  0  0  0  2  0  0  0  0  0  0
  180.4110  182.4860  137.4970 N   0  0  0  0  0  0  0  0  0  0  0  0
  180.9290  184.2160  135.9530 C   0  0  0  0  0  2  0  0  0  0  0  0
  181.5350  183.1670  137.9990 N   0  0  0  0  0  2  0  0  0  0  0  0
  1 26  1  1  0  0  0
  3  7  1  1  0  0  0
  3 19  1  0  0  0  0
  3 16  1  0  0  0  0
  4 23  1  1  0  0  0
  5 11  1  6  0  0  0
  5 15  1  0  0  0  0
  6 19  1  0  0  0  0
  8 12  1  0  0  0  0
  9 27  1  0  0  0  0
 10 17  1  0  0  0  0
 11 20  1  0  0  0  0
 13 20  1  0  0  0  0
 13  9  1  0  0  0  0
 14  2  1  0  0  0  0
 15 12  1  0  0  0  0
 15  4  1  0  0  0  0
 16  8  1  0  0  0  0
 17 28  1  0  0  0  0
 17 25  1  0  0  0  0
 18  4  1  0  0  0  0
 18  1  1  0  0  0  0
 19  5  1  0  0  0  0
 20 18  1  0  0  0  0
 22 10  1  0  0  0  0
 22 24  1  0  0  0  0
 23 21  1  0  0  0  0
 24 13  1  0  0  0  0
 25  9  1  0  0  0  0
 25 14  1  0  0  0  0
 26 21  1  0  0  0  0
 27  1  1  0  0  0  0
 27  2  1  0  0  0  0
 29 28  1  0  0  0  0
 30 34  1  0  0  0  0
 31 32  1  0  0  0  0
 32 29  1  0  0  0  0
 32 34  1  0  0  0  0
 33 31  1  0  0  0  0
 33 30  1  0  0  0  0
M  END
>  <MODEL>
9

>  <REMARK>
 VINA RESULT:      -6.5      3.208      7.606
  Name = 
  3 active torsions:
  status: ('A' for Active; 'I' for Inactive)
    1  A    between atoms: C_17  and  O_28
    2  A    between atoms: O_28  and  C_29
    3  A    between atoms: C_29  and  N_32
                            x       y       z     vdW  Elec       q    Type
                         _______ _______ _______ _____ _____    ______ ____

>  <TORSDO>
F 3

$$$$
