=
 OpenBabel11122410303D

 30 35  0  0  1  0  0  0  0  0999 V2000
  186.8040  177.8370  143.0400 C   0  0  0  0  0  0  0  0  0  0  0  0
  187.7140  177.8250  145.4030 N   0  0  0  0  0  0  0  0  0  0  0  0
  182.9050  178.8890  144.4220 N   0  0  0  0  0  0  0  0  0  0  0  0
  185.7890  178.2380  142.2280 C   0  0  0  0  0  0  0  0  0  0  0  0
  188.0840  177.3760  142.3990 C   0  0  0  0  0  2  0  0  0  0  0  0
  187.5660  178.6910  139.0810 O   0  0  0  0  0  0  0  0  0  0  0  0
  183.7210  177.5460  140.1590 C   0  0  1  0  0  3  0  0  0  0  0  0
  187.3520  178.4440  140.3000 C   0  0  0  0  0  0  0  0  0  0  0  0
  182.7360  178.0230  141.1560 N   0  0  2  0  0  0  0  0  0  0  0  0
  182.3390  179.1800  143.2960 C   0  0  0  0  0  0  0  0  0  0  0  0
  188.5010  178.2970  141.2570 C   0  0  2  0  0  3  0  0  0  0  0  0
  186.0040  178.3790  140.8020 N   0  0  0  0  0  0  0  0  0  0  0  0
  187.4990  178.0260  146.8070 C   0  0  0  0  0  3  0  0  0  0  0  0
  181.6670  178.6210  140.3660 C   0  0  0  0  0  2  0  0  0  0  0  0
  182.9640  177.2580  138.8770 C   0  0  0  0  0  2  0  0  0  0  0  0
  188.9730  177.5230  145.0080 O   0  0  0  0  0  1  0  0  0  0  0  0
  184.2220  178.4720  144.1030 C   0  0  0  0  0  0  0  0  0  0  0  0
  186.2860  178.3170  147.2760 C   0  0  0  0  0  3  0  0  0  0  0  0
  186.5630  177.5380  144.5240 C   0  0  1  0  0  3  0  0  0  0  0  0
  184.4610  178.5210  142.8120 C   0  0  0  0  0  0  0  0  0  0  0  0
  180.9520  179.7150  143.2330 C   0  0  0  0  0  1  0  0  0  0  0  0
  183.2490  179.0260  142.1020 C   0  0  1  0  0  3  0  0  0  0  0  0
  181.5890  177.8510  139.0700 C   0  0  0  0  0  2  0  0  0  0  0  0
  184.4990  179.8330  139.7060 O   0  0  0  0  0  1  0  0  0  0  0  0
  185.1550  178.4700  146.3520 C   0  0  0  0  0  3  0  0  0  0  0  0
  185.2870  178.1690  145.0580 C   0  0  0  0  0  0  0  0  0  0  0  0
  184.8980  178.5000  139.8470 C   0  0  2  0  0  3  0  0  0  0  0  0
  189.7350  177.7260  140.5640 C   0  0  0  0  0  2  0  0  0  0  0  0
  191.6440  177.4470  141.9730 O   0  0  0  0  0  1  0  0  0  0  0  0
  190.5050  176.8010  141.4920 C   0  0  0  0  0  2  0  0  0  0  0  0
  2 13  1  0  0  0  0
  4 20  1  0  0  0  0
  4  1  2  0  0  0  0
  5  1  1  0  0  0  0
  6  8  2  0  0  0  0
  7 15  1  6  0  0  0
  7  9  1  0  0  0  0
  8 12  1  0  0  0  0
  8 11  1  0  0  0  0
  9 14  1  6  0  0  0
  9 22  1  0  0  0  0
 10  3  2  0  0  0  0
 11 28  1  6  0  0  0
 11  5  1  0  0  0  0
 12  4  1  0  0  0  0
 13 18  2  0  0  0  0
 15 23  1  0  0  0  0
 16  2  1  0  0  0  0
 17  3  1  0  0  0  0
 17 26  1  0  0  0  0
 19  1  1  6  0  0  0
 19 26  1  0  0  0  0
 19  2  1  0  0  0  0
 20 17  2  0  0  0  0
 21 10  1  0  0  0  0
 22 20  1  1  0  0  0
 22 10  1  0  0  0  0
 23 14  1  0  0  0  0
 25 18  1  0  0  0  0
 26 25  2  0  0  0  0
 27 24  1  1  0  0  0
 27  7  1  0  0  0  0
 27 12  1  0  0  0  0
 28 30  1  0  0  0  0
 30 29  1  0  0  0  0
M  END
>  <MODEL>
1

>  <REMARK>
 VINA RESULT:      -9.9      0.000      0.000
  Name = 
  2 active torsions:
  status: ('A' for Active; 'I' for Inactive)
    1  A    between atoms: C_11  and  C_28
    2  A    between atoms: C_28  and  C_30
                            x       y       z     vdW  Elec       q    Type
                         _______ _______ _______ _____ _____    ______ ____

>  <TORSDO>
F 2

$$$$
=
 OpenBabel11122410303D

 30 35  0  0  1  0  0  0  0  0999 V2000
  188.0470  177.5560  142.1500 C   0  0  0  0  0  0  0  0  0  0  0  0
  189.6830  177.2900  144.0650 N   0  0  0  0  0  0  0  0  0  0  0  0
  184.8650  178.4740  144.8420 N   0  0  0  0  0  0  0  0  0  0  0  0
  186.8380  178.0450  141.7630 C   0  0  0  0  0  0  0  0  0  0  0  0
  189.0260  177.1590  141.0800 C   0  0  0  0  0  2  0  0  0  0  0  0
  187.4980  178.8190  138.2670 O   0  0  0  0  0  0  0  0  0  0  0  0
  184.1800  177.5840  140.4390 C   0  0  1  0  0  3  0  0  0  0  0  0
  187.6880  178.4460  139.4570 C   0  0  0  0  0  0  0  0  0  0  0  0
  183.5970  177.9580  141.7480 N   0  0  2  0  0  0  0  0  0  0  0  0
  183.9720  178.8840  144.0010 C   0  0  0  0  0  0  0  0  0  0  0  0
  189.0810  178.1930  139.9600 C   0  0  2  0  0  3  0  0  0  0  0  0
  186.5780  178.3340  140.3680 N   0  0  0  0  0  0  0  0  0  0  0  0
  189.9500  177.3430  145.4740 C   0  0  0  0  0  3  0  0  0  0  0  0
  182.3520  178.6410  141.4190 C   0  0  0  0  0  2  0  0  0  0  0  0
  183.0330  177.4370  139.4580 C   0  0  0  0  0  2  0  0  0  0  0  0
  190.7290  177.0260  143.2480 O   0  0  0  0  0  1  0  0  0  0  0  0
  185.9860  178.0870  144.0650 C   0  0  0  0  0  0  0  0  0  0  0  0
  188.9710  177.5890  146.3440 C   0  0  0  0  0  3  0  0  0  0  0  0
  188.2960  177.1030  143.5930 C   0  0  1  0  0  3  0  0  0  0  0  0
  185.7890  178.2710  142.7790 C   0  0  0  0  0  0  0  0  0  0  0  0
  182.6620  179.4290  144.4530 C   0  0  0  0  0  1  0  0  0  0  0  0
  184.4320  178.8520  142.5640 C   0  0  1  0  0  3  0  0  0  0  0  0
  181.8220  178.0120  140.1530 C   0  0  0  0  0  2  0  0  0  0  0  0
  184.8540  179.9020  139.9800 O   0  0  0  0  0  1  0  0  0  0  0  0
  187.6050  177.8440  145.8660 C   0  0  0  0  0  3  0  0  0  0  0  0
  187.2930  177.6790  144.5790 C   0  0  0  0  0  0  0  0  0  0  0  0
  185.2250  178.5610  139.8500 C   0  0  2  0  0  3  0  0  0  0  0  0
  189.9950  177.6930  138.8450 C   0  0  0  0  0  2  0  0  0  0  0  0
  190.7930  175.4500  138.6510 O   0  0  0  0  0  1  0  0  0  0  0  0
  190.9610  176.6390  139.3600 C   0  0  0  0  0  2  0  0  0  0  0  0
  2 13  1  0  0  0  0
  4  1  2  0  0  0  0
  4 20  1  0  0  0  0
  5  1  1  0  0  0  0
  6  8  2  0  0  0  0
  7 15  1  6  0  0  0
  7  9  1  0  0  0  0
  8 11  1  0  0  0  0
  8 12  1  0  0  0  0
  9 14  1  6  0  0  0
  9 22  1  0  0  0  0
 10 21  1  0  0  0  0
 10  3  2  0  0  0  0
 11 28  1  6  0  0  0
 11  5  1  0  0  0  0
 12  4  1  0  0  0  0
 13 18  2  0  0  0  0
 15 23  1  0  0  0  0
 16  2  1  0  0  0  0
 17 26  1  0  0  0  0
 17  3  1  0  0  0  0
 19  1  1  6  0  0  0
 19  2  1  0  0  0  0
 19 26  1  0  0  0  0
 20 17  2  0  0  0  0
 22 20  1  1  0  0  0
 22 10  1  0  0  0  0
 23 14  1  0  0  0  0
 25 18  1  0  0  0  0
 26 25  2  0  0  0  0
 27 24  1  1  0  0  0
 27 12  1  0  0  0  0
 27  7  1  0  0  0  0
 28 30  1  0  0  0  0
 29 30  1  0  0  0  0
M  END
>  <MODEL>
2

>  <REMARK>
 VINA RESULT:      -9.6      1.439      1.844
  Name = 
  2 active torsions:
  status: ('A' for Active; 'I' for Inactive)
    1  A    between atoms: C_11  and  C_28
    2  A    between atoms: C_28  and  C_30
                            x       y       z     vdW  Elec       q    Type
                         _______ _______ _______ _____ _____    ______ ____

>  <TORSDO>
F 2

$$$$
=
 OpenBabel11122410303D

 30 35  0  0  1  0  0  0  0  0999 V2000
  187.3520  178.1860  140.5300 C   0  0  0  0  0  0  0  0  0  0  0  0
  185.0350  178.7490  139.6800 N   0  0  0  0  0  0  0  0  0  0  0  0
  185.9460  177.9510  144.5530 N   0  0  0  0  0  0  0  0  0  0  0  0
  188.0800  177.6840  141.5640 C   0  0  0  0  0  0  0  0  0  0  0  0
  188.0250  178.3230  139.1920 C   0  0  0  0  0  2  0  0  0  0  0  0
  190.8910  176.2130  139.7760 O   0  0  0  0  0  0  0  0  0  0  0  0
  190.3640  177.9920  143.4920 C   0  0  1  0  0  3  0  0  0  0  0  0
  189.7960  176.8040  139.9890 C   0  0  0  0  0  0  0  0  0  0  0  0
  189.3290  177.9070  144.5470 N   0  0  2  0  0  0  0  0  0  0  0  0
  186.9820  177.4230  145.1210 C   0  0  0  0  0  0  0  0  0  0  0  0
  188.8550  177.0880  138.8530 C   0  0  2  0  0  3  0  0  0  0  0  0
  189.4010  177.1390  141.3330 N   0  0  0  0  0  0  0  0  0  0  0  0
  183.6410  178.9610  139.9480 C   0  0  0  0  0  3  0  0  0  0  0  0
  189.9850  177.2280  145.6580 C   0  0  0  0  0  2  0  0  0  0  0  0
  191.7150  177.9950  144.1820 C   0  0  0  0  0  2  0  0  0  0  0  0
  185.4290  178.8030  138.3860 O   0  0  0  0  0  1  0  0  0  0  0  0
  186.2960  178.1300  143.1910 C   0  0  0  0  0  0  0  0  0  0  0  0
  183.1760  178.9330  141.1970 C   0  0  0  0  0  3  0  0  0  0  0  0
  186.0180  178.9010  140.7700 C   0  0  1  0  0  3  0  0  0  0  0  0
  187.5120  177.7070  142.9280 C   0  0  0  0  0  0  0  0  0  0  0  0
  186.9720  177.0350  146.5580 C   0  0  0  0  0  1  0  0  0  0  0  0
  188.1230  177.1540  144.1720 C   0  0  1  0  0  3  0  0  0  0  0  0
  191.4430  177.6200  145.6190 C   0  0  0  0  0  2  0  0  0  0  0  0
  190.1460  175.6020  142.9650 O   0  0  0  0  0  1  0  0  0  0  0  0
  184.0840  178.6490  142.3160 C   0  0  0  0  0  3  0  0  0  0  0  0
  185.4020  178.5720  142.1210 C   0  0  0  0  0  0  0  0  0  0  0  0
  190.3470  176.8750  142.4230 C   0  0  2  0  0  3  0  0  0  0  0  0
  189.6090  177.3200  137.5470 C   0  0  0  0  0  2  0  0  0  0  0  0
  188.2230  177.8740  135.6820 O   0  0  0  0  0  1  0  0  0  0  0  0
  188.9600  178.4260  136.7300 C   0  0  0  0  0  2  0  0  0  0  0  0
  1  4  2  0  0  0  0
  2 13  1  0  0  0  0
  2 19  1  0  0  0  0
  3 10  2  0  0  0  0
  4 20  1  0  0  0  0
  5  1  1  0  0  0  0
  6  8  2  0  0  0  0
  7 15  1  1  0  0  0
  7  9  1  0  0  0  0
  8 12  1  0  0  0  0
  9 14  1  1  0  0  0
 10 21  1  0  0  0  0
 11 28  1  6  0  0  0
 11  5  1  0  0  0  0
 11  8  1  0  0  0  0
 12  4  1  0  0  0  0
 12 27  1  0  0  0  0
 13 18  2  0  0  0  0
 15 23  1  0  0  0  0
 16  2  1  0  0  0  0
 17  3  1  0  0  0  0
 18 25  1  0  0  0  0
 19  1  1  6  0  0  0
 19 26  1  0  0  0  0
 20 17  2  0  0  0  0
 22 20  1  6  0  0  0
 22  9  1  0  0  0  0
 22 10  1  0  0  0  0
 23 14  1  0  0  0  0
 26 25  2  0  0  0  0
 26 17  1  0  0  0  0
 27 24  1  1  0  0  0
 27  7  1  0  0  0  0
 29 30  1  0  0  0  0
 30 28  1  0  0  0  0
M  END
>  <MODEL>
3

>  <REMARK>
 VINA RESULT:      -9.6      2.144      6.067
  Name = 
  2 active torsions:
  status: ('A' for Active; 'I' for Inactive)
    1  A    between atoms: C_11  and  C_28
    2  A    between atoms: C_28  and  C_30
                            x       y       z     vdW  Elec       q    Type
                         _______ _______ _______ _____ _____    ______ ____

>  <TORSDO>
F 2

$$$$
=
 OpenBabel11122410303D

 30 35  0  0  1  0  0  0  0  0999 V2000
  187.9070  177.5810  143.2940 C   0  0  0  0  0  0  0  0  0  0  0  0
  186.8600  177.8670  145.5820 N   0  0  0  0  0  0  0  0  0  0  0  0
  184.3690  178.9950  141.3700 N   0  0  0  0  0  0  0  0  0  0  0  0
  187.8340  177.9070  141.9750 C   0  0  0  0  0  0  0  0  0  0  0  0
  189.1850  176.9760  143.8050 C   0  0  0  0  0  2  0  0  0  0  0  0
  191.3560  177.8250  141.0530 O   0  0  0  0  0  0  0  0  0  0  0  0
  187.7760  177.0200  139.1050 C   0  0  1  0  0  3  0  0  0  0  0  0
  190.3100  177.7640  141.7570 C   0  0  0  0  0  0  0  0  0  0  0  0
  186.4520  177.6780  139.0510 N   0  0  2  0  0  0  0  0  0  0  0  0
  184.8150  179.1460  140.1650 C   0  0  0  0  0  0  0  0  0  0  0  0
  190.4080  177.7040  143.2550 C   0  0  2  0  0  3  0  0  0  0  0  0
  189.0120  177.8330  141.1370 N   0  0  0  0  0  0  0  0  0  0  0  0
  185.7420  178.2760  146.3840 C   0  0  0  0  0  3  0  0  0  0  0  0
  186.3520  178.2050  137.6960 C   0  0  0  0  0  2  0  0  0  0  0  0
  188.1230  176.5860  137.6930 C   0  0  0  0  0  2  0  0  0  0  0  0
  187.9710  177.4550  146.2360 O   0  0  0  0  0  1  0  0  0  0  0  0
  185.4500  178.4770  142.1260 C   0  0  0  0  0  0  0  0  0  0  0  0
  184.6090  178.6860  145.8140 C   0  0  0  0  0  3  0  0  0  0  0  0
  186.6470  177.5090  144.1650 C   0  0  1  0  0  3  0  0  0  0  0  0
  186.5390  178.3300  141.4040 C   0  0  0  0  0  0  0  0  0  0  0  0
  183.9710  179.7290  139.0860 C   0  0  0  0  0  1  0  0  0  0  0  0
  186.2700  178.7820  140.0070 C   0  0  1  0  0  3  0  0  0  0  0  0
  187.1140  177.2610  136.7960 C   0  0  0  0  0  2  0  0  0  0  0  0
  188.9430  179.1810  139.1980 O   0  0  0  0  0  1  0  0  0  0  0  0
  184.5020  178.7560  144.3500 C   0  0  0  0  0  3  0  0  0  0  0  0
  185.4700  178.2660  143.5730 C   0  0  0  0  0  0  0  0  0  0  0  0
  188.9410  177.8650  139.6720 C   0  0  2  0  0  3  0  0  0  0  0  0
  191.6770  176.9850  143.7030 C   0  0  0  0  0  2  0  0  0  0  0  0
  191.8740  177.0970  146.0810 O   0  0  0  0  0  1  0  0  0  0  0  0
  191.4640  176.2760  145.0310 C   0  0  0  0  0  2  0  0  0  0  0  0
  1  5  1  0  0  0  0
  2 16  1  0  0  0  0
  2 13  1  0  0  0  0
  3 17  1  0  0  0  0
  4  1  2  0  0  0  0
  6  8  2  0  0  0  0
  7 15  1  6  0  0  0
  7 27  1  0  0  0  0
  8 11  1  0  0  0  0
  9 14  1  6  0  0  0
  9  7  1  0  0  0  0
  9 22  1  0  0  0  0
 10  3  2  0  0  0  0
 11 28  1  6  0  0  0
 11  5  1  0  0  0  0
 12  8  1  0  0  0  0
 12  4  1  0  0  0  0
 17 26  1  0  0  0  0
 18 13  2  0  0  0  0
 19  1  1  6  0  0  0
 19  2  1  0  0  0  0
 20  4  1  0  0  0  0
 20 17  2  0  0  0  0
 21 10  1  0  0  0  0
 22 10  1  1  0  0  0
 22 20  1  0  0  0  0
 23 15  1  0  0  0  0
 23 14  1  0  0  0  0
 25 18  1  0  0  0  0
 26 19  1  0  0  0  0
 26 25  2  0  0  0  0
 27 24  1  1  0  0  0
 27 12  1  0  0  0  0
 28 30  1  0  0  0  0
 30 29  1  0  0  0  0
M  END
>  <MODEL>
4

>  <REMARK>
 VINA RESULT:      -9.4      1.958      3.496
  Name = 
  2 active torsions:
  status: ('A' for Active; 'I' for Inactive)
    1  A    between atoms: C_11  and  C_28
    2  A    between atoms: C_28  and  C_30
                            x       y       z     vdW  Elec       q    Type
                         _______ _______ _______ _____ _____    ______ ____

>  <TORSDO>
F 2

$$$$
=
 OpenBabel11122410303D

 30 35  0  0  1  0  0  0  0  0999 V2000
  189.2060  177.0920  142.9870 C   0  0  0  0  0  0  0  0  0  0  0  0
  191.2280  176.3370  144.3100 N   0  0  0  0  0  0  0  0  0  0  0  0
  187.0570  177.9910  146.5630 N   0  0  0  0  0  0  0  0  0  0  0  0
  188.0340  177.7830  143.0200 C   0  0  0  0  0  0  0  0  0  0  0  0
  189.7830  176.7390  141.6440 C   0  0  0  0  0  2  0  0  0  0  0  0
  187.8500  178.9840  139.5860 O   0  0  0  0  0  0  0  0  0  0  0  0
  185.0800  177.8670  142.4740 C   0  0  1  0  0  3  0  0  0  0  0  0
  188.2870  178.4150  140.6240 C   0  0  0  0  0  0  0  0  0  0  0  0
  184.9390  178.1100  143.9270 N   0  0  2  0  0  0  0  0  0  0  0  0
  186.0510  178.6330  146.0640 C   0  0  0  0  0  0  0  0  0  0  0  0
  189.7030  177.9150  140.6740 C   0  0  2  0  0  3  0  0  0  0  0  0
  187.4600  178.3090  141.7980 N   0  0  0  0  0  0  0  0  0  0  0  0
  191.8690  176.1440  145.5790 C   0  0  0  0  0  3  0  0  0  0  0  0
  183.7810  178.9870  144.0470 C   0  0  0  0  0  2  0  0  0  0  0  0
  183.7030  178.0150  141.8540 C   0  0  0  0  0  2  0  0  0  0  0  0
  191.9590  176.0680  143.2020 O   0  0  0  0  0  1  0  0  0  0  0  0
  187.8490  177.5860  145.4600 C   0  0  0  0  0  0  0  0  0  0  0  0
  191.2130  176.3780  146.7160 C   0  0  0  0  0  3  0  0  0  0  0  0
  189.7550  176.4000  144.2390 C   0  0  1  0  0  3  0  0  0  0  0  0
  187.3480  177.9850  144.3120 C   0  0  0  0  0  0  0  0  0  0  0  0
  185.0180  179.2660  146.9310 C   0  0  0  0  0  1  0  0  0  0  0  0
  186.0970  178.7600  144.5610 C   0  0  1  0  0  3  0  0  0  0  0  0
  182.8340  178.6280  142.9260 C   0  0  0  0  0  2  0  0  0  0  0  0
  185.9770  180.1230  142.0950 O   0  0  0  0  0  1  0  0  0  0  0  0
  189.8300  176.8720  146.6810 C   0  0  0  0  0  3  0  0  0  0  0  0
  189.1610  176.9440  145.5280 C   0  0  0  0  0  0  0  0  0  0  0  0
  186.0740  178.7800  141.7190 C   0  0  2  0  0  3  0  0  0  0  0  0
  190.1900  177.4770  139.2960 C   0  0  0  0  0  2  0  0  0  0  0  0
  190.9170  175.3270  138.5500 O   0  0  0  0  0  1  0  0  0  0  0  0
  191.2360  176.3790  139.4090 C   0  0  0  0  0  2  0  0  0  0  0  0
  1  4  2  0  0  0  0
  2 13  1  0  0  0  0
  4 20  1  0  0  0  0
  5  1  1  0  0  0  0
  6  8  2  0  0  0  0
  7 15  1  6  0  0  0
  7  9  1  0  0  0  0
  8 11  1  0  0  0  0
  8 12  1  0  0  0  0
  9 14  1  6  0  0  0
  9 22  1  0  0  0  0
 10  3  2  0  0  0  0
 10 21  1  0  0  0  0
 11 28  1  6  0  0  0
 11  5  1  0  0  0  0
 12  4  1  0  0  0  0
 13 18  2  0  0  0  0
 15 23  1  0  0  0  0
 16  2  1  0  0  0  0
 17 26  1  0  0  0  0
 17  3  1  0  0  0  0
 19  1  1  6  0  0  0
 19  2  1  0  0  0  0
 19 26  1  0  0  0  0
 20 17  2  0  0  0  0
 22 20  1  6  0  0  0
 22 10  1  0  0  0  0
 23 14  1  0  0  0  0
 25 18  1  0  0  0  0
 26 25  2  0  0  0  0
 27 12  1  0  0  0  0
 27 24  1  1  0  0  0
 27  7  1  0  0  0  0
 28 30  1  0  0  0  0
 29 30  1  0  0  0  0
M  END
>  <MODEL>
5

>  <REMARK>
 VINA RESULT:      -9.2      2.077      3.536
  Name = 
  2 active torsions:
  status: ('A' for Active; 'I' for Inactive)
    1  A    between atoms: C_11  and  C_28
    2  A    between atoms: C_28  and  C_30
                            x       y       z     vdW  Elec       q    Type
                         _______ _______ _______ _____ _____    ______ ____

>  <TORSDO>
F 2

$$$$
=
 OpenBabel11122410303D

 30 35  0  0  1  0  0  0  0  0999 V2000
  185.9960  178.6300  141.8250 C   0  0  0  0  0  0  0  0  0  0  0  0
  183.4940  179.0020  141.9260 N   0  0  0  0  0  0  0  0  0  0  0  0
  186.1780  177.9270  146.0310 N   0  0  0  0  0  0  0  0  0  0  0  0
  187.0860  178.1300  142.4690 C   0  0  0  0  0  0  0  0  0  0  0  0
  186.1210  178.9450  140.3600 C   0  0  0  0  0  2  0  0  0  0  0  0
  189.1480  177.1200  139.6420 O   0  0  0  0  0  0  0  0  0  0  0  0
  189.8880  178.5330  143.4780 C   0  0  1  0  0  3  0  0  0  0  0  0
  188.1670  177.5690  140.2970 C   0  0  0  0  0  0  0  0  0  0  0  0
  189.3190  178.2530  144.8150 N   0  0  2  0  0  0  0  0  0  0  0  0
  187.3860  177.4720  146.1300 C   0  0  0  0  0  0  0  0  0  0  0  0
  186.8580  177.8380  139.6110 C   0  0  2  0  0  3  0  0  0  0  0  0
  188.2670  177.7530  141.7220 N   0  0  0  0  0  0  0  0  0  0  0  0
  182.2830  179.0390  142.6960 C   0  0  0  0  0  3  0  0  0  0  0  0
  190.3830  177.5640  145.5350 C   0  0  0  0  0  2  0  0  0  0  0  0
  191.3930  178.6280  143.6360 C   0  0  0  0  0  2  0  0  0  0  0  0
  183.3830  179.2000  140.5920 O   0  0  0  0  0  1  0  0  0  0  0  0
  185.9920  178.2500  144.6640 C   0  0  0  0  0  0  0  0  0  0  0  0
  182.3100  178.8630  144.0160 C   0  0  0  0  0  3  0  0  0  0  0  0
  184.7930  179.1740  142.6040 C   0  0  1  0  0  3  0  0  0  0  0  0
  187.0560  177.9830  143.9390 C   0  0  0  0  0  0  0  0  0  0  0  0
  187.9310  176.9730  147.4220 C   0  0  0  0  0  1  0  0  0  0  0  0
  188.1180  177.4040  144.8120 C   0  0  1  0  0  3  0  0  0  0  0  0
  191.6930  178.1140  145.0240 C   0  0  0  0  0  2  0  0  0  0  0  0
  189.6670  176.1820  142.7970 O   0  0  0  0  0  1  0  0  0  0  0  0
  183.5820  178.5920  144.6990 C   0  0  0  0  0  3  0  0  0  0  0  0
  184.7400  178.6750  144.0400 C   0  0  0  0  0  0  0  0  0  0  0  0
  189.5620  177.5080  142.3660 C   0  0  2  0  0  3  0  0  0  0  0  0
  187.0630  178.2530  138.1570 C   0  0  0  0  0  2  0  0  0  0  0  0
  187.0490  176.0540  137.2220 O   0  0  0  0  0  1  0  0  0  0  0  0
  186.3820  177.2800  137.2080 C   0  0  0  0  0  2  0  0  0  0  0  0
  1  4  2  0  0  0  0
  2 19  1  0  0  0  0
  2 13  1  0  0  0  0
  3 10  2  0  0  0  0
  4 20  1  0  0  0  0
  5  1  1  0  0  0  0
  6  8  2  0  0  0  0
  7 15  1  1  0  0  0
  7  9  1  0  0  0  0
  8 12  1  0  0  0  0
  9 14  1  1  0  0  0
 10 21  1  0  0  0  0
 11 28  1  6  0  0  0
 11  8  1  0  0  0  0
 11  5  1  0  0  0  0
 12 27  1  0  0  0  0
 12  4  1  0  0  0  0
 13 18  2  0  0  0  0
 15 23  1  0  0  0  0
 16  2  1  0  0  0  0
 17  3  1  0  0  0  0
 18 25  1  0  0  0  0
 19  1  1  6  0  0  0
 19 26  1  0  0  0  0
 20 17  2  0  0  0  0
 22 20  1  6  0  0  0
 22  9  1  0  0  0  0
 22 10  1  0  0  0  0
 23 14  1  0  0  0  0
 26 17  1  0  0  0  0
 26 25  2  0  0  0  0
 27 24  1  1  0  0  0
 27  7  1  0  0  0  0
 30 29  1  0  0  0  0
 30 28  1  0  0  0  0
M  END
>  <MODEL>
6

>  <REMARK>
 VINA RESULT:      -9.0      1.923      5.755
  Name = 
  2 active torsions:
  status: ('A' for Active; 'I' for Inactive)
    1  A    between atoms: C_11  and  C_28
    2  A    between atoms: C_28  and  C_30
                            x       y       z     vdW  Elec       q    Type
                         _______ _______ _______ _____ _____    ______ ____

>  <TORSDO>
F 2

$$$$
=
 OpenBabel11122410303D

 30 35  0  0  1  0  0  0  0  0999 V2000
  188.3360  177.4510  142.8620 C   0  0  0  0  0  0  0  0  0  0  0  0
  186.3790  178.2530  144.2540 N   0  0  0  0  0  0  0  0  0  0  0  0
  186.3980  178.6280  139.2460 N   0  0  0  0  0  0  0  0  0  0  0  0
  188.9510  177.5040  141.6490 C   0  0  0  0  0  0  0  0  0  0  0  0
  189.1110  176.8960  144.0250 C   0  0  0  0  0  2  0  0  0  0  0  0
  192.4300  177.0490  142.6230 O   0  0  0  0  0  0  0  0  0  0  0  0
  190.1420  176.0550  139.3020 C   0  0  1  0  0  3  0  0  0  0  0  0
  191.1790  177.1890  142.7140 C   0  0  0  0  0  0  0  0  0  0  0  0
  189.1160  176.7570  138.4990 N   0  0  2  0  0  0  0  0  0  0  0  0
  187.3820  178.5060  138.4150 C   0  0  0  0  0  0  0  0  0  0  0  0
  190.5400  177.4310  144.0520 C   0  0  2  0  0  3  0  0  0  0  0  0
  190.3610  177.1980  141.5290 N   0  0  0  0  0  0  0  0  0  0  0  0
  185.0880  178.8760  144.3220 C   0  0  0  0  0  3  0  0  0  0  0  0
  189.7550  177.0010  137.2110 C   0  0  0  0  0  2  0  0  0  0  0  0
  191.0530  175.3240  138.3340 C   0  0  0  0  0  2  0  0  0  0  0  0
  186.9680  177.9250  145.4270 O   0  0  0  0  0  1  0  0  0  0  0  0
  186.8980  178.2190  140.5080 C   0  0  0  0  0  0  0  0  0  0  0  0
  184.4380  179.2200  143.2100 C   0  0  0  0  0  3  0  0  0  0  0  0
  186.8190  177.6250  142.9920 C   0  0  1  0  0  3  0  0  0  0  0  0
  188.1640  177.8700  140.4530 C   0  0  0  0  0  0  0  0  0  0  0  0
  187.2510  178.9000  136.9850 C   0  0  0  0  0  1  0  0  0  0  0  0
  188.6650  178.0410  139.0580 C   0  0  1  0  0  3  0  0  0  0  0  0
  190.7060  175.8540  136.9630 C   0  0  0  0  0  2  0  0  0  0  0  0
  191.4250  178.1240  139.6340 O   0  0  0  0  0  1  0  0  0  0  0  0
  185.0550  178.9950  141.8950 C   0  0  0  0  0  3  0  0  0  0  0  0
  186.1930  178.3070  141.7860 C   0  0  0  0  0  0  0  0  0  0  0  0
  191.0030  176.9350  140.2370 C   0  0  2  0  0  3  0  0  0  0  0  0
  191.3200  176.7530  145.1750 C   0  0  0  0  0  2  0  0  0  0  0  0
  191.6450  176.8760  147.5380 O   0  0  0  0  0  1  0  0  0  0  0  0
  190.6970  177.0490  146.5300 C   0  0  0  0  0  2  0  0  0  0  0  0
  1 19  1  0  0  0  0
  1  5  1  0  0  0  0
  2 13  1  0  0  0  0
  2 16  1  0  0  0  0
  3 17  1  0  0  0  0
  4  1  2  0  0  0  0
  5 11  1  0  0  0  0
  6  8  2  0  0  0  0
  7 15  1  6  0  0  0
  7 27  1  0  0  0  0
  8 11  1  0  0  0  0
  9 14  1  6  0  0  0
  9 22  1  0  0  0  0
  9  7  1  0  0  0  0
 10  3  2  0  0  0  0
 11 28  1  1  0  0  0
 12  4  1  0  0  0  0
 12  8  1  0  0  0  0
 17 26  1  0  0  0  0
 18 13  2  0  0  0  0
 19 26  1  6  0  0  0
 19  2  1  0  0  0  0
 20 17  2  0  0  0  0
 20  4  1  0  0  0  0
 21 10  1  0  0  0  0
 22 10  1  6  0  0  0
 22 20  1  0  0  0  0
 23 14  1  0  0  0  0
 23 15  1  0  0  0  0
 25 18  1  0  0  0  0
 26 25  2  0  0  0  0
 27 24  1  6  0  0  0
 27 12  1  0  0  0  0
 28 30  1  0  0  0  0
 30 29  1  0  0  0  0
M  END
>  <MODEL>
7

>  <REMARK>
 VINA RESULT:      -8.0      2.700      5.596
  Name = 
  2 active torsions:
  status: ('A' for Active; 'I' for Inactive)
    1  A    between atoms: C_11  and  C_28
    2  A    between atoms: C_28  and  C_30
                            x       y       z     vdW  Elec       q    Type
                         _______ _______ _______ _____ _____    ______ ____

>  <TORSDO>
F 2

$$$$
=
 OpenBabel11122410303D

 30 35  0  0  1  0  0  0  0  0999 V2000
  187.4460  177.7750  142.3320 C   0  0  0  0  0  0  0  0  0  0  0  0
  186.6610  178.2260  144.6970 N   0  0  0  0  0  0  0  0  0  0  0  0
  183.6950  179.0230  140.7240 N   0  0  0  0  0  0  0  0  0  0  0  0
  187.2200  178.0010  141.0100 C   0  0  0  0  0  0  0  0  0  0  0  0
  188.7820  177.2160  142.7370 C   0  0  0  0  0  2  0  0  0  0  0  0
  190.6160  177.8680  139.7010 O   0  0  0  0  0  0  0  0  0  0  0  0
  186.8500  176.9010  138.2370 C   0  0  1  0  0  3  0  0  0  0  0  0
  189.6580  177.8550  140.5220 C   0  0  0  0  0  0  0  0  0  0  0  0
  185.5200  177.5470  138.2870 N   0  0  2  0  0  0  0  0  0  0  0  0
  183.9990  179.0860  139.4680 C   0  0  0  0  0  0  0  0  0  0  0  0
  189.9250  177.9070  141.9990 C   0  0  2  0  0  3  0  0  0  0  0  0
  188.2970  177.8700  140.0500 N   0  0  0  0  0  0  0  0  0  0  0  0
  185.6360  178.6880  145.5880 C   0  0  0  0  0  3  0  0  0  0  0  0
  185.2600  177.9710  136.9160 C   0  0  0  0  0  2  0  0  0  0  0  0
  187.0410  176.3650  136.8310 C   0  0  0  0  0  2  0  0  0  0  0  0
  187.8440  177.8690  145.2490 O   0  0  0  0  0  1  0  0  0  0  0  0
  184.8620  178.5690  141.3880 C   0  0  0  0  0  0  0  0  0  0  0  0
  184.4400  179.0490  145.1230 C   0  0  0  0  0  3  0  0  0  0  0  0
  186.2950  177.7620  143.3440 C   0  0  1  0  0  3  0  0  0  0  0  0
  185.8630  178.3740  140.5590 C   0  0  0  0  0  0  0  0  0  0  0  0
  183.0310  179.5820  138.4520 C   0  0  0  0  0  1  0  0  0  0  0  0
  185.4330  178.7180  139.1730 C   0  0  1  0  0  3  0  0  0  0  0  0
  185.9280  176.9660  136.0080 C   0  0  0  0  0  2  0  0  0  0  0  0
  187.9910  179.0690  138.0380 O   0  0  0  0  0  1  0  0  0  0  0  0
  184.1670  179.0080  143.6790 C   0  0  0  0  0  3  0  0  0  0  0  0
  185.0480  178.4670  142.8350 C   0  0  0  0  0  0  0  0  0  0  0  0
  188.0600  177.7930  138.6050 C   0  0  2  0  0  3  0  0  0  0  0  0
  191.2460  177.2300  142.3530 C   0  0  0  0  0  2  0  0  0  0  0  0
  192.0340  175.6070  143.9180 O   0  0  0  0  0  1  0  0  0  0  0  0
  191.2480  176.7520  143.7950 C   0  0  0  0  0  2  0  0  0  0  0  0
  1  5  1  0  0  0  0
  2 16  1  0  0  0  0
  2 13  1  0  0  0  0
  3 17  1  0  0  0  0
  4  1  2  0  0  0  0
  6  8  2  0  0  0  0
  7 15  1  6  0  0  0
  7  9  1  0  0  0  0
  7 27  1  0  0  0  0
  8 11  1  0  0  0  0
  9 14  1  6  0  0  0
  9 22  1  0  0  0  0
 10  3  2  0  0  0  0
 11 28  1  6  0  0  0
 11  5  1  0  0  0  0
 12  8  1  0  0  0  0
 12  4  1  0  0  0  0
 17 26  1  0  0  0  0
 18 13  2  0  0  0  0
 19  1  1  6  0  0  0
 19  2  1  0  0  0  0
 20  4  1  0  0  0  0
 20 17  2  0  0  0  0
 21 10  1  0  0  0  0
 22 10  1  1  0  0  0
 22 20  1  0  0  0  0
 23 15  1  0  0  0  0
 23 14  1  0  0  0  0
 25 18  1  0  0  0  0
 26 19  1  0  0  0  0
 26 25  2  0  0  0  0
 27 24  1  1  0  0  0
 27 12  1  0  0  0  0
 28 30  1  0  0  0  0
 30 29  1  0  0  0  0
M  END
>  <MODEL>
8

>  <REMARK>
 VINA RESULT:      -7.7      1.933      3.172
  Name = 
  2 active torsions:
  status: ('A' for Active; 'I' for Inactive)
    1  A    between atoms: C_11  and  C_28
    2  A    between atoms: C_28  and  C_30
                            x       y       z     vdW  Elec       q    Type
                         _______ _______ _______ _____ _____    ______ ____

>  <TORSDO>
F 2

$$$$
=
 OpenBabel11122410303D

 30 35  0  0  1  0  0  0  0  0999 V2000
  189.0790  177.0200  138.8230 C   0  0  0  0  0  0  0  0  0  0  0  0
  190.8600  176.5310  137.0920 N   0  0  0  0  0  0  0  0  0  0  0  0
  192.0090  177.3770  141.9060 N   0  0  0  0  0  0  0  0  0  0  0  0
  188.8230  177.5120  140.0660 C   0  0  0  0  0  0  0  0  0  0  0  0
  187.9200  176.8350  137.8820 C   0  0  0  0  0  2  0  0  0  0  0  0
  185.4660  178.8450  139.5980 O   0  0  0  0  0  0  0  0  0  0  0  0
  187.5530  177.1510  142.7650 C   0  0  1  0  0  3  0  0  0  0  0  0
  186.5750  178.3000  139.3400 C   0  0  0  0  0  0  0  0  0  0  0  0
  188.9260  177.2930  143.2990 N   0  0  2  0  0  0  0  0  0  0  0  0
  191.2790  177.8750  142.8520 C   0  0  0  0  0  0  0  0  0  0  0  0
  186.9740  178.0320  137.9170 C   0  0  2  0  0  3  0  0  0  0  0  0
  187.5020  178.0030  140.4010 N   0  0  0  0  0  0  0  0  0  0  0  0
  192.2480  176.3760  136.7600 C   0  0  0  0  0  3  0  0  0  0  0  0
  188.7590  177.9660  144.5810 C   0  0  0  0  0  2  0  0  0  0  0  0
  186.6080  177.1090  143.9520 C   0  0  0  0  0  2  0  0  0  0  0  0
  189.9690  176.4400  136.0760 O   0  0  0  0  0  1  0  0  0  0  0  0
  191.1360  177.1620  140.8100 C   0  0  0  0  0  0  0  0  0  0  0  0
  193.1850  176.4430  137.7060 C   0  0  0  0  0  3  0  0  0  0  0  0
  190.4220  176.3600  138.4910 C   0  0  1  0  0  3  0  0  0  0  0  0
  189.9030  177.5340  141.0730 C   0  0  0  0  0  0  0  0  0  0  0  0
  191.8640  178.2880  144.1560 C   0  0  0  0  0  1  0  0  0  0  0  0
  189.8380  178.0850  142.4590 C   0  0  1  0  0  3  0  0  0  0  0  0
  187.4330  177.5190  145.1480 C   0  0  0  0  0  2  0  0  0  0  0  0
  187.4350  179.5380  142.1950 O   0  0  0  0  0  1  0  0  0  0  0  0
  192.8090  176.7110  139.1000 C   0  0  0  0  0  3  0  0  0  0  0  0
  191.5260  176.7350  139.4670 C   0  0  0  0  0  0  0  0  0  0  0  0
  187.0810  178.2500  141.7840 C   0  0  2  0  0  3  0  0  0  0  0  0
  185.7590  177.7490  137.0390 C   0  0  0  0  0  2  0  0  0  0  0  0
  184.4270  175.8440  137.5930 O   0  0  0  0  0  1  0  0  0  0  0  0
  185.5450  176.2540  136.8660 C   0  0  0  0  0  2  0  0  0  0  0  0
  1  4  2  0  0  0  0
  2 19  1  0  0  0  0
  3 10  2  0  0  0  0
  4 12  1  0  0  0  0
  4 20  1  0  0  0  0
  5 11  1  0  0  0  0
  5  1  1  0  0  0  0
  7  9  1  0  0  0  0
  7 15  1  1  0  0  0
  8  6  2  0  0  0  0
  8 12  1  0  0  0  0
  9 14  1  1  0  0  0
 10 21  1  0  0  0  0
 11 28  1  6  0  0  0
 11  8  1  0  0  0  0
 12 27  1  0  0  0  0
 13  2  1  0  0  0  0
 13 18  2  0  0  0  0
 14 23  1  0  0  0  0
 15 23  1  0  0  0  0
 16  2  1  0  0  0  0
 17 20  2  0  0  0  0
 17  3  1  0  0  0  0
 18 25  1  0  0  0  0
 19  1  1  1  0  0  0
 19 26  1  0  0  0  0
 22 20  1  6  0  0  0
 22 10  1  0  0  0  0
 22  9  1  0  0  0  0
 25 26  2  0  0  0  0
 26 17  1  0  0  0  0
 27 24  1  1  0  0  0
 27  7  1  0  0  0  0
 30 28  1  0  0  0  0
 30 29  1  0  0  0  0
M  END
>  <MODEL>
9

>  <REMARK>
 VINA RESULT:      -7.5      3.199      7.306
  Name = 
  2 active torsions:
  status: ('A' for Active; 'I' for Inactive)
    1  A    between atoms: C_11  and  C_28
    2  A    between atoms: C_28  and  C_30
                            x       y       z     vdW  Elec       q    Type
                         _______ _______ _______ _____ _____    ______ ____

>  <TORSDO>
F 2

$$$$
