=
 OpenBabel11122410553D

 31 35  0  0  1  0  0  0  0  0999 V2000
  190.0630  176.1320  142.7700 C   0  0  0  0  0  0  0  0  0  0  0  0
  186.7130  177.6610  143.5600 N   0  0  0  0  0  0  0  0  0  0  0  0
  186.7010  177.9890  144.9760 C   0  0  0  0  0  0  0  0  0  0  0  0
  187.6660  177.8400  147.2100 C   0  0  0  0  0  0  0  0  0  0  0  0
  187.9250  177.2910  142.8620 C   0  0  0  0  0  0  0  0  0  0  0  0
  190.2730  176.6080  141.4740 C   0  0  0  0  0  3  0  0  0  0  0  0
  187.6920  177.5140  145.8530 C   0  0  0  0  0  3  0  0  0  0  0  0
  185.9780  179.0940  141.7140 C   0  0  2  0  0  3  0  0  0  0  0  0
  190.9920  175.3430  143.3600 F   0  0  0  0  0  0  0  0  0  0  0  0
  184.6310  179.3630  144.6000 C   0  0  0  0  0  2  0  0  0  0  0  0
  188.9130  177.2340  148.2790 Cl  0  0  0  0  0  0  0  0  0  0  0  0
  187.1010  178.5660  140.8160 C   0  0  0  0  0  2  0  0  0  0  0  0
  185.5610  178.0000  142.7030 C   0  0  2  0  0  3  0  0  0  0  0  0
  188.8950  176.4690  143.4560 C   0  0  0  0  0  3  0  0  0  0  0  0
  186.6480  178.6520  147.7140 C   0  0  0  0  0  3  0  0  0  0  0  0
  188.1430  177.7640  141.5470 C   0  0  0  0  0  0  0  0  0  0  0  0
  189.3120  177.4160  140.8630 C   0  0  0  0  0  3  0  0  0  0  0  0
  184.3080  178.3570  143.5090 C   0  0  0  0  0  2  0  0  0  0  0  0
  185.6740  178.7990  145.5020 C   0  0  0  0  0  0  0  0  0  0  0  0
  185.6560  179.1340  146.8590 C   0  0  0  0  0  3  0  0  0  0  0  0
  184.9050  179.4870  140.8970 O   0  0  0  0  0  0  0  0  0  0  0  0
  183.4030  177.6600  140.4970 C   0  0  0  0  0  1  0  0  0  0  0  0
  184.6470  178.4140  140.0290 C   0  0  1  0  0  3  0  0  0  0  0  0
  183.8820  176.4120  136.8460 C   0  0  1  0  0  3  0  0  0  0  0  0
  183.0400  178.4550  138.0760 C   0  0  0  0  0  2  0  0  0  0  0  0
  187.0140  178.4880  138.0630 O   0  0  0  0  0  0  0  0  0  0  0  0
  183.6360  174.9320  136.6450 C   0  0  0  0  0  1  0  0  0  0  0  0
  182.9560  176.9310  137.9430 C   0  0  0  0  0  2  0  0  0  0  0  0
  185.6600  178.3960  137.3740 S   0  0  2  0  0  0  0  0  0  0  0  0
  184.4100  178.9120  138.5890 C   0  0  2  0  0  3  0  0  0  0  0  0
  185.3430  176.6310  137.2130 C   0  0  0  0  0  2  0  0  0  0  0  0
  1  9  1  0  0  0  0
  1 14  1  0  0  0  0
  2  3  1  0  0  0  0
  3 19  2  0  0  0  0
  3  7  1  0  0  0  0
  4 15  1  0  0  0  0
  4 11  1  0  0  0  0
  5 14  2  0  0  0  0
  5  2  1  0  0  0  0
  6  1  2  0  0  0  0
  7  4  2  0  0  0  0
  8 21  1  6  0  0  0
  8 13  1  0  0  0  0
 10 19  1  0  0  0  0
 12 16  1  0  0  0  0
 12  8  1  0  0  0  0
 13 18  1  1  0  0  0
 13  2  1  0  0  0  0
 16  5  1  0  0  0  0
 17  6  1  0  0  0  0
 17 16  2  0  0  0  0
 18 10  1  0  0  0  0
 19 20  1  0  0  0  0
 20 15  2  0  0  0  0
 23 22  1  1  0  0  0
 23 21  1  0  0  0  0
 24 27  1  1  0  0  0
 24 31  1  0  0  0  0
 24 28  1  0  0  0  0
 25 30  1  0  0  0  0
 28 25  1  0  0  0  0
 29 26  2  1  0  0  0
 29 30  1  0  0  0  0
 30 23  1  1  0  0  0
 31 29  1  0  0  0  0
M  END
>  <MODEL>
1

>  <REMARK>
 VINA RESULT:     -10.3      0.000      0.000
  Name = 
  3 active torsions:
  status: ('A' for Active; 'I' for Inactive)
    1  A    between atoms: C_5  and  O_16
    2  A    between atoms: C_5  and  C_30
    3  A    between atoms: C_10  and  O_16
                            x       y       z     vdW  Elec       q    Type
                         _______ _______ _______ _____ _____    ______ ____

>  <TORSDO>
F 3

$$$$
=
 OpenBabel11122410553D

 31 35  0  0  1  0  0  0  0  0999 V2000
  190.0330  176.2490  142.5470 C   0  0  0  0  0  0  0  0  0  0  0  0
  186.7000  177.6650  143.5810 N   0  0  0  0  0  0  0  0  0  0  0  0
  186.7740  177.9750  145.0000 C   0  0  0  0  0  0  0  0  0  0  0  0
  187.8910  177.8280  147.1620 C   0  0  0  0  0  0  0  0  0  0  0  0
  187.8730  177.3420  142.7980 C   0  0  0  0  0  0  0  0  0  0  0  0
  190.1420  176.7480  141.2480 C   0  0  0  0  0  3  0  0  0  0  0  0
  187.8350  177.5200  145.8010 C   0  0  0  0  0  3  0  0  0  0  0  0
  185.8010  179.0980  141.8100 C   0  0  2  0  0  3  0  0  0  0  0  0
  191.0230  175.4820  143.0630 F   0  0  0  0  0  0  0  0  0  0  0  0
  184.6440  179.2910  144.7820 C   0  0  0  0  0  2  0  0  0  0  0  0
  189.2240  177.2470  148.1360 Cl  0  0  0  0  0  0  0  0  0  0  0  0
  186.8760  178.6160  140.8310 C   0  0  0  0  0  2  0  0  0  0  0  0
  185.4840  177.9800  142.8080 C   0  0  2  0  0  3  0  0  0  0  0  0
  188.9040  176.5420  143.3140 C   0  0  0  0  0  3  0  0  0  0  0  0
  186.8850  178.6030  147.7440 C   0  0  0  0  0  3  0  0  0  0  0  0
  187.9880  177.8370  141.4790 C   0  0  0  0  0  0  0  0  0  0  0  0
  189.1180  177.5340  140.7140 C   0  0  0  0  0  3  0  0  0  0  0  0
  184.2780  178.2890  143.7010 C   0  0  0  0  0  2  0  0  0  0  0  0
  185.7610  178.7470  145.6040 C   0  0  0  0  0  0  0  0  0  0  0  0
  185.8240  179.0650  146.9650 C   0  0  0  0  0  3  0  0  0  0  0  0
  184.6640  179.4690  141.0720 O   0  0  0  0  0  0  0  0  0  0  0  0
  183.2120  177.6350  140.5370 C   0  0  0  0  0  1  0  0  0  0  0  0
  184.4440  178.4470  140.1350 C   0  0  1  0  0  3  0  0  0  0  0  0
  181.1740  178.8480  138.1670 C   0  0  1  0  0  3  0  0  0  0  0  0
  183.2220  180.1990  138.7790 C   0  0  0  0  0  2  0  0  0  0  0  0
  184.3450  176.5350  137.7240 O   0  0  0  0  0  0  0  0  0  0  0  0
  179.7400  178.5720  138.5670 C   0  0  0  0  0  1  0  0  0  0  0  0
  181.8230  179.7500  139.2130 C   0  0  0  0  0  2  0  0  0  0  0  0
  183.6040  177.8430  137.4880 S   0  0  2  0  0  0  0  0  0  0  0  0
  184.2100  179.0290  138.7260 C   0  0  2  0  0  3  0  0  0  0  0  0
  181.9210  177.5270  138.0420 C   0  0  0  0  0  2  0  0  0  0  0  0
  1  9  1  0  0  0  0
  1 14  1  0  0  0  0
  2  3  1  0  0  0  0
  3 19  2  0  0  0  0
  3  7  1  0  0  0  0
  4 15  1  0  0  0  0
  4 11  1  0  0  0  0
  5 14  2  0  0  0  0
  5  2  1  0  0  0  0
  6  1  2  0  0  0  0
  7  4  2  0  0  0  0
  8 21  1  6  0  0  0
  8 13  1  0  0  0  0
 10 19  1  0  0  0  0
 12 16  1  0  0  0  0
 12  8  1  0  0  0  0
 13  2  1  0  0  0  0
 13 18  1  1  0  0  0
 16  5  1  0  0  0  0
 17  6  1  0  0  0  0
 17 16  2  0  0  0  0
 18 10  1  0  0  0  0
 19 20  1  0  0  0  0
 20 15  2  0  0  0  0
 23 22  1  1  0  0  0
 23 21  1  0  0  0  0
 24 27  1  1  0  0  0
 24 28  1  0  0  0  0
 25 28  1  0  0  0  0
 29 26  2  1  0  0  0
 29 31  1  0  0  0  0
 29 30  1  0  0  0  0
 30 25  1  0  0  0  0
 30 23  1  1  0  0  0
 31 24  1  0  0  0  0
M  END
>  <MODEL>
2

>  <REMARK>
 VINA RESULT:     -10.1      1.242      1.718
  Name = 
  3 active torsions:
  status: ('A' for Active; 'I' for Inactive)
    1  A    between atoms: C_5  and  O_16
    2  A    between atoms: C_5  and  C_30
    3  A    between atoms: C_10  and  O_16
                            x       y       z     vdW  Elec       q    Type
                         _______ _______ _______ _____ _____    ______ ____

>  <TORSDO>
F 3

$$$$
=
 OpenBabel11122410553D

 31 35  0  0  1  0  0  0  0  0999 V2000
  183.5870  178.9960  144.1790 C   0  0  0  0  0  0  0  0  0  0  0  0
  186.7130  178.6000  142.1170 N   0  0  0  0  0  0  0  0  0  0  0  0
  187.6890  177.8910  142.9290 C   0  0  0  0  0  0  0  0  0  0  0  0
  188.4490  177.0110  145.0720 C   0  0  0  0  0  0  0  0  0  0  0  0
  185.3210  178.7030  142.4970 C   0  0  0  0  0  0  0  0  0  0  0  0
  182.6040  178.8860  143.1940 C   0  0  0  0  0  3  0  0  0  0  0  0
  187.5020  177.6960  144.3080 C   0  0  0  0  0  3  0  0  0  0  0  0
  186.1370  178.1440  139.7810 C   0  0  2  0  0  3  0  0  0  0  0  0
  183.2320  179.1870  145.4720 F   0  0  0  0  0  0  0  0  0  0  0  0
  189.0780  177.5240  140.8660 C   0  0  0  0  0  2  0  0  0  0  0  0
  188.1900  176.7840  146.7880 Cl  0  0  0  0  0  0  0  0  0  0  0  0
  184.6660  178.4800  140.0460 C   0  0  0  0  0  2  0  0  0  0  0  0
  187.0230  178.9660  140.7220 C   0  0  2  0  0  3  0  0  0  0  0  0
  184.9360  178.9090  143.8310 C   0  0  0  0  0  3  0  0  0  0  0  0
  189.6010  176.5040  144.4660 C   0  0  0  0  0  3  0  0  0  0  0  0
  184.3200  178.6000  141.5050 C   0  0  0  0  0  0  0  0  0  0  0  0
  182.9710  178.6950  141.8600 C   0  0  0  0  0  3  0  0  0  0  0  0
  188.5160  178.8550  140.3990 C   0  0  0  0  0  2  0  0  0  0  0  0
  188.8620  177.3830  142.3340 C   0  0  0  0  0  0  0  0  0  0  0  0
  189.8040  176.6870  143.0970 C   0  0  0  0  0  3  0  0  0  0  0  0
  186.4190  178.4220  138.4320 O   0  0  0  0  0  0  0  0  0  0  0  0
  185.2120  176.5530  137.5360 C   0  0  0  0  0  1  0  0  0  0  0  0
  186.5810  177.1830  137.7930 C   0  0  1  0  0  3  0  0  0  0  0  0
  189.9870  175.8190  136.6700 C   0  0  1  0  0  3  0  0  0  0  0  0
  187.6110  175.9810  135.8190 C   0  0  0  0  0  2  0  0  0  0  0  0
  188.6430  179.4440  137.4730 O   0  0  0  0  0  0  0  0  0  0  0  0
  190.9620  174.8970  137.3720 C   0  0  0  0  0  1  0  0  0  0  0  0
  188.6040  175.1730  136.6610 C   0  0  0  0  0  2  0  0  0  0  0  0
  188.8650  178.2860  136.5110 S   0  0  2  0  0  0  0  0  0  0  0  0
  187.3080  177.3470  136.4430 C   0  0  2  0  0  3  0  0  0  0  0  0
  189.9610  177.1600  137.3880 C   0  0  0  0  0  2  0  0  0  0  0  0
  1  9  1  0  0  0  0
  2  5  1  0  0  0  0
  2  3  1  0  0  0  0
  3  7  1  0  0  0  0
  4 11  1  0  0  0  0
  5 14  2  0  0  0  0
  6  1  2  0  0  0  0
  7  4  2  0  0  0  0
  8 21  1  6  0  0  0
  8 12  1  0  0  0  0
  8 13  1  0  0  0  0
 10 19  1  0  0  0  0
 12 16  1  0  0  0  0
 13 18  1  6  0  0  0
 13  2  1  0  0  0  0
 14  1  1  0  0  0  0
 15  4  1  0  0  0  0
 16 17  2  0  0  0  0
 16  5  1  0  0  0  0
 17  6  1  0  0  0  0
 18 10  1  0  0  0  0
 19  3  2  0  0  0  0
 19 20  1  0  0  0  0
 20 15  2  0  0  0  0
 23 22  1  6  0  0  0
 23 21  1  0  0  0  0
 24 27  1  1  0  0  0
 24 31  1  0  0  0  0
 25 30  1  0  0  0  0
 25 28  1  0  0  0  0
 28 24  1  0  0  0  0
 29 31  1  0  0  0  0
 29 26  2  1  0  0  0
 30 29  1  0  0  0  0
 30 23  1  1  0  0  0
M  END
>  <MODEL>
3

>  <REMARK>
 VINA RESULT:      -9.4      2.568      4.815
  Name = 
  3 active torsions:
  status: ('A' for Active; 'I' for Inactive)
    1  A    between atoms: C_5  and  O_16
    2  A    between atoms: C_5  and  C_30
    3  A    between atoms: C_10  and  O_16
                            x       y       z     vdW  Elec       q    Type
                         _______ _______ _______ _____ _____    ______ ____

>  <TORSDO>
F 3

$$$$
=
 OpenBabel11122410553D

 31 35  0  0  1  0  0  0  0  0999 V2000
  189.3330  176.7870  141.7730 C   0  0  0  0  0  0  0  0  0  0  0  0
  186.8200  177.7190  144.4180 N   0  0  0  0  0  0  0  0  0  0  0  0
  187.5160  177.7550  145.6950 C   0  0  0  0  0  0  0  0  0  0  0  0
  189.4680  177.2800  147.0760 C   0  0  0  0  0  0  0  0  0  0  0  0
  187.5230  177.6430  143.1560 C   0  0  0  0  0  0  0  0  0  0  0  0
  188.8670  177.5330  140.6890 C   0  0  0  0  0  3  0  0  0  0  0  0
  188.8130  177.2360  145.8430 C   0  0  0  0  0  3  0  0  0  0  0  0
  185.2560  179.3930  143.5510 C   0  0  2  0  0  3  0  0  0  0  0  0
  190.4350  176.0120  141.6380 F   0  0  0  0  0  0  0  0  0  0  0  0
  185.5290  178.9220  146.6990 C   0  0  0  0  0  2  0  0  0  0  0  0
  191.0830  176.6270  147.2320 Cl  0  0  0  0  0  0  0  0  0  0  0  0
  185.7820  179.1920  142.1270 C   0  0  0  0  0  2  0  0  0  0  0  0
  185.3930  178.0830  144.3330 C   0  0  2  0  0  3  0  0  0  0  0  0
  188.6620  176.8390  142.9960 C   0  0  0  0  0  3  0  0  0  0  0  0
  188.8340  177.8500  148.1830 C   0  0  0  0  0  3  0  0  0  0  0  0
  187.0530  178.3900  142.0520 C   0  0  0  0  0  0  0  0  0  0  0  0
  187.7260  178.3260  140.8280 C   0  0  0  0  0  3  0  0  0  0  0  0
  184.7080  178.1220  145.7030 C   0  0  0  0  0  2  0  0  0  0  0  0
  186.8850  178.3160  146.8240 C   0  0  0  0  0  0  0  0  0  0  0  0
  187.5460  178.3710  148.0550 C   0  0  0  0  0  3  0  0  0  0  0  0
  183.9170  179.8110  143.4740 O   0  0  0  0  0  0  0  0  0  0  0  0
  182.1480  178.2000  143.6500 C   0  0  0  0  0  1  0  0  0  0  0  0
  183.2270  178.8170  142.7600 C   0  0  1  0  0  3  0  0  0  0  0  0
  180.3500  177.4110  140.6470 C   0  0  1  0  0  3  0  0  0  0  0  0
  181.0480  179.5860  141.7310 C   0  0  0  0  0  2  0  0  0  0  0  0
  184.2090  177.9280  139.9820 O   0  0  0  0  0  0  0  0  0  0  0  0
  179.4900  176.1810  140.8430 C   0  0  0  0  0  1  0  0  0  0  0  0
  180.3310  178.2470  141.9240 C   0  0  0  0  0  2  0  0  0  0  0  0
  182.7740  178.4370  139.9810 S   0  0  2  0  0  0  0  0  0  0  0  0
  182.5530  179.4050  141.5040 C   0  0  2  0  0  3  0  0  0  0  0  0
  181.7670  176.9790  140.2950 C   0  0  0  0  0  2  0  0  0  0  0  0
  1 14  1  0  0  0  0
  2  3  1  0  0  0  0
  3  7  2  0  0  0  0
  3 19  1  0  0  0  0
  4 11  1  0  0  0  0
  4 15  2  0  0  0  0
  5  2  1  0  0  0  0
  6 17  1  0  0  0  0
  6  1  2  0  0  0  0
  7  4  1  0  0  0  0
  8 21  1  6  0  0  0
  8 13  1  0  0  0  0
  9  1  1  0  0  0  0
 10 19  1  0  0  0  0
 12  8  1  0  0  0  0
 13  2  1  0  0  0  0
 13 18  1  1  0  0  0
 14  5  2  0  0  0  0
 16 12  1  0  0  0  0
 16  5  1  0  0  0  0
 17 16  2  0  0  0  0
 18 10  1  0  0  0  0
 19 20  2  0  0  0  0
 20 15  1  0  0  0  0
 23 21  1  0  0  0  0
 23 22  1  1  0  0  0
 24 27  1  1  0  0  0
 24 28  1  0  0  0  0
 25 28  1  0  0  0  0
 29 26  2  1  0  0  0
 29 31  1  0  0  0  0
 29 30  1  0  0  0  0
 30 25  1  0  0  0  0
 30 23  1  1  0  0  0
 31 24  1  0  0  0  0
M  END
>  <MODEL>
4

>  <REMARK>
 VINA RESULT:      -9.2      2.227      2.907
  Name = 
  3 active torsions:
  status: ('A' for Active; 'I' for Inactive)
    1  A    between atoms: C_5  and  O_16
    2  A    between atoms: C_5  and  C_30
    3  A    between atoms: C_10  and  O_16
                            x       y       z     vdW  Elec       q    Type
                         _______ _______ _______ _____ _____    ______ ____

>  <TORSDO>
F 3

$$$$
=
 OpenBabel11122410553D

 31 35  0  0  1  0  0  0  0  0999 V2000
  183.8290  178.9060  144.8920 C   0  0  0  0  0  0  0  0  0  0  0  0
  186.6490  178.6100  142.4140 N   0  0  0  0  0  0  0  0  0  0  0  0
  187.7410  177.9090  143.0710 C   0  0  0  0  0  0  0  0  0  0  0  0
  188.8050  177.0120  145.0720 C   0  0  0  0  0  0  0  0  0  0  0  0
  185.3210  178.6770  142.9830 C   0  0  0  0  0  0  0  0  0  0  0  0
  182.7220  178.7910  144.0500 C   0  0  0  0  0  3  0  0  0  0  0  0
  187.7490  177.6890  144.4590 C   0  0  0  0  0  3  0  0  0  0  0  0
  185.7660  178.1790  140.1700 C   0  0  2  0  0  3  0  0  0  0  0  0
  183.6510  179.0690  146.2250 F   0  0  0  0  0  0  0  0  0  0  0  0
  188.8390  177.6040  140.8300 C   0  0  0  0  0  2  0  0  0  0  0  0
  188.7890  176.7520  146.8030 Cl  0  0  0  0  0  0  0  0  0  0  0  0
  184.3390  178.4790  140.6410 C   0  0  0  0  0  2  0  0  0  0  0  0
  186.7570  179.0040  140.9970 C   0  0  2  0  0  3  0  0  0  0  0  0
  185.1190  178.8540  144.3610 C   0  0  0  0  0  3  0  0  0  0  0  0
  189.8720  176.5390  144.3050 C   0  0  0  0  0  3  0  0  0  0  0  0
  184.1950  178.5680  142.1360 C   0  0  0  0  0  0  0  0  0  0  0  0
  182.9050  178.6290  142.6740 C   0  0  0  0  0  3  0  0  0  0  0  0
  188.1940  178.9310  140.4690 C   0  0  0  0  0  2  0  0  0  0  0  0
  188.8300  177.4350  142.3110 C   0  0  0  0  0  0  0  0  0  0  0  0
  189.8810  176.7470  142.9250 C   0  0  0  0  0  3  0  0  0  0  0  0
  185.8540  178.4840  138.8020 O   0  0  0  0  0  0  0  0  0  0  0  0
  183.6650  178.0500  137.9230 C   0  0  0  0  0  1  0  0  0  0  0  0
  185.0850  177.5230  138.1260 C   0  0  1  0  0  3  0  0  0  0  0  0
  185.2540  174.1780  136.2540 C   0  0  1  0  0  3  0  0  0  0  0  0
  184.6360  176.5910  135.8170 C   0  0  0  0  0  2  0  0  0  0  0  0
  187.9730  176.4690  137.9730 O   0  0  0  0  0  0  0  0  0  0  0  0
  184.6740  172.8230  136.5990 C   0  0  0  0  0  1  0  0  0  0  0  0
  184.1470  175.2290  136.3180 C   0  0  0  0  0  2  0  0  0  0  0  0
  187.1230  176.0780  136.7720 S   0  0  2  0  0  0  0  0  0  0  0  0
  185.6920  177.2000  136.7460 C   0  0  2  0  0  3  0  0  0  0  0  0
  186.3770  174.5040  137.2270 C   0  0  0  0  0  2  0  0  0  0  0  0
  1  9  1  0  0  0  0
  2  5  1  0  0  0  0
  2  3  1  0  0  0  0
  3  7  1  0  0  0  0
  4 11  1  0  0  0  0
  5 14  2  0  0  0  0
  6  1  2  0  0  0  0
  7  4  2  0  0  0  0
  8 21  1  6  0  0  0
  8 12  1  0  0  0  0
  8 13  1  0  0  0  0
 10 19  1  0  0  0  0
 12 16  1  0  0  0  0
 13 18  1  6  0  0  0
 13  2  1  0  0  0  0
 14  1  1  0  0  0  0
 15  4  1  0  0  0  0
 16 17  2  0  0  0  0
 16  5  1  0  0  0  0
 17  6  1  0  0  0  0
 18 10  1  0  0  0  0
 19 20  1  0  0  0  0
 19  3  2  0  0  0  0
 20 15  2  0  0  0  0
 23 22  1  6  0  0  0
 23 21  1  0  0  0  0
 24 28  1  0  0  0  0
 24 27  1  1  0  0  0
 24 31  1  0  0  0  0
 25 28  1  0  0  0  0
 25 30  1  0  0  0  0
 29 31  1  0  0  0  0
 29 26  2  1  0  0  0
 30 29  1  0  0  0  0
 30 23  1  1  0  0  0
M  END
>  <MODEL>
5

>  <REMARK>
 VINA RESULT:      -9.0      2.173      4.188
  Name = 
  3 active torsions:
  status: ('A' for Active; 'I' for Inactive)
    1  A    between atoms: C_5  and  O_16
    2  A    between atoms: C_5  and  C_30
    3  A    between atoms: C_10  and  O_16
                            x       y       z     vdW  Elec       q    Type
                         _______ _______ _______ _____ _____    ______ ____

>  <TORSDO>
F 3

$$$$
=
 OpenBabel11122410553D

 31 35  0  0  1  0  0  0  0  0999 V2000
  185.0300  178.9800  145.7530 C   0  0  0  0  0  0  0  0  0  0  0  0
  186.8630  178.4420  142.5070 N   0  0  0  0  0  0  0  0  0  0  0  0
  188.0970  177.7350  142.8100 C   0  0  0  0  0  0  0  0  0  0  0  0
  189.7470  176.9050  144.4000 C   0  0  0  0  0  0  0  0  0  0  0  0
  185.8000  178.5920  143.4770 C   0  0  0  0  0  0  0  0  0  0  0  0
  183.7040  178.8640  145.3320 C   0  0  0  0  0  3  0  0  0  0  0  0
  188.5600  177.5890  144.1280 C   0  0  0  0  0  3  0  0  0  0  0  0
  185.2770  177.9280  140.7120 C   0  0  2  0  0  3  0  0  0  0  0  0
  185.3080  179.2210  147.0560 F   0  0  0  0  0  0  0  0  0  0  0  0
  188.3830  177.2690  140.3560 C   0  0  0  0  0  2  0  0  0  0  0  0
  190.3000  176.7380  146.0520 Cl  0  0  0  0  0  0  0  0  0  0  0  0
  184.0930  178.3080  141.6070 C   0  0  0  0  0  2  0  0  0  0  0  0
  186.5020  178.7570  141.1110 C   0  0  2  0  0  3  0  0  0  0  0  0
  186.0690  178.8490  144.8300 C   0  0  0  0  0  3  0  0  0  0  0  0
  190.4890  176.3500  143.3550 C   0  0  0  0  0  3  0  0  0  0  0  0
  184.4540  178.4830  143.0570 C   0  0  0  0  0  0  0  0  0  0  0  0
  183.4180  178.6230  143.9860 C   0  0  0  0  0  3  0  0  0  0  0  0
  187.6810  178.5990  140.1450 C   0  0  0  0  0  2  0  0  0  0  0  0
  188.8630  177.1790  141.7640 C   0  0  0  0  0  0  0  0  0  0  0  0
  190.0440  176.4840  142.0390 C   0  0  0  0  0  3  0  0  0  0  0  0
  184.9120  178.1570  139.3750 O   0  0  0  0  0  0  0  0  0  0  0  0
  183.8980  180.3110  139.0870 C   0  0  0  0  0  1  0  0  0  0  0  0
  183.6810  178.8320  139.4040 C   0  0  1  0  0  3  0  0  0  0  0  0
  179.9070  178.2030  139.6880 C   0  0  1  0  0  3  0  0  0  0  0  0
  181.5650  179.2270  138.0760 C   0  0  0  0  0  2  0  0  0  0  0  0
  183.0490  175.8200  139.4850 O   0  0  0  0  0  0  0  0  0  0  0  0
  178.9310  178.5370  140.7960 C   0  0  0  0  0  1  0  0  0  0  0  0
  180.6800  179.4620  139.3040 C   0  0  0  0  0  2  0  0  0  0  0  0
  181.9580  176.6480  138.8230 S   0  0  2  0  0  0  0  0  0  0  0  0
  182.7030  178.2430  138.3680 C   0  0  2  0  0  3  0  0  0  0  0  0
  180.8470  177.1050  140.1630 C   0  0  0  0  0  2  0  0  0  0  0  0
  1  9  1  0  0  0  0
  2  3  1  0  0  0  0
  2  5  1  0  0  0  0
  3  7  1  0  0  0  0
  4 11  1  0  0  0  0
  5 14  1  0  0  0  0
  6  1  1  0  0  0  0
  7  4  2  0  0  0  0
  8 21  1  6  0  0  0
  8 13  1  0  0  0  0
  8 12  1  0  0  0  0
 10 19  1  0  0  0  0
 12 16  1  0  0  0  0
 13 18  1  6  0  0  0
 13  2  1  0  0  0  0
 14  1  2  0  0  0  0
 15  4  1  0  0  0  0
 16  5  2  0  0  0  0
 16 17  1  0  0  0  0
 17  6  2  0  0  0  0
 18 10  1  0  0  0  0
 19 20  1  0  0  0  0
 19  3  2  0  0  0  0
 20 15  2  0  0  0  0
 21 23  1  0  0  0  0
 23 22  1  6  0  0  0
 24 31  1  0  0  0  0
 24 27  1  1  0  0  0
 25 30  1  0  0  0  0
 25 28  1  0  0  0  0
 28 24  1  0  0  0  0
 29 26  2  1  0  0  0
 29 31  1  0  0  0  0
 30 29  1  0  0  0  0
 30 23  1  1  0  0  0
M  END
>  <MODEL>
6

>  <REMARK>
 VINA RESULT:      -9.0      2.431      4.618
  Name = 
  3 active torsions:
  status: ('A' for Active; 'I' for Inactive)
    1  A    between atoms: C_5  and  O_16
    2  A    between atoms: C_5  and  C_30
    3  A    between atoms: C_10  and  O_16
                            x       y       z     vdW  Elec       q    Type
                         _______ _______ _______ _____ _____    ______ ____

>  <TORSDO>
F 3

$$$$
=
 OpenBabel11122410553D

 31 35  0  0  1  0  0  0  0  0999 V2000
  190.9590  177.0940  142.1260 C   0  0  0  0  0  0  0  0  0  0  0  0
  189.8480  177.6930  138.5780 N   0  0  0  0  0  0  0  0  0  0  0  0
  190.6180  176.8080  137.7190 C   0  0  0  0  0  0  0  0  0  0  0  0
  192.4720  175.2670  137.3560 C   0  0  0  0  0  0  0  0  0  0  0  0
  189.8330  177.5540  140.0170 C   0  0  0  0  0  0  0  0  0  0  0  0
  189.7600  177.2810  142.8150 C   0  0  0  0  0  3  0  0  0  0  0  0
  191.7440  176.1140  138.1940 C   0  0  0  0  0  3  0  0  0  0  0  0
  187.4300  178.0760  138.4990 C   0  0  2  0  0  3  0  0  0  0  0  0
  192.0880  176.7790  142.8040 F   0  0  0  0  0  0  0  0  0  0  0  0
  189.0270  177.3120  135.8400 C   0  0  0  0  0  2  0  0  0  0  0  0
  193.8710  174.4160  137.9740 Cl  0  0  0  0  0  0  0  0  0  0  0  0
  187.3670  178.1890  140.0250 C   0  0  0  0  0  2  0  0  0  0  0  0
  188.7980  178.5610  138.0100 C   0  0  2  0  0  3  0  0  0  0  0  0
  190.9950  177.2350  140.7370 C   0  0  0  0  0  3  0  0  0  0  0  0
  192.0810  175.0960  136.0260 C   0  0  0  0  0  3  0  0  0  0  0  0
  188.6240  177.7480  140.7230 C   0  0  0  0  0  0  0  0  0  0  0  0
  188.5970  177.6130  142.1150 C   0  0  0  0  0  3  0  0  0  0  0  0
  188.8890  178.6800  136.4850 C   0  0  0  0  0  2  0  0  0  0  0  0
  190.2430  176.6340  136.3710 C   0  0  0  0  0  0  0  0  0  0  0  0
  190.9650  175.7760  135.5360 C   0  0  0  0  0  3  0  0  0  0  0  0
  186.3860  178.8440  137.9550 O   0  0  0  0  0  0  0  0  0  0  0  0
  185.9550  176.5850  137.2720 C   0  0  0  0  0  1  0  0  0  0  0  0
  185.3570  177.9450  137.6280 C   0  0  1  0  0  3  0  0  0  0  0  0
  181.5210  178.0430  137.6830 C   0  0  1  0  0  3  0  0  0  0  0  0
  183.4160  176.6070  138.5450 C   0  0  0  0  0  2  0  0  0  0  0  0
  184.3200  180.4350  139.1110 O   0  0  0  0  0  0  0  0  0  0  0  0
  180.5210  178.1780  136.5550 C   0  0  0  0  0  1  0  0  0  0  0  0
  182.4840  176.9010  137.3650 C   0  0  0  0  0  2  0  0  0  0  0  0
  183.4010  179.2290  139.2420 S   0  0  2  0  0  0  0  0  0  0  0  0
  184.3870  177.7620  138.8120 C   0  0  2  0  0  3  0  0  0  0  0  0
  182.2680  179.3590  137.8500 C   0  0  0  0  0  2  0  0  0  0  0  0
  1  9  1  0  0  0  0
  1  6  1  0  0  0  0
  2  5  1  0  0  0  0
  3  7  1  0  0  0  0
  3  2  1  0  0  0  0
  4 11  1  0  0  0  0
  4  7  2  0  0  0  0
  5 16  2  0  0  0  0
  5 14  1  0  0  0  0
  8 21  1  6  0  0  0
  8 12  1  0  0  0  0
 10 19  1  0  0  0  0
 10 18  1  0  0  0  0
 12 16  1  0  0  0  0
 13 18  1  6  0  0  0
 13  8  1  0  0  0  0
 13  2  1  0  0  0  0
 14  1  2  0  0  0  0
 15  4  1  0  0  0  0
 16 17  1  0  0  0  0
 17  6  2  0  0  0  0
 19  3  2  0  0  0  0
 20 15  2  0  0  0  0
 20 19  1  0  0  0  0
 23 22  1  1  0  0  0
 23 21  1  0  0  0  0
 24 27  1  6  0  0  0
 24 31  1  0  0  0  0
 25 30  1  0  0  0  0
 28 24  1  0  0  0  0
 28 25  1  0  0  0  0
 29 26  2  6  0  0  0
 30 23  1  6  0  0  0
 30 29  1  0  0  0  0
 31 29  1  0  0  0  0
M  END
>  <MODEL>
7

>  <REMARK>
 VINA RESULT:      -8.9      3.670      6.387
  Name = 
  3 active torsions:
  status: ('A' for Active; 'I' for Inactive)
    1  A    between atoms: C_5  and  O_16
    2  A    between atoms: C_5  and  C_30
    3  A    between atoms: C_10  and  O_16
                            x       y       z     vdW  Elec       q    Type
                         _______ _______ _______ _____ _____    ______ ____

>  <TORSDO>
F 3

$$$$
=
 OpenBabel11122410553D

 31 35  0  0  1  0  0  0  0  0999 V2000
  184.6070  178.7620  145.5670 C   0  0  0  0  0  0  0  0  0  0  0  0
  187.0230  178.5400  142.6860 N   0  0  0  0  0  0  0  0  0  0  0  0
  188.1780  177.7810  143.1370 C   0  0  0  0  0  0  0  0  0  0  0  0
  189.4980  176.7530  144.9100 C   0  0  0  0  0  0  0  0  0  0  0  0
  185.7950  178.6060  143.4480 C   0  0  0  0  0  0  0  0  0  0  0  0
  183.3860  178.7170  144.8930 C   0  0  0  0  0  3  0  0  0  0  0  0
  188.3830  177.4850  144.4950 C   0  0  0  0  0  3  0  0  0  0  0  0
  185.8070  178.2520  140.5790 C   0  0  2  0  0  3  0  0  0  0  0  0
  184.6330  178.8550  146.9170 F   0  0  0  0  0  0  0  0  0  0  0  0
  188.9250  177.5760  140.7460 C   0  0  0  0  0  2  0  0  0  0  0  0
  189.7280  176.3990  146.6080 Cl  0  0  0  0  0  0  0  0  0  0  0  0
  184.4750  178.5570  141.2700 C   0  0  0  0  0  2  0  0  0  0  0  0
  186.9330  179.0100  141.2900 C   0  0  2  0  0  3  0  0  0  0  0  0
  185.8030  178.7110  144.8480 C   0  0  0  0  0  3  0  0  0  0  0  0
  190.4250  176.3000  143.9700 C   0  0  0  0  0  3  0  0  0  0  0  0
  184.5540  178.5680  142.7730 C   0  0  0  0  0  0  0  0  0  0  0  0
  183.3600  178.6270  143.4990 C   0  0  0  0  0  3  0  0  0  0  0  0
  188.2740  178.9340  140.5520 C   0  0  0  0  0  2  0  0  0  0  0  0
  189.1290  177.3260  142.2010 C   0  0  0  0  0  0  0  0  0  0  0  0
  190.2380  176.5830  142.6160 C   0  0  0  0  0  3  0  0  0  0  0  0
  185.7030  178.6300  139.2300 O   0  0  0  0  0  0  0  0  0  0  0  0
  183.8070  177.2720  138.6660 C   0  0  0  0  0  1  0  0  0  0  0  0
  185.3140  177.4820  138.5210 C   0  0  1  0  0  3  0  0  0  0  0  0
  187.5840  175.3090  136.3190 C   0  0  1  0  0  3  0  0  0  0  0  0
  185.2760  176.3390  136.2640 C   0  0  0  0  0  2  0  0  0  0  0  0
  187.8580  179.0030  137.6900 O   0  0  0  0  0  0  0  0  0  0  0  0
  188.3330  174.0320  136.6310 C   0  0  0  0  0  1  0  0  0  0  0  0
  186.1180  175.1400  136.7090 C   0  0  0  0  0  2  0  0  0  0  0  0
  187.3890  177.9980  136.6480 S   0  0  2  0  0  0  0  0  0  0  0  0
  185.6500  177.6180  137.0220 C   0  0  2  0  0  3  0  0  0  0  0  0
  188.2250  176.4630  137.0790 C   0  0  0  0  0  2  0  0  0  0  0  0
  1  9  1  0  0  0  0
  2  3  1  0  0  0  0
  2  5  1  0  0  0  0
  3  7  1  0  0  0  0
  4 11  1  0  0  0  0
  5 14  1  0  0  0  0
  6  1  1  0  0  0  0
  7  4  2  0  0  0  0
  8 21  1  6  0  0  0
  8 12  1  0  0  0  0
  8 13  1  0  0  0  0
 10 19  1  0  0  0  0
 12 16  1  0  0  0  0
 13 18  1  6  0  0  0
 13  2  1  0  0  0  0
 14  1  2  0  0  0  0
 15  4  1  0  0  0  0
 16  5  2  0  0  0  0
 16 17  1  0  0  0  0
 17  6  2  0  0  0  0
 18 10  1  0  0  0  0
 19 20  1  0  0  0  0
 19  3  2  0  0  0  0
 20 15  2  0  0  0  0
 23 22  1  6  0  0  0
 23 21  1  0  0  0  0
 24 27  1  1  0  0  0
 24 28  1  0  0  0  0
 24 31  1  0  0  0  0
 25 28  1  0  0  0  0
 25 30  1  0  0  0  0
 29 30  1  0  0  0  0
 29 31  1  0  0  0  0
 29 26  2  1  0  0  0
 30 23  1  1  0  0  0
M  END
>  <MODEL>
8

>  <REMARK>
 VINA RESULT:      -8.8      2.129      4.229
  Name = 
  3 active torsions:
  status: ('A' for Active; 'I' for Inactive)
    1  A    between atoms: C_5  and  O_16
    2  A    between atoms: C_5  and  C_30
    3  A    between atoms: C_10  and  O_16
                            x       y       z     vdW  Elec       q    Type
                         _______ _______ _______ _____ _____    ______ ____

>  <TORSDO>
F 3

$$$$
=
 OpenBabel11122410553D

 31 35  0  0  1  0  0  0  0  0999 V2000
  185.2040  178.6050  144.1960 C   0  0  0  0  0  0  0  0  0  0  0  0
  188.9060  178.1250  143.7000 N   0  0  0  0  0  0  0  0  0  0  0  0
  189.4560  177.6210  144.9480 C   0  0  0  0  0  0  0  0  0  0  0  0
  189.2560  177.1370  147.3290 C   0  0  0  0  0  0  0  0  0  0  0  0
  187.4820  178.1850  143.4510 C   0  0  0  0  0  0  0  0  0  0  0  0
  184.7210  178.2750  142.9290 C   0  0  0  0  0  3  0  0  0  0  0  0
  188.7120  177.6270  146.1390 C   0  0  0  0  0  3  0  0  0  0  0  0
  189.3570  177.2770  141.4470 C   0  0  2  0  0  3  0  0  0  0  0  0
  184.3420  178.9650  145.1770 F   0  0  0  0  0  0  0  0  0  0  0  0
  191.5790  177.0440  143.7310 C   0  0  0  0  0  2  0  0  0  0  0  0
  188.3050  177.1570  148.7980 Cl  0  0  0  0  0  0  0  0  0  0  0  0
  187.9090  177.5420  141.0240 C   0  0  0  0  0  2  0  0  0  0  0  0
  189.7680  178.2950  142.5150 C   0  0  2  0  0  3  0  0  0  0  0  0
  186.5750  178.5640  144.4530 C   0  0  0  0  0  3  0  0  0  0  0  0
  190.5560  176.6280  147.3440 C   0  0  0  0  0  3  0  0  0  0  0  0
  186.9860  177.8590  142.1680 C   0  0  0  0  0  0  0  0  0  0  0  0
  185.6110  177.9100  141.9160 C   0  0  0  0  0  3  0  0  0  0  0  0
  191.2610  178.2450  142.8570 C   0  0  0  0  0  2  0  0  0  0  0  0
  190.7710  177.1140  144.9820 C   0  0  0  0  0  0  0  0  0  0  0  0
  191.3110  176.6130  146.1710 C   0  0  0  0  0  3  0  0  0  0  0  0
  190.1750  177.3650  140.3070 O   0  0  0  0  0  0  0  0  0  0  0  0
  188.7520  179.0030  139.2830 C   0  0  0  0  0  1  0  0  0  0  0  0
  189.3190  177.5850  139.2160 C   0  0  1  0  0  3  0  0  0  0  0  0
  188.2070  175.8430  135.9830 C   0  0  1  0  0  3  0  0  0  0  0  0
  189.2640  178.0170  136.7240 C   0  0  0  0  0  2  0  0  0  0  0  0
  190.9310  175.0110  138.7180 O   0  0  0  0  0  0  0  0  0  0  0  0
  186.8860  175.2040  135.6100 C   0  0  0  0  0  1  0  0  0  0  0  0
  187.9530  177.2620  136.4880 C   0  0  0  0  0  2  0  0  0  0  0  0
  190.4960  175.7070  137.4370 S   0  0  2  0  0  0  0  0  0  0  0  0
  190.0720  177.4190  137.8810 C   0  0  2  0  0  3  0  0  0  0  0  0
  188.8890  174.9960  137.0480 C   0  0  0  0  0  2  0  0  0  0  0  0
  1 14  1  0  0  0  0
  1  9  1  0  0  0  0
  2  3  1  0  0  0  0
  3 19  2  0  0  0  0
  3  7  1  0  0  0  0
  4 15  1  0  0  0  0
  4 11  1  0  0  0  0
  5  2  1  0  0  0  0
  5 14  2  0  0  0  0
  6  1  2  0  0  0  0
  7  4  2  0  0  0  0
  8 21  1  6  0  0  0
  8 13  1  0  0  0  0
 10 19  1  0  0  0  0
 12  8  1  0  0  0  0
 12 16  1  0  0  0  0
 13 18  1  1  0  0  0
 13  2  1  0  0  0  0
 16  5  1  0  0  0  0
 17 16  2  0  0  0  0
 17  6  1  0  0  0  0
 18 10  1  0  0  0  0
 19 20  1  0  0  0  0
 20 15  2  0  0  0  0
 23 22  1  1  0  0  0
 23 21  1  0  0  0  0
 24 27  1  1  0  0  0
 24 28  1  0  0  0  0
 24 31  1  0  0  0  0
 25 30  1  0  0  0  0
 28 25  1  0  0  0  0
 29 30  1  0  0  0  0
 29 26  2  1  0  0  0
 30 23  1  1  0  0  0
 31 29  1  0  0  0  0
M  END
>  <MODEL>
9

>  <REMARK>
 VINA RESULT:      -8.7      3.028      4.736
  Name = 
  3 active torsions:
  status: ('A' for Active; 'I' for Inactive)
    1  A    between atoms: C_5  and  O_16
    2  A    between atoms: C_5  and  C_30
    3  A    between atoms: C_10  and  O_16
                            x       y       z     vdW  Elec       q    Type
                         _______ _______ _______ _____ _____    ______ ____

>  <TORSDO>
F 3

$$$$
