=
 OpenBabel11122411083D

 31 35  0  0  1  0  0  0  0  0999 V2000
  184.3420  178.6590  144.6630 C   0  0  0  0  0  0  0  0  0  0  0  0
  187.9300  177.8730  143.8310 C   0  0  0  0  0  0  0  0  0  0  0  0
  188.6040  177.6170  145.0610 C   0  0  0  0  0  0  0  0  0  0  0  0
  187.2300  178.4380  138.6330 O   0  0  0  0  0  0  0  0  0  0  0  0
  188.4340  178.1450  138.8630 C   0  0  0  0  0  0  0  0  0  0  0  0
  188.6650  177.4110  147.4950 C   0  0  0  0  0  0  0  0  0  0  0  0
  186.5480  178.2100  143.7140 C   0  0  0  0  0  0  0  0  0  0  0  0
  183.8250  178.8820  143.3880 C   0  0  0  0  0  3  0  0  0  0  0  0
  187.9670  177.6690  146.3140 C   0  0  0  0  0  3  0  0  0  0  0  0
  188.1030  178.0230  141.3940 C   0  0  0  0  0  0  0  0  0  0  0  0
  183.5400  178.7640  145.7480 F   0  0  0  0  0  0  0  0  0  0  0  0
  190.6360  177.2300  143.8500 N   0  0  0  0  0  0  0  0  0  0  0  0
  187.9640  177.4750  148.8030 C   0  0  0  0  0  1  0  0  0  0  0  0
  186.7860  178.3420  141.3230 N   0  0  0  0  0  0  0  0  0  0  0  0
  188.6960  177.7850  142.6410 C   0  0  0  0  0  0  0  0  0  0  0  0
  188.8950  177.9300  140.2030 N   0  0  0  0  0  2  0  0  0  0  0  0
  185.6900  178.3270  144.8220 C   0  0  0  0  0  3  0  0  0  0  0  0
  190.0230  177.0920  147.4460 C   0  0  0  0  0  3  0  0  0  0  0  0
  186.0040  178.4400  142.4250 C   0  0  0  0  0  0  0  0  0  0  0  0
  184.6540  178.7730  142.2720 C   0  0  0  0  0  3  0  0  0  0  0  0
  190.0170  177.4670  142.6980 N   0  0  0  0  0  0  0  0  0  0  0  0
  189.9810  177.2930  145.0330 C   0  0  0  0  0  0  0  0  0  0  0  0
  190.6790  177.0340  146.2160 C   0  0  0  0  0  3  0  0  0  0  0  0
  188.3870  176.1150  135.7450 C   0  0  1  0  0  3  0  0  0  0  0  0
  188.7590  178.5140  136.3870 C   0  0  0  0  0  2  0  0  0  0  0  0
  190.5710  176.2100  138.7610 C   0  0  0  0  0  1  0  0  0  0  0  0
  187.4220  175.1890  135.3520 O   0  0  0  0  0  1  0  0  0  0  0  0
  187.7540  177.4980  135.8430 C   0  0  0  0  0  2  0  0  0  0  0  0
  189.9750  176.6780  137.5180 N   0  0  0  0  0  0  0  0  0  0  0  0
  189.3870  178.0230  137.6970 C   0  0  2  0  0  3  0  0  0  0  0  0
  188.9610  175.7110  137.0990 C   0  0  0  0  0  2  0  0  0  0  0  0
  1 17  1  0  0  0  0
  1 11  1  0  0  0  0
  2  3  1  0  0  0  0
  3  9  1  0  0  0  0
  4  5  2  0  0  0  0
  5 16  1  0  0  0  0
  6 13  1  0  0  0  0
  7  2  1  0  0  0  0
  7 17  2  0  0  0  0
  8  1  2  0  0  0  0
  9  6  2  0  0  0  0
 10 15  1  0  0  0  0
 12 22  1  0  0  0  0
 14 10  2  0  0  0  0
 14 19  1  0  0  0  0
 15 21  1  0  0  0  0
 15  2  2  0  0  0  0
 16 10  1  0  0  0  0
 18  6  1  0  0  0  0
 19  7  1  0  0  0  0
 20 19  2  0  0  0  0
 20  8  1  0  0  0  0
 21 12  2  0  0  0  0
 22  3  2  0  0  0  0
 22 23  1  0  0  0  0
 23 18  2  0  0  0  0
 24 27  1  1  0  0  0
 24 28  1  0  0  0  0
 24 31  1  0  0  0  0
 25 30  1  0  0  0  0
 28 25  1  0  0  0  0
 29 30  1  0  0  0  0
 29 26  1  0  0  0  0
 30  5  1  1  0  0  0
 31 29  1  0  0  0  0
M  END
>  <MODEL>
1

>  <REMARK>
 VINA RESULT:     -12.3      0.000      0.000
  Name = 
  1 active torsions:
  status: ('A' for Active; 'I' for Inactive)
    1  A    between atoms: C_5  and  C_30
                            x       y       z     vdW  Elec       q    Type
                         _______ _______ _______ _____ _____    ______ ____

>  <TORSDO>
F 1

$$$$
=
 OpenBabel11122411083D

 31 35  0  0  1  0  0  0  0  0999 V2000
  190.3490  176.8620  145.9410 C   0  0  0  0  0  0  0  0  0  0  0  0
  187.8770  177.7800  143.2530 C   0  0  0  0  0  0  0  0  0  0  0  0
  186.6580  178.1370  143.9010 C   0  0  0  0  0  0  0  0  0  0  0  0
  191.2760  176.8990  139.3160 O   0  0  0  0  0  0  0  0  0  0  0  0
  190.1700  177.2630  138.8380 C   0  0  0  0  0  0  0  0  0  0  0  0
  185.2850  178.4780  145.8920 C   0  0  0  0  0  0  0  0  0  0  0  0
  189.0680  177.3680  143.9240 C   0  0  0  0  0  0  0  0  0  0  0  0
  191.4650  176.5450  145.1680 C   0  0  0  0  0  3  0  0  0  0  0  0
  186.4970  178.1210  145.2980 C   0  0  0  0  0  3  0  0  0  0  0  0
  189.0620  177.5070  141.1280 C   0  0  0  0  0  0  0  0  0  0  0  0
  190.4130  176.7760  147.2910 F   0  0  0  0  0  0  0  0  0  0  0  0
  185.6610  178.5590  141.7630 N   0  0  0  0  0  0  0  0  0  0  0  0
  185.1450  178.4500  147.3710 C   0  0  0  0  0  1  0  0  0  0  0  0
  190.1750  177.1180  141.8020 N   0  0  0  0  0  0  0  0  0  0  0  0
  187.9010  177.8420  141.8360 C   0  0  0  0  0  0  0  0  0  0  0  0
  189.0640  177.5740  139.6970 N   0  0  0  0  0  2  0  0  0  0  0  0
  189.1640  177.2690  145.3230 C   0  0  0  0  0  3  0  0  0  0  0  0
  184.2040  178.8610  145.0960 C   0  0  0  0  0  3  0  0  0  0  0  0
  190.2120  177.0420  143.1540 C   0  0  0  0  0  0  0  0  0  0  0  0
  191.3960  176.6330  143.7770 C   0  0  0  0  0  3  0  0  0  0  0  0
  186.7930  178.2280  141.1490 N   0  0  0  0  0  0  0  0  0  0  0  0
  185.5510  178.5280  143.1110 C   0  0  0  0  0  0  0  0  0  0  0  0
  184.3390  178.8850  143.7080 C   0  0  0  0  0  3  0  0  0  0  0  0
  187.2440  177.0800  136.5470 C   0  0  1  0  0  3  0  0  0  0  0  0
  189.2070  178.6000  136.9250 C   0  0  0  0  0  2  0  0  0  0  0  0
  190.2800  174.9860  137.0690 C   0  0  0  0  0  1  0  0  0  0  0  0
  185.9120  176.8500  136.8920 O   0  0  0  0  0  1  0  0  0  0  0  0
  187.7170  178.3810  137.1860 C   0  0  0  0  0  2  0  0  0  0  0  0
  189.5040  176.1540  136.6780 N   0  0  0  0  0  0  0  0  0  0  0  0
  190.0260  177.3700  137.3370 C   0  0  2  0  0  3  0  0  0  0  0  0
  188.1050  175.9200  137.0360 C   0  0  0  0  0  2  0  0  0  0  0  0
  1 11  1  0  0  0  0
  2  3  1  0  0  0  0
  2  7  1  0  0  0  0
  3  9  1  0  0  0  0
  5  4  2  0  0  0  0
  5 16  1  0  0  0  0
  6 13  1  0  0  0  0
  7 17  2  0  0  0  0
  8  1  2  0  0  0  0
  9  6  2  0  0  0  0
 10 14  2  0  0  0  0
 10 15  1  0  0  0  0
 12 22  1  0  0  0  0
 14 19  1  0  0  0  0
 15  2  2  0  0  0  0
 16 10  1  0  0  0  0
 17  1  1  0  0  0  0
 18  6  1  0  0  0  0
 19 20  2  0  0  0  0
 19  7  1  0  0  0  0
 20  8  1  0  0  0  0
 21 12  2  0  0  0  0
 21 15  1  0  0  0  0
 22 23  1  0  0  0  0
 22  3  2  0  0  0  0
 23 18  2  0  0  0  0
 24 27  1  1  0  0  0
 24 31  1  0  0  0  0
 24 28  1  0  0  0  0
 25 28  1  0  0  0  0
 25 30  1  0  0  0  0
 29 31  1  0  0  0  0
 29 26  1  0  0  0  0
 29 30  1  0  0  0  0
 30  5  1  1  0  0  0
M  END
>  <MODEL>
2

>  <REMARK>
 VINA RESULT:     -11.7      1.937      4.061
  Name = 
  1 active torsions:
  status: ('A' for Active; 'I' for Inactive)
    1  A    between atoms: C_5  and  C_30
                            x       y       z     vdW  Elec       q    Type
                         _______ _______ _______ _____ _____    ______ ____

>  <TORSDO>
F 1

$$$$
=
 OpenBabel11122411083D

 31 35  0  0  1  0  0  0  0  0999 V2000
  184.8030  178.6220  145.3330 C   0  0  0  0  0  0  0  0  0  0  0  0
  187.7970  177.9050  143.1650 C   0  0  0  0  0  0  0  0  0  0  0  0
  188.8720  177.5510  144.0310 C   0  0  0  0  0  0  0  0  0  0  0  0
  185.2280  178.8850  138.6620 O   0  0  0  0  0  0  0  0  0  0  0  0
  186.4210  178.5750  138.4030 C   0  0  0  0  0  0  0  0  0  0  0  0
  189.8290  177.1500  146.2430 C   0  0  0  0  0  0  0  0  0  0  0  0
  186.4810  178.2510  143.5980 C   0  0  0  0  0  0  0  0  0  0  0  0
  183.8540  178.9470  144.3650 C   0  0  0  0  0  3  0  0  0  0  0  0
  188.7490  177.5030  145.4310 C   0  0  0  0  0  3  0  0  0  0  0  0
  187.0540  178.2500  140.8580 C   0  0  0  0  0  0  0  0  0  0  0  0
  184.4650  178.6400  146.6440 F   0  0  0  0  0  0  0  0  0  0  0  0
  190.2940  177.2620  142.1230 N   0  0  0  0  0  0  0  0  0  0  0  0
  189.6680  177.1090  147.7190 C   0  0  0  0  0  1  0  0  0  0  0  0
  185.8150  178.5740  141.3080 N   0  0  0  0  0  0  0  0  0  0  0  0
  188.0610  177.9120  141.7710 C   0  0  0  0  0  0  0  0  0  0  0  0
  187.3420  178.2530  139.4540 N   0  0  0  0  0  2  0  0  0  0  0  0
  186.1010  178.2790  144.9520 C   0  0  0  0  0  3  0  0  0  0  0  0
  191.0610  176.8370  145.6660 C   0  0  0  0  0  3  0  0  0  0  0  0
  185.5040  178.5840  142.6260 C   0  0  0  0  0  0  0  0  0  0  0  0
  184.2040  178.9280  143.0140 C   0  0  0  0  0  3  0  0  0  0  0  0
  189.2980  177.5910  141.3070 N   0  0  0  0  0  0  0  0  0  0  0  0
  190.1290  177.2300  143.4660 C   0  0  0  0  0  0  0  0  0  0  0  0
  191.2090  176.8770  144.2790 C   0  0  0  0  0  3  0  0  0  0  0  0
  188.0990  175.9940  136.3140 C   0  0  1  0  0  3  0  0  0  0  0  0
  186.0980  177.5020  136.1410 C   0  0  0  0  0  2  0  0  0  0  0  0
  189.0550  179.3780  137.5430 C   0  0  0  0  0  1  0  0  0  0  0  0
  188.5260  174.7280  136.7140 O   0  0  0  0  0  1  0  0  0  0  0  0
  186.5840  176.0870  136.4590 C   0  0  0  0  0  2  0  0  0  0  0  0
  188.3240  178.3870  136.7660 N   0  0  0  0  0  0  0  0  0  0  0  0
  186.8670  178.5460  136.9600 C   0  0  2  0  0  3  0  0  0  0  0  0
  188.7680  177.0560  137.1800 C   0  0  0  0  0  2  0  0  0  0  0  0
  1 11  1  0  0  0  0
  2  7  1  0  0  0  0
  2  3  1  0  0  0  0
  3  9  1  0  0  0  0
  5  4  2  0  0  0  0
  5 16  1  0  0  0  0
  6 13  1  0  0  0  0
  7 17  2  0  0  0  0
  8  1  2  0  0  0  0
  9  6  2  0  0  0  0
 10 14  2  0  0  0  0
 10 15  1  0  0  0  0
 12 22  1  0  0  0  0
 14 19  1  0  0  0  0
 15  2  2  0  0  0  0
 16 10  1  0  0  0  0
 17  1  1  0  0  0  0
 18  6  1  0  0  0  0
 19 20  2  0  0  0  0
 19  7  1  0  0  0  0
 20  8  1  0  0  0  0
 21 15  1  0  0  0  0
 21 12  2  0  0  0  0
 22  3  2  0  0  0  0
 22 23  1  0  0  0  0
 23 18  2  0  0  0  0
 24 28  1  0  0  0  0
 24 27  1  1  0  0  0
 24 31  1  0  0  0  0
 25 28  1  0  0  0  0
 25 30  1  0  0  0  0
 29 30  1  0  0  0  0
 29 31  1  0  0  0  0
 29 26  1  0  0  0  0
 30  5  1  1  0  0  0
M  END
>  <MODEL>
3

>  <REMARK>
 VINA RESULT:     -11.3      1.303      1.716
  Name = 
  1 active torsions:
  status: ('A' for Active; 'I' for Inactive)
    1  A    between atoms: C_5  and  C_30
                            x       y       z     vdW  Elec       q    Type
                         _______ _______ _______ _____ _____    ______ ____

>  <TORSDO>
F 1

$$$$
=
 OpenBabel11122411083D

 31 35  0  0  1  0  0  0  0  0999 V2000
  190.3880  176.9180  146.2600 C   0  0  0  0  0  0  0  0  0  0  0  0
  188.0540  177.7180  143.4160 C   0  0  0  0  0  0  0  0  0  0  0  0
  186.7960  178.0700  143.9860 C   0  0  0  0  0  0  0  0  0  0  0  0
  191.6810  176.7930  139.6980 O   0  0  0  0  0  0  0  0  0  0  0  0
  190.5970  177.1250  139.1490 C   0  0  0  0  0  0  0  0  0  0  0  0
  185.3080  178.4390  145.8880 C   0  0  0  0  0  0  0  0  0  0  0  0
  189.2130  177.3460  144.1630 C   0  0  0  0  0  0  0  0  0  0  0  0
  191.5510  176.6000  145.5590 C   0  0  0  0  0  3  0  0  0  0  0  0
  186.5570  178.0890  145.3720 C   0  0  0  0  0  3  0  0  0  0  0  0
  189.3600  177.4090  141.3680 C   0  0  0  0  0  0  0  0  0  0  0  0
  190.3790  176.8690  147.6130 F   0  0  0  0  0  0  0  0  0  0  0  0
  185.9110  178.4160  141.7850 N   0  0  0  0  0  0  0  0  0  0  0  0
  185.0870  178.4490  147.3570 C   0  0  0  0  0  1  0  0  0  0  0  0
  190.4400  177.0600  142.1120 N   0  0  0  0  0  0  0  0  0  0  0  0
  188.1560  177.7420  142.0010 C   0  0  0  0  0  0  0  0  0  0  0  0
  189.4400  177.4380  139.9370 N   0  0  0  0  0  2  0  0  0  0  0  0
  189.2330  177.2870  145.5670 C   0  0  0  0  0  3  0  0  0  0  0  0
  184.2670  178.7810  145.0230 C   0  0  0  0  0  3  0  0  0  0  0  0
  190.4030  177.0200  143.4650 C   0  0  0  0  0  0  0  0  0  0  0  0
  191.5570  176.6500  144.1650 C   0  0  0  0  0  3  0  0  0  0  0  0
  187.0810  178.0900  141.2440 N   0  0  0  0  0  0  0  0  0  0  0  0
  185.7280  178.4190  143.1260 C   0  0  0  0  0  0  0  0  0  0  0  0
  184.4780  178.7700  143.6440 C   0  0  0  0  0  3  0  0  0  0  0  0
  189.5020  174.7010  136.5470 C   0  0  1  0  0  3  0  0  0  0  0  0
  189.0930  177.1110  137.1220 C   0  0  0  0  0  2  0  0  0  0  0  0
  192.7580  176.2760  137.4370 C   0  0  0  0  0  1  0  0  0  0  0  0
  189.0380  173.4010  136.7440 O   0  0  0  0  0  1  0  0  0  0  0  0
  188.5490  175.6860  137.2170 C   0  0  0  0  0  2  0  0  0  0  0  0
  191.3900  176.2040  136.9450 N   0  0  0  0  0  0  0  0  0  0  0  0
  190.5340  177.1880  137.6410 C   0  0  2  0  0  3  0  0  0  0  0  0
  190.8970  174.8410  137.1470 C   0  0  0  0  0  2  0  0  0  0  0  0
  1 11  1  0  0  0  0
  2  3  1  0  0  0  0
  2  7  1  0  0  0  0
  3  9  1  0  0  0  0
  5  4  2  0  0  0  0
  5 16  1  0  0  0  0
  6 13  1  0  0  0  0
  7 17  2  0  0  0  0
  8  1  2  0  0  0  0
  9  6  2  0  0  0  0
 10 15  1  0  0  0  0
 10 14  2  0  0  0  0
 12 22  1  0  0  0  0
 14 19  1  0  0  0  0
 15  2  2  0  0  0  0
 16 10  1  0  0  0  0
 17  1  1  0  0  0  0
 18  6  1  0  0  0  0
 19  7  1  0  0  0  0
 19 20  2  0  0  0  0
 20  8  1  0  0  0  0
 21 12  2  0  0  0  0
 21 15  1  0  0  0  0
 22 23  1  0  0  0  0
 22  3  2  0  0  0  0
 23 18  2  0  0  0  0
 24 27  1  1  0  0  0
 24 31  1  0  0  0  0
 24 28  1  0  0  0  0
 25 28  1  0  0  0  0
 25 30  1  0  0  0  0
 29 31  1  0  0  0  0
 29 26  1  0  0  0  0
 29 30  1  0  0  0  0
 30  5  1  1  0  0  0
M  END
>  <MODEL>
4

>  <REMARK>
 VINA RESULT:     -11.2      2.084      4.159
  Name = 
  1 active torsions:
  status: ('A' for Active; 'I' for Inactive)
    1  A    between atoms: C_5  and  C_30
                            x       y       z     vdW  Elec       q    Type
                         _______ _______ _______ _____ _____    ______ ____

>  <TORSDO>
F 1

$$$$
=
 OpenBabel11122411083D

 31 35  0  0  1  0  0  0  0  0999 V2000
  186.2990  178.0580  146.9130 C   0  0  0  0  0  0  0  0  0  0  0  0
  187.5620  177.9000  143.3690 C   0  0  0  0  0  0  0  0  0  0  0  0
  188.9430  177.5480  143.4260 C   0  0  0  0  0  0  0  0  0  0  0  0
  182.8940  179.1630  141.2610 O   0  0  0  0  0  0  0  0  0  0  0  0
  183.7370  179.0030  140.3400 C   0  0  0  0  0  0  0  0  0  0  0  0
  190.9830  176.9780  144.6430 C   0  0  0  0  0  0  0  0  0  0  0  0
  186.7140  178.0620  144.5060 C   0  0  0  0  0  0  0  0  0  0  0  0
  184.9660  178.4030  146.6960 C   0  0  0  0  0  3  0  0  0  0  0  0
  189.6290  177.3200  144.6320 C   0  0  0  0  0  3  0  0  0  0  0  0
  185.6460  178.4470  141.9470 C   0  0  0  0  0  0  0  0  0  0  0  0
  186.7570  177.8850  148.1750 F   0  0  0  0  0  0  0  0  0  0  0  0
  189.0480  177.6300  141.0320 N   0  0  0  0  0  0  0  0  0  0  0  0
  191.6800  176.7440  145.9330 C   0  0  0  0  0  1  0  0  0  0  0  0
  184.8710  178.5930  143.0520 N   0  0  0  0  0  0  0  0  0  0  0  0
  186.9960  178.1000  142.0840 C   0  0  0  0  0  0  0  0  0  0  0  0
  185.0940  178.6470  140.6390 N   0  0  0  0  0  2  0  0  0  0  0  0
  187.1620  177.8890  145.8270 C   0  0  0  0  0  3  0  0  0  0  0  0
  191.6810  176.8570  143.4400 C   0  0  0  0  0  3  0  0  0  0  0  0
  185.3550  178.4130  144.3040 C   0  0  0  0  0  0  0  0  0  0  0  0
  184.4960  178.5820  145.3950 C   0  0  0  0  0  3  0  0  0  0  0  0
  187.7610  177.9580  140.9690 N   0  0  0  0  0  0  0  0  0  0  0  0
  189.6680  177.4210  142.2180 C   0  0  0  0  0  0  0  0  0  0  0  0
  191.0220  177.0780  142.2300 C   0  0  0  0  0  3  0  0  0  0  0  0
  180.3950  179.1160  138.7070 C   0  0  1  0  0  3  0  0  0  0  0  0
  182.4990  180.4890  138.7190 C   0  0  0  0  0  2  0  0  0  0  0  0
  183.3160  176.8120  138.5100 C   0  0  0  0  0  1  0  0  0  0  0  0
  179.1510  178.9550  139.3150 O   0  0  0  0  0  1  0  0  0  0  0  0
  181.0830  180.3520  139.2780 C   0  0  0  0  0  2  0  0  0  0  0  0
  182.5610  178.0450  138.3310 N   0  0  0  0  0  0  0  0  0  0  0  0
  183.2950  179.1910  138.9080 C   0  0  2  0  0  3  0  0  0  0  0  0
  181.2540  177.8820  138.9650 C   0  0  0  0  0  2  0  0  0  0  0  0
  1 11  1  0  0  0  0
  2  3  1  0  0  0  0
  2  7  1  0  0  0  0
  3  9  1  0  0  0  0
  5 16  1  0  0  0  0
  5  4  2  0  0  0  0
  6 13  1  0  0  0  0
  7 17  1  0  0  0  0
  8  1  1  0  0  0  0
  9  6  2  0  0  0  0
 10 15  1  0  0  0  0
 10 14  2  0  0  0  0
 12 22  1  0  0  0  0
 14 19  1  0  0  0  0
 15  2  2  0  0  0  0
 16 10  1  0  0  0  0
 17  1  2  0  0  0  0
 18  6  1  0  0  0  0
 19  7  2  0  0  0  0
 19 20  1  0  0  0  0
 20  8  2  0  0  0  0
 21 12  2  0  0  0  0
 21 15  1  0  0  0  0
 22 23  1  0  0  0  0
 22  3  2  0  0  0  0
 23 18  2  0  0  0  0
 24 31  1  0  0  0  0
 24 28  1  0  0  0  0
 24 27  1  1  0  0  0
 25 30  1  0  0  0  0
 25 28  1  0  0  0  0
 29 26  1  0  0  0  0
 29 30  1  0  0  0  0
 29 31  1  0  0  0  0
 30  5  1  1  0  0  0
M  END
>  <MODEL>
5

>  <REMARK>
 VINA RESULT:     -10.8      3.350      4.943
  Name = 
  1 active torsions:
  status: ('A' for Active; 'I' for Inactive)
    1  A    between atoms: C_5  and  C_30
                            x       y       z     vdW  Elec       q    Type
                         _______ _______ _______ _____ _____    ______ ____

>  <TORSDO>
F 1

$$$$
=
 OpenBabel11122411083D

 31 35  0  0  1  0  0  0  0  0999 V2000
  191.3410  176.9150  144.4680 C   0  0  0  0  0  0  0  0  0  0  0  0
  187.8840  177.9180  143.3620 C   0  0  0  0  0  0  0  0  0  0  0  0
  187.0970  178.0940  144.5380 C   0  0  0  0  0  0  0  0  0  0  0  0
  189.0900  177.7830  138.2280 O   0  0  0  0  0  0  0  0  0  0  0  0
  187.8800  178.1040  138.3640 C   0  0  0  0  0  0  0  0  0  0  0  0
  186.7950  178.0880  146.9620 C   0  0  0  0  0  0  0  0  0  0  0  0
  189.2590  177.5360  143.3510 C   0  0  0  0  0  0  0  0  0  0  0  0
  191.9780  176.7830  143.2350 C   0  0  0  0  0  3  0  0  0  0  0  0
  187.6010  177.9060  145.8370 C   0  0  0  0  0  3  0  0  0  0  0  0
  187.9550  177.9900  140.9160 C   0  0  0  0  0  0  0  0  0  0  0  0
  192.0250  176.6820  145.6120 F   0  0  0  0  0  0  0  0  0  0  0  0
  185.2120  178.6700  143.1730 N   0  0  0  0  0  0  0  0  0  0  0  0
  187.3570  177.8810  148.3210 C   0  0  0  0  0  1  0  0  0  0  0  0
  189.2610  177.6240  140.9460 N   0  0  0  0  0  0  0  0  0  0  0  0
  187.2460  178.1430  142.1150 C   0  0  0  0  0  0  0  0  0  0  0  0
  187.2920  178.2200  139.6660 N   0  0  0  0  0  2  0  0  0  0  0  0
  189.9960  177.2870  144.5220 C   0  0  0  0  0  3  0  0  0  0  0  0
  185.4600  178.4660  146.8090 C   0  0  0  0  0  3  0  0  0  0  0  0
  189.9230  177.3980  142.1060 C   0  0  0  0  0  0  0  0  0  0  0  0
  191.2700  177.0230  142.0570 C   0  0  0  0  0  3  0  0  0  0  0  0
  185.9380  178.5090  142.0710 N   0  0  0  0  0  0  0  0  0  0  0  0
  185.7410  178.4760  144.4040 C   0  0  0  0  0  0  0  0  0  0  0  0
  184.9350  178.6590  145.5310 C   0  0  0  0  0  3  0  0  0  0  0  0
  185.7210  175.9400  136.2410 C   0  0  1  0  0  3  0  0  0  0  0  0
  185.5550  178.1710  137.3830 C   0  0  0  0  0  2  0  0  0  0  0  0
  188.9020  177.7980  135.6820 C   0  0  0  0  0  1  0  0  0  0  0  0
  185.4820  174.5750  136.3920 O   0  0  0  0  0  1  0  0  0  0  0  0
  185.2010  176.6860  137.4650 C   0  0  0  0  0  2  0  0  0  0  0  0
  187.4780  177.6130  135.9270 N   0  0  0  0  0  0  0  0  0  0  0  0
  187.0540  178.3680  137.1260 C   0  0  2  0  0  3  0  0  0  0  0  0
  187.2200  176.1820  136.0860 C   0  0  0  0  0  2  0  0  0  0  0  0
  1 17  1  0  0  0  0
  1 11  1  0  0  0  0
  2  3  1  0  0  0  0
  3  9  1  0  0  0  0
  4  5  2  0  0  0  0
  5 16  1  0  0  0  0
  6 13  1  0  0  0  0
  7  2  1  0  0  0  0
  7 17  2  0  0  0  0
  8  1  2  0  0  0  0
  9  6  2  0  0  0  0
 10 14  2  0  0  0  0
 10 15  1  0  0  0  0
 12 22  1  0  0  0  0
 14 19  1  0  0  0  0
 15  2  2  0  0  0  0
 16 10  1  0  0  0  0
 18  6  1  0  0  0  0
 19  7  1  0  0  0  0
 20 19  2  0  0  0  0
 20  8  1  0  0  0  0
 21 15  1  0  0  0  0
 21 12  2  0  0  0  0
 22  3  2  0  0  0  0
 22 23  1  0  0  0  0
 23 18  2  0  0  0  0
 24 27  1  1  0  0  0
 24 28  1  0  0  0  0
 25 28  1  0  0  0  0
 26 29  1  0  0  0  0
 29 31  1  0  0  0  0
 29 30  1  0  0  0  0
 30 25  1  0  0  0  0
 30  5  1  1  0  0  0
 31 24  1  0  0  0  0
M  END
>  <MODEL>
6

>  <REMARK>
 VINA RESULT:     -10.6      2.329      4.069
  Name = 
  1 active torsions:
  status: ('A' for Active; 'I' for Inactive)
    1  A    between atoms: C_5  and  C_30
                            x       y       z     vdW  Elec       q    Type
                         _______ _______ _______ _____ _____    ______ ____

>  <TORSDO>
F 1

$$$$
=
 OpenBabel11122411083D

 31 35  0  0  1  0  0  0  0  0999 V2000
  185.1650  178.1630  145.8160 C   0  0  0  0  0  0  0  0  0  0  0  0
  184.4440  178.6070  142.1470 C   0  0  0  0  0  0  0  0  0  0  0  0
  183.0390  178.8070  142.0120 C   0  0  0  0  0  0  0  0  0  0  0  0
  189.4940  178.0800  140.7160 O   0  0  0  0  0  0  0  0  0  0  0  0
  188.7870  178.2610  139.6900 C   0  0  0  0  0  0  0  0  0  0  0  0
  180.7840  179.0200  142.9290 C   0  0  0  0  0  0  0  0  0  0  0  0
  185.1230  178.3990  143.3850 C   0  0  0  0  0  0  0  0  0  0  0  0
  186.5470  177.9820  145.7870 C   0  0  0  0  0  3  0  0  0  0  0  0
  182.1550  178.8210  143.1060 C   0  0  0  0  0  3  0  0  0  0  0  0
  186.6050  178.4280  141.0100 C   0  0  0  0  0  0  0  0  0  0  0  0
  184.5030  178.1380  146.9960 F   0  0  0  0  0  0  0  0  0  0  0  0
  183.3070  178.9970  139.6370 N   0  0  0  0  0  0  0  0  0  0  0  0
  179.8770  179.0290  144.1050 C   0  0  0  0  0  1  0  0  0  0  0  0
  187.2150  178.2320  142.2060 N   0  0  0  0  0  0  0  0  0  0  0  0
  185.2180  178.6170  140.9580 C   0  0  0  0  0  0  0  0  0  0  0  0
  187.3680  178.4400  139.7970 N   0  0  0  0  0  2  0  0  0  0  0  0
  184.4630  178.3690  144.6260 C   0  0  0  0  0  3  0  0  0  0  0  0
  180.2670  179.2110  141.6470 C   0  0  0  0  0  3  0  0  0  0  0  0
  186.5280  178.2130  143.3740 C   0  0  0  0  0  0  0  0  0  0  0  0
  187.2270  178.0060  144.5690 C   0  0  0  0  0  3  0  0  0  0  0  0
  184.6190  178.8110  139.7530 N   0  0  0  0  0  0  0  0  0  0  0  0
  182.4950  179.0020  140.7200 C   0  0  0  0  0  0  0  0  0  0  0  0
  181.1230  179.2010  140.5440 C   0  0  0  0  0  3  0  0  0  0  0  0
  187.7630  177.0690  136.3170 C   0  0  1  0  0  3  0  0  0  0  0  0
  188.7010  179.1650  137.3340 C   0  0  0  0  0  2  0  0  0  0  0  0
  190.4570  176.1230  138.7090 C   0  0  0  0  0  1  0  0  0  0  0  0
  186.5820  176.4120  135.9740 O   0  0  0  0  0  1  0  0  0  0  0  0
  187.4360  178.4640  136.8380 C   0  0  0  0  0  2  0  0  0  0  0  0
  189.7360  176.9560  137.7570 N   0  0  0  0  0  0  0  0  0  0  0  0
  189.4600  178.2880  138.3380 C   0  0  2  0  0  3  0  0  0  0  0  0
  188.4950  176.2730  137.3920 C   0  0  0  0  0  2  0  0  0  0  0  0
  1 11  1  0  0  0  0
  2  7  1  0  0  0  0
  3  2  1  0  0  0  0
  3  9  1  0  0  0  0
  5 16  1  0  0  0  0
  5  4  2  0  0  0  0
  6  9  2  0  0  0  0
  6 13  1  0  0  0  0
  7 17  1  0  0  0  0
  8  1  1  0  0  0  0
 10 14  2  0  0  0  0
 12 21  2  0  0  0  0
 12 22  1  0  0  0  0
 14 19  1  0  0  0  0
 15 10  1  0  0  0  0
 15  2  2  0  0  0  0
 16 10  1  0  0  0  0
 17  1  2  0  0  0  0
 18  6  1  0  0  0  0
 19  7  2  0  0  0  0
 19 20  1  0  0  0  0
 20  8  2  0  0  0  0
 21 15  1  0  0  0  0
 22  3  2  0  0  0  0
 23 22  1  0  0  0  0
 23 18  2  0  0  0  0
 24 27  1  1  0  0  0
 24 28  1  0  0  0  0
 24 31  1  0  0  0  0
 25 30  1  0  0  0  0
 28 25  1  0  0  0  0
 29 30  1  0  0  0  0
 29 26  1  0  0  0  0
 30  5  1  1  0  0  0
 31 29  1  0  0  0  0
M  END
>  <MODEL>
7

>  <REMARK>
 VINA RESULT:     -10.5      2.025      5.109
  Name = 
  1 active torsions:
  status: ('A' for Active; 'I' for Inactive)
    1  A    between atoms: C_5  and  C_30
                            x       y       z     vdW  Elec       q    Type
                         _______ _______ _______ _____ _____    ______ ____

>  <TORSDO>
F 1

$$$$
=
 OpenBabel11122411083D

 31 35  0  0  1  0  0  0  0  0999 V2000
  190.7570  177.2760  142.2480 C   0  0  0  0  0  0  0  0  0  0  0  0
  187.2010  178.0910  143.1810 C   0  0  0  0  0  0  0  0  0  0  0  0
  187.1110  178.0320  144.6020 C   0  0  0  0  0  0  0  0  0  0  0  0
  185.6580  178.7630  138.1810 O   0  0  0  0  0  0  0  0  0  0  0  0
  184.6770  178.9480  138.9480 C   0  0  0  0  0  0  0  0  0  0  0  0
  188.0720  177.6710  146.8190 C   0  0  0  0  0  0  0  0  0  0  0  0
  188.3880  177.8440  142.4280 C   0  0  0  0  0  0  0  0  0  0  0  0
  190.6880  177.3720  140.8590 C   0  0  0  0  0  3  0  0  0  0  0  0
  188.2040  177.7180  145.4300 C   0  0  0  0  0  3  0  0  0  0  0  0
  186.0290  178.4980  141.0700 C   0  0  0  0  0  0  0  0  0  0  0  0
  191.9270  176.9550  142.8470 F   0  0  0  0  0  0  0  0  0  0  0  0
  184.7880  178.6070  144.4650 N   0  0  0  0  0  0  0  0  0  0  0  0
  189.2450  177.3350  147.6660 C   0  0  0  0  0  1  0  0  0  0  0  0
  187.1770  178.2560  140.3890 N   0  0  0  0  0  0  0  0  0  0  0  0
  186.0190  178.4210  142.4690 C   0  0  0  0  0  0  0  0  0  0  0  0
  184.8230  178.8320  140.3700 N   0  0  0  0  0  2  0  0  0  0  0  0
  189.6180  177.5090  143.0220 C   0  0  0  0  0  3  0  0  0  0  0  0
  186.8370  177.9390  147.4110 C   0  0  0  0  0  3  0  0  0  0  0  0
  188.3360  177.9380  141.0140 C   0  0  0  0  0  0  0  0  0  0  0  0
  189.4800  177.7010  140.2430 C   0  0  0  0  0  3  0  0  0  0  0  0
  184.8610  178.6650  143.1390 N   0  0  0  0  0  0  0  0  0  0  0  0
  185.8670  178.3000  145.2220 C   0  0  0  0  0  0  0  0  0  0  0  0
  185.7370  178.2530  146.6120 C   0  0  0  0  0  3  0  0  0  0  0  0
  181.2010  177.8220  139.6520 C   0  0  1  0  0  3  0  0  0  0  0  0
  182.4170  179.9990  139.3520 C   0  0  0  0  0  2  0  0  0  0  0  0
  183.5060  177.5010  136.7430 C   0  0  0  0  0  1  0  0  0  0  0  0
  180.7910  176.8790  140.5930 O   0  0  0  0  0  1  0  0  0  0  0  0
  181.8510  179.0030  140.3650 C   0  0  0  0  0  2  0  0  0  0  0  0
  182.6340  178.1670  137.7000 N   0  0  0  0  0  0  0  0  0  0  0  0
  183.3370  179.2980  138.3440 C   0  0  2  0  0  3  0  0  0  0  0  0
  182.2000  177.1830  138.6920 C   0  0  0  0  0  2  0  0  0  0  0  0
  1 11  1  0  0  0  0
  1 17  1  0  0  0  0
  2  3  1  0  0  0  0
  3 22  2  0  0  0  0
  3  9  1  0  0  0  0
  4  5  2  0  0  0  0
  5 16  1  0  0  0  0
  6 18  1  0  0  0  0
  6 13  1  0  0  0  0
  7 17  2  0  0  0  0
  7  2  1  0  0  0  0
  8  1  2  0  0  0  0
  9  6  2  0  0  0  0
 10 15  1  0  0  0  0
 12 22  1  0  0  0  0
 14 19  1  0  0  0  0
 14 10  2  0  0  0  0
 15 21  1  0  0  0  0
 15  2  2  0  0  0  0
 16 10  1  0  0  0  0
 19  7  1  0  0  0  0
 20  8  1  0  0  0  0
 20 19  2  0  0  0  0
 21 12  2  0  0  0  0
 22 23  1  0  0  0  0
 23 18  2  0  0  0  0
 24 28  1  0  0  0  0
 24 27  1  1  0  0  0
 25 28  1  0  0  0  0
 26 29  1  0  0  0  0
 29 30  1  0  0  0  0
 29 31  1  0  0  0  0
 30  5  1  1  0  0  0
 30 25  1  0  0  0  0
 31 24  1  0  0  0  0
M  END
>  <MODEL>
8

>  <REMARK>
 VINA RESULT:     -10.4      3.266      5.320
  Name = 
  1 active torsions:
  status: ('A' for Active; 'I' for Inactive)
    1  A    between atoms: C_5  and  C_30
                            x       y       z     vdW  Elec       q    Type
                         _______ _______ _______ _____ _____    ______ ____

>  <TORSDO>
F 1

$$$$
=
 OpenBabel11122411083D

 31 35  0  0  1  0  0  0  0  0999 V2000
  188.9300  177.8630  140.8460 C   0  0  0  0  0  0  0  0  0  0  0  0
  185.8190  178.3480  142.9120 C   0  0  0  0  0  0  0  0  0  0  0  0
  186.1960  178.2250  144.2820 C   0  0  0  0  0  0  0  0  0  0  0  0
  182.7080  179.0900  138.7160 O   0  0  0  0  0  0  0  0  0  0  0  0
  182.0170  179.1640  139.7660 C   0  0  0  0  0  0  0  0  0  0  0  0
  187.8410  177.8560  146.0500 C   0  0  0  0  0  0  0  0  0  0  0  0
  186.7140  178.2280  141.8060 C   0  0  0  0  0  0  0  0  0  0  0  0
  188.4110  178.0080  139.5610 C   0  0  0  0  0  3  0  0  0  0  0  0
  187.5150  177.9690  144.6970 C   0  0  0  0  0  3  0  0  0  0  0  0
  184.0060  178.7420  141.3150 C   0  0  0  0  0  0  0  0  0  0  0  0
  190.2500  177.6150  141.0210 F   0  0  0  0  0  0  0  0  0  0  0  0
  183.9200  178.6140  144.9280 N   0  0  0  0  0  0  0  0  0  0  0  0
  189.2430  177.5840  146.4570 C   0  0  0  0  0  1  0  0  0  0  0  0
  184.8870  178.6210  140.2890 N   0  0  0  0  0  0  0  0  0  0  0  0
  184.4520  178.6080  142.6360 C   0  0  0  0  0  0  0  0  0  0  0  0
  182.6210  179.0030  141.0570 N   0  0  0  0  0  2  0  0  0  0  0  0
  188.0880  177.9720  141.9560 C   0  0  0  0  0  3  0  0  0  0  0  0
  186.8480  177.9990  147.0200 C   0  0  0  0  0  3  0  0  0  0  0  0
  186.2030  178.3740  140.4910 C   0  0  0  0  0  0  0  0  0  0  0  0
  187.0510  178.2620  139.3840 C   0  0  0  0  0  3  0  0  0  0  0  0
  183.5590  178.7300  143.6540 N   0  0  0  0  0  0  0  0  0  0  0  0
  185.2040  178.3660  145.2800 C   0  0  0  0  0  0  0  0  0  0  0  0
  185.5310  178.2530  146.6340 C   0  0  0  0  0  3  0  0  0  0  0  0
  179.1600  178.7530  142.1150 C   0  0  1  0  0  3  0  0  0  0  0  0
  180.0660  180.5350  140.5950 C   0  0  0  0  0  2  0  0  0  0  0  0
  180.1230  177.1750  138.8810 C   0  0  0  0  0  1  0  0  0  0  0  0
  179.2000  178.2530  143.4160 O   0  0  0  0  0  1  0  0  0  0  0  0
  179.9920  180.0280  142.0360 C   0  0  0  0  0  2  0  0  0  0  0  0
  179.6800  178.2280  139.7830 N   0  0  0  0  0  0  0  0  0  0  0  0
  180.5340  179.4270  139.6430 C   0  0  2  0  0  3  0  0  0  0  0  0
  179.7180  177.7100  141.1510 C   0  0  0  0  0  2  0  0  0  0  0  0
  1 11  1  0  0  0  0
  1 17  1  0  0  0  0
  2  3  1  0  0  0  0
  3  9  2  0  0  0  0
  3 22  1  0  0  0  0
  4  5  2  0  0  0  0
  5 16  1  0  0  0  0
  6 13  1  0  0  0  0
  6 18  2  0  0  0  0
  7 17  2  0  0  0  0
  7  2  1  0  0  0  0
  8  1  2  0  0  0  0
  9  6  1  0  0  0  0
 10 15  1  0  0  0  0
 12 22  1  0  0  0  0
 14 19  1  0  0  0  0
 14 10  2  0  0  0  0
 15  2  2  0  0  0  0
 15 21  1  0  0  0  0
 16 10  1  0  0  0  0
 19  7  1  0  0  0  0
 20  8  1  0  0  0  0
 20 19  2  0  0  0  0
 21 12  2  0  0  0  0
 22 23  2  0  0  0  0
 23 18  1  0  0  0  0
 24 27  1  1  0  0  0
 25 28  1  0  0  0  0
 26 29  1  0  0  0  0
 28 24  1  0  0  0  0
 29 31  1  0  0  0  0
 30  5  1  1  0  0  0
 30 29  1  0  0  0  0
 30 25  1  0  0  0  0
 31 24  1  0  0  0  0
M  END
>  <MODEL>
9

>  <REMARK>
 VINA RESULT:     -10.4      3.895      6.708
  Name = 
  1 active torsions:
  status: ('A' for Active; 'I' for Inactive)
    1  A    between atoms: C_5  and  C_30
                            x       y       z     vdW  Elec       q    Type
                         _______ _______ _______ _____ _____    ______ ____

>  <TORSDO>
F 1

$$$$
