=
 OpenBabel11122412173D

 34 42  0  0  1  0  0  0  0  0999 V2000
  181.9510  178.6330  142.8110 C   0  0  2  0  0  3  0  0  0  0  0  0
  183.2530  178.9710  145.0660 C   0  0  0  0  0  2  0  0  0  0  0  0
  181.4740  177.2430  136.4750 C   0  0  2  0  0  0  0  0  0  0  0  0
  180.9860  178.8340  140.5410 C   0  0  1  0  0  3  0  0  0  0  0  0
  182.3210  177.9200  138.5890 C   0  0  1  0  0  3  0  0  0  0  0  0
  182.9820  176.8950  136.3120 C   0  0  1  0  0  3  0  0  0  0  0  0
  181.9680  176.3980  135.3250 C   0  0  0  0  0  2  0  0  0  0  0  0
  179.9930  179.2980  136.8140 C   0  0  0  0  0  2  0  0  0  0  0  0
  184.4540  178.9010  143.0050 C   0  0  2  0  0  3  0  0  0  0  0  0
  187.3550  177.5910  142.7800 C   0  0  0  0  0  2  0  0  0  0  0  0
  183.6250  178.1630  139.3390 C   0  0  0  0  0  2  0  0  0  0  0  0
  179.9150  178.7660  138.2590 C   0  0  0  0  0  2  0  0  0  0  0  0
  184.7070  178.1140  141.7040 C   0  0  1  0  0  3  0  0  0  0  0  0
  184.7380  178.9470  145.4150 C   0  0  0  0  0  2  0  0  0  0  0  0
  181.2430  178.9420  139.0310 C   0  0  1  0  0  3  0  0  0  0  0  0
  180.6700  178.3440  135.7980 C   0  0  0  0  0  2  0  0  0  0  0  0
  186.4590  177.6580  144.0380 C   0  0  2  0  0  3  0  0  0  0  0  0
  182.2890  178.9240  141.3420 C   0  0  2  0  0  3  0  0  0  0  0  0
  182.5630  178.0870  137.1040 C   0  0  1  0  0  3  0  0  0  0  0  0
  183.4080  177.9890  140.8410 C   0  0  1  0  0  3  0  0  0  0  0  0
  180.0470  180.1870  142.5120 C   0  0  0  0  0  3  0  0  0  0  0  0
  187.1900  178.7640  141.8100 C   0  0  0  0  0  2  0  0  0  0  0  0
  180.0430  179.9580  141.0120 C   0  0  0  0  0  2  0  0  0  0  0  0
  185.9360  178.6360  140.9420 C   0  0  0  0  0  2  0  0  0  0  0  0
  185.5260  178.8890  144.0980 C   0  0  1  0  0  3  0  0  0  0  0  0
  180.9480  179.6250  143.3350 C   0  0  0  0  0  3  0  0  0  0  0  0
  183.2040  178.3930  143.6740 C   0  0  2  0  0  3  0  0  0  0  0  0
  187.3520  177.5930  145.2710 C   0  0  0  0  0  2  0  0  0  0  0  0
  188.7310  177.0750  144.8990 C   0  0  0  0  0  2  0  0  0  0  0  0
  191.1920  176.5490  147.2390 N   0  0  0  0  0  2  0  0  0  0  0  0
  191.1650  177.4350  145.2240 C   0  0  0  0  0  2  0  0  0  0  0  0
  189.7920  177.7320  145.7650 C   0  0  2  0  0  3  0  0  0  0  0  0
  191.7000  176.3880  145.9850 O   0  0  0  0  0  0  0  0  0  0  0  0
  189.8340  177.0460  147.0910 C   0  0  0  0  0  2  0  0  0  0  0  0
  1 26  1  1  0  0  0
  1 27  1  0  0  0  0
  2 14  1  0  0  0  0
  3  7  1  1  0  0  0
  3 19  1  0  0  0  0
  4 23  1  1  0  0  0
  4 18  1  0  0  0  0
  5 15  1  0  0  0  0
  5 11  1  1  0  0  0
  6  7  1  6  0  0  0
  6  3  1  0  0  0  0
  6 19  1  0  0  0  0
  8 12  1  0  0  0  0
  9 27  1  0  0  0  0
  9 25  1  0  0  0  0
 10 17  1  0  0  0  0
 11 20  1  0  0  0  0
 12 15  1  0  0  0  0
 13  9  1  0  0  0  0
 15  4  1  0  0  0  0
 16  3  1  0  0  0  0
 16  8  1  0  0  0  0
 17 25  1  0  0  0  0
 17 28  1  0  0  0  0
 18  1  1  0  0  0  0
 19  5  1  0  0  0  0
 20 18  1  0  0  0  0
 20 13  1  0  0  0  0
 21 26  2  0  0  0  0
 22 10  1  0  0  0  0
 23 21  1  0  0  0  0
 24 13  1  0  0  0  0
 24 22  1  0  0  0  0
 25 14  1  0  0  0  0
 27  2  1  0  0  0  0
 29 28  1  0  0  0  0
 29 32  1  0  0  0  0
 31 32  1  0  0  0  0
 31 33  1  0  0  0  0
 32 34  1  0  0  0  0
 33 30  1  0  0  0  0
 34 30  1  0  0  0  0
M  END
>  <MODEL>
1

>  <REMARK>
 VINA RESULT:     -10.1      0.000      0.000
  Name = 
  3 active torsions:
  status: ('A' for Active; 'I' for Inactive)
    1  A    between atoms: C_17  and  C_28
    2  A    between atoms: C_28  and  C_29
    3  A    between atoms: C_29  and  C_32
                            x       y       z     vdW  Elec       q    Type
                         _______ _______ _______ _____ _____    ______ ____

>  <TORSDO>
F 3

$$$$
=
 OpenBabel11122412173D

 34 42  0  0  1  0  0  0  0  0999 V2000
  188.5530  176.8460  143.8800 C   0  0  2  0  0  3  0  0  0  0  0  0
  191.0800  176.5060  143.2530 C   0  0  0  0  0  2  0  0  0  0  0  0
  182.3370  178.2590  142.5860 C   0  0  2  0  0  0  0  0  0  0  0  0
  186.3070  177.7470  144.3970 C   0  0  1  0  0  3  0  0  0  0  0  0
  184.7080  178.1520  142.4720 C   0  0  1  0  0  3  0  0  0  0  0  0
  182.5650  178.4240  141.0560 C   0  0  1  0  0  3  0  0  0  0  0  0
  181.1950  178.1560  141.6030 C   0  0  0  0  0  2  0  0  0  0  0  0
  182.8570  179.4970  144.7600 C   0  0  0  0  0  2  0  0  0  0  0  0
  189.6300  177.6510  141.7430 C   0  0  2  0  0  3  0  0  0  0  0  0
  189.9270  177.3800  138.5780 C   0  0  0  0  0  2  0  0  0  0  0  0
  185.8760  178.3800  141.5220 C   0  0  0  0  0  2  0  0  0  0  0  0
  183.9230  178.3930  144.9100 C   0  0  0  0  0  2  0  0  0  0  0  0
  188.2970  177.6010  140.9720 C   0  0  1  0  0  3  0  0  0  0  0  0
  191.8630  176.7240  141.9620 C   0  0  0  0  0  2  0  0  0  0  0  0
  185.0970  178.5590  143.9160 C   0  0  1  0  0  3  0  0  0  0  0  0
  181.8560  179.2910  143.5970 C   0  0  0  0  0  2  0  0  0  0  0  0
  190.7680  176.6590  139.6560 C   0  0  2  0  0  3  0  0  0  0  0  0
  187.4680  177.8210  143.4010 C   0  0  2  0  0  3  0  0  0  0  0  0
  183.5350  179.0010  142.0310 C   0  0  1  0  0  3  0  0  0  0  0  0
  187.0700  177.5240  141.9400 C   0  0  1  0  0  3  0  0  0  0  0  0
  188.2020  177.8170  146.1300 C   0  0  0  0  0  3  0  0  0  0  0  0
  189.4210  178.7670  138.9790 C   0  0  0  0  0  2  0  0  0  0  0  0
  186.8000  178.2660  145.7630 C   0  0  0  0  0  2  0  0  0  0  0  0
  188.2040  178.7030  139.9050 C   0  0  0  0  0  2  0  0  0  0  0  0
  190.9390  177.4510  140.9740 C   0  0  1  0  0  3  0  0  0  0  0  0
  189.0280  177.2120  145.2600 C   0  0  0  0  0  3  0  0  0  0  0  0
  189.6400  176.5950  142.8170 C   0  0  2  0  0  3  0  0  0  0  0  0
  192.1230  176.3050  139.0570 C   0  0  0  0  0  2  0  0  0  0  0  0
  192.1050  176.5080  137.5510 C   0  0  0  0  0  2  0  0  0  0  0  0
  195.2800  175.7020  136.5110 N   0  0  0  0  0  2  0  0  0  0  0  0
  193.8350  174.7590  137.8790 C   0  0  0  0  0  2  0  0  0  0  0  0
  192.9680  175.4600  136.8680 C   0  0  2  0  0  3  0  0  0  0  0  0
  195.1100  175.3370  137.8130 O   0  0  0  0  0  0  0  0  0  0  0  0
  193.9860  176.1450  136.0170 C   0  0  0  0  0  2  0  0  0  0  0  0
  1 26  1  1  0  0  0
  3  7  1  1  0  0  0
  3 16  1  0  0  0  0
  4 23  1  1  0  0  0
  5 11  1  6  0  0  0
  5 15  1  0  0  0  0
  6  7  1  1  0  0  0
  6 19  1  0  0  0  0
  6  3  1  0  0  0  0
  8 12  1  0  0  0  0
  9 27  1  0  0  0  0
 10 22  1  0  0  0  0
 10 17  1  0  0  0  0
 11 20  1  0  0  0  0
 13  9  1  0  0  0  0
 13 20  1  0  0  0  0
 14  2  1  0  0  0  0
 15  4  1  0  0  0  0
 15 12  1  0  0  0  0
 16  8  1  0  0  0  0
 17 25  1  0  0  0  0
 18  1  1  0  0  0  0
 18  4  1  0  0  0  0
 19  5  1  0  0  0  0
 19  3  1  0  0  0  0
 20 18  1  0  0  0  0
 22 24  1  0  0  0  0
 23 21  1  0  0  0  0
 24 13  1  0  0  0  0
 25  9  1  0  0  0  0
 25 14  1  0  0  0  0
 26 21  2  0  0  0  0
 27  2  1  0  0  0  0
 27  1  1  0  0  0  0
 28 17  1  0  0  0  0
 29 28  1  0  0  0  0
 30 33  1  0  0  0  0
 32 29  1  0  0  0  0
 32 31  1  0  0  0  0
 33 31  1  0  0  0  0
 34 30  1  0  0  0  0
 34 32  1  0  0  0  0
M  END
>  <MODEL>
2

>  <REMARK>
 VINA RESULT:      -9.6      4.342      7.201
  Name = 
  3 active torsions:
  status: ('A' for Active; 'I' for Inactive)
    1  A    between atoms: C_17  and  C_28
    2  A    between atoms: C_28  and  C_29
    3  A    between atoms: C_29  and  C_32
                            x       y       z     vdW  Elec       q    Type
                         _______ _______ _______ _____ _____    ______ ____

>  <TORSDO>
F 3

$$$$
=
 OpenBabel11122412173D

 34 42  0  0  1  0  0  0  0  0999 V2000
  186.4470  177.5750  144.5730 C   0  0  2  0  0  3  0  0  0  0  0  0
  189.0630  177.3860  144.6980 C   0  0  0  0  0  2  0  0  0  0  0  0
  180.7590  178.1610  141.4720 C   0  0  2  0  0  0  0  0  0  0  0  0
  184.1020  178.3250  144.3180 C   0  0  1  0  0  3  0  0  0  0  0  0
  183.0730  178.2670  142.0020 C   0  0  1  0  0  3  0  0  0  0  0  0
  181.3880  178.1070  140.0500 C   0  0  1  0  0  3  0  0  0  0  0  0
  179.9370  177.7970  140.2600 C   0  0  0  0  0  2  0  0  0  0  0  0
  180.6010  179.7690  143.4530 C   0  0  0  0  0  2  0  0  0  0  0  0
  188.0260  178.1350  142.6840 C   0  0  2  0  0  3  0  0  0  0  0  0
  189.1910  177.4010  139.8050 C   0  0  0  0  0  2  0  0  0  0  0  0
  184.4430  178.4560  141.3650 C   0  0  0  0  0  2  0  0  0  0  0  0
  181.6400  178.8100  144.0680 C   0  0  0  0  0  2  0  0  0  0  0  0
  186.9580  177.8370  141.6130 C   0  0  1  0  0  3  0  0  0  0  0  0
  190.1580  177.4740  143.6380 C   0  0  0  0  0  2  0  0  0  0  0  0
  183.0300  178.9310  143.4020 C   0  0  1  0  0  3  0  0  0  0  0  0
  179.9680  179.2870  142.1240 C   0  0  0  0  0  2  0  0  0  0  0  0
  189.7400  176.9430  141.1760 C   0  0  2  0  0  3  0  0  0  0  0  0
  185.4870  178.3530  143.6620 C   0  0  2  0  0  3  0  0  0  0  0  0
  182.0240  178.9200  141.1270 C   0  0  1  0  0  3  0  0  0  0  0  0
  185.5190  177.7940  142.2250 C   0  0  1  0  0  3  0  0  0  0  0  0
  185.4450  178.8470  146.4450 C   0  0  0  0  0  3  0  0  0  0  0  0
  188.5250  178.7800  139.8090 C   0  0  0  0  0  2  0  0  0  0  0  0
  184.1760  179.0960  145.6510 C   0  0  0  0  0  2  0  0  0  0  0  0
  187.1050  178.7440  140.3810 C   0  0  0  0  0  2  0  0  0  0  0  0
  189.5030  177.9440  142.3300 C   0  0  1  0  0  3  0  0  0  0  0  0
  186.5070  178.1970  145.9420 C   0  0  0  0  0  3  0  0  0  0  0  0
  187.7940  177.2670  143.8920 C   0  0  2  0  0  3  0  0  0  0  0  0
  191.2230  176.6320  141.0230 C   0  0  0  0  0  2  0  0  0  0  0  0
  191.7490  177.1910  139.7120 C   0  0  0  0  0  2  0  0  0  0  0  0
  192.6760  176.3750  136.5050 N   0  0  0  0  0  2  0  0  0  0  0  0
  193.6010  176.0860  138.4820 C   0  0  0  0  0  2  0  0  0  0  0  0
  192.1230  176.0600  138.7690 C   0  0  2  0  0  3  0  0  0  0  0  0
  193.7770  176.7060  137.2380 O   0  0  0  0  0  0  0  0  0  0  0  0
  191.5470  176.3380  137.4190 C   0  0  0  0  0  2  0  0  0  0  0  0
  1 26  1  1  0  0  0
  3  7  1  1  0  0  0
  3 16  1  0  0  0  0
  4 23  1  1  0  0  0
  5 11  1  6  0  0  0
  5 15  1  0  0  0  0
  6  7  1  6  0  0  0
  6 19  1  0  0  0  0
  6  3  1  0  0  0  0
  8 12  1  0  0  0  0
  9 27  1  0  0  0  0
 10 22  1  0  0  0  0
 10 17  1  0  0  0  0
 11 20  1  0  0  0  0
 13 20  1  0  0  0  0
 13  9  1  0  0  0  0
 14  2  1  0  0  0  0
 15 12  1  0  0  0  0
 15  4  1  0  0  0  0
 16  8  1  0  0  0  0
 17 25  1  0  0  0  0
 18  4  1  0  0  0  0
 18  1  1  0  0  0  0
 19  3  1  0  0  0  0
 19  5  1  0  0  0  0
 20 18  1  0  0  0  0
 22 24  1  0  0  0  0
 23 21  1  0  0  0  0
 24 13  1  0  0  0  0
 25  9  1  0  0  0  0
 25 14  1  0  0  0  0
 26 21  2  0  0  0  0
 27  1  1  0  0  0  0
 27  2  1  0  0  0  0
 28 17  1  0  0  0  0
 29 28  1  0  0  0  0
 30 33  1  0  0  0  0
 30 34  1  0  0  0  0
 31 32  1  0  0  0  0
 32 29  1  0  0  0  0
 33 31  1  0  0  0  0
 34 32  1  0  0  0  0
M  END
>  <MODEL>
3

>  <REMARK>
 VINA RESULT:      -9.3      3.584      5.682
  Name = 
  3 active torsions:
  status: ('A' for Active; 'I' for Inactive)
    1  A    between atoms: C_17  and  C_28
    2  A    between atoms: C_28  and  C_29
    3  A    between atoms: C_29  and  C_32
                            x       y       z     vdW  Elec       q    Type
                         _______ _______ _______ _____ _____    ______ ____

>  <TORSDO>
F 3

$$$$
=
 OpenBabel11122412173D

 34 42  0  0  1  0  0  0  0  0999 V2000
  184.2250  179.2240  144.4210 C   0  0  2  0  0  3  0  0  0  0  0  0
  181.6500  179.5750  144.0450 C   0  0  0  0  0  2  0  0  0  0  0  0
  190.2780  177.7810  142.5240 C   0  0  2  0  0  0  0  0  0  0  0  0
  186.5070  178.3130  144.7160 C   0  0  1  0  0  3  0  0  0  0  0  0
  187.9070  177.8990  142.6440 C   0  0  1  0  0  3  0  0  0  0  0  0
  189.9000  177.6150  141.0240 C   0  0  1  0  0  3  0  0  0  0  0  0
  191.3180  177.8780  141.4340 C   0  0  0  0  0  2  0  0  0  0  0  0
  189.9680  176.5470  144.7410 C   0  0  0  0  0  2  0  0  0  0  0  0
  182.9400  178.4220  142.4010 C   0  0  2  0  0  3  0  0  0  0  0  0
  182.3340  178.6930  139.2800 C   0  0  0  0  0  2  0  0  0  0  0  0
  186.6510  177.6750  141.8130 C   0  0  0  0  0  2  0  0  0  0  0  0
  188.9260  177.6560  144.9930 C   0  0  0  0  0  2  0  0  0  0  0  0
  184.1910  178.4650  141.5020 C   0  0  1  0  0  3  0  0  0  0  0  0
  180.7430  179.3590  142.8370 C   0  0  0  0  0  2  0  0  0  0  0  0
  187.6610  177.4940  144.1190 C   0  0  1  0  0  3  0  0  0  0  0  0
  190.8510  176.7480  143.4840 C   0  0  0  0  0  2  0  0  0  0  0  0
  181.6070  179.4180  140.4340 C   0  0  2  0  0  3  0  0  0  0  0  0
  185.2530  178.2430  143.8380 C   0  0  2  0  0  3  0  0  0  0  0  0
  189.0280  177.0440  142.0900 C   0  0  1  0  0  3  0  0  0  0  0  0
  185.5070  178.5370  142.3460 C   0  0  1  0  0  3  0  0  0  0  0  0
  184.7910  178.2530  146.6270 C   0  0  0  0  0  3  0  0  0  0  0  0
  182.8710  177.3030  139.6310 C   0  0  0  0  0  2  0  0  0  0  0  0
  186.1480  177.7970  146.1240 C   0  0  0  0  0  2  0  0  0  0  0  0
  184.1740  177.3620  140.4330 C   0  0  0  0  0  2  0  0  0  0  0  0
  181.5630  178.6280  141.7630 C   0  0  1  0  0  3  0  0  0  0  0  0
  183.8860  178.8600  145.8410 C   0  0  0  0  0  3  0  0  0  0  0  0
  183.0410  179.4790  143.4700 C   0  0  2  0  0  3  0  0  0  0  0  0
  180.2010  179.7770  139.9710 C   0  0  0  0  0  2  0  0  0  0  0  0
  180.0550  181.2850  139.8420 C   0  0  0  0  0  2  0  0  0  0  0  0
  180.0520  183.8520  137.5580 N   0  0  0  0  0  2  0  0  0  0  0  0
  181.1070  181.9240  137.6870 C   0  0  0  0  0  2  0  0  0  0  0  0
  179.8030  181.6680  138.3940 C   0  0  2  0  0  3  0  0  0  0  0  0
  181.3000  183.3110  137.6480 O   0  0  0  0  0  0  0  0  0  0  0  0
  179.1640  183.0170  138.3490 C   0  0  0  0  0  2  0  0  0  0  0  0
  1 26  1  1  0  0  0
  3  7  1  1  0  0  0
  3 16  1  0  0  0  0
  4 23  1  1  0  0  0
  5 11  1  6  0  0  0
  5 15  1  0  0  0  0
  6  7  1  6  0  0  0
  6 19  1  0  0  0  0
  6  3  1  0  0  0  0
  8 12  1  0  0  0  0
  9 27  1  0  0  0  0
 10 22  1  0  0  0  0
 10 17  1  0  0  0  0
 11 20  1  0  0  0  0
 13 20  1  0  0  0  0
 13  9  1  0  0  0  0
 14  2  1  0  0  0  0
 15  4  1  0  0  0  0
 15 12  1  0  0  0  0
 16  8  1  0  0  0  0
 17 25  1  0  0  0  0
 18  1  1  0  0  0  0
 18  4  1  0  0  0  0
 19  3  1  0  0  0  0
 19  5  1  0  0  0  0
 20 18  1  0  0  0  0
 22 24  1  0  0  0  0
 23 21  1  0  0  0  0
 24 13  1  0  0  0  0
 25  9  1  0  0  0  0
 25 14  1  0  0  0  0
 26 21  2  0  0  0  0
 27  2  1  0  0  0  0
 27  1  1  0  0  0  0
 28 17  1  0  0  0  0
 29 28  1  0  0  0  0
 30 33  1  0  0  0  0
 30 34  1  0  0  0  0
 31 32  1  0  0  0  0
 32 29  1  0  0  0  0
 33 31  1  0  0  0  0
 34 32  1  0  0  0  0
M  END
>  <MODEL>
4

>  <REMARK>
 VINA RESULT:      -9.2      4.214      8.770
  Name = 
  3 active torsions:
  status: ('A' for Active; 'I' for Inactive)
    1  A    between atoms: C_17  and  C_28
    2  A    between atoms: C_28  and  C_29
    3  A    between atoms: C_29  and  C_32
                            x       y       z     vdW  Elec       q    Type
                         _______ _______ _______ _____ _____    ______ ____

>  <TORSDO>
F 3

$$$$
=
 OpenBabel11122412173D

 34 42  0  0  1  0  0  0  0  0999 V2000
  186.6300  177.5860  142.8920 C   0  0  2  0  0  3  0  0  0  0  0  0
  186.8280  177.7390  145.5060 C   0  0  0  0  0  2  0  0  0  0  0  0
  188.9980  176.9610  136.8660 C   0  0  2  0  0  0  0  0  0  0  0  0
  186.6790  177.9940  140.4520 C   0  0  1  0  0  3  0  0  0  0  0  0
  188.8030  177.4320  139.1870 C   0  0  1  0  0  3  0  0  0  0  0  0
  190.4670  176.7500  137.3330 C   0  0  1  0  0  3  0  0  0  0  0  0
  190.0230  176.3040  135.9730 C   0  0  0  0  0  2  0  0  0  0  0  0
  187.2750  178.8410  136.7070 C   0  0  0  0  0  2  0  0  0  0  0  0
  188.7750  178.0150  144.1540 C   0  0  2  0  0  3  0  0  0  0  0  0
  191.6420  176.9650  145.0800 C   0  0  0  0  0  2  0  0  0  0  0  0
  189.6380  177.6780  140.4370 C   0  0  0  0  0  2  0  0  0  0  0  0
  186.6680  178.1300  137.9340 C   0  0  0  0  0  2  0  0  0  0  0  0
  189.6380  177.4180  143.0260 C   0  0  1  0  0  3  0  0  0  0  0  0
  188.0250  177.7840  146.4520 C   0  0  0  0  0  2  0  0  0  0  0  0
  187.5240  178.3070  139.2090 C   0  0  1  0  0  3  0  0  0  0  0  0
  188.4210  178.0740  136.0030 C   0  0  0  0  0  2  0  0  0  0  0  0
  190.3040  176.8080  145.8380 C   0  0  2  0  0  3  0  0  0  0  0  0
  187.5100  178.0820  141.7360 C   0  0  2  0  0  3  0  0  0  0  0  0
  189.6170  177.8000  137.9650 C   0  0  1  0  0  3  0  0  0  0  0  0
  188.8400  177.3020  141.6850 C   0  0  1  0  0  3  0  0  0  0  0  0
  184.8510  179.0180  141.9380 C   0  0  0  0  0  3  0  0  0  0  0  0
  191.7540  178.2340  144.2310 C   0  0  0  0  0  2  0  0  0  0  0  0
  185.4970  178.9770  140.5660 C   0  0  0  0  0  2  0  0  0  0  0  0
  190.9990  178.1210  142.9040 C   0  0  0  0  0  2  0  0  0  0  0  0
  189.2900  177.9490  145.5950 C   0  0  1  0  0  3  0  0  0  0  0  0
  185.3890  178.4270  143.0180 C   0  0  0  0  0  3  0  0  0  0  0  0
  187.4310  177.3360  144.1850 C   0  0  2  0  0  3  0  0  0  0  0  0
  190.6060  176.6590  147.3240 C   0  0  0  0  0  2  0  0  0  0  0  0
  192.0600  176.2710  147.5330 C   0  0  0  0  0  2  0  0  0  0  0  0
  194.3260  177.1010  149.9790 N   0  0  0  0  0  2  0  0  0  0  0  0
  192.1960  177.5520  149.6540 C   0  0  0  0  0  2  0  0  0  0  0  0
  192.3780  176.2010  149.0170 C   0  0  2  0  0  3  0  0  0  0  0  0
  193.4640  178.1360  149.7730 O   0  0  0  0  0  0  0  0  0  0  0  0
  193.8440  175.9780  149.1920 C   0  0  0  0  0  2  0  0  0  0  0  0
  1 26  1  1  0  0  0
  1 27  1  0  0  0  0
  2 14  1  0  0  0  0
  3  7  1  1  0  0  0
  3  6  1  0  0  0  0
  3 19  1  0  0  0  0
  4 23  1  1  0  0  0
  4 18  1  0  0  0  0
  5 15  1  0  0  0  0
  5 11  1  1  0  0  0
  6  7  1  6  0  0  0
  6 19  1  0  0  0  0
  8 12  1  0  0  0  0
  9 27  1  0  0  0  0
  9 25  1  0  0  0  0
 10 17  1  0  0  0  0
 11 20  1  0  0  0  0
 12 15  1  0  0  0  0
 13  9  1  0  0  0  0
 15  4  1  0  0  0  0
 16  8  1  0  0  0  0
 16  3  1  0  0  0  0
 17 28  1  0  0  0  0
 18  1  1  0  0  0  0
 19  5  1  0  0  0  0
 20 18  1  0  0  0  0
 20 13  1  0  0  0  0
 21 26  2  0  0  0  0
 22 10  1  0  0  0  0
 23 21  1  0  0  0  0
 24 13  1  0  0  0  0
 24 22  1  0  0  0  0
 25 17  1  0  0  0  0
 25 14  1  0  0  0  0
 27  2  1  0  0  0  0
 28 29  1  0  0  0  0
 29 32  1  0  0  0  0
 31 33  1  0  0  0  0
 32 34  1  0  0  0  0
 32 31  1  0  0  0  0
 33 30  1  0  0  0  0
 34 30  1  0  0  0  0
M  END
>  <MODEL>
5

>  <REMARK>
 VINA RESULT:      -9.0      3.565      5.549
  Name = 
  3 active torsions:
  status: ('A' for Active; 'I' for Inactive)
    1  A    between atoms: C_17  and  C_28
    2  A    between atoms: C_28  and  C_29
    3  A    between atoms: C_29  and  C_32
                            x       y       z     vdW  Elec       q    Type
                         _______ _______ _______ _____ _____    ______ ____

>  <TORSDO>
F 3

$$$$
=
 OpenBabel11122412173D

 34 42  0  0  1  0  0  0  0  0999 V2000
  187.2310  178.7110  140.4440 C   0  0  2  0  0  3  0  0  0  0  0  0
  189.7100  178.1560  141.1100 C   0  0  0  0  0  2  0  0  0  0  0  0
  180.9050  179.6190  141.6550 C   0  0  2  0  0  0  0  0  0  0  0  0
  184.8170  178.6440  139.9070 C   0  0  1  0  0  3  0  0  0  0  0  0
  183.1610  178.8870  141.8110 C   0  0  1  0  0  3  0  0  0  0  0  0
  181.0470  179.4290  143.1920 C   0  0  1  0  0  3  0  0  0  0  0  0
  179.8650  180.1470  142.6130 C   0  0  0  0  0  2  0  0  0  0  0  0
  180.9750  178.2130  139.5220 C   0  0  0  0  0  2  0  0  0  0  0  0
  187.9360  177.6410  142.6200 C   0  0  2  0  0  3  0  0  0  0  0  0
  188.2810  177.8840  145.7830 C   0  0  0  0  0  2  0  0  0  0  0  0
  184.1640  178.2890  142.7880 C   0  0  0  0  0  2  0  0  0  0  0  0
  182.3630  178.8650  139.3650 C   0  0  0  0  0  2  0  0  0  0  0  0
  186.6990  178.1810  143.3650 C   0  0  1  0  0  3  0  0  0  0  0  0
  190.3540  177.7140  142.4210 C   0  0  0  0  0  2  0  0  0  0  0  0
  183.3930  178.3260  140.3850 C   0  0  1  0  0  3  0  0  0  0  0  0
  180.1000  178.7940  140.6600 C   0  0  0  0  0  2  0  0  0  0  0  0
  189.3320  178.2300  144.7030 C   0  0  2  0  0  3  0  0  0  0  0  0
  185.8680  178.1950  140.9270 C   0  0  2  0  0  3  0  0  0  0  0  0
  181.7590  178.5190  142.2500 C   0  0  1  0  0  3  0  0  0  0  0  0
  185.5880  178.6570  142.3720 C   0  0  1  0  0  3  0  0  0  0  0  0
  186.5810  177.8600  138.2120 C   0  0  0  0  0  3  0  0  0  0  0  0
  187.3210  176.7530  145.4060 C   0  0  0  0  0  2  0  0  0  0  0  0
  185.1070  177.9450  138.5640 C   0  0  0  0  0  2  0  0  0  0  0  0
  186.2130  177.2150  144.4560 C   0  0  0  0  0  2  0  0  0  0  0  0
  189.2240  177.3900  143.4090 C   0  0  1  0  0  3  0  0  0  0  0  0
  187.5590  178.1590  139.0830 C   0  0  0  0  0  3  0  0  0  0  0  0
  188.3270  178.5930  141.5210 C   0  0  2  0  0  3  0  0  0  0  0  0
  190.7190  178.1000  145.3190 C   0  0  0  0  0  2  0  0  0  0  0  0
  191.1850  176.6550  145.2760 C   0  0  0  0  0  2  0  0  0  0  0  0
  192.8180  175.8540  148.1910 N   0  0  0  0  0  2  0  0  0  0  0  0
  191.0480  177.0750  147.7180 C   0  0  0  0  0  2  0  0  0  0  0  0
  191.0510  176.0160  146.6480 C   0  0  2  0  0  3  0  0  0  0  0  0
  192.3390  177.1280  148.2610 O   0  0  0  0  0  0  0  0  0  0  0  0
  192.3040  175.2690  146.9640 C   0  0  0  0  0  2  0  0  0  0  0  0
  1 26  1  6  0  0  0
  1 18  1  0  0  0  0
  1 27  1  0  0  0  0
  2 27  1  0  0  0  0
  2 14  1  0  0  0  0
  3 16  1  1  0  0  0
  3 19  1  0  0  0  0
  3  7  1  0  0  0  0
  3  6  1  0  0  0  0
  4 23  1  6  0  0  0
  4 15  1  0  0  0  0
  4 18  1  0  0  0  0
  5 19  1  0  0  0  0
  5 11  1  1  0  0  0
  6  7  1  6  0  0  0
  8 16  1  0  0  0  0
  9 13  1  0  0  0  0
  9 25  1  0  0  0  0
 12  8  1  0  0  0  0
 12 15  1  0  0  0  0
 13 24  1  0  0  0  0
 14 25  1  0  0  0  0
 15  5  1  0  0  0  0
 17 28  1  0  0  0  0
 17 10  1  0  0  0  0
 18 20  1  0  0  0  0
 19  6  1  0  0  0  0
 20 11  1  0  0  0  0
 20 13  1  0  0  0  0
 21 23  1  0  0  0  0
 21 26  2  0  0  0  0
 22 10  1  0  0  0  0
 24 22  1  0  0  0  0
 25 17  1  0  0  0  0
 27  9  1  0  0  0  0
 29 28  1  0  0  0  0
 29 32  1  0  0  0  0
 30 33  1  0  0  0  0
 31 33  1  0  0  0  0
 32 34  1  0  0  0  0
 32 31  1  0  0  0  0
 34 30  1  0  0  0  0
M  END
>  <MODEL>
6

>  <REMARK>
 VINA RESULT:      -8.9      1.879      4.742
  Name = 
  3 active torsions:
  status: ('A' for Active; 'I' for Inactive)
    1  A    between atoms: C_17  and  C_28
    2  A    between atoms: C_28  and  C_29
    3  A    between atoms: C_29  and  C_32
                            x       y       z     vdW  Elec       q    Type
                         _______ _______ _______ _____ _____    ______ ____

>  <TORSDO>
F 3

$$$$
=
 OpenBabel11122412173D

 34 42  0  0  1  0  0  0  0  0999 V2000
  188.6240  177.1380  138.4330 C   0  0  2  0  0  3  0  0  0  0  0  0
  187.0830  178.2530  140.2430 C   0  0  0  0  0  2  0  0  0  0  0  0
  194.0340  174.1720  136.3710 C   0  0  2  0  0  0  0  0  0  0  0  0
  190.3920  176.5950  136.7890 C   0  0  1  0  0  3  0  0  0  0  0  0
  192.5130  175.4920  137.6330 C   0  0  1  0  0  3  0  0  0  0  0  0
  194.6700  174.0790  137.7870 C   0  0  1  0  0  3  0  0  0  0  0  0
  195.1260  173.1770  136.6800 C   0  0  0  0  0  2  0  0  0  0  0  0
  193.5300  175.9390  134.5940 C   0  0  0  0  0  2  0  0  0  0  0  0
  189.3950  177.9020  140.7130 C   0  0  2  0  0  3  0  0  0  0  0  0
  190.4320  177.1330  143.6310 C   0  0  0  0  0  2  0  0  0  0  0  0
  192.3370  176.1470  138.9960 C   0  0  0  0  0  2  0  0  0  0  0  0
  192.0870  175.7740  135.1120 C   0  0  0  0  0  2  0  0  0  0  0  0
  190.5500  176.8800  140.7400 C   0  0  1  0  0  3  0  0  0  0  0  0
  187.2950  178.5890  141.7160 C   0  0  0  0  0  2  0  0  0  0  0  0
  191.8880  176.3740  136.5230 C   0  0  1  0  0  3  0  0  0  0  0  0
  194.5480  174.9070  135.1400 C   0  0  0  0  0  2  0  0  0  0  0  0
  188.9660  177.3410  143.1900 C   0  0  2  0  0  3  0  0  0  0  0  0
  190.1430  177.1170  138.2070 C   0  0  2  0  0  3  0  0  0  0  0  0
  193.9910  175.3310  137.3460 C   0  0  1  0  0  3  0  0  0  0  0  0
  190.8510  176.3100  139.3140 C   0  0  1  0  0  3  0  0  0  0  0  0
  188.4700  178.1940  136.1990 C   0  0  0  0  0  3  0  0  0  0  0  0
  191.4570  177.9820  142.8750 C   0  0  0  0  0  2  0  0  0  0  0  0
  189.8060  177.6070  135.7840 C   0  0  0  0  0  2  0  0  0  0  0  0
  191.7790  177.4160  141.4890 C   0  0  0  0  0  2  0  0  0  0  0  0
  188.7790  178.3560  142.0380 C   0  0  1  0  0  3  0  0  0  0  0  0
  187.9460  178.0260  137.4250 C   0  0  0  0  0  3  0  0  0  0  0  0
  188.2450  177.3520  139.9110 C   0  0  2  0  0  3  0  0  0  0  0  0
  188.1460  177.7460  144.4080 C   0  0  0  0  0  2  0  0  0  0  0  0
  189.0460  177.8980  145.6240 C   0  0  0  0  0  2  0  0  0  0  0  0
  188.1950  178.2510  148.9350 N   0  0  0  0  0  2  0  0  0  0  0  0
  187.0560  177.8040  147.1040 C   0  0  0  0  0  2  0  0  0  0  0  0
  188.4180  177.2230  146.8310 C   0  0  2  0  0  3  0  0  0  0  0  0
  187.1950  178.7340  148.1430 O   0  0  0  0  0  0  0  0  0  0  0  0
  189.1690  177.6210  148.0590 C   0  0  0  0  0  2  0  0  0  0  0  0
  1 26  1  6  0  0  0
  1 27  1  0  0  0  0
  2 14  1  0  0  0  0
  3 16  1  6  0  0  0
  3  7  1  0  0  0  0
  3 19  1  0  0  0  0
  3  6  1  0  0  0  0
  4 23  1  6  0  0  0
  4 18  1  0  0  0  0
  5 11  1  1  0  0  0
  6  7  1  6  0  0  0
  8 12  1  0  0  0  0
  8 16  1  0  0  0  0
  9 13  1  0  0  0  0
  9 25  1  0  0  0  0
 11 20  1  0  0  0  0
 12 15  1  0  0  0  0
 13 24  1  0  0  0  0
 14 25  1  0  0  0  0
 15  4  1  0  0  0  0
 15  5  1  0  0  0  0
 17 10  1  0  0  0  0
 17 28  1  0  0  0  0
 18  1  1  0  0  0  0
 18 20  1  0  0  0  0
 19  5  1  0  0  0  0
 19  6  1  0  0  0  0
 20 13  1  0  0  0  0
 21 26  2  0  0  0  0
 22 10  1  0  0  0  0
 23 21  1  0  0  0  0
 24 22  1  0  0  0  0
 25 17  1  0  0  0  0
 27  2  1  0  0  0  0
 27  9  1  0  0  0  0
 28 29  1  0  0  0  0
 29 32  1  0  0  0  0
 31 33  1  0  0  0  0
 32 31  1  0  0  0  0
 32 34  1  0  0  0  0
 33 30  1  0  0  0  0
 34 30  1  0  0  0  0
M  END
>  <MODEL>
7

>  <REMARK>
 VINA RESULT:      -8.9      5.715      8.562
  Name = 
  3 active torsions:
  status: ('A' for Active; 'I' for Inactive)
    1  A    between atoms: C_17  and  C_28
    2  A    between atoms: C_28  and  C_29
    3  A    between atoms: C_29  and  C_32
                            x       y       z     vdW  Elec       q    Type
                         _______ _______ _______ _____ _____    ______ ____

>  <TORSDO>
F 3

$$$$
=
 OpenBabel11122412173D

 34 42  0  0  1  0  0  0  0  0999 V2000
  185.1600  179.0510  144.5350 C   0  0  2  0  0  3  0  0  0  0  0  0
  182.5710  179.4620  144.3800 C   0  0  0  0  0  2  0  0  0  0  0  0
  191.0190  177.6210  142.1000 C   0  0  2  0  0  0  0  0  0  0  0  0
  187.4390  178.0900  144.6040 C   0  0  1  0  0  3  0  0  0  0  0  0
  188.6680  177.7690  142.4100 C   0  0  1  0  0  3  0  0  0  0  0  0
  190.5240  177.5430  140.6280 C   0  0  1  0  0  3  0  0  0  0  0  0
  191.9740  177.7610  140.9390 C   0  0  0  0  0  2  0  0  0  0  0  0
  190.8560  176.2730  144.2650 C   0  0  0  0  0  2  0  0  0  0  0  0
  183.7070  178.3810  142.5820 C   0  0  2  0  0  3  0  0  0  0  0  0
  182.8700  178.8310  139.5360 C   0  0  0  0  0  2  0  0  0  0  0  0
  187.3470  177.6100  141.6680 C   0  0  0  0  0  2  0  0  0  0  0  0
  189.8590  177.3820  144.6560 C   0  0  0  0  0  2  0  0  0  0  0  0
  184.8870  178.4540  141.5920 C   0  0  1  0  0  3  0  0  0  0  0  0
  181.5700  179.3270  143.2360 C   0  0  0  0  0  2  0  0  0  0  0  0
  188.5270  177.2880  143.8760 C   0  0  1  0  0  3  0  0  0  0  0  0
  191.6450  176.5280  142.9570 C   0  0  0  0  0  2  0  0  0  0  0  0
  182.2480  179.5030  140.7810 C   0  0  2  0  0  3  0  0  0  0  0  0
  186.1210  178.0880  143.8240 C   0  0  2  0  0  3  0  0  0  0  0  0
  189.7260  176.9280  141.7260 C   0  0  1  0  0  3  0  0  0  0  0  0
  186.2650  178.4600  142.3330 C   0  0  1  0  0  3  0  0  0  0  0  0
  185.8740  177.9530  146.6360 C   0  0  0  0  0  3  0  0  0  0  0  0
  183.4050  177.4160  139.7700 C   0  0  0  0  0  2  0  0  0  0  0  0
  187.1790  177.5040  146.0060 C   0  0  0  0  0  2  0  0  0  0  0  0
  184.7660  177.4110  140.4700 C   0  0  0  0  0  2  0  0  0  0  0  0
  182.2900  178.6430  142.0650 C   0  0  1  0  0  3  0  0  0  0  0  0
  184.9230  178.6160  145.9570 C   0  0  0  0  0  3  0  0  0  0  0  0
  183.9110  179.3760  143.6940 C   0  0  2  0  0  3  0  0  0  0  0  0
  180.8180  179.9090  140.4470 C   0  0  0  0  0  2  0  0  0  0  0  0
  180.3230  179.1510  139.2270 C   0  0  0  0  0  2  0  0  0  0  0  0
  179.0520  176.1460  140.3040 N   0  0  0  0  0  2  0  0  0  0  0  0
  178.9310  178.2120  141.0540 C   0  0  0  0  0  2  0  0  0  0  0  0
  179.0600  178.3780  139.5630 C   0  0  2  0  0  3  0  0  0  0  0  0
  179.3780  176.9240  141.3750 O   0  0  0  0  0  0  0  0  0  0  0  0
  179.2180  176.9620  139.1130 C   0  0  0  0  0  2  0  0  0  0  0  0
  1 26  1  1  0  0  0
  3  7  1  1  0  0  0
  3 16  1  0  0  0  0
  4 23  1  1  0  0  0
  5 11  1  6  0  0  0
  5 15  1  0  0  0  0
  6  7  1  6  0  0  0
  6 19  1  0  0  0  0
  6  3  1  0  0  0  0
  8 12  1  0  0  0  0
  9 27  1  0  0  0  0
 10 22  1  0  0  0  0
 10 17  1  0  0  0  0
 11 20  1  0  0  0  0
 13 20  1  0  0  0  0
 13  9  1  0  0  0  0
 14  2  1  0  0  0  0
 15  4  1  0  0  0  0
 15 12  1  0  0  0  0
 16  8  1  0  0  0  0
 17 25  1  0  0  0  0
 18  1  1  0  0  0  0
 18  4  1  0  0  0  0
 19  3  1  0  0  0  0
 19  5  1  0  0  0  0
 20 18  1  0  0  0  0
 22 24  1  0  0  0  0
 23 21  1  0  0  0  0
 24 13  1  0  0  0  0
 25  9  1  0  0  0  0
 25 14  1  0  0  0  0
 26 21  2  0  0  0  0
 27  2  1  0  0  0  0
 27  1  1  0  0  0  0
 28 17  1  0  0  0  0
 29 32  1  0  0  0  0
 29 28  1  0  0  0  0
 30 33  1  0  0  0  0
 31 33  1  0  0  0  0
 32 31  1  0  0  0  0
 34 32  1  0  0  0  0
 34 30  1  0  0  0  0
M  END
>  <MODEL>
8

>  <REMARK>
 VINA RESULT:      -8.7      3.737      8.561
  Name = 
  3 active torsions:
  status: ('A' for Active; 'I' for Inactive)
    1  A    between atoms: C_17  and  C_28
    2  A    between atoms: C_28  and  C_29
    3  A    between atoms: C_29  and  C_32
                            x       y       z     vdW  Elec       q    Type
                         _______ _______ _______ _____ _____    ______ ____

>  <TORSDO>
F 3

$$$$
=
 OpenBabel11122412173D

 34 42  0  0  1  0  0  0  0  0999 V2000
  188.2890  177.3780  138.8970 C   0  0  2  0  0  3  0  0  0  0  0  0
  186.9880  178.5350  140.8630 C   0  0  0  0  0  2  0  0  0  0  0  0
  193.2990  174.1540  136.2880 C   0  0  2  0  0  0  0  0  0  0  0  0
  189.8640  176.7740  137.0870 C   0  0  1  0  0  3  0  0  0  0  0  0
  191.9820  175.5270  137.7110 C   0  0  1  0  0  3  0  0  0  0  0  0
  194.0540  173.9870  137.6380 C   0  0  1  0  0  3  0  0  0  0  0  0
  194.3530  173.0890  136.4750 C   0  0  0  0  0  2  0  0  0  0  0  0
  192.7450  175.9920  134.6010 C   0  0  0  0  0  2  0  0  0  0  0  0
  189.3080  178.0370  141.1110 C   0  0  2  0  0  3  0  0  0  0  0  0
  190.5560  177.1350  143.9060 C   0  0  0  0  0  2  0  0  0  0  0  0
  191.9700  176.1570  139.0970 C   0  0  0  0  0  2  0  0  0  0  0  0
  191.3480  175.8980  135.2450 C   0  0  0  0  0  2  0  0  0  0  0  0
  190.3960  176.9490  141.0120 C   0  0  1  0  0  3  0  0  0  0  0  0
  187.3520  178.8210  142.3170 C   0  0  0  0  0  2  0  0  0  0  0  0
  191.3140  176.4730  136.6800 C   0  0  1  0  0  3  0  0  0  0  0  0
  193.7440  174.8880  135.0300 C   0  0  0  0  0  2  0  0  0  0  0  0
  189.0710  177.4400  143.6060 C   0  0  2  0  0  3  0  0  0  0  0  0
  189.7760  177.2740  138.5320 C   0  0  2  0  0  3  0  0  0  0  0  0
  193.4150  175.2870  137.2860 C   0  0  1  0  0  3  0  0  0  0  0  0
  190.5320  176.3990  139.5530 C   0  0  1  0  0  3  0  0  0  0  0  0
  187.9980  178.4980  136.7090 C   0  0  0  0  0  3  0  0  0  0  0  0
  191.5580  177.9410  143.0760 C   0  0  0  0  0  2  0  0  0  0  0  0
  189.2520  177.8450  136.1610 C   0  0  0  0  0  2  0  0  0  0  0  0
  191.7190  177.3930  141.6560 C   0  0  0  0  0  2  0  0  0  0  0  0
  188.8420  178.4930  142.4970 C   0  0  1  0  0  3  0  0  0  0  0  0
  187.5780  178.3300  137.9740 C   0  0  0  0  0  3  0  0  0  0  0  0
  188.0590  177.5770  140.4080 C   0  0  2  0  0  3  0  0  0  0  0  0
  188.3910  177.8610  144.9020 C   0  0  0  0  0  2  0  0  0  0  0  0
  186.9060  177.5460  144.8480 C   0  0  0  0  0  2  0  0  0  0  0  0
  183.8270  178.6700  145.8810 N   0  0  0  0  0  2  0  0  0  0  0  0
  185.8490  178.7420  146.7490 C   0  0  0  0  0  2  0  0  0  0  0  0
  186.0940  178.7620  145.2640 C   0  0  2  0  0  3  0  0  0  0  0  0
  184.5530  178.2500  146.9550 O   0  0  0  0  0  0  0  0  0  0  0  0
  184.7080  178.6310  144.7250 C   0  0  0  0  0  2  0  0  0  0  0  0
  1 26  1  6  0  0  0
  1 27  1  0  0  0  0
  2 14  1  0  0  0  0
  3 16  1  6  0  0  0
  3  7  1  0  0  0  0
  3 19  1  0  0  0  0
  3  6  1  0  0  0  0
  4 23  1  6  0  0  0
  4 18  1  0  0  0  0
  5 11  1  1  0  0  0
  6  7  1  6  0  0  0
  8 16  1  0  0  0  0
  8 12  1  0  0  0  0
  9 25  1  0  0  0  0
 11 20  1  0  0  0  0
 12 15  1  0  0  0  0
 13  9  1  0  0  0  0
 13 24  1  0  0  0  0
 14 25  1  0  0  0  0
 15  4  1  0  0  0  0
 15  5  1  0  0  0  0
 17 10  1  0  0  0  0
 17 28  1  0  0  0  0
 18  1  1  0  0  0  0
 18 20  1  0  0  0  0
 19  6  1  0  0  0  0
 19  5  1  0  0  0  0
 20 13  1  0  0  0  0
 21 26  2  0  0  0  0
 22 10  1  0  0  0  0
 23 21  1  0  0  0  0
 24 22  1  0  0  0  0
 25 17  1  0  0  0  0
 27  2  1  0  0  0  0
 27  9  1  0  0  0  0
 29 28  1  0  0  0  0
 29 32  1  0  0  0  0
 30 33  1  0  0  0  0
 31 33  1  0  0  0  0
 32 31  1  0  0  0  0
 34 32  1  0  0  0  0
 34 30  1  0  0  0  0
M  END
>  <MODEL>
9

>  <REMARK>
 VINA RESULT:      -8.5      5.606      8.345
  Name = 
  3 active torsions:
  status: ('A' for Active; 'I' for Inactive)
    1  A    between atoms: C_17  and  C_28
    2  A    between atoms: C_28  and  C_29
    3  A    between atoms: C_29  and  C_32
                            x       y       z     vdW  Elec       q    Type
                         _______ _______ _______ _____ _____    ______ ____

>  <TORSDO>
F 3

$$$$
