=
 OpenBabel11122411583D

 28 32  0  0  1  0  0  0  0  0999 V2000
  184.5490  177.5510  138.2980 C   0  0  0  0  0  0  0  0  0  0  0  0
  182.4900  179.8490  138.7580 O   0  0  0  0  0  0  0  0  0  0  0  0
  185.5510  178.0050  144.1570 O   0  0  0  0  0  0  0  0  0  0  0  0
  183.3170  175.1190  137.6290 C   0  0  0  0  0  3  0  0  0  0  0  0
  183.6560  179.2060  143.3790 C   0  0  1  0  0  3  0  0  0  0  0  0
  185.3230  178.7880  138.6040 C   0  0  0  0  0  2  0  0  0  0  0  0
  180.7110  178.2770  138.1110 O   0  0  0  0  0  0  0  0  0  0  0  0
  181.3050  179.0640  139.2450 S   0  0  0  0  0  0  0  0  0  0  0  0
  179.9760  180.3220  141.2770 C   0  0  0  0  0  0  0  0  0  0  0  0
  181.7390  177.9510  140.5820 C   0  0  2  0  0  3  0  0  0  0  0  0
  188.1760  177.6420  140.5560 O   0  0  0  0  0  0  0  0  0  0  0  0
  183.9670  178.6460  141.0910 N   0  0  1  0  0  0  0  0  0  0  0  0
  180.6850  179.6550  142.1390 N   0  0  0  0  0  0  0  0  0  0  0  0
  180.1370  180.1560  139.8710 N   0  0  0  0  0  2  0  0  0  0  0  0
  187.1160  178.2730  140.3110 C   0  0  0  0  0  0  0  0  0  0  0  0
  183.6430  176.9480  139.2100 C   0  0  0  0  0  0  0  0  0  0  0  0
  184.8520  178.3850  143.2300 C   0  0  0  0  0  0  0  0  0  0  0  0
  178.9310  181.2540  141.7720 C   0  0  0  0  0  1  0  0  0  0  0  0
  186.3670  178.9020  141.4360 C   0  0  0  0  0  2  0  0  0  0  0  0
  183.0440  175.7290  138.8530 C   0  0  0  0  0  3  0  0  0  0  0  0
  184.8130  176.9280  137.0700 C   0  0  0  0  0  3  0  0  0  0  0  0
  184.1990  175.7230  136.7340 C   0  0  0  0  0  3  0  0  0  0  0  0
  186.6840  178.4170  138.9590 N   0  0  0  0  0  2  0  0  0  0  0  0
  183.0990  179.3250  142.0100 N   0  0  1  0  0  0  0  0  0  0  0  0
  185.1240  178.1110  141.8200 C   0  0  2  0  0  3  0  0  0  0  0  0
  181.7750  178.7010  141.8850 C   0  0  2  0  0  3  0  0  0  0  0  0
  182.7390  178.5900  144.3370 N   0  0  0  0  0  1  0  0  0  0  0  0
  183.1920  177.5320  140.5370 C   0  0  2  0  0  3  0  0  0  0  0  0
  1  6  1  0  0  0  0
  1 16  1  0  0  0  0
  2  8  2  0  0  0  0
  4 20  1  0  0  0  0
  5 27  1  1  0  0  0
  6 23  1  0  0  0  0
  7  8  2  0  0  0  0
  8 14  1  0  0  0  0
  9 18  1  0  0  0  0
  9 13  2  0  0  0  0
 10  8  1  6  0  0  0
 10 26  1  0  0  0  0
 12 25  1  0  0  0  0
 12 24  1  0  0  0  0
 14  9  1  0  0  0  0
 15 11  2  0  0  0  0
 15 19  1  0  0  0  0
 16 28  1  0  0  0  0
 17  5  1  0  0  0  0
 17  3  2  0  0  0  0
 19 25  1  0  0  0  0
 20 16  2  0  0  0  0
 21  1  2  0  0  0  0
 22 21  1  0  0  0  0
 22  4  2  0  0  0  0
 23 15  1  0  0  0  0
 24  5  1  0  0  0  0
 25 17  1  0  0  0  0
 26 24  1  0  0  0  0
 26 13  1  0  0  0  0
 28 10  1  0  0  0  0
 28 12  1  0  0  0  0
M  END
>  <MODEL>
1

>  <REMARK>
 VINA RESULT:      -6.5      0.000      0.000
  Name = 
  0 active torsions:
  status: ('A' for Active; 'I' for Inactive)
                            x       y       z     vdW  Elec       q    Type
                         _______ _______ _______ _____ _____    ______ ____

>  <TORSDO>
F 0

$$$$
=
 OpenBabel11122411583D

 28 32  0  0  1  0  0  0  0  0999 V2000
  180.0580  177.7880  141.5330 C   0  0  0  0  0  0  0  0  0  0  0  0
  179.0620  179.4440  139.0840 O   0  0  0  0  0  0  0  0  0  0  0  0
  182.0920  173.9660  137.4350 O   0  0  0  0  0  0  0  0  0  0  0  0
  182.1460  179.0570  142.9140 C   0  0  0  0  0  3  0  0  0  0  0  0
  181.3650  176.0540  136.5700 C   0  0  1  0  0  3  0  0  0  0  0  0
  178.9310  177.0330  140.9130 C   0  0  0  0  0  2  0  0  0  0  0  0
  180.6350  181.2170  139.7460 O   0  0  0  0  0  0  0  0  0  0  0  0
  180.3230  180.1720  138.7120 S   0  0  0  0  0  0  0  0  0  0  0  0
  180.6750  180.3450  136.0070 C   0  0  0  0  0  0  0  0  0  0  0  0
  181.7180  179.0580  138.5500 C   0  0  2  0  0  3  0  0  0  0  0  0
  179.8470  173.5270  141.2770 O   0  0  0  0  0  0  0  0  0  0  0  0
  180.6540  176.9220  138.6630 N   0  0  1  0  0  0  0  0  0  0  0  0
  181.3930  179.2610  136.0410 N   0  0  0  0  0  0  0  0  0  0  0  0
  180.1020  180.9140  137.1810 N   0  0  0  0  0  2  0  0  0  0  0  0
  179.5630  174.5960  140.6780 C   0  0  0  0  0  0  0  0  0  0  0  0
  181.2760  178.0690  140.8610 C   0  0  0  0  0  0  0  0  0  0  0  0
  181.5770  175.0590  137.6150 C   0  0  0  0  0  0  0  0  0  0  0  0
  180.4840  181.0400  134.7070 C   0  0  0  0  0  1  0  0  0  0  0  0
  179.8170  174.6990  139.2130 C   0  0  0  0  0  2  0  0  0  0  0  0
  182.3070  178.7000  141.5750 C   0  0  0  0  0  3  0  0  0  0  0  0
  179.9090  178.1530  142.8780 C   0  0  0  0  0  3  0  0  0  0  0  0
  180.9430  178.7880  143.5650 C   0  0  0  0  0  3  0  0  0  0  0  0
  178.9540  175.6640  141.4030 N   0  0  0  0  0  2  0  0  0  0  0  0
  180.8110  177.2360  137.2720 N   0  0  1  0  0  0  0  0  0  0  0  0
  181.0540  175.5290  138.8960 C   0  0  2  0  0  3  0  0  0  0  0  0
  181.6990  178.4040  137.1960 C   0  0  2  0  0  3  0  0  0  0  0  0
  182.6190  176.3200  135.8670 N   0  0  0  0  0  1  0  0  0  0  0  0
  181.5640  177.8110  139.3930 C   0  0  2  0  0  3  0  0  0  0  0  0
  1 21  1  0  0  0  0
  3 17  2  0  0  0  0
  4 22  1  0  0  0  0
  5 27  1  1  0  0  0
  5 24  1  0  0  0  0
  5 17  1  0  0  0  0
  6 23  1  0  0  0  0
  6  1  1  0  0  0  0
  8  2  2  0  0  0  0
  8  7  2  0  0  0  0
  9 13  2  0  0  0  0
  9 14  1  0  0  0  0
 10  8  1  6  0  0  0
 10 28  1  0  0  0  0
 12 25  1  0  0  0  0
 12 28  1  0  0  0  0
 13 26  1  0  0  0  0
 14  8  1  0  0  0  0
 15 11  2  0  0  0  0
 15 23  1  0  0  0  0
 16  1  2  0  0  0  0
 16 20  1  0  0  0  0
 17 25  1  0  0  0  0
 18  9  1  0  0  0  0
 19 15  1  0  0  0  0
 20  4  2  0  0  0  0
 21 22  2  0  0  0  0
 24 12  1  0  0  0  0
 25 19  1  0  0  0  0
 26 24  1  0  0  0  0
 26 10  1  0  0  0  0
 28 16  1  0  0  0  0
M  END
>  <MODEL>
2

>  <REMARK>
 VINA RESULT:      -5.9      3.769      6.285
  Name = 
  0 active torsions:
  status: ('A' for Active; 'I' for Inactive)
                            x       y       z     vdW  Elec       q    Type
                         _______ _______ _______ _____ _____    ______ ____

>  <TORSDO>
F 0

$$$$
=
 OpenBabel11122411583D

 28 32  0  0  1  0  0  0  0  0999 V2000
  182.5470  179.9020  138.7510 C   0  0  0  0  0  0  0  0  0  0  0  0
  181.3310  177.9840  140.8900 O   0  0  0  0  0  0  0  0  0  0  0  0
  184.7670  174.9260  136.3330 O   0  0  0  0  0  0  0  0  0  0  0  0
  180.5890  181.0790  137.1210 C   0  0  0  0  0  3  0  0  0  0  0  0
  183.1600  174.5660  138.0440 C   0  0  1  0  0  3  0  0  0  0  0  0
  183.6770  179.3780  139.5720 C   0  0  0  0  0  2  0  0  0  0  0  0
  179.0980  178.6400  140.0910 O   0  0  0  0  0  0  0  0  0  0  0  0
  180.0960  177.5190  140.1720 S   0  0  0  0  0  0  0  0  0  0  0  0
  179.5900  174.8620  140.5690 C   0  0  0  0  0  0  0  0  0  0  0  0
  180.4620  176.9250  138.5200 C   0  0  2  0  0  3  0  0  0  0  0  0
  186.4300  178.9790  137.2230 O   0  0  0  0  0  0  0  0  0  0  0  0
  182.8500  176.8690  138.5400 N   0  0  1  0  0  0  0  0  0  0  0  0
  180.2440  174.5850  139.4790 N   0  0  0  0  0  0  0  0  0  0  0  0
  179.4200  176.1980  141.0340 N   0  0  0  0  0  2  0  0  0  0  0  0
  185.5580  178.6290  138.0580 C   0  0  0  0  0  0  0  0  0  0  0  0
  181.7090  179.0790  137.9550 C   0  0  0  0  0  0  0  0  0  0  0  0
  184.0310  175.3750  137.1990 C   0  0  0  0  0  0  0  0  0  0  0  0
  178.9590  173.7530  141.3310 C   0  0  0  0  0  1  0  0  0  0  0  0
  185.2470  177.1800  138.2210 C   0  0  0  0  0  2  0  0  0  0  0  0
  180.7390  179.6920  137.1450 C   0  0  0  0  0  3  0  0  0  0  0  0
  182.3840  181.2940  138.7190 C   0  0  0  0  0  3  0  0  0  0  0  0
  181.4090  181.8810  137.9130 C   0  0  0  0  0  3  0  0  0  0  0  0
  184.9240  179.6200  138.8670 N   0  0  0  0  0  2  0  0  0  0  0  0
  182.4000  175.5440  138.8590 N   0  0  1  0  0  0  0  0  0  0  0  0
  183.9350  176.7900  137.5530 C   0  0  2  0  0  3  0  0  0  0  0  0
  180.9570  175.5060  138.5820 C   0  0  2  0  0  3  0  0  0  0  0  0
  182.3160  173.7050  137.2180 N   0  0  0  0  0  1  0  0  0  0  0  0
  181.7050  177.5610  137.9390 C   0  0  2  0  0  3  0  0  0  0  0  0
  1  6  1  0  0  0  0
  3 17  2  0  0  0  0
  4 20  2  0  0  0  0
  4 22  1  0  0  0  0
  5 27  1  6  0  0  0
  5 24  1  0  0  0  0
  7  8  2  0  0  0  0
  8  2  2  0  0  0  0
  8 14  1  0  0  0  0
  9 14  1  0  0  0  0
  9 18  1  0  0  0  0
 10 26  1  0  0  0  0
 10  8  1  1  0  0  0
 11 15  2  0  0  0  0
 12 24  1  0  0  0  0
 13  9  2  0  0  0  0
 15 19  1  0  0  0  0
 15 23  1  0  0  0  0
 16  1  2  0  0  0  0
 17 25  1  0  0  0  0
 17  5  1  0  0  0  0
 20 16  1  0  0  0  0
 21  1  1  0  0  0  0
 22 21  2  0  0  0  0
 23  6  1  0  0  0  0
 25 19  1  0  0  0  0
 25 12  1  0  0  0  0
 26 24  1  0  0  0  0
 26 13  1  0  0  0  0
 28 16  1  0  0  0  0
 28 10  1  0  0  0  0
 28 12  1  0  0  0  0
M  END
>  <MODEL>
3

>  <REMARK>
 VINA RESULT:      -5.7      3.434      5.012
  Name = 
  0 active torsions:
  status: ('A' for Active; 'I' for Inactive)
                            x       y       z     vdW  Elec       q    Type
                         _______ _______ _______ _____ _____    ______ ____

>  <TORSDO>
F 0

$$$$
=
 OpenBabel11122411583D

 28 32  0  0  1  0  0  0  0  0999 V2000
  182.8960  176.9510  137.1490 C   0  0  0  0  0  0  0  0  0  0  0  0
  184.2910  174.1750  137.4290 O   0  0  0  0  0  0  0  0  0  0  0  0
  188.4130  179.1650  137.5960 O   0  0  0  0  0  0  0  0  0  0  0  0
  181.8060  177.3550  134.5940 C   0  0  0  0  0  3  0  0  0  0  0  0
  188.3100  176.8120  137.2930 C   0  0  1  0  0  3  0  0  0  0  0  0
  183.3930  176.8420  138.5500 C   0  0  0  0  0  2  0  0  0  0  0  0
  183.5440  173.6580  135.1420 O   0  0  0  0  0  0  0  0  0  0  0  0
  184.7350  173.9450  136.0120 S   0  0  0  0  0  0  0  0  0  0  0  0
  187.2200  172.8160  135.8620 C   0  0  0  0  0  0  0  0  0  0  0  0
  185.6310  175.3510  135.3530 C   0  0  2  0  0  3  0  0  0  0  0  0
  184.4680  180.2110  139.4210 O   0  0  0  0  0  0  0  0  0  0  0  0
  185.9370  176.6940  137.3040 N   0  0  1  0  0  0  0  0  0  0  0  0
  187.7430  174.0030  135.7600 N   0  0  0  0  0  0  0  0  0  0  0  0
  185.8150  172.6110  135.9800 N   0  0  0  0  0  2  0  0  0  0  0  0
  184.5800  178.9780  139.2030 C   0  0  0  0  0  0  0  0  0  0  0  0
  183.7460  176.9400  136.0120 C   0  0  0  0  0  0  0  0  0  0  0  0
  187.7500  178.1430  137.4980 C   0  0  0  0  0  0  0  0  0  0  0  0
  188.1140  171.6300  135.8060 C   0  0  0  0  0  1  0  0  0  0  0  0
  185.9400  178.3840  139.0620 C   0  0  0  0  0  2  0  0  0  0  0  0
  183.1770  177.1490  134.7460 C   0  0  0  0  0  3  0  0  0  0  0  0
  181.5190  177.1570  136.9810 C   0  0  0  0  0  3  0  0  0  0  0  0
  180.9750  177.3540  135.7130 C   0  0  0  0  0  3  0  0  0  0  0  0
  183.4060  178.1660  139.1500 N   0  0  0  0  0  2  0  0  0  0  0  0
  187.1350  175.9210  137.1390 N   0  0  1  0  0  0  0  0  0  0  0  0
  186.2940  178.0850  137.6110 C   0  0  2  0  0  3  0  0  0  0  0  0
  187.0650  175.3060  135.8070 C   0  0  2  0  0  3  0  0  0  0  0  0
  189.2020  176.8150  136.1350 N   0  0  0  0  0  1  0  0  0  0  0  0
  185.2370  176.6520  136.0160 C   0  0  2  0  0  3  0  0  0  0  0  0
  1  6  1  0  0  0  0
  4 20  2  0  0  0  0
  4 22  1  0  0  0  0
  5 27  1  6  0  0  0
  5 17  1  0  0  0  0
  6 23  1  0  0  0  0
  7  8  2  0  0  0  0
  8  2  2  0  0  0  0
  9 14  1  0  0  0  0
 10 26  1  0  0  0  0
 10  8  1  1  0  0  0
 10 28  1  0  0  0  0
 12 25  1  0  0  0  0
 13 26  1  0  0  0  0
 13  9  2  0  0  0  0
 14  8  1  0  0  0  0
 15 11  2  0  0  0  0
 16 28  1  0  0  0  0
 16  1  2  0  0  0  0
 17  3  2  0  0  0  0
 17 25  1  0  0  0  0
 18  9  1  0  0  0  0
 19 15  1  0  0  0  0
 20 16  1  0  0  0  0
 21  1  1  0  0  0  0
 22 21  2  0  0  0  0
 23 15  1  0  0  0  0
 24  5  1  0  0  0  0
 24 12  1  0  0  0  0
 25 19  1  0  0  0  0
 26 24  1  0  0  0  0
 28 12  1  0  0  0  0
M  END
>  <MODEL>
4

>  <REMARK>
 VINA RESULT:      -5.6      3.692      6.930
  Name = 
  0 active torsions:
  status: ('A' for Active; 'I' for Inactive)
                            x       y       z     vdW  Elec       q    Type
                         _______ _______ _______ _____ _____    ______ ____

>  <TORSDO>
F 0

$$$$
=
 OpenBabel11122411583D

 28 32  0  0  1  0  0  0  0  0999 V2000
  180.5570  179.4630  141.2490 C   0  0  0  0  0  0  0  0  0  0  0  0
  180.2900  176.9310  139.4460 O   0  0  0  0  0  0  0  0  0  0  0  0
  186.3880  179.0060  140.0980 O   0  0  0  0  0  0  0  0  0  0  0  0
  179.4290  181.7470  140.0710 C   0  0  0  0  0  3  0  0  0  0  0  0
  185.0020  177.6090  138.7690 C   0  0  1  0  0  3  0  0  0  0  0  0
  181.1520  178.3190  141.9970 C   0  0  0  0  0  2  0  0  0  0  0  0
  179.0050  178.2980  137.8550 O   0  0  0  0  0  0  0  0  0  0  0  0
  180.2940  177.5610  138.0830 S   0  0  0  0  0  0  0  0  0  0  0  0
  181.7330  176.1150  136.2620 C   0  0  0  0  0  0  0  0  0  0  0  0
  181.6720  178.6890  137.8680 C   0  0  2  0  0  3  0  0  0  0  0  0
  183.9800  179.7490  143.7910 O   0  0  0  0  0  0  0  0  0  0  0  0
  182.9720  178.2490  139.8230 N   0  0  1  0  0  0  0  0  0  0  0  0
  182.7780  176.8410  136.5260 N   0  0  0  0  0  0  0  0  0  0  0  0
  180.4780  176.3280  136.9030 N   0  0  0  0  0  2  0  0  0  0  0  0
  183.3810  179.0040  142.9730 C   0  0  0  0  0  0  0  0  0  0  0  0
  181.0620  179.9370  140.0100 C   0  0  0  0  0  0  0  0  0  0  0  0
  185.2790  178.5670  139.8330 C   0  0  0  0  0  0  0  0  0  0  0  0
  181.8350  175.0560  135.2240 C   0  0  0  0  0  1  0  0  0  0  0  0
  184.1710  178.2680  141.9460 C   0  0  0  0  0  2  0  0  0  0  0  0
  180.4840  181.0840  139.4440 C   0  0  0  0  0  3  0  0  0  0  0  0
  179.4950  180.1380  141.8670 C   0  0  0  0  0  3  0  0  0  0  0  0
  178.9310  181.2700  141.2810 C   0  0  0  0  0  3  0  0  0  0  0  0
  181.9680  178.8390  143.0820 N   0  0  0  0  0  2  0  0  0  0  0  0
  183.5280  177.4540  138.7660 N   0  0  1  0  0  0  0  0  0  0  0  0
  184.0590  178.9010  140.5650 C   0  0  2  0  0  3  0  0  0  0  0  0
  182.9150  177.9210  137.5150 C   0  0  2  0  0  3  0  0  0  0  0  0
  185.5470  178.0930  137.5020 N   0  0  0  0  0  1  0  0  0  0  0  0
  182.1480  179.2760  139.1790 C   0  0  2  0  0  3  0  0  0  0  0  0
  1 21  1  0  0  0  0
  1  6  1  0  0  0  0
  4 22  1  0  0  0  0
  5 27  1  6  0  0  0
  5 17  1  0  0  0  0
  6 23  1  0  0  0  0
  7  8  2  0  0  0  0
  8  2  2  0  0  0  0
  9 13  2  0  0  0  0
  9 14  1  0  0  0  0
 10  8  1  1  0  0  0
 10 28  1  0  0  0  0
 12 25  1  0  0  0  0
 13 26  1  0  0  0  0
 14  8  1  0  0  0  0
 15 23  1  0  0  0  0
 15 11  2  0  0  0  0
 16  1  2  0  0  0  0
 17  3  2  0  0  0  0
 17 25  1  0  0  0  0
 18  9  1  0  0  0  0
 19 15  1  0  0  0  0
 20 16  1  0  0  0  0
 20  4  2  0  0  0  0
 22 21  2  0  0  0  0
 24  5  1  0  0  0  0
 24 12  1  0  0  0  0
 25 19  1  0  0  0  0
 26 10  1  0  0  0  0
 26 24  1  0  0  0  0
 28 12  1  0  0  0  0
 28 16  1  0  0  0  0
M  END
>  <MODEL>
5

>  <REMARK>
 VINA RESULT:      -5.5      2.175      5.359
  Name = 
  0 active torsions:
  status: ('A' for Active; 'I' for Inactive)
                            x       y       z     vdW  Elec       q    Type
                         _______ _______ _______ _____ _____    ______ ____

>  <TORSDO>
F 0

$$$$
=
 OpenBabel11122411583D

 28 32  0  0  1  0  0  0  0  0999 V2000
  183.0920  178.8280  138.5400 C   0  0  0  0  0  0  0  0  0  0  0  0
  181.9450  176.0790  139.4650 O   0  0  0  0  0  0  0  0  0  0  0  0
  186.3240  175.5850  134.7220 O   0  0  0  0  0  0  0  0  0  0  0  0
  181.1800  180.4050  137.2230 C   0  0  0  0  0  3  0  0  0  0  0  0
  184.6020  174.3850  135.8330 C   0  0  1  0  0  3  0  0  0  0  0  0
  184.1840  178.1080  139.2560 C   0  0  0  0  0  2  0  0  0  0  0  0
  179.7470  176.8070  138.6330 O   0  0  0  0  0  0  0  0  0  0  0  0
  180.8890  175.8550  138.4200 S   0  0  0  0  0  0  0  0  0  0  0  0
  180.7580  173.2490  137.6040 C   0  0  0  0  0  0  0  0  0  0  0  0
  181.5340  176.0590  136.7590 C   0  0  2  0  0  3  0  0  0  0  0  0
  187.2230  179.0030  137.4600 O   0  0  0  0  0  0  0  0  0  0  0  0
  183.8830  176.2170  137.1640 N   0  0  1  0  0  0  0  0  0  0  0  0
  181.5700  173.5250  136.6260 N   0  0  0  0  0  0  0  0  0  0  0  0
  180.3290  174.2370  138.5370 N   0  0  0  0  0  2  0  0  0  0  0  0
  186.3240  178.2520  137.9150 C   0  0  0  0  0  0  0  0  0  0  0  0
  182.4900  178.3510  137.3460 C   0  0  0  0  0  0  0  0  0  0  0  0
  185.4300  175.5530  135.5550 C   0  0  0  0  0  0  0  0  0  0  0  0
  180.2220  171.8680  137.7260 C   0  0  0  0  0  1  0  0  0  0  0  0
  186.2240  176.8510  137.4170 C   0  0  0  0  0  2  0  0  0  0  0  0
  181.5400  179.1610  136.7040 C   0  0  0  0  0  3  0  0  0  0  0  0
  182.7200  180.0790  139.0510 C   0  0  0  0  0  3  0  0  0  0  0  0
  181.7670  180.8620  138.4010 C   0  0  0  0  0  3  0  0  0  0  0  0
  185.4540  178.7410  138.9370 N   0  0  0  0  0  2  0  0  0  0  0  0
  183.6090  174.8480  136.8320 N   0  0  1  0  0  0  0  0  0  0  0  0
  185.0760  176.6650  136.4340 C   0  0  2  0  0  3  0  0  0  0  0  0
  182.2330  174.8010  136.3210 C   0  0  2  0  0  3  0  0  0  0  0  0
  184.0050  173.8860  134.5960 N   0  0  0  0  0  1  0  0  0  0  0  0
  182.7240  176.9920  136.7110 C   0  0  2  0  0  3  0  0  0  0  0  0
  1 21  1  0  0  0  0
  1  6  1  0  0  0  0
  3 17  2  0  0  0  0
  4 22  1  0  0  0  0
  5 27  1  6  0  0  0
  5 24  1  0  0  0  0
  8 14  1  0  0  0  0
  8  7  2  0  0  0  0
  8  2  2  0  0  0  0
  9 18  1  0  0  0  0
  9 14  1  0  0  0  0
 10  8  1  1  0  0  0
 11 15  2  0  0  0  0
 13  9  2  0  0  0  0
 15 23  1  0  0  0  0
 16  1  2  0  0  0  0
 17  5  1  0  0  0  0
 17 25  1  0  0  0  0
 19 15  1  0  0  0  0
 20  4  2  0  0  0  0
 20 16  1  0  0  0  0
 22 21  2  0  0  0  0
 23  6  1  0  0  0  0
 24 12  1  0  0  0  0
 25 12  1  0  0  0  0
 25 19  1  0  0  0  0
 26 13  1  0  0  0  0
 26 10  1  0  0  0  0
 26 24  1  0  0  0  0
 28 10  1  0  0  0  0
 28 12  1  0  0  0  0
 28 16  1  0  0  0  0
M  END
>  <MODEL>
6

>  <REMARK>
 VINA RESULT:      -5.4      3.639      5.992
  Name = 
  0 active torsions:
  status: ('A' for Active; 'I' for Inactive)
                            x       y       z     vdW  Elec       q    Type
                         _______ _______ _______ _____ _____    ______ ____

>  <TORSDO>
F 0

$$$$
=
 OpenBabel11122411583D

 28 32  0  0  1  0  0  0  0  0999 V2000
  182.1410  178.4560  140.3500 C   0  0  0  0  0  0  0  0  0  0  0  0
  181.9490  175.6730  138.9540 O   0  0  0  0  0  0  0  0  0  0  0  0
  187.3290  178.9480  137.4530 O   0  0  0  0  0  0  0  0  0  0  0  0
  180.2290  180.2740  139.3950 C   0  0  0  0  0  3  0  0  0  0  0  0
  185.9750  177.1240  136.7600 C   0  0  1  0  0  3  0  0  0  0  0  0
  183.1740  177.5750  140.9680 C   0  0  0  0  0  2  0  0  0  0  0  0
  179.9790  176.5080  137.7390 O   0  0  0  0  0  0  0  0  0  0  0  0
  181.4120  176.0750  137.6100 S   0  0  0  0  0  0  0  0  0  0  0  0
  182.5500  174.6670  135.5610 C   0  0  0  0  0  0  0  0  0  0  0  0
  182.3710  177.3980  136.8720 C   0  0  2  0  0  3  0  0  0  0  0  0
  185.9960  179.7770  141.6400 O   0  0  0  0  0  0  0  0  0  0  0  0
  184.2480  177.5200  138.3440 N   0  0  1  0  0  0  0  0  0  0  0  0
  183.4320  175.6110  135.4150 N   0  0  0  0  0  0  0  0  0  0  0  0
  181.5220  174.7330  136.5460 N   0  0  0  0  0  2  0  0  0  0  0  0
  185.3720  178.8150  141.1230 C   0  0  0  0  0  0  0  0  0  0  0  0
  182.1430  178.8210  138.9790 C   0  0  0  0  0  0  0  0  0  0  0  0
  186.3220  178.2700  137.5930 C   0  0  0  0  0  0  0  0  0  0  0  0
  182.5860  173.5000  134.6410 C   0  0  0  0  0  1  0  0  0  0  0  0
  185.9760  178.0930  139.9670 C   0  0  0  0  0  2  0  0  0  0  0  0
  181.1780  179.7360  138.5270 C   0  0  0  0  0  3  0  0  0  0  0  0
  181.1800  179.0030  141.2110 C   0  0  0  0  0  3  0  0  0  0  0  0
  180.2270  179.9030  140.7390 C   0  0  0  0  0  3  0  0  0  0  0  0
  184.1290  178.4020  141.6890 N   0  0  0  0  0  2  0  0  0  0  0  0
  184.6390  176.6920  137.2390 N   0  0  1  0  0  0  0  0  0  0  0  0
  185.3250  178.4730  138.6430 C   0  0  2  0  0  3  0  0  0  0  0  0
  183.6000  176.8360  136.2100 C   0  0  2  0  0  3  0  0  0  0  0  0
  186.0010  177.5030  135.3490 N   0  0  0  0  0  1  0  0  0  0  0  0
  183.0600  178.2600  137.9070 C   0  0  2  0  0  3  0  0  0  0  0  0
  1  6  1  0  0  0  0
  1 21  1  0  0  0  0
  3 17  2  0  0  0  0
  4 22  1  0  0  0  0
  5 27  1  6  0  0  0
  5 24  1  0  0  0  0
  5 17  1  0  0  0  0
  6 23  1  0  0  0  0
  8  7  2  0  0  0  0
  8  2  2  0  0  0  0
  9 14  1  0  0  0  0
 10  8  1  1  0  0  0
 10 28  1  0  0  0  0
 12 25  1  0  0  0  0
 13  9  2  0  0  0  0
 13 26  1  0  0  0  0
 14  8  1  0  0  0  0
 15 11  2  0  0  0  0
 15 23  1  0  0  0  0
 16  1  2  0  0  0  0
 17 25  1  0  0  0  0
 18  9  1  0  0  0  0
 19 15  1  0  0  0  0
 20 16  1  0  0  0  0
 20  4  2  0  0  0  0
 22 21  2  0  0  0  0
 24 12  1  0  0  0  0
 25 19  1  0  0  0  0
 26 10  1  0  0  0  0
 26 24  1  0  0  0  0
 28 12  1  0  0  0  0
 28 16  1  0  0  0  0
M  END
>  <MODEL>
7

>  <REMARK>
 VINA RESULT:      -5.3      2.688      5.619
  Name = 
  0 active torsions:
  status: ('A' for Active; 'I' for Inactive)
                            x       y       z     vdW  Elec       q    Type
                         _______ _______ _______ _____ _____    ______ ____

>  <TORSDO>
F 0

$$$$
=
 OpenBabel11122411583D

 28 32  0  0  1  0  0  0  0  0999 V2000
  188.2510  174.7250  135.8330 C   0  0  0  0  0  0  0  0  0  0  0  0
  185.8610  176.3010  134.5940 O   0  0  0  0  0  0  0  0  0  0  0  0
  187.8070  178.6350  140.3110 O   0  0  0  0  0  0  0  0  0  0  0  0
  187.5340  172.1310  136.6280 C   0  0  0  0  0  3  0  0  0  0  0  0
  186.0030  178.6850  138.7680 C   0  0  1  0  0  3  0  0  0  0  0  0
  188.7670  176.0610  135.4170 C   0  0  0  0  0  2  0  0  0  0  0  0
  184.5000  174.2660  134.8310 O   0  0  0  0  0  0  0  0  0  0  0  0
  184.7080  175.6710  135.3210 S   0  0  0  0  0  0  0  0  0  0  0  0
  182.7950  177.4900  136.0310 C   0  0  0  0  0  0  0  0  0  0  0  0
  184.9630  175.6520  137.0960 C   0  0  2  0  0  3  0  0  0  0  0  0
  191.2160  176.9480  137.9620 O   0  0  0  0  0  0  0  0  0  0  0  0
  186.9040  177.0260  137.3250 N   0  0  1  0  0  0  0  0  0  0  0  0
  183.3660  177.6220  137.1920 N   0  0  0  0  0  0  0  0  0  0  0  0
  183.2960  176.6030  135.0340 N   0  0  0  0  0  2  0  0  0  0  0  0
  190.1690  177.0520  137.2740 C   0  0  0  0  0  0  0  0  0  0  0  0
  187.2460  174.5450  136.8180 C   0  0  0  0  0  0  0  0  0  0  0  0
  187.2970  178.2420  139.2720 C   0  0  0  0  0  0  0  0  0  0  0  0
  181.5510  178.2530  135.7500 C   0  0  0  0  0  1  0  0  0  0  0  0
  189.1050  178.0030  137.7050 C   0  0  0  0  0  2  0  0  0  0  0  0
  186.9080  173.2380  137.2020 C   0  0  0  0  0  3  0  0  0  0  0  0
  188.8710  173.6040  135.2630 C   0  0  0  0  0  3  0  0  0  0  0  0
  188.5130  172.3150  135.6530 C   0  0  0  0  0  3  0  0  0  0  0  0
  190.0450  176.2970  136.0680 N   0  0  0  0  0  2  0  0  0  0  0  0
  185.7660  177.8720  137.5500 N   0  0  1  0  0  0  0  0  0  0  0  0
  187.9210  177.2950  138.3500 C   0  0  2  0  0  3  0  0  0  0  0  0
  184.5990  176.9890  137.6820 C   0  0  2  0  0  3  0  0  0  0  0  0
  184.9780  178.5190  139.7960 N   0  0  0  0  0  1  0  0  0  0  0  0
  186.4290  175.6470  137.4700 C   0  0  2  0  0  3  0  0  0  0  0  0
  1 16  1  0  0  0  0
  2  8  2  0  0  0  0
  4 20  1  0  0  0  0
  5 17  1  0  0  0  0
  5 27  1  1  0  0  0
  6  1  1  0  0  0  0
  6 23  1  0  0  0  0
  7  8  2  0  0  0  0
  9 13  2  0  0  0  0
 10  8  1  6  0  0  0
 10 28  1  0  0  0  0
 10 26  1  0  0  0  0
 12 28  1  0  0  0  0
 12 24  1  0  0  0  0
 12 25  1  0  0  0  0
 13 26  1  0  0  0  0
 14  8  1  0  0  0  0
 14  9  1  0  0  0  0
 15 19  1  0  0  0  0
 15 11  2  0  0  0  0
 16 20  2  0  0  0  0
 16 28  1  0  0  0  0
 17  3  2  0  0  0  0
 18  9  1  0  0  0  0
 19 25  1  0  0  0  0
 21 22  1  0  0  0  0
 21  1  2  0  0  0  0
 22  4  2  0  0  0  0
 23 15  1  0  0  0  0
 24 26  1  0  0  0  0
 24  5  1  0  0  0  0
 25 17  1  0  0  0  0
M  END
>  <MODEL>
8

>  <REMARK>
 VINA RESULT:      -5.1      4.001      5.432
  Name = 
  0 active torsions:
  status: ('A' for Active; 'I' for Inactive)
                            x       y       z     vdW  Elec       q    Type
                         _______ _______ _______ _____ _____    ______ ____

>  <TORSDO>
F 0

$$$$
=
 OpenBabel11122411583D

 28 32  0  0  1  0  0  0  0  0999 V2000
  184.7870  174.5570  135.5720 C   0  0  0  0  0  0  0  0  0  0  0  0
  182.1930  176.2760  135.7870 O   0  0  0  0  0  0  0  0  0  0  0  0
  187.1740  178.6850  139.1510 O   0  0  0  0  0  0  0  0  0  0  0  0
  184.5420  172.0720  136.8530 C   0  0  0  0  0  3  0  0  0  0  0  0
  184.8150  178.8210  138.9140 C   0  0  1  0  0  3  0  0  0  0  0  0
  185.0300  175.8240  134.8240 C   0  0  0  0  0  2  0  0  0  0  0  0
  181.1260  174.3780  136.9320 O   0  0  0  0  0  0  0  0  0  0  0  0
  181.6410  175.7800  137.0930 S   0  0  0  0  0  0  0  0  0  0  0  0
  180.5670  177.7860  138.6090 C   0  0  0  0  0  0  0  0  0  0  0  0
  182.8680  175.8180  138.4000 C   0  0  2  0  0  3  0  0  0  0  0  0
  188.5340  176.6090  135.4320 O   0  0  0  0  0  0  0  0  0  0  0  0
  184.6470  177.0290  137.3630 N   0  0  1  0  0  0  0  0  0  0  0  0
  181.7070  177.9200  139.2210 N   0  0  0  0  0  0  0  0  0  0  0  0
  180.3640  176.8170  137.5840 N   0  0  0  0  0  2  0  0  0  0  0  0
  187.2870  176.7710  135.4580 C   0  0  0  0  0  0  0  0  0  0  0  0
  184.5240  174.5080  136.9660 C   0  0  0  0  0  0  0  0  0  0  0  0
  186.1430  178.2910  138.6260 C   0  0  0  0  0  0  0  0  0  0  0  0
  179.4240  178.6400  139.0230 C   0  0  0  0  0  1  0  0  0  0  0  0
  186.7090  177.8290  136.3350 C   0  0  0  0  0  2  0  0  0  0  0  0
  184.4100  173.2520  137.5840 C   0  0  0  0  0  3  0  0  0  0  0  0
  184.9150  173.3630  134.8490 C   0  0  0  0  0  3  0  0  0  0  0  0
  184.7890  172.1270  135.4820 C   0  0  0  0  0  3  0  0  0  0  0  0
  186.4590  175.9780  134.6080 N   0  0  0  0  0  2  0  0  0  0  0  0
  183.8860  177.9780  138.1230 N   0  0  1  0  0  0  0  0  0  0  0  0
  186.0790  177.2550  137.5980 C   0  0  2  0  0  3  0  0  0  0  0  0
  182.9680  177.2060  138.9720 C   0  0  2  0  0  3  0  0  0  0  0  0
  184.5610  178.7890  140.3530 N   0  0  0  0  0  1  0  0  0  0  0  0
  184.2810  175.7030  137.8700 C   0  0  2  0  0  3  0  0  0  0  0  0
  1 16  1  0  0  0  0
  2  8  2  0  0  0  0
  4 20  1  0  0  0  0
  5 27  1  1  0  0  0
  6  1  1  0  0  0  0
  7  8  2  0  0  0  0
  8 14  1  0  0  0  0
  9 18  1  0  0  0  0
  9 13  2  0  0  0  0
 10  8  1  6  0  0  0
 10 26  1  0  0  0  0
 11 15  2  0  0  0  0
 12 25  1  0  0  0  0
 12 28  1  0  0  0  0
 12 24  1  0  0  0  0
 14  9  1  0  0  0  0
 15 19  1  0  0  0  0
 16 20  2  0  0  0  0
 16 28  1  0  0  0  0
 17  5  1  0  0  0  0
 17  3  2  0  0  0  0
 19 25  1  0  0  0  0
 21 22  1  0  0  0  0
 21  1  2  0  0  0  0
 22  4  2  0  0  0  0
 23  6  1  0  0  0  0
 23 15  1  0  0  0  0
 24  5  1  0  0  0  0
 24 26  1  0  0  0  0
 25 17  1  0  0  0  0
 26 13  1  0  0  0  0
 28 10  1  0  0  0  0
M  END
>  <MODEL>
9

>  <REMARK>
 VINA RESULT:      -5.0      2.957      4.234
  Name = 
  0 active torsions:
  status: ('A' for Active; 'I' for Inactive)
                            x       y       z     vdW  Elec       q    Type
                         _______ _______ _______ _____ _____    ______ ____

>  <TORSDO>
F 0

$$$$
