=
 OpenBabel11122410363D

 32 38  0  0  1  0  0  0  0  0999 V2000
  186.7410  177.1190  145.9220 C   0  0  2  0  0  3  0  0  0  0  0  0
  183.9040  178.7030  141.9760 C   0  0  0  0  0  0  0  0  0  0  0  0
  179.5540  178.8570  144.1740 C   0  0  0  0  0  3  0  0  0  0  0  0
  178.9320  178.5340  142.9680 C   0  0  0  0  0  3  0  0  0  0  0  0
  184.1310  178.2980  139.4750 C   0  0  0  0  0  0  0  0  0  0  0  0
  183.3680  177.6780  138.3480 C   0  0  0  0  0  0  0  0  0  0  0  0
  185.9950  178.5710  143.4010 C   0  0  1  0  0  3  0  0  0  0  0  0
  183.8100  179.1650  144.4270 C   0  0  0  0  0  3  0  0  0  0  0  0
  181.6960  177.0170  137.1410 C   0  0  0  0  0  0  0  0  0  0  0  0
  185.7190  179.2510  145.9500 C   0  0  0  0  0  2  0  0  0  0  0  0
  180.9440  178.9810  144.2320 C   0  0  0  0  0  3  0  0  0  0  0  0
  183.1320  178.8930  143.1410 C   0  0  0  0  0  0  0  0  0  0  0  0
  181.7290  178.7880  143.0830 C   0  0  0  0  0  0  0  0  0  0  0  0
  181.8610  178.2590  140.7000 C   0  0  0  0  0  0  0  0  0  0  0  0
  182.8220  176.8610  136.4150 N   0  0  0  0  0  0  0  0  0  0  0  0
  187.3600  176.7410  144.5880 C   0  0  0  0  0  2  0  0  0  0  0  0
  185.1330  179.0650  144.5660 C   0  0  0  0  0  0  0  0  0  0  0  0
  183.8500  177.2750  137.1540 N   0  0  0  0  0  0  0  0  0  0  0  0
  186.3360  177.0680  143.4830 C   0  0  0  0  0  2  0  0  0  0  0  0
  187.0860  178.5980  145.9960 C   0  0  1  0  0  3  0  0  0  0  0  0
  179.6990  178.3370  141.8170 C   0  0  0  0  0  3  0  0  0  0  0  0
  181.0960  178.4630  141.8590 C   0  0  1  0  0  3  0  0  0  0  0  0
  181.2090  177.8480  139.4840 N   0  0  0  0  0  0  0  0  0  0  0  0
  185.3950  178.9270  142.0400 C   0  0  0  0  0  2  0  0  0  0  0  0
  184.6040  179.6770  139.0430 C   0  0  0  0  0  1  0  0  0  0  0  0
  180.3910  176.6700  136.6910 N   0  0  0  0  0  1  0  0  0  0  0  0
  183.2800  178.4130  140.7440 C   0  0  0  0  0  0  0  0  0  0  0  0
  182.0210  177.5380  138.3610 C   0  0  0  0  0  0  0  0  0  0  0  0
  187.4900  177.6810  147.1270 C   0  0  2  0  0  3  0  0  0  0  0  0
  188.9510  177.3640  147.0670 C   0  0  0  0  0  0  0  0  0  0  0  0
  189.8170  178.1830  146.3530 O   0  0  0  0  0  0  0  0  0  0  0  0
  189.4080  176.3740  147.6970 O   0  0  0  0  0  1  0  0  0  0  0  0
  1 16  1  6  0  0  0
  1 20  1  0  0  0  0
  1 29  1  0  0  0  0
  2 24  1  0  0  0  0
  2 12  1  0  0  0  0
  3 11  2  0  0  0  0
  4  3  1  0  0  0  0
  5 27  1  0  0  0  0
  6 28  1  0  0  0  0
  6  5  2  0  0  0  0
  7 24  1  6  0  0  0
  7 19  1  0  0  0  0
  7 17  1  0  0  0  0
  8 17  2  0  0  0  0
  9 28  2  0  0  0  0
 12  8  1  0  0  0  0
 13 12  2  0  0  0  0
 13 11  1  0  0  0  0
 14 27  1  0  0  0  0
 14 22  1  0  0  0  0
 15  9  1  0  0  0  0
 15 18  2  0  0  0  0
 17 10  1  0  0  0  0
 18  6  1  0  0  0  0
 19 16  1  0  0  0  0
 20 10  1  1  0  0  0
 20 29  1  0  0  0  0
 21  4  2  0  0  0  0
 22 21  1  1  0  0  0
 22 13  1  0  0  0  0
 23 14  2  0  0  0  0
 25  5  1  0  0  0  0
 26  9  1  0  0  0  0
 27  2  2  0  0  0  0
 28 23  1  0  0  0  0
 29 30  1  6  0  0  0
 30 32  1  0  0  0  0
 31 30  2  0  0  0  0
M  END
>  <MODEL>
1

>  <REMARK>
 VINA RESULT:      -9.4      0.000      0.000
  Name = 
  1 active torsions:
  status: ('A' for Active; 'I' for Inactive)
    1  A    between atoms: C_29  and  C_30
                            x       y       z     vdW  Elec       q    Type
                         _______ _______ _______ _____ _____    ______ ____

>  <TORSDO>
F 1

$$$$
=
 OpenBabel11122410363D

 32 38  0  0  1  0  0  0  0  0999 V2000
  181.9710  176.3820  137.9250 C   0  0  2  0  0  3  0  0  0  0  0  0
  185.3270  178.4220  141.1980 C   0  0  0  0  0  0  0  0  0  0  0  0
  189.3850  177.9320  138.5410 C   0  0  0  0  0  3  0  0  0  0  0  0
  190.1320  177.7770  139.7080 C   0  0  0  0  0  3  0  0  0  0  0  0
  185.3830  178.4570  143.7410 C   0  0  0  0  0  0  0  0  0  0  0  0
  186.2480  177.9870  144.8680 C   0  0  0  0  0  0  0  0  0  0  0  0
  183.0760  178.1860  140.0580 C   0  0  1  0  0  3  0  0  0  0  0  0
  185.1470  178.4600  138.7090 C   0  0  0  0  0  3  0  0  0  0  0  0
  188.0220  177.4330  145.9790 C   0  0  0  0  0  0  0  0  0  0  0  0
  183.0740  178.4110  137.4150 C   0  0  0  0  0  2  0  0  0  0  0  0
  188.0040  178.1310  138.6160 C   0  0  0  0  0  3  0  0  0  0  0  0
  185.9610  178.3650  139.9400 C   0  0  0  0  0  0  0  0  0  0  0  0
  187.3550  178.1840  139.8600 C   0  0  0  0  0  0  0  0  0  0  0  0
  187.4860  178.0700  142.2980 C   0  0  0  0  0  0  0  0  0  0  0  0
  186.9850  177.4720  146.8400 N   0  0  0  0  0  0  0  0  0  0  0  0
  181.5010  176.2720  139.3650 C   0  0  0  0  0  2  0  0  0  0  0  0
  183.8130  178.4220  138.7370 C   0  0  0  0  0  0  0  0  0  0  0  0
  185.8950  177.8210  146.1600 N   0  0  0  0  0  2  0  0  0  0  0  0
  182.6630  176.7140  140.2770 C   0  0  0  0  0  2  0  0  0  0  0  0
  181.6840  177.8470  137.6340 C   0  0  1  0  0  3  0  0  0  0  0  0
  189.5000  177.8240  140.9530 C   0  0  0  0  0  3  0  0  0  0  0  0
  188.1150  178.0280  141.0440 C   0  0  0  0  0  0  0  0  0  0  0  0
  188.2610  177.8280  143.4880 N   0  0  0  0  0  0  0  0  0  0  0  0
  183.8500  178.7260  141.2620 C   0  0  0  0  0  2  0  0  0  0  0  0
  185.0250  179.9160  143.9770 C   0  0  0  0  0  1  0  0  0  0  0  0
  189.3550  177.0850  146.3350 N   0  0  0  0  0  1  0  0  0  0  0  0
  186.0800  178.3040  142.3850 C   0  0  0  0  0  0  0  0  0  0  0  0
  187.5760  177.7620  144.7310 C   0  0  0  0  0  0  0  0  0  0  0  0
  181.1090  176.7800  136.7310 C   0  0  2  0  0  3  0  0  0  0  0  0
  179.6530  176.5710  137.0060 C   0  0  0  0  0  0  0  0  0  0  0  0
  179.0980  175.3010  136.9110 O   0  0  0  0  0  0  0  0  0  0  0  0
  178.9340  177.5400  137.3640 O   0  0  0  0  0  1  0  0  0  0  0  0
  1 16  1  1  0  0  0
  2 24  1  0  0  0  0
  2 27  1  0  0  0  0
  3 11  2  0  0  0  0
  3  4  1  0  0  0  0
  4 21  2  0  0  0  0
  5 25  1  0  0  0  0
  5  6  1  0  0  0  0
  6 18  1  0  0  0  0
  7 19  1  1  0  0  0
  7 24  1  0  0  0  0
  8 17  2  0  0  0  0
  8 12  1  0  0  0  0
  9 26  1  0  0  0  0
  9 15  2  0  0  0  0
 10 17  1  0  0  0  0
 11 13  1  0  0  0  0
 12  2  2  0  0  0  0
 13 12  1  0  0  0  0
 13 22  2  0  0  0  0
 14 27  1  0  0  0  0
 14 23  2  0  0  0  0
 16 19  1  0  0  0  0
 17  7  1  0  0  0  0
 18 15  1  0  0  0  0
 20 10  1  6  0  0  0
 20  1  1  0  0  0  0
 21 22  1  0  0  0  0
 22 14  1  0  0  0  0
 23 28  1  0  0  0  0
 27  5  2  0  0  0  0
 28  6  2  0  0  0  0
 28  9  1  0  0  0  0
 29 30  1  1  0  0  0
 29 20  1  0  0  0  0
 29  1  1  0  0  0  0
 30 32  1  0  0  0  0
 31 30  2  0  0  0  0
M  END
>  <MODEL>
2

>  <REMARK>
 VINA RESULT:      -8.4      5.238      8.936
  Name = 
  1 active torsions:
  status: ('A' for Active; 'I' for Inactive)
    1  A    between atoms: C_29  and  C_30
                            x       y       z     vdW  Elec       q    Type
                         _______ _______ _______ _____ _____    ______ ____

>  <TORSDO>
F 1

$$$$
=
 OpenBabel11122410363D

 32 38  0  0  1  0  0  0  0  0999 V2000
  188.9710  175.8940  137.4570 C   0  0  2  0  0  3  0  0  0  0  0  0
  185.3620  178.6110  139.8500 C   0  0  0  0  0  0  0  0  0  0  0  0
  186.9150  178.0730  144.4400 C   0  0  0  0  0  3  0  0  0  0  0  0
  185.5980  178.1360  144.8940 C   0  0  0  0  0  3  0  0  0  0  0  0
  182.9080  178.9960  139.2990 C   0  0  0  0  0  0  0  0  0  0  0  0
  181.5560  178.7520  139.8900 C   0  0  0  0  0  0  0  0  0  0  0  0
  186.9380  178.0510  137.9460 C   0  0  1  0  0  3  0  0  0  0  0  0
  187.8030  178.2950  140.2650 C   0  0  0  0  0  3  0  0  0  0  0  0
  179.9980  178.4910  141.3720 C   0  0  0  0  0  0  0  0  0  0  0  0
  189.5150  177.9120  138.5630 C   0  0  0  0  0  2  0  0  0  0  0  0
  187.1890  178.1750  143.0740 C   0  0  0  0  0  3  0  0  0  0  0  0
  186.4180  178.4310  140.7670 C   0  0  0  0  0  0  0  0  0  0  0  0
  186.1480  178.3470  142.1460 C   0  0  0  0  0  0  0  0  0  0  0  0
  183.7570  178.5780  141.6990 C   0  0  0  0  0  0  0  0  0  0  0  0
  179.4130  178.5690  140.1590 N   0  0  0  0  0  0  0  0  0  0  0  0
  187.6780  175.9460  136.6630 C   0  0  0  0  0  2  0  0  0  0  0  0
  188.0750  178.1600  138.9650 C   0  0  0  0  0  0  0  0  0  0  0  0
  180.3700  178.7370  139.2480 N   0  0  0  0  0  0  0  0  0  0  0  0
  186.6010  176.5960  137.5560 C   0  0  0  0  0  2  0  0  0  0  0  0
  189.5370  177.2790  137.1860 C   0  0  1  0  0  3  0  0  0  0  0  0
  184.5530  178.3040  143.9830 C   0  0  0  0  0  3  0  0  0  0  0  0
  184.8120  178.4130  142.6090 C   0  0  1  0  0  3  0  0  0  0  0  0
  182.3990  178.5600  142.1790 N   0  0  0  0  0  0  0  0  0  0  0  0
  185.6850  178.8070  138.3890 C   0  0  0  0  0  2  0  0  0  0  0  0
  182.9830  180.4430  138.8340 C   0  0  0  0  0  1  0  0  0  0  0  0
  179.2980  178.2980  142.5950 N   0  0  0  0  0  1  0  0  0  0  0  0
  184.0300  178.7130  140.3040 C   0  0  0  0  0  0  0  0  0  0  0  0
  181.3500  178.6120  141.2220 C   0  0  0  0  0  0  0  0  0  0  0  0
  190.3760  176.0580  136.8870 C   0  0  2  0  0  3  0  0  0  0  0  0
  190.4140  175.7780  135.4170 C   0  0  0  0  0  0  0  0  0  0  0  0
  190.4390  174.4680  134.9550 O   0  0  0  0  0  1  0  0  0  0  0  0
  190.3830  176.7300  134.5940 O   0  0  0  0  0  0  0  0  0  0  0  0
  1 16  1  6  0  0  0
  2 27  2  0  0  0  0
  2 12  1  0  0  0  0
  3  4  1  0  0  0  0
  5  6  2  0  0  0  0
  5 27  1  0  0  0  0
  6 28  1  0  0  0  0
  7 19  1  1  0  0  0
  7 24  1  0  0  0  0
  7 17  1  0  0  0  0
  8 12  1  0  0  0  0
  9 26  1  0  0  0  0
 10 17  1  0  0  0  0
 11  3  2  0  0  0  0
 12 13  2  0  0  0  0
 13 22  1  0  0  0  0
 13 11  1  0  0  0  0
 14 23  2  0  0  0  0
 14 22  1  0  0  0  0
 15  9  1  0  0  0  0
 16 19  1  0  0  0  0
 17  8  2  0  0  0  0
 18  6  1  0  0  0  0
 18 15  2  0  0  0  0
 20  1  1  0  0  0  0
 20 10  1  1  0  0  0
 21  4  2  0  0  0  0
 22 21  1  6  0  0  0
 24  2  1  0  0  0  0
 25  5  1  0  0  0  0
 27 14  1  0  0  0  0
 28  9  2  0  0  0  0
 28 23  1  0  0  0  0
 29 30  1  6  0  0  0
 29 20  1  0  0  0  0
 29  1  1  0  0  0  0
 31 30  1  0  0  0  0
 32 30  2  0  0  0  0
M  END
>  <MODEL>
3

>  <REMARK>
 VINA RESULT:      -8.4      4.376      6.618
  Name = 
  1 active torsions:
  status: ('A' for Active; 'I' for Inactive)
    1  A    between atoms: C_29  and  C_30
                            x       y       z     vdW  Elec       q    Type
                         _______ _______ _______ _____ _____    ______ ____

>  <TORSDO>
F 1

$$$$
=
 OpenBabel11122410363D

 32 38  0  0  1  0  0  0  0  0999 V2000
  186.2260  177.2570  145.7610 C   0  0  2  0  0  3  0  0  0  0  0  0
  183.9880  178.6080  141.3680 C   0  0  0  0  0  0  0  0  0  0  0  0
  179.3420  178.6220  142.8470 C   0  0  0  0  0  3  0  0  0  0  0  0
  178.9330  178.2400  141.5700 C   0  0  0  0  0  3  0  0  0  0  0  0
  184.6250  178.1490  138.9480 C   0  0  0  0  0  0  0  0  0  0  0  0
  184.0770  177.4660  137.7360 C   0  0  0  0  0  0  0  0  0  0  0  0
  185.8310  178.6080  143.1070 C   0  0  1  0  0  3  0  0  0  0  0  0
  183.4880  179.1290  143.7570 C   0  0  0  0  0  3  0  0  0  0  0  0
  182.6450  176.6980  136.3040 C   0  0  0  0  0  0  0  0  0  0  0  0
  185.1260  179.3410  145.5580 C   0  0  0  0  0  2  0  0  0  0  0  0
  180.6990  178.8100  143.1190 C   0  0  0  0  0  3  0  0  0  0  0  0
  183.0340  178.7930  142.3900 C   0  0  0  0  0  0  0  0  0  0  0  0
  181.6640  178.6230  142.1150 C   0  0  0  0  0  0  0  0  0  0  0  0
  182.1930  178.0390  139.8020 C   0  0  0  0  0  0  0  0  0  0  0  0
  183.8770  176.5750  135.7690 N   0  0  0  0  0  0  0  0  0  0  0  0
  187.0630  176.8730  144.5540 C   0  0  0  0  0  2  0  0  0  0  0  0
  184.7750  179.0920  144.1050 C   0  0  0  0  0  0  0  0  0  0  0  0
  184.7580  177.0540  136.6460 N   0  0  0  0  0  0  0  0  0  0  0  0
  186.2150  177.1240  143.2910 C   0  0  0  0  0  2  0  0  0  0  0  0
  186.4940  178.7520  145.8400 C   0  0  1  0  0  3  0  0  0  0  0  0
  179.8800  178.0480  140.5610 C   0  0  0  0  0  3  0  0  0  0  0  0
  181.2470  178.2380  140.8180 C   0  0  1  0  0  3  0  0  0  0  0  0
  181.7590  177.5670  138.5120 N   0  0  0  0  0  0  0  0  0  0  0  0
  185.4400  178.9010  141.6580 C   0  0  0  0  0  2  0  0  0  0  0  0
  185.1040  179.5370  138.5500 C   0  0  0  0  0  1  0  0  0  0  0  0
  181.4440  176.2820  135.6650 N   0  0  0  0  0  1  0  0  0  0  0  0
  183.5800  178.2580  140.0630 C   0  0  0  0  0  0  0  0  0  0  0  0
  182.7510  177.2660  137.5410 C   0  0  0  0  0  0  0  0  0  0  0  0
  186.7510  177.8830  147.0490 C   0  0  2  0  0  3  0  0  0  0  0  0
  188.2140  177.6320  147.2300 C   0  0  0  0  0  0  0  0  0  0  0  0
  188.6550  176.7080  148.1700 O   0  0  0  0  0  1  0  0  0  0  0  0
  189.0510  178.2280  146.5030 O   0  0  0  0  0  0  0  0  0  0  0  0
  1 16  1  6  0  0  0
  1 20  1  0  0  0  0
  1 29  1  0  0  0  0
  2 24  1  0  0  0  0
  2 12  1  0  0  0  0
  3 11  2  0  0  0  0
  4  3  1  0  0  0  0
  5 27  1  0  0  0  0
  6  5  2  0  0  0  0
  7 24  1  6  0  0  0
  7 19  1  0  0  0  0
  7 17  1  0  0  0  0
  8 17  2  0  0  0  0
  9 28  2  0  0  0  0
 12  8  1  0  0  0  0
 13 12  2  0  0  0  0
 13 11  1  0  0  0  0
 14 27  1  0  0  0  0
 14 22  1  0  0  0  0
 15  9  1  0  0  0  0
 15 18  2  0  0  0  0
 17 10  1  0  0  0  0
 18  6  1  0  0  0  0
 19 16  1  0  0  0  0
 20 10  1  1  0  0  0
 20 29  1  0  0  0  0
 21  4  2  0  0  0  0
 22 21  1  1  0  0  0
 22 13  1  0  0  0  0
 23 14  2  0  0  0  0
 25  5  1  0  0  0  0
 26  9  1  0  0  0  0
 27  2  2  0  0  0  0
 28  6  1  0  0  0  0
 28 23  1  0  0  0  0
 29 30  1  6  0  0  0
 30 31  1  0  0  0  0
 32 30  2  0  0  0  0
M  END
>  <MODEL>
4

>  <REMARK>
 VINA RESULT:      -8.3      0.858      1.097
  Name = 
  1 active torsions:
  status: ('A' for Active; 'I' for Inactive)
    1  A    between atoms: C_29  and  C_30
                            x       y       z     vdW  Elec       q    Type
                         _______ _______ _______ _____ _____    ______ ____

>  <TORSDO>
F 1

$$$$
=
 OpenBabel11122410363D

 32 38  0  0  1  0  0  0  0  0999 V2000
  188.0730  176.6240  143.5110 C   0  0  2  0  0  3  0  0  0  0  0  0
  190.5400  176.6110  139.0340 C   0  0  0  0  0  0  0  0  0  0  0  0
  186.7170  176.0810  136.0550 C   0  0  0  0  0  3  0  0  0  0  0  0
  187.5150  175.3770  135.1540 C   0  0  0  0  0  3  0  0  0  0  0  0
  192.8620  175.7880  138.3980 C   0  0  0  0  0  0  0  0  0  0  0  0
  193.5070  174.7810  137.4990 C   0  0  0  0  0  0  0  0  0  0  0  0
  190.1370  177.3050  141.4370 C   0  0  1  0  0  3  0  0  0  0  0  0
  188.3240  177.5120  139.7480 C   0  0  0  0  0  3  0  0  0  0  0  0
  193.8330  173.4880  135.7930 C   0  0  0  0  0  0  0  0  0  0  0  0
  187.7710  178.3850  141.9620 C   0  0  0  0  0  2  0  0  0  0  0  0
  187.2660  176.5650  137.2440 C   0  0  0  0  0  3  0  0  0  0  0  0
  189.1750  176.8250  138.7510 C   0  0  0  0  0  0  0  0  0  0  0  0
  188.6220  176.3550  137.5450 C   0  0  0  0  0  0  0  0  0  0  0  0
  190.7870  175.4140  136.9110 C   0  0  0  0  0  0  0  0  0  0  0  0
  194.9550  173.4840  136.5400 N   0  0  0  0  0  0  0  0  0  0  0  0
  189.5110  176.1580  143.6550 C   0  0  0  0  0  2  0  0  0  0  0  0
  188.7560  177.7830  140.9810 C   0  0  0  0  0  0  0  0  0  0  0  0
  194.7590  174.2850  137.5860 N   0  0  0  0  0  0  0  0  0  0  0  0
  190.0960  175.9860  142.2380 C   0  0  0  0  0  2  0  0  0  0  0  0
  188.2640  178.1260  143.3720 C   0  0  1  0  0  3  0  0  0  0  0  0
  188.8640  175.1580  135.4390 C   0  0  0  0  0  3  0  0  0  0  0  0
  189.4310  175.6420  136.6280 C   0  0  1  0  0  3  0  0  0  0  0  0
  191.5750  174.6160  136.0080 N   0  0  0  0  0  0  0  0  0  0  0  0
  191.1350  177.2170  140.2810 C   0  0  0  0  0  2  0  0  0  0  0  0
  193.5560  177.1270  138.2070 C   0  0  0  0  0  1  0  0  0  0  0  0
  193.6570  172.7370  134.5970 N   0  0  0  0  0  1  0  0  0  0  0  0
  191.3630  175.9310  138.1110 C   0  0  0  0  0  0  0  0  0  0  0  0
  192.9110  174.3070  136.3790 C   0  0  0  0  0  0  0  0  0  0  0  0
  187.3480  177.5860  144.4470 C   0  0  2  0  0  3  0  0  0  0  0  0
  188.0010  177.6480  145.7910 C   0  0  0  0  0  0  0  0  0  0  0  0
  189.2430  178.2530  145.9390 O   0  0  0  0  0  0  0  0  0  0  0  0
  187.4080  177.1870  146.8020 O   0  0  0  0  0  1  0  0  0  0  0  0
  1 16  1  1  0  0  0
  1 29  1  0  0  0  0
  2 24  1  0  0  0  0
  3 11  2  0  0  0  0
  4 21  2  0  0  0  0
  4  3  1  0  0  0  0
  6 18  1  0  0  0  0
  6  5  2  0  0  0  0
  7 24  1  6  0  0  0
  7 19  1  0  0  0  0
  8 17  2  0  0  0  0
  9 28  2  0  0  0  0
  9 15  1  0  0  0  0
 11 13  1  0  0  0  0
 12  2  1  0  0  0  0
 12  8  1  0  0  0  0
 13 12  2  0  0  0  0
 14 27  1  0  0  0  0
 15 18  2  0  0  0  0
 17  7  1  0  0  0  0
 17 10  1  0  0  0  0
 19 16  1  0  0  0  0
 20 10  1  6  0  0  0
 20  1  1  0  0  0  0
 20 29  1  0  0  0  0
 22 21  1  1  0  0  0
 22 14  1  0  0  0  0
 22 13  1  0  0  0  0
 23 28  1  0  0  0  0
 23 14  2  0  0  0  0
 25  5  1  0  0  0  0
 26  9  1  0  0  0  0
 27  5  1  0  0  0  0
 27  2  2  0  0  0  0
 28  6  1  0  0  0  0
 29 30  1  1  0  0  0
 30 31  2  0  0  0  0
 30 32  1  0  0  0  0
M  END
>  <MODEL>
5

>  <REMARK>
 VINA RESULT:      -7.8      6.642      8.634
  Name = 
  1 active torsions:
  status: ('A' for Active; 'I' for Inactive)
    1  A    between atoms: C_29  and  C_30
                            x       y       z     vdW  Elec       q    Type
                         _______ _______ _______ _____ _____    ______ ____

>  <TORSDO>
F 1

$$$$
=
 OpenBabel11122410363D

 32 38  0  0  1  0  0  0  0  0999 V2000
  185.3100  177.8910  144.8220 C   0  0  2  0  0  3  0  0  0  0  0  0
  186.6520  178.2570  139.9030 C   0  0  0  0  0  0  0  0  0  0  0  0
  182.2610  177.6710  137.8660 C   0  0  0  0  0  3  0  0  0  0  0  0
  182.8540  177.0620  136.7600 C   0  0  0  0  0  3  0  0  0  0  0  0
  188.7920  177.6020  138.6920 C   0  0  0  0  0  0  0  0  0  0  0  0
  189.2490  176.6840  137.6040 C   0  0  0  0  0  0  0  0  0  0  0  0
  186.7970  178.7980  142.3740 C   0  0  1  0  0  3  0  0  0  0  0  0
  184.6300  178.9910  141.1690 C   0  0  0  0  0  3  0  0  0  0  0  0
  189.2190  175.5040  135.7880 C   0  0  0  0  0  0  0  0  0  0  0  0
  184.5770  179.7120  143.5040 C   0  0  0  0  0  2  0  0  0  0  0  0
  183.0540  178.1210  138.9240 C   0  0  0  0  0  3  0  0  0  0  0  0
  185.2510  178.4080  139.9590 C   0  0  0  0  0  0  0  0  0  0  0  0
  184.4500  177.9730  138.8870 C   0  0  0  0  0  0  0  0  0  0  0  0
  186.4430  177.1920  137.7070 C   0  0  0  0  0  0  0  0  0  0  0  0
  190.4850  175.5240  136.2530 N   0  0  0  0  0  0  0  0  0  0  0  0
  186.7600  177.5010  144.5960 C   0  0  0  0  0  2  0  0  0  0  0  0
  185.3280  179.2200  142.2830 C   0  0  0  0  0  0  0  0  0  0  0  0
  190.5060  176.2560  137.3650 N   0  0  0  0  0  0  0  0  0  0  0  0
  187.0020  177.4370  143.0750 C   0  0  0  0  0  2  0  0  0  0  0  0
  185.3990  179.4060  144.7410 C   0  0  1  0  0  3  0  0  0  0  0  0
  184.2410  176.9050  136.7090 C   0  0  0  0  0  3  0  0  0  0  0  0
  185.0500  177.3570  137.7630 C   0  0  1  0  0  3  0  0  0  0  0  0
  187.0290  176.4890  136.5950 N   0  0  0  0  0  0  0  0  0  0  0  0
  187.4970  178.8280  141.0150 C   0  0  0  0  0  2  0  0  0  0  0  0
  189.3630  178.9870  138.4330 C   0  0  0  0  0  1  0  0  0  0  0  0
  188.7990  174.8090  134.6200 N   0  0  0  0  0  1  0  0  0  0  0  0
  187.2630  177.6760  138.7710 C   0  0  0  0  0  0  0  0  0  0  0  0
  188.4270  176.2370  136.6250 C   0  0  0  0  0  0  0  0  0  0  0  0
  184.7850  178.7590  145.9610 C   0  0  2  0  0  3  0  0  0  0  0  0
  185.7330  178.7860  147.1180 C   0  0  0  0  0  0  0  0  0  0  0  0
  186.2870  177.6060  147.5980 O   0  0  0  0  0  0  0  0  0  0  0  0
  186.0630  179.8860  147.6360 O   0  0  0  0  0  1  0  0  0  0  0  0
  1 16  1  1  0  0  0
  1 29  1  0  0  0  0
  2 12  1  0  0  0  0
  2 24  1  0  0  0  0
  3 11  2  0  0  0  0
  4  3  1  0  0  0  0
  5 27  1  0  0  0  0
  6  5  2  0  0  0  0
  7 24  1  6  0  0  0
  7 19  1  0  0  0  0
  8 17  2  0  0  0  0
  9 15  1  0  0  0  0
  9 28  2  0  0  0  0
 12  8  1  0  0  0  0
 13 11  1  0  0  0  0
 13 12  2  0  0  0  0
 14 22  1  0  0  0  0
 14 27  1  0  0  0  0
 15 18  2  0  0  0  0
 17  7  1  0  0  0  0
 17 10  1  0  0  0  0
 18  6  1  0  0  0  0
 19 16  1  0  0  0  0
 20 10  1  6  0  0  0
 20  1  1  0  0  0  0
 20 29  1  0  0  0  0
 21  4  2  0  0  0  0
 22 21  1  1  0  0  0
 22 13  1  0  0  0  0
 23 28  1  0  0  0  0
 23 14  2  0  0  0  0
 25  5  1  0  0  0  0
 26  9  1  0  0  0  0
 27  2  2  0  0  0  0
 28  6  1  0  0  0  0
 29 30  1  1  0  0  0
 30 31  2  0  0  0  0
 30 32  1  0  0  0  0
M  END
>  <MODEL>
6

>  <REMARK>
 VINA RESULT:      -7.6      3.448      5.135
  Name = 
  1 active torsions:
  status: ('A' for Active; 'I' for Inactive)
    1  A    between atoms: C_29  and  C_30
                            x       y       z     vdW  Elec       q    Type
                         _______ _______ _______ _____ _____    ______ ____

>  <TORSDO>
F 1

$$$$
=
 OpenBabel11122410363D

 32 38  0  0  1  0  0  0  0  0999 V2000
  190.4140  176.3660  145.6170 C   0  0  2  0  0  3  0  0  0  0  0  0
  190.5970  177.1910  140.5750 C   0  0  0  0  0  0  0  0  0  0  0  0
  186.0240  178.7350  139.8860 C   0  0  0  0  0  3  0  0  0  0  0  0
  186.0310  178.1860  138.6040 C   0  0  0  0  0  3  0  0  0  0  0  0
  191.9180  176.0380  138.7320 C   0  0  0  0  0  0  0  0  0  0  0  0
  191.6800  175.2570  137.4790 C   0  0  0  0  0  0  0  0  0  0  0  0
  191.5280  177.1220  142.9310 C   0  0  1  0  0  3  0  0  0  0  0  0
  189.4270  178.3600  142.4450 C   0  0  0  0  0  3  0  0  0  0  0  0
  190.7350  174.5720  135.6540 C   0  0  0  0  0  0  0  0  0  0  0  0
  190.2280  178.5560  144.7460 C   0  0  0  0  0  2  0  0  0  0  0  0
  187.1550  178.6270  140.6980 C   0  0  0  0  0  3  0  0  0  0  0  0
  189.4450  177.8450  141.0580 C   0  0  0  0  0  0  0  0  0  0  0  0
  188.3100  177.9730  140.2360 C   0  0  0  0  0  0  0  0  0  0  0  0
  189.4550  176.7550  138.4540 C   0  0  0  0  0  0  0  0  0  0  0  0
  191.9620  174.0170  135.7220 N   0  0  0  0  0  0  0  0  0  0  0  0
  191.4700  175.5120  144.9380 C   0  0  0  0  0  2  0  0  0  0  0  0
  190.3950  178.0770  143.3180 C   0  0  0  0  0  0  0  0  0  0  0  0
  192.5470  174.4440  136.8400 N   0  0  0  0  0  0  0  0  0  0  0  0
  191.3010  175.6730  143.4140 C   0  0  0  0  0  2  0  0  0  0  0  0
  191.1090  177.7180  145.6510 C   0  0  1  0  0  3  0  0  0  0  0  0
  187.1700  177.5310  138.1310 C   0  0  0  0  0  3  0  0  0  0  0  0
  188.3160  177.4180  138.9330 C   0  0  1  0  0  3  0  0  0  0  0  0
  189.4150  176.1250  137.1590 N   0  0  0  0  0  0  0  0  0  0  0  0
  191.8380  177.1610  141.4340 C   0  0  0  0  0  2  0  0  0  0  0  0
  192.9400  177.1260  138.4410 C   0  0  0  0  0  1  0  0  0  0  0  0
  189.8030  174.3410  134.6050 N   0  0  0  0  0  1  0  0  0  0  0  0
  190.6260  176.6650  139.2660 C   0  0  0  0  0  0  0  0  0  0  0  0
  190.5420  175.3630  136.7500 C   0  0  0  0  0  0  0  0  0  0  0  0
  190.5840  177.1170  146.9340 C   0  0  2  0  0  3  0  0  0  0  0  0
  191.6970  176.5480  147.7560 C   0  0  0  0  0  0  0  0  0  0  0  0
  191.9730  175.1870  147.7140 O   0  0  0  0  0  0  0  0  0  0  0  0
  192.4130  177.3080  148.4600 O   0  0  0  0  0  1  0  0  0  0  0  0
  1 16  1  1  0  0  0
  1 20  1  0  0  0  0
  1 29  1  0  0  0  0
  2 12  1  0  0  0  0
  2 24  1  0  0  0  0
  3 11  2  0  0  0  0
  4  3  1  0  0  0  0
  5 27  1  0  0  0  0
  6  5  2  0  0  0  0
  7 24  1  6  0  0  0
  7 17  1  0  0  0  0
  7 19  1  0  0  0  0
  8 17  2  0  0  0  0
  9 15  1  0  0  0  0
  9 28  2  0  0  0  0
 12  8  1  0  0  0  0
 13 11  1  0  0  0  0
 13 12  2  0  0  0  0
 14 22  1  0  0  0  0
 14 27  1  0  0  0  0
 15 18  2  0  0  0  0
 17 10  1  0  0  0  0
 18  6  1  0  0  0  0
 19 16  1  0  0  0  0
 20 10  1  6  0  0  0
 20 29  1  0  0  0  0
 21  4  2  0  0  0  0
 22 21  1  1  0  0  0
 22 13  1  0  0  0  0
 23 14  2  0  0  0  0
 25  5  1  0  0  0  0
 26  9  1  0  0  0  0
 27  2  2  0  0  0  0
 28 23  1  0  0  0  0
 28  6  1  0  0  0  0
 29 30  1  1  0  0  0
 30 32  1  0  0  0  0
 31 30  2  0  0  0  0
M  END
>  <MODEL>
7

>  <REMARK>
 VINA RESULT:      -7.5      5.271      7.091
  Name = 
  1 active torsions:
  status: ('A' for Active; 'I' for Inactive)
    1  A    between atoms: C_29  and  C_30
                            x       y       z     vdW  Elec       q    Type
                         _______ _______ _______ _____ _____    ______ ____

>  <TORSDO>
F 1

$$$$
=
 OpenBabel11122410363D

 32 38  0  0  1  0  0  0  0  0999 V2000
  191.0430  175.1010  137.9820 C   0  0  2  0  0  3  0  0  0  0  0  0
  188.8970  177.8930  141.6880 C   0  0  0  0  0  0  0  0  0  0  0  0
  191.8210  176.6380  145.3820 C   0  0  0  0  0  3  0  0  0  0  0  0
  190.7600  176.7910  146.2750 C   0  0  0  0  0  3  0  0  0  0  0  0
  186.4860  178.6110  142.0670 C   0  0  0  0  0  0  0  0  0  0  0  0
  185.3950  178.4480  143.0770 C   0  0  0  0  0  0  0  0  0  0  0  0
  189.6340  177.3950  139.3150 C   0  0  1  0  0  3  0  0  0  0  0  0
  191.2610  177.2620  141.1910 C   0  0  0  0  0  3  0  0  0  0  0  0
  184.4130  178.1850  144.9890 C   0  0  0  0  0  0  0  0  0  0  0  0
  192.2180  176.8990  138.9720 C   0  0  0  0  0  2  0  0  0  0  0  0
  191.6260  176.8730  144.0190 C   0  0  0  0  0  3  0  0  0  0  0  0
  190.1640  177.4890  142.1580 C   0  0  0  0  0  0  0  0  0  0  0  0
  190.3690  177.2690  143.5330 C   0  0  0  0  0  0  0  0  0  0  0  0
  188.0290  177.8150  143.9760 C   0  0  0  0  0  0  0  0  0  0  0  0
  183.4680  178.4720  144.0700 N   0  0  0  0  0  0  0  0  0  0  0  0
  189.5790  175.3910  137.7010 C   0  0  0  0  0  2  0  0  0  0  0  0
  191.0530  177.2540  139.8730 C   0  0  0  0  0  0  0  0  0  0  0  0
  184.0720  178.6410  142.8960 N   0  0  0  0  0  0  0  0  0  0  0  0
  188.9760  176.0440  138.9610 C   0  0  0  0  0  2  0  0  0  0  0  0
  191.6790  176.4380  137.6320 C   0  0  1  0  0  3  0  0  0  0  0  0
  189.5040  177.1820  145.8060 C   0  0  0  0  0  3  0  0  0  0  0  0
  189.2950  177.4270  144.4410 C   0  0  0  0  0  0  0  0  0  0  0  0
  186.9270  177.8900  144.9010 N   0  0  0  0  0  0  0  0  0  0  0  0
  188.7300  178.2270  140.2260 C   0  0  0  0  0  2  0  0  0  0  0  0
  186.6080  180.0850  141.7150 C   0  0  0  0  0  1  0  0  0  0  0  0
  184.1490  177.9240  146.3630 N   0  0  0  0  0  1  0  0  0  0  0  0
  187.8290  178.0860  142.5890 C   0  0  0  0  0  0  0  0  0  0  0  0
  185.6360  178.1730  144.3820 C   0  0  1  0  0  3  0  0  0  0  0  0
  192.1790  175.1770  136.9660 C   0  0  2  0  0  3  0  0  0  0  0  0
  191.6740  175.0730  135.5620 C   0  0  0  0  0  0  0  0  0  0  0  0
  191.4250  176.2220  134.8210 O   0  0  0  0  0  0  0  0  0  0  0  0
  191.5110  173.9420  135.0330 O   0  0  0  0  0  1  0  0  0  0  0  0
  1 16  1  6  0  0  0
  2 12  2  0  0  0  0
  2 27  1  0  0  0  0
  3  4  1  0  0  0  0
  5 27  2  0  0  0  0
  5  6  1  0  0  0  0
  7 19  1  1  0  0  0
  7 17  1  0  0  0  0
  7 24  1  0  0  0  0
  8 12  1  0  0  0  0
  9 26  1  0  0  0  0
 10 17  1  0  0  0  0
 11  3  2  0  0  0  0
 12 13  1  0  0  0  0
 13 11  1  0  0  0  0
 13 22  2  0  0  0  0
 14 22  1  0  0  0  0
 14 23  2  0  0  0  0
 15  9  2  0  0  0  0
 16 19  1  0  0  0  0
 17  8  2  0  0  0  0
 18  6  2  0  0  0  0
 18 15  1  0  0  0  0
 20  1  1  0  0  0  0
 20 10  1  1  0  0  0
 21  4  2  0  0  0  0
 22 21  1  0  0  0  0
 24  2  1  0  0  0  0
 25  5  1  0  0  0  0
 27 14  1  0  0  0  0
 28  6  1  6  0  0  0
 28 23  1  0  0  0  0
 28  9  1  0  0  0  0
 29 30  1  6  0  0  0
 29 20  1  0  0  0  0
 29  1  1  0  0  0  0
 31 30  2  0  0  0  0
 32 30  1  0  0  0  0
M  END
>  <MODEL>
8

>  <REMARK>
 VINA RESULT:      -7.0      5.734      8.675
  Name = 
  1 active torsions:
  status: ('A' for Active; 'I' for Inactive)
    1  A    between atoms: C_29  and  C_30
                            x       y       z     vdW  Elec       q    Type
                         _______ _______ _______ _____ _____    ______ ____

>  <TORSDO>
F 1

$$$$
=
 OpenBabel11122410363D

 32 38  0  0  1  0  0  0  0  0999 V2000
  186.6280  177.2030  145.7240 C   0  0  2  0  0  3  0  0  0  0  0  0
  186.5650  178.3850  140.7500 C   0  0  0  0  0  0  0  0  0  0  0  0
  181.7420  178.5790  140.0690 C   0  0  0  0  0  3  0  0  0  0  0  0
  181.9080  178.1440  138.7550 C   0  0  0  0  0  3  0  0  0  0  0  0
  188.1650  177.7910  138.8630 C   0  0  0  0  0  0  0  0  0  0  0  0
  188.1650  177.0610  137.5580 C   0  0  0  0  0  0  0  0  0  0  0  0
  187.4750  178.4290  143.1150 C   0  0  1  0  0  3  0  0  0  0  0  0
  185.1050  179.0350  142.6670 C   0  0  0  0  0  3  0  0  0  0  0  0
  187.4610  176.2560  135.6740 C   0  0  0  0  0  0  0  0  0  0  0  0
  185.8130  179.2990  144.9920 C   0  0  0  0  0  2  0  0  0  0  0  0
  182.8550  178.7490  140.8960 C   0  0  0  0  0  3  0  0  0  0  0  0
  185.2730  178.6420  141.2510 C   0  0  0  0  0  0  0  0  0  0  0  0
  184.1500  178.4910  140.4160 C   0  0  0  0  0  0  0  0  0  0  0  0
  185.6010  177.7800  138.5820 C   0  0  0  0  0  0  0  0  0  0  0  0
  188.7970  176.0780  135.7320 N   0  0  0  0  0  0  0  0  0  0  0  0
  187.8870  176.7400  145.0120 C   0  0  0  0  0  2  0  0  0  0  0  0
  186.1140  178.9870  143.5400 C   0  0  0  0  0  0  0  0  0  0  0  0
  189.2320  176.5800  136.8860 N   0  0  0  0  0  0  0  0  0  0  0  0
  187.6790  176.9480  143.4990 C   0  0  0  0  0  2  0  0  0  0  0  0
  186.8990  178.6930  145.8590 C   0  0  1  0  0  3  0  0  0  0  0  0
  183.1890  177.8800  138.2640 C   0  0  0  0  0  3  0  0  0  0  0  0
  184.3170  178.0510  139.0810 C   0  0  1  0  0  3  0  0  0  0  0  0
  185.7460  177.2540  137.2490 N   0  0  0  0  0  0  0  0  0  0  0  0
  187.7610  178.6580  141.6300 C   0  0  0  0  0  2  0  0  0  0  0  0
  188.8270  179.1460  138.6640 C   0  0  0  0  0  1  0  0  0  0  0  0
  186.6370  175.8360  134.5940 N   0  0  0  0  0  1  0  0  0  0  0  0
  186.7460  177.9790  139.4110 C   0  0  0  0  0  0  0  0  0  0  0  0
  187.0470  176.8820  136.8150 C   0  0  0  0  0  0  0  0  0  0  0  0
  186.5710  177.8800  147.0900 C   0  0  2  0  0  3  0  0  0  0  0  0
  187.8010  177.6040  147.8960 C   0  0  0  0  0  0  0  0  0  0  0  0
  188.7850  178.5770  148.0270 O   0  0  0  0  0  0  0  0  0  0  0  0
  187.9300  176.5020  148.4900 O   0  0  0  0  0  1  0  0  0  0  0  0
  1 16  1  1  0  0  0
  1 20  1  0  0  0  0
  1 29  1  0  0  0  0
  2 12  1  0  0  0  0
  2 24  1  0  0  0  0
  3 11  2  0  0  0  0
  4  3  1  0  0  0  0
  5 27  1  0  0  0  0
  6  5  2  0  0  0  0
  7 24  1  6  0  0  0
  7 19  1  0  0  0  0
  7 17  1  0  0  0  0
  8 17  2  0  0  0  0
  9 15  1  0  0  0  0
  9 28  2  0  0  0  0
 12  8  1  0  0  0  0
 13 11  1  0  0  0  0
 13 12  2  0  0  0  0
 14 22  1  0  0  0  0
 14 27  1  0  0  0  0
 15 18  2  0  0  0  0
 17 10  1  0  0  0  0
 18  6  1  0  0  0  0
 19 16  1  0  0  0  0
 20 10  1  6  0  0  0
 20 29  1  0  0  0  0
 21  4  2  0  0  0  0
 22 21  1  1  0  0  0
 22 13  1  0  0  0  0
 23 14  2  0  0  0  0
 25  5  1  0  0  0  0
 26  9  1  0  0  0  0
 27  2  2  0  0  0  0
 28 23  1  0  0  0  0
 28  6  1  0  0  0  0
 29 30  1  1  0  0  0
 30 31  2  0  0  0  0
 30 32  1  0  0  0  0
M  END
>  <MODEL>
9

>  <REMARK>
 VINA RESULT:      -7.0      2.577      3.779
  Name = 
  1 active torsions:
  status: ('A' for Active; 'I' for Inactive)
    1  A    between atoms: C_29  and  C_30
                            x       y       z     vdW  Elec       q    Type
                         _______ _______ _______ _____ _____    ______ ____

>  <TORSDO>
F 1

$$$$
