=
 OpenBabel11122411543D

 28 32  0  0  1  0  0  0  0  0999 V2000
  189.0800  178.1400  138.5200 C   0  0  0  0  0  0  0  0  0  0  0  0
  192.1440  176.6480  135.6770 O   0  0  0  0  0  0  0  0  0  0  0  0
  186.8340  173.5660  134.5950 C   0  0  0  0  0  1  0  0  0  0  0  0
  189.7310  177.4350  141.1290 C   0  0  0  0  0  3  0  0  0  0  0  0
  188.9700  172.9280  135.9440 C   0  0  2  0  0  3  0  0  0  0  0  0
  188.6430  178.5260  137.1450 C   0  0  0  0  0  2  0  0  0  0  0  0
  193.3550  176.9030  137.8080 O   0  0  0  0  0  0  0  0  0  0  0  0
  192.6390  175.9370  136.9060 S   0  0  0  0  0  0  0  0  0  0  0  0
  193.2940  173.4240  136.3300 C   0  0  0  0  0  0  0  0  0  0  0  0
  191.3050  175.1800  137.7860 C   0  0  2  0  0  3  0  0  0  0  0  0
  186.0450  177.1700  135.0160 N   0  0  0  0  0  1  0  0  0  0  0  0
  188.9250  174.8700  137.5050 C   0  0  2  0  0  3  0  0  0  0  0  0
  191.9570  173.0510  136.5480 O   0  0  0  0  0  0  0  0  0  0  0  0
  193.7040  174.6520  136.4520 N   0  0  0  0  0  0  0  0  0  0  0  0
  187.4020  177.3840  135.4870 C   0  0  2  0  0  3  0  0  0  0  0  0
  189.7120  176.9060  138.7640 C   0  0  0  0  0  0  0  0  0  0  0  0
  187.6130  173.6490  135.9050 C   0  0  1  0  0  3  0  0  0  0  0  0
  194.2670  172.3800  135.9160 C   0  0  0  0  0  1  0  0  0  0  0  0
  188.1960  176.0780  135.3810 C   0  0  0  0  0  2  0  0  0  0  0  0
  190.0230  176.5580  140.0850 C   0  0  0  0  0  3  0  0  0  0  0  0
  188.7980  178.9730  139.5590 N   0  0  0  0  0  0  0  0  0  0  0  0
  189.1130  178.6530  140.8430 C   0  0  0  0  0  3  0  0  0  0  0  0
  187.3660  177.8910  136.8540 N   0  0  0  0  0  2  0  0  0  0  0  0
  189.6890  173.7260  136.9800 C   0  0  2  0  0  3  0  0  0  0  0  0
  187.8070  175.0670  136.4730 C   0  0  2  0  0  3  0  0  0  0  0  0
  190.9950  173.8980  137.1110 C   0  0  2  0  0  3  0  0  0  0  0  0
  189.6890  173.0090  134.5970 C   0  0  0  0  0  1  0  0  0  0  0  0
  189.9950  175.9590  137.6310 C   0  0  1  0  0  3  0  0  0  0  0  0
  1 16  2  0  0  0  0
  1 21  1  0  0  0  0
  2  8  2  0  0  0  0
  3 17  1  0  0  0  0
  5 27  1  6  0  0  0
  5 24  1  0  0  0  0
  6  1  1  0  0  0  0
  8  7  2  0  0  0  0
  9 14  2  0  0  0  0
  9 13  1  0  0  0  0
 10  8  1  6  0  0  0
 11 15  1  0  0  0  0
 12 28  1  0  0  0  0
 13 26  1  0  0  0  0
 14  8  1  0  0  0  0
 15 23  1  0  0  0  0
 16 20  1  0  0  0  0
 17  5  1  0  0  0  0
 17 25  1  0  0  0  0
 18  9  1  0  0  0  0
 19 15  1  0  0  0  0
 19 25  1  0  0  0  0
 20  4  2  0  0  0  0
 21 22  2  0  0  0  0
 22  4  1  0  0  0  0
 23  6  1  0  0  0  0
 24 26  1  0  0  0  0
 24 12  1  0  0  0  0
 25 12  1  0  0  0  0
 26 10  1  0  0  0  0
 28 10  1  0  0  0  0
 28 16  1  0  0  0  0
M  END
>  <MODEL>
1

>  <REMARK>
 VINA RESULT:      -5.5      0.000      0.000
  Name = 
  0 active torsions:
  status: ('A' for Active; 'I' for Inactive)
                            x       y       z     vdW  Elec       q    Type
                         _______ _______ _______ _____ _____    ______ ____

>  <TORSDO>
F 0

$$$$
=
 OpenBabel11122411543D

 28 32  0  0  1  0  0  0  0  0999 V2000
  182.1850  180.2520  138.5230 C   0  0  0  0  0  0  0  0  0  0  0  0
  181.0440  176.2250  139.9970 O   0  0  0  0  0  0  0  0  0  0  0  0
  186.4610  175.7090  136.9530 C   0  0  0  0  0  1  0  0  0  0  0  0
  180.4120  181.1240  136.5680 C   0  0  0  0  0  3  0  0  0  0  0  0
  184.0050  175.2290  136.2250 C   0  0  2  0  0  3  0  0  0  0  0  0
  183.2010  179.8410  139.5380 C   0  0  0  0  0  2  0  0  0  0  0  0
  178.9310  177.2080  139.1980 O   0  0  0  0  0  0  0  0  0  0  0  0
  180.0790  176.3040  138.8470 S   0  0  0  0  0  0  0  0  0  0  0  0
  180.0170  173.9990  137.5190 C   0  0  0  0  0  0  0  0  0  0  0  0
  180.8770  176.8990  137.3850 C   0  0  2  0  0  3  0  0  0  0  0  0
  186.6170  178.7010  139.1480 N   0  0  0  0  0  1  0  0  0  0  0  0
  183.1090  177.5080  136.6880 C   0  0  2  0  0  3  0  0  0  0  0  0
  181.1060  174.4420  136.7480 O   0  0  0  0  0  0  0  0  0  0  0  0
  179.4910  174.7240  138.4620 N   0  0  0  0  0  0  0  0  0  0  0  0
  185.1890  178.5700  139.3810 C   0  0  2  0  0  3  0  0  0  0  0  0
  181.6290  179.3170  137.6290 C   0  0  0  0  0  0  0  0  0  0  0  0
  185.1380  176.2500  136.4170 C   0  0  1  0  0  3  0  0  0  0  0  0
  179.4680  172.6440  137.2630 C   0  0  0  0  0  1  0  0  0  0  0  0
  184.6690  177.3040  138.6940 C   0  0  0  0  0  2  0  0  0  0  0  0
  180.7460  179.7730  136.6410 C   0  0  0  0  0  3  0  0  0  0  0  0
  181.8490  181.5670  138.4220 N   0  0  0  0  0  0  0  0  0  0  0  0
  180.9790  182.0160  137.4790 C   0  0  0  0  0  3  0  0  0  0  0  0
  184.5090  179.7690  138.9040 N   0  0  0  0  0  2  0  0  0  0  0  0
  182.8040  176.1030  136.3700 C   0  0  2  0  0  3  0  0  0  0  0  0
  184.5650  177.4660  137.1680 C   0  0  2  0  0  3  0  0  0  0  0  0
  181.5910  175.7550  136.7690 C   0  0  2  0  0  3  0  0  0  0  0  0
  184.0300  174.1520  137.3090 C   0  0  0  0  0  1  0  0  0  0  0  0
  182.0210  177.8670  137.7040 C   0  0  1  0  0  3  0  0  0  0  0  0
  1  6  1  0  0  0  0
  4 20  2  0  0  0  0
  4 22  1  0  0  0  0
  5 24  1  0  0  0  0
  5 17  1  0  0  0  0
  5 27  1  1  0  0  0
  8  7  2  0  0  0  0
  8  2  2  0  0  0  0
  9 14  2  0  0  0  0
 10 28  1  0  0  0  0
 10  8  1  1  0  0  0
 11 15  1  0  0  0  0
 12 25  1  0  0  0  0
 12 28  1  0  0  0  0
 13 26  1  0  0  0  0
 13  9  1  0  0  0  0
 14  8  1  0  0  0  0
 16 28  1  0  0  0  0
 16  1  2  0  0  0  0
 17  3  1  0  0  0  0
 17 25  1  0  0  0  0
 18  9  1  0  0  0  0
 19 15  1  0  0  0  0
 20 16  1  0  0  0  0
 21  1  1  0  0  0  0
 22 21  2  0  0  0  0
 23 15  1  0  0  0  0
 23  6  1  0  0  0  0
 24 12  1  0  0  0  0
 24 26  1  0  0  0  0
 25 19  1  0  0  0  0
 26 10  1  0  0  0  0
M  END
>  <MODEL>
2

>  <REMARK>
 VINA RESULT:      -5.4      7.083      9.129
  Name = 
  0 active torsions:
  status: ('A' for Active; 'I' for Inactive)
                            x       y       z     vdW  Elec       q    Type
                         _______ _______ _______ _____ _____    ______ ____

>  <TORSDO>
F 0

$$$$
=
 OpenBabel11122411543D

 28 32  0  0  1  0  0  0  0  0999 V2000
  180.8820  180.4710  135.7870 C   0  0  0  0  0  0  0  0  0  0  0  0
  184.0740  178.4790  138.1410 O   0  0  0  0  0  0  0  0  0  0  0  0
  178.9310  174.9740  138.4990 C   0  0  0  0  0  1  0  0  0  0  0  0
  180.1300  182.8670  136.9780 C   0  0  0  0  0  3  0  0  0  0  0  0
  179.9610  176.7210  140.1360 C   0  0  2  0  0  3  0  0  0  0  0  0
  181.2040  179.1800  135.1060 C   0  0  0  0  0  2  0  0  0  0  0  0
  184.3290  180.8740  138.6620 O   0  0  0  0  0  0  0  0  0  0  0  0
  183.7430  179.5690  139.1230 S   0  0  0  0  0  0  0  0  0  0  0  0
  183.6290  178.5940  141.5960 C   0  0  0  0  0  0  0  0  0  0  0  0
  181.9940  179.7410  139.3200 C   0  0  2  0  0  3  0  0  0  0  0  0
  179.3850  176.0510  134.9740 N   0  0  0  0  0  1  0  0  0  0  0  0
  179.9900  178.6360  138.5420 C   0  0  2  0  0  3  0  0  0  0  0  0
  182.2800  178.2640  141.3770 O   0  0  0  0  0  0  0  0  0  0  0  0
  184.3640  179.1610  140.6840 N   0  0  0  0  0  0  0  0  0  0  0  0
  180.4160  176.9730  135.4180 C   0  0  2  0  0  3  0  0  0  0  0  0
  180.8750  180.5710  137.1920 C   0  0  0  0  0  0  0  0  0  0  0  0
  179.0910  176.4380  138.9010 C   0  0  1  0  0  3  0  0  0  0  0  0
  184.2410  178.2570  142.9060 C   0  0  0  0  0  1  0  0  0  0  0  0
  180.6610  176.7890  136.9180 C   0  0  0  0  0  2  0  0  0  0  0  0
  180.4820  181.7810  137.7780 C   0  0  0  0  0  3  0  0  0  0  0  0
  180.5240  181.5440  135.0300 N   0  0  0  0  0  0  0  0  0  0  0  0
  180.1590  182.7280  135.5900 C   0  0  0  0  0  3  0  0  0  0  0  0
  180.0180  178.3370  135.0940 N   0  0  0  0  0  2  0  0  0  0  0  0
  180.4360  178.1040  139.8400 C   0  0  2  0  0  3  0  0  0  0  0  0
  179.5330  177.3900  137.7740 C   0  0  2  0  0  3  0  0  0  0  0  0
  181.5450  178.6890  140.2630 C   0  0  2  0  0  3  0  0  0  0  0  0
  181.1380  175.7490  140.2290 C   0  0  0  0  0  1  0  0  0  0  0  0
  181.2300  179.3820  138.0410 C   0  0  1  0  0  3  0  0  0  0  0  0
  1 16  1  0  0  0  0
  2  8  2  0  0  0  0
  3 17  1  0  0  0  0
  4 20  1  0  0  0  0
  5 27  1  6  0  0  0
  6  1  1  0  0  0  0
  7  8  2  0  0  0  0
  8 14  1  0  0  0  0
  9 18  1  0  0  0  0
 10  8  1  6  0  0  0
 10 26  1  0  0  0  0
 11 15  1  0  0  0  0
 12 24  1  0  0  0  0
 13  9  1  0  0  0  0
 14  9  2  0  0  0  0
 15 19  1  0  0  0  0
 16 20  2  0  0  0  0
 16 28  1  0  0  0  0
 17  5  1  0  0  0  0
 19 25  1  0  0  0  0
 21 22  1  0  0  0  0
 21  1  2  0  0  0  0
 22  4  2  0  0  0  0
 23  6  1  0  0  0  0
 23 15  1  0  0  0  0
 24  5  1  0  0  0  0
 24 26  1  0  0  0  0
 25 12  1  0  0  0  0
 25 17  1  0  0  0  0
 26 13  1  0  0  0  0
 28 12  1  0  0  0  0
 28 10  1  0  0  0  0
M  END
>  <MODEL>
3

>  <REMARK>
 VINA RESULT:      -5.4      8.394      9.997
  Name = 
  0 active torsions:
  status: ('A' for Active; 'I' for Inactive)
                            x       y       z     vdW  Elec       q    Type
                         _______ _______ _______ _____ _____    ______ ____

>  <TORSDO>
F 0

$$$$
=
 OpenBabel11122411543D

 28 32  0  0  1  0  0  0  0  0999 V2000
  183.6410  177.7450  137.4970 C   0  0  0  0  0  0  0  0  0  0  0  0
  185.0130  173.5660  138.0870 O   0  0  0  0  0  0  0  0  0  0  0  0
  189.7490  176.8390  135.6920 C   0  0  0  0  0  1  0  0  0  0  0  0
  181.6890  177.8700  135.5220 C   0  0  0  0  0  3  0  0  0  0  0  0
  188.0110  175.2370  134.5940 C   0  0  2  0  0  3  0  0  0  0  0  0
  184.7090  177.7660  138.5410 C   0  0  0  0  0  2  0  0  0  0  0  0
  182.7180  173.3430  137.2190 O   0  0  0  0  0  0  0  0  0  0  0  0
  184.1770  173.3370  136.8590 S   0  0  0  0  0  0  0  0  0  0  0  0
  185.4480  171.7420  135.1490 C   0  0  0  0  0  0  0  0  0  0  0  0
  184.4910  174.5730  135.6340 C   0  0  2  0  0  3  0  0  0  0  0  0
  188.1610  178.8490  138.3810 N   0  0  0  0  0  1  0  0  0  0  0  0
  185.9710  176.4600  135.3360 C   0  0  2  0  0  3  0  0  0  0  0  0
  186.0870  172.8720  134.6080 O   0  0  0  0  0  0  0  0  0  0  0  0
  184.6010  171.8250  136.1330 N   0  0  0  0  0  0  0  0  0  0  0  0
  187.0660  177.8960  138.4100 C   0  0  2  0  0  3  0  0  0  0  0  0
  183.7210  176.8770  136.3900 C   0  0  0  0  0  0  0  0  0  0  0  0
  188.3550  176.6470  135.1000 C   0  0  1  0  0  3  0  0  0  0  0  0
  185.7750  170.4050  134.5940 C   0  0  0  0  0  1  0  0  0  0  0  0
  187.3650  176.7390  137.4520 C   0  0  0  0  0  2  0  0  0  0  0  0
  182.7370  176.9600  135.3970 C   0  0  0  0  0  3  0  0  0  0  0  0
  182.6120  178.6310  137.5880 N   0  0  0  0  0  0  0  0  0  0  0  0
  181.6420  178.7060  136.6380 C   0  0  0  0  0  3  0  0  0  0  0  0
  185.8220  178.5760  138.0710 N   0  0  0  0  0  2  0  0  0  0  0  0
  186.5270  175.2330  134.7410 C   0  0  2  0  0  3  0  0  0  0  0  0
  187.1880  177.1380  135.9770 C   0  0  2  0  0  3  0  0  0  0  0  0
  185.7320  174.1900  134.9190 C   0  0  2  0  0  3  0  0  0  0  0  0
  188.6490  174.1550  135.4660 C   0  0  0  0  0  1  0  0  0  0  0  0
  184.8730  175.9200  136.2570 C   0  0  1  0  0  3  0  0  0  0  0  0
  1 21  1  0  0  0  0
  1  6  1  0  0  0  0
  4 22  1  0  0  0  0
  5 24  1  0  0  0  0
  5 17  1  0  0  0  0
  5 27  1  1  0  0  0
  8  7  2  0  0  0  0
  8  2  2  0  0  0  0
  9 14  2  0  0  0  0
 10 28  1  0  0  0  0
 10  8  1  1  0  0  0
 11 15  1  0  0  0  0
 12 25  1  0  0  0  0
 12 28  1  0  0  0  0
 13 26  1  0  0  0  0
 13  9  1  0  0  0  0
 14  8  1  0  0  0  0
 16  1  2  0  0  0  0
 17  3  1  0  0  0  0
 17 25  1  0  0  0  0
 18  9  1  0  0  0  0
 19 15  1  0  0  0  0
 20  4  2  0  0  0  0
 20 16  1  0  0  0  0
 22 21  2  0  0  0  0
 23 15  1  0  0  0  0
 23  6  1  0  0  0  0
 24 26  1  0  0  0  0
 24 12  1  0  0  0  0
 25 19  1  0  0  0  0
 26 10  1  0  0  0  0
 28 16  1  0  0  0  0
M  END
>  <MODEL>
4

>  <REMARK>
 VINA RESULT:      -5.1      4.261      6.410
  Name = 
  0 active torsions:
  status: ('A' for Active; 'I' for Inactive)
                            x       y       z     vdW  Elec       q    Type
                         _______ _______ _______ _____ _____    ______ ____

>  <TORSDO>
F 0

$$$$
=
 OpenBabel11122411543D

 28 32  0  0  1  0  0  0  0  0999 V2000
  180.8700  179.3970  141.6390 C   0  0  0  0  0  0  0  0  0  0  0  0
  181.1980  175.3170  139.9250 O   0  0  0  0  0  0  0  0  0  0  0  0
  186.6170  178.2530  138.9850 C   0  0  0  0  0  1  0  0  0  0  0  0
  179.0380  180.9220  140.2080 C   0  0  0  0  0  3  0  0  0  0  0  0
  184.5680  177.8460  137.4270 C   0  0  2  0  0  3  0  0  0  0  0  0
  181.8940  178.6560  142.4360 C   0  0  0  0  0  2  0  0  0  0  0  0
  178.9310  176.0620  139.3100 O   0  0  0  0  0  0  0  0  0  0  0  0
  180.3530  175.9280  138.8410 S   0  0  0  0  0  0  0  0  0  0  0  0
  181.2370  175.1950  136.4420 C   0  0  0  0  0  0  0  0  0  0  0  0
  180.9730  177.5150  138.3680 C   0  0  2  0  0  3  0  0  0  0  0  0
  185.5070  178.9040  142.4690 N   0  0  0  0  0  1  0  0  0  0  0  0
  182.8650  178.9250  138.8910 C   0  0  2  0  0  3  0  0  0  0  0  0
  182.1360  176.2750  136.4690 O   0  0  0  0  0  0  0  0  0  0  0  0
  180.4180  174.9450  137.4200 N   0  0  0  0  0  0  0  0  0  0  0  0
  184.2160  178.3280  142.1360 C   0  0  2  0  0  3  0  0  0  0  0  0
  180.7610  179.2180  140.2460 C   0  0  0  0  0  0  0  0  0  0  0  0
  185.2280  178.6920  138.5280 C   0  0  1  0  0  3  0  0  0  0  0  0
  181.2460  174.2910  135.2640 C   0  0  0  0  0  1  0  0  0  0  0  0
  184.2480  177.7850  140.7040 C   0  0  0  0  0  2  0  0  0  0  0  0
  179.8410  180.0020  139.5360 C   0  0  0  0  0  3  0  0  0  0  0  0
  180.0800  180.3100  142.2670 N   0  0  0  0  0  0  0  0  0  0  0  0
  179.1720  181.0620  141.5900 C   0  0  0  0  0  3  0  0  0  0  0  0
  183.1760  179.3340  142.3150 N   0  0  0  0  0  2  0  0  0  0  0  0
  183.1230  178.0850  137.7100 C   0  0  2  0  0  3  0  0  0  0  0  0
  184.1960  178.9050  139.6510 C   0  0  2  0  0  3  0  0  0  0  0  0
  182.0990  177.2930  137.4300 C   0  0  2  0  0  3  0  0  0  0  0  0
  184.9150  176.3640  137.5730 C   0  0  0  0  0  1  0  0  0  0  0  0
  181.6540  178.2410  139.5330 C   0  0  1  0  0  3  0  0  0  0  0  0
  1 21  1  0  0  0  0
  1  6  1  0  0  0  0
  4 22  1  0  0  0  0
  5 27  1  1  0  0  0
  5 24  1  0  0  0  0
  5 17  1  0  0  0  0
  8  7  2  0  0  0  0
  8  2  2  0  0  0  0
  9 13  1  0  0  0  0
  9 14  2  0  0  0  0
 10  8  1  1  0  0  0
 10 28  1  0  0  0  0
 12 28  1  0  0  0  0
 12 25  1  0  0  0  0
 13 26  1  0  0  0  0
 14  8  1  0  0  0  0
 15 23  1  0  0  0  0
 15 11  1  0  0  0  0
 16  1  2  0  0  0  0
 17  3  1  0  0  0  0
 17 25  1  0  0  0  0
 18  9  1  0  0  0  0
 19 15  1  0  0  0  0
 20  4  2  0  0  0  0
 20 16  1  0  0  0  0
 22 21  2  0  0  0  0
 23  6  1  0  0  0  0
 24 12  1  0  0  0  0
 25 19  1  0  0  0  0
 26 24  1  0  0  0  0
 26 10  1  0  0  0  0
 28 16  1  0  0  0  0
M  END
>  <MODEL>
5

>  <REMARK>
 VINA RESULT:      -5.0      7.614      9.638
  Name = 
  0 active torsions:
  status: ('A' for Active; 'I' for Inactive)
                            x       y       z     vdW  Elec       q    Type
                         _______ _______ _______ _____ _____    ______ ____

>  <TORSDO>
F 0

$$$$
=
 OpenBabel11122411543D

 28 32  0  0  1  0  0  0  0  0999 V2000
  180.0810  176.7670  136.6220 C   0  0  0  0  0  0  0  0  0  0  0  0
  184.0850  175.3410  137.9000 O   0  0  0  0  0  0  0  0  0  0  0  0
  181.5730  178.5450  142.6210 C   0  0  0  0  0  1  0  0  0  0  0  0
  180.3080  178.6540  134.5940 C   0  0  0  0  0  3  0  0  0  0  0  0
  183.3080  179.2140  140.7950 C   0  0  2  0  0  3  0  0  0  0  0  0
  179.8760  175.7890  137.7330 C   0  0  0  0  0  2  0  0  0  0  0  0
  184.4040  176.0620  135.5650 O   0  0  0  0  0  0  0  0  0  0  0  0
  184.5400  176.4620  137.0070 S   0  0  0  0  0  0  0  0  0  0  0  0
  186.5080  177.8330  138.1590 C   0  0  0  0  0  0  0  0  0  0  0  0
  183.6060  177.9340  137.3040 C   0  0  2  0  0  3  0  0  0  0  0  0
  178.9790  176.2970  141.2050 N   0  0  0  0  0  1  0  0  0  0  0  0
  181.8820  178.6820  138.8230 C   0  0  2  0  0  3  0  0  0  0  0  0
  185.5440  178.6250  138.8070 O   0  0  0  0  0  0  0  0  0  0  0  0
  186.1860  176.8610  137.3580 N   0  0  0  0  0  0  0  0  0  0  0  0
  179.8640  176.0270  140.0850 C   0  0  2  0  0  3  0  0  0  0  0  0
  181.1670  177.6640  136.6320 C   0  0  0  0  0  0  0  0  0  0  0  0
  181.8360  179.0340  141.1990 C   0  0  1  0  0  3  0  0  0  0  0  0
  187.9440  178.1000  138.4250 C   0  0  0  0  0  1  0  0  0  0  0  0
  181.2090  176.7240  140.3120 C   0  0  0  0  0  2  0  0  0  0  0  0
  181.2620  178.6170  135.6100 C   0  0  0  0  0  3  0  0  0  0  0  0
  179.1590  176.8330  135.6230 N   0  0  0  0  0  0  0  0  0  0  0  0
  179.2520  177.7420  134.6170 C   0  0  0  0  0  3  0  0  0  0  0  0
  179.2260  176.4610  138.8480 N   0  0  0  0  0  2  0  0  0  0  0  0
  183.2260  179.0180  139.3190 C   0  0  2  0  0  3  0  0  0  0  0  0
  181.1270  178.2430  140.0840 C   0  0  2  0  0  3  0  0  0  0  0  0
  184.1780  178.5920  138.5030 C   0  0  2  0  0  3  0  0  0  0  0  0
  184.2010  178.1520  141.4380 C   0  0  0  0  0  1  0  0  0  0  0  0
  182.1720  177.6280  137.7500 C   0  0  1  0  0  3  0  0  0  0  0  0
  1 16  1  0  0  0  0
  1  6  1  0  0  0  0
  4 22  2  0  0  0  0
  4 20  1  0  0  0  0
  5 17  1  0  0  0  0
  5 27  1  1  0  0  0
  6 23  1  0  0  0  0
  7  8  2  0  0  0  0
  8 14  1  0  0  0  0
  8  2  2  0  0  0  0
  9 18  1  0  0  0  0
  9 13  1  0  0  0  0
 10  8  1  1  0  0  0
 10 28  1  0  0  0  0
 10 26  1  0  0  0  0
 12 24  1  0  0  0  0
 12 25  1  0  0  0  0
 14  9  2  0  0  0  0
 15 19  1  0  0  0  0
 15 11  1  0  0  0  0
 16 28  1  0  0  0  0
 17  3  1  0  0  0  0
 20 16  2  0  0  0  0
 21  1  2  0  0  0  0
 22 21  1  0  0  0  0
 23 15  1  0  0  0  0
 24  5  1  0  0  0  0
 25 19  1  0  0  0  0
 25 17  1  0  0  0  0
 26 13  1  0  0  0  0
 26 24  1  0  0  0  0
 28 12  1  0  0  0  0
M  END
>  <MODEL>
6

>  <REMARK>
 VINA RESULT:      -4.9      6.812      9.209
  Name = 
  0 active torsions:
  status: ('A' for Active; 'I' for Inactive)
                            x       y       z     vdW  Elec       q    Type
                         _______ _______ _______ _____ _____    ______ ____

>  <TORSDO>
F 0

$$$$
=
 OpenBabel11122411543D

 28 32  0  0  1  0  0  0  0  0999 V2000
  182.8860  179.3370  138.4340 C   0  0  0  0  0  0  0  0  0  0  0  0
  182.6080  174.9400  138.9690 O   0  0  0  0  0  0  0  0  0  0  0  0
  187.4490  176.1320  135.2260 C   0  0  0  0  0  1  0  0  0  0  0  0
  180.7010  180.2960  137.0100 C   0  0  0  0  0  3  0  0  0  0  0  0
  185.0020  175.3930  134.7210 C   0  0  2  0  0  3  0  0  0  0  0  0
  184.1080  178.8960  139.1730 C   0  0  0  0  0  2  0  0  0  0  0  0
  180.2700  175.6790  138.7240 O   0  0  0  0  0  0  0  0  0  0  0  0
  181.4610  175.1040  138.0110 S   0  0  0  0  0  0  0  0  0  0  0  0
  181.5110  173.1940  136.1590 C   0  0  0  0  0  0  0  0  0  0  0  0
  181.9060  176.1530  136.6580 C   0  0  2  0  0  3  0  0  0  0  0  0
  187.5380  178.5180  138.0710 N   0  0  0  0  0  1  0  0  0  0  0  0
  183.8750  177.3020  135.8590 C   0  0  2  0  0  3  0  0  0  0  0  0
  182.3790  173.9920  135.3940 O   0  0  0  0  0  0  0  0  0  0  0  0
  181.0530  173.5740  137.3160 N   0  0  0  0  0  0  0  0  0  0  0  0
  186.2040  178.0800  138.4440 C   0  0  2  0  0  3  0  0  0  0  0  0
  182.3290  178.5460  137.4110 C   0  0  0  0  0  0  0  0  0  0  0  0
  185.9910  176.5320  135.0190 C   0  0  1  0  0  3  0  0  0  0  0  0
  181.1300  171.8560  135.6400 C   0  0  0  0  0  1  0  0  0  0  0  0
  185.7640  176.9320  137.5310 C   0  0  0  0  0  2  0  0  0  0  0  0
  181.2350  179.0480  136.6930 C   0  0  0  0  0  3  0  0  0  0  0  0
  182.3500  180.5560  138.7150 N   0  0  0  0  0  0  0  0  0  0  0  0
  181.2780  181.0430  138.0370 C   0  0  0  0  0  3  0  0  0  0  0  0
  185.2860  179.2110  138.3790 N   0  0  0  0  0  2  0  0  0  0  0  0
  183.7290  175.9770  135.2360 C   0  0  2  0  0  3  0  0  0  0  0  0
  185.3820  177.4180  136.1220 C   0  0  2  0  0  3  0  0  0  0  0  0
  182.6640  175.3310  135.6850 C   0  0  2  0  0  3  0  0  0  0  0  0
  185.3660  174.1180  135.4830 C   0  0  0  0  0  1  0  0  0  0  0  0
  182.9340  177.2150  137.0640 C   0  0  1  0  0  3  0  0  0  0  0  0
  1 21  1  0  0  0  0
  1  6  1  0  0  0  0
  4 22  1  0  0  0  0
  5 17  1  0  0  0  0
  5 24  1  0  0  0  0
  5 27  1  1  0  0  0
  8  7  2  0  0  0  0
  8  2  2  0  0  0  0
  9 14  2  0  0  0  0
 10 28  1  0  0  0  0
 10  8  1  1  0  0  0
 11 15  1  0  0  0  0
 12 25  1  0  0  0  0
 12 28  1  0  0  0  0
 13 26  1  0  0  0  0
 13  9  1  0  0  0  0
 14  8  1  0  0  0  0
 16  1  2  0  0  0  0
 17  3  1  0  0  0  0
 17 25  1  0  0  0  0
 18  9  1  0  0  0  0
 19 15  1  0  0  0  0
 20  4  2  0  0  0  0
 20 16  1  0  0  0  0
 22 21  2  0  0  0  0
 23 15  1  0  0  0  0
 23  6  1  0  0  0  0
 24 26  1  0  0  0  0
 24 12  1  0  0  0  0
 25 19  1  0  0  0  0
 26 10  1  0  0  0  0
 28 16  1  0  0  0  0
M  END
>  <MODEL>
7

>  <REMARK>
 VINA RESULT:      -4.8      5.990      8.084
  Name = 
  0 active torsions:
  status: ('A' for Active; 'I' for Inactive)
                            x       y       z     vdW  Elec       q    Type
                         _______ _______ _______ _____ _____    ______ ____

>  <TORSDO>
F 0

$$$$
=
 OpenBabel11122411543D

 28 32  0  0  1  0  0  0  0  0999 V2000
  185.9120  175.8610  137.2160 C   0  0  0  0  0  0  0  0  0  0  0  0
  182.6800  176.3190  140.2240 O   0  0  0  0  0  0  0  0  0  0  0  0
  180.0380  175.8780  134.5940 C   0  0  0  0  0  1  0  0  0  0  0  0
  187.4360  178.1790  137.0490 C   0  0  0  0  0  3  0  0  0  0  0  0
  180.5950  177.9330  136.0970 C   0  0  2  0  0  3  0  0  0  0  0  0
  185.1200  174.5940  137.2210 C   0  0  0  0  0  2  0  0  0  0  0  0
  184.4380  177.8770  140.9680 O   0  0  0  0  0  0  0  0  0  0  0  0
  183.1490  177.7470  140.2060 S   0  0  0  0  0  0  0  0  0  0  0  0
  181.0730  179.4110  140.1810 C   0  0  0  0  0  0  0  0  0  0  0  0
  183.3790  178.3230  138.5490 C   0  0  2  0  0  3  0  0  0  0  0  0
  182.7000  173.3020  134.8560 N   0  0  0  0  0  1  0  0  0  0  0  0
  183.0380  177.4940  136.3050 C   0  0  2  0  0  3  0  0  0  0  0  0
  181.0420  179.3130  138.7790 O   0  0  0  0  0  0  0  0  0  0  0  0
  181.9430  178.7700  140.9050 N   0  0  0  0  0  0  0  0  0  0  0  0
  183.1560  173.9370  136.0800 C   0  0  2  0  0  3  0  0  0  0  0  0
  185.2860  177.1120  137.3790 C   0  0  0  0  0  0  0  0  0  0  0  0
  181.0700  176.9010  135.0610 C   0  0  1  0  0  3  0  0  0  0  0  0
  180.0550  180.2540  140.8580 C   0  0  0  0  0  1  0  0  0  0  0  0
  182.2110  175.0860  136.4470 C   0  0  0  0  0  2  0  0  0  0  0  0
  186.0650  178.2730  137.2800 C   0  0  0  0  0  3  0  0  0  0  0  0
  187.2510  175.8000  136.9820 N   0  0  0  0  0  0  0  0  0  0  0  0
  188.0180  176.9200  136.9020 C   0  0  0  0  0  3  0  0  0  0  0  0
  184.5290  174.3950  135.9060 N   0  0  0  0  0  2  0  0  0  0  0  0
  181.8780  178.2630  136.7820 C   0  0  2  0  0  3  0  0  0  0  0  0
  182.4100  176.3180  135.5470 C   0  0  2  0  0  3  0  0  0  0  0  0
  182.0470  178.7030  138.0190 C   0  0  2  0  0  3  0  0  0  0  0  0
  179.5930  177.3240  137.0780 C   0  0  0  0  0  1  0  0  0  0  0  0
  183.8010  177.1960  137.6000 C   0  0  1  0  0  3  0  0  0  0  0  0
  1  6  1  0  0  0  0
  1 16  1  0  0  0  0
  3 17  1  0  0  0  0
  4 20  1  0  0  0  0
  5 24  1  0  0  0  0
  5 27  1  1  0  0  0
  8  2  2  0  0  0  0
  8 14  1  0  0  0  0
  8  7  2  0  0  0  0
  9 18  1  0  0  0  0
  9 14  2  0  0  0  0
 10  8  1  1  0  0  0
 11 15  1  0  0  0  0
 12 24  1  0  0  0  0
 12 28  1  0  0  0  0
 13  9  1  0  0  0  0
 15 19  1  0  0  0  0
 16 28  1  0  0  0  0
 17 25  1  0  0  0  0
 17  5  1  0  0  0  0
 20 16  2  0  0  0  0
 21  1  2  0  0  0  0
 22 21  1  0  0  0  0
 22  4  2  0  0  0  0
 23 15  1  0  0  0  0
 23  6  1  0  0  0  0
 24 26  1  0  0  0  0
 25 12  1  0  0  0  0
 25 19  1  0  0  0  0
 26 10  1  0  0  0  0
 26 13  1  0  0  0  0
 28 10  1  0  0  0  0
M  END
>  <MODEL>
8

>  <REMARK>
 VINA RESULT:      -4.5      6.317      8.665
  Name = 
  0 active torsions:
  status: ('A' for Active; 'I' for Inactive)
                            x       y       z     vdW  Elec       q    Type
                         _______ _______ _______ _____ _____    ______ ____

>  <TORSDO>
F 0

$$$$
=
 OpenBabel11122411543D

 28 32  0  0  1  0  0  0  0  0999 V2000
  182.1820  175.7900  136.9920 C   0  0  0  0  0  0  0  0  0  0  0  0
  185.6230  173.1830  138.0200 O   0  0  0  0  0  0  0  0  0  0  0  0
  187.8380  178.8240  136.5540 C   0  0  0  0  0  1  0  0  0  0  0  0
  180.9620  174.9320  134.6470 C   0  0  0  0  0  3  0  0  0  0  0  0
  187.6440  176.6200  135.1750 C   0  0  2  0  0  3  0  0  0  0  0  0
  182.8030  176.3360  138.2370 C   0  0  0  0  0  2  0  0  0  0  0  0
  184.1300  171.7380  136.6960 O   0  0  0  0  0  0  0  0  0  0  0  0
  185.3430  172.6250  136.6520 S   0  0  0  0  0  0  0  0  0  0  0  0
  187.6110  172.2530  135.3120 C   0  0  0  0  0  0  0  0  0  0  0  0
  185.0880  173.9190  135.4740 C   0  0  2  0  0  3  0  0  0  0  0  0
  184.8870  179.2500  138.7680 N   0  0  0  0  0  1  0  0  0  0  0  0
  185.1810  176.3330  135.4230 C   0  0  2  0  0  3  0  0  0  0  0  0
  187.5430  173.5880  134.8750 O   0  0  0  0  0  0  0  0  0  0  0  0
  186.7110  171.7290  136.0910 N   0  0  0  0  0  0  0  0  0  0  0  0
  184.5930  177.8380  138.6010 C   0  0  2  0  0  3  0  0  0  0  0  0
  182.9730  175.2460  135.9620 C   0  0  0  0  0  0  0  0  0  0  0  0
  186.9770  177.9070  135.6890 C   0  0  1  0  0  3  0  0  0  0  0  0
  188.7680  171.4240  134.8900 C   0  0  0  0  0  1  0  0  0  0  0  0
  185.6980  177.1750  137.7730 C   0  0  0  0  0  2  0  0  0  0  0  0
  182.3460  174.8280  134.7810 C   0  0  0  0  0  3  0  0  0  0  0  0
  180.8350  175.8890  136.8310 N   0  0  0  0  0  0  0  0  0  0  0  0
  180.2140  175.4700  135.6950 C   0  0  0  0  0  3  0  0  0  0  0  0
  183.2810  177.6860  137.9810 N   0  0  0  0  0  2  0  0  0  0  0  0
  186.4580  175.7310  135.0060 C   0  0  2  0  0  3  0  0  0  0  0  0
  185.6050  177.5320  136.2800 C   0  0  2  0  0  3  0  0  0  0  0  0
  186.4230  174.4090  135.0530 C   0  0  2  0  0  3  0  0  0  0  0  0
  188.6170  176.0430  136.2040 C   0  0  0  0  0  1  0  0  0  0  0  0
  184.4670  175.1670  136.1120 C   0  0  1  0  0  3  0  0  0  0  0  0
  1  6  1  0  0  0  0
  4 20  2  0  0  0  0
  4 22  1  0  0  0  0
  5 17  1  0  0  0  0
  5 27  1  1  0  0  0
  8  7  2  0  0  0  0
  8  2  2  0  0  0  0
  9 14  2  0  0  0  0
 10 28  1  0  0  0  0
 10  8  1  1  0  0  0
 12 28  1  0  0  0  0
 12 25  1  0  0  0  0
 13 26  1  0  0  0  0
 13  9  1  0  0  0  0
 14  8  1  0  0  0  0
 15 11  1  0  0  0  0
 16 28  1  0  0  0  0
 16  1  2  0  0  0  0
 17 25  1  0  0  0  0
 17  3  1  0  0  0  0
 18  9  1  0  0  0  0
 19 15  1  0  0  0  0
 20 16  1  0  0  0  0
 21  1  1  0  0  0  0
 22 21  2  0  0  0  0
 23  6  1  0  0  0  0
 23 15  1  0  0  0  0
 24 26  1  0  0  0  0
 24  5  1  0  0  0  0
 24 12  1  0  0  0  0
 25 19  1  0  0  0  0
 26 10  1  0  0  0  0
M  END
>  <MODEL>
9

>  <REMARK>
 VINA RESULT:      -4.5      4.373      6.682
  Name = 
  0 active torsions:
  status: ('A' for Active; 'I' for Inactive)
                            x       y       z     vdW  Elec       q    Type
                         _______ _______ _______ _____ _____    ______ ____

>  <TORSDO>
F 0

$$$$
