=
 OpenBabel11122412113D

 34 41  0  0  1  0  0  0  0  0999 V2000
  185.8320  178.8470  141.8580 C   0  0  2  0  0  3  0  0  0  0  0  0
  185.2660  178.7170  139.3710 C   0  0  0  0  0  2  0  0  0  0  0  0
  189.6890  177.3470  147.3300 C   0  0  0  0  0  0  0  0  0  0  0  0
  186.3270  178.1430  144.2470 C   0  0  0  0  0  0  0  0  0  0  0  0
  188.5520  177.4420  144.9330 C   0  0  0  0  0  0  0  0  0  0  0  0
  190.9560  176.7460  145.8580 C   0  0  0  0  0  2  0  0  0  0  0  0
  191.1030  176.8720  147.2770 C   0  0  0  0  0  2  0  0  0  0  0  0
  187.4730  178.1440  147.9070 C   0  0  0  0  0  3  0  0  0  0  0  0
  187.3580  177.9210  140.1050 C   0  0  0  0  0  0  0  0  0  0  0  0
  189.7770  177.3720  138.1730 C   0  0  0  0  0  2  0  0  0  0  0  0
  188.8510  177.0650  143.4970 C   0  0  0  0  0  3  0  0  0  0  0  0
  186.8790  178.1990  146.7020 C   0  0  0  0  0  3  0  0  0  0  0  0
  188.3190  177.6440  141.0200 C   0  0  0  0  0  0  0  0  0  0  0  0
  186.2140  178.6680  138.1730 C   0  0  0  0  0  2  0  0  0  0  0  0
  187.3270  177.8900  145.3080 C   0  0  0  0  0  0  0  0  0  0  0  0
  188.8400  177.7350  148.2530 C   0  0  0  0  0  3  0  0  0  0  0  0
  188.7480  178.4760  138.0950 C   0  0  2  0  0  3  0  0  0  0  0  0
  186.7520  178.1770  142.8410 C   0  0  0  0  0  0  0  0  0  0  0  0
  189.5860  177.2080  145.8810 N   0  0  0  0  0  0  0  0  0  0  0  0
  187.9480  177.6980  142.4660 C   0  0  0  0  0  0  0  0  0  0  0  0
  184.0790  178.5130  143.5010 C   0  0  0  0  0  3  0  0  0  0  0  0
  190.3730  177.2440  139.5350 C   0  0  0  0  0  3  0  0  0  0  0  0
  185.0670  178.3180  144.5280 N   0  0  0  0  0  2  0  0  0  0  0  0
  189.7400  177.3370  140.7100 C   0  0  0  0  0  3  0  0  0  0  0  0
  187.4500  177.8810  138.6210 C   0  0  1  0  0  3  0  0  0  0  0  0
  184.4300  178.7030  142.2610 N   0  0  0  0  0  0  0  0  0  0  0  0
  186.0570  178.3160  140.5180 N   0  0  0  0  0  0  0  0  0  0  0  0
  188.6060  178.8530  136.7570 O   0  0  0  0  0  0  0  0  0  0  0  0
  189.2840  177.8690  136.0340 C   0  0  0  0  0  2  0  0  0  0  0  0
  186.5720  176.0620  135.3290 N   0  0  0  0  0  0  0  0  0  0  0  0
  187.1570  178.2360  134.7830 C   0  0  0  0  0  2  0  0  0  0  0  0
  188.4140  177.3750  134.8940 C   0  0  2  0  0  3  0  0  0  0  0  0
  186.1120  177.3250  135.0730 O   0  0  0  0  0  0  0  0  0  0  0  0
  187.8550  176.0350  135.2410 C   0  0  0  0  0  3  0  0  0  0  0  0
  1 26  1  1  0  0  0
  1 18  1  0  0  0  0
  2 27  1  0  0  0  0
  3 16  2  0  0  0  0
  4 23  1  0  0  0  0
  4 15  1  0  0  0  0
  5 15  2  0  0  0  0
  5 19  1  0  0  0  0
  6 19  1  0  0  0  0
  6  7  1  0  0  0  0
  7  3  1  0  0  0  0
  8 16  1  0  0  0  0
  9 27  1  0  0  0  0
  9 13  2  0  0  0  0
 10 22  1  0  0  0  0
 11  5  1  0  0  0  0
 12  8  2  0  0  0  0
 13 20  1  0  0  0  0
 14  2  1  0  0  0  0
 15 12  1  0  0  0  0
 17 28  1  6  0  0  0
 17 10  1  0  0  0  0
 17 25  1  0  0  0  0
 18  4  2  0  0  0  0
 19  3  1  0  0  0  0
 20 18  1  0  0  0  0
 20 11  2  0  0  0  0
 21 23  1  0  0  0  0
 22 24  2  0  0  0  0
 24 13  1  0  0  0  0
 25 14  1  6  0  0  0
 25  9  1  0  0  0  0
 26 21  2  0  0  0  0
 27  1  1  0  0  0  0
 29 28  1  0  0  0  0
 31 32  1  0  0  0  0
 31 33  1  0  0  0  0
 32 34  1  0  0  0  0
 32 29  1  1  0  0  0
 33 30  1  0  0  0  0
 34 30  2  0  0  0  0
M  END
>  <MODEL>
1

>  <REMARK>
 VINA RESULT:     -10.1      0.000      0.000
  Name = 
  3 active torsions:
  status: ('A' for Active; 'I' for Inactive)
    1  A    between atoms: C_17  and  O_28
    2  A    between atoms: O_28  and  C_29
    3  A    between atoms: C_29  and  C_32
                            x       y       z     vdW  Elec       q    Type
                         _______ _______ _______ _____ _____    ______ ____

>  <TORSDO>
F 3

$$$$
=
 OpenBabel11122412113D

 34 41  0  0  1  0  0  0  0  0999 V2000
  186.3500  178.0280  140.9010 C   0  0  2  0  0  3  0  0  0  0  0  0
  184.5670  178.8130  139.2500 C   0  0  0  0  0  2  0  0  0  0  0  0
  188.9290  177.3020  147.2170 C   0  0  0  0  0  0  0  0  0  0  0  0
  188.1180  178.0680  142.7220 C   0  0  0  0  0  0  0  0  0  0  0  0
  187.5210  178.0060  145.0790 C   0  0  0  0  0  0  0  0  0  0  0  0
  187.0280  177.8420  147.6960 C   0  0  0  0  0  2  0  0  0  0  0  0
  188.1380  177.3920  148.4800 C   0  0  0  0  0  2  0  0  0  0  0  0
  190.5800  177.0100  145.4660 C   0  0  0  0  0  3  0  0  0  0  0  0
  184.0850  178.8640  141.5550 C   0  0  0  0  0  0  0  0  0  0  0  0
  181.1750  179.1510  142.7100 C   0  0  0  0  0  2  0  0  0  0  0  0
  186.1650  178.5800  144.7270 C   0  0  0  0  0  3  0  0  0  0  0  0
  189.8850  177.3620  144.3710 C   0  0  0  0  0  3  0  0  0  0  0  0
  184.3470  178.6860  142.8730 C   0  0  0  0  0  0  0  0  0  0  0  0
  183.0500  178.8590  139.4270 C   0  0  0  0  0  2  0  0  0  0  0  0
  188.4810  177.8250  144.1360 C   0  0  0  0  0  0  0  0  0  0  0  0
  190.1490  176.9660  146.8690 C   0  0  0  0  0  3  0  0  0  0  0  0
  181.6250  178.3950  141.4810 C   0  0  2  0  0  3  0  0  0  0  0  0
  186.7050  178.2150  142.3500 C   0  0  0  0  0  0  0  0  0  0  0  0
  187.7690  177.7600  146.4570 N   0  0  0  0  0  0  0  0  0  0  0  0
  185.7610  178.4320  143.2800 C   0  0  0  0  0  0  0  0  0  0  0  0
  188.6890  178.4610  140.4280 C   0  0  0  0  0  3  0  0  0  0  0  0
  182.0040  178.8330  143.9090 C   0  0  0  0  0  3  0  0  0  0  0  0
  189.0280  178.1730  141.7960 N   0  0  0  0  0  2  0  0  0  0  0  0
  183.3300  178.6680  143.9580 C   0  0  0  0  0  3  0  0  0  0  0  0
  182.7880  179.1860  140.9020 C   0  0  1  0  0  3  0  0  0  0  0  0
  187.4500  178.4460  140.0270 N   0  0  0  0  0  0  0  0  0  0  0  0
  185.1200  178.7460  140.5880 N   0  0  0  0  0  0  0  0  0  0  0  0
  180.5610  178.3530  140.5740 O   0  0  0  0  0  0  0  0  0  0  0  0
  179.6080  179.2270  141.1010 C   0  0  0  0  0  2  0  0  0  0  0  0
  180.3990  181.6280  138.9260 N   0  0  0  0  0  0  0  0  0  0  0  0
  179.4380  179.5410  138.6320 C   0  0  0  0  0  2  0  0  0  0  0  0
  179.0460  180.1030  139.9980 C   0  0  2  0  0  3  0  0  0  0  0  0
  180.2600  180.5570  138.0860 O   0  0  0  0  0  0  0  0  0  0  0  0
  179.7380  181.4250  140.0110 C   0  0  0  0  0  3  0  0  0  0  0  0
  1 26  1  6  0  0  0
  1 18  1  0  0  0  0
  2 14  1  0  0  0  0
  2 27  1  0  0  0  0
  3  7  1  0  0  0  0
  4 15  1  0  0  0  0
  5 19  1  0  0  0  0
  6  7  1  0  0  0  0
  8 16  1  0  0  0  0
  9 13  2  0  0  0  0
 10 22  1  0  0  0  0
 11  5  1  0  0  0  0
 12  8  2  0  0  0  0
 13 20  1  0  0  0  0
 13 24  1  0  0  0  0
 15 12  1  0  0  0  0
 15  5  2  0  0  0  0
 16  3  2  0  0  0  0
 17 28  1  6  0  0  0
 17 10  1  0  0  0  0
 18  4  2  0  0  0  0
 18 20  1  0  0  0  0
 19  3  1  0  0  0  0
 19  6  1  0  0  0  0
 20 11  2  0  0  0  0
 21 23  1  0  0  0  0
 22 24  2  0  0  0  0
 23  4  1  0  0  0  0
 25 14  1  6  0  0  0
 25 17  1  0  0  0  0
 25  9  1  0  0  0  0
 26 21  2  0  0  0  0
 27  1  1  0  0  0  0
 27  9  1  0  0  0  0
 28 29  1  0  0  0  0
 30 34  2  0  0  0  0
 31 32  1  0  0  0  0
 32 34  1  0  0  0  0
 32 29  1  1  0  0  0
 33 31  1  0  0  0  0
 33 30  1  0  0  0  0
M  END
>  <MODEL>
2

>  <REMARK>
 VINA RESULT:      -9.8      3.265      5.942
  Name = 
  3 active torsions:
  status: ('A' for Active; 'I' for Inactive)
    1  A    between atoms: C_17  and  O_28
    2  A    between atoms: O_28  and  C_29
    3  A    between atoms: C_29  and  C_32
                            x       y       z     vdW  Elec       q    Type
                         _______ _______ _______ _____ _____    ______ ____

>  <TORSDO>
F 3

$$$$
=
 OpenBabel11122412113D

 34 41  0  0  1  0  0  0  0  0999 V2000
  190.2540  176.8570  141.5010 C   0  0  2  0  0  3  0  0  0  0  0  0
  191.6520  176.8530  139.3650 C   0  0  0  0  0  2  0  0  0  0  0  0
  184.7020  178.5370  145.1650 C   0  0  0  0  0  0  0  0  0  0  0  0
  188.9430  177.6870  143.5110 C   0  0  0  0  0  0  0  0  0  0  0  0
  186.6070  178.3390  143.3260 C   0  0  0  0  0  0  0  0  0  0  0  0
  184.0210  178.9920  143.3040 C   0  0  0  0  0  2  0  0  0  0  0  0
  183.3880  178.9500  144.5880 C   0  0  0  0  0  2  0  0  0  0  0  0
  186.5890  177.8690  146.5330 C   0  0  0  0  0  3  0  0  0  0  0  0
  189.4230  177.6070  139.2650 C   0  0  0  0  0  0  0  0  0  0  0  0
  187.8240  177.9350  136.5770 C   0  0  0  0  0  2  0  0  0  0  0  0
  186.8230  178.6120  141.8530 C   0  0  0  0  0  3  0  0  0  0  0  0
  187.5670  177.7630  145.6180 C   0  0  0  0  0  3  0  0  0  0  0  0
  188.1980  177.9020  139.7660 C   0  0  0  0  0  0  0  0  0  0  0  0
  191.1830  176.7880  137.9120 C   0  0  0  0  0  2  0  0  0  0  0  0
  187.6310  177.9650  144.1360 C   0  0  0  0  0  0  0  0  0  0  0  0
  185.1800  178.2420  146.3510 C   0  0  0  0  0  3  0  0  0  0  0  0
  188.8340  176.8720  136.9430 C   0  0  2  0  0  3  0  0  0  0  0  0
  189.0370  177.5480  142.0510 C   0  0  0  0  0  0  0  0  0  0  0  0
  185.3030  178.5890  143.8360 N   0  0  0  0  0  0  0  0  0  0  0  0
  188.0400  177.9530  141.2500 C   0  0  0  0  0  0  0  0  0  0  0  0
  191.3150  177.3640  143.6220 C   0  0  0  0  0  3  0  0  0  0  0  0
  186.7870  178.1230  137.6340 C   0  0  0  0  0  3  0  0  0  0  0  0
  190.0270  177.5820  144.2250 N   0  0  0  0  0  2  0  0  0  0  0  0
  186.9700  178.1310  138.9580 C   0  0  0  0  0  3  0  0  0  0  0  0
  189.8550  177.5510  137.8430 C   0  0  1  0  0  3  0  0  0  0  0  0
  191.4240  177.0830  142.3560 N   0  0  0  0  0  0  0  0  0  0  0  0
  190.5030  177.2920  140.1320 N   0  0  0  0  0  0  0  0  0  0  0  0
  189.4410  176.4170  135.7690 O   0  0  0  0  0  0  0  0  0  0  0  0
  188.5440  175.4870  135.2390 C   0  0  0  0  0  2  0  0  0  0  0  0
  191.1310  173.7550  136.4330 N   0  0  0  0  0  0  0  0  0  0  0  0
  188.8520  173.5540  136.7870 C   0  0  0  0  0  2  0  0  0  0  0  0
  189.1110  174.0870  135.3780 C   0  0  2  0  0  3  0  0  0  0  0  0
  190.1530  173.3990  137.3210 O   0  0  0  0  0  0  0  0  0  0  0  0
  190.6010  174.1470  135.3290 C   0  0  0  0  0  3  0  0  0  0  0  0
  1 18  1  1  0  0  0
  1 26  1  0  0  0  0
  2 27  1  0  0  0  0
  3 16  2  0  0  0  0
  4 15  1  0  0  0  0
  4 23  1  0  0  0  0
  5 19  1  0  0  0  0
  5 15  2  0  0  0  0
  6 19  1  0  0  0  0
  6  7  1  0  0  0  0
  7  3  1  0  0  0  0
  9 13  2  0  0  0  0
  9 27  1  0  0  0  0
 10 17  1  0  0  0  0
 10 22  1  0  0  0  0
 11  5  1  0  0  0  0
 12  8  2  0  0  0  0
 13 20  1  0  0  0  0
 14  2  1  0  0  0  0
 15 12  1  0  0  0  0
 16  8  1  0  0  0  0
 17 28  1  6  0  0  0
 17 25  1  0  0  0  0
 18  4  2  0  0  0  0
 19  3  1  0  0  0  0
 20 11  2  0  0  0  0
 20 18  1  0  0  0  0
 21 23  1  0  0  0  0
 22 24  2  0  0  0  0
 24 13  1  0  0  0  0
 25 14  1  1  0  0  0
 25  9  1  0  0  0  0
 26 21  2  0  0  0  0
 27  1  1  0  0  0  0
 29 28  1  0  0  0  0
 30 33  1  0  0  0  0
 31 33  1  0  0  0  0
 32 29  1  1  0  0  0
 32 31  1  0  0  0  0
 34 32  1  0  0  0  0
 34 30  2  0  0  0  0
M  END
>  <MODEL>
3

>  <REMARK>
 VINA RESULT:      -9.8      2.215      4.444
  Name = 
  3 active torsions:
  status: ('A' for Active; 'I' for Inactive)
    1  A    between atoms: C_17  and  O_28
    2  A    between atoms: O_28  and  C_29
    3  A    between atoms: C_29  and  C_32
                            x       y       z     vdW  Elec       q    Type
                         _______ _______ _______ _____ _____    ______ ____

>  <TORSDO>
F 3

$$$$
=
 OpenBabel11122412113D

 34 41  0  0  1  0  0  0  0  0999 V2000
  188.9620  177.2910  140.4810 C   0  0  2  0  0  3  0  0  0  0  0  0
  187.7660  178.0200  138.3460 C   0  0  0  0  0  2  0  0  0  0  0  0
  189.6750  177.0390  147.3000 C   0  0  0  0  0  0  0  0  0  0  0  0
  190.1720  177.3990  142.7100 C   0  0  0  0  0  0  0  0  0  0  0  0
  188.9610  177.6140  144.8080 C   0  0  0  0  0  0  0  0  0  0  0  0
  187.7720  177.7470  147.1920 C   0  0  0  0  0  2  0  0  0  0  0  0
  188.5860  177.3070  148.2850 C   0  0  0  0  0  2  0  0  0  0  0  0
  191.7020  176.4660  146.1010 C   0  0  0  0  0  3  0  0  0  0  0  0
  186.6900  178.3350  140.4170 C   0  0  0  0  0  0  0  0  0  0  0  0
  183.6140  178.9250  140.7000 C   0  0  0  0  0  2  0  0  0  0  0  0
  187.8070  178.2370  144.0520 C   0  0  0  0  0  3  0  0  0  0  0  0
  191.3610  176.7500  144.8330 C   0  0  0  0  0  3  0  0  0  0  0  0
  186.5710  178.2740  141.7660 C   0  0  0  0  0  0  0  0  0  0  0  0
  186.2670  178.1820  138.0940 C   0  0  0  0  0  2  0  0  0  0  0  0
  190.1190  177.2770  144.1840 C   0  0  0  0  0  0  0  0  0  0  0  0
  190.9080  176.5920  147.3290 C   0  0  0  0  0  3  0  0  0  0  0  0
  184.3070  178.0210  139.7060 C   0  0  2  0  0  3  0  0  0  0  0  0
  188.9300  177.6000  141.9520 C   0  0  0  0  0  0  0  0  0  0  0  0
  188.8080  177.4930  146.2160 N   0  0  0  0  0  0  0  0  0  0  0  0
  187.7950  177.9700  142.5660 C   0  0  0  0  0  0  0  0  0  0  0  0
  191.3710  177.5210  140.6380 C   0  0  0  0  0  3  0  0  0  0  0  0
  184.0590  178.6770  142.1020 C   0  0  0  0  0  3  0  0  0  0  0  0
  191.3030  177.3510  142.0650 N   0  0  0  0  0  2  0  0  0  0  0  0
  185.3030  178.4320  142.5270 C   0  0  0  0  0  3  0  0  0  0  0  0
  185.6500  178.6720  139.4090 C   0  0  1  0  0  3  0  0  0  0  0  0
  190.2890  177.5470  139.9130 N   0  0  0  0  0  0  0  0  0  0  0  0
  187.9310  178.0530  139.7860 N   0  0  0  0  0  0  0  0  0  0  0  0
  183.5270  177.9580  138.5480 O   0  0  0  0  0  0  0  0  0  0  0  0
  182.2930  177.4630  138.9750 C   0  0  0  0  0  2  0  0  0  0  0  0
  180.6490  174.5910  138.5630 N   0  0  0  0  0  0  0  0  0  0  0  0
  182.7600  175.2650  137.8900 C   0  0  0  0  0  2  0  0  0  0  0  0
  182.3860  175.9650  139.1960 C   0  0  2  0  0  3  0  0  0  0  0  0
  181.6250  174.4670  137.6120 O   0  0  0  0  0  0  0  0  0  0  0  0
  181.0260  175.4180  139.4740 C   0  0  0  0  0  3  0  0  0  0  0  0
  1 26  1  6  0  0  0
  1 18  1  0  0  0  0
  2 27  1  0  0  0  0
  3 16  2  0  0  0  0
  3  7  1  0  0  0  0
  4 15  1  0  0  0  0
  5 19  1  0  0  0  0
  6  7  1  0  0  0  0
  8 16  1  0  0  0  0
  9 13  2  0  0  0  0
 10 22  1  0  0  0  0
 11  5  1  0  0  0  0
 12  8  2  0  0  0  0
 13 24  1  0  0  0  0
 13 20  1  0  0  0  0
 14  2  1  0  0  0  0
 15  5  2  0  0  0  0
 15 12  1  0  0  0  0
 17 28  1  6  0  0  0
 17 10  1  0  0  0  0
 18 20  1  0  0  0  0
 18  4  2  0  0  0  0
 19  6  1  0  0  0  0
 19  3  1  0  0  0  0
 20 11  2  0  0  0  0
 21 23  1  0  0  0  0
 22 24  2  0  0  0  0
 23  4  1  0  0  0  0
 25 14  1  6  0  0  0
 25 17  1  0  0  0  0
 25  9  1  0  0  0  0
 26 21  2  0  0  0  0
 27  9  1  0  0  0  0
 27  1  1  0  0  0  0
 28 29  1  0  0  0  0
 30 34  2  0  0  0  0
 31 32  1  0  0  0  0
 32 29  1  6  0  0  0
 32 34  1  0  0  0  0
 33 31  1  0  0  0  0
 33 30  1  0  0  0  0
M  END
>  <MODEL>
4

>  <REMARK>
 VINA RESULT:      -9.8      2.663      4.759
  Name = 
  3 active torsions:
  status: ('A' for Active; 'I' for Inactive)
    1  A    between atoms: C_17  and  O_28
    2  A    between atoms: O_28  and  C_29
    3  A    between atoms: C_29  and  C_32
                            x       y       z     vdW  Elec       q    Type
                         _______ _______ _______ _____ _____    ______ ____

>  <TORSDO>
F 3

$$$$
=
 OpenBabel11122412113D

 34 41  0  0  1  0  0  0  0  0999 V2000
  186.0080  178.9380  140.7040 C   0  0  2  0  0  3  0  0  0  0  0  0
  188.3970  178.1070  141.0460 C   0  0  0  0  0  2  0  0  0  0  0  0
  179.4450  179.6070  142.5890 C   0  0  0  0  0  0  0  0  0  0  0  0
  183.4840  178.9410  140.4240 C   0  0  0  0  0  0  0  0  0  0  0  0
  181.9900  178.8930  142.3430 C   0  0  0  0  0  0  0  0  0  0  0  0
  180.2270  178.9440  144.3440 C   0  0  0  0  0  2  0  0  0  0  0  0
  178.9310  179.4310  143.9790 C   0  0  0  0  0  2  0  0  0  0  0  0
  179.8170  180.0480  140.2340 C   0  0  0  0  0  3  0  0  0  0  0  0
  186.8720  177.9530  142.8350 C   0  0  0  0  0  0  0  0  0  0  0  0
  187.7420  177.4650  145.8170 C   0  0  0  0  0  2  0  0  0  0  0  0
  183.0940  178.2540  143.1580 C   0  0  0  0  0  3  0  0  0  0  0  0
  181.1050  179.6930  140.0880 C   0  0  0  0  0  3  0  0  0  0  0  0
  185.6720  178.1040  143.4470 C   0  0  0  0  0  0  0  0  0  0  0  0
  189.1870  177.9680  142.3470 C   0  0  0  0  0  2  0  0  0  0  0  0
  182.1470  179.1580  141.0200 C   0  0  0  0  0  0  0  0  0  0  0  0
  178.9740  180.0220  141.4360 C   0  0  0  0  0  3  0  0  0  0  0  0
  188.4440  178.2840  144.7580 C   0  0  2  0  0  3  0  0  0  0  0  0
  184.6440  178.7250  141.3000 C   0  0  0  0  0  0  0  0  0  0  0  0
  180.7510  179.1080  143.0070 N   0  0  0  0  0  0  0  0  0  0  0  0
  184.4860  178.4250  142.5990 C   0  0  0  0  0  0  0  0  0  0  0  0
  184.9420  178.6550  138.5440 C   0  0  0  0  0  3  0  0  0  0  0  0
  186.2890  177.7900  145.9180 C   0  0  0  0  0  3  0  0  0  0  0  0
  183.6570  178.9180  139.1340 N   0  0  0  0  0  2  0  0  0  0  0  0
  185.4390  178.0290  144.9140 C   0  0  0  0  0  3  0  0  0  0  0  0
  188.1800  177.5800  143.4360 C   0  0  1  0  0  3  0  0  0  0  0  0
  186.0190  178.6120  139.2750 N   0  0  0  0  0  0  0  0  0  0  0  0
  187.0020  178.1610  141.4350 N   0  0  0  0  0  0  0  0  0  0  0  0
  189.8120  178.2940  145.0430 O   0  0  0  0  0  0  0  0  0  0  0  0
  190.0090  177.2040  145.8930 C   0  0  0  0  0  2  0  0  0  0  0  0
  192.1710  175.5940  147.8550 N   0  0  0  0  0  0  0  0  0  0  0  0
  192.0530  175.8140  145.5530 C   0  0  0  0  0  2  0  0  0  0  0  0
  191.4830  177.0640  146.2220 C   0  0  2  0  0  3  0  0  0  0  0  0
  192.4290  175.0010  146.6490 O   0  0  0  0  0  0  0  0  0  0  0  0
  191.6410  176.7520  147.6720 C   0  0  0  0  0  3  0  0  0  0  0  0
  1 26  1  6  0  0  0
  1 18  1  0  0  0  0
  1 27  1  0  0  0  0
  2 27  1  0  0  0  0
  2 14  1  0  0  0  0
  3 19  1  0  0  0  0
  3  7  1  0  0  0  0
  4 15  2  0  0  0  0
  4 18  1  0  0  0  0
  5 19  1  0  0  0  0
  5 11  2  0  0  0  0
  7  6  1  0  0  0  0
  8 16  1  0  0  0  0
  9 25  1  0  0  0  0
  9 13  2  0  0  0  0
 10 22  1  0  0  0  0
 12  8  2  0  0  0  0
 12 15  1  0  0  0  0
 13 24  1  0  0  0  0
 15  5  1  0  0  0  0
 16  3  2  0  0  0  0
 17 28  1  1  0  0  0
 17 10  1  0  0  0  0
 18 20  2  0  0  0  0
 19  6  1  0  0  0  0
 20 11  1  0  0  0  0
 20 13  1  0  0  0  0
 21 23  1  0  0  0  0
 21 26  2  0  0  0  0
 23  4  1  0  0  0  0
 24 22  2  0  0  0  0
 25 14  1  6  0  0  0
 25 17  1  0  0  0  0
 27  9  1  0  0  0  0
 28 29  1  0  0  0  0
 31 32  1  0  0  0  0
 31 33  1  0  0  0  0
 32 29  1  1  0  0  0
 32 34  1  0  0  0  0
 33 30  1  0  0  0  0
 34 30  2  0  0  0  0
M  END
>  <MODEL>
5

>  <REMARK>
 VINA RESULT:      -9.7      3.532      8.371
  Name = 
  3 active torsions:
  status: ('A' for Active; 'I' for Inactive)
    1  A    between atoms: C_17  and  O_28
    2  A    between atoms: O_28  and  C_29
    3  A    between atoms: C_29  and  C_32
                            x       y       z     vdW  Elec       q    Type
                         _______ _______ _______ _____ _____    ______ ____

>  <TORSDO>
F 3

$$$$
=
 OpenBabel11122412113D

 34 41  0  0  1  0  0  0  0  0999 V2000
  186.3300  178.1290  140.8800 C   0  0  2  0  0  3  0  0  0  0  0  0
  184.5060  178.9800  139.3080 C   0  0  0  0  0  2  0  0  0  0  0  0
  189.0640  177.1340  147.0930 C   0  0  0  0  0  0  0  0  0  0  0  0
  188.1420  178.0930  142.6570 C   0  0  0  0  0  0  0  0  0  0  0  0
  187.6030  177.9270  145.0230 C   0  0  0  0  0  0  0  0  0  0  0  0
  187.1750  177.6490  147.6410 C   0  0  0  0  0  2  0  0  0  0  0  0
  188.3050  177.1670  148.3780 C   0  0  0  0  0  2  0  0  0  0  0  0
  190.6730  176.9230  145.2910 C   0  0  0  0  0  3  0  0  0  0  0  0
  184.0810  178.9310  141.6250 C   0  0  0  0  0  0  0  0  0  0  0  0
  181.1990  179.1590  142.8620 C   0  0  0  0  0  2  0  0  0  0  0  0
  186.2380  178.5130  144.7290 C   0  0  0  0  0  3  0  0  0  0  0  0
  189.9500  177.3210  144.2300 C   0  0  0  0  0  3  0  0  0  0  0  0
  184.3750  178.6960  142.9270 C   0  0  0  0  0  0  0  0  0  0  0  0
  182.9940  179.0150  139.5250 C   0  0  0  0  0  2  0  0  0  0  0  0
  188.5400  177.7900  144.0500 C   0  0  0  0  0  0  0  0  0  0  0  0
  190.2760  176.8170  146.7010 C   0  0  0  0  0  3  0  0  0  0  0  0
  181.6200  178.4590  141.5910 C   0  0  2  0  0  3  0  0  0  0  0  0
  186.7200  178.2540  142.3260 C   0  0  0  0  0  0  0  0  0  0  0  0
  187.8860  177.6220  146.3820 N   0  0  0  0  0  0  0  0  0  0  0  0
  185.8000  178.4270  143.2870 C   0  0  0  0  0  0  0  0  0  0  0  0
  188.6560  178.5870  140.3690 C   0  0  0  0  0  3  0  0  0  0  0  0
  182.0580  178.7920  144.0260 C   0  0  0  0  0  3  0  0  0  0  0  0
  189.0290  178.2410  141.7140 N   0  0  0  0  0  2  0  0  0  0  0  0
  183.3850  178.6280  144.0350 C   0  0  0  0  0  3  0  0  0  0  0  0
  182.7680  179.2770  141.0180 C   0  0  1  0  0  3  0  0  0  0  0  0
  187.4080  178.5870  139.9980 N   0  0  0  0  0  0  0  0  0  0  0  0
  185.0920  178.8570  140.6290 N   0  0  0  0  0  0  0  0  0  0  0  0
  180.5350  178.4540  140.7100 O   0  0  0  0  0  0  0  0  0  0  0  0
  179.6720  177.4770  141.2100 C   0  0  0  0  0  2  0  0  0  0  0  0
  180.6070  176.2870  138.2390 N   0  0  0  0  0  0  0  0  0  0  0  0
  180.0560  175.2190  140.2190 C   0  0  0  0  0  2  0  0  0  0  0  0
  179.2710  176.5250  140.1000 C   0  0  2  0  0  3  0  0  0  0  0  0
  180.8300  175.1950  139.0330 O   0  0  0  0  0  0  0  0  0  0  0  0
  179.7410  177.0630  138.7900 C   0  0  0  0  0  3  0  0  0  0  0  0
  1 26  1  6  0  0  0
  1 18  1  0  0  0  0
  2 14  1  0  0  0  0
  2 27  1  0  0  0  0
  3  7  1  0  0  0  0
  4 15  1  0  0  0  0
  5 19  1  0  0  0  0
  6  7  1  0  0  0  0
  8 16  1  0  0  0  0
  9 13  2  0  0  0  0
 10 22  1  0  0  0  0
 11  5  1  0  0  0  0
 12  8  2  0  0  0  0
 13 20  1  0  0  0  0
 13 24  1  0  0  0  0
 15 12  1  0  0  0  0
 15  5  2  0  0  0  0
 16  3  2  0  0  0  0
 17 28  1  6  0  0  0
 17 10  1  0  0  0  0
 18  4  2  0  0  0  0
 18 20  1  0  0  0  0
 19  3  1  0  0  0  0
 19  6  1  0  0  0  0
 20 11  2  0  0  0  0
 21 23  1  0  0  0  0
 22 24  2  0  0  0  0
 23  4  1  0  0  0  0
 25 14  1  6  0  0  0
 25 17  1  0  0  0  0
 25  9  1  0  0  0  0
 26 21  2  0  0  0  0
 27  1  1  0  0  0  0
 27  9  1  0  0  0  0
 28 29  1  0  0  0  0
 30 34  2  0  0  0  0
 30 33  1  0  0  0  0
 32 31  1  0  0  0  0
 32 29  1  1  0  0  0
 33 31  1  0  0  0  0
 34 32  1  0  0  0  0
M  END
>  <MODEL>
6

>  <REMARK>
 VINA RESULT:      -9.6      3.230      5.753
  Name = 
  3 active torsions:
  status: ('A' for Active; 'I' for Inactive)
    1  A    between atoms: C_17  and  O_28
    2  A    between atoms: O_28  and  C_29
    3  A    between atoms: C_29  and  C_32
                            x       y       z     vdW  Elec       q    Type
                         _______ _______ _______ _____ _____    ______ ____

>  <TORSDO>
F 3

$$$$
=
 OpenBabel11122412113D

 34 41  0  0  1  0  0  0  0  0999 V2000
  189.1050  177.2630  140.4260 C   0  0  2  0  0  3  0  0  0  0  0  0
  187.9830  177.9740  138.2460 C   0  0  0  0  0  2  0  0  0  0  0  0
  189.5810  177.0570  147.2670 C   0  0  0  0  0  0  0  0  0  0  0  0
  190.2370  177.3890  142.6950 C   0  0  0  0  0  0  0  0  0  0  0  0
  188.9530  177.6140  144.7480 C   0  0  0  0  0  0  0  0  0  0  0  0
  187.6810  177.7600  147.0890 C   0  0  0  0  0  2  0  0  0  0  0  0
  188.4570  177.3290  148.2120 C   0  0  0  0  0  2  0  0  0  0  0  0
  191.6500  176.4820  146.1430 C   0  0  0  0  0  3  0  0  0  0  0  0
  186.8340  178.3000  140.2760 C   0  0  0  0  0  0  0  0  0  0  0  0
  183.7490  178.8840  140.4470 C   0  0  0  0  0  2  0  0  0  0  0  0
  187.8240  178.2290  143.9480 C   0  0  0  0  0  3  0  0  0  0  0  0
  191.3530  176.7570  144.8620 C   0  0  0  0  0  3  0  0  0  0  0  0
  186.6690  178.2470  141.6210 C   0  0  0  0  0  0  0  0  0  0  0  0
  186.4930  178.1310  137.9410 C   0  0  0  0  0  2  0  0  0  0  0  0
  190.1330  177.2760  144.1670 C   0  0  0  0  0  0  0  0  0  0  0  0
  190.8140  176.6130  147.3420 C   0  0  0  0  0  3  0  0  0  0  0  0
  184.4790  177.9760  139.4840 C   0  0  2  0  0  3  0  0  0  0  0  0
  189.0220  177.5820  141.8930 C   0  0  0  0  0  0  0  0  0  0  0  0
  188.7510  177.5020  146.1510 N   0  0  0  0  0  0  0  0  0  0  0  0
  187.8650  177.9530  142.4640 C   0  0  0  0  0  0  0  0  0  0  0  0
  191.5070  177.5000  140.6650 C   0  0  0  0  0  3  0  0  0  0  0  0
  184.1460  178.6460  141.8660 C   0  0  0  0  0  3  0  0  0  0  0  0
  191.3890  177.3390  142.0900 N   0  0  0  0  0  2  0  0  0  0  0  0
  185.3740  178.4070  142.3360 C   0  0  0  0  0  3  0  0  0  0  0  0
  185.8290  178.6280  139.2300 C   0  0  1  0  0  3  0  0  0  0  0  0
  190.4510  177.5180  139.9030 N   0  0  0  0  0  0  0  0  0  0  0  0
  188.0970  178.0170  139.6900 N   0  0  0  0  0  0  0  0  0  0  0  0
  183.7390  177.9020  138.3000 O   0  0  0  0  0  0  0  0  0  0  0  0
  182.9650  176.7480  138.4330 C   0  0  0  0  0  2  0  0  0  0  0  0
  184.1450  173.8840  137.2000 N   0  0  0  0  0  0  0  0  0  0  0  0
  182.0170  174.7980  137.1990 C   0  0  0  0  0  2  0  0  0  0  0  0
  183.0590  175.9150  137.1690 C   0  0  2  0  0  3  0  0  0  0  0  0
  182.8020  173.6200  137.2200 O   0  0  0  0  0  0  0  0  0  0  0  0
  184.3430  175.1540  137.1700 C   0  0  0  0  0  3  0  0  0  0  0  0
  1 26  1  6  0  0  0
  1 18  1  0  0  0  0
  2 27  1  0  0  0  0
  3 16  2  0  0  0  0
  3  7  1  0  0  0  0
  4 15  1  0  0  0  0
  5 19  1  0  0  0  0
  6  7  1  0  0  0  0
  8 16  1  0  0  0  0
  9 13  2  0  0  0  0
 10 22  1  0  0  0  0
 11  5  1  0  0  0  0
 12  8  2  0  0  0  0
 13 24  1  0  0  0  0
 13 20  1  0  0  0  0
 14  2  1  0  0  0  0
 15  5  2  0  0  0  0
 15 12  1  0  0  0  0
 17 28  1  6  0  0  0
 17 10  1  0  0  0  0
 18 20  1  0  0  0  0
 18  4  2  0  0  0  0
 19  6  1  0  0  0  0
 19  3  1  0  0  0  0
 20 11  2  0  0  0  0
 21 23  1  0  0  0  0
 22 24  2  0  0  0  0
 23  4  1  0  0  0  0
 25 14  1  6  0  0  0
 25 17  1  0  0  0  0
 25  9  1  0  0  0  0
 26 21  2  0  0  0  0
 27  9  1  0  0  0  0
 27  1  1  0  0  0  0
 28 29  1  0  0  0  0
 30 33  1  0  0  0  0
 31 33  1  0  0  0  0
 32 34  1  0  0  0  0
 32 31  1  0  0  0  0
 32 29  1  1  0  0  0
 34 30  2  0  0  0  0
M  END
>  <MODEL>
7

>  <REMARK>
 VINA RESULT:      -9.5      2.451      4.383
  Name = 
  3 active torsions:
  status: ('A' for Active; 'I' for Inactive)
    1  A    between atoms: C_17  and  O_28
    2  A    between atoms: O_28  and  C_29
    3  A    between atoms: C_29  and  C_32
                            x       y       z     vdW  Elec       q    Type
                         _______ _______ _______ _____ _____    ______ ____

>  <TORSDO>
F 3

$$$$
=
 OpenBabel11122412113D

 34 41  0  0  1  0  0  0  0  0999 V2000
  184.2280  179.0280  144.4660 C   0  0  2  0  0  3  0  0  0  0  0  0
  181.8250  179.1550  143.6110 C   0  0  0  0  0  2  0  0  0  0  0  0
  190.8580  177.3800  143.8310 C   0  0  0  0  0  0  0  0  0  0  0  0
  186.4800  178.0870  145.1660 C   0  0  0  0  0  0  0  0  0  0  0  0
  188.2310  177.6320  143.5400 C   0  0  0  0  0  0  0  0  0  0  0  0
  190.2790  177.1760  141.8930 C   0  0  0  0  0  2  0  0  0  0  0  0
  191.5570  177.1280  142.5360 C   0  0  0  0  0  2  0  0  0  0  0  0
  190.1780  177.7590  146.1270 C   0  0  0  0  0  3  0  0  0  0  0  0
  183.5410  178.5810  142.1030 C   0  0  0  0  0  0  0  0  0  0  0  0
  183.1980  178.6580  138.9780 C   0  0  0  0  0  2  0  0  0  0  0  0
  187.1700  177.5010  142.4680 C   0  0  0  0  0  3  0  0  0  0  0  0
  188.8470  177.8900  146.0010 C   0  0  0  0  0  3  0  0  0  0  0  0
  184.8190  178.3260  141.7290 C   0  0  0  0  0  0  0  0  0  0  0  0
  181.3260  179.4080  142.1890 C   0  0  0  0  0  2  0  0  0  0  0  0
  187.9030  177.8420  144.8410 C   0  0  0  0  0  0  0  0  0  0  0  0
  191.1910  177.5120  145.0930 C   0  0  0  0  0  3  0  0  0  0  0  0
  182.6180  179.6000  140.0080 C   0  0  2  0  0  3  0  0  0  0  0  0
  185.5270  178.3730  144.0850 C   0  0  0  0  0  0  0  0  0  0  0  0
  189.5770  177.4250  143.1320 N   0  0  0  0  0  0  0  0  0  0  0  0
  185.8380  178.1290  142.8030 C   0  0  0  0  0  0  0  0  0  0  0  0
  184.6550  178.2220  146.7130 C   0  0  0  0  0  3  0  0  0  0  0  0
  184.6610  178.4360  139.1700 C   0  0  0  0  0  3  0  0  0  0  0  0
  186.0450  178.0370  146.3920 N   0  0  0  0  0  2  0  0  0  0  0  0
  185.3120  178.2750  140.3270 C   0  0  0  0  0  3  0  0  0  0  0  0
  182.3400  178.7560  141.2430 C   0  0  1  0  0  3  0  0  0  0  0  0
  183.8070  178.6280  145.8120 N   0  0  0  0  0  0  0  0  0  0  0  0
  183.2020  178.7230  143.4750 N   0  0  0  0  0  0  0  0  0  0  0  0
  181.4280  180.1310  139.5000 O   0  0  0  0  0  0  0  0  0  0  0  0
  181.8320  181.1400  138.6240 C   0  0  0  0  0  2  0  0  0  0  0  0
  180.8950  183.3780  136.3370 N   0  0  0  0  0  0  0  0  0  0  0  0
  180.6380  181.0790  136.4340 C   0  0  0  0  0  2  0  0  0  0  0  0
  180.6370  181.6590  137.8480 C   0  0  2  0  0  3  0  0  0  0  0  0
  180.8060  182.2200  135.6140 O   0  0  0  0  0  0  0  0  0  0  0  0
  180.8060  183.1200  137.5940 C   0  0  0  0  0  3  0  0  0  0  0  0
  1 18  1  6  0  0  0
  1 26  1  0  0  0  0
  3 16  2  0  0  0  0
  4 23  1  0  0  0  0
  5 15  2  0  0  0  0
  6  7  1  0  0  0  0
  6 19  1  0  0  0  0
  7  3  1  0  0  0  0
  9 27  1  0  0  0  0
 10 22  1  0  0  0  0
 10 17  1  0  0  0  0
 11 20  2  0  0  0  0
 11  5  1  0  0  0  0
 12  8  2  0  0  0  0
 13  9  2  0  0  0  0
 13 20  1  0  0  0  0
 14  2  1  0  0  0  0
 15  4  1  0  0  0  0
 15 12  1  0  0  0  0
 16  8  1  0  0  0  0
 17 28  1  6  0  0  0
 17 25  1  0  0  0  0
 18  4  2  0  0  0  0
 19  5  1  0  0  0  0
 19  3  1  0  0  0  0
 20 18  1  0  0  0  0
 22 24  2  0  0  0  0
 23 21  1  0  0  0  0
 24 13  1  0  0  0  0
 25  9  1  0  0  0  0
 25 14  1  1  0  0  0
 26 21  2  0  0  0  0
 27  2  1  0  0  0  0
 27  1  1  0  0  0  0
 29 28  1  0  0  0  0
 30 34  2  0  0  0  0
 31 32  1  0  0  0  0
 32 29  1  1  0  0  0
 33 30  1  0  0  0  0
 33 31  1  0  0  0  0
 34 32  1  0  0  0  0
M  END
>  <MODEL>
8

>  <REMARK>
 VINA RESULT:      -9.5      3.507      5.313
  Name = 
  3 active torsions:
  status: ('A' for Active; 'I' for Inactive)
    1  A    between atoms: C_17  and  O_28
    2  A    between atoms: O_28  and  C_29
    3  A    between atoms: C_29  and  C_32
                            x       y       z     vdW  Elec       q    Type
                         _______ _______ _______ _____ _____    ______ ____

>  <TORSDO>
F 3

$$$$
=
 OpenBabel11122412113D

 34 41  0  0  1  0  0  0  0  0999 V2000
  189.0650  177.2490  140.4370 C   0  0  2  0  0  3  0  0  0  0  0  0
  187.9180  177.9590  138.2690 C   0  0  0  0  0  2  0  0  0  0  0  0
  189.6280  177.0650  147.2720 C   0  0  0  0  0  0  0  0  0  0  0  0
  190.2270  177.3770  142.6910 C   0  0  0  0  0  0  0  0  0  0  0  0
  188.9710  177.6170  144.7600 C   0  0  0  0  0  0  0  0  0  0  0  0
  187.7300  177.7780  147.1160 C   0  0  0  0  0  2  0  0  0  0  0  0
  188.5190  177.3470  148.2310 C   0  0  0  0  0  2  0  0  0  0  0  0
  191.6800  176.4740  146.1240 C   0  0  0  0  0  3  0  0  0  0  0  0
  186.7980  178.2980  140.3130 C   0  0  0  0  0  0  0  0  0  0  0  0
  183.7190  178.9000  140.5220 C   0  0  0  0  0  2  0  0  0  0  0  0
  187.8350  178.2340  143.9720 C   0  0  0  0  0  3  0  0  0  0  0  0
  191.3670  176.7460  144.8460 C   0  0  0  0  0  3  0  0  0  0  0  0
  186.6500  178.2510  141.6600 C   0  0  0  0  0  0  0  0  0  0  0  0
  186.4260  178.1230  137.9830 C   0  0  0  0  0  2  0  0  0  0  0  0
  190.1410  177.2700  144.1640 C   0  0  0  0  0  0  0  0  0  0  0  0
  190.8600  176.6150  147.3330 C   0  0  0  0  0  3  0  0  0  0  0  0
  184.4310  177.9840  139.5530 C   0  0  2  0  0  3  0  0  0  0  0  0
  189.0020  177.5730  141.9040 C   0  0  0  0  0  0  0  0  0  0  0  0
  188.7870  177.5100  146.1660 N   0  0  0  0  0  0  0  0  0  0  0  0
  187.8550  177.9530  142.4890 C   0  0  0  0  0  0  0  0  0  0  0  0
  191.4710  177.4740  140.6450 C   0  0  0  0  0  3  0  0  0  0  0  0
  184.1320  178.6640  141.9360 C   0  0  0  0  0  3  0  0  0  0  0  0
  191.3710  177.3190  142.0710 N   0  0  0  0  0  2  0  0  0  0  0  0
  185.3660  178.4210  142.3910 C   0  0  0  0  0  3  0  0  0  0  0  0
  185.7810  178.6280  139.2790 C   0  0  1  0  0  3  0  0  0  0  0  0
  190.4050  177.4950  139.8960 N   0  0  0  0  0  0  0  0  0  0  0  0
  188.0520  178.0060  139.7120 N   0  0  0  0  0  0  0  0  0  0  0  0
  183.6760  177.9100  138.3790 O   0  0  0  0  0  0  0  0  0  0  0  0
  182.5770  177.1160  138.7100 C   0  0  0  0  0  2  0  0  0  0  0  0
  179.9800  179.1610  139.1530 N   0  0  0  0  0  0  0  0  0  0  0  0
  181.5930  179.0600  137.4940 C   0  0  0  0  0  2  0  0  0  0  0  0
  181.3270  177.6580  138.0420 C   0  0  2  0  0  3  0  0  0  0  0  0
  180.7200  179.8770  138.2510 O   0  0  0  0  0  0  0  0  0  0  0  0
  180.2820  177.9120  139.0760 C   0  0  0  0  0  3  0  0  0  0  0  0
  1 26  1  6  0  0  0
  1 18  1  0  0  0  0
  2 27  1  0  0  0  0
  3 16  2  0  0  0  0
  3  7  1  0  0  0  0
  4 15  1  0  0  0  0
  5 19  1  0  0  0  0
  6  7  1  0  0  0  0
  8 16  1  0  0  0  0
  9 13  2  0  0  0  0
 10 22  1  0  0  0  0
 11  5  1  0  0  0  0
 12  8  2  0  0  0  0
 13 24  1  0  0  0  0
 13 20  1  0  0  0  0
 14  2  1  0  0  0  0
 15  5  2  0  0  0  0
 15 12  1  0  0  0  0
 17 28  1  6  0  0  0
 17 10  1  0  0  0  0
 18 20  1  0  0  0  0
 18  4  2  0  0  0  0
 19  6  1  0  0  0  0
 19  3  1  0  0  0  0
 20 11  2  0  0  0  0
 21 23  1  0  0  0  0
 22 24  2  0  0  0  0
 23  4  1  0  0  0  0
 25 14  1  6  0  0  0
 25 17  1  0  0  0  0
 25  9  1  0  0  0  0
 26 21  2  0  0  0  0
 27  9  1  0  0  0  0
 27  1  1  0  0  0  0
 28 29  1  0  0  0  0
 31 32  1  0  0  0  0
 31 33  1  0  0  0  0
 32 29  1  1  0  0  0
 32 34  1  0  0  0  0
 33 30  1  0  0  0  0
 34 30  2  0  0  0  0
M  END
>  <MODEL>
9

>  <REMARK>
 VINA RESULT:      -9.5      2.615      4.877
  Name = 
  3 active torsions:
  status: ('A' for Active; 'I' for Inactive)
    1  A    between atoms: C_17  and  O_28
    2  A    between atoms: O_28  and  C_29
    3  A    between atoms: C_29  and  C_32
                            x       y       z     vdW  Elec       q    Type
                         _______ _______ _______ _____ _____    ______ ____

>  <TORSDO>
F 3

$$$$
