=
 OpenBabel11122412163D

 34 40  0  0  1  0  0  0  0  0999 V2000
  185.2580  178.4360  142.4620 C   0  0  0  0  0  0  0  0  0  0  0  0
  183.8520  179.0910  140.4420 C   0  0  0  0  0  2  0  0  0  0  0  0
  191.3660  177.3790  145.7270 O   0  0  0  0  0  0  0  0  0  0  0  0
  186.8750  178.3590  144.3670 C   0  0  1  0  0  3  0  0  0  0  0  0
  189.2510  177.6570  143.8190 N   0  0  1  0  0  0  0  0  0  0  0  0
  191.2810  176.3100  143.5850 C   0  0  0  0  0  2  0  0  0  0  0  0
  191.7430  176.2240  145.0340 C   0  0  0  0  0  2  0  0  0  0  0  0
  189.3040  176.6000  146.7300 C   0  0  0  0  0  2  0  0  0  0  0  0
  186.0220  178.1040  140.0780 C   0  0  2  0  0  3  0  0  0  0  0  0
  187.4670  177.8730  137.3330 C   0  0  0  0  0  2  0  0  0  0  0  0
  188.9610  178.3580  142.5560 C   0  0  0  0  0  2  0  0  0  0  0  0
  188.5340  177.7820  146.1650 C   0  0  0  0  0  2  0  0  0  0  0  0
  187.3980  178.5570  140.5680 C   0  0  1  0  0  3  0  0  0  0  0  0
  184.1290  179.1070  138.9440 C   0  0  0  0  0  2  0  0  0  0  0  0
  188.0960  177.4910  144.7300 C   0  0  1  0  0  3  0  0  0  0  0  0
  190.7820  176.9340  146.9200 C   0  0  0  0  0  2  0  0  0  0  0  0
  185.9530  177.9580  137.5570 C   0  0  2  0  0  3  0  0  0  0  0  0
  186.5170  178.2100  142.9060 C   0  0  0  0  0  0  0  0  0  0  0  0
  189.7600  176.3310  143.4880 C   0  0  0  0  0  2  0  0  0  0  0  0
  187.6380  177.9060  141.9350 C   0  0  2  0  0  3  0  0  0  0  0  0
  184.5240  178.9450  144.8440 C   0  0  0  0  0  2  0  0  0  0  0  0
  188.2230  177.2240  138.4960 C   0  0  0  0  0  2  0  0  0  0  0  0
  185.6780  178.0490  145.2630 C   0  0  0  0  0  2  0  0  0  0  0  0
  188.5420  178.2570  139.5770 C   0  0  0  0  0  2  0  0  0  0  0  0
  185.6160  178.8010  138.7960 C   0  0  2  0  0  3  0  0  0  0  0  0
  184.0980  178.6090  143.4170 C   0  0  0  0  0  2  0  0  0  0  0  0
  185.0030  178.4470  141.0470 N   0  0  0  0  0  0  0  0  0  0  0  0
  185.3370  176.5590  137.5790 C   0  0  0  0  0  2  0  0  0  0  0  0
  185.0550  176.0790  136.1660 C   0  0  0  0  0  2  0  0  0  0  0  0
  185.8180  173.0520  137.7830 N   0  0  0  0  0  2  0  0  0  0  0  0
  184.3380  173.6990  136.0310 C   0  0  0  0  0  2  0  0  0  0  0  0
  185.5160  174.6420  135.9960 C   0  0  2  0  0  3  0  0  0  0  0  0
  184.4220  173.0290  137.3810 C   0  0  0  0  0  2  0  0  0  0  0  0
  186.3800  174.2520  137.1800 C   0  0  0  0  0  2  0  0  0  0  0  0
  1 18  2  0  0  0  0
  1 26  1  0  0  0  0
  2 27  1  0  0  0  0
  3 16  1  0  0  0  0
  4 15  1  0  0  0  0
  4 23  1  1  0  0  0
  5 11  1  6  0  0  0
  5 15  1  0  0  0  0
  6  7  1  0  0  0  0
  7  3  1  0  0  0  0
  8 16  1  0  0  0  0
  9 13  1  0  0  0  0
  9 27  1  1  0  0  0
 10 17  1  0  0  0  0
 10 22  1  0  0  0  0
 12  8  1  0  0  0  0
 13 24  1  6  0  0  0
 13 20  1  0  0  0  0
 14  2  1  0  0  0  0
 15 12  1  1  0  0  0
 17 28  1  1  0  0  0
 17 25  1  0  0  0  0
 18  4  1  0  0  0  0
 19  6  1  0  0  0  0
 19  5  1  0  0  0  0
 20 11  1  1  0  0  0
 20 18  1  0  0  0  0
 21 23  1  0  0  0  0
 22 24  1  0  0  0  0
 25 14  1  1  0  0  0
 25  9  1  0  0  0  0
 26 21  1  0  0  0  0
 27  1  1  0  0  0  0
 29 28  1  0  0  0  0
 31 33  1  0  0  0  0
 32 31  1  0  0  0  0
 32 29  1  1  0  0  0
 32 34  1  0  0  0  0
 33 30  1  0  0  0  0
 34 30  1  0  0  0  0
M  END
>  <MODEL>
1

>  <REMARK>
 VINA RESULT:      -9.4      0.000      0.000
  Name = 
  3 active torsions:
  status: ('A' for Active; 'I' for Inactive)
    1  A    between atoms: C_17  and  C_28
    2  A    between atoms: C_28  and  C_29
    3  A    between atoms: C_29  and  C_32
                            x       y       z     vdW  Elec       q    Type
                         _______ _______ _______ _____ _____    ______ ____

>  <TORSDO>
F 3

$$$$
=
 OpenBabel11122412163D

 34 40  0  0  1  0  0  0  0  0999 V2000
  184.5010  178.3890  144.1860 C   0  0  0  0  0  0  0  0  0  0  0  0
  182.0980  178.9820  143.5870 C   0  0  0  0  0  2  0  0  0  0  0  0
  191.3570  178.0060  142.7970 O   0  0  0  0  0  0  0  0  0  0  0  0
  186.9570  178.4070  144.6550 C   0  0  1  0  0  3  0  0  0  0  0  0
  188.5010  178.1120  142.6630 N   0  0  1  0  0  0  0  0  0  0  0  0
  190.0180  177.1050  141.0270 C   0  0  0  0  0  2  0  0  0  0  0  0
  191.2920  176.9770  141.8510 C   0  0  0  0  0  2  0  0  0  0  0  0
  190.4440  176.8530  144.7200 C   0  0  0  0  0  2  0  0  0  0  0  0
  183.6170  178.3600  141.8200 C   0  0  2  0  0  3  0  0  0  0  0  0
  183.0270  178.5610  138.7730 C   0  0  0  0  0  2  0  0  0  0  0  0
  187.4350  178.8580  141.9710 C   0  0  0  0  0  2  0  0  0  0  0  0
  189.4110  177.9470  144.9380 C   0  0  0  0  0  2  0  0  0  0  0  0
  184.9610  178.9740  141.4240 C   0  0  1  0  0  3  0  0  0  0  0  0
  181.3690  179.1550  142.2600 C   0  0  0  0  0  2  0  0  0  0  0  0
  188.1900  177.7050  144.0520 C   0  0  1  0  0  3  0  0  0  0  0  0
  191.6850  177.3870  144.0110 C   0  0  0  0  0  2  0  0  0  0  0  0
  181.9880  178.4020  139.8900 C   0  0  2  0  0  3  0  0  0  0  0  0
  185.7720  178.3200  143.7210 C   0  0  0  0  0  0  0  0  0  0  0  0
  188.7770  176.9060  141.8900 C   0  0  0  0  0  2  0  0  0  0  0  0
  186.0500  178.2630  142.2350 C   0  0  2  0  0  3  0  0  0  0  0  0
  185.3960  178.5970  146.5580 C   0  0  0  0  0  2  0  0  0  0  0  0
  184.3880  177.9440  139.1080 C   0  0  0  0  0  2  0  0  0  0  0  0
  186.6140  177.8540  146.0350 C   0  0  0  0  0  2  0  0  0  0  0  0
  185.2440  178.9260  139.9080 C   0  0  0  0  0  2  0  0  0  0  0  0
  182.4490  179.0870  141.1860 C   0  0  2  0  0  3  0  0  0  0  0  0
  184.1920  178.3130  145.6640 C   0  0  0  0  0  2  0  0  0  0  0  0
  183.4130  178.4710  143.2490 N   0  0  0  0  0  0  0  0  0  0  0  0
  181.6200  176.9290  140.0700 C   0  0  0  0  0  2  0  0  0  0  0  0
  180.9530  176.3900  138.8170 C   0  0  0  0  0  2  0  0  0  0  0  0
  178.9310  173.6950  139.8210 N   0  0  0  0  0  2  0  0  0  0  0  0
  179.3080  175.9080  140.6220 C   0  0  0  0  0  2  0  0  0  0  0  0
  179.5430  175.9220  139.1310 C   0  0  2  0  0  3  0  0  0  0  0  0
  179.3290  174.4470  141.0000 C   0  0  0  0  0  2  0  0  0  0  0  0
  179.3840  174.4820  138.6830 C   0  0  0  0  0  2  0  0  0  0  0  0
  1 26  1  0  0  0  0
  3 16  1  0  0  0  0
  4 23  1  1  0  0  0
  5 19  1  6  0  0  0
  5 15  1  0  0  0  0
  6  7  1  0  0  0  0
  6 19  1  0  0  0  0
  7  3  1  0  0  0  0
  8 12  1  0  0  0  0
  9 27  1  1  0  0  0
 10 22  1  0  0  0  0
 10 17  1  0  0  0  0
 11  5  1  0  0  0  0
 13 24  1  6  0  0  0
 13  9  1  0  0  0  0
 13 20  1  0  0  0  0
 14  2  1  0  0  0  0
 15  4  1  0  0  0  0
 15 12  1  1  0  0  0
 16  8  1  0  0  0  0
 17 28  1  1  0  0  0
 17 25  1  0  0  0  0
 18  1  2  0  0  0  0
 18  4  1  0  0  0  0
 20 11  1  1  0  0  0
 20 18  1  0  0  0  0
 22 24  1  0  0  0  0
 23 21  1  0  0  0  0
 25  9  1  0  0  0  0
 25 14  1  1  0  0  0
 26 21  1  0  0  0  0
 27  2  1  0  0  0  0
 27  1  1  0  0  0  0
 29 28  1  0  0  0  0
 30 33  1  0  0  0  0
 31 33  1  0  0  0  0
 32 29  1  1  0  0  0
 32 31  1  0  0  0  0
 34 32  1  0  0  0  0
 34 30  1  0  0  0  0
M  END
>  <MODEL>
2

>  <REMARK>
 VINA RESULT:      -9.4      2.884      3.840
  Name = 
  3 active torsions:
  status: ('A' for Active; 'I' for Inactive)
    1  A    between atoms: C_17  and  C_28
    2  A    between atoms: C_28  and  C_29
    3  A    between atoms: C_29  and  C_32
                            x       y       z     vdW  Elec       q    Type
                         _______ _______ _______ _____ _____    ______ ____

>  <TORSDO>
F 3

$$$$
=
 OpenBabel11122412163D

 34 40  0  0  1  0  0  0  0  0999 V2000
  185.1890  178.4990  142.6390 C   0  0  0  0  0  0  0  0  0  0  0  0
  183.7390  179.1980  140.6650 C   0  0  0  0  0  2  0  0  0  0  0  0
  191.3680  177.3430  145.7320 O   0  0  0  0  0  0  0  0  0  0  0  0
  186.8530  178.3800  144.5020 C   0  0  1  0  0  3  0  0  0  0  0  0
  189.2090  177.6670  143.8830 N   0  0  1  0  0  0  0  0  0  0  0  0
  191.2210  176.3070  143.5770 C   0  0  0  0  0  2  0  0  0  0  0  0
  191.7180  176.1960  145.0120 C   0  0  0  0  0  2  0  0  0  0  0  0
  189.3260  176.5640  146.7750 C   0  0  0  0  0  2  0  0  0  0  0  0
  185.8910  178.1980  140.2320 C   0  0  2  0  0  3  0  0  0  0  0  0
  187.2650  178.0000  137.4480 C   0  0  0  0  0  2  0  0  0  0  0  0
  188.8940  178.3900  142.6390 C   0  0  0  0  0  2  0  0  0  0  0  0
  188.5520  177.7610  146.2480 C   0  0  0  0  0  2  0  0  0  0  0  0
  187.2830  178.6330  140.6940 C   0  0  1  0  0  3  0  0  0  0  0  0
  183.9780  179.2340  139.1610 C   0  0  0  0  0  2  0  0  0  0  0  0
  188.0750  177.4960  144.8200 C   0  0  1  0  0  3  0  0  0  0  0  0
  190.8110  176.8830  146.9330 C   0  0  0  0  0  2  0  0  0  0  0  0
  185.7570  178.0930  137.7110 C   0  0  2  0  0  3  0  0  0  0  0  0
  186.4580  178.2560  143.0480 C   0  0  0  0  0  0  0  0  0  0  0  0
  189.6980  176.3420  143.5190 C   0  0  0  0  0  2  0  0  0  0  0  0
  187.5510  177.9590  142.0450 C   0  0  2  0  0  3  0  0  0  0  0  0
  184.5200  178.9760  145.0460 C   0  0  0  0  0  2  0  0  0  0  0  0
  188.0440  177.3270  138.5810 C   0  0  0  0  0  2  0  0  0  0  0  0
  185.6770  178.0650  145.4220 C   0  0  0  0  0  2  0  0  0  0  0  0
  188.3990  178.3390  139.6700 C   0  0  0  0  0  2  0  0  0  0  0  0
  185.4580  178.9200  138.9720 C   0  0  2  0  0  3  0  0  0  0  0  0
  184.0560  178.6660  143.6260 C   0  0  0  0  0  2  0  0  0  0  0  0
  184.8990  178.5340  141.2310 N   0  0  0  0  0  0  0  0  0  0  0  0
  185.1310  176.6990  137.7270 C   0  0  0  0  0  2  0  0  0  0  0  0
  184.0170  176.6040  136.6990 C   0  0  0  0  0  2  0  0  0  0  0  0
  181.8310  176.0710  139.4000 N   0  0  0  0  0  2  0  0  0  0  0  0
  181.5580  176.5070  137.0730 C   0  0  0  0  0  2  0  0  0  0  0  0
  182.8670  175.7750  137.2440 C   0  0  2  0  0  3  0  0  0  0  0  0
  181.2000  176.9830  138.4600 C   0  0  0  0  0  2  0  0  0  0  0  0
  183.0420  175.6030  138.7400 C   0  0  0  0  0  2  0  0  0  0  0  0
  1 18  2  0  0  0  0
  1 26  1  0  0  0  0
  2 27  1  0  0  0  0
  3 16  1  0  0  0  0
  4 15  1  0  0  0  0
  4 23  1  1  0  0  0
  5 11  1  6  0  0  0
  5 15  1  0  0  0  0
  6  7  1  0  0  0  0
  7  3  1  0  0  0  0
  8 16  1  0  0  0  0
  9 13  1  0  0  0  0
  9 27  1  1  0  0  0
 10 17  1  0  0  0  0
 10 22  1  0  0  0  0
 12  8  1  0  0  0  0
 13 24  1  6  0  0  0
 13 20  1  0  0  0  0
 14  2  1  0  0  0  0
 15 12  1  1  0  0  0
 17 28  1  1  0  0  0
 17 25  1  0  0  0  0
 18  4  1  0  0  0  0
 19  6  1  0  0  0  0
 19  5  1  0  0  0  0
 20 11  1  1  0  0  0
 20 18  1  0  0  0  0
 21 23  1  0  0  0  0
 22 24  1  0  0  0  0
 25 14  1  1  0  0  0
 25  9  1  0  0  0  0
 26 21  1  0  0  0  0
 27  1  1  0  0  0  0
 29 28  1  0  0  0  0
 31 32  1  0  0  0  0
 31 33  1  0  0  0  0
 32 29  1  1  0  0  0
 32 34  1  0  0  0  0
 33 30  1  0  0  0  0
 34 30  1  0  0  0  0
M  END
>  <MODEL>
3

>  <REMARK>
 VINA RESULT:      -9.3      1.357      1.709
  Name = 
  3 active torsions:
  status: ('A' for Active; 'I' for Inactive)
    1  A    between atoms: C_17  and  C_28
    2  A    between atoms: C_28  and  C_29
    3  A    between atoms: C_29  and  C_32
                            x       y       z     vdW  Elec       q    Type
                         _______ _______ _______ _____ _____    ______ ____

>  <TORSDO>
F 3

$$$$
=
 OpenBabel11122412163D

 34 40  0  0  1  0  0  0  0  0999 V2000
  184.4910  178.3900  144.2230 C   0  0  0  0  0  0  0  0  0  0  0  0
  182.0930  179.0030  143.6220 C   0  0  0  0  0  2  0  0  0  0  0  0
  191.3460  177.9530  142.8410 O   0  0  0  0  0  0  0  0  0  0  0  0
  186.9470  178.3880  144.6950 C   0  0  1  0  0  3  0  0  0  0  0  0
  188.4900  178.0820  142.7040 N   0  0  1  0  0  0  0  0  0  0  0  0
  190.0010  177.0620  141.0700 C   0  0  0  0  0  2  0  0  0  0  0  0
  191.2740  176.9250  141.8960 C   0  0  0  0  0  2  0  0  0  0  0  0
  190.4210  176.8060  144.7630 C   0  0  0  0  0  2  0  0  0  0  0  0
  183.6100  178.3700  141.8560 C   0  0  2  0  0  3  0  0  0  0  0  0
  183.0250  178.5760  138.8090 C   0  0  0  0  0  2  0  0  0  0  0  0
  187.4320  178.8360  142.0120 C   0  0  0  0  0  2  0  0  0  0  0  0
  189.3970  177.9080  144.9810 C   0  0  0  0  0  2  0  0  0  0  0  0
  184.9590  178.9730  141.4620 C   0  0  1  0  0  3  0  0  0  0  0  0
  181.3680  179.1820  142.2940 C   0  0  0  0  0  2  0  0  0  0  0  0
  188.1750  177.6770  144.0930 C   0  0  1  0  0  3  0  0  0  0  0  0
  191.6670  177.3300  144.0560 C   0  0  0  0  0  2  0  0  0  0  0  0
  181.9840  178.4250  139.9240 C   0  0  2  0  0  3  0  0  0  0  0  0
  185.7620  178.3110  143.7600 C   0  0  0  0  0  0  0  0  0  0  0  0
  188.7580  176.8740  141.9310 C   0  0  0  0  0  2  0  0  0  0  0  0
  186.0420  178.2520  142.2730 C   0  0  2  0  0  3  0  0  0  0  0  0
  185.3850  178.5900  146.5960 C   0  0  0  0  0  2  0  0  0  0  0  0
  184.3800  177.9480  139.1450 C   0  0  0  0  0  2  0  0  0  0  0  0
  186.5980  177.8370  146.0750 C   0  0  0  0  0  2  0  0  0  0  0  0
  185.2440  178.9230  139.9460 C   0  0  0  0  0  2  0  0  0  0  0  0
  182.4490  179.1060  141.2210 C   0  0  2  0  0  3  0  0  0  0  0  0
  184.1800  178.3160  145.7010 C   0  0  0  0  0  2  0  0  0  0  0  0
  183.4050  178.4820  143.2850 N   0  0  0  0  0  0  0  0  0  0  0  0
  181.6030  176.9550  140.1030 C   0  0  0  0  0  2  0  0  0  0  0  0
  180.5350  176.5560  139.1010 C   0  0  0  0  0  2  0  0  0  0  0  0
  180.8340  174.5280  136.2440 N   0  0  0  0  0  2  0  0  0  0  0  0
  182.2360  175.0370  138.1030 C   0  0  0  0  0  2  0  0  0  0  0  0
  180.8060  175.1590  138.5710 C   0  0  2  0  0  3  0  0  0  0  0  0
  182.1490  175.0380  136.5960 C   0  0  0  0  0  2  0  0  0  0  0  0
  179.9560  174.9190  137.3380 C   0  0  0  0  0  2  0  0  0  0  0  0
  1 26  1  0  0  0  0
  3 16  1  0  0  0  0
  4 23  1  1  0  0  0
  5 19  1  6  0  0  0
  5 15  1  0  0  0  0
  6  7  1  0  0  0  0
  6 19  1  0  0  0  0
  7  3  1  0  0  0  0
  8 12  1  0  0  0  0
  9 27  1  1  0  0  0
 10 22  1  0  0  0  0
 10 17  1  0  0  0  0
 11  5  1  0  0  0  0
 13 24  1  6  0  0  0
 13  9  1  0  0  0  0
 13 20  1  0  0  0  0
 14  2  1  0  0  0  0
 15  4  1  0  0  0  0
 15 12  1  1  0  0  0
 16  8  1  0  0  0  0
 17 28  1  1  0  0  0
 17 25  1  0  0  0  0
 18  1  2  0  0  0  0
 18  4  1  0  0  0  0
 20 11  1  1  0  0  0
 20 18  1  0  0  0  0
 22 24  1  0  0  0  0
 23 21  1  0  0  0  0
 25  9  1  0  0  0  0
 25 14  1  1  0  0  0
 26 21  1  0  0  0  0
 27  2  1  0  0  0  0
 27  1  1  0  0  0  0
 29 28  1  0  0  0  0
 30 33  1  0  0  0  0
 30 34  1  0  0  0  0
 31 32  1  0  0  0  0
 32 29  1  6  0  0  0
 33 31  1  0  0  0  0
 34 32  1  0  0  0  0
M  END
>  <MODEL>
4

>  <REMARK>
 VINA RESULT:      -9.2      2.349      3.365
  Name = 
  3 active torsions:
  status: ('A' for Active; 'I' for Inactive)
    1  A    between atoms: C_17  and  C_28
    2  A    between atoms: C_28  and  C_29
    3  A    between atoms: C_29  and  C_32
                            x       y       z     vdW  Elec       q    Type
                         _______ _______ _______ _____ _____    ______ ____

>  <TORSDO>
F 3

$$$$
=
 OpenBabel11122412163D

 34 40  0  0  1  0  0  0  0  0999 V2000
  185.0190  178.3270  143.7370 C   0  0  0  0  0  0  0  0  0  0  0  0
  183.2230  179.0590  142.0860 C   0  0  0  0  0  2  0  0  0  0  0  0
  191.6810  177.3340  145.6630 O   0  0  0  0  0  0  0  0  0  0  0  0
  186.9800  178.1900  145.2810 C   0  0  1  0  0  3  0  0  0  0  0  0
  189.2250  177.6470  144.2290 N   0  0  1  0  0  0  0  0  0  0  0  0
  191.2140  176.4220  143.4980 C   0  0  0  0  0  2  0  0  0  0  0  0
  191.9540  176.2530  144.8190 C   0  0  0  0  0  2  0  0  0  0  0  0
  189.8840  176.3830  146.9790 C   0  0  0  0  0  2  0  0  0  0  0  0
  185.3110  178.2090  141.2310 C   0  0  2  0  0  3  0  0  0  0  0  0
  186.1960  178.2520  138.2500 C   0  0  0  0  0  2  0  0  0  0  0  0
  188.6700  178.4240  143.1080 C   0  0  0  0  0  2  0  0  0  0  0  0
  188.9790  177.5640  146.6720 C   0  0  0  0  0  2  0  0  0  0  0  0
  186.7410  178.6910  141.4820 C   0  0  1  0  0  3  0  0  0  0  0  0
  183.1990  179.1990  140.5700 C   0  0  0  0  0  2  0  0  0  0  0  0
  188.2770  177.3580  145.3290 C   0  0  1  0  0  3  0  0  0  0  0  0
  191.3580  176.7740  146.9070 C   0  0  0  0  0  2  0  0  0  0  0  0
  184.7530  178.2460  138.7670 C   0  0  2  0  0  3  0  0  0  0  0  0
  186.3490  178.1310  143.9100 C   0  0  0  0  0  0  0  0  0  0  0  0
  189.7030  176.3750  143.6990 C   0  0  0  0  0  2  0  0  0  0  0  0
  187.2660  177.9550  142.7190 C   0  0  2  0  0  3  0  0  0  0  0  0
  184.7510  178.6220  146.2490 C   0  0  0  0  0  2  0  0  0  0  0  0
  187.1870  177.5570  139.1870 C   0  0  0  0  0  2  0  0  0  0  0  0
  185.9940  177.7560  146.3630 C   0  0  0  0  0  2  0  0  0  0  0  0
  187.6770  178.5220  140.2680 C   0  0  0  0  0  2  0  0  0  0  0  0
  184.6380  178.9780  140.1130 C   0  0  2  0  0  3  0  0  0  0  0  0
  184.0650  178.3720  144.9090 C   0  0  0  0  0  2  0  0  0  0  0  0
  184.4910  178.4290  142.4040 N   0  0  0  0  0  0  0  0  0  0  0  0
  184.2010  176.8200  138.7940 C   0  0  0  0  0  2  0  0  0  0  0  0
  182.8740  176.7500  138.0590 C   0  0  0  0  0  2  0  0  0  0  0  0
  181.6160  177.6140  134.8920 N   0  0  0  0  0  2  0  0  0  0  0  0
  181.5290  178.5930  137.0640 C   0  0  0  0  0  2  0  0  0  0  0  0
  182.8160  177.8100  136.9730 C   0  0  2  0  0  3  0  0  0  0  0  0
  180.6950  178.0940  135.9090 C   0  0  0  0  0  2  0  0  0  0  0  0
  182.7840  177.1340  135.6170 C   0  0  0  0  0  2  0  0  0  0  0  0
  1 18  2  0  0  0  0
  1 26  1  0  0  0  0
  2 27  1  0  0  0  0
  3 16  1  0  0  0  0
  4 15  1  0  0  0  0
  4 23  1  1  0  0  0
  5 11  1  6  0  0  0
  5 15  1  0  0  0  0
  6 19  1  0  0  0  0
  6  7  1  0  0  0  0
  7  3  1  0  0  0  0
  9 13  1  0  0  0  0
  9 27  1  1  0  0  0
 10 17  1  0  0  0  0
 10 22  1  0  0  0  0
 12  8  1  0  0  0  0
 13 24  1  6  0  0  0
 13 20  1  0  0  0  0
 14  2  1  0  0  0  0
 15 12  1  1  0  0  0
 16  8  1  0  0  0  0
 17 28  1  1  0  0  0
 17 25  1  0  0  0  0
 18  4  1  0  0  0  0
 19  5  1  0  0  0  0
 20 11  1  1  0  0  0
 20 18  1  0  0  0  0
 21 23  1  0  0  0  0
 22 24  1  0  0  0  0
 25 14  1  1  0  0  0
 25  9  1  0  0  0  0
 26 21  1  0  0  0  0
 27  1  1  0  0  0  0
 29 28  1  0  0  0  0
 30 34  1  0  0  0  0
 30 33  1  0  0  0  0
 32 31  1  0  0  0  0
 32 29  1  1  0  0  0
 33 31  1  0  0  0  0
 34 32  1  0  0  0  0
M  END
>  <MODEL>
5

>  <REMARK>
 VINA RESULT:      -8.4      2.005      2.490
  Name = 
  3 active torsions:
  status: ('A' for Active; 'I' for Inactive)
    1  A    between atoms: C_17  and  C_28
    2  A    between atoms: C_28  and  C_29
    3  A    between atoms: C_29  and  C_32
                            x       y       z     vdW  Elec       q    Type
                         _______ _______ _______ _____ _____    ______ ____

>  <TORSDO>
F 3

$$$$
=
 OpenBabel11122412163D

 34 40  0  0  1  0  0  0  0  0999 V2000
  182.9880  178.6100  141.7000 C   0  0  0  0  0  0  0  0  0  0  0  0
  181.6000  178.9590  139.5940 C   0  0  0  0  0  2  0  0  0  0  0  0
  189.0640  178.2070  145.1650 O   0  0  0  0  0  0  0  0  0  0  0  0
  184.5680  178.8310  143.6260 C   0  0  1  0  0  3  0  0  0  0  0  0
  186.9800  178.1660  143.2050 N   0  0  1  0  0  0  0  0  0  0  0  0
  189.0650  176.8840  143.1680 C   0  0  0  0  0  2  0  0  0  0  0  0
  189.5000  176.9940  144.6240 C   0  0  0  0  0  2  0  0  0  0  0  0
  187.0140  177.4710  146.2230 C   0  0  0  0  0  2  0  0  0  0  0  0
  183.8140  178.0250  139.3870 C   0  0  2  0  0  3  0  0  0  0  0  0
  185.3230  177.5250  136.7130 C   0  0  0  0  0  2  0  0  0  0  0  0
  186.6900  178.6970  141.8620 C   0  0  0  0  0  2  0  0  0  0  0  0
  186.2100  178.5440  145.5070 C   0  0  0  0  0  2  0  0  0  0  0  0
  185.1610  178.5900  139.8400 C   0  0  1  0  0  3  0  0  0  0  0  0
  181.9070  178.8060  138.1100 C   0  0  0  0  0  2  0  0  0  0  0  0
  185.8140  178.0630  144.1110 C   0  0  1  0  0  3  0  0  0  0  0  0
  188.4730  177.8850  146.3950 C   0  0  0  0  0  2  0  0  0  0  0  0
  183.8020  177.5740  136.9010 C   0  0  2  0  0  3  0  0  0  0  0  0
  184.2470  178.4920  142.1890 C   0  0  0  0  0  0  0  0  0  0  0  0
  187.5470  176.8310  143.0460 C   0  0  0  0  0  2  0  0  0  0  0  0
  185.3980  178.1200  141.2800 C   0  0  2  0  0  3  0  0  0  0  0  0
  182.1870  179.3720  143.9910 C   0  0  0  0  0  2  0  0  0  0  0  0
  186.0800  177.0520  137.9580 C   0  0  0  0  0  2  0  0  0  0  0  0
  183.3660  178.5820  144.5340 C   0  0  0  0  0  2  0  0  0  0  0  0
  186.3360  178.2200  138.9110 C   0  0  0  0  0  2  0  0  0  0  0  0
  183.4070  178.5460  138.0240 C   0  0  2  0  0  3  0  0  0  0  0  0
  181.8040  178.8500  142.6100 C   0  0  0  0  0  2  0  0  0  0  0  0
  182.7620  178.4400  140.2910 N   0  0  0  0  0  0  0  0  0  0  0  0
  183.2410  176.1630  137.0830 C   0  0  0  0  0  2  0  0  0  0  0  0
  183.5830  175.2960  135.8840 C   0  0  0  0  0  2  0  0  0  0  0  0
  185.7910  172.5760  136.1790 N   0  0  0  0  0  2  0  0  0  0  0  0
  184.3770  173.7680  137.6820 C   0  0  0  0  0  2  0  0  0  0  0  0
  183.7480  173.8480  136.3120 C   0  0  2  0  0  3  0  0  0  0  0  0
  185.7960  173.3200  137.4270 C   0  0  0  0  0  2  0  0  0  0  0  0
  184.7240  173.1600  135.3780 C   0  0  0  0  0  2  0  0  0  0  0  0
  1 18  2  0  0  0  0
  1 26  1  0  0  0  0
  2 27  1  0  0  0  0
  3 16  1  0  0  0  0
  4 15  1  0  0  0  0
  4 23  1  1  0  0  0
  5 11  1  6  0  0  0
  5 15  1  0  0  0  0
  6  7  1  0  0  0  0
  7  3  1  0  0  0  0
  8 16  1  0  0  0  0
  9 13  1  0  0  0  0
  9 27  1  1  0  0  0
 10 17  1  0  0  0  0
 10 22  1  0  0  0  0
 12  8  1  0  0  0  0
 13 24  1  6  0  0  0
 13 20  1  0  0  0  0
 14  2  1  0  0  0  0
 15 12  1  1  0  0  0
 17 28  1  1  0  0  0
 17 25  1  0  0  0  0
 18  4  1  0  0  0  0
 19  6  1  0  0  0  0
 19  5  1  0  0  0  0
 20 11  1  1  0  0  0
 20 18  1  0  0  0  0
 21 23  1  0  0  0  0
 22 24  1  0  0  0  0
 25 14  1  1  0  0  0
 25  9  1  0  0  0  0
 26 21  1  0  0  0  0
 27  1  1  0  0  0  0
 29 28  1  0  0  0  0
 30 33  1  0  0  0  0
 32 29  1  6  0  0  0
 32 31  1  0  0  0  0
 33 31  1  0  0  0  0
 34 30  1  0  0  0  0
 34 32  1  0  0  0  0
M  END
>  <MODEL>
6

>  <REMARK>
 VINA RESULT:      -8.4      1.573      2.310
  Name = 
  3 active torsions:
  status: ('A' for Active; 'I' for Inactive)
    1  A    between atoms: C_17  and  C_28
    2  A    between atoms: C_28  and  C_29
    3  A    between atoms: C_29  and  C_32
                            x       y       z     vdW  Elec       q    Type
                         _______ _______ _______ _____ _____    ______ ____

>  <TORSDO>
F 3

$$$$
=
 OpenBabel11122412163D

 34 40  0  0  1  0  0  0  0  0999 V2000
  186.0490  178.1970  141.0810 C   0  0  0  0  0  0  0  0  0  0  0  0
  185.3090  178.6330  138.6830 C   0  0  0  0  0  2  0  0  0  0  0  0
  190.9090  177.5870  146.0900 O   0  0  0  0  0  0  0  0  0  0  0  0
  187.0280  178.3330  143.3780 C   0  0  1  0  0  3  0  0  0  0  0  0
  189.4560  177.6400  143.6250 N   0  0  1  0  0  0  0  0  0  0  0  0
  191.4580  176.3240  144.1300 C   0  0  0  0  0  2  0  0  0  0  0  0
  191.4690  176.3820  145.6520 C   0  0  0  0  0  2  0  0  0  0  0  0
  188.6390  176.8540  146.5080 C   0  0  0  0  0  2  0  0  0  0  0  0
  187.4850  177.6670  139.0720 C   0  0  2  0  0  3  0  0  0  0  0  0
  189.6780  177.2200  136.9120 C   0  0  0  0  0  2  0  0  0  0  0  0
  189.5580  178.2150  142.2730 C   0  0  0  0  0  2  0  0  0  0  0  0
  188.0760  177.9620  145.6320 C   0  0  0  0  0  2  0  0  0  0  0  0
  188.6550  178.1950  139.9030 C   0  0  1  0  0  3  0  0  0  0  0  0
  186.0180  178.5180  137.3400 C   0  0  0  0  0  2  0  0  0  0  0  0
  188.0820  177.5300  144.1650 C   0  0  1  0  0  3  0  0  0  0  0  0
  189.9950  177.2390  147.0940 C   0  0  0  0  0  2  0  0  0  0  0  0
  188.1660  177.2900  136.6680 C   0  0  2  0  0  3  0  0  0  0  0  0
  187.1190  178.0430  141.8970 C   0  0  0  0  0  0  0  0  0  0  0  0
  190.0340  176.3010  143.5860 C   0  0  0  0  0  2  0  0  0  0  0  0
  188.4760  177.6780  141.3340 C   0  0  2  0  0  3  0  0  0  0  0  0
  184.6450  178.9050  143.0800 C   0  0  0  0  0  2  0  0  0  0  0  0
  190.0520  176.6980  138.3020 C   0  0  0  0  0  2  0  0  0  0  0  0
  185.6180  178.0780  143.9050 C   0  0  0  0  0  2  0  0  0  0  0  0
  190.0400  177.8330  139.3270 C   0  0  0  0  0  2  0  0  0  0  0  0
  187.4800  178.2350  137.6680 C   0  0  2  0  0  3  0  0  0  0  0  0
  184.6600  178.4300  141.6300 C   0  0  0  0  0  2  0  0  0  0  0  0
  186.2250  178.0730  139.6600 N   0  0  0  0  0  0  0  0  0  0  0  0
  187.5640  175.8850  136.6390 C   0  0  0  0  0  2  0  0  0  0  0  0
  187.5510  175.3410  135.2210 C   0  0  0  0  0  2  0  0  0  0  0  0
  187.7850  172.2300  136.8420 N   0  0  0  0  0  2  0  0  0  0  0  0
  187.1410  172.9500  134.6630 C   0  0  0  0  0  2  0  0  0  0  0  0
  188.1480  173.9450  135.1870 C   0  0  2  0  0  3  0  0  0  0  0  0
  186.6960  172.1770  135.8800 C   0  0  0  0  0  2  0  0  0  0  0  0
  188.4570  173.5000  136.6030 C   0  0  0  0  0  2  0  0  0  0  0  0
  1 26  1  0  0  0  0
  1 18  2  0  0  0  0
  2 27  1  0  0  0  0
  3 16  1  0  0  0  0
  4 23  1  1  0  0  0
  4 15  1  0  0  0  0
  5 11  1  6  0  0  0
  5 15  1  0  0  0  0
  6  7  1  0  0  0  0
  7  3  1  0  0  0  0
  8 16  1  0  0  0  0
  9 27  1  1  0  0  0
  9 13  1  0  0  0  0
 10 22  1  0  0  0  0
 12  8  1  0  0  0  0
 13 24  1  6  0  0  0
 13 20  1  0  0  0  0
 14  2  1  0  0  0  0
 15 12  1  1  0  0  0
 17 28  1  1  0  0  0
 17 10  1  0  0  0  0
 17 25  1  0  0  0  0
 18  4  1  0  0  0  0
 19  5  1  0  0  0  0
 19  6  1  0  0  0  0
 20 18  1  0  0  0  0
 20 11  1  1  0  0  0
 21 23  1  0  0  0  0
 22 24  1  0  0  0  0
 25 14  1  6  0  0  0
 25  9  1  0  0  0  0
 26 21  1  0  0  0  0
 27  1  1  0  0  0  0
 29 28  1  0  0  0  0
 31 32  1  0  0  0  0
 31 33  1  0  0  0  0
 32 29  1  1  0  0  0
 32 34  1  0  0  0  0
 33 30  1  0  0  0  0
 34 30  1  0  0  0  0
M  END
>  <MODEL>
7

>  <REMARK>
 VINA RESULT:      -8.2      1.420      1.827
  Name = 
  3 active torsions:
  status: ('A' for Active; 'I' for Inactive)
    1  A    between atoms: C_17  and  C_28
    2  A    between atoms: C_28  and  C_29
    3  A    between atoms: C_29  and  C_32
                            x       y       z     vdW  Elec       q    Type
                         _______ _______ _______ _____ _____    ______ ____

>  <TORSDO>
F 3

$$$$
=
 OpenBabel11122412163D

 34 40  0  0  1  0  0  0  0  0999 V2000
  183.1940  178.6510  142.0860 C   0  0  0  0  0  0  0  0  0  0  0  0
  181.5750  179.0730  140.1660 C   0  0  0  0  0  2  0  0  0  0  0  0
  189.6270  178.0530  144.7970 O   0  0  0  0  0  0  0  0  0  0  0  0
  184.9950  178.7980  143.8150 C   0  0  1  0  0  3  0  0  0  0  0  0
  187.3250  178.0950  143.0970 N   0  0  1  0  0  0  0  0  0  0  0  0
  189.3620  176.7730  142.7890 C   0  0  0  0  0  2  0  0  0  0  0  0
  189.9690  176.8420  144.1850 C   0  0  0  0  0  2  0  0  0  0  0  0
  187.7000  177.3340  146.0770 C   0  0  0  0  0  2  0  0  0  0  0  0
  183.7270  178.0990  139.6800 C   0  0  2  0  0  3  0  0  0  0  0  0
  184.8980  177.6270  136.8380 C   0  0  0  0  0  2  0  0  0  0  0  0
  186.8900  178.6600  141.8090 C   0  0  0  0  0  2  0  0  0  0  0  0
  186.8410  178.4380  145.4810 C   0  0  0  0  0  2  0  0  0  0  0  0
  185.1310  178.6280  139.9820 C   0  0  1  0  0  3  0  0  0  0  0  0
  181.7000  178.9450  138.6540 C   0  0  0  0  0  2  0  0  0  0  0  0
  186.2720  177.9960  144.1340 C   0  0  1  0  0  3  0  0  0  0  0  0
  189.1780  177.7160  146.0820 C   0  0  0  0  0  2  0  0  0  0  0  0
  183.4110  177.7020  137.2050 C   0  0  2  0  0  3  0  0  0  0  0  0
  184.4980  178.4970  142.4200 C   0  0  0  0  0  0  0  0  0  0  0  0
  187.8390  176.7530  142.8470 C   0  0  0  0  0  2  0  0  0  0  0  0
  185.5250  178.1220  141.3730 C   0  0  2  0  0  3  0  0  0  0  0  0
  182.6870  179.3790  144.4700 C   0  0  0  0  0  2  0  0  0  0  0  0
  185.7860  177.1130  137.9740 C   0  0  0  0  0  2  0  0  0  0  0  0
  183.9040  178.5540  144.8540 C   0  0  0  0  0  2  0  0  0  0  0  0
  186.1790  178.2550  138.9120 C   0  0  0  0  0  2  0  0  0  0  0  0
  183.1740  178.6570  138.3850 C   0  0  2  0  0  3  0  0  0  0  0  0
  182.1310  178.8940  143.1340 C   0  0  0  0  0  2  0  0  0  0  0  0
  182.7990  178.5160  140.7110 N   0  0  0  0  0  0  0  0  0  0  0  0
  182.8450  176.3000  137.4260 C   0  0  0  0  0  2  0  0  0  0  0  0
  181.5660  176.1110  136.6290 C   0  0  0  0  0  2  0  0  0  0  0  0
  179.9170  175.6920  139.7060 N   0  0  0  0  0  2  0  0  0  0  0  0
  179.2180  175.9550  137.4420 C   0  0  0  0  0  2  0  0  0  0  0  0
  180.5690  175.2830  137.4210 C   0  0  2  0  0  3  0  0  0  0  0  0
  179.0890  176.5130  138.8380 C   0  0  0  0  0  2  0  0  0  0  0  0
  181.0130  175.2210  138.8700 C   0  0  0  0  0  2  0  0  0  0  0  0
  1 18  2  0  0  0  0
  1 26  1  0  0  0  0
  2 27  1  0  0  0  0
  3 16  1  0  0  0  0
  4 15  1  0  0  0  0
  4 23  1  1  0  0  0
  5 11  1  6  0  0  0
  5 15  1  0  0  0  0
  6 19  1  0  0  0  0
  6  7  1  0  0  0  0
  7  3  1  0  0  0  0
  8 16  1  0  0  0  0
  9 13  1  0  0  0  0
  9 27  1  1  0  0  0
 10 17  1  0  0  0  0
 10 22  1  0  0  0  0
 12  8  1  0  0  0  0
 13 24  1  6  0  0  0
 13 20  1  0  0  0  0
 14  2  1  0  0  0  0
 15 12  1  1  0  0  0
 17 28  1  1  0  0  0
 17 25  1  0  0  0  0
 18  4  1  0  0  0  0
 19  5  1  0  0  0  0
 20 11  1  1  0  0  0
 20 18  1  0  0  0  0
 21 23  1  0  0  0  0
 22 24  1  0  0  0  0
 25 14  1  1  0  0  0
 25  9  1  0  0  0  0
 26 21  1  0  0  0  0
 27  1  1  0  0  0  0
 29 28  1  0  0  0  0
 31 33  1  0  0  0  0
 32 29  1  6  0  0  0
 32 31  1  0  0  0  0
 32 34  1  0  0  0  0
 33 30  1  0  0  0  0
 34 30  1  0  0  0  0
M  END
>  <MODEL>
8

>  <REMARK>
 VINA RESULT:      -8.1      2.518      3.114
  Name = 
  3 active torsions:
  status: ('A' for Active; 'I' for Inactive)
    1  A    between atoms: C_17  and  C_28
    2  A    between atoms: C_28  and  C_29
    3  A    between atoms: C_29  and  C_32
                            x       y       z     vdW  Elec       q    Type
                         _______ _______ _______ _____ _____    ______ ____

>  <TORSDO>
F 3

$$$$
=
 OpenBabel11122412163D

 34 40  0  0  1  0  0  0  0  0999 V2000
  186.8430  178.2500  140.2000 C   0  0  0  0  0  0  0  0  0  0  0  0
  185.5700  178.2650  137.9940 C   0  0  0  0  0  2  0  0  0  0  0  0
  187.2930  177.3240  147.1290 O   0  0  0  0  0  0  0  0  0  0  0  0
  187.8970  177.6480  142.3850 C   0  0  1  0  0  3  0  0  0  0  0  0
  186.4360  177.8500  144.4500 N   0  0  1  0  0  0  0  0  0  0  0  0
  185.4340  178.7040  146.5140 C   0  0  0  0  0  2  0  0  0  0  0  0
  186.5590  178.4520  147.5100 C   0  0  0  0  0  2  0  0  0  0  0  0
  189.1020  178.3990  145.9300 C   0  0  0  0  0  2  0  0  0  0  0  0
  184.3750  178.7610  140.0300 C   0  0  2  0  0  3  0  0  0  0  0  0
  181.2910  179.0700  140.2870 C   0  0  0  0  0  2  0  0  0  0  0  0
  185.3810  177.4420  143.5070 C   0  0  0  0  0  2  0  0  0  0  0  0
  188.8590  177.5330  144.7040 C   0  0  0  0  0  2  0  0  0  0  0  0
  184.2240  177.9270  141.3030 C   0  0  1  0  0  3  0  0  0  0  0  0
  184.0950  178.4180  137.6460 C   0  0  0  0  0  2  0  0  0  0  0  0
  187.7540  178.1390  143.8390 C   0  0  1  0  0  3  0  0  0  0  0  0
  188.6410  177.7030  147.2080 C   0  0  0  0  0  2  0  0  0  0  0  0
  182.1240  179.3090  139.0220 C   0  0  2  0  0  3  0  0  0  0  0  0
  186.7290  178.1030  141.5420 C   0  0  0  0  0  0  0  0  0  0  0  0
  185.9830  179.0550  145.1360 C   0  0  0  0  0  2  0  0  0  0  0  0
  185.3920  178.2820  142.2290 C   0  0  2  0  0  3  0  0  0  0  0  0
  189.2870  177.5630  140.3470 C   0  0  0  0  0  2  0  0  0  0  0  0
  182.0580  179.3340  141.5860 C   0  0  0  0  0  2  0  0  0  0  0  0
  189.2240  178.0870  141.7720 C   0  0  0  0  0  2  0  0  0  0  0  0
  182.8590  178.1010  142.0020 C   0  0  0  0  0  2  0  0  0  0  0  0
  183.3520  178.3860  138.9770 C   0  0  2  0  0  3  0  0  0  0  0  0
  188.1870  178.2070  139.5080 C   0  0  0  0  0  2  0  0  0  0  0  0
  185.6660  178.5200  139.4190 N   0  0  0  0  0  0  0  0  0  0  0  0
  182.4640  180.7920  138.8800 C   0  0  0  0  0  2  0  0  0  0  0  0
  181.1960  181.6220  138.7840 C   0  0  0  0  0  2  0  0  0  0  0  0
  179.2150  183.5590  136.6200 N   0  0  0  0  0  2  0  0  0  0  0  0
  181.4420  183.7130  137.4560 C   0  0  0  0  0  2  0  0  0  0  0  0
  181.0800  182.2490  137.4060 C   0  0  2  0  0  3  0  0  0  0  0  0
  180.1240  184.4390  137.3360 C   0  0  0  0  0  2  0  0  0  0  0  0
  179.6320  182.2050  136.9590 C   0  0  0  0  0  2  0  0  0  0  0  0
  1 18  2  0  0  0  0
  2 27  1  0  0  0  0
  3 16  1  0  0  0  0
  3  7  1  0  0  0  0
  4 23  1  6  0  0  0
  4 15  1  0  0  0  0
  5 11  1  6  0  0  0
  5 19  1  0  0  0  0
  6  7  1  0  0  0  0
  8 16  1  0  0  0  0
  9 27  1  6  0  0  0
  9 13  1  0  0  0  0
 10 22  1  0  0  0  0
 12  8  1  0  0  0  0
 13 24  1  1  0  0  0
 13 20  1  0  0  0  0
 14  2  1  0  0  0  0
 15  5  1  0  0  0  0
 15 12  1  1  0  0  0
 17 28  1  1  0  0  0
 17 10  1  0  0  0  0
 18 20  1  0  0  0  0
 18  4  1  0  0  0  0
 19  6  1  0  0  0  0
 20 11  1  1  0  0  0
 21 23  1  0  0  0  0
 22 24  1  0  0  0  0
 25 14  1  6  0  0  0
 25 17  1  0  0  0  0
 25  9  1  0  0  0  0
 26  1  1  0  0  0  0
 26 21  1  0  0  0  0
 27  1  1  0  0  0  0
 29 28  1  0  0  0  0
 30 34  1  0  0  0  0
 30 33  1  0  0  0  0
 32 31  1  0  0  0  0
 32 29  1  1  0  0  0
 33 31  1  0  0  0  0
 34 32  1  0  0  0  0
M  END
>  <MODEL>
9

>  <REMARK>
 VINA RESULT:      -7.1      3.008      5.846
  Name = 
  3 active torsions:
  status: ('A' for Active; 'I' for Inactive)
    1  A    between atoms: C_17  and  C_28
    2  A    between atoms: C_28  and  C_29
    3  A    between atoms: C_29  and  C_32
                            x       y       z     vdW  Elec       q    Type
                         _______ _______ _______ _____ _____    ______ ____

>  <TORSDO>
F 3

$$$$
