=
 OpenBabel11122411293D

 37 42  0  0  1  0  0  0  0  0999 V2000
  184.5570  176.5110  136.2210 C   0  0  0  0  0  0  0  0  0  0  0  0
  188.3850  175.0790  137.0950 C   0  0  0  0  0  0  0  0  0  0  0  0
  190.3830  176.3380  135.5310 O   0  0  0  0  0  1  0  0  0  0  0  0
  186.2460  174.5940  136.1360 C   0  0  0  0  0  0  0  0  0  0  0  0
  189.1380  176.2670  137.6020 C   0  0  1  0  0  3  0  0  0  0  0  0
  187.1220  175.4500  136.7790 C   0  0  0  0  0  0  0  0  0  0  0  0
  190.5020  176.4120  136.9230 C   0  0  1  0  0  3  0  0  0  0  0  0
  186.6760  173.3350  135.8330 N   0  0  0  0  0  0  0  0  0  0  0  0
  186.8930  176.8250  136.9520 N   0  0  0  0  0  0  0  0  0  0  0  0
  183.9730  176.3190  137.6110 C   0  0  0  0  0  1  0  0  0  0  0  0
  190.3120  173.4630  136.8470 C   0  0  0  0  0  2  0  0  0  0  0  0
  187.9520  172.9260  136.1290 C   0  0  0  0  0  3  0  0  0  0  0  0
  185.7630  177.4750  136.2960 C   0  0  0  0  0  2  0  0  0  0  0  0
  188.8540  173.8020  136.7670 C   0  0  0  0  0  0  0  0  0  0  0  0
  188.1690  177.4500  137.3070 C   0  0  1  0  0  3  0  0  0  0  0  0
  184.9360  175.1330  135.6240 C   0  0  0  0  0  2  0  0  0  0  0  0
  191.4890  175.3520  137.4660 C   0  0  1  0  0  3  0  0  0  0  0  0
  183.4960  177.1390  135.3430 C   0  0  0  0  0  1  0  0  0  0  0  0
  190.9340  174.1280  137.9200 O   0  0  0  0  0  0  0  0  0  0  0  0
  186.7940  177.9940  139.3880 C   0  0  0  0  0  2  0  0  0  0  0  0
  186.7180  178.8320  140.5770 N   0  0  0  0  0  0  0  0  0  0  0  0
  188.7920  178.2610  141.7580 C   0  0  2  0  0  3  0  0  0  0  0  0
  187.2830  178.0560  141.6750 C   0  0  0  0  0  2  0  0  0  0  0  0
  189.4660  177.7830  140.5020 C   0  0  0  0  0  0  0  0  0  0  0  0
  190.0600  176.7160  140.4740 O   0  0  0  0  0  0  0  0  0  0  0  0
  189.3280  178.5980  139.2500 C   0  0  0  0  0  2  0  0  0  0  0  0
  189.2950  177.5920  142.8750 O   0  0  0  0  0  1  0  0  0  0  0  0
  187.9960  178.3820  138.5090 C   0  0  1  0  0  3  0  0  0  0  0  0
  184.9630  178.3180  142.1760 C   0  0  0  0  0  1  0  0  0  0  0  0
  185.3040  179.0030  140.8660 C   0  0  0  0  0  2  0  0  0  0  0  0
  193.3390  173.9650  136.4350 C   0  0  0  0  0  3  0  0  0  0  0  0
  192.8000  175.2230  136.7480 C   0  0  0  0  0  0  0  0  0  0  0  0
  193.4900  176.3820  136.3770 C   0  0  0  0  0  3  0  0  0  0  0  0
  195.3740  177.4130  135.3440 F   0  0  0  0  0  0  0  0  0  0  0  0
  195.2440  175.0340  135.3910 C   0  0  0  0  0  3  0  0  0  0  0  0
  194.7090  176.2890  135.7000 C   0  0  0  0  0  0  0  0  0  0  0  0
  194.5590  173.8720  135.7590 C   0  0  0  0  0  3  0  0  0  0  0  0
  1 13  1  0  0  0  0
  1 10  1  0  0  0  0
  4  6  2  0  0  0  0
  5  2  1  6  0  0  0
  6  9  1  0  0  0  0
  6  2  1  0  0  0  0
  7  3  1  6  0  0  0
  7 17  1  0  0  0  0
  7  5  1  0  0  0  0
  8 12  2  0  0  0  0
  8  4  1  0  0  0  0
 11 19  1  0  0  0  0
 12 14  1  0  0  0  0
 13  9  1  0  0  0  0
 14 11  1  0  0  0  0
 14  2  2  0  0  0  0
 15  9  1  1  0  0  0
 15  5  1  0  0  0  0
 15 28  1  0  0  0  0
 16  4  1  0  0  0  0
 16  1  1  0  0  0  0
 17 32  1  6  0  0  0
 17 19  1  0  0  0  0
 18  1  1  0  0  0  0
 20 21  1  0  0  0  0
 21 30  1  0  0  0  0
 21 23  1  0  0  0  0
 22 27  1  1  0  0  0
 23 22  1  0  0  0  0
 24 22  1  0  0  0  0
 25 24  2  0  0  0  0
 26 24  1  0  0  0  0
 28 26  1  1  0  0  0
 28 20  1  0  0  0  0
 30 29  1  0  0  0  0
 31 32  1  0  0  0  0
 33 32  2  0  0  0  0
 34 36  1  0  0  0  0
 35 36  2  0  0  0  0
 35 37  1  0  0  0  0
 36 33  1  0  0  0  0
 37 31  2  0  0  0  0
M  END
>  <MODEL>
1

>  <REMARK>
 VINA RESULT:      -7.3      0.000      0.000
  Name = 
  3 active torsions:
  status: ('A' for Active; 'I' for Inactive)
    1  A    between atoms: N_4  and  C_37
    2  A    between atoms: C_21  and  C_27
    3  A    between atoms: C_23  and  C_30
                            x       y       z     vdW  Elec       q    Type
                         _______ _______ _______ _____ _____    ______ ____

>  <TORSDO>
F 3

$$$$
=
 OpenBabel11122411293D

 37 42  0  0  1  0  0  0  0  0999 V2000
  186.9970  177.2550  137.1870 C   0  0  0  0  0  0  0  0  0  0  0  0
  189.1850  177.9670  140.6750 C   0  0  0  0  0  0  0  0  0  0  0  0
  189.7140  175.5840  142.1130 O   0  0  0  0  0  1  0  0  0  0  0  0
  187.0940  178.2400  139.5430 C   0  0  0  0  0  0  0  0  0  0  0  0
  190.4640  177.2130  140.4910 C   0  0  1  0  0  3  0  0  0  0  0  0
  188.4010  177.7900  139.5850 C   0  0  0  0  0  0  0  0  0  0  0  0
  190.8070  176.3630  141.7170 C   0  0  1  0  0  3  0  0  0  0  0  0
  186.5980  178.8940  140.6340 N   0  0  0  0  0  0  0  0  0  0  0  0
  188.9650  176.9220  138.6370 N   0  0  0  0  0  0  0  0  0  0  0  0
  187.5820  178.3970  136.3720 C   0  0  0  0  0  1  0  0  0  0  0  0
  189.4250  178.5700  143.1170 C   0  0  0  0  0  2  0  0  0  0  0  0
  187.3600  179.0830  141.7600 C   0  0  0  0  0  3  0  0  0  0  0  0
  188.1290  176.2950  137.6180 C   0  0  0  0  0  2  0  0  0  0  0  0
  188.6860  178.6090  141.8140 C   0  0  0  0  0  0  0  0  0  0  0  0
  190.1960  176.3730  139.2080 C   0  0  1  0  0  3  0  0  0  0  0  0
  186.2120  177.8290  138.3930 C   0  0  0  0  0  2  0  0  0  0  0  0
  191.3130  177.2600  142.8710 C   0  0  1  0  0  3  0  0  0  0  0  0
  186.0300  176.4920  136.3060 C   0  0  0  0  0  1  0  0  0  0  0  0
  190.8180  178.5890  142.9180 O   0  0  0  0  0  0  0  0  0  0  0  0
  192.4730  175.4580  138.5030 C   0  0  0  0  0  2  0  0  0  0  0  0
  193.5000  175.4910  137.4710 N   0  0  0  0  0  0  0  0  0  0  0  0
  192.2720  174.7370  135.4840 C   0  0  2  0  0  3  0  0  0  0  0  0
  193.2480  174.3550  136.5920 C   0  0  0  0  0  2  0  0  0  0  0  0
  190.9430  175.1400  136.0580 C   0  0  0  0  0  0  0  0  0  0  0  0
  189.9880  174.3790  136.0260 O   0  0  0  0  0  0  0  0  0  0  0  0
  190.8240  176.4650  136.7510 C   0  0  0  0  0  2  0  0  0  0  0  0
  192.1260  173.6690  134.5980 O   0  0  0  0  0  1  0  0  0  0  0  0
  191.3450  176.4600  138.1990 C   0  0  1  0  0  3  0  0  0  0  0  0
  195.0130  173.7370  138.2040 C   0  0  0  0  0  1  0  0  0  0  0  0
  194.7620  175.2310  138.1430 C   0  0  0  0  0  2  0  0  0  0  0  0
  192.0330  175.3170  144.3250 C   0  0  0  0  0  3  0  0  0  0  0  0
  191.4840  176.6030  144.2090 C   0  0  0  0  0  0  0  0  0  0  0  0
  191.0950  177.2950  145.3610 C   0  0  0  0  0  3  0  0  0  0  0  0
  190.8720  177.3820  147.7320 F   0  0  0  0  0  0  0  0  0  0  0  0
  191.7960  175.4260  146.7320 C   0  0  0  0  0  3  0  0  0  0  0  0
  191.2500  176.7080  146.6200 C   0  0  0  0  0  0  0  0  0  0  0  0
  192.1880  174.7300  145.5850 C   0  0  0  0  0  3  0  0  0  0  0  0
  1 13  1  0  0  0  0
  1 16  1  0  0  0  0
  2 14  1  0  0  0  0
  4  6  1  0  0  0  0
  4  8  2  0  0  0  0
  5  2  1  1  0  0  0
  5  7  1  0  0  0  0
  6  2  2  0  0  0  0
  7  3  1  1  0  0  0
  7 17  1  0  0  0  0
  8 12  1  0  0  0  0
  9  6  1  0  0  0  0
 10  1  1  0  0  0  0
 12 14  2  0  0  0  0
 13  9  1  0  0  0  0
 14 11  1  0  0  0  0
 15  9  1  6  0  0  0
 15  5  1  0  0  0  0
 16  4  1  0  0  0  0
 17 19  1  0  0  0  0
 17 32  1  1  0  0  0
 18  1  1  0  0  0  0
 19 11  1  0  0  0  0
 21 30  1  0  0  0  0
 21 20  1  0  0  0  0
 22 27  1  6  0  0  0
 22 24  1  0  0  0  0
 22 23  1  0  0  0  0
 23 21  1  0  0  0  0
 24 26  1  0  0  0  0
 25 24  2  0  0  0  0
 28 26  1  6  0  0  0
 28 20  1  0  0  0  0
 28 15  1  0  0  0  0
 30 29  1  0  0  0  0
 31 37  1  0  0  0  0
 32 31  2  0  0  0  0
 32 33  1  0  0  0  0
 33 36  2  0  0  0  0
 36 35  1  0  0  0  0
 36 34  1  0  0  0  0
 37 35  2  0  0  0  0
M  END
>  <MODEL>
2

>  <REMARK>
 VINA RESULT:      -7.3      3.581      7.282
  Name = 
  3 active torsions:
  status: ('A' for Active; 'I' for Inactive)
    1  A    between atoms: N_4  and  C_37
    2  A    between atoms: C_21  and  C_27
    3  A    between atoms: C_23  and  C_30
                            x       y       z     vdW  Elec       q    Type
                         _______ _______ _______ _____ _____    ______ ____

>  <TORSDO>
F 3

$$$$
=
 OpenBabel11122411293D

 37 42  0  0  1  0  0  0  0  0999 V2000
  181.2360  177.8990  140.0670 C   0  0  0  0  0  0  0  0  0  0  0  0
  184.0780  178.9340  142.9510 C   0  0  0  0  0  0  0  0  0  0  0  0
  185.7510  176.7530  143.6370 O   0  0  0  0  0  1  0  0  0  0  0  0
  181.7610  178.5600  142.4790 C   0  0  0  0  0  0  0  0  0  0  0  0
  185.4000  178.7250  142.2840 C   0  0  1  0  0  3  0  0  0  0  0  0
  183.0860  178.6160  142.0860 C   0  0  0  0  0  0  0  0  0  0  0  0
  186.3610  177.9180  143.1610 C   0  0  1  0  0  3  0  0  0  0  0  0
  181.4580  178.8510  143.7780 N   0  0  0  0  0  0  0  0  0  0  0  0
  183.5620  178.1340  140.8560 N   0  0  0  0  0  0  0  0  0  0  0  0
  181.1450  179.2640  139.4070 C   0  0  0  0  0  1  0  0  0  0  0  0
  184.8770  179.2830  145.3230 C   0  0  0  0  0  2  0  0  0  0  0  0
  182.4370  179.1680  144.6850 C   0  0  0  0  0  3  0  0  0  0  0  0
  182.6860  177.3730  139.9700 C   0  0  0  0  0  2  0  0  0  0  0  0
  183.7910  179.2070  144.2930 C   0  0  0  0  0  0  0  0  0  0  0  0
  185.0170  178.0070  140.9570 C   0  0  1  0  0  3  0  0  0  0  0  0
  180.7360  177.9960  141.5300 C   0  0  0  0  0  2  0  0  0  0  0  0
  186.8990  178.7920  144.3180 C   0  0  1  0  0  3  0  0  0  0  0  0
  180.3300  176.9480  139.3140 C   0  0  0  0  0  1  0  0  0  0  0  0
  186.0560  179.8330  144.7840 O   0  0  0  0  0  0  0  0  0  0  0  0
  187.1400  178.1220  139.5450 C   0  0  0  0  0  2  0  0  0  0  0  0
  187.7270  178.6480  138.3200 N   0  0  0  0  0  0  0  0  0  0  0  0
  186.2960  177.6610  136.5870 C   0  0  2  0  0  3  0  0  0  0  0  0
  187.6310  177.5900  137.3210 C   0  0  0  0  0  2  0  0  0  0  0  0
  185.1510  177.4580  137.5400 C   0  0  0  0  0  0  0  0  0  0  0  0
  184.5590  176.3910  137.5920 O   0  0  0  0  0  0  0  0  0  0  0  0
  184.7960  178.5620  138.4910 C   0  0  0  0  0  2  0  0  0  0  0  0
  186.2690  176.7060  135.5700 O   0  0  0  0  0  1  0  0  0  0  0  0
  185.6990  178.6280  139.7350 C   0  0  1  0  0  3  0  0  0  0  0  0
  189.6010  177.8480  139.6420 C   0  0  0  0  0  1  0  0  0  0  0  0
  189.1410  178.8420  138.5940 C   0  0  0  0  0  2  0  0  0  0  0  0
  187.1360  177.8590  146.6590 C   0  0  0  0  0  3  0  0  0  0  0  0
  187.6810  178.0860  145.3870 C   0  0  0  0  0  0  0  0  0  0  0  0
  188.9760  177.6410  145.1000 C   0  0  0  0  0  3  0  0  0  0  0  0
  190.9760  176.5460  145.7940 F   0  0  0  0  0  0  0  0  0  0  0  0
  189.1770  176.7510  147.3440 C   0  0  0  0  0  3  0  0  0  0  0  0
  189.7230  176.9750  146.0760 C   0  0  0  0  0  0  0  0  0  0  0  0
  187.8830  177.1930  147.6350 C   0  0  0  0  0  3  0  0  0  0  0  0
  1 16  1  0  0  0  0
  2 14  1  0  0  0  0
  4  8  2  0  0  0  0
  5  2  1  1  0  0  0
  5  7  1  0  0  0  0
  6  4  1  0  0  0  0
  6  2  2  0  0  0  0
  7  3  1  1  0  0  0
  7 17  1  0  0  0  0
  8 12  1  0  0  0  0
  9  6  1  0  0  0  0
 10  1  1  0  0  0  0
 13  1  1  0  0  0  0
 13  9  1  0  0  0  0
 14 12  2  0  0  0  0
 14 11  1  0  0  0  0
 15  9  1  6  0  0  0
 15  5  1  0  0  0  0
 16  4  1  0  0  0  0
 17 19  1  0  0  0  0
 17 32  1  1  0  0  0
 18  1  1  0  0  0  0
 19 11  1  0  0  0  0
 20 28  1  0  0  0  0
 21 30  1  0  0  0  0
 21 20  1  0  0  0  0
 22 27  1  6  0  0  0
 22 23  1  0  0  0  0
 22 24  1  0  0  0  0
 23 21  1  0  0  0  0
 24 25  2  0  0  0  0
 24 26  1  0  0  0  0
 28 26  1  6  0  0  0
 28 15  1  0  0  0  0
 30 29  1  0  0  0  0
 31 37  1  0  0  0  0
 32 31  2  0  0  0  0
 33 32  1  0  0  0  0
 33 36  2  0  0  0  0
 34 36  1  0  0  0  0
 35 37  2  0  0  0  0
 36 35  1  0  0  0  0
M  END
>  <MODEL>
3

>  <REMARK>
 VINA RESULT:      -7.2      4.256      8.317
  Name = 
  3 active torsions:
  status: ('A' for Active; 'I' for Inactive)
    1  A    between atoms: N_4  and  C_37
    2  A    between atoms: C_21  and  C_27
    3  A    between atoms: C_23  and  C_30
                            x       y       z     vdW  Elec       q    Type
                         _______ _______ _______ _____ _____    ______ ____

>  <TORSDO>
F 3

$$$$
=
 OpenBabel11122411293D

 37 42  0  0  1  0  0  0  0  0999 V2000
  180.2970  178.9030  143.4010 C   0  0  0  0  0  0  0  0  0  0  0  0
  183.4360  178.9320  140.6430 C   0  0  0  0  0  0  0  0  0  0  0  0
  183.6240  176.4960  139.2080 O   0  0  0  0  0  1  0  0  0  0  0  0
  182.8130  178.9120  142.9530 C   0  0  0  0  0  0  0  0  0  0  0  0
  182.7820  178.7600  139.3090 C   0  0  1  0  0  3  0  0  0  0  0  0
  182.4880  178.9300  141.6090 C   0  0  0  0  0  0  0  0  0  0  0  0
  183.4660  177.6760  138.4730 C   0  0  1  0  0  3  0  0  0  0  0  0
  184.1330  178.9130  143.3010 N   0  0  0  0  0  0  0  0  0  0  0  0
  181.1940  178.7120  141.1100 N   0  0  0  0  0  0  0  0  0  0  0  0
  179.9870  180.3900  143.3340 C   0  0  0  0  0  1  0  0  0  0  0  0
  185.8460  178.6230  139.9480 C   0  0  0  0  0  2  0  0  0  0  0  0
  185.1220  178.9050  142.3490 C   0  0  0  0  0  3  0  0  0  0  0  0
  180.1220  178.2760  141.9990 C   0  0  0  0  0  2  0  0  0  0  0  0
  184.7940  178.9030  140.9780 C   0  0  0  0  0  0  0  0  0  0  0  0
  181.3080  178.4220  139.6800 C   0  0  1  0  0  3  0  0  0  0  0  0
  181.7220  178.6970  143.9700 C   0  0  0  0  0  2  0  0  0  0  0  0
  184.8180  178.1890  137.9240 C   0  0  1  0  0  3  0  0  0  0  0  0
  179.3050  178.2550  144.3430 C   0  0  0  0  0  1  0  0  0  0  0  0
  185.4970  179.1660  138.6980 O   0  0  0  0  0  0  0  0  0  0  0  0
  180.6150  180.7520  138.9010 C   0  0  0  0  0  2  0  0  0  0  0  0
  179.7000  181.4970  138.0480 N   0  0  0  0  0  0  0  0  0  0  0  0
  180.2110  180.6030  135.8200 C   0  0  2  0  0  3  0  0  0  0  0  0
  180.4060  181.7560  136.7990 C   0  0  0  0  0  2  0  0  0  0  0  0
  180.7770  179.3270  136.3790 C   0  0  0  0  0  0  0  0  0  0  0  0
  181.8480  178.8910  135.9880 O   0  0  0  0  0  0  0  0  0  0  0  0
  180.0440  178.6340  137.4890 C   0  0  0  0  0  2  0  0  0  0  0  0
  180.8080  180.9170  134.5990 O   0  0  0  0  0  1  0  0  0  0  0  0
  180.2970  179.2460  138.8790 C   0  0  1  0  0  3  0  0  0  0  0  0
  179.9270  183.8980  137.7570 C   0  0  0  0  0  1  0  0  0  0  0  0
  179.4970  182.7840  138.6920 C   0  0  0  0  0  2  0  0  0  0  0  0
  185.1870  176.1950  136.4100 C   0  0  0  0  0  3  0  0  0  0  0  0
  185.7080  177.1750  137.2680 C   0  0  0  0  0  0  0  0  0  0  0  0
  187.0840  177.2170  137.5130 C   0  0  0  0  0  3  0  0  0  0  0  0
  189.2670  176.3330  137.1490 F   0  0  0  0  0  0  0  0  0  0  0  0
  187.4130  175.3120  136.0550 C   0  0  0  0  0  3  0  0  0  0  0  0
  187.9350  176.2880  136.9090 C   0  0  0  0  0  0  0  0  0  0  0  0
  186.0380  175.2650  135.8050 C   0  0  0  0  0  3  0  0  0  0  0  0
  1 16  1  0  0  0  0
  1 18  1  0  0  0  0
  2 14  2  0  0  0  0
  2  6  1  0  0  0  0
  4  8  1  0  0  0  0
  4 16  1  0  0  0  0
  5 15  1  0  0  0  0
  5  2  1  1  0  0  0
  6  4  2  0  0  0  0
  7  3  1  1  0  0  0
  7  5  1  0  0  0  0
  9  6  1  0  0  0  0
  9 13  1  0  0  0  0
 10  1  1  0  0  0  0
 11 14  1  0  0  0  0
 12  8  2  0  0  0  0
 13  1  1  0  0  0  0
 14 12  1  0  0  0  0
 15  9  1  1  0  0  0
 17 32  1  1  0  0  0
 17  7  1  0  0  0  0
 17 19  1  0  0  0  0
 19 11  1  0  0  0  0
 21 30  1  0  0  0  0
 21 20  1  0  0  0  0
 22 27  1  6  0  0  0
 22 24  1  0  0  0  0
 22 23  1  0  0  0  0
 23 21  1  0  0  0  0
 24 26  1  0  0  0  0
 25 24  2  0  0  0  0
 28 26  1  6  0  0  0
 28 20  1  0  0  0  0
 28 15  1  0  0  0  0
 29 30  1  0  0  0  0
 31 32  1  0  0  0  0
 32 33  2  0  0  0  0
 35 36  2  0  0  0  0
 36 34  1  0  0  0  0
 36 33  1  0  0  0  0
 37 35  1  0  0  0  0
 37 31  2  0  0  0  0
M  END
>  <MODEL>
4

>  <REMARK>
 VINA RESULT:      -7.1      4.805      8.339
  Name = 
  3 active torsions:
  status: ('A' for Active; 'I' for Inactive)
    1  A    between atoms: N_4  and  C_37
    2  A    between atoms: C_21  and  C_27
    3  A    between atoms: C_23  and  C_30
                            x       y       z     vdW  Elec       q    Type
                         _______ _______ _______ _____ _____    ______ ____

>  <TORSDO>
F 3

$$$$
=
 OpenBabel11122411293D

 37 42  0  0  1  0  0  0  0  0999 V2000
  187.8900  177.8940  143.1800 C   0  0  0  0  0  0  0  0  0  0  0  0
  184.3340  178.2350  141.0100 C   0  0  0  0  0  0  0  0  0  0  0  0
  184.2920  180.5520  139.3810 O   0  0  0  0  0  1  0  0  0  0  0  0
  185.3680  178.3110  143.1680 C   0  0  0  0  0  0  0  0  0  0  0  0
  184.7500  178.1870  139.5750 C   0  0  1  0  0  3  0  0  0  0  0  0
  185.4320  178.1350  141.7970 C   0  0  0  0  0  0  0  0  0  0  0  0
  184.1140  179.3130  138.7570 C   0  0  1  0  0  3  0  0  0  0  0  0
  184.1530  178.5760  143.7320 N   0  0  0  0  0  0  0  0  0  0  0  0
  186.6290  178.0760  141.0670 N   0  0  0  0  0  0  0  0  0  0  0  0
  187.9310  176.3750  143.2190 C   0  0  0  0  0  1  0  0  0  0  0  0
  181.9230  178.9260  140.7040 C   0  0  0  0  0  2  0  0  0  0  0  0
  183.0220  178.6940  142.9650 C   0  0  0  0  0  3  0  0  0  0  0  0
  187.9050  178.3740  141.7120 C   0  0  0  0  0  2  0  0  0  0  0  0
  183.0850  178.5350  141.5660 C   0  0  0  0  0  0  0  0  0  0  0  0
  186.3020  178.2770  139.6540 C   0  0  1  0  0  3  0  0  0  0  0  0
  186.6480  178.3980  143.9580 C   0  0  0  0  0  2  0  0  0  0  0  0
  182.6170  179.0150  138.5020 C   0  0  1  0  0  3  0  0  0  0  0  0
  189.1320  178.4190  143.8690 C   0  0  0  0  0  1  0  0  0  0  0  0
  181.9400  178.2370  139.4770 O   0  0  0  0  0  0  0  0  0  0  0  0
  186.2250  176.9300  137.4870 C   0  0  0  0  0  2  0  0  0  0  0  0
  186.9600  176.0060  136.6340 N   0  0  0  0  0  0  0  0  0  0  0  0
  188.9810  177.2880  136.0900 C   0  0  2  0  0  3  0  0  0  0  0  0
  187.6150  176.8110  135.6090 C   0  0  0  0  0  2  0  0  0  0  0  0
  188.8450  178.1640  137.3040 C   0  0  0  0  0  0  0  0  0  0  0  0
  188.9470  179.3780  137.2170 O   0  0  0  0  0  0  0  0  0  0  0  0
  188.4960  177.5320  138.6190 C   0  0  0  0  0  2  0  0  0  0  0  0
  189.6310  177.9670  135.0590 O   0  0  0  0  0  1  0  0  0  0  0  0
  186.9970  177.2250  138.7850 C   0  0  1  0  0  3  0  0  0  0  0  0
  184.6210  175.8960  135.9890 C   0  0  0  0  0  1  0  0  0  0  0  0
  185.9630  175.1930  135.9580 C   0  0  0  0  0  2  0  0  0  0  0  0
  181.6630  181.3590  138.5520 C   0  0  0  0  0  3  0  0  0  0  0  0
  181.8030  180.1230  137.9020 C   0  0  0  0  0  0  0  0  0  0  0  0
  181.1810  179.9180  136.6660 C   0  0  0  0  0  3  0  0  0  0  0  0
  179.8210  180.7330  134.8860 F   0  0  0  0  0  0  0  0  0  0  0  0
  180.2830  182.1660  136.7330 C   0  0  0  0  0  3  0  0  0  0  0  0
  180.4220  180.9370  136.0830 C   0  0  0  0  0  0  0  0  0  0  0  0
  180.9040  182.3780  137.9680 C   0  0  0  0  0  3  0  0  0  0  0  0
  1 10  1  0  0  0  0
  1 18  1  0  0  0  0
  1 16  1  0  0  0  0
  2 14  2  0  0  0  0
  2  6  1  0  0  0  0
  4  8  1  0  0  0  0
  4 16  1  0  0  0  0
  5 15  1  0  0  0  0
  5  2  1  1  0  0  0
  6  4  2  0  0  0  0
  7  3  1  1  0  0  0
  7  5  1  0  0  0  0
  9 13  1  0  0  0  0
  9  6  1  0  0  0  0
 11 14  1  0  0  0  0
 12  8  2  0  0  0  0
 13  1  1  0  0  0  0
 14 12  1  0  0  0  0
 15  9  1  1  0  0  0
 17 32  1  1  0  0  0
 17  7  1  0  0  0  0
 17 19  1  0  0  0  0
 19 11  1  0  0  0  0
 21 20  1  0  0  0  0
 22 27  1  6  0  0  0
 22 24  1  0  0  0  0
 23 22  1  0  0  0  0
 23 21  1  0  0  0  0
 24 26  1  0  0  0  0
 25 24  2  0  0  0  0
 26 28  1  0  0  0  0
 28 20  1  6  0  0  0
 28 15  1  0  0  0  0
 30 29  1  0  0  0  0
 30 21  1  0  0  0  0
 32 31  2  0  0  0  0
 33 32  1  0  0  0  0
 34 36  1  0  0  0  0
 35 37  2  0  0  0  0
 36 33  2  0  0  0  0
 36 35  1  0  0  0  0
 37 31  1  0  0  0  0
M  END
>  <MODEL>
5

>  <REMARK>
 VINA RESULT:      -7.1      4.132      9.068
  Name = 
  3 active torsions:
  status: ('A' for Active; 'I' for Inactive)
    1  A    between atoms: N_4  and  C_37
    2  A    between atoms: C_21  and  C_27
    3  A    between atoms: C_23  and  C_30
                            x       y       z     vdW  Elec       q    Type
                         _______ _______ _______ _____ _____    ______ ____

>  <TORSDO>
F 3

$$$$
=
 OpenBabel11122411293D

 37 42  0  0  1  0  0  0  0  0999 V2000
  188.3090  177.7210  137.4450 C   0  0  0  0  0  0  0  0  0  0  0  0
  184.8240  178.0790  139.7230 C   0  0  0  0  0  0  0  0  0  0  0  0
  183.1060  180.1060  138.7420 O   0  0  0  0  0  1  0  0  0  0  0  0
  187.1970  178.3840  139.6490 C   0  0  0  0  0  0  0  0  0  0  0  0
  183.7090  177.7660  138.7770 C   0  0  1  0  0  3  0  0  0  0  0  0
  186.0050  177.9920  139.0660 C   0  0  0  0  0  0  0  0  0  0  0  0
  182.5920  178.8100  138.8450 C   0  0  1  0  0  3  0  0  0  0  0  0
  187.1680  178.8550  140.9290 N   0  0  0  0  0  0  0  0  0  0  0  0
  185.8550  177.6990  137.7020 N   0  0  0  0  0  0  0  0  0  0  0  0
  188.5120  176.2300  137.6610 C   0  0  0  0  0  1  0  0  0  0  0  0
  183.4660  178.9540  141.6660 C   0  0  0  0  0  2  0  0  0  0  0  0
  185.9890  178.9660  141.6220 C   0  0  0  0  0  3  0  0  0  0  0  0
  186.9430  177.9630  136.7650 C   0  0  0  0  0  2  0  0  0  0  0  0
  184.7700  178.5860  141.0260 C   0  0  0  0  0  0  0  0  0  0  0  0
  184.4240  177.7090  137.3950 C   0  0  1  0  0  3  0  0  0  0  0  0
  188.4390  178.4630  138.7990 C   0  0  0  0  0  2  0  0  0  0  0  0
  181.7620  178.6290  140.1380 C   0  0  1  0  0  3  0  0  0  0  0  0
  189.4000  178.2180  136.5200 C   0  0  0  0  0  1  0  0  0  0  0  0
  182.4340  178.0850  141.2630 O   0  0  0  0  0  0  0  0  0  0  0  0
  183.8970  175.2120  137.4590 C   0  0  0  0  0  2  0  0  0  0  0  0
  183.4280  174.0760  136.6780 N   0  0  0  0  0  0  0  0  0  0  0  0
  181.1960  174.8110  135.9690 C   0  0  2  0  0  3  0  0  0  0  0  0
  181.9980  173.9490  136.9380 C   0  0  0  0  0  2  0  0  0  0  0  0
  181.5370  176.2650  136.1380 C   0  0  0  0  0  0  0  0  0  0  0  0
  180.7860  177.0210  136.7350 O   0  0  0  0  0  0  0  0  0  0  0  0
  182.8600  176.7630  135.6350 C   0  0  0  0  0  2  0  0  0  0  0  0
  179.8310  174.5960  136.1680 O   0  0  0  0  0  1  0  0  0  0  0  0
  184.0360  176.4700  136.5830 C   0  0  1  0  0  3  0  0  0  0  0  0
  185.5120  173.2080  137.5750 C   0  0  0  0  0  1  0  0  0  0  0  0
  184.0640  172.8990  137.2450 C   0  0  0  0  0  2  0  0  0  0  0  0
  180.1730  179.7980  141.7240 C   0  0  0  0  0  3  0  0  0  0  0  0
  180.7690  179.7070  140.4570 C   0  0  0  0  0  0  0  0  0  0  0  0
  180.4410  180.6430  139.4710 C   0  0  0  0  0  3  0  0  0  0  0  0
  179.2090  182.5650  138.7860 F   0  0  0  0  0  0  0  0  0  0  0  0
  178.9310  181.7490  141.0070 C   0  0  0  0  0  3  0  0  0  0  0  0
  179.5240  181.6620  139.7440 C   0  0  0  0  0  0  0  0  0  0  0  0
  179.2560  180.8170  141.9980 C   0  0  0  0  0  3  0  0  0  0  0  0
  1 10  1  0  0  0  0
  1 16  1  0  0  0  0
  2 14  1  0  0  0  0
  4  8  2  0  0  0  0
  5  7  1  0  0  0  0
  5  2  1  1  0  0  0
  6  4  1  0  0  0  0
  6  2  2  0  0  0  0
  7  3  1  1  0  0  0
  7 17  1  0  0  0  0
  8 12  1  0  0  0  0
  9  6  1  0  0  0  0
 13  1  1  0  0  0  0
 13  9  1  0  0  0  0
 14 12  2  0  0  0  0
 14 11  1  0  0  0  0
 15  9  1  1  0  0  0
 15  5  1  0  0  0  0
 16  4  1  0  0  0  0
 17 32  1  1  0  0  0
 17 19  1  0  0  0  0
 18  1  1  0  0  0  0
 19 11  1  0  0  0  0
 21 23  1  0  0  0  0
 21 30  1  0  0  0  0
 21 20  1  0  0  0  0
 22 24  1  0  0  0  0
 22 27  1  1  0  0  0
 22 23  1  0  0  0  0
 24 25  2  0  0  0  0
 26 24  1  0  0  0  0
 28 26  1  1  0  0  0
 28 15  1  0  0  0  0
 28 20  1  0  0  0  0
 30 29  1  0  0  0  0
 31 37  1  0  0  0  0
 32 31  2  0  0  0  0
 33 36  2  0  0  0  0
 33 32  1  0  0  0  0
 34 36  1  0  0  0  0
 35 37  2  0  0  0  0
 36 35  1  0  0  0  0
M  END
>  <MODEL>
6

>  <REMARK>
 VINA RESULT:      -7.0      4.991      9.690
  Name = 
  3 active torsions:
  status: ('A' for Active; 'I' for Inactive)
    1  A    between atoms: N_4  and  C_37
    2  A    between atoms: C_21  and  C_27
    3  A    between atoms: C_23  and  C_30
                            x       y       z     vdW  Elec       q    Type
                         _______ _______ _______ _____ _____    ______ ____

>  <TORSDO>
F 3

$$$$
=
 OpenBabel11122411293D

 37 42  0  0  1  0  0  0  0  0999 V2000
  190.0710  177.9620  143.5250 C   0  0  0  0  0  0  0  0  0  0  0  0
  186.1230  177.8210  142.1620 C   0  0  0  0  0  0  0  0  0  0  0  0
  185.4160  180.1350  140.6880 O   0  0  0  0  0  1  0  0  0  0  0  0
  187.5720  178.0090  144.0580 C   0  0  0  0  0  0  0  0  0  0  0  0
  186.2260  177.8580  140.6710 C   0  0  1  0  0  3  0  0  0  0  0  0
  187.3660  177.8680  142.6980 C   0  0  0  0  0  0  0  0  0  0  0  0
  185.2810  178.8930  140.0580 C   0  0  1  0  0  3  0  0  0  0  0  0
  186.4800  178.0860  144.8740 N   0  0  0  0  0  0  0  0  0  0  0  0
  188.3760  177.9950  141.7320 N   0  0  0  0  0  0  0  0  0  0  0  0
  190.3280  176.4650  143.4830 C   0  0  0  0  0  1  0  0  0  0  0  0
  183.6300  178.1610  142.3980 C   0  0  0  0  0  2  0  0  0  0  0  0
  185.2060  178.0530  144.3660 C   0  0  0  0  0  3  0  0  0  0  0  0
  189.7070  178.4640  142.1100 C   0  0  0  0  0  2  0  0  0  0  0  0
  184.9920  177.9280  142.9790 C   0  0  0  0  0  0  0  0  0  0  0  0
  187.7320  178.1700  140.4290 C   0  0  1  0  0  3  0  0  0  0  0  0
  188.9660  178.2680  144.5670 C   0  0  0  0  0  2  0  0  0  0  0  0
  183.8210  178.3860  140.1060 C   0  0  1  0  0  3  0  0  0  0  0  0
  191.3470  178.6490  143.9640 C   0  0  0  0  0  1  0  0  0  0  0  0
  183.4810  177.5030  141.1620 O   0  0  0  0  0  0  0  0  0  0  0  0
  187.3240  176.6420  138.4250 C   0  0  0  0  0  2  0  0  0  0  0  0
  187.9640  175.8520  137.3830 N   0  0  0  0  0  0  0  0  0  0  0  0
  189.2820  177.5360  136.1800 C   0  0  2  0  0  3  0  0  0  0  0  0
  188.0140  176.6910  136.1910 C   0  0  0  0  0  2  0  0  0  0  0  0
  189.3150  178.4650  137.3620 C   0  0  0  0  0  0  0  0  0  0  0  0
  189.0550  179.6520  137.2360 O   0  0  0  0  0  0  0  0  0  0  0  0
  189.5910  177.8970  138.7230 C   0  0  0  0  0  2  0  0  0  0  0  0
  189.3590  178.2530  134.9850 O   0  0  0  0  0  1  0  0  0  0  0  0
  188.3640  177.2450  139.3850 C   0  0  1  0  0  3  0  0  0  0  0  0
  185.7010  175.3020  136.6900 C   0  0  0  0  0  1  0  0  0  0  0  0
  187.0580  174.7540  137.0880 C   0  0  0  0  0  2  0  0  0  0  0  0
  182.9470  180.3160  138.7180 C   0  0  0  0  0  3  0  0  0  0  0  0
  182.7520  179.3760  139.7420 C   0  0  0  0  0  0  0  0  0  0  0  0
  181.5370  179.3490  140.4330 C   0  0  0  0  0  3  0  0  0  0  0  0
  179.3480  180.2260  140.7820 F   0  0  0  0  0  0  0  0  0  0  0  0
  180.7210  181.1920  139.0910 C   0  0  0  0  0  3  0  0  0  0  0  0
  180.5230  180.2550  140.1090 C   0  0  0  0  0  0  0  0  0  0  0  0
  181.9330  181.2220  138.3950 C   0  0  0  0  0  3  0  0  0  0  0  0
  1 18  1  0  0  0  0
  1 16  1  0  0  0  0
  2  6  2  0  0  0  0
  2 14  1  0  0  0  0
  4 16  1  0  0  0  0
  4  8  2  0  0  0  0
  5  2  1  1  0  0  0
  6  4  1  0  0  0  0
  7 17  1  0  0  0  0
  7  5  1  0  0  0  0
  7  3  1  1  0  0  0
  9 13  1  0  0  0  0
  9  6  1  0  0  0  0
 10  1  1  0  0  0  0
 11 14  1  0  0  0  0
 12  8  1  0  0  0  0
 13  1  1  0  0  0  0
 14 12  2  0  0  0  0
 15  5  1  0  0  0  0
 15  9  1  1  0  0  0
 17 32  1  1  0  0  0
 17 19  1  0  0  0  0
 19 11  1  0  0  0  0
 21 20  1  0  0  0  0
 22 27  1  6  0  0  0
 22 23  1  0  0  0  0
 22 24  1  0  0  0  0
 23 21  1  0  0  0  0
 24 26  1  0  0  0  0
 25 24  2  0  0  0  0
 26 28  1  0  0  0  0
 28 20  1  6  0  0  0
 28 15  1  0  0  0  0
 29 30  1  0  0  0  0
 30 21  1  0  0  0  0
 31 32  1  0  0  0  0
 32 33  2  0  0  0  0
 35 36  2  0  0  0  0
 36 33  1  0  0  0  0
 36 34  1  0  0  0  0
 37 31  2  0  0  0  0
 37 35  1  0  0  0  0
M  END
>  <MODEL>
7

>  <REMARK>
 VINA RESULT:      -6.7      4.203      9.042
  Name = 
  3 active torsions:
  status: ('A' for Active; 'I' for Inactive)
    1  A    between atoms: N_4  and  C_37
    2  A    between atoms: C_21  and  C_27
    3  A    between atoms: C_23  and  C_30
                            x       y       z     vdW  Elec       q    Type
                         _______ _______ _______ _____ _____    ______ ____

>  <TORSDO>
F 3

$$$$
=
 OpenBabel11122411293D

 37 42  0  0  1  0  0  0  0  0999 V2000
  190.3970  177.9160  144.2940 C   0  0  0  0  0  0  0  0  0  0  0  0
  186.4990  177.7850  142.7920 C   0  0  0  0  0  0  0  0  0  0  0  0
  185.9330  179.9780  141.0910 O   0  0  0  0  0  1  0  0  0  0  0  0
  187.8830  178.0950  144.7200 C   0  0  0  0  0  0  0  0  0  0  0  0
  186.6580  177.6830  141.3090 C   0  0  1  0  0  3  0  0  0  0  0  0
  187.7220  177.8390  143.3710 C   0  0  0  0  0  0  0  0  0  0  0  0
  185.7750  178.6900  140.5690 C   0  0  1  0  0  3  0  0  0  0  0  0
  186.7670  178.2830  145.4820 N   0  0  0  0  0  0  0  0  0  0  0  0
  188.7720  177.8440  142.4380 N   0  0  0  0  0  0  0  0  0  0  0  0
  190.6000  176.4130  144.3950 C   0  0  0  0  0  1  0  0  0  0  0  0
  184.0140  178.2290  142.8970 C   0  0  0  0  0  2  0  0  0  0  0  0
  185.5110  178.2460  144.9290 C   0  0  0  0  0  3  0  0  0  0  0  0
  190.1040  178.3000  142.8260 C   0  0  0  0  0  2  0  0  0  0  0  0
  185.3440  178.0040  143.5510 C   0  0  0  0  0  0  0  0  0  0  0  0
  188.1830  177.9210  141.1000 C   0  0  1  0  0  3  0  0  0  0  0  0
  189.2670  178.3520  145.2590 C   0  0  0  0  0  2  0  0  0  0  0  0
  184.2960  178.2390  140.6040 C   0  0  1  0  0  3  0  0  0  0  0  0
  191.6810  178.5970  144.7200 C   0  0  0  0  0  1  0  0  0  0  0  0
  183.8850  177.4670  141.7210 O   0  0  0  0  0  0  0  0  0  0  0  0
  188.8270  177.3400  138.7000 C   0  0  0  0  0  2  0  0  0  0  0  0
  189.5280  176.3830  137.8560 N   0  0  0  0  0  0  0  0  0  0  0  0
  191.8160  176.4810  138.7380 C   0  0  2  0  0  3  0  0  0  0  0  0
  190.8650  176.9220  137.6310 C   0  0  0  0  0  2  0  0  0  0  0  0
  191.3600  177.0020  140.0730 C   0  0  0  0  0  0  0  0  0  0  0  0
  191.9090  177.9610  140.5940 O   0  0  0  0  0  0  0  0  0  0  0  0
  190.1620  176.3780  140.7230 C   0  0  0  0  0  2  0  0  0  0  0  0
  193.1080  176.9220  138.4500 O   0  0  0  0  0  1  0  0  0  0  0  0
  188.8180  176.8850  140.1700 C   0  0  1  0  0  3  0  0  0  0  0  0
  188.7350  177.8200  136.0650 C   0  0  0  0  0  1  0  0  0  0  0  0
  188.8480  176.3950  136.5710 C   0  0  0  0  0  2  0  0  0  0  0  0
  183.5860  180.1430  139.0940 C   0  0  0  0  0  3  0  0  0  0  0  0
  183.2790  179.2260  140.1110 C   0  0  0  0  0  0  0  0  0  0  0  0
  181.9990  179.2220  140.6740 C   0  0  0  0  0  3  0  0  0  0  0  0
  179.7930  180.1200  140.7760 F   0  0  0  0  0  0  0  0  0  0  0  0
  181.3410  181.0400  139.2150 C   0  0  0  0  0  3  0  0  0  0  0  0
  181.0310  180.1270  140.2280 C   0  0  0  0  0  0  0  0  0  0  0  0
  182.6190  181.0480  138.6480 C   0  0  0  0  0  3  0  0  0  0  0  0
  1 10  1  0  0  0  0
  1 18  1  0  0  0  0
  1 16  1  0  0  0  0
  2  6  2  0  0  0  0
  2 14  1  0  0  0  0
  4 16  1  0  0  0  0
  4  8  2  0  0  0  0
  5  2  1  1  0  0  0
  6  4  1  0  0  0  0
  7 17  1  0  0  0  0
  7  3  1  1  0  0  0
  7  5  1  0  0  0  0
  9 13  1  0  0  0  0
  9  6  1  0  0  0  0
 11 14  1  0  0  0  0
 12  8  1  0  0  0  0
 13  1  1  0  0  0  0
 14 12  2  0  0  0  0
 15  5  1  0  0  0  0
 15  9  1  1  0  0  0
 17 32  1  1  0  0  0
 17 19  1  0  0  0  0
 19 11  1  0  0  0  0
 21 20  1  0  0  0  0
 22 27  1  6  0  0  0
 22 24  1  0  0  0  0
 23 21  1  0  0  0  0
 23 22  1  0  0  0  0
 24 25  2  0  0  0  0
 24 26  1  0  0  0  0
 28 20  1  6  0  0  0
 28 26  1  0  0  0  0
 28 15  1  0  0  0  0
 29 30  1  0  0  0  0
 30 21  1  0  0  0  0
 31 32  1  0  0  0  0
 32 33  2  0  0  0  0
 35 36  2  0  0  0  0
 36 33  1  0  0  0  0
 36 34  1  0  0  0  0
 37 31  2  0  0  0  0
 37 35  1  0  0  0  0
M  END
>  <MODEL>
8

>  <REMARK>
 VINA RESULT:      -6.4      4.045      9.049
  Name = 
  3 active torsions:
  status: ('A' for Active; 'I' for Inactive)
    1  A    between atoms: N_4  and  C_37
    2  A    between atoms: C_21  and  C_27
    3  A    between atoms: C_23  and  C_30
                            x       y       z     vdW  Elec       q    Type
                         _______ _______ _______ _____ _____    ______ ____

>  <TORSDO>
F 3

$$$$
=
 OpenBabel11122411293D

 37 42  0  0  1  0  0  0  0  0999 V2000
  187.0080  177.7540  146.1620 C   0  0  0  0  0  0  0  0  0  0  0  0
  189.7480  177.9500  143.0130 C   0  0  0  0  0  0  0  0  0  0  0  0
  189.4490  175.7960  141.1970 O   0  0  0  0  0  1  0  0  0  0  0  0
  189.4280  177.5900  145.3570 C   0  0  0  0  0  0  0  0  0  0  0  0
  188.9120  178.0800  141.7790 C   0  0  1  0  0  3  0  0  0  0  0  0
  188.9380  177.8740  144.0950 C   0  0  0  0  0  0  0  0  0  0  0  0
  189.3440  177.0960  140.6900 C   0  0  1  0  0  3  0  0  0  0  0  0
  190.7720  177.3980  145.5030 N   0  0  0  0  0  0  0  0  0  0  0  0
  187.5740  177.8780  143.7640 N   0  0  0  0  0  0  0  0  0  0  0  0
  186.8780  179.2530  146.3800 C   0  0  0  0  0  1  0  0  0  0  0  0
  191.9920  177.5280  141.9310 C   0  0  0  0  0  2  0  0  0  0  0  0
  191.6220  177.4570  144.4270 C   0  0  0  0  0  3  0  0  0  0  0  0
  186.5790  177.4020  144.7200 C   0  0  0  0  0  2  0  0  0  0  0  0
  191.1240  177.7280  143.1360 C   0  0  0  0  0  0  0  0  0  0  0  0
  187.4670  177.8320  142.3040 C   0  0  1  0  0  3  0  0  0  0  0  0
  188.4590  177.3100  146.4760 C   0  0  0  0  0  2  0  0  0  0  0  0
  190.6670  177.5600  140.0380 C   0  0  1  0  0  3  0  0  0  0  0  0
  186.0740  177.0530  147.1250 C   0  0  0  0  0  1  0  0  0  0  0  0
  191.5550  178.3140  140.8480 O   0  0  0  0  0  0  0  0  0  0  0  0
  185.7170  178.4210  140.5420 C   0  0  0  0  0  2  0  0  0  0  0  0
  184.7050  179.3920  140.1500 N   0  0  0  0  0  0  0  0  0  0  0  0
  183.1680  179.3510  142.0620 C   0  0  2  0  0  3  0  0  0  0  0  0
  183.4260  178.8840  140.6340 C   0  0  0  0  0  2  0  0  0  0  0  0
  184.2210  178.8240  142.9960 C   0  0  0  0  0  0  0  0  0  0  0  0
  183.9900  177.8800  143.7350 O   0  0  0  0  0  0  0  0  0  0  0  0
  185.5970  179.4210  142.9480 C   0  0  0  0  0  2  0  0  0  0  0  0
  181.8970  178.9410  142.4670 O   0  0  0  0  0  1  0  0  0  0  0  0
  186.4710  178.8800  141.8030 C   0  0  1  0  0  3  0  0  0  0  0  0
  185.5440  178.2530  138.1740 C   0  0  0  0  0  1  0  0  0  0  0  0
  184.6490  179.3590  138.6980 C   0  0  0  0  0  2  0  0  0  0  0  0
  192.7180  176.6310  138.8790 C   0  0  0  0  0  3  0  0  0  0  0  0
  191.3340  176.5920  139.1040 C   0  0  0  0  0  0  0  0  0  0  0  0
  190.5550  175.6270  138.4560 C   0  0  0  0  0  3  0  0  0  0  0  0
  190.3950  173.7780  136.9610 F   0  0  0  0  0  0  0  0  0  0  0  0
  192.5310  174.7530  137.3630 C   0  0  0  0  0  3  0  0  0  0  0  0
  191.1520  174.7100  137.5860 C   0  0  0  0  0  0  0  0  0  0  0  0
  193.3150  175.7140  138.0100 C   0  0  0  0  0  3  0  0  0  0  0  0
  1 10  1  0  0  0  0
  1 16  1  0  0  0  0
  1 18  1  0  0  0  0
  2 14  2  0  0  0  0
  2  6  1  0  0  0  0
  4  8  1  0  0  0  0
  4 16  1  0  0  0  0
  5 15  1  0  0  0  0
  5  2  1  1  0  0  0
  6  4  2  0  0  0  0
  7  3  1  1  0  0  0
  7  5  1  0  0  0  0
  9  6  1  0  0  0  0
  9 13  1  0  0  0  0
 11 14  1  0  0  0  0
 12  8  2  0  0  0  0
 13  1  1  0  0  0  0
 14 12  1  0  0  0  0
 15  9  1  1  0  0  0
 17 32  1  1  0  0  0
 17  7  1  0  0  0  0
 17 19  1  0  0  0  0
 19 11  1  0  0  0  0
 21 20  1  0  0  0  0
 21 23  1  0  0  0  0
 22 27  1  1  0  0  0
 22 24  1  0  0  0  0
 23 22  1  0  0  0  0
 24 25  2  0  0  0  0
 26 24  1  0  0  0  0
 28 20  1  6  0  0  0
 28 15  1  0  0  0  0
 28 26  1  0  0  0  0
 29 30  1  0  0  0  0
 30 21  1  0  0  0  0
 31 32  1  0  0  0  0
 33 32  2  0  0  0  0
 34 36  1  0  0  0  0
 35 36  2  0  0  0  0
 35 37  1  0  0  0  0
 36 33  1  0  0  0  0
 37 31  2  0  0  0  0
M  END
>  <MODEL>
9

>  <REMARK>
 VINA RESULT:      -6.1      3.240      6.699
  Name = 
  3 active torsions:
  status: ('A' for Active; 'I' for Inactive)
    1  A    between atoms: N_4  and  C_37
    2  A    between atoms: C_21  and  C_27
    3  A    between atoms: C_23  and  C_30
                            x       y       z     vdW  Elec       q    Type
                         _______ _______ _______ _____ _____    ______ ____

>  <TORSDO>
F 3

$$$$
