=
 OpenBabel11122412113D

 34 42  0  0  1  0  0  0  0  0999 V2000
  189.6930  177.6280  138.4410 C   0  0  0  0  0  0  0  0  0  0  0  0
  188.6630  177.9270  136.1640 C   0  0  0  0  0  2  0  0  0  0  0  0
  190.2050  178.5490  144.4240 C   0  0  2  0  0  0  0  0  0  0  0  0
  190.2980  176.7190  140.6230 C   0  0  0  0  0  0  0  0  0  0  0  0
  188.8740  177.2250  142.6480 C   0  0  1  0  0  3  0  0  0  0  0  0
  190.7050  179.0060  143.0590 C   0  0  2  0  0  3  0  0  0  0  0  0
  191.2450  179.6440  144.3230 C   0  0  0  0  0  2  0  0  0  0  0  0
  191.6710  176.4460  143.8090 C   0  0  0  0  0  2  0  0  0  0  0  0
  187.4540  178.7970  138.0920 N   0  0  2  0  0  0  0  0  0  0  0  0
  184.4220  177.6010  138.1340 C   0  0  0  0  0  2  0  0  0  0  0  0
  187.7250  177.3580  141.6540 C   0  0  0  0  0  2  0  0  0  0  0  0
  190.8060  175.6410  142.8520 C   0  0  0  0  0  2  0  0  0  0  0  0
  187.0550  178.1100  139.3460 C   0  0  1  0  0  3  0  0  0  0  0  0
  187.3280  178.4250  135.6950 C   0  0  0  0  0  2  0  0  0  0  0  0
  190.0010  176.5280  142.0190 N   0  0  0  0  0  0  0  0  0  0  0  0
  190.8070  177.1820  144.8390 C   0  0  0  0  0  2  0  0  0  0  0  0
  185.5540  177.3620  137.1190 C   0  0  1  0  0  3  0  0  0  0  0  0
  189.4040  177.4440  139.8010 C   0  0  0  0  0  0  0  0  0  0  0  0
  189.2460  178.6040  143.2350 C   0  0  2  0  0  3  0  0  0  0  0  0
  188.1800  178.0910  140.3850 C   0  0  2  0  0  3  0  0  0  0  0  0
  191.7540  176.3690  138.7130 C   0  0  0  0  0  3  0  0  0  0  0  0
  184.6100  178.8550  138.9900 C   0  0  0  0  0  2  0  0  0  0  0  0
  191.4630  176.1760  140.0620 C   0  0  0  0  0  3  0  0  0  0  0  0
  185.7930  178.7500  139.9530 C   0  0  0  0  0  2  0  0  0  0  0  0
  186.5170  178.5670  136.9620 C   0  0  1  0  0  3  0  0  0  0  0  0
  190.8810  177.1010  137.9110 C   0  0  0  0  0  3  0  0  0  0  0  0
  188.8050  178.4840  137.5680 C   0  0  1  0  0  3  0  0  0  0  0  0
  186.2520  176.1950  137.4480 O   0  0  0  0  0  0  0  0  0  0  0  0
  185.7250  175.1950  136.6250 C   0  0  0  0  0  2  0  0  0  0  0  0
  188.8790  174.3220  135.6640 C   0  0  0  0  0  2  0  0  0  0  0  0
  186.6990  173.4530  135.2070 N   0  0  0  0  0  2  0  0  0  0  0  0
  186.6770  174.0070  136.5590 C   0  0  1  0  0  3  0  0  0  0  0  0
  188.1010  173.3410  134.8260 C   0  0  0  0  0  2  0  0  0  0  0  0
  188.0880  174.4200  136.9390 C   0  0  0  0  0  2  0  0  0  0  0  0
  1 18  1  0  0  0  0
  2 27  1  0  0  0  0
  3  7  1  1  0  0  0
  3 16  1  0  0  0  0
  4 15  1  0  0  0  0
  5 11  1  6  0  0  0
  5 19  1  0  0  0  0
  6 19  1  0  0  0  0
  6  7  1  1  0  0  0
  6  3  1  0  0  0  0
  8 16  1  0  0  0  0
  9 13  1  0  0  0  0
 10 22  1  0  0  0  0
 12  8  1  0  0  0  0
 13 24  1  0  0  0  0
 13 20  1  0  0  0  0
 14  2  1  0  0  0  0
 14 25  1  0  0  0  0
 15  5  1  0  0  0  0
 15 12  1  0  0  0  0
 17 28  1  0  0  0  0
 17 10  1  0  0  0  0
 18 20  1  0  0  0  0
 18  4  2  0  0  0  0
 19  3  1  0  0  0  0
 20 11  1  0  0  0  0
 21 23  2  0  0  0  0
 22 24  1  0  0  0  0
 23  4  1  0  0  0  0
 25 17  1  0  0  0  0
 25  9  1  0  0  0  0
 26  1  2  0  0  0  0
 26 21  1  0  0  0  0
 27  9  1  0  0  0  0
 27  1  1  0  0  0  0
 29 28  1  0  0  0  0
 30 34  1  0  0  0  0
 31 32  1  0  0  0  0
 32 29  1  0  0  0  0
 32 34  1  0  0  0  0
 33 31  1  0  0  0  0
 33 30  1  0  0  0  0
M  END
>  <MODEL>
1

>  <REMARK>
 VINA RESULT:      -6.8      0.000      0.000
  Name = 
  3 active torsions:
  status: ('A' for Active; 'I' for Inactive)
    1  A    between atoms: C_17  and  O_28
    2  A    between atoms: O_28  and  C_29
    3  A    between atoms: C_29  and  C_32
                            x       y       z     vdW  Elec       q    Type
                         _______ _______ _______ _____ _____    ______ ____

>  <TORSDO>
F 3

$$$$
=
 OpenBabel11122412113D

 34 42  0  0  1  0  0  0  0  0999 V2000
  187.1200  178.3210  139.9950 C   0  0  0  0  0  0  0  0  0  0  0  0
  185.1120  179.0090  138.6410 C   0  0  0  0  0  2  0  0  0  0  0  0
  190.5870  178.0720  144.9770 C   0  0  2  0  0  0  0  0  0  0  0  0
  188.6770  177.0330  141.3600 C   0  0  0  0  0  0  0  0  0  0  0  0
  188.4790  177.0580  143.8800 C   0  0  1  0  0  3  0  0  0  0  0  0
  190.3670  178.8130  143.6640 C   0  0  2  0  0  3  0  0  0  0  0  0
  191.4980  179.2160  144.5880 C   0  0  0  0  0  2  0  0  0  0  0  0
  191.4350  176.2080  143.3170 C   0  0  0  0  0  2  0  0  0  0  0  0
  185.0720  179.4220  141.0420 N   0  0  2  0  0  0  0  0  0  0  0  0
  182.4010  178.0900  142.3530 C   0  0  0  0  0  2  0  0  0  0  0  0
  186.9970  177.3260  143.6370 C   0  0  0  0  0  2  0  0  0  0  0  0
  190.1660  175.5640  142.7810 C   0  0  0  0  0  2  0  0  0  0  0  0
  185.3120  178.4830  142.1660 C   0  0  1  0  0  3  0  0  0  0  0  0
  183.7510  179.5220  139.0070 C   0  0  0  0  0  2  0  0  0  0  0  0
  189.1040  176.5560  142.6520 N   0  0  0  0  0  0  0  0  0  0  0  0
  191.2390  176.6820  144.7620 C   0  0  0  0  0  2  0  0  0  0  0  0
  182.8630  178.1120  140.8840 C   0  0  1  0  0  3  0  0  0  0  0  0
  187.5350  177.8590  141.2520 C   0  0  0  0  0  0  0  0  0  0  0  0
  189.1680  178.3120  144.4600 C   0  0  2  0  0  3  0  0  0  0  0  0
  186.8000  178.3160  142.4810 C   0  0  2  0  0  3  0  0  0  0  0  0
  188.9700  177.1390  138.9530 C   0  0  0  0  0  3  0  0  0  0  0  0
  183.0580  179.1590  143.2280 C   0  0  0  0  0  2  0  0  0  0  0  0
  189.3780  176.6690  140.2010 C   0  0  0  0  0  3  0  0  0  0  0  0
  184.5560  178.9260  143.4320 C   0  0  0  0  0  2  0  0  0  0  0  0
  183.6860  179.3720  140.5090 C   0  0  1  0  0  3  0  0  0  0  0  0
  187.8560  177.9690  138.8530 C   0  0  0  0  0  3  0  0  0  0  0  0
  185.9640  179.2860  139.8660 C   0  0  1  0  0  3  0  0  0  0  0  0
  183.5670  176.9400  140.5880 O   0  0  0  0  0  0  0  0  0  0  0  0
  182.6850  176.1490  139.8450 C   0  0  0  0  0  2  0  0  0  0  0  0
  181.6270  175.3070  136.7140 C   0  0  0  0  0  2  0  0  0  0  0  0
  183.4660  174.6350  138.0870 N   0  0  0  0  0  2  0  0  0  0  0  0
  183.1660  176.0290  138.4040 C   0  0  1  0  0  3  0  0  0  0  0  0
  182.7690  174.3330  136.8430 C   0  0  0  0  0  2  0  0  0  0  0  0
  182.1110  176.5330  137.4360 C   0  0  0  0  0  2  0  0  0  0  0  0
  1 18  1  0  0  0  0
  2 14  1  0  0  0  0
  2 27  1  0  0  0  0
  3  7  1  1  0  0  0
  4 15  1  0  0  0  0
  5 11  1  6  0  0  0
  5 19  1  0  0  0  0
  6 19  1  0  0  0  0
  6  7  1  1  0  0  0
  6  3  1  0  0  0  0
  8 16  1  0  0  0  0
  9 13  1  0  0  0  0
 10 22  1  0  0  0  0
 12  8  1  0  0  0  0
 13 20  1  0  0  0  0
 13 24  1  0  0  0  0
 14 25  1  0  0  0  0
 15 12  1  0  0  0  0
 15  5  1  0  0  0  0
 16  3  1  0  0  0  0
 17 10  1  0  0  0  0
 18  4  2  0  0  0  0
 18 20  1  0  0  0  0
 19  3  1  0  0  0  0
 20 11  1  0  0  0  0
 21 23  2  0  0  0  0
 22 24  1  0  0  0  0
 23  4  1  0  0  0  0
 25 17  1  0  0  0  0
 25  9  1  0  0  0  0
 26 21  1  0  0  0  0
 26  1  2  0  0  0  0
 27  1  1  0  0  0  0
 27  9  1  0  0  0  0
 28 17  1  0  0  0  0
 29 28  1  0  0  0  0
 30 33  1  0  0  0  0
 30 34  1  0  0  0  0
 31 32  1  0  0  0  0
 32 29  1  0  0  0  0
 33 31  1  0  0  0  0
 34 32  1  0  0  0  0
M  END
>  <MODEL>
2

>  <REMARK>
 VINA RESULT:      -6.7      2.455      3.643
  Name = 
  3 active torsions:
  status: ('A' for Active; 'I' for Inactive)
    1  A    between atoms: C_17  and  O_28
    2  A    between atoms: O_28  and  C_29
    3  A    between atoms: C_29  and  C_32
                            x       y       z     vdW  Elec       q    Type
                         _______ _______ _______ _____ _____    ______ ____

>  <TORSDO>
F 3

$$$$
=
 OpenBabel11122412113D

 34 42  0  0  1  0  0  0  0  0999 V2000
  186.0340  176.2120  135.1040 C   0  0  0  0  0  0  0  0  0  0  0  0
  188.0350  177.6530  134.5940 C   0  0  0  0  0  2  0  0  0  0  0  0
  183.1610  171.0000  136.3220 C   0  0  2  0  0  0  0  0  0  0  0  0
  184.2120  175.0870  136.2710 C   0  0  0  0  0  0  0  0  0  0  0  0
  184.6070  172.8560  137.3920 C   0  0  1  0  0  3  0  0  0  0  0  0
  183.5480  171.9640  135.2060 C   0  0  2  0  0  3  0  0  0  0  0  0
  182.7440  170.7170  134.8950 C   0  0  0  0  0  2  0  0  0  0  0  0
  181.5190  172.9760  136.9120 C   0  0  0  0  0  2  0  0  0  0  0  0
  188.4270  175.3490  135.2850 N   0  0  2  0  0  0  0  0  0  0  0  0
  190.4580  175.2860  137.8340 C   0  0  0  0  0  2  0  0  0  0  0  0
  186.0500  173.3250  137.5410 C   0  0  0  0  0  2  0  0  0  0  0  0
  182.3870  173.9940  137.6370 C   0  0  0  0  0  2  0  0  0  0  0  0
  187.9300  174.6240  136.4810 C   0  0  1  0  0  3  0  0  0  0  0  0
  189.5130  177.4570  134.7570 C   0  0  0  0  0  2  0  0  0  0  0  0
  183.7390  173.9980  137.0880 N   0  0  0  0  0  0  0  0  0  0  0  0
  182.0010  171.5480  137.1920 C   0  0  0  0  0  2  0  0  0  0  0  0
  189.9250  176.4910  137.0380 C   0  0  1  0  0  3  0  0  0  0  0  0
  185.5740  175.1510  135.8980 C   0  0  0  0  0  0  0  0  0  0  0  0
  184.5140  171.7120  136.3580 C   0  0  2  0  0  3  0  0  0  0  0  0
  186.5260  174.0500  136.2740 C   0  0  2  0  0  3  0  0  0  0  0  0
  183.7910  177.1460  135.0580 C   0  0  0  0  0  3  0  0  0  0  0  0
  190.3450  173.9520  137.0930 C   0  0  0  0  0  2  0  0  0  0  0  0
  183.3340  176.0980  135.8560 C   0  0  0  0  0  3  0  0  0  0  0  0
  188.8980  173.5000  136.8930 C   0  0  0  0  0  2  0  0  0  0  0  0
  189.6350  176.1740  135.5480 C   0  0  1  0  0  3  0  0  0  0  0  0
  185.1300  177.1950  134.6750 C   0  0  0  0  0  3  0  0  0  0  0  0
  187.4620  176.2470  134.6080 C   0  0  1  0  0  3  0  0  0  0  0  0
  188.7970  177.0210  137.6730 O   0  0  0  0  0  0  0  0  0  0  0  0
  189.0310  176.8740  139.0430 C   0  0  0  0  0  2  0  0  0  0  0  0
  187.7010  178.0380  141.9600 C   0  0  0  0  0  2  0  0  0  0  0  0
  187.2660  178.4600  139.6470 N   0  0  0  0  0  2  0  0  0  0  0  0
  188.6910  178.1630  139.7800 C   0  0  1  0  0  3  0  0  0  0  0  0
  186.7670  178.7170  140.9910 C   0  0  0  0  0  2  0  0  0  0  0  0
  189.0290  178.0510  141.2560 C   0  0  0  0  0  2  0  0  0  0  0  0
  1 18  1  0  0  0  0
  2 27  1  0  0  0  0
  2 14  1  0  0  0  0
  3  7  1  6  0  0  0
  3 19  1  0  0  0  0
  3 16  1  0  0  0  0
  4 15  1  0  0  0  0
  5 11  1  6  0  0  0
  6  7  1  6  0  0  0
  6  3  1  0  0  0  0
  6 19  1  0  0  0  0
  8 16  1  0  0  0  0
  8 12  1  0  0  0  0
  9 25  1  0  0  0  0
  9 13  1  0  0  0  0
 13 24  1  0  0  0  0
 14 25  1  0  0  0  0
 15  5  1  0  0  0  0
 15 12  1  0  0  0  0
 17 28  1  0  0  0  0
 17 10  1  0  0  0  0
 18  4  2  0  0  0  0
 18 20  1  0  0  0  0
 19  5  1  0  0  0  0
 20 13  1  0  0  0  0
 20 11  1  0  0  0  0
 21 23  2  0  0  0  0
 22 10  1  0  0  0  0
 23  4  1  0  0  0  0
 24 22  1  0  0  0  0
 25 17  1  0  0  0  0
 26 21  1  0  0  0  0
 26  1  2  0  0  0  0
 27  1  1  0  0  0  0
 27  9  1  0  0  0  0
 28 29  1  0  0  0  0
 29 32  1  0  0  0  0
 31 32  1  0  0  0  0
 31 33  1  0  0  0  0
 32 34  1  0  0  0  0
 33 30  1  0  0  0  0
 34 30  1  0  0  0  0
M  END
>  <MODEL>
3

>  <REMARK>
 VINA RESULT:      -6.0      2.640      7.987
  Name = 
  3 active torsions:
  status: ('A' for Active; 'I' for Inactive)
    1  A    between atoms: C_17  and  O_28
    2  A    between atoms: O_28  and  C_29
    3  A    between atoms: C_29  and  C_32
                            x       y       z     vdW  Elec       q    Type
                         _______ _______ _______ _____ _____    ______ ____

>  <TORSDO>
F 3

$$$$
=
 OpenBabel11122412113D

 34 42  0  0  1  0  0  0  0  0999 V2000
  185.9650  178.3040  139.4980 C   0  0  0  0  0  0  0  0  0  0  0  0
  188.2510  177.4920  138.8240 C   0  0  0  0  0  2  0  0  0  0  0  0
  180.3820  180.4890  138.5200 C   0  0  2  0  0  0  0  0  0  0  0  0
  183.6260  178.3660  140.1870 C   0  0  0  0  0  0  0  0  0  0  0  0
  181.7890  178.3220  138.4510 C   0  0  1  0  0  3  0  0  0  0  0  0
  181.8150  180.8760  138.8650 C   0  0  2  0  0  3  0  0  0  0  0  0
  180.7410  181.9400  138.7560 C   0  0  0  0  0  2  0  0  0  0  0  0
  180.4620  179.5740  140.9920 C   0  0  0  0  0  2  0  0  0  0  0  0
  186.5970  177.8440  137.0700 N   0  0  2  0  0  0  0  0  0  0  0  0
  186.2780  175.1340  135.2860 C   0  0  0  0  0  2  0  0  0  0  0  0
  182.7900  177.5610  137.5890 C   0  0  0  0  0  2  0  0  0  0  0  0
  181.2000  178.2480  140.8870 C   0  0  0  0  0  2  0  0  0  0  0  0
  185.2160  177.3130  136.9550 C   0  0  1  0  0  3  0  0  0  0  0  0
  188.8320  177.0120  137.5280 C   0  0  0  0  0  2  0  0  0  0  0  0
  182.2260  178.3130  139.8510 N   0  0  0  0  0  0  0  0  0  0  0  0
  179.6450  179.8470  139.7240 C   0  0  0  0  0  2  0  0  0  0  0  0
  187.2010  175.4110  136.4870 C   0  0  1  0  0  3  0  0  0  0  0  0
  184.6030  178.2520  139.1700 C   0  0  0  0  0  0  0  0  0  0  0  0
  181.5530  179.7390  137.8840 C   0  0  2  0  0  3  0  0  0  0  0  0
  184.1990  178.1580  137.7260 C   0  0  2  0  0  3  0  0  0  0  0  0
  185.3880  178.5730  141.8430 C   0  0  0  0  0  3  0  0  0  0  0  0
  185.7510  176.3970  134.6020 C   0  0  0  0  0  2  0  0  0  0  0  0
  184.0330  178.5120  141.5210 C   0  0  0  0  0  3  0  0  0  0  0  0
  184.7870  177.1940  135.4810 C   0  0  0  0  0  2  0  0  0  0  0  0
  187.6410  176.8940  136.6050 C   0  0  1  0  0  3  0  0  0  0  0  0
  186.3460  178.4810  140.8360 C   0  0  0  0  0  3  0  0  0  0  0  0
  187.0240  178.2870  138.4190 C   0  0  1  0  0  3  0  0  0  0  0  0
  186.5960  174.9660  137.6670 O   0  0  0  0  0  0  0  0  0  0  0  0
  186.5360  173.5740  137.5580 C   0  0  0  0  0  2  0  0  0  0  0  0
  183.5250  172.8910  136.1100 C   0  0  0  0  0  2  0  0  0  0  0  0
  184.2100  174.2060  137.9860 N   0  0  0  0  0  2  0  0  0  0  0  0
  185.1320  173.0770  137.8790 C   0  0  1  0  0  3  0  0  0  0  0  0
  183.0660  173.8900  137.1420 C   0  0  0  0  0  2  0  0  0  0  0  0
  184.6280  172.1370  136.7990 C   0  0  0  0  0  2  0  0  0  0  0  0
  1 26  1  0  0  0  0
  3  7  1  6  0  0  0
  3  6  1  0  0  0  0
  3 16  1  0  0  0  0
  4 23  2  0  0  0  0
  5 11  1  6  0  0  0
  5 15  1  0  0  0  0
  6  7  1  6  0  0  0
  9 27  1  0  0  0  0
 10 17  1  0  0  0  0
 11 20  1  0  0  0  0
 12  8  1  0  0  0  0
 13  9  1  0  0  0  0
 13 20  1  0  0  0  0
 14  2  1  0  0  0  0
 15  4  1  0  0  0  0
 15 12  1  0  0  0  0
 16  8  1  0  0  0  0
 17 25  1  0  0  0  0
 17 28  1  0  0  0  0
 18  1  2  0  0  0  0
 18  4  1  0  0  0  0
 19  5  1  0  0  0  0
 19  3  1  0  0  0  0
 19  6  1  0  0  0  0
 20 18  1  0  0  0  0
 22 10  1  0  0  0  0
 22 24  1  0  0  0  0
 23 21  1  0  0  0  0
 24 13  1  0  0  0  0
 25  9  1  0  0  0  0
 25 14  1  0  0  0  0
 26 21  2  0  0  0  0
 27  2  1  0  0  0  0
 27  1  1  0  0  0  0
 29 28  1  0  0  0  0
 29 32  1  0  0  0  0
 30 34  1  0  0  0  0
 30 33  1  0  0  0  0
 32 31  1  0  0  0  0
 33 31  1  0  0  0  0
 34 32  1  0  0  0  0
M  END
>  <MODEL>
4

>  <REMARK>
 VINA RESULT:      -5.7      3.206      6.701
  Name = 
  3 active torsions:
  status: ('A' for Active; 'I' for Inactive)
    1  A    between atoms: C_17  and  O_28
    2  A    between atoms: O_28  and  C_29
    3  A    between atoms: C_29  and  C_32
                            x       y       z     vdW  Elec       q    Type
                         _______ _______ _______ _____ _____    ______ ____

>  <TORSDO>
F 3

$$$$
=
 OpenBabel11122412113D

 34 42  0  0  1  0  0  0  0  0999 V2000
  183.2260  178.3580  140.2180 C   0  0  0  0  0  0  0  0  0  0  0  0
  181.2480  179.2490  141.4960 C   0  0  0  0  0  2  0  0  0  0  0  0
  185.9910  174.9950  135.9810 C   0  0  2  0  0  0  0  0  0  0  0  0
  185.0720  178.1420  138.6380 C   0  0  0  0  0  0  0  0  0  0  0  0
  184.6670  177.1860  136.3340 C   0  0  1  0  0  3  0  0  0  0  0  0
  185.5750  175.0340  137.4470 C   0  0  2  0  0  3  0  0  0  0  0  0
  186.3190  173.8350  136.8960 C   0  0  0  0  0  2  0  0  0  0  0  0
  187.7260  176.7830  136.8420 C   0  0  0  0  0  2  0  0  0  0  0  0
  180.8190  177.9610  139.4720 N   0  0  2  0  0  0  0  0  0  0  0  0
  178.9310  179.6760  137.4440 C   0  0  0  0  0  2  0  0  0  0  0  0
  183.2500  177.7270  136.4930 C   0  0  0  0  0  2  0  0  0  0  0  0
  186.9330  178.0780  136.9280 C   0  0  0  0  0  2  0  0  0  0  0  0
  181.3580  178.1480  138.1020 C   0  0  1  0  0  3  0  0  0  0  0  0
  179.7760  179.2930  141.2130 C   0  0  0  0  0  2  0  0  0  0  0  0
  185.5540  177.8090  137.3210 N   0  0  0  0  0  0  0  0  0  0  0  0
  187.2140  175.9030  135.6960 C   0  0  0  0  0  2  0  0  0  0  0  0
  179.4580  180.0510  138.8400 C   0  0  1  0  0  3  0  0  0  0  0  0
  183.6940  178.0330  138.9360 C   0  0  0  0  0  0  0  0  0  0  0  0
  184.6660  175.6420  136.3860 C   0  0  2  0  0  3  0  0  0  0  0  0
  182.7290  177.4930  137.9180 C   0  0  2  0  0  3  0  0  0  0  0  0
  185.4920  178.9060  140.9030 C   0  0  0  0  0  3  0  0  0  0  0  0
  178.9590  178.1750  137.1500 C   0  0  0  0  0  2  0  0  0  0  0  0
  185.9580  178.5930  139.6270 C   0  0  0  0  0  3  0  0  0  0  0  0
  180.3780  177.6140  137.0410 C   0  0  0  0  0  2  0  0  0  0  0  0
  179.6560  178.8320  139.7790 C   0  0  1  0  0  3  0  0  0  0  0  0
  184.1370  178.7780  141.1990 C   0  0  0  0  0  3  0  0  0  0  0  0
  181.7750  178.1520  140.5890 C   0  0  1  0  0  3  0  0  0  0  0  0
  180.6360  180.7960  138.7220 O   0  0  0  0  0  0  0  0  0  0  0  0
  180.2380  182.0650  138.2920 C   0  0  0  0  0  2  0  0  0  0  0  0
  180.8650  184.7940  136.3440 C   0  0  0  0  0  2  0  0  0  0  0  0
  180.7120  182.4450  135.9200 N   0  0  0  0  0  2  0  0  0  0  0  0
  181.2310  182.6150  137.2750 C   0  0  1  0  0  3  0  0  0  0  0  0
  180.8270  183.7410  135.2650 C   0  0  0  0  0  2  0  0  0  0  0  0
  181.4920  184.0910  137.5150 C   0  0  0  0  0  2  0  0  0  0  0  0
  1 27  1  0  0  0  0
  1 26  1  0  0  0  0
  3 16  1  6  0  0  0
  3 19  1  0  0  0  0
  3  7  1  0  0  0  0
  3  6  1  0  0  0  0
  4 18  1  0  0  0  0
  4 23  2  0  0  0  0
  5 19  1  0  0  0  0
  5 11  1  1  0  0  0
  5 15  1  0  0  0  0
  6  7  1  6  0  0  0
  8 12  1  0  0  0  0
  9 25  1  0  0  0  0
  9 27  1  0  0  0  0
 10 17  1  0  0  0  0
 11 20  1  0  0  0  0
 12 15  1  0  0  0  0
 13  9  1  0  0  0  0
 14  2  1  0  0  0  0
 15  4  1  0  0  0  0
 16  8  1  0  0  0  0
 17 25  1  0  0  0  0
 18  1  2  0  0  0  0
 19  6  1  0  0  0  0
 20 13  1  0  0  0  0
 20 18  1  0  0  0  0
 21 26  2  0  0  0  0
 22 10  1  0  0  0  0
 23 21  1  0  0  0  0
 24 22  1  0  0  0  0
 24 13  1  0  0  0  0
 25 14  1  0  0  0  0
 27  2  1  0  0  0  0
 28 17  1  0  0  0  0
 29 28  1  0  0  0  0
 30 34  1  0  0  0  0
 31 32  1  0  0  0  0
 32 34  1  0  0  0  0
 32 29  1  0  0  0  0
 33 31  1  0  0  0  0
 33 30  1  0  0  0  0
M  END
>  <MODEL>
5

>  <REMARK>
 VINA RESULT:      -5.4      4.232      8.366
  Name = 
  3 active torsions:
  status: ('A' for Active; 'I' for Inactive)
    1  A    between atoms: C_17  and  O_28
    2  A    between atoms: O_28  and  C_29
    3  A    between atoms: C_29  and  C_32
                            x       y       z     vdW  Elec       q    Type
                         _______ _______ _______ _____ _____    ______ ____

>  <TORSDO>
F 3

$$$$
=
 OpenBabel11122412113D

 34 42  0  0  1  0  0  0  0  0999 V2000
  185.6200  177.9640  137.4420 C   0  0  0  0  0  0  0  0  0  0  0  0
  187.9120  178.9380  137.0680 C   0  0  0  0  0  2  0  0  0  0  0  0
  181.0780  174.0410  136.5050 C   0  0  2  0  0  0  0  0  0  0  0  0
  183.7430  176.7220  138.3810 C   0  0  0  0  0  0  0  0  0  0  0  0
  183.3470  174.3180  137.7090 C   0  0  1  0  0  3  0  0  0  0  0  0
  181.6250  175.4100  136.1170 C   0  0  2  0  0  3  0  0  0  0  0  0
  180.3240  174.9100  135.5220 C   0  0  0  0  0  2  0  0  0  0  0  0
  180.5770  175.3240  138.7530 C   0  0  0  0  0  2  0  0  0  0  0  0
  187.4040  176.7800  136.0570 N   0  0  2  0  0  0  0  0  0  0  0  0
  189.6460  174.5850  136.9400 C   0  0  0  0  0  2  0  0  0  0  0  0
  184.8530  174.2650  137.4730 C   0  0  0  0  0  2  0  0  0  0  0  0
  181.9130  175.3660  139.4780 C   0  0  0  0  0  2  0  0  0  0  0  0
  186.8760  175.5440  136.6850 C   0  0  1  0  0  3  0  0  0  0  0  0
  189.1670  178.4050  136.4430 C   0  0  0  0  0  2  0  0  0  0  0  0
  183.0100  175.4900  138.5240 N   0  0  0  0  0  0  0  0  0  0  0  0
  180.4460  174.0430  137.9210 C   0  0  0  0  0  2  0  0  0  0  0  0
  189.5410  176.0760  137.3050 C   0  0  1  0  0  3  0  0  0  0  0  0
  184.9070  176.7650  137.5800 C   0  0  0  0  0  0  0  0  0  0  0  0
  182.5860  174.2530  136.3680 C   0  0  2  0  0  3  0  0  0  0  0  0
  185.3490  175.5550  136.8040 C   0  0  2  0  0  3  0  0  0  0  0  0
  184.0250  179.0760  138.9000 C   0  0  0  0  0  3  0  0  0  0  0  0
  188.8400  174.1900  135.7000 C   0  0  0  0  0  2  0  0  0  0  0  0
  183.3200  177.8820  139.0460 C   0  0  0  0  0  3  0  0  0  0  0  0
  187.3290  174.2900  135.9130 C   0  0  0  0  0  2  0  0  0  0  0  0
  188.8740  176.9420  136.2040 C   0  0  1  0  0  3  0  0  0  0  0  0
  185.1600  179.1190  138.0930 C   0  0  0  0  0  3  0  0  0  0  0  0
  186.8080  178.0590  136.5110 C   0  0  1  0  0  3  0  0  0  0  0  0
  188.8860  176.2230  138.5320 O   0  0  0  0  0  0  0  0  0  0  0  0
  189.8970  176.4110  139.4790 C   0  0  0  0  0  2  0  0  0  0  0  0
  188.5500  177.3280  142.4750 C   0  0  0  0  0  2  0  0  0  0  0  0
  188.1890  178.0050  140.2100 N   0  0  0  0  0  2  0  0  0  0  0  0
  189.5960  177.6320  140.3390 C   0  0  1  0  0  3  0  0  0  0  0  0
  187.6700  178.1460  141.5640 C   0  0  0  0  0  2  0  0  0  0  0  0
  189.8930  177.3530  141.8020 C   0  0  0  0  0  2  0  0  0  0  0  0
  1 18  2  0  0  0  0
  1 26  1  0  0  0  0
  3  7  1  6  0  0  0
  3 16  1  0  0  0  0
  4 15  1  0  0  0  0
  4 23  2  0  0  0  0
  5 11  1  6  0  0  0
  5 15  1  0  0  0  0
  6  7  1  6  0  0  0
  6 19  1  0  0  0  0
  6  3  1  0  0  0  0
  8 12  1  0  0  0  0
  9 25  1  0  0  0  0
  9 27  1  0  0  0  0
  9 13  1  0  0  0  0
 10 17  1  0  0  0  0
 13 20  1  0  0  0  0
 14  2  1  0  0  0  0
 15 12  1  0  0  0  0
 16  8  1  0  0  0  0
 17 28  1  0  0  0  0
 18  4  1  0  0  0  0
 19  3  1  0  0  0  0
 19  5  1  0  0  0  0
 20 11  1  0  0  0  0
 20 18  1  0  0  0  0
 21 23  1  0  0  0  0
 22 24  1  0  0  0  0
 22 10  1  0  0  0  0
 24 13  1  0  0  0  0
 25 14  1  0  0  0  0
 25 17  1  0  0  0  0
 26 21  2  0  0  0  0
 27  2  1  0  0  0  0
 27  1  1  0  0  0  0
 28 29  1  0  0  0  0
 29 32  1  0  0  0  0
 31 32  1  0  0  0  0
 31 33  1  0  0  0  0
 32 34  1  0  0  0  0
 33 30  1  0  0  0  0
 34 30  1  0  0  0  0
M  END
>  <MODEL>
6

>  <REMARK>
 VINA RESULT:      -5.3      2.578      7.601
  Name = 
  3 active torsions:
  status: ('A' for Active; 'I' for Inactive)
    1  A    between atoms: C_17  and  O_28
    2  A    between atoms: O_28  and  C_29
    3  A    between atoms: C_29  and  C_32
                            x       y       z     vdW  Elec       q    Type
                         _______ _______ _______ _____ _____    ______ ____

>  <TORSDO>
F 3

$$$$
=
 OpenBabel11122412113D

 34 42  0  0  1  0  0  0  0  0999 V2000
  183.2820  177.0580  139.1690 C   0  0  0  0  0  0  0  0  0  0  0  0
  180.9220  176.8030  140.0080 C   0  0  0  0  0  2  0  0  0  0  0  0
  188.1220  175.6040  135.7990 C   0  0  2  0  0  0  0  0  0  0  0  0
  185.2500  177.8250  137.9480 C   0  0  0  0  0  0  0  0  0  0  0  0
  185.8350  176.8030  135.7120 C   0  0  1  0  0  3  0  0  0  0  0  0
  187.4700  175.4200  137.1640 C   0  0  2  0  0  3  0  0  0  0  0  0
  188.8080  174.7750  136.8630 C   0  0  0  0  0  2  0  0  0  0  0  0
  188.5150  178.0270  136.7600 C   0  0  0  0  0  2  0  0  0  0  0  0
  181.6010  175.4830  138.0750 N   0  0  2  0  0  0  0  0  0  0  0  0
  179.5370  175.9910  135.6040 C   0  0  0  0  0  2  0  0  0  0  0  0
  184.3390  176.5390  135.5790 C   0  0  0  0  0  2  0  0  0  0  0  0
  187.1770  178.7300  136.5870 C   0  0  0  0  0  2  0  0  0  0  0  0
  182.2240  175.9240  136.8020 C   0  0  1  0  0  3  0  0  0  0  0  0
  179.7150  176.0860  139.4810 C   0  0  0  0  0  2  0  0  0  0  0  0
  186.0770  177.7900  136.7690 N   0  0  0  0  0  0  0  0  0  0  0  0
  188.7480  177.0120  135.6350 C   0  0  0  0  0  2  0  0  0  0  0  0
  179.5230  176.5790  137.0260 C   0  0  1  0  0  3  0  0  0  0  0  0
  184.0870  177.0230  138.0220 C   0  0  0  0  0  0  0  0  0  0  0  0
  186.6030  175.4780  135.9120 C   0  0  2  0  0  3  0  0  0  0  0  0
  183.7440  176.0670  136.9140 C   0  0  2  0  0  3  0  0  0  0  0  0
  184.7820  178.6910  140.1670 C   0  0  0  0  0  3  0  0  0  0  0  0
  180.3750  174.7180  135.4660 C   0  0  0  0  0  2  0  0  0  0  0  0
  185.5780  178.6650  139.0220 C   0  0  0  0  0  3  0  0  0  0  0  0
  181.8720  174.9650  135.6500 C   0  0  0  0  0  2  0  0  0  0  0  0
  180.1230  175.6330  138.0980 C   0  0  1  0  0  3  0  0  0  0  0  0
  183.6480  177.8830  140.2430 C   0  0  0  0  0  3  0  0  0  0  0  0
  182.0940  176.1350  139.3120 C   0  0  1  0  0  3  0  0  0  0  0  0
  180.1610  177.8240  137.0340 O   0  0  0  0  0  0  0  0  0  0  0  0
  179.1390  178.7710  137.1350 C   0  0  0  0  0  2  0  0  0  0  0  0
  181.6220  180.4590  138.7530 C   0  0  0  0  0  2  0  0  0  0  0  0
  179.2550  180.7520  138.5700 N   0  0  0  0  0  2  0  0  0  0  0  0
  179.7250  180.1660  137.3160 C   0  0  1  0  0  3  0  0  0  0  0  0
  180.4370  181.2340  139.2720 C   0  0  0  0  0  2  0  0  0  0  0  0
  181.2420  180.1180  137.3390 C   0  0  0  0  0  2  0  0  0  0  0  0
  1 27  1  0  0  0  0
  1 26  1  0  0  0  0
  3 16  1  6  0  0  0
  3 19  1  0  0  0  0
  3  7  1  0  0  0  0
  3  6  1  0  0  0  0
  4 18  1  0  0  0  0
  4 23  2  0  0  0  0
  5 11  1  1  0  0  0
  5 19  1  0  0  0  0
  5 15  1  0  0  0  0
  6  7  1  6  0  0  0
  9 25  1  0  0  0  0
  9 27  1  0  0  0  0
 10 17  1  0  0  0  0
 11 20  1  0  0  0  0
 12  8  1  0  0  0  0
 12 15  1  0  0  0  0
 13 20  1  0  0  0  0
 13  9  1  0  0  0  0
 14  2  1  0  0  0  0
 15  4  1  0  0  0  0
 16  8  1  0  0  0  0
 17 28  1  0  0  0  0
 17 25  1  0  0  0  0
 18  1  2  0  0  0  0
 19  6  1  0  0  0  0
 20 18  1  0  0  0  0
 21 26  2  0  0  0  0
 22 10  1  0  0  0  0
 22 24  1  0  0  0  0
 23 21  1  0  0  0  0
 24 13  1  0  0  0  0
 25 14  1  0  0  0  0
 27  2  1  0  0  0  0
 28 29  1  0  0  0  0
 29 32  1  0  0  0  0
 30 33  1  0  0  0  0
 31 33  1  0  0  0  0
 32 34  1  0  0  0  0
 32 31  1  0  0  0  0
 34 30  1  0  0  0  0
M  END
>  <MODEL>
7

>  <REMARK>
 VINA RESULT:      -5.2      4.182      7.844
  Name = 
  3 active torsions:
  status: ('A' for Active; 'I' for Inactive)
    1  A    between atoms: C_17  and  O_28
    2  A    between atoms: O_28  and  C_29
    3  A    between atoms: C_29  and  C_32
                            x       y       z     vdW  Elec       q    Type
                         _______ _______ _______ _____ _____    ______ ____

>  <TORSDO>
F 3

$$$$
=
 OpenBabel11122412113D

 34 42  0  0  1  0  0  0  0  0999 V2000
  181.3850  179.4190  137.0280 C   0  0  0  0  0  0  0  0  0  0  0  0
  179.6430  180.8330  138.1710 C   0  0  0  0  0  2  0  0  0  0  0  0
  186.7270  176.5670  136.5520 C   0  0  2  0  0  0  0  0  0  0  0  0
  182.6330  177.5100  136.1610 C   0  0  0  0  0  0  0  0  0  0  0  0
  184.3720  176.3720  137.5990 C   0  0  1  0  0  3  0  0  0  0  0  0
  185.9810  177.8520  136.2140 C   0  0  2  0  0  3  0  0  0  0  0  0
  187.4260  177.6760  135.7960 C   0  0  0  0  0  2  0  0  0  0  0  0
  185.1480  175.6280  134.6620 C   0  0  0  0  0  2  0  0  0  0  0  0
  181.5510  180.0770  139.4860 N   0  0  2  0  0  0  0  0  0  0  0  0
  180.5110  178.5260  142.1580 C   0  0  0  0  0  2  0  0  0  0  0  0
  183.5330  176.8510  138.7780 C   0  0  0  0  0  2  0  0  0  0  0  0
  183.8060  175.4240  135.3480 C   0  0  0  0  0  2  0  0  0  0  0  0
  182.0820  178.7040  139.6760 C   0  0  1  0  0  3  0  0  0  0  0  0
  179.4170  181.2330  139.5990 C   0  0  0  0  0  2  0  0  0  0  0  0
  183.5880  176.4500  136.3620 N   0  0  0  0  0  0  0  0  0  0  0  0
  186.3040  175.3880  135.6390 C   0  0  0  0  0  2  0  0  0  0  0  0
  179.6960  179.1920  141.0350 C   0  0  1  0  0  3  0  0  0  0  0  0
  182.3150  178.3880  137.2240 C   0  0  0  0  0  0  0  0  0  0  0  0
  185.7090  177.1440  137.5360 C   0  0  2  0  0  3  0  0  0  0  0  0
  183.0230  178.2800  138.5450 C   0  0  2  0  0  3  0  0  0  0  0  0
  181.0820  178.7030  134.7250 C   0  0  0  0  0  3  0  0  0  0  0  0
  181.9640  179.0000  142.2370 C   0  0  0  0  0  2  0  0  0  0  0  0
  181.9990  177.6710  134.9210 C   0  0  0  0  0  3  0  0  0  0  0  0
  182.8000  178.5680  141.0310 C   0  0  0  0  0  2  0  0  0  0  0  0
  180.4100  180.4030  140.3810 C   0  0  1  0  0  3  0  0  0  0  0  0
  180.7870  179.5780  135.7680 C   0  0  0  0  0  3  0  0  0  0  0  0
  181.1050  180.4290  138.1170 C   0  0  1  0  0  3  0  0  0  0  0  0
  179.3360  178.2370  140.0770 O   0  0  0  0  0  0  0  0  0  0  0  0
  179.1710  177.0410  140.7800 C   0  0  0  0  0  2  0  0  0  0  0  0
  180.8110  174.9170  138.6750 C   0  0  0  0  0  2  0  0  0  0  0  0
  178.9310  176.3760  138.4360 N   0  0  0  0  0  2  0  0  0  0  0  0
  178.9370  175.8870  139.8130 C   0  0  1  0  0  3  0  0  0  0  0  0
  179.8460  175.5240  137.6890 C   0  0  0  0  0  2  0  0  0  0  0  0
  180.0220  174.8340  139.9520 C   0  0  0  0  0  2  0  0  0  0  0  0
  1 18  1  0  0  0  0
  1 27  1  0  0  0  0
  2 14  1  0  0  0  0
  3 16  1  6  0  0  0
  3 19  1  0  0  0  0
  4 15  1  0  0  0  0
  4 18  2  0  0  0  0
  5 11  1  1  0  0  0
  6  7  1  1  0  0  0
  6  3  1  0  0  0  0
  6 19  1  0  0  0  0
  7  3  1  0  0  0  0
  8 12  1  0  0  0  0
  8 16  1  0  0  0  0
  9 13  1  0  0  0  0
  9 25  1  0  0  0  0
 10 22  1  0  0  0  0
 12 15  1  0  0  0  0
 13 24  1  0  0  0  0
 14 25  1  0  0  0  0
 15  5  1  0  0  0  0
 17 10  1  0  0  0  0
 18 20  1  0  0  0  0
 19  5  1  0  0  0  0
 20 11  1  0  0  0  0
 20 13  1  0  0  0  0
 21 23  2  0  0  0  0
 21 26  1  0  0  0  0
 23  4  1  0  0  0  0
 24 22  1  0  0  0  0
 25 17  1  0  0  0  0
 26  1  2  0  0  0  0
 27  2  1  0  0  0  0
 27  9  1  0  0  0  0
 28 29  1  0  0  0  0
 28 17  1  0  0  0  0
 30 34  1  0  0  0  0
 31 32  1  0  0  0  0
 32 34  1  0  0  0  0
 32 29  1  0  0  0  0
 33 31  1  0  0  0  0
 33 30  1  0  0  0  0
M  END
>  <MODEL>
8

>  <REMARK>
 VINA RESULT:      -5.1      5.171      8.328
  Name = 
  3 active torsions:
  status: ('A' for Active; 'I' for Inactive)
    1  A    between atoms: C_17  and  O_28
    2  A    between atoms: O_28  and  C_29
    3  A    between atoms: C_29  and  C_32
                            x       y       z     vdW  Elec       q    Type
                         _______ _______ _______ _____ _____    ______ ____

>  <TORSDO>
F 3

$$$$
=
 OpenBabel11122412113D

 34 42  0  0  1  0  0  0  0  0999 V2000
  186.4270  178.3940  139.6160 C   0  0  0  0  0  0  0  0  0  0  0  0
  188.8160  177.8120  139.0740 C   0  0  0  0  0  2  0  0  0  0  0  0
  180.7750  180.2240  138.3470 C   0  0  2  0  0  0  0  0  0  0  0  0
  184.0450  178.2260  140.1140 C   0  0  0  0  0  0  0  0  0  0  0  0
  182.3540  178.1820  138.2360 C   0  0  1  0  0  3  0  0  0  0  0  0
  182.1420  180.6900  138.8340 C   0  0  2  0  0  3  0  0  0  0  0  0
  180.9970  181.6750  138.7160 C   0  0  0  0  0  2  0  0  0  0  0  0
  180.7420  179.1260  140.7440 C   0  0  0  0  0  2  0  0  0  0  0  0
  187.2750  178.1750  137.2210 N   0  0  2  0  0  0  0  0  0  0  0  0
  187.3130  175.5980  135.2250 C   0  0  0  0  0  2  0  0  0  0  0  0
  183.4760  177.5680  137.4060 C   0  0  0  0  0  2  0  0  0  0  0  0
  181.5900  177.8720  140.6040 C   0  0  0  0  0  2  0  0  0  0  0  0
  185.9540  177.5530  136.9550 C   0  0  1  0  0  3  0  0  0  0  0  0
  189.5300  177.4800  137.7970 C   0  0  0  0  0  2  0  0  0  0  0  0
  182.6830  178.0950  139.6630 N   0  0  0  0  0  0  0  0  0  0  0  0
  180.0040  179.4360  139.4370 C   0  0  0  0  0  2  0  0  0  0  0  0
  188.1170  175.8490  136.5140 C   0  0  1  0  0  3  0  0  0  0  0  0
  185.1010  178.2670  139.1750 C   0  0  0  0  0  0  0  0  0  0  0  0
  182.0470  179.6170  137.7560 C   0  0  2  0  0  3  0  0  0  0  0  0
  184.8170  178.2560  137.7000 C   0  0  2  0  0  3  0  0  0  0  0  0
  185.6540  178.4340  141.9200 C   0  0  0  0  0  3  0  0  0  0  0  0
  186.7390  176.8680  134.5940 C   0  0  0  0  0  2  0  0  0  0  0  0
  184.3360  178.2970  141.4840 C   0  0  0  0  0  3  0  0  0  0  0  0
  185.6490  177.5190  135.4460 C   0  0  0  0  0  2  0  0  0  0  0  0
  188.4250  177.3460  136.7750 C   0  0  1  0  0  3  0  0  0  0  0  0
  186.6900  178.4940  140.9900 C   0  0  0  0  0  3  0  0  0  0  0  0
  187.5620  178.5420  138.6280 C   0  0  1  0  0  3  0  0  0  0  0  0
  187.4620  175.2680  137.6050 O   0  0  0  0  0  0  0  0  0  0  0  0
  186.4190  174.5130  137.0610 C   0  0  0  0  0  2  0  0  0  0  0  0
  188.2070  171.8440  135.9120 C   0  0  0  0  0  2  0  0  0  0  0  0
  185.8880  172.2290  136.3550 N   0  0  0  0  0  2  0  0  0  0  0  0
  186.6570  173.0280  137.3070 C   0  0  1  0  0  3  0  0  0  0  0  0
  186.8180  171.2750  135.7660 C   0  0  0  0  0  2  0  0  0  0  0  0
  188.1270  172.6810  137.1590 C   0  0  0  0  0  2  0  0  0  0  0  0
  1 26  1  0  0  0  0
  3  7  1  6  0  0  0
  3  6  1  0  0  0  0
  3 16  1  0  0  0  0
  4 23  2  0  0  0  0
  5 11  1  6  0  0  0
  5 15  1  0  0  0  0
  6  7  1  6  0  0  0
  9 27  1  0  0  0  0
 10 17  1  0  0  0  0
 11 20  1  0  0  0  0
 12  8  1  0  0  0  0
 13  9  1  0  0  0  0
 13 20  1  0  0  0  0
 14  2  1  0  0  0  0
 15  4  1  0  0  0  0
 15 12  1  0  0  0  0
 16  8  1  0  0  0  0
 17 25  1  0  0  0  0
 17 28  1  0  0  0  0
 18  1  2  0  0  0  0
 18  4  1  0  0  0  0
 19  5  1  0  0  0  0
 19  3  1  0  0  0  0
 19  6  1  0  0  0  0
 20 18  1  0  0  0  0
 22 10  1  0  0  0  0
 22 24  1  0  0  0  0
 23 21  1  0  0  0  0
 24 13  1  0  0  0  0
 25  9  1  0  0  0  0
 25 14  1  0  0  0  0
 26 21  2  0  0  0  0
 27  2  1  0  0  0  0
 27  1  1  0  0  0  0
 29 32  1  0  0  0  0
 29 28  1  0  0  0  0
 30 34  1  0  0  0  0
 31 32  1  0  0  0  0
 33 30  1  0  0  0  0
 33 31  1  0  0  0  0
 34 32  1  0  0  0  0
M  END
>  <MODEL>
9

>  <REMARK>
 VINA RESULT:      -4.6      2.873      6.322
  Name = 
  3 active torsions:
  status: ('A' for Active; 'I' for Inactive)
    1  A    between atoms: C_17  and  O_28
    2  A    between atoms: O_28  and  C_29
    3  A    between atoms: C_29  and  C_32
                            x       y       z     vdW  Elec       q    Type
                         _______ _______ _______ _____ _____    ______ ____

>  <TORSDO>
F 3

$$$$
