=
 OpenBabel11122410403D

 32 37  0  0  1  0  0  0  0  0999 V2000
  180.6080  176.5650  137.8330 C   0  0  0  0  0  2  0  0  0  0  0  0
  184.8870  178.8100  140.9350 C   0  0  1  0  0  3  0  0  0  0  0  0
  186.8650  177.9410  136.6370 C   0  0  0  0  0  2  0  0  0  0  0  0
  188.2090  177.7970  137.1980 N   0  0  0  0  0  2  0  0  0  0  0  0
  186.2120  178.2680  143.0390 C   0  0  0  0  0  0  0  0  0  0  0  0
  187.4190  177.8520  143.5960 C   0  0  0  0  0  0  0  0  0  0  0  0
  183.0620  177.4730  139.8800 C   0  0  0  0  0  0  0  0  0  0  0  0
  183.8640  179.6950  138.9740 C   0  0  0  0  0  2  0  0  0  0  0  0
  189.6490  177.2180  143.6740 C   0  0  1  0  0  3  0  0  0  0  0  0
  181.6300  178.8110  138.3010 C   0  0  0  0  0  2  0  0  0  0  0  0
  186.0650  178.9560  137.4540 C   0  0  0  0  0  2  0  0  0  0  0  0
  185.1660  179.3950  139.6050 N   0  0  2  0  0  0  0  0  0  0  0  0
  185.9260  178.4680  138.8340 N   0  0  2  0  0  0  0  0  0  0  0  0
  187.3090  178.1330  140.8570 C   0  0  0  0  0  0  0  0  0  0  0  0
  188.9730  177.3020  145.0250 C   0  0  0  0  0  3  0  0  0  0  0  0
  181.9970  175.4840  138.2990 S   0  0  0  0  0  0  0  0  0  0  0  0
  183.0450  178.4280  138.7050 C   0  0  2  0  0  3  0  0  0  0  0  0
  187.7240  177.6590  144.9650 N   0  0  0  0  0  0  0  0  0  0  0  0
  182.1620  176.2740  139.9300 C   0  0  0  0  0  2  0  0  0  0  0  0
  181.1100  177.8690  137.2240 C   0  0  2  0  0  3  0  0  0  0  0  0
  188.1070  177.3820  138.5970 C   0  0  0  0  0  2  0  0  0  0  0  0
  187.2950  178.4170  139.3810 C   0  0  1  0  0  3  0  0  0  0  0  0
  188.4730  177.7550  141.4690 N   0  0  0  0  0  0  0  0  0  0  0  0
  183.9500  177.6240  140.8690 C   0  0  0  0  0  3  0  0  0  0  0  0
  185.0350  178.5530  143.9120 C   0  0  0  0  0  1  0  0  0  0  0  0
  190.0480  175.7810  143.3950 C   0  0  0  0  0  1  0  0  0  0  0  0
  186.1570  178.4150  141.6330 C   0  0  0  0  0  0  0  0  0  0  0  0
  188.5040  177.6010  142.8150 C   0  0  0  0  0  0  0  0  0  0  0  0
  180.0220  178.5230  136.5120 N   0  0  0  0  0  2  0  0  0  0  0  0
  180.2160  179.2140  135.2770 C   0  0  0  0  0  0  0  0  0  0  0  0
  181.3630  179.3050  134.7640 O   0  0  0  0  0  0  0  0  0  0  0  0
  179.0530  179.8390  134.5940 C   0  0  0  0  0  1  0  0  0  0  0  0
  1 16  1  0  0  0  0
  2 24  1  6  0  0  0
  2 27  1  0  0  0  0
  3  4  1  0  0  0  0
  3 11  1  0  0  0  0
  4 21  1  0  0  0  0
  5  6  1  0  0  0  0
  5 25  1  0  0  0  0
  6 18  1  0  0  0  0
  7 19  1  0  0  0  0
  7 24  2  0  0  0  0
  9 26  1  6  0  0  0
  9 15  1  0  0  0  0
 12  8  1  6  0  0  0
 12  2  1  0  0  0  0
 13 11  1  6  0  0  0
 13 22  1  0  0  0  0
 13 12  1  0  0  0  0
 14 23  2  0  0  0  0
 14 27  1  0  0  0  0
 16 19  1  0  0  0  0
 17 10  1  1  0  0  0
 17  8  1  0  0  0  0
 17  7  1  0  0  0  0
 18 15  2  0  0  0  0
 20 29  1  1  0  0  0
 20  1  1  0  0  0  0
 20 10  1  0  0  0  0
 22 21  1  6  0  0  0
 22 14  1  0  0  0  0
 23 28  1  0  0  0  0
 27  5  2  0  0  0  0
 28  6  2  0  0  0  0
 28  9  1  0  0  0  0
 30 29  1  0  0  0  0
 31 30  2  0  0  0  0
 32 30  1  0  0  0  0
M  END
>  <MODEL>
1

>  <REMARK>
 VINA RESULT:      -7.8      0.000      0.000
  Name = 
  1 active torsions:
  status: ('A' for Active; 'I' for Inactive)
    1  A    between atoms: C_20  and  N_29
                            x       y       z     vdW  Elec       q    Type
                         _______ _______ _______ _____ _____    ______ ____

>  <TORSDO>
F 1

$$$$
=
 OpenBabel11122410403D

 32 37  0  0  1  0  0  0  0  0999 V2000
  188.1480  174.3180  135.9170 C   0  0  0  0  0  2  0  0  0  0  0  0
  184.8130  178.5040  137.9950 C   0  0  1  0  0  3  0  0  0  0  0  0
  188.0850  177.7700  141.4440 C   0  0  0  0  0  2  0  0  0  0  0  0
  187.1900  178.2450  142.5010 N   0  0  0  0  0  2  0  0  0  0  0  0
  182.3810  178.8630  138.6530 C   0  0  0  0  0  0  0  0  0  0  0  0
  181.4500  179.0370  139.6750 C   0  0  0  0  0  0  0  0  0  0  0  0
  185.8830  176.4170  137.1400 C   0  0  0  0  0  0  0  0  0  0  0  0
  187.1310  178.5970  137.4510 C   0  0  0  0  0  2  0  0  0  0  0  0
  180.6540  179.3280  141.8340 C   0  0  1  0  0  3  0  0  0  0  0  0
  188.0700  176.8280  135.9630 C   0  0  0  0  0  2  0  0  0  0  0  0
  187.7990  178.5200  140.1430 C   0  0  0  0  0  2  0  0  0  0  0  0
  186.1400  178.9260  138.4960 N   0  0  2  0  0  0  0  0  0  0  0  0
  186.4170  178.2490  139.7190 N   0  0  2  0  0  0  0  0  0  0  0  0
  184.1020  178.8040  140.3900 C   0  0  0  0  0  0  0  0  0  0  0  0
  179.5870  179.3660  140.7620 C   0  0  0  0  0  3  0  0  0  0  0  0
  187.0780  173.9430  137.3410 S   0  0  0  0  0  0  0  0  0  0  0  0
  187.2400  177.0870  137.2110 C   0  0  2  0  0  3  0  0  0  0  0  0
  180.0500  179.2030  139.5560 N   0  0  0  0  0  0  0  0  0  0  0  0
  185.7340  174.9910  136.7010 C   0  0  0  0  0  2  0  0  0  0  0  0
  188.9450  175.5960  136.1520 C   0  0  2  0  0  3  0  0  0  0  0  0
  185.8020  178.0570  142.0810 C   0  0  0  0  0  2  0  0  0  0  0  0
  185.5560  178.8150  140.7730 C   0  0  1  0  0  3  0  0  0  0  0  0
  183.1420  179.0060  141.3440 N   0  0  0  0  0  0  0  0  0  0  0  0
  184.7840  177.0560  137.5570 C   0  0  0  0  0  3  0  0  0  0  0  0
  181.9380  178.8130  137.2280 C   0  0  0  0  0  1  0  0  0  0  0  0
  180.4240  178.1280  142.7340 C   0  0  0  0  0  1  0  0  0  0  0  0
  183.7420  178.7460  139.0200 C   0  0  0  0  0  0  0  0  0  0  0  0
  181.8400  179.0970  140.9770 C   0  0  0  0  0  0  0  0  0  0  0  0
  190.0540  175.6580  135.2120 N   0  0  0  0  0  2  0  0  0  0  0  0
  191.3860  175.9820  135.6130 C   0  0  0  0  0  0  0  0  0  0  0  0
  191.6470  176.2560  136.8140 O   0  0  0  0  0  0  0  0  0  0  0  0
  192.4740  176.0040  134.6010 C   0  0  0  0  0  1  0  0  0  0  0  0
  1 20  1  0  0  0  0
  1 16  1  0  0  0  0
  2 24  1  1  0  0  0
  2 12  1  0  0  0  0
  2 27  1  0  0  0  0
  3  4  1  0  0  0  0
  5 27  2  0  0  0  0
  5  6  1  0  0  0  0
  6 28  2  0  0  0  0
  7 17  1  0  0  0  0
  7 24  2  0  0  0  0
  9 26  1  1  0  0  0
 10 20  1  0  0  0  0
 11  3  1  0  0  0  0
 12  8  1  6  0  0  0
 12 13  1  0  0  0  0
 13 11  1  1  0  0  0
 13 22  1  0  0  0  0
 14 22  1  0  0  0  0
 14 23  2  0  0  0  0
 15  9  1  0  0  0  0
 17 10  1  6  0  0  0
 17  8  1  0  0  0  0
 18  6  1  0  0  0  0
 18 15  2  0  0  0  0
 19  7  1  0  0  0  0
 19 16  1  0  0  0  0
 20 29  1  6  0  0  0
 21  4  1  0  0  0  0
 22 21  1  1  0  0  0
 25  5  1  0  0  0  0
 27 14  1  0  0  0  0
 28 23  1  0  0  0  0
 28  9  1  0  0  0  0
 29 30  1  0  0  0  0
 30 31  2  0  0  0  0
 32 30  1  0  0  0  0
M  END
>  <MODEL>
2

>  <REMARK>
 VINA RESULT:      -5.9      3.275      7.060
  Name = 
  1 active torsions:
  status: ('A' for Active; 'I' for Inactive)
    1  A    between atoms: C_20  and  N_29
                            x       y       z     vdW  Elec       q    Type
                         _______ _______ _______ _____ _____    ______ ____

>  <TORSDO>
F 1

$$$$
=
 OpenBabel11122410403D

 32 37  0  0  1  0  0  0  0  0999 V2000
  191.4690  174.0630  135.6060 C   0  0  0  0  0  2  0  0  0  0  0  0
  186.8000  177.3870  135.9520 C   0  0  1  0  0  3  0  0  0  0  0  0
  189.1800  178.2530  140.0410 C   0  0  0  0  0  2  0  0  0  0  0  0
  187.9620  178.6230  140.7630 N   0  0  0  0  0  2  0  0  0  0  0  0
  184.2690  177.1280  136.0250 C   0  0  0  0  0  0  0  0  0  0  0  0
  183.0990  177.1980  136.7780 C   0  0  0  0  0  0  0  0  0  0  0  0
  188.5270  175.5880  135.8380 C   0  0  0  0  0  0  0  0  0  0  0  0
  189.0840  178.0570  135.8590 C   0  0  0  0  0  2  0  0  0  0  0  0
  181.7410  177.6140  138.6120 C   0  0  1  0  0  3  0  0  0  0  0  0
  190.7690  176.4090  135.0410 C   0  0  0  0  0  2  0  0  0  0  0  0
  189.0550  178.6480  138.5700 C   0  0  0  0  0  2  0  0  0  0  0  0
  187.8140  178.2590  136.5860 N   0  0  2  0  0  0  0  0  0  0  0  0
  187.9330  177.9160  137.9640 N   0  0  2  0  0  0  0  0  0  0  0  0
  185.4600  177.8780  138.0250 C   0  0  0  0  0  0  0  0  0  0  0  0
  181.0010  177.1520  137.3750 C   0  0  0  0  0  3  0  0  0  0  0  0
  190.2010  173.6450  136.8440 S   0  0  0  0  0  0  0  0  0  0  0  0
  189.6160  176.6270  136.0080 C   0  0  2  0  0  3  0  0  0  0  0  0
  181.7760  176.9240  136.3560 N   0  0  0  0  0  0  0  0  0  0  0  0
  188.8460  174.1270  135.7280 C   0  0  0  0  0  2  0  0  0  0  0  0
  191.8430  175.5390  135.6810 C   0  0  2  0  0  3  0  0  0  0  0  0
  186.8120  177.9680  140.1400 C   0  0  0  0  0  2  0  0  0  0  0  0
  186.7230  178.3810  138.6680 C   0  0  1  0  0  3  0  0  0  0  0  0
  184.2730  177.9540  138.7010 N   0  0  0  0  0  0  0  0  0  0  0  0
  187.2370  175.9410  135.8720 C   0  0  0  0  0  3  0  0  0  0  0  0
  184.2230  176.7030  134.5940 C   0  0  0  0  0  1  0  0  0  0  0  0
  181.5940  176.5770  139.7080 C   0  0  0  0  0  1  0  0  0  0  0  0
  185.4810  177.4800  136.6650 C   0  0  0  0  0  0  0  0  0  0  0  0
  183.1230  177.5950  138.0790 C   0  0  0  0  0  0  0  0  0  0  0  0
  193.1020  175.7570  134.9850 N   0  0  0  0  0  2  0  0  0  0  0  0
  194.2350  176.3590  135.6140 C   0  0  0  0  0  0  0  0  0  0  0  0
  194.1740  176.7510  136.8090 O   0  0  0  0  0  0  0  0  0  0  0  0
  195.4970  176.5290  134.8470 C   0  0  0  0  0  1  0  0  0  0  0  0
  1 20  1  0  0  0  0
  1 16  1  0  0  0  0
  2 24  1  1  0  0  0
  2 12  1  0  0  0  0
  2 27  1  0  0  0  0
  3  4  1  0  0  0  0
  5 27  2  0  0  0  0
  5  6  1  0  0  0  0
  6 28  2  0  0  0  0
  7 24  2  0  0  0  0
  7 17  1  0  0  0  0
  8 17  1  0  0  0  0
  9 26  1  1  0  0  0
 10 20  1  0  0  0  0
 11  3  1  0  0  0  0
 12  8  1  6  0  0  0
 12 13  1  0  0  0  0
 13 11  1  1  0  0  0
 13 22  1  0  0  0  0
 14 22  1  0  0  0  0
 14 23  2  0  0  0  0
 15  9  1  0  0  0  0
 17 10  1  6  0  0  0
 18  6  1  0  0  0  0
 18 15  2  0  0  0  0
 19  7  1  0  0  0  0
 19 16  1  0  0  0  0
 20 29  1  6  0  0  0
 21  4  1  0  0  0  0
 22 21  1  1  0  0  0
 25  5  1  0  0  0  0
 27 14  1  0  0  0  0
 28  9  1  0  0  0  0
 28 23  1  0  0  0  0
 29 30  1  0  0  0  0
 30 31  2  0  0  0  0
 32 30  1  0  0  0  0
M  END
>  <MODEL>
3

>  <REMARK>
 VINA RESULT:      -5.8      4.243      8.562
  Name = 
  1 active torsions:
  status: ('A' for Active; 'I' for Inactive)
    1  A    between atoms: C_20  and  N_29
                            x       y       z     vdW  Elec       q    Type
                         _______ _______ _______ _____ _____    ______ ____

>  <TORSDO>
F 1

$$$$
=
 OpenBabel11122410403D

 32 37  0  0  1  0  0  0  0  0999 V2000
  187.5470  177.3860  143.6810 C   0  0  0  0  0  2  0  0  0  0  0  0
  190.9440  177.3310  139.0520 C   0  0  1  0  0  3  0  0  0  0  0  0
  186.9150  175.1460  137.5940 C   0  0  0  0  0  2  0  0  0  0  0  0
  187.6150  174.3710  136.5670 N   0  0  0  0  0  2  0  0  0  0  0  0
  193.1950  176.3780  138.3430 C   0  0  0  0  0  0  0  0  0  0  0  0
  193.8910  175.4450  137.5780 C   0  0  0  0  0  0  0  0  0  0  0  0
  189.7810  177.0590  141.2440 C   0  0  0  0  0  0  0  0  0  0  0  0
  188.8490  178.4290  139.3310 C   0  0  0  0  0  2  0  0  0  0  0  0
  194.2230  173.7440  136.0360 C   0  0  1  0  0  3  0  0  0  0  0  0
  188.0010  178.7920  141.6490 C   0  0  0  0  0  2  0  0  0  0  0  0
  187.5960  176.5020  137.7770 C   0  0  0  0  0  2  0  0  0  0  0  0
  189.6210  177.5520  138.4280 N   0  0  2  0  0  0  0  0  0  0  0  0
  188.9780  176.2950  138.2340 N   0  0  2  0  0  0  0  0  0  0  0  0
  191.1440  175.4780  137.3610 C   0  0  0  0  0  0  0  0  0  0  0  0
  195.4940  174.2990  136.6400 C   0  0  0  0  0  3  0  0  0  0  0  0
  188.2030  175.7870  143.1100 S   0  0  0  0  0  0  0  0  0  0  0  0
  188.5630  177.7630  140.6810 C   0  0  2  0  0  3  0  0  0  0  0  0
  195.2910  175.2530  137.5020 N   0  0  0  0  0  0  0  0  0  0  0  0
  189.8010  176.5240  142.6450 C   0  0  0  0  0  2  0  0  0  0  0  0
  186.9260  178.1660  142.5280 C   0  0  2  0  0  3  0  0  0  0  0  0
  189.0160  174.2070  136.9550 C   0  0  0  0  0  2  0  0  0  0  0  0
  189.6610  175.5850  137.1370 C   0  0  1  0  0  3  0  0  0  0  0  0
  191.8870  174.6050  136.6140 N   0  0  0  0  0  0  0  0  0  0  0  0
  190.8450  176.8140  140.4710 C   0  0  0  0  0  3  0  0  0  0  0  0
  193.9300  177.3210  139.2370 C   0  0  0  0  0  1  0  0  0  0  0  0
  194.0580  172.2930  136.4470 C   0  0  0  0  0  1  0  0  0  0  0  0
  191.7850  176.3960  138.2290 C   0  0  0  0  0  0  0  0  0  0  0  0
  193.2360  174.5870  136.7490 C   0  0  0  0  0  0  0  0  0  0  0  0
  186.0770  179.2230  143.0570 N   0  0  0  0  0  2  0  0  0  0  0  0
  184.7100  179.0070  143.4110 C   0  0  0  0  0  0  0  0  0  0  0  0
  184.1750  177.8780  143.2500 O   0  0  0  0  0  0  0  0  0  0  0  0
  183.9090  180.1280  143.9680 C   0  0  0  0  0  1  0  0  0  0  0  0
  2 24  1  1  0  0  0
  3 11  1  0  0  0  0
  4 21  1  0  0  0  0
  4  3  1  0  0  0  0
  5 25  1  0  0  0  0
  6  5  2  0  0  0  0
  7 19  1  0  0  0  0
  9 26  1  1  0  0  0
  9 15  1  0  0  0  0
  9 28  1  0  0  0  0
 10 20  1  0  0  0  0
 12  2  1  0  0  0  0
 12  8  1  1  0  0  0
 13 11  1  6  0  0  0
 13 12  1  0  0  0  0
 14 27  2  0  0  0  0
 15 18  2  0  0  0  0
 16  1  1  0  0  0  0
 17  8  1  6  0  0  0
 17  7  1  0  0  0  0
 17 10  1  0  0  0  0
 18  6  1  0  0  0  0
 19 16  1  0  0  0  0
 20 29  1  1  0  0  0
 20  1  1  0  0  0  0
 22 21  1  1  0  0  0
 22 14  1  0  0  0  0
 22 13  1  0  0  0  0
 23 28  2  0  0  0  0
 23 14  1  0  0  0  0
 24  7  2  0  0  0  0
 27  5  1  0  0  0  0
 27  2  1  0  0  0  0
 28  6  1  0  0  0  0
 29 30  1  0  0  0  0
 30 32  1  0  0  0  0
 31 30  2  0  0  0  0
M  END
>  <MODEL>
4

>  <REMARK>
 VINA RESULT:      -5.7      4.614      7.601
  Name = 
  1 active torsions:
  status: ('A' for Active; 'I' for Inactive)
    1  A    between atoms: C_20  and  N_29
                            x       y       z     vdW  Elec       q    Type
                         _______ _______ _______ _____ _____    ______ ____

>  <TORSDO>
F 1

$$$$
=
 OpenBabel11122410403D

 32 37  0  0  1  0  0  0  0  0999 V2000
  190.6350  173.4970  135.8210 C   0  0  0  0  0  2  0  0  0  0  0  0
  187.4330  177.8990  137.6460 C   0  0  1  0  0  3  0  0  0  0  0  0
  190.5430  177.1270  141.2330 C   0  0  0  0  0  2  0  0  0  0  0  0
  189.6360  177.6780  142.2420 N   0  0  0  0  0  2  0  0  0  0  0  0
  184.9990  178.3910  138.2040 C   0  0  0  0  0  0  0  0  0  0  0  0
  184.0420  178.6420  139.1850 C   0  0  0  0  0  0  0  0  0  0  0  0
  188.4310  175.7380  136.8960 C   0  0  0  0  0  0  0  0  0  0  0  0
  189.7690  177.8670  137.1840 C   0  0  0  0  0  2  0  0  0  0  0  0
  183.1850  179.0400  141.3040 C   0  0  1  0  0  3  0  0  0  0  0  0
  190.6750  176.0090  135.7870 C   0  0  0  0  0  2  0  0  0  0  0  0
  190.3390  177.8470  139.9000 C   0  0  0  0  0  2  0  0  0  0  0  0
  188.7590  178.2760  138.1820 N   0  0  2  0  0  0  0  0  0  0  0  0
  188.9610  177.6260  139.4340 N   0  0  2  0  0  0  0  0  0  0  0  0
  186.6530  178.3100  140.0030 C   0  0  0  0  0  0  0  0  0  0  0  0
  182.1600  179.0930  140.1930 C   0  0  0  0  0  3  0  0  0  0  0  0
  189.4990  173.2190  137.2160 S   0  0  0  0  0  0  0  0  0  0  0  0
  189.8150  176.3470  136.9950 C   0  0  2  0  0  3  0  0  0  0  0  0
  182.6560  178.8690  139.0110 N   0  0  0  0  0  0  0  0  0  0  0  0
  188.2300  174.3060  136.4960 C   0  0  0  0  0  2  0  0  0  0  0  0
  191.4830  174.7440  136.0460 C   0  0  2  0  0  3  0  0  0  0  0  0
  188.2560  177.5410  141.7770 C   0  0  0  0  0  2  0  0  0  0  0  0
  188.0910  178.2670  140.4380 C   0  0  1  0  0  3  0  0  0  0  0  0
  185.6710  178.5870  140.9150 N   0  0  0  0  0  0  0  0  0  0  0  0
  187.3500  176.4410  137.2530 C   0  0  0  0  0  3  0  0  0  0  0  0
  184.6040  178.3160  136.7660 C   0  0  0  0  0  1  0  0  0  0  0  0
  182.8680  177.8830  142.2320 C   0  0  0  0  0  1  0  0  0  0  0  0
  186.3390  178.2240  138.6240 C   0  0  0  0  0  0  0  0  0  0  0  0
  184.3890  178.7270  140.4980 C   0  0  0  0  0  0  0  0  0  0  0  0
  192.6260  174.7240  135.1450 N   0  0  0  0  0  2  0  0  0  0  0  0
  193.9420  175.0890  135.5630 C   0  0  0  0  0  0  0  0  0  0  0  0
  194.1590  175.4730  136.7430 O   0  0  0  0  0  0  0  0  0  0  0  0
  195.0660  175.0210  134.5940 C   0  0  0  0  0  1  0  0  0  0  0  0
  1 20  1  0  0  0  0
  1 16  1  0  0  0  0
  2 24  1  1  0  0  0
  2 12  1  0  0  0  0
  2 27  1  0  0  0  0
  3  4  1  0  0  0  0
  5 27  2  0  0  0  0
  5  6  1  0  0  0  0
  6 28  2  0  0  0  0
  7 17  1  0  0  0  0
  7 24  2  0  0  0  0
  9 26  1  1  0  0  0
 10 20  1  0  0  0  0
 11  3  1  0  0  0  0
 12  8  1  6  0  0  0
 12 13  1  0  0  0  0
 13 11  1  1  0  0  0
 13 22  1  0  0  0  0
 14 22  1  0  0  0  0
 14 23  2  0  0  0  0
 15  9  1  0  0  0  0
 17 10  1  6  0  0  0
 17  8  1  0  0  0  0
 18  6  1  0  0  0  0
 18 15  2  0  0  0  0
 19  7  1  0  0  0  0
 19 16  1  0  0  0  0
 20 29  1  6  0  0  0
 21  4  1  0  0  0  0
 22 21  1  1  0  0  0
 25  5  1  0  0  0  0
 27 14  1  0  0  0  0
 28 23  1  0  0  0  0
 28  9  1  0  0  0  0
 29 30  1  0  0  0  0
 30 31  2  0  0  0  0
 32 30  1  0  0  0  0
M  END
>  <MODEL>
5

>  <REMARK>
 VINA RESULT:      -4.9      4.160      7.879
  Name = 
  1 active torsions:
  status: ('A' for Active; 'I' for Inactive)
    1  A    between atoms: C_20  and  N_29
                            x       y       z     vdW  Elec       q    Type
                         _______ _______ _______ _____ _____    ______ ____

>  <TORSDO>
F 1

$$$$
