=
 OpenBabel11122411503D

 28 32  0  0  1  0  0  0  0  0999 V2000
  191.3960  175.7760  137.0740 C   0  0  0  0  0  0  0  0  0  0  0  0
  187.7700  178.1530  135.9460 O   0  0  0  0  0  1  0  0  0  0  0  0
  191.2510  176.4850  142.6290 O   0  0  0  0  0  0  0  0  0  0  0  0
  189.5070  173.7040  137.0960 C   0  0  0  0  0  3  0  0  0  0  0  0
  189.4250  177.5920  141.6150 N   0  0  0  0  0  0  0  0  0  0  0  0
  192.4480  176.8460  137.0960 C   0  0  0  0  0  2  0  0  0  0  0  0
  186.6350  176.4690  136.9710 O   0  0  0  0  0  1  0  0  0  0  0  0
  187.1930  177.7360  137.1470 C   0  0  0  0  0  0  0  0  0  0  0  0
  185.7750  178.9020  138.8950 C   0  0  0  0  0  0  0  0  0  0  0  0
  188.2420  177.6760  138.2270 C   0  0  0  0  0  0  0  0  0  0  0  0
  194.5220  176.2690  140.0800 O   0  0  0  0  0  0  0  0  0  0  0  0
  190.1860  177.5650  139.4650 C   0  0  1  0  0  3  0  0  0  0  0  0
  186.5970  178.3120  140.0050 C   0  0  0  0  0  2  0  0  0  0  0  0
  186.1340  178.6720  137.5250 N   0  0  0  0  0  2  0  0  0  0  0  0
  193.5900  176.7540  139.3880 C   0  0  0  0  0  0  0  0  0  0  0  0
  190.0810  176.0290  137.5270 C   0  0  0  0  0  0  0  0  0  0  0  0
  190.7040  176.9630  141.6000 C   0  0  0  0  0  0  0  0  0  0  0  0
  184.7650  179.6000  139.1690 O   0  0  0  0  0  0  0  0  0  0  0  0
  192.5690  177.6160  140.0620 C   0  0  0  0  0  2  0  0  0  0  0  0
  189.1550  174.9750  137.5560 C   0  0  0  0  0  3  0  0  0  0  0  0
  191.7370  174.5000  136.6080 C   0  0  0  0  0  3  0  0  0  0  0  0
  190.7960  173.4690  136.6160 C   0  0  0  0  0  3  0  0  0  0  0  0
  193.5430  176.4700  137.9850 N   0  0  0  0  0  2  0  0  0  0  0  0
  189.1990  177.9090  140.2520 C   0  0  1  0  0  3  0  0  0  0  0  0
  191.2670  176.8530  140.2140 C   0  0  2  0  0  3  0  0  0  0  0  0
  187.9640  177.9670  139.4980 C   0  0  0  0  0  0  0  0  0  0  0  0
  188.3990  177.3830  142.6220 C   0  0  0  0  0  1  0  0  0  0  0  0
  189.7230  177.4020  138.0510 C   0  0  1  0  0  3  0  0  0  0  0  0
  1  6  1  0  0  0  0
  1 16  1  0  0  0  0
  2  8  1  0  0  0  0
  4 20  1  0  0  0  0
  5 27  1  0  0  0  0
  6 23  1  0  0  0  0
  7  8  1  0  0  0  0
  8 14  1  0  0  0  0
  8 10  1  0  0  0  0
  9 18  2  0  0  0  0
  9 13  1  0  0  0  0
 10 26  2  0  0  0  0
 12 25  1  0  0  0  0
 12 24  1  0  0  0  0
 14  9  1  0  0  0  0
 15 19  1  0  0  0  0
 15 11  2  0  0  0  0
 16 20  2  0  0  0  0
 16 28  1  0  0  0  0
 17  5  1  0  0  0  0
 17  3  2  0  0  0  0
 19 25  1  0  0  0  0
 21 22  1  0  0  0  0
 21  1  2  0  0  0  0
 22  4  2  0  0  0  0
 23 15  1  0  0  0  0
 24  5  1  0  0  0  0
 25 17  1  0  0  0  0
 26 13  1  0  0  0  0
 26 24  1  0  0  0  0
 28 10  1  0  0  0  0
 28 12  1  0  0  0  0
M  END
>  <MODEL>
1

>  <REMARK>
 VINA RESULT:      -6.8      0.000      0.000
  Name = 
  0 active torsions:
  status: ('A' for Active; 'I' for Inactive)
                            x       y       z     vdW  Elec       q    Type
                         _______ _______ _______ _____ _____    ______ ____

>  <TORSDO>
F 0

$$$$
=
 OpenBabel11122411503D

 28 32  0  0  1  0  0  0  0  0999 V2000
  187.5080  174.9290  135.8350 C   0  0  0  0  0  0  0  0  0  0  0  0
  183.6060  177.1080  135.5190 O   0  0  0  0  0  1  0  0  0  0  0  0
  189.6160  177.4970  140.3440 O   0  0  0  0  0  0  0  0  0  0  0  0
  185.9190  173.1750  137.3390 C   0  0  0  0  0  3  0  0  0  0  0  0
  187.4730  178.3580  139.8390 N   0  0  0  0  0  0  0  0  0  0  0  0
  188.4120  175.8380  135.0560 C   0  0  0  0  0  2  0  0  0  0  0  0
  183.0930  175.9890  137.4310 O   0  0  0  0  0  1  0  0  0  0  0  0
  183.5990  177.1810  136.9120 C   0  0  0  0  0  0  0  0  0  0  0  0
  182.9580  179.0000  138.5580 C   0  0  0  0  0  0  0  0  0  0  0  0
  185.0000  177.3950  137.4230 C   0  0  0  0  0  0  0  0  0  0  0  0
  191.5570  176.1200  136.9430 O   0  0  0  0  0  0  0  0  0  0  0  0
  187.2840  177.5290  137.7230 C   0  0  1  0  0  3  0  0  0  0  0  0
  184.1970  178.7500  139.3700 C   0  0  0  0  0  2  0  0  0  0  0  0
  182.7350  178.2850  137.3340 N   0  0  0  0  0  2  0  0  0  0  0  0
  190.3970  176.4260  136.5650 C   0  0  0  0  0  0  0  0  0  0  0  0
  186.4820  175.4430  136.6610 C   0  0  0  0  0  0  0  0  0  0  0  0
  188.6680  177.6450  139.5300 C   0  0  0  0  0  0  0  0  0  0  0  0
  182.1120  179.8410  138.9550 O   0  0  0  0  0  0  0  0  0  0  0  0
  189.6940  177.5570  137.2470 C   0  0  0  0  0  2  0  0  0  0  0  0
  185.7130  174.5530  137.4270 C   0  0  0  0  0  3  0  0  0  0  0  0
  187.7000  173.5440  135.7480 C   0  0  0  0  0  3  0  0  0  0  0  0
  186.9080  172.6700  136.4930 C   0  0  0  0  0  3  0  0  0  0  0  0
  189.7940  175.6870  135.4960 N   0  0  0  0  0  2  0  0  0  0  0  0
  186.6890  178.2130  138.6680 C   0  0  1  0  0  3  0  0  0  0  0  0
  188.6170  177.0180  138.1670 C   0  0  2  0  0  3  0  0  0  0  0  0
  185.2520  178.1250  138.5090 C   0  0  0  0  0  0  0  0  0  0  0  0
  186.9660  178.6020  141.1790 C   0  0  0  0  0  1  0  0  0  0  0  0
  186.2920  176.9390  136.7710 C   0  0  1  0  0  3  0  0  0  0  0  0
  1 16  1  0  0  0  0
  2  8  1  0  0  0  0
  4 20  1  0  0  0  0
  5 27  1  0  0  0  0
  6 23  1  0  0  0  0
  6  1  1  0  0  0  0
  8 14  1  0  0  0  0
  8 10  1  0  0  0  0
  8  7  1  0  0  0  0
  9 18  2  0  0  0  0
  9 13  1  0  0  0  0
 10 26  2  0  0  0  0
 12 25  1  0  0  0  0
 12 24  1  0  0  0  0
 14  9  1  0  0  0  0
 15 11  2  0  0  0  0
 15 19  1  0  0  0  0
 16 28  1  0  0  0  0
 16 20  2  0  0  0  0
 17  5  1  0  0  0  0
 17  3  2  0  0  0  0
 19 25  1  0  0  0  0
 21  1  2  0  0  0  0
 21 22  1  0  0  0  0
 22  4  2  0  0  0  0
 23 15  1  0  0  0  0
 24  5  1  0  0  0  0
 25 17  1  0  0  0  0
 26 24  1  0  0  0  0
 26 13  1  0  0  0  0
 28 10  1  0  0  0  0
 28 12  1  0  0  0  0
M  END
>  <MODEL>
2

>  <REMARK>
 VINA RESULT:      -6.4      2.650      3.585
  Name = 
  0 active torsions:
  status: ('A' for Active; 'I' for Inactive)
                            x       y       z     vdW  Elec       q    Type
                         _______ _______ _______ _____ _____    ______ ____

>  <TORSDO>
F 0

$$$$
=
 OpenBabel11122411503D

 28 32  0  0  1  0  0  0  0  0999 V2000
  184.1860  177.5000  138.5890 C   0  0  0  0  0  0  0  0  0  0  0  0
  180.3220  179.5880  139.4790 O   0  0  0  0  0  1  0  0  0  0  0  0
  186.4290  177.5210  143.7220 O   0  0  0  0  0  0  0  0  0  0  0  0
  182.5910  175.2480  139.0860 C   0  0  0  0  0  3  0  0  0  0  0  0
  184.2950  178.5370  143.7580 N   0  0  0  0  0  0  0  0  0  0  0  0
  185.0920  178.6680  138.3300 C   0  0  0  0  0  2  0  0  0  0  0  0
  179.8230  177.6810  140.6140 O   0  0  0  0  0  1  0  0  0  0  0  0
  180.3430  178.9710  140.7300 C   0  0  0  0  0  0  0  0  0  0  0  0
  179.7700  179.7580  143.0710 C   0  0  0  0  0  0  0  0  0  0  0  0
  181.7580  178.8960  141.2440 C   0  0  0  0  0  0  0  0  0  0  0  0
  188.2780  177.9670  140.0310 O   0  0  0  0  0  0  0  0  0  0  0  0
  184.0490  178.8490  141.5110 C   0  0  1  0  0  3  0  0  0  0  0  0
  181.0180  179.1330  143.6250 C   0  0  0  0  0  2  0  0  0  0  0  0
  179.5090  179.7340  141.6600 N   0  0  0  0  0  2  0  0  0  0  0  0
  187.1170  178.4270  139.8820 C   0  0  0  0  0  0  0  0  0  0  0  0
  183.1860  177.5540  139.5870 C   0  0  0  0  0  0  0  0  0  0  0  0
  185.4680  178.0560  143.1080 C   0  0  0  0  0  0  0  0  0  0  0  0
  178.9470  180.3050  143.8500 O   0  0  0  0  0  0  0  0  0  0  0  0
  186.4500  179.0870  141.0470 C   0  0  0  0  0  2  0  0  0  0  0  0
  182.4150  176.4090  139.8420 C   0  0  0  0  0  3  0  0  0  0  0  0
  184.3490  176.3340  137.8320 C   0  0  0  0  0  3  0  0  0  0  0  0
  183.5540  175.2130  138.0770 C   0  0  0  0  0  3  0  0  0  0  0  0
  186.4800  178.3100  138.6040 N   0  0  0  0  0  2  0  0  0  0  0  0
  183.4860  178.9880  142.6850 C   0  0  1  0  0  3  0  0  0  0  0  0
  185.3800  178.1750  141.6150 C   0  0  2  0  0  3  0  0  0  0  0  0
  182.0440  179.0010  142.5410 C   0  0  0  0  0  0  0  0  0  0  0  0
  183.8180  178.0990  145.0580 C   0  0  0  0  0  1  0  0  0  0  0  0
  183.0270  178.8070  140.4190 C   0  0  1  0  0  3  0  0  0  0  0  0
  1 16  1  0  0  0  0
  2  8  1  0  0  0  0
  4 20  1  0  0  0  0
  5 27  1  0  0  0  0
  6  1  1  0  0  0  0
  6 23  1  0  0  0  0
  7  8  1  0  0  0  0
  8 10  1  0  0  0  0
  8 14  1  0  0  0  0
  9 13  1  0  0  0  0
  9 18  2  0  0  0  0
 10 26  2  0  0  0  0
 12 25  1  0  0  0  0
 12 24  1  0  0  0  0
 14  9  1  0  0  0  0
 15 11  2  0  0  0  0
 15 19  1  0  0  0  0
 16 20  2  0  0  0  0
 16 28  1  0  0  0  0
 17  3  2  0  0  0  0
 17  5  1  0  0  0  0
 19 25  1  0  0  0  0
 21 22  1  0  0  0  0
 21  1  2  0  0  0  0
 22  4  2  0  0  0  0
 23 15  1  0  0  0  0
 24  5  1  0  0  0  0
 25 17  1  0  0  0  0
 26 24  1  0  0  0  0
 26 13  1  0  0  0  0
 28 10  1  0  0  0  0
 28 12  1  0  0  0  0
M  END
>  <MODEL>
3

>  <REMARK>
 VINA RESULT:      -6.3      4.577      7.002
  Name = 
  0 active torsions:
  status: ('A' for Active; 'I' for Inactive)
                            x       y       z     vdW  Elec       q    Type
                         _______ _______ _______ _____ _____    ______ ____

>  <TORSDO>
F 0

$$$$
=
 OpenBabel11122411503D

 28 32  0  0  1  0  0  0  0  0999 V2000
  185.0230  175.9570  135.9080 C   0  0  0  0  0  0  0  0  0  0  0  0
  181.1650  177.3820  137.6860 O   0  0  0  0  0  1  0  0  0  0  0  0
  188.5970  178.1650  139.6120 O   0  0  0  0  0  0  0  0  0  0  0  0
  184.4430  173.7270  137.5060 C   0  0  0  0  0  3  0  0  0  0  0  0
  186.3700  178.6720  140.2210 N   0  0  0  0  0  0  0  0  0  0  0  0
  185.3950  177.1280  135.0470 C   0  0  0  0  0  2  0  0  0  0  0  0
  181.6570  175.9100  139.3480 O   0  0  0  0  0  1  0  0  0  0  0  0
  181.7570  177.2410  138.9410 C   0  0  0  0  0  0  0  0  0  0  0  0
  181.7080  178.6350  141.0580 C   0  0  0  0  0  0  0  0  0  0  0  0
  183.2100  177.6360  138.8720 C   0  0  0  0  0  0  0  0  0  0  0  0
  188.9980  177.7100  135.5050 O   0  0  0  0  0  0  0  0  0  0  0  0
  185.3680  178.1520  138.2390 C   0  0  1  0  0  3  0  0  0  0  0  0
  183.1950  178.5040  141.2200 C   0  0  0  0  0  2  0  0  0  0  0  0
  181.0520  178.0850  139.9060 N   0  0  0  0  0  2  0  0  0  0  0  0
  187.7640  177.8450  135.7070 C   0  0  0  0  0  0  0  0  0  0  0  0
  184.4100  176.1370  137.1690 C   0  0  0  0  0  0  0  0  0  0  0  0
  187.3790  178.2520  139.3060 C   0  0  0  0  0  0  0  0  0  0  0  0
  181.0340  179.2320  141.9360 O   0  0  0  0  0  0  0  0  0  0  0  0
  187.3130  178.7060  136.8440 C   0  0  0  0  0  2  0  0  0  0  0  0
  184.1510  175.0120  137.9680 C   0  0  0  0  0  3  0  0  0  0  0  0
  185.3040  174.6630  135.4510 C   0  0  0  0  0  3  0  0  0  0  0  0
  185.0130  173.5530  136.2440 C   0  0  0  0  0  3  0  0  0  0  0  0
  186.8380  177.1760  134.8420 N   0  0  0  0  0  2  0  0  0  0  0  0
  185.1750  178.5600  139.4680 C   0  0  1  0  0  3  0  0  0  0  0  0
  186.8070  177.8400  137.9810 C   0  0  2  0  0  3  0  0  0  0  0  0
  183.8300  178.2280  139.8920 C   0  0  0  0  0  0  0  0  0  0  0  0
  186.4740  178.6100  141.6690 C   0  0  0  0  0  1  0  0  0  0  0  0
  184.1290  177.5360  137.6690 C   0  0  1  0  0  3  0  0  0  0  0  0
  1 16  1  0  0  0  0
  2  8  1  0  0  0  0
  4 20  1  0  0  0  0
  5 27  1  0  0  0  0
  6  1  1  0  0  0  0
  8  7  1  0  0  0  0
  8 14  1  0  0  0  0
  9 13  1  0  0  0  0
  9 18  2  0  0  0  0
 10  8  1  0  0  0  0
 10 26  2  0  0  0  0
 11 15  2  0  0  0  0
 12 24  1  0  0  0  0
 14  9  1  0  0  0  0
 15 19  1  0  0  0  0
 16 28  1  0  0  0  0
 16 20  2  0  0  0  0
 17  3  2  0  0  0  0
 17  5  1  0  0  0  0
 19 25  1  0  0  0  0
 21  1  2  0  0  0  0
 21 22  1  0  0  0  0
 22  4  2  0  0  0  0
 23  6  1  0  0  0  0
 23 15  1  0  0  0  0
 24 26  1  0  0  0  0
 24  5  1  0  0  0  0
 25 12  1  0  0  0  0
 25 17  1  0  0  0  0
 26 13  1  0  0  0  0
 28 12  1  0  0  0  0
 28 10  1  0  0  0  0
M  END
>  <MODEL>
4

>  <REMARK>
 VINA RESULT:      -6.2      3.988      5.508
  Name = 
  0 active torsions:
  status: ('A' for Active; 'I' for Inactive)
                            x       y       z     vdW  Elec       q    Type
                         _______ _______ _______ _____ _____    ______ ____

>  <TORSDO>
F 0

$$$$
=
 OpenBabel11122411503D

 28 32  0  0  1  0  0  0  0  0999 V2000
  189.4800  178.2220  138.4180 C   0  0  0  0  0  0  0  0  0  0  0  0
  193.6560  177.1280  137.2180 O   0  0  0  0  0  1  0  0  0  0  0  0
  186.7160  173.9530  136.0690 O   0  0  0  0  0  0  0  0  0  0  0  0
  190.2040  176.7530  140.6930 C   0  0  0  0  0  3  0  0  0  0  0  0
  189.0380  173.7340  135.6870 N   0  0  0  0  0  0  0  0  0  0  0  0
  189.0290  179.0030  137.2180 C   0  0  0  0  0  2  0  0  0  0  0  0
  193.3770  175.4100  138.6830 O   0  0  0  0  0  1  0  0  0  0  0  0
  193.2800  175.7900  137.3430 C   0  0  0  0  0  0  0  0  0  0  0  0
  193.7660  173.7090  135.9790 C   0  0  0  0  0  0  0  0  0  0  0  0
  191.8610  175.6080  136.8720 C   0  0  0  0  0  0  0  0  0  0  0  0
  185.5940  177.9320  136.4530 O   0  0  0  0  0  0  0  0  0  0  0  0
  189.6570  175.8600  136.2350 C   0  0  1  0  0  3  0  0  0  0  0  0
  192.3240  173.2940  136.0340 C   0  0  0  0  0  2  0  0  0  0  0  0
  194.1850  174.9580  136.5490 N   0  0  0  0  0  2  0  0  0  0  0  0
  186.8500  177.9440  136.3860 C   0  0  0  0  0  0  0  0  0  0  0  0
  190.3080  177.0840  138.2850 C   0  0  0  0  0  0  0  0  0  0  0  0
  187.8670  174.4630  136.0420 C   0  0  0  0  0  0  0  0  0  0  0  0
  194.6110  172.9570  135.4290 O   0  0  0  0  0  0  0  0  0  0  0  0
  187.5350  176.8990  135.5630 C   0  0  0  0  0  2  0  0  0  0  0  0
  190.6390  176.3440  139.4310 C   0  0  0  0  0  3  0  0  0  0  0  0
  189.0550  178.6270  139.6890 C   0  0  0  0  0  3  0  0  0  0  0  0
  189.4180  177.8980  140.8230 C   0  0  0  0  0  3  0  0  0  0  0  0
  187.5770  178.9570  137.0920 N   0  0  0  0  0  2  0  0  0  0  0  0
  190.0800  174.6810  135.8530 C   0  0  1  0  0  3  0  0  0  0  0  0
  188.1800  175.8680  136.4680 C   0  0  2  0  0  3  0  0  0  0  0  0
  191.4570  174.4950  136.2600 C   0  0  0  0  0  0  0  0  0  0  0  0
  189.1810  172.2900  135.7610 C   0  0  0  0  0  1  0  0  0  0  0  0
  190.7450  176.6350  136.9090 C   0  0  1  0  0  3  0  0  0  0  0  0
  1 21  1  0  0  0  0
  2  8  1  0  0  0  0
  4 22  1  0  0  0  0
  5 27  1  0  0  0  0
  5 24  1  0  0  0  0
  5 17  1  0  0  0  0
  6  1  1  0  0  0  0
  8  7  1  0  0  0  0
  9 13  1  0  0  0  0
  9 14  1  0  0  0  0
 10 28  1  0  0  0  0
 10  8  1  0  0  0  0
 12 25  1  0  0  0  0
 12 28  1  0  0  0  0
 13 26  1  0  0  0  0
 14  8  1  0  0  0  0
 15 11  2  0  0  0  0
 15 23  1  0  0  0  0
 16  1  2  0  0  0  0
 16 20  1  0  0  0  0
 17  3  2  0  0  0  0
 17 25  1  0  0  0  0
 18  9  2  0  0  0  0
 19 15  1  0  0  0  0
 19 25  1  0  0  0  0
 20  4  2  0  0  0  0
 21 22  2  0  0  0  0
 23  6  1  0  0  0  0
 24 12  1  0  0  0  0
 24 26  1  0  0  0  0
 26 10  2  0  0  0  0
 28 16  1  0  0  0  0
M  END
>  <MODEL>
5

>  <REMARK>
 VINA RESULT:      -6.1      2.202      6.743
  Name = 
  0 active torsions:
  status: ('A' for Active; 'I' for Inactive)
                            x       y       z     vdW  Elec       q    Type
                         _______ _______ _______ _____ _____    ______ ____

>  <TORSDO>
F 0

$$$$
=
 OpenBabel11122411503D

 28 32  0  0  1  0  0  0  0  0999 V2000
  186.0960  174.8720  135.6930 C   0  0  0  0  0  0  0  0  0  0  0  0
  181.7320  175.8700  135.8770 O   0  0  0  0  0  1  0  0  0  0  0  0
  188.0100  178.4680  139.5370 O   0  0  0  0  0  0  0  0  0  0  0  0
  185.3040  172.9660  137.5910 C   0  0  0  0  0  3  0  0  0  0  0  0
  185.6620  178.6540  139.3400 N   0  0  0  0  0  0  0  0  0  0  0  0
  186.5820  175.8820  134.6950 C   0  0  0  0  0  2  0  0  0  0  0  0
  181.8380  174.9110  137.9360 O   0  0  0  0  0  1  0  0  0  0  0  0
  181.9040  176.1180  137.2390 C   0  0  0  0  0  0  0  0  0  0  0  0
  181.0160  177.8960  138.8130 C   0  0  0  0  0  0  0  0  0  0  0  0
  183.2450  176.7620  137.4790 C   0  0  0  0  0  0  0  0  0  0  0  0
  189.7540  177.2340  135.9770 O   0  0  0  0  0  0  0  0  0  0  0  0
  185.4150  177.5390  137.3660 C   0  0  1  0  0  3  0  0  0  0  0  0
  182.3770  178.0920  139.4160 C   0  0  0  0  0  2  0  0  0  0  0  0
  180.8320  176.9960  137.7110 N   0  0  0  0  0  2  0  0  0  0  0  0
  188.5130  177.1670  135.7820 C   0  0  0  0  0  0  0  0  0  0  0  0
  185.0950  175.1950  136.6380 C   0  0  0  0  0  0  0  0  0  0  0  0
  186.9520  178.2510  138.8890 C   0  0  0  0  0  0  0  0  0  0  0  0
  180.0310  178.5240  139.2790 O   0  0  0  0  0  0  0  0  0  0  0  0
  187.6230  178.1480  136.4790 C   0  0  0  0  0  2  0  0  0  0  0  0
  184.7300  174.2390  137.5980 C   0  0  0  0  0  3  0  0  0  0  0  0
  186.6590  173.5900  135.6900 C   0  0  0  0  0  3  0  0  0  0  0  0
  186.2640  172.6400  136.6320 C   0  0  0  0  0  3  0  0  0  0  0  0
  187.9990  176.1630  134.8990 N   0  0  0  0  0  2  0  0  0  0  0  0
  184.7920  178.1540  138.3390 C   0  0  1  0  0  3  0  0  0  0  0  0
  186.8870  177.4630  137.6140 C   0  0  2  0  0  3  0  0  0  0  0  0
  183.4320  177.6670  138.4400 C   0  0  0  0  0  0  0  0  0  0  0  0
  185.3040  178.9240  140.7220 C   0  0  0  0  0  1  0  0  0  0  0  0
  184.5050  176.5880  136.6540 C   0  0  1  0  0  3  0  0  0  0  0  0
  1 16  1  0  0  0  0
  2  8  1  0  0  0  0
  4 20  1  0  0  0  0
  5 27  1  0  0  0  0
  6 23  1  0  0  0  0
  6  1  1  0  0  0  0
  8 10  1  0  0  0  0
  8 14  1  0  0  0  0
  8  7  1  0  0  0  0
  9 18  2  0  0  0  0
  9 13  1  0  0  0  0
 10 26  2  0  0  0  0
 12 25  1  0  0  0  0
 12 24  1  0  0  0  0
 14  9  1  0  0  0  0
 15 11  2  0  0  0  0
 15 19  1  0  0  0  0
 16 28  1  0  0  0  0
 16 20  2  0  0  0  0
 17  5  1  0  0  0  0
 17  3  2  0  0  0  0
 19 25  1  0  0  0  0
 21  1  2  0  0  0  0
 21 22  1  0  0  0  0
 22  4  2  0  0  0  0
 23 15  1  0  0  0  0
 24 26  1  0  0  0  0
 24  5  1  0  0  0  0
 25 17  1  0  0  0  0
 26 13  1  0  0  0  0
 28 12  1  0  0  0  0
 28 10  1  0  0  0  0
M  END
>  <MODEL>
6

>  <REMARK>
 VINA RESULT:      -5.8      3.841      5.263
  Name = 
  0 active torsions:
  status: ('A' for Active; 'I' for Inactive)
                            x       y       z     vdW  Elec       q    Type
                         _______ _______ _______ _____ _____    ______ ____

>  <TORSDO>
F 0

$$$$
=
 OpenBabel11122411503D

 28 32  0  0  1  0  0  0  0  0999 V2000
  185.5080  178.7760  143.8020 C   0  0  0  0  0  0  0  0  0  0  0  0
  188.6810  179.9750  140.8740 O   0  0  0  0  0  1  0  0  0  0  0  0
  181.8620  176.4100  140.2680 O   0  0  0  0  0  0  0  0  0  0  0  0
  187.1240  176.4910  143.9680 C   0  0  0  0  0  3  0  0  0  0  0  0
  183.7650  177.1740  139.0910 N   0  0  0  0  0  0  0  0  0  0  0  0
  184.5940  179.9650  143.7420 C   0  0  0  0  0  2  0  0  0  0  0  0
  189.0300  177.7350  140.6920 O   0  0  0  0  0  1  0  0  0  0  0  0
  188.3600  178.8290  140.1450 C   0  0  0  0  0  0  0  0  0  0  0  0
  188.1260  178.3500  137.6660 C   0  0  0  0  0  0  0  0  0  0  0  0
  186.8740  178.5840  140.1980 C   0  0  0  0  0  0  0  0  0  0  0  0
  181.1470  178.6830  143.6670 O   0  0  0  0  0  0  0  0  0  0  0  0
  184.6260  178.5260  140.7140 C   0  0  1  0  0  3  0  0  0  0  0  0
  186.8470  177.5980  137.8970 C   0  0  0  0  0  2  0  0  0  0  0  0
  188.7920  179.0030  138.7570 N   0  0  0  0  0  2  0  0  0  0  0  0
  182.2420  179.1010  143.2100 C   0  0  0  0  0  0  0  0  0  0  0  0
  186.1560  178.2880  142.6440 C   0  0  0  0  0  0  0  0  0  0  0  0
  182.8960  177.1280  140.2190 C   0  0  0  0  0  0  0  0  0  0  0  0
  188.6160  178.4090  136.5090 O   0  0  0  0  0  0  0  0  0  0  0  0
  182.4580  179.0770  141.7300 C   0  0  0  0  0  2  0  0  0  0  0  0
  186.9400  177.1280  142.7390 C   0  0  0  0  0  3  0  0  0  0  0  0
  185.7050  178.1340  145.0310 C   0  0  0  0  0  3  0  0  0  0  0  0
  186.5120  176.9980  145.1150 C   0  0  0  0  0  3  0  0  0  0  0  0
  183.2360  179.5880  144.1190 N   0  0  0  0  0  2  0  0  0  0  0  0
  184.7990  178.0490  139.5070 C   0  0  1  0  0  3  0  0  0  0  0  0
  183.4070  177.9530  141.3640 C   0  0  2  0  0  3  0  0  0  0  0  0
  186.2080  178.0590  139.1700 C   0  0  0  0  0  0  0  0  0  0  0  0
  183.8820  176.1360  138.0810 C   0  0  0  0  0  1  0  0  0  0  0  0
  185.9220  178.9700  141.3150 C   0  0  1  0  0  3  0  0  0  0  0  0
  1 21  1  0  0  0  0
  4 22  1  0  0  0  0
  5 24  1  0  0  0  0
  5 17  1  0  0  0  0
  6  1  1  0  0  0  0
  6 23  1  0  0  0  0
  8 10  1  0  0  0  0
  8  7  1  0  0  0  0
  8  2  1  0  0  0  0
  9 13  1  0  0  0  0
  9 14  1  0  0  0  0
 10 28  1  0  0  0  0
 12 28  1  0  0  0  0
 12 25  1  0  0  0  0
 13 26  1  0  0  0  0
 14  8  1  0  0  0  0
 15 11  2  0  0  0  0
 15 23  1  0  0  0  0
 16 20  1  0  0  0  0
 16  1  2  0  0  0  0
 17  3  2  0  0  0  0
 17 25  1  0  0  0  0
 18  9  2  0  0  0  0
 19 15  1  0  0  0  0
 20  4  2  0  0  0  0
 21 22  2  0  0  0  0
 24 12  1  0  0  0  0
 25 19  1  0  0  0  0
 26 24  1  0  0  0  0
 26 10  2  0  0  0  0
 27  5  1  0  0  0  0
 28 16  1  0  0  0  0
M  END
>  <MODEL>
7

>  <REMARK>
 VINA RESULT:      -5.8      3.561      7.740
  Name = 
  0 active torsions:
  status: ('A' for Active; 'I' for Inactive)
                            x       y       z     vdW  Elec       q    Type
                         _______ _______ _______ _____ _____    ______ ____

>  <TORSDO>
F 0

$$$$
=
 OpenBabel11122411503D

 28 32  0  0  1  0  0  0  0  0999 V2000
  184.9350  179.1900  139.9050 C   0  0  0  0  0  0  0  0  0  0  0  0
  188.4690  179.8500  137.2310 O   0  0  0  0  0  1  0  0  0  0  0  0
  183.2520  174.2110  137.9690 O   0  0  0  0  0  0  0  0  0  0  0  0
  186.9240  178.0940  141.5500 C   0  0  0  0  0  3  0  0  0  0  0  0
  185.1810  174.9310  136.8070 N   0  0  0  0  0  0  0  0  0  0  0  0
  183.8260  179.7470  139.0620 C   0  0  0  0  0  2  0  0  0  0  0  0
  189.3900  178.1410  138.4160 O   0  0  0  0  0  1  0  0  0  0  0  0
  188.6780  178.4710  137.2620 C   0  0  0  0  0  0  0  0  0  0  0  0
  189.3480  176.7700  135.5040 C   0  0  0  0  0  0  0  0  0  0  0  0
  187.3550  177.7500  137.2660 C   0  0  0  0  0  0  0  0  0  0  0  0
  180.9900  177.4180  139.3220 O   0  0  0  0  0  0  0  0  0  0  0  0
  185.1420  177.1210  137.4450 C   0  0  1  0  0  3  0  0  0  0  0  0
  188.2830  175.8190  135.9700 C   0  0  0  0  0  2  0  0  0  0  0  0
  189.4640  178.0750  136.0920 N   0  0  0  0  0  2  0  0  0  0  0  0
  182.0380  177.9250  138.8450 C   0  0  0  0  0  0  0  0  0  0  0  0
  186.0090  178.4730  139.3280 C   0  0  0  0  0  0  0  0  0  0  0  0
  184.0440  175.1340  137.6410 C   0  0  0  0  0  0  0  0  0  0  0  0
  190.1430  176.4210  134.5950 O   0  0  0  0  0  0  0  0  0  0  0  0
  182.7010  177.2470  137.6880 C   0  0  0  0  0  2  0  0  0  0  0  0
  186.9810  177.9080  140.1680 C   0  0  0  0  0  3  0  0  0  0  0  0
  184.8920  179.3770  141.2920 C   0  0  0  0  0  3  0  0  0  0  0  0
  185.8820  178.8340  142.1120 C   0  0  0  0  0  3  0  0  0  0  0  0
  182.5520  179.1330  139.4190 N   0  0  0  0  0  2  0  0  0  0  0  0
  185.7910  176.2100  136.7640 C   0  0  1  0  0  3  0  0  0  0  0  0
  183.9600  176.5420  138.1530 C   0  0  2  0  0  3  0  0  0  0  0  0
  187.1880  176.5770  136.6560 C   0  0  0  0  0  0  0  0  0  0  0  0
  185.8540  173.6600  136.6020 C   0  0  0  0  0  1  0  0  0  0  0  0
  186.0410  178.2530  137.8320 C   0  0  1  0  0  3  0  0  0  0  0  0
  1 21  1  0  0  0  0
  2  8  1  0  0  0  0
  4 22  1  0  0  0  0
  5 17  1  0  0  0  0
  6 23  1  0  0  0  0
  6  1  1  0  0  0  0
  8 10  1  0  0  0  0
  8  7  1  0  0  0  0
  9 13  1  0  0  0  0
  9 14  1  0  0  0  0
 10 28  1  0  0  0  0
 12 28  1  0  0  0  0
 12 25  1  0  0  0  0
 13 26  1  0  0  0  0
 14  8  1  0  0  0  0
 15 11  2  0  0  0  0
 15 23  1  0  0  0  0
 16  1  2  0  0  0  0
 16 20  1  0  0  0  0
 17  3  2  0  0  0  0
 17 25  1  0  0  0  0
 18  9  2  0  0  0  0
 19 25  1  0  0  0  0
 19 15  1  0  0  0  0
 20  4  2  0  0  0  0
 21 22  2  0  0  0  0
 24  5  1  0  0  0  0
 24 12  1  0  0  0  0
 26 24  1  0  0  0  0
 26 10  2  0  0  0  0
 27  5  1  0  0  0  0
 28 16  1  0  0  0  0
M  END
>  <MODEL>
8

>  <REMARK>
 VINA RESULT:      -5.5      3.441      7.359
  Name = 
  0 active torsions:
  status: ('A' for Active; 'I' for Inactive)
                            x       y       z     vdW  Elec       q    Type
                         _______ _______ _______ _____ _____    ______ ____

>  <TORSDO>
F 0

$$$$
=
 OpenBabel11122411503D

 28 32  0  0  1  0  0  0  0  0999 V2000
  191.5510  176.3590  145.1220 C   0  0  0  0  0  0  0  0  0  0  0  0
  191.9540  177.9270  140.9440 O   0  0  0  0  0  1  0  0  0  0  0  0
  186.0680  177.2170  145.8850 O   0  0  0  0  0  0  0  0  0  0  0  0
  191.1760  173.9550  143.7280 C   0  0  0  0  0  3  0  0  0  0  0  0
  186.7090  177.9030  143.7160 N   0  0  0  0  0  0  0  0  0  0  0  0
  191.7260  177.6160  145.9210 C   0  0  0  0  0  2  0  0  0  0  0  0
  190.7370  176.0880  140.3860 O   0  0  0  0  0  1  0  0  0  0  0  0
  190.6670  177.4450  140.7000 C   0  0  0  0  0  0  0  0  0  0  0  0
  188.6740  178.3650  139.4300 C   0  0  0  0  0  0  0  0  0  0  0  0
  189.8080  177.6330  141.9230 C   0  0  0  0  0  0  0  0  0  0  0  0
  189.1970  177.5670  148.5920 O   0  0  0  0  0  0  0  0  0  0  0  0
  188.9660  177.9530  144.0480 C   0  0  1  0  0  3  0  0  0  0  0  0
  187.7450  177.9900  140.5490 C   0  0  0  0  0  2  0  0  0  0  0  0
  190.0890  178.1650  139.5640 N   0  0  0  0  0  2  0  0  0  0  0  0
  189.6950  177.8330  147.4680 C   0  0  0  0  0  0  0  0  0  0  0  0
  190.8540  176.3610  143.8910 C   0  0  0  0  0  0  0  0  0  0  0  0
  186.9710  177.5400  145.0690 C   0  0  0  0  0  0  0  0  0  0  0  0
  188.2090  178.8580  138.3710 O   0  0  0  0  0  0  0  0  0  0  0  0
  188.8350  178.4970  146.4400 C   0  0  0  0  0  2  0  0  0  0  0  0
  190.6520  175.1450  143.2200 C   0  0  0  0  0  3  0  0  0  0  0  0
  192.0790  175.1610  145.6180 C   0  0  0  0  0  3  0  0  0  0  0  0
  191.8950  173.9640  144.9240 C   0  0  0  0  0  3  0  0  0  0  0  0
  191.0650  177.4970  147.2160 N   0  0  0  0  0  2  0  0  0  0  0  0
  188.0020  178.1210  143.1770 C   0  0  1  0  0  3  0  0  0  0  0  0
  188.4400  177.4970  145.3710 C   0  0  2  0  0  3  0  0  0  0  0  0
  188.5060  177.9060  141.8370 C   0  0  0  0  0  0  0  0  0  0  0  0
  185.5250  177.5290  142.9620 C   0  0  0  0  0  1  0  0  0  0  0  0
  190.2650  177.6520  143.3690 C   0  0  1  0  0  3  0  0  0  0  0  0
  1 21  1  0  0  0  0
  1  6  1  0  0  0  0
  4 22  1  0  0  0  0
  5 17  1  0  0  0  0
  6 23  1  0  0  0  0
  7  8  1  0  0  0  0
  8  2  1  0  0  0  0
  8 10  1  0  0  0  0
  9 14  1  0  0  0  0
  9 13  1  0  0  0  0
 10 28  1  0  0  0  0
 12 25  1  0  0  0  0
 13 26  1  0  0  0  0
 14  8  1  0  0  0  0
 15 11  2  0  0  0  0
 16  1  2  0  0  0  0
 17 25  1  0  0  0  0
 17  3  2  0  0  0  0
 18  9  2  0  0  0  0
 19 15  1  0  0  0  0
 20  4  2  0  0  0  0
 20 16  1  0  0  0  0
 22 21  2  0  0  0  0
 23 15  1  0  0  0  0
 24  5  1  0  0  0  0
 24 12  1  0  0  0  0
 25 19  1  0  0  0  0
 26 10  2  0  0  0  0
 26 24  1  0  0  0  0
 27  5  1  0  0  0  0
 28 16  1  0  0  0  0
 28 12  1  0  0  0  0
M  END
>  <MODEL>
9

>  <REMARK>
 VINA RESULT:      -5.2      3.417      6.248
  Name = 
  0 active torsions:
  status: ('A' for Active; 'I' for Inactive)
                            x       y       z     vdW  Elec       q    Type
                         _______ _______ _______ _____ _____    ______ ____

>  <TORSDO>
F 0

$$$$
