=
 OpenBabel11122410513D

 32 37  0  0  1  0  0  0  0  0999 V2000
  184.5400  177.4230  137.5600 C   0  0  1  0  0  3  0  0  0  0  0  0
  189.5000  177.9600  138.1720 C   0  0  0  0  0  3  0  0  0  0  0  0
  189.6690  176.6910  137.7680 C   0  0  0  0  0  3  0  0  0  0  0  0
  183.6840  175.5810  136.0380 C   0  0  2  0  0  3  0  0  0  0  0  0
  184.0040  174.1490  136.1780 N   0  0  2  0  0  0  0  0  0  0  0  0
  183.0520  178.6910  138.6720 C   0  0  2  0  0  3  0  0  0  0  0  0
  185.4270  179.4740  138.6440 O   0  0  0  0  0  0  0  0  0  0  0  0
  185.8250  172.6800  136.7740 C   0  0  2  0  0  3  0  0  0  0  0  0
  188.1660  178.6600  138.1100 C   0  0  0  0  0  2  0  0  0  0  0  0
  185.6950  178.4130  137.7310 C   0  0  1  0  0  3  0  0  0  0  0  0
  187.0000  177.6730  138.0320 C   0  0  1  0  0  3  0  0  0  0  0  0
  186.0900  175.7220  136.7000 C   0  0  2  0  0  3  0  0  0  0  0  0
  185.0360  172.9630  138.0270 C   0  0  0  0  0  2  0  0  0  0  0  0
  184.2780  179.2470  139.4500 C   0  0  2  0  0  3  0  0  0  0  0  0
  183.8200  173.7560  137.5760 C   0  0  0  0  0  2  0  0  0  0  0  0
  188.5210  175.8220  137.3200 C   0  0  0  0  0  2  0  0  0  0  0  0
  187.2960  176.6430  136.9200 C   0  0  2  0  0  3  0  0  0  0  0  0
  186.3070  174.8130  135.6570 O   0  0  0  0  0  0  0  0  0  0  0  0
  183.3700  178.1680  137.3970 O   0  0  0  0  0  0  0  0  0  0  0  0
  183.1820  175.8630  134.6340 C   0  0  0  0  0  1  0  0  0  0  0  0
  187.1950  172.7480  137.0330 O   0  0  0  0  0  1  0  0  0  0  0  0
  184.8430  176.5260  136.3710 C   0  0  2  0  0  3  0  0  0  0  0  0
  185.3750  173.7440  135.7840 C   0  0  2  0  0  3  0  0  0  0  0  0
  185.8590  178.7970  141.2580 C   0  0  0  0  0  2  0  0  0  0  0  0
  184.6190  178.3520  140.6330 C   0  0  1  0  0  3  0  0  0  0  0  0
  184.5680  179.1450  141.8710 N   0  0  0  0  0  0  0  0  0  0  0  0
  184.3450  178.2040  142.9530 C   0  0  0  0  0  2  0  0  0  0  0  0
  183.4050  178.7930  143.9440 C   0  0  0  0  0  0  0  0  0  0  0  0
  182.2040  178.9980  143.6270 O   0  0  0  0  0  0  0  0  0  0  0  0
  183.8410  179.0800  145.2310 O   0  0  0  0  0  1  0  0  0  0  0  0
  181.3020  179.6660  137.1970 C   0  0  0  0  0  1  0  0  0  0  0  0
  182.0070  179.7830  138.5350 C   0  0  0  0  0  2  0  0  0  0  0  0
  1 19  1  6  0  0  0
  1 10  1  0  0  0  0
  3  2  2  0  0  0  0
  4 20  1  6  0  0  0
  4  5  1  0  0  0  0
  4 22  1  0  0  0  0
  5 15  1  1  0  0  0
  6 32  1  6  0  0  0
  6 14  1  0  0  0  0
  8 21  1  1  0  0  0
  8 13  1  0  0  0  0
  9  2  1  0  0  0  0
 10 11  1  0  0  0  0
 10  7  1  1  0  0  0
 11  9  1  6  0  0  0
 12 18  1  6  0  0  0
 12 17  1  0  0  0  0
 14  7  1  6  0  0  0
 14 25  1  0  0  0  0
 15 13  1  0  0  0  0
 16  3  1  0  0  0  0
 17 16  1  1  0  0  0
 17 11  1  0  0  0  0
 18 23  1  0  0  0  0
 19  6  1  0  0  0  0
 22 12  1  0  0  0  0
 22  1  1  0  0  0  0
 23  5  1  0  0  0  0
 23  8  1  0  0  0  0
 24 26  1  0  0  0  0
 25 24  1  0  0  0  0
 25 26  1  0  0  0  0
 26 27  1  0  0  0  0
 27 28  1  0  0  0  0
 28 30  1  0  0  0  0
 29 28  2  0  0  0  0
 31 32  1  0  0  0  0
M  END
>  <MODEL>
1

>  <REMARK>
 VINA RESULT:      -6.3      0.000      0.000
  Name = 
  4 active torsions:
  status: ('A' for Active; 'I' for Inactive)
    1  A    between atoms: C_7  and  C_19
    2  A    between atoms: C_10  and  C_17
    3  A    between atoms: N_20  and  C_29
    4  A    between atoms: C_29  and  C_30
                            x       y       z     vdW  Elec       q    Type
                         _______ _______ _______ _____ _____    ______ ____

>  <TORSDO>
F 4

$$$$
=
 OpenBabel11122410513D

 32 37  0  0  1  0  0  0  0  0999 V2000
  190.0620  176.6380  139.2180 C   0  0  1  0  0  3  0  0  0  0  0  0
  185.6280  178.6590  137.9810 C   0  0  0  0  0  3  0  0  0  0  0  0
  185.3670  178.8380  139.2850 C   0  0  0  0  0  3  0  0  0  0  0  0
  191.0500  177.1540  141.4970 C   0  0  2  0  0  3  0  0  0  0  0  0
  190.3780  176.9130  142.7870 N   0  0  2  0  0  0  0  0  0  0  0  0
  191.1470  175.2090  137.8620 C   0  0  2  0  0  3  0  0  0  0  0  0
  189.2900  176.5520  136.8590 O   0  0  0  0  0  0  0  0  0  0  0  0
  188.1960  177.0170  143.8160 C   0  0  2  0  0  3  0  0  0  0  0  0
  186.9720  178.1920  137.4800 C   0  0  0  0  0  2  0  0  0  0  0  0
  189.2180  177.2520  138.0970 C   0  0  1  0  0  3  0  0  0  0  0  0
  187.7830  177.4940  138.5710 C   0  0  1  0  0  3  0  0  0  0  0  0
  188.7090  177.8000  140.9080 C   0  0  2  0  0  3  0  0  0  0  0  0
  188.3850  175.6200  143.2800 C   0  0  0  0  0  2  0  0  0  0  0  0
  189.8700  175.2590  136.9750 C   0  0  2  0  0  3  0  0  0  0  0  0
  189.8210  175.5600  142.7870 C   0  0  0  0  0  2  0  0  0  0  0  0
  186.3560  178.4860  140.3670 C   0  0  0  0  0  2  0  0  0  0  0  0
  187.7840  178.3840  139.8340 C   0  0  2  0  0  3  0  0  0  0  0  0
  188.7750  178.6160  142.0440 O   0  0  0  0  0  0  0  0  0  0  0  0
  191.3190  176.3460  138.6840 O   0  0  0  0  0  0  0  0  0  0  0  0
  192.1770  178.1530  141.6810 C   0  0  0  0  0  1  0  0  0  0  0  0
  186.9120  177.4820  143.5250 O   0  0  0  0  0  1  0  0  0  0  0  0
  190.1210  177.6230  140.3740 C   0  0  2  0  0  3  0  0  0  0  0  0
  189.2740  177.8430  143.1310 C   0  0  2  0  0  3  0  0  0  0  0  0
  187.5940  174.4060  136.7120 C   0  0  0  0  0  2  0  0  0  0  0  0
  188.8380  174.2480  137.4560 C   0  0  1  0  0  3  0  0  0  0  0  0
  188.5210  173.3200  136.3600 N   0  0  0  0  0  0  0  0  0  0  0  0
  188.0110  172.1110  136.9790 C   0  0  0  0  0  2  0  0  0  0  0  0
  187.5300  171.1740  135.9280 C   0  0  0  0  0  0  0  0  0  0  0  0
  188.3090  170.3090  135.4520 O   0  0  0  0  0  0  0  0  0  0  0  0
  186.2090  171.2290  135.5010 O   0  0  0  0  0  1  0  0  0  0  0  0
  193.2900  176.2200  137.1050 C   0  0  0  0  0  1  0  0  0  0  0  0
  192.3650  175.0250  136.9760 C   0  0  0  0  0  2  0  0  0  0  0  0
  1 19  1  6  0  0  0
  1 22  1  0  0  0  0
  2  3  2  0  0  0  0
  3 16  1  0  0  0  0
  4 20  1  1  0  0  0
  4  5  1  0  0  0  0
  5 15  1  6  0  0  0
  5 23  1  0  0  0  0
  6 32  1  6  0  0  0
  6 19  1  0  0  0  0
  8 21  1  6  0  0  0
  9  2  1  0  0  0  0
 10  7  1  6  0  0  0
 10 11  1  0  0  0  0
 10  1  1  0  0  0  0
 11  9  1  6  0  0  0
 11 17  1  0  0  0  0
 12 18  1  1  0  0  0
 13  8  1  0  0  0  0
 14  7  1  1  0  0  0
 14 25  1  0  0  0  0
 14  6  1  0  0  0  0
 15 13  1  0  0  0  0
 17 16  1  1  0  0  0
 17 12  1  0  0  0  0
 18 23  1  0  0  0  0
 22 12  1  0  0  0  0
 22  4  1  0  0  0  0
 23  8  1  0  0  0  0
 24 25  1  0  0  0  0
 26 24  1  0  0  0  0
 26 27  1  0  0  0  0
 26 25  1  0  0  0  0
 28 27  1  0  0  0  0
 29 28  2  0  0  0  0
 30 28  1  0  0  0  0
 32 31  1  0  0  0  0
M  END
>  <MODEL>
2

>  <REMARK>
 VINA RESULT:      -5.5      3.349      8.216
  Name = 
  4 active torsions:
  status: ('A' for Active; 'I' for Inactive)
    1  A    between atoms: C_7  and  C_19
    2  A    between atoms: C_10  and  C_17
    3  A    between atoms: N_20  and  C_29
    4  A    between atoms: C_29  and  C_30
                            x       y       z     vdW  Elec       q    Type
                         _______ _______ _______ _____ _____    ______ ____

>  <TORSDO>
F 4

$$$$
=
 OpenBabel11122410513D

 32 37  0  0  1  0  0  0  0  0999 V2000
  189.3030  176.7390  139.0190 C   0  0  1  0  0  3  0  0  0  0  0  0
  184.8550  179.0670  138.7640 C   0  0  0  0  0  3  0  0  0  0  0  0
  184.8770  179.2170  140.0980 C   0  0  0  0  0  3  0  0  0  0  0  0
  190.7670  177.1130  141.0580 C   0  0  2  0  0  3  0  0  0  0  0  0
  190.3560  176.8690  142.4530 N   0  0  2  0  0  0  0  0  0  0  0  0
  189.9910  175.2960  137.4380 C   0  0  2  0  0  3  0  0  0  0  0  0
  188.0630  176.7830  136.8680 O   0  0  0  0  0  0  0  0  0  0  0  0
  188.4420  177.0680  143.9100 C   0  0  2  0  0  3  0  0  0  0  0  0
  186.0340  178.5380  137.9880 C   0  0  0  0  0  2  0  0  0  0  0  0
  188.2920  177.4420  138.1100 C   0  0  1  0  0  3  0  0  0  0  0  0
  187.0030  177.7540  138.8740 C   0  0  1  0  0  3  0  0  0  0  0  0
  188.4030  177.9210  140.9760 C   0  0  2  0  0  3  0  0  0  0  0  0
  188.4240  175.6830  143.3160 C   0  0  0  0  0  2  0  0  0  0  0  0
  188.5670  175.4540  136.8340 C   0  0  2  0  0  3  0  0  0  0  0  0
  189.7230  175.5530  142.5370 C   0  0  0  0  0  2  0  0  0  0  0  0
  186.0400  178.7670  140.9460 C   0  0  0  0  0  2  0  0  0  0  0  0
  187.3200  178.5980  140.1280 C   0  0  2  0  0  3  0  0  0  0  0  0
  188.7540  178.6900  142.0920 O   0  0  0  0  0  0  0  0  0  0  0  0
  190.4020  176.3910  138.2320 O   0  0  0  0  0  0  0  0  0  0  0  0
  191.9710  178.0360  141.0280 C   0  0  0  0  0  1  0  0  0  0  0  0
  187.1600  177.6210  143.8990 O   0  0  0  0  0  1  0  0  0  0  0  0
  189.6620  177.6780  140.1600 C   0  0  2  0  0  3  0  0  0  0  0  0
  189.4110  177.8510  143.0360 C   0  0  2  0  0  3  0  0  0  0  0  0
  186.2280  174.7840  137.0650 C   0  0  0  0  0  2  0  0  0  0  0  0
  187.5900  174.4910  137.4950 C   0  0  1  0  0  3  0  0  0  0  0  0
  186.9570  173.6580  136.4600 N   0  0  0  0  0  0  0  0  0  0  0  0
  186.5000  172.4520  137.1270 C   0  0  0  0  0  2  0  0  0  0  0  0
  185.2380  171.9800  136.4980 C   0  0  0  0  0  0  0  0  0  0  0  0
  185.2410  171.5730  135.3070 O   0  0  0  0  0  0  0  0  0  0  0  0
  184.0620  171.9500  137.2370 O   0  0  0  0  0  1  0  0  0  0  0  0
  192.2720  175.8270  136.5990 C   0  0  0  0  0  1  0  0  0  0  0  0
  190.9890  175.0690  136.3170 C   0  0  0  0  0  2  0  0  0  0  0  0
  1 19  1  6  0  0  0
  1 22  1  0  0  0  0
  2  3  2  0  0  0  0
  3 16  1  0  0  0  0
  4 20  1  1  0  0  0
  4  5  1  0  0  0  0
  5 15  1  6  0  0  0
  5 23  1  0  0  0  0
  6 32  1  6  0  0  0
  6 19  1  0  0  0  0
  8 21  1  6  0  0  0
  9  2  1  0  0  0  0
 10  7  1  6  0  0  0
 10 11  1  0  0  0  0
 10  1  1  0  0  0  0
 11  9  1  6  0  0  0
 11 17  1  0  0  0  0
 12 18  1  1  0  0  0
 13  8  1  0  0  0  0
 14  7  1  1  0  0  0
 14  6  1  0  0  0  0
 14 25  1  0  0  0  0
 15 13  1  0  0  0  0
 17 16  1  1  0  0  0
 17 12  1  0  0  0  0
 18 23  1  0  0  0  0
 22 12  1  0  0  0  0
 22  4  1  0  0  0  0
 23  8  1  0  0  0  0
 24 25  1  0  0  0  0
 26 24  1  0  0  0  0
 26 27  1  0  0  0  0
 26 25  1  0  0  0  0
 28 27  1  0  0  0  0
 28 30  1  0  0  0  0
 29 28  2  0  0  0  0
 32 31  1  0  0  0  0
M  END
>  <MODEL>
3

>  <REMARK>
 VINA RESULT:      -5.4      2.986      7.648
  Name = 
  4 active torsions:
  status: ('A' for Active; 'I' for Inactive)
    1  A    between atoms: C_7  and  C_19
    2  A    between atoms: C_10  and  C_17
    3  A    between atoms: N_20  and  C_29
    4  A    between atoms: C_29  and  C_30
                            x       y       z     vdW  Elec       q    Type
                         _______ _______ _______ _____ _____    ______ ____

>  <TORSDO>
F 4

$$$$
=
 OpenBabel11122410513D

 32 37  0  0  1  0  0  0  0  0999 V2000
  185.5540  176.9830  137.1980 C   0  0  1  0  0  3  0  0  0  0  0  0
  190.0750  176.9410  135.0030 C   0  0  0  0  0  3  0  0  0  0  0  0
  189.8450  175.6840  134.5940 C   0  0  0  0  0  3  0  0  0  0  0  0
  183.7970  175.3260  136.4180 C   0  0  2  0  0  3  0  0  0  0  0  0
  183.9680  173.8620  136.3870 N   0  0  2  0  0  0  0  0  0  0  0  0
  185.0710  178.3480  138.9190 C   0  0  2  0  0  3  0  0  0  0  0  0
  187.1240  178.8660  137.5890 O   0  0  0  0  0  0  0  0  0  0  0  0
  185.6290  172.1740  135.9200 C   0  0  2  0  0  3  0  0  0  0  0  0
  189.0160  177.7860  135.6650 C   0  0  0  0  0  2  0  0  0  0  0  0
  186.7260  177.8310  136.6970 C   0  0  1  0  0  3  0  0  0  0  0  0
  187.8870  176.9380  136.2510 C   0  0  1  0  0  3  0  0  0  0  0  0
  186.1740  175.1690  135.6620 C   0  0  2  0  0  3  0  0  0  0  0  0
  185.6860  172.4780  137.3960 C   0  0  0  0  0  2  0  0  0  0  0  0
  186.5790  178.7270  138.8950 C   0  0  2  0  0  3  0  0  0  0  0  0
  184.5260  173.4210  137.6660 C   0  0  0  0  0  2  0  0  0  0  0  0
  188.5440  174.9700  134.8580 C   0  0  0  0  0  2  0  0  0  0  0  0
  187.4060  175.9400  135.1750 C   0  0  2  0  0  3  0  0  0  0  0  0
  185.6800  174.2960  134.6850 O   0  0  0  0  0  0  0  0  0  0  0  0
  184.5820  177.8590  137.6860 O   0  0  0  0  0  0  0  0  0  0  0  0
  182.6520  175.7320  135.5100 C   0  0  0  0  0  1  0  0  0  0  0  0
  186.9180  172.0780  135.3910 O   0  0  0  0  0  1  0  0  0  0  0  0
  185.0550  176.1200  136.0510 C   0  0  2  0  0  3  0  0  0  0  0  0
  184.8460  173.3300  135.3170 C   0  0  2  0  0  3  0  0  0  0  0  0
  188.8070  178.1100  139.6880 C   0  0  0  0  0  2  0  0  0  0  0  0
  187.3970  177.7400  139.7170 C   0  0  1  0  0  3  0  0  0  0  0  0
  187.9900  178.4420  140.8650 N   0  0  0  0  0  0  0  0  0  0  0  0
  188.2640  177.4300  141.8690 C   0  0  0  0  0  2  0  0  0  0  0  0
  189.6550  177.5860  142.3710 C   0  0  0  0  0  0  0  0  0  0  0  0
  189.9730  178.6050  143.0390 O   0  0  0  0  0  1  0  0  0  0  0  0
  190.5940  176.5890  142.1390 O   0  0  0  0  0  0  0  0  0  0  0  0
  182.8620  179.4820  138.7650 C   0  0  0  0  0  1  0  0  0  0  0  0
  184.2580  179.5530  139.3540 C   0  0  0  0  0  2  0  0  0  0  0  0
  1 19  1  6  0  0  0
  2  9  1  0  0  0  0
  3 16  1  0  0  0  0
  3  2  2  0  0  0  0
  4 20  1  6  0  0  0
  5  4  1  0  0  0  0
  5 15  1  1  0  0  0
  6 32  1  6  0  0  0
  8 21  1  6  0  0  0
  8 13  1  0  0  0  0
 10  1  1  0  0  0  0
 10  7  1  1  0  0  0
 11  9  1  6  0  0  0
 11 10  1  0  0  0  0
 12 18  1  6  0  0  0
 12 22  1  0  0  0  0
 13 15  1  0  0  0  0
 14  7  1  6  0  0  0
 14  6  1  0  0  0  0
 14 25  1  0  0  0  0
 17 16  1  1  0  0  0
 17 12  1  0  0  0  0
 17 11  1  0  0  0  0
 18 23  1  0  0  0  0
 19  6  1  0  0  0  0
 22  4  1  0  0  0  0
 22  1  1  0  0  0  0
 23  8  1  0  0  0  0
 23  5  1  0  0  0  0
 24 25  1  0  0  0  0
 24 26  1  0  0  0  0
 25 26  1  0  0  0  0
 26 27  1  0  0  0  0
 27 28  1  0  0  0  0
 28 29  1  0  0  0  0
 30 28  2  0  0  0  0
 31 32  1  0  0  0  0
M  END
>  <MODEL>
4

>  <REMARK>
 VINA RESULT:      -5.3      2.441      3.077
  Name = 
  4 active torsions:
  status: ('A' for Active; 'I' for Inactive)
    1  A    between atoms: C_7  and  C_19
    2  A    between atoms: C_10  and  C_17
    3  A    between atoms: N_20  and  C_29
    4  A    between atoms: C_29  and  C_30
                            x       y       z     vdW  Elec       q    Type
                         _______ _______ _______ _____ _____    ______ ____

>  <TORSDO>
F 4

$$$$
=
 OpenBabel11122410513D

 32 37  0  0  1  0  0  0  0  0999 V2000
  183.6780  177.7920  137.4650 C   0  0  1  0  0  3  0  0  0  0  0  0
  188.6980  178.0070  137.3060 C   0  0  0  0  0  3  0  0  0  0  0  0
  188.7170  176.7650  136.7980 C   0  0  0  0  0  3  0  0  0  0  0  0
  182.4750  176.1210  135.9830 C   0  0  2  0  0  3  0  0  0  0  0  0
  182.7160  174.6660  135.9760 N   0  0  2  0  0  0  0  0  0  0  0  0
  182.4700  179.0540  138.8820 C   0  0  2  0  0  3  0  0  0  0  0  0
  184.8580  179.7040  138.5240 O   0  0  0  0  0  0  0  0  0  0  0  0
  184.5060  173.0590  136.1740 C   0  0  2  0  0  3  0  0  0  0  0  0
  187.4200  178.7830  137.5040 C   0  0  0  0  0  2  0  0  0  0  0  0
  184.9090  178.7020  137.5130 C   0  0  1  0  0  3  0  0  0  0  0  0
  186.1940  177.8710  137.5510 C   0  0  1  0  0  3  0  0  0  0  0  0
  184.9580  176.0790  136.2580 C   0  0  2  0  0  3  0  0  0  0  0  0
  183.9430  173.2900  137.5530 C   0  0  0  0  0  2  0  0  0  0  0  0
  183.8370  179.4820  139.4880 C   0  0  2  0  0  3  0  0  0  0  0  0
  182.7280  174.1810  137.3560 C   0  0  0  0  0  2  0  0  0  0  0  0
  187.4570  175.9970  136.4840 C   0  0  0  0  0  2  0  0  0  0  0  0
  186.2420  176.9120  136.3410 C   0  0  2  0  0  3  0  0  0  0  0  0
  184.9490  175.2400  135.1360 O   0  0  0  0  0  0  0  0  0  0  0  0
  182.5500  178.6120  137.5420 O   0  0  0  0  0  0  0  0  0  0  0  0
  181.7790  176.5340  134.7000 C   0  0  0  0  0  1  0  0  0  0  0  0
  185.9020  173.0310  136.2140 O   0  0  0  0  0  1  0  0  0  0  0  0
  183.7320  176.9730  136.1870 C   0  0  2  0  0  3  0  0  0  0  0  0
  183.9790  174.2180  135.3410 C   0  0  2  0  0  3  0  0  0  0  0  0
  185.6140  178.8580  141.0460 C   0  0  0  0  0  2  0  0  0  0  0  0
  184.2990  178.4820  140.5390 C   0  0  1  0  0  3  0  0  0  0  0  0
  184.4130  179.1640  141.8380 N   0  0  0  0  0  0  0  0  0  0  0  0
  184.3020  178.1340  142.8540 C   0  0  0  0  0  2  0  0  0  0  0  0
  184.0230  178.7600  144.1740 C   0  0  0  0  0  0  0  0  0  0  0  0
  184.9300  179.3910  144.7760 O   0  0  0  0  0  1  0  0  0  0  0  0
  182.7500  178.6840  144.7240 O   0  0  0  0  0  0  0  0  0  0  0  0
  180.7980  180.4280  137.6550 C   0  0  0  0  0  1  0  0  0  0  0  0
  181.4920  180.2090  138.9860 C   0  0  0  0  0  2  0  0  0  0  0  0
  1 10  1  0  0  0  0
  1 19  1  6  0  0  0
  2  9  1  0  0  0  0
  3  2  2  0  0  0  0
  4 20  1  6  0  0  0
  4 22  1  0  0  0  0
  5  4  1  0  0  0  0
  5 15  1  1  0  0  0
  6 32  1  6  0  0  0
  6 14  1  0  0  0  0
  8 21  1  1  0  0  0
  8 13  1  0  0  0  0
 10 11  1  0  0  0  0
 10  7  1  1  0  0  0
 11  9  1  6  0  0  0
 12 18  1  6  0  0  0
 12 17  1  0  0  0  0
 14  7  1  6  0  0  0
 14 25  1  0  0  0  0
 15 13  1  0  0  0  0
 16  3  1  0  0  0  0
 17 16  1  1  0  0  0
 17 11  1  0  0  0  0
 18 23  1  0  0  0  0
 19  6  1  0  0  0  0
 22 12  1  0  0  0  0
 22  1  1  0  0  0  0
 23  5  1  0  0  0  0
 23  8  1  0  0  0  0
 24 26  1  0  0  0  0
 25 24  1  0  0  0  0
 25 26  1  0  0  0  0
 26 27  1  0  0  0  0
 27 28  1  0  0  0  0
 28 30  2  0  0  0  0
 28 29  1  0  0  0  0
 31 32  1  0  0  0  0
M  END
>  <MODEL>
5

>  <REMARK>
 VINA RESULT:      -5.1      1.030      1.207
  Name = 
  4 active torsions:
  status: ('A' for Active; 'I' for Inactive)
    1  A    between atoms: C_7  and  C_19
    2  A    between atoms: C_10  and  C_17
    3  A    between atoms: N_20  and  C_29
    4  A    between atoms: C_29  and  C_30
                            x       y       z     vdW  Elec       q    Type
                         _______ _______ _______ _____ _____    ______ ____

>  <TORSDO>
F 4

$$$$
=
 OpenBabel11122410513D

 32 37  0  0  1  0  0  0  0  0999 V2000
  186.0680  177.0820  137.8100 C   0  0  1  0  0  3  0  0  0  0  0  0
  190.3440  177.2000  135.1710 C   0  0  0  0  0  3  0  0  0  0  0  0
  189.9990  176.0370  134.5940 C   0  0  0  0  0  3  0  0  0  0  0  0
  184.1460  175.6550  136.9670 C   0  0  2  0  0  3  0  0  0  0  0  0
  184.2230  174.2100  136.6870 N   0  0  2  0  0  0  0  0  0  0  0  0
  185.8380  178.1680  139.7660 C   0  0  2  0  0  3  0  0  0  0  0  0
  187.7800  178.8050  138.3260 O   0  0  0  0  0  0  0  0  0  0  0  0
  185.7260  172.5490  135.7860 C   0  0  2  0  0  3  0  0  0  0  0  0
  189.4070  177.9710  136.0660 C   0  0  0  0  0  2  0  0  0  0  0  0
  187.2350  177.9480  137.3280 C   0  0  1  0  0  3  0  0  0  0  0  0
  188.2900  177.0890  136.6270 C   0  0  1  0  0  3  0  0  0  0  0  0
  186.4240  175.5180  135.9490 C   0  0  2  0  0  3  0  0  0  0  0  0
  185.9440  172.6040  137.2770 C   0  0  0  0  0  2  0  0  0  0  0  0
  187.3560  178.4780  139.6430 C   0  0  2  0  0  3  0  0  0  0  0  0
  184.8750  173.5420  137.8140 C   0  0  0  0  0  2  0  0  0  0  0  0
  188.6880  175.3490  134.8780 C   0  0  0  0  0  2  0  0  0  0  0  0
  187.6480  176.3030  135.4630 C   0  0  2  0  0  3  0  0  0  0  0  0
  185.7860  174.8400  134.9040 O   0  0  0  0  0  0  0  0  0  0  0  0
  185.2030  177.9090  138.5300 O   0  0  0  0  0  0  0  0  0  0  0  0
  182.9450  176.2540  136.2600 C   0  0  0  0  0  1  0  0  0  0  0  0
  186.9490  172.4830  135.1160 O   0  0  0  0  0  1  0  0  0  0  0  0
  185.4080  176.4420  136.6000 C   0  0  2  0  0  3  0  0  0  0  0  0
  184.9600  173.8220  135.4600 C   0  0  2  0  0  3  0  0  0  0  0  0
  189.6090  177.6100  140.0250 C   0  0  0  0  0  2  0  0  0  0  0  0
  188.1890  177.3350  140.2070 C   0  0  1  0  0  3  0  0  0  0  0  0
  188.9870  177.8310  141.3390 N   0  0  0  0  0  0  0  0  0  0  0  0
  189.3040  176.6740  142.1570 C   0  0  0  0  0  2  0  0  0  0  0  0
  189.9030  177.1190  143.4440 C   0  0  0  0  0  0  0  0  0  0  0  0
  189.2990  176.9050  144.5270 O   0  0  0  0  0  1  0  0  0  0  0  0
  191.1480  177.7350  143.4540 O   0  0  0  0  0  0  0  0  0  0  0  0
  185.1950  179.1220  141.9720 C   0  0  0  0  0  1  0  0  0  0  0  0
  185.1450  179.3210  140.4690 C   0  0  0  0  0  2  0  0  0  0  0  0
  1 19  1  6  0  0  0
  2  9  1  0  0  0  0
  3 16  1  0  0  0  0
  3  2  2  0  0  0  0
  4 20  1  6  0  0  0
  5  4  1  0  0  0  0
  5 15  1  1  0  0  0
  6 32  1  6  0  0  0
  8 21  1  6  0  0  0
  8 13  1  0  0  0  0
 10  1  1  0  0  0  0
 10  7  1  1  0  0  0
 11  9  1  6  0  0  0
 11 10  1  0  0  0  0
 12 18  1  6  0  0  0
 12 22  1  0  0  0  0
 13 15  1  0  0  0  0
 14  7  1  6  0  0  0
 14  6  1  0  0  0  0
 14 25  1  0  0  0  0
 17 16  1  1  0  0  0
 17 12  1  0  0  0  0
 17 11  1  0  0  0  0
 18 23  1  0  0  0  0
 19  6  1  0  0  0  0
 22  4  1  0  0  0  0
 22  1  1  0  0  0  0
 23  8  1  0  0  0  0
 23  5  1  0  0  0  0
 24 25  1  0  0  0  0
 24 26  1  0  0  0  0
 25 26  1  0  0  0  0
 26 27  1  0  0  0  0
 27 28  1  0  0  0  0
 28 30  2  0  0  0  0
 28 29  1  0  0  0  0
 32 31  1  0  0  0  0
M  END
>  <MODEL>
6

>  <REMARK>
 VINA RESULT:      -5.0      2.654      3.448
  Name = 
  4 active torsions:
  status: ('A' for Active; 'I' for Inactive)
    1  A    between atoms: C_7  and  C_19
    2  A    between atoms: C_10  and  C_17
    3  A    between atoms: N_20  and  C_29
    4  A    between atoms: C_29  and  C_30
                            x       y       z     vdW  Elec       q    Type
                         _______ _______ _______ _____ _____    ______ ____

>  <TORSDO>
F 4

$$$$
=
 OpenBabel11122410513D

 32 37  0  0  1  0  0  0  0  0999 V2000
  186.6920  177.1060  137.9850 C   0  0  1  0  0  3  0  0  0  0  0  0
  191.6800  176.6200  137.5980 C   0  0  0  0  0  3  0  0  0  0  0  0
  191.4980  175.4480  136.9670 C   0  0  0  0  0  3  0  0  0  0  0  0
  185.2050  175.7910  136.4040 C   0  0  2  0  0  3  0  0  0  0  0  0
  185.2300  174.3260  136.2390 N   0  0  2  0  0  0  0  0  0  0  0  0
  185.7320  178.3680  139.5810 C   0  0  2  0  0  3  0  0  0  0  0  0
  188.1760  178.7060  139.1710 O   0  0  0  0  0  0  0  0  0  0  0  0
  186.7700  172.4680  136.1850 C   0  0  2  0  0  3  0  0  0  0  0  0
  190.5380  177.5440  137.9370 C   0  0  0  0  0  2  0  0  0  0  0  0
  188.0440  177.8210  138.0630 C   0  0  1  0  0  3  0  0  0  0  0  0
  189.1930  176.8160  137.9530 C   0  0  1  0  0  3  0  0  0  0  0  0
  187.6640  175.3660  136.5490 C   0  0  2  0  0  3  0  0  0  0  0  0
  186.2960  172.6280  137.6070 C   0  0  0  0  0  2  0  0  0  0  0  0
  187.1680  178.5300  140.1570 C   0  0  2  0  0  3  0  0  0  0  0  0
  185.2180  173.6990  137.5620 C   0  0  0  0  0  2  0  0  0  0  0  0
  190.1300  174.9060  136.6410 C   0  0  0  0  0  2  0  0  0  0  0  0
  189.0580  175.9950  136.6510 C   0  0  2  0  0  3  0  0  0  0  0  0
  187.4920  174.6620  135.3510 O   0  0  0  0  0  0  0  0  0  0  0  0
  185.6990  178.0650  138.2000 O   0  0  0  0  0  0  0  0  0  0  0  0
  184.5330  176.4340  135.2060 C   0  0  0  0  0  1  0  0  0  0  0  0
  188.1470  172.2370  136.1520 O   0  0  0  0  0  1  0  0  0  0  0  0
  186.5800  176.4280  136.6300 C   0  0  2  0  0  3  0  0  0  0  0  0
  186.3900  173.7720  135.5000 C   0  0  2  0  0  3  0  0  0  0  0  0
  188.8890  177.4910  141.5460 C   0  0  0  0  0  2  0  0  0  0  0  0
  187.5140  177.3680  141.0780 C   0  0  1  0  0  3  0  0  0  0  0  0
  187.7810  177.8860  142.4290 N   0  0  0  0  0  0  0  0  0  0  0  0
  187.5560  176.7810  143.3440 C   0  0  0  0  0  2  0  0  0  0  0  0
  188.0980  177.1240  144.6860 C   0  0  0  0  0  0  0  0  0  0  0  0
  189.2570  176.7540  145.0100 O   0  0  0  0  0  0  0  0  0  0  0  0
  187.3420  177.8870  145.5670 O   0  0  0  0  0  1  0  0  0  0  0  0
  183.6250  179.5960  139.0920 C   0  0  0  0  0  1  0  0  0  0  0  0
  184.9380  179.6330  139.8490 C   0  0  0  0  0  2  0  0  0  0  0  0
  1 10  1  0  0  0  0
  1 19  1  6  0  0  0
  2  9  1  0  0  0  0
  3  2  2  0  0  0  0
  4 20  1  6  0  0  0
  4 22  1  0  0  0  0
  5  4  1  0  0  0  0
  5 15  1  1  0  0  0
  6 32  1  6  0  0  0
  6 14  1  0  0  0  0
  8 21  1  1  0  0  0
  8 13  1  0  0  0  0
 10  7  1  1  0  0  0
 11  9  1  6  0  0  0
 11 10  1  0  0  0  0
 12 18  1  6  0  0  0
 12 22  1  0  0  0  0
 12 17  1  0  0  0  0
 14  7  1  6  0  0  0
 14 25  1  0  0  0  0
 15 13  1  0  0  0  0
 16  3  1  0  0  0  0
 17 16  1  1  0  0  0
 17 11  1  0  0  0  0
 18 23  1  0  0  0  0
 19  6  1  0  0  0  0
 22  1  1  0  0  0  0
 23  8  1  0  0  0  0
 23  5  1  0  0  0  0
 24 26  1  0  0  0  0
 25 24  1  0  0  0  0
 25 26  1  0  0  0  0
 26 27  1  0  0  0  0
 27 28  1  0  0  0  0
 28 29  2  0  0  0  0
 28 30  1  0  0  0  0
 31 32  1  0  0  0  0
M  END
>  <MODEL>
7

>  <REMARK>
 VINA RESULT:      -5.0      2.194      2.837
  Name = 
  4 active torsions:
  status: ('A' for Active; 'I' for Inactive)
    1  A    between atoms: C_7  and  C_19
    2  A    between atoms: C_10  and  C_17
    3  A    between atoms: N_20  and  C_29
    4  A    between atoms: C_29  and  C_30
                            x       y       z     vdW  Elec       q    Type
                         _______ _______ _______ _____ _____    ______ ____

>  <TORSDO>
F 4

$$$$
=
 OpenBabel11122410513D

 32 37  0  0  1  0  0  0  0  0999 V2000
  186.3800  177.3540  136.8150 C   0  0  1  0  0  3  0  0  0  0  0  0
  186.4220  178.7830  141.6340 C   0  0  0  0  0  3  0  0  0  0  0  0
  187.7080  178.4040  141.7160 C   0  0  0  0  0  3  0  0  0  0  0  0
  188.5860  177.1580  135.5750 C   0  0  2  0  0  3  0  0  0  0  0  0
  189.7250  176.3230  136.0000 N   0  0  2  0  0  0  0  0  0  0  0  0
  184.4830  176.7820  135.7520 C   0  0  2  0  0  3  0  0  0  0  0  0
  184.2540  178.0120  137.9180 O   0  0  0  0  0  0  0  0  0  0  0  0
  190.8880  175.6040  137.9890 C   0  0  2  0  0  3  0  0  0  0  0  0
  185.6670  178.8120  140.3290 C   0  0  0  0  0  2  0  0  0  0  0  0
  185.6700  178.1670  137.9010 C   0  0  1  0  0  3  0  0  0  0  0  0
  186.3200  177.9270  139.2660 C   0  0  1  0  0  3  0  0  0  0  0  0
  188.4990  177.5070  138.0480 C   0  0  2  0  0  3  0  0  0  0  0  0
  189.8280  174.5770  137.6810 C   0  0  0  0  0  2  0  0  0  0  0  0
  183.7990  176.9110  137.1430 C   0  0  2  0  0  3  0  0  0  0  0  0
  189.2340  174.9890  136.3440 C   0  0  0  0  0  2  0  0  0  0  0  0
  188.4740  177.8720  140.5320 C   0  0  0  0  0  2  0  0  0  0  0  0
  187.8270  178.2590  139.2030 C   0  0  2  0  0  3  0  0  0  0  0  0
  189.8560  177.8320  137.9300 O   0  0  0  0  0  0  0  0  0  0  0  0
  185.6710  177.5370  135.6250 O   0  0  0  0  0  0  0  0  0  0  0  0
  189.0570  178.2140  134.5940 C   0  0  0  0  0  1  0  0  0  0  0  0
  190.9150  175.8840  139.3570 O   0  0  0  0  0  1  0  0  0  0  0  0
  187.8230  177.8240  136.7250 C   0  0  2  0  0  3  0  0  0  0  0  0
  190.5000  176.8200  137.1620 C   0  0  2  0  0  3  0  0  0  0  0  0
  182.6590  174.8850  137.9000 C   0  0  0  0  0  2  0  0  0  0  0  0
  183.9230  175.6120  137.9280 C   0  0  1  0  0  3  0  0  0  0  0  0
  183.7570  174.4740  137.0110 N   0  0  0  0  0  0  0  0  0  0  0  0
  184.4090  173.3400  137.6410 C   0  0  0  0  0  2  0  0  0  0  0  0
  184.0770  172.0950  136.8980 C   0  0  0  0  0  0  0  0  0  0  0  0
  183.0810  171.4060  137.2380 O   0  0  0  0  0  1  0  0  0  0  0  0
  184.8430  171.7140  135.8040 O   0  0  0  0  0  0  0  0  0  0  0  0
  182.1160  177.3730  135.2650 C   0  0  0  0  0  1  0  0  0  0  0  0
  183.4980  177.1860  134.6700 C   0  0  0  0  0  2  0  0  0  0  0  0
  1 19  1  6  0  0  0
  1 10  1  0  0  0  0
  2  3  2  0  0  0  0
  4 20  1  6  0  0  0
  4  5  1  0  0  0  0
  4 22  1  0  0  0  0
  5 15  1  1  0  0  0
  5 23  1  0  0  0  0
  6 32  1  6  0  0  0
  6 14  1  0  0  0  0
  8 21  1  1  0  0  0
  9  2  1  0  0  0  0
 10  7  1  1  0  0  0
 10 11  1  0  0  0  0
 11  9  1  1  0  0  0
 12 18  1  6  0  0  0
 12 17  1  0  0  0  0
 13  8  1  0  0  0  0
 14  7  1  1  0  0  0
 14 25  1  0  0  0  0
 15 13  1  0  0  0  0
 16  3  1  0  0  0  0
 17 11  1  0  0  0  0
 17 16  1  1  0  0  0
 19  6  1  0  0  0  0
 22  1  1  0  0  0  0
 22 12  1  0  0  0  0
 23 18  1  0  0  0  0
 23  8  1  0  0  0  0
 24 25  1  0  0  0  0
 26 27  1  0  0  0  0
 26 24  1  0  0  0  0
 26 25  1  0  0  0  0
 28 29  1  0  0  0  0
 28 27  1  0  0  0  0
 30 28  2  0  0  0  0
 32 31  1  0  0  0  0
M  END
>  <MODEL>
8

>  <REMARK>
 VINA RESULT:      -4.9      2.749      5.470
  Name = 
  4 active torsions:
  status: ('A' for Active; 'I' for Inactive)
    1  A    between atoms: C_7  and  C_19
    2  A    between atoms: C_10  and  C_17
    3  A    between atoms: N_20  and  C_29
    4  A    between atoms: C_29  and  C_30
                            x       y       z     vdW  Elec       q    Type
                         _______ _______ _______ _____ _____    ______ ____

>  <TORSDO>
F 4

$$$$
=
 OpenBabel11122410513D

 32 37  0  0  1  0  0  0  0  0999 V2000
  182.0400  177.0860  136.5460 C   0  0  1  0  0  3  0  0  0  0  0  0
  182.1300  178.4490  141.3830 C   0  0  0  0  0  3  0  0  0  0  0  0
  181.2650  179.4360  141.1020 C   0  0  0  0  0  3  0  0  0  0  0  0
  180.0740  177.7970  135.1080 C   0  0  2  0  0  3  0  0  0  0  0  0
  179.6280  179.1890  134.9110 N   0  0  2  0  0  0  0  0  0  0  0  0
  183.7330  175.9570  135.5880 C   0  0  2  0  0  3  0  0  0  0  0  0
  183.6770  176.0300  138.0870 O   0  0  0  0  0  0  0  0  0  0  0  0
  179.3840  181.2710  136.1080 C   0  0  2  0  0  3  0  0  0  0  0  0
  182.5130  177.3950  140.3750 C   0  0  0  0  0  2  0  0  0  0  0  0
  182.4090  176.6690  137.9720 C   0  0  1  0  0  3  0  0  0  0  0  0
  182.2340  177.8420  138.9400 C   0  0  1  0  0  3  0  0  0  0  0  0
  180.4090  178.7060  137.4120 C   0  0  2  0  0  3  0  0  0  0  0  0
  180.7470  181.2700  135.4640 C   0  0  0  0  0  2  0  0  0  0  0  0
  184.4890  176.1770  136.9300 C   0  0  2  0  0  3  0  0  0  0  0  0
  180.7910  180.0200  134.5990 C   0  0  0  0  0  2  0  0  0  0  0  0
  180.6870  179.6410  139.7250 C   0  0  0  0  0  2  0  0  0  0  0  0
  180.7900  178.3840  138.8620 C   0  0  2  0  0  3  0  0  0  0  0  0
  179.0850  179.1460  137.3020 O   0  0  0  0  0  0  0  0  0  0  0  0
  182.3260  176.0060  135.7070 O   0  0  0  0  0  0  0  0  0  0  0  0
  178.9570  176.8400  134.7370 C   0  0  0  0  0  1  0  0  0  0  0  0
  179.4620  181.7520  137.4160 O   0  0  0  0  0  1  0  0  0  0  0  0
  180.5740  177.4850  136.5220 C   0  0  2  0  0  3  0  0  0  0  0  0
  178.9310  179.8190  136.0570 C   0  0  2  0  0  3  0  0  0  0  0  0
  185.8220  177.7570  138.2340 C   0  0  0  0  0  2  0  0  0  0  0  0
  185.1970  177.5240  136.9370 C   0  0  1  0  0  3  0  0  0  0  0  0
  186.6440  177.3100  137.0990 N   0  0  0  0  0  0  0  0  0  0  0  0
  187.2970  178.4880  136.5590 C   0  0  0  0  0  2  0  0  0  0  0  0
  188.6810  178.5840  137.0960 C   0  0  0  0  0  0  0  0  0  0  0  0
  189.1030  179.6770  137.5560 O   0  0  0  0  0  1  0  0  0  0  0  0
  189.4930  177.4590  137.1270 O   0  0  0  0  0  0  0  0  0  0  0  0
  183.1090  173.5690  135.2790 C   0  0  0  0  0  1  0  0  0  0  0  0
  184.1540  174.6280  134.9870 C   0  0  0  0  0  2  0  0  0  0  0  0
  1 19  1  6  0  0  0
  1 10  1  0  0  0  0
  3  2  2  0  0  0  0
  4 20  1  1  0  0  0
  4 22  1  0  0  0  0
  5 15  1  1  0  0  0
  5  4  1  0  0  0  0
  5 23  1  0  0  0  0
  6 32  1  1  0  0  0
  6 19  1  0  0  0  0
  6 14  1  0  0  0  0
  8 21  1  1  0  0  0
  9  2  1  0  0  0  0
 10  7  1  6  0  0  0
 10 11  1  0  0  0  0
 11  9  1  1  0  0  0
 12 18  1  1  0  0  0
 12 17  1  0  0  0  0
 13  8  1  0  0  0  0
 14 25  1  0  0  0  0
 14  7  1  1  0  0  0
 15 13  1  0  0  0  0
 16  3  1  0  0  0  0
 17 11  1  0  0  0  0
 17 16  1  1  0  0  0
 22  1  1  0  0  0  0
 22 12  1  0  0  0  0
 23  8  1  0  0  0  0
 23 18  1  0  0  0  0
 25 26  1  0  0  0  0
 25 24  1  0  0  0  0
 26 24  1  0  0  0  0
 27 28  1  0  0  0  0
 27 26  1  0  0  0  0
 28 30  2  0  0  0  0
 28 29  1  0  0  0  0
 32 31  1  0  0  0  0
M  END
>  <MODEL>
9

>  <REMARK>
 VINA RESULT:      -4.4      3.115      7.034
  Name = 
  4 active torsions:
  status: ('A' for Active; 'I' for Inactive)
    1  A    between atoms: C_7  and  C_19
    2  A    between atoms: C_10  and  C_17
    3  A    between atoms: N_20  and  C_29
    4  A    between atoms: C_29  and  C_30
                            x       y       z     vdW  Elec       q    Type
                         _______ _______ _______ _____ _____    ______ ____

>  <TORSDO>
F 4

$$$$
