=
 OpenBabel11122411443D

 37 42  0  0  1  0  0  0  0  0999 V2000
  186.7800  177.3100  144.4460 C   0  0  1  0  0  3  0  0  0  0  0  0
  184.7180  177.7230  141.7150 O   0  0  0  0  0  0  0  0  0  0  0  0
  189.2760  177.3970  145.0210 C   0  0  2  0  0  3  0  0  0  0  0  0
  186.5650  178.1340  143.1940 C   0  0  2  0  0  3  0  0  0  0  0  0
  188.1570  176.6920  144.2240 C   0  0  2  0  0  3  0  0  0  0  0  0
  185.1010  178.4660  142.8460 C   0  0  2  0  0  3  0  0  0  0  0  0
  188.9050  177.5720  146.5070 C   0  0  0  0  0  2  0  0  0  0  0  0
  188.3990  176.8050  142.7240 C   0  0  0  0  0  2  0  0  0  0  0  0
  185.2710  178.3330  146.1790 C   0  0  0  0  0  2  0  0  0  0  0  0
  187.4650  177.4930  146.7780 N   0  0  0  0  0  2  0  0  0  0  0  0
  185.6020  179.6850  140.6480 O   0  0  0  0  0  0  0  0  0  0  0  0
  184.8870  178.4730  140.5190 C   0  0  1  0  0  3  0  0  0  0  0  0
  186.7120  178.1610  145.7200 C   0  0  1  0  0  3  0  0  0  0  0  0
  187.2020  177.3870  142.1090 N   0  0  2  0  0  0  0  0  0  0  0  0
  184.0780  178.3080  143.9830 C   0  0  1  0  0  3  0  0  0  0  0  0
  186.3260  178.6120  140.0880 C   0  0  2  0  0  3  0  0  0  0  0  0
  187.5270  178.3340  141.0270 C   0  0  2  0  0  3  0  0  0  0  0  0
  184.4530  179.1530  145.1940 C   0  0  0  0  0  2  0  0  0  0  0  0
  181.6370  178.5930  144.4350 C   0  0  0  0  0  3  0  0  0  0  0  0
  182.6960  178.6610  143.5240 C   0  0  0  0  0  0  0  0  0  0  0  0
  182.4460  179.0500  142.1980 C   0  0  0  0  0  3  0  0  0  0  0  0
  180.9030  179.7510  140.4810 O   0  0  0  0  0  1  0  0  0  0  0  0
  180.0920  179.2970  142.7070 C   0  0  0  0  0  3  0  0  0  0  0  0
  181.1470  179.3670  141.7930 C   0  0  0  0  0  0  0  0  0  0  0  0
  180.3370  178.9110  144.0280 C   0  0  0  0  0  3  0  0  0  0  0  0
  188.7040  177.8510  140.1500 C   0  0  0  0  0  2  0  0  0  0  0  0
  188.3570  177.6440  138.7360 N   0  0  0  0  0  0  0  0  0  0  0  0
  188.0940  178.9490  136.6970 C   0  0  0  0  0  1  0  0  0  0  0  0
  188.9660  178.6780  137.9070 C   0  0  0  0  0  2  0  0  0  0  0  0
  188.8490  176.3480  138.2860 C   0  0  0  0  0  2  0  0  0  0  0  0
  190.3340  176.2180  138.5790 C   0  0  0  0  0  2  0  0  0  0  0  0
  190.7710  174.9300  138.2690 O   0  0  0  0  0  1  0  0  0  0  0  0
  189.5770  178.6580  144.4650 O   0  0  0  0  0  0  0  0  0  0  0  0
  190.9690  178.7430  144.2300 C   0  0  0  0  0  0  0  0  0  0  0  0
  191.6910  178.0990  145.2250 F   0  0  0  0  0  0  0  0  0  0  0  0
  191.3410  178.1630  142.8710 C   0  0  0  0  0  1  0  0  0  0  0  0
  191.3290  180.0760  144.2360 F   0  0  0  0  0  0  0  0  0  0  0  0
  1 13  1  0  0  0  0
  2  6  1  0  0  0  0
  3  7  1  0  0  0  0
  4  1  1  0  0  0  0
  5  1  1  0  0  0  0
  5  3  1  0  0  0  0
  6  4  1  0  0  0  0
  6 15  1  0  0  0  0
  7 10  1  0  0  0  0
  8  5  1  0  0  0  0
 12 11  1  0  0  0  0
 12  2  1  0  0  0  0
 13  9  1  0  0  0  0
 13 10  1  0  0  0  0
 14  8  1  0  0  0  0
 14  4  1  0  0  0  0
 15 18  1  0  0  0  0
 16 12  1  0  0  0  0
 16 11  1  0  0  0  0
 16 17  1  0  0  0  0
 17 14  1  0  0  0  0
 18  9  1  0  0  0  0
 20 15  1  0  0  0  0
 20 19  2  0  0  0  0
 21 20  1  0  0  0  0
 22 24  1  0  0  0  0
 23 25  2  0  0  0  0
 24 21  2  0  0  0  0
 24 23  1  0  0  0  0
 25 19  1  0  0  0  0
 26 17  1  0  0  0  0
 27 26  1  0  0  0  0
 28 29  1  0  0  0  0
 29 27  1  0  0  0  0
 30 31  1  0  0  0  0
 30 27  1  0  0  0  0
 32 31  1  0  0  0  0
 33  3  1  0  0  0  0
 34 37  1  0  0  0  0
 34 33  1  0  0  0  0
 34 35  1  0  0  0  0
 36 34  1  0  0  0  0
M  END
>  <MODEL>
1

>  <REMARK>
 VINA RESULT:      -9.4      0.000      0.000
  Name = 
  8 active torsions:
  status: ('A' for Active; 'I' for Inactive)
    1  A    between atoms: C_1  and  N_4
    2  A    between atoms: C_1  and  C_27
    3  A    between atoms: C_2  and  O_22
    4  A    between atoms: N_4  and  C_12
    5  A    between atoms: N_4  and  C_37
    6  A    between atoms: C_6  and  O_22
    7  A    between atoms: C_8  and  C_12
    8  A    between atoms: C_23  and  C_30
                            x       y       z     vdW  Elec       q    Type
                         _______ _______ _______ _____ _____    ______ ____

>  <TORSDO>
F 8

$$$$
=
 OpenBabel11122411443D

 37 42  0  0  1  0  0  0  0  0999 V2000
  185.6910  178.9360  143.2430 C   0  0  1  0  0  3  0  0  0  0  0  0
  189.0870  178.3490  143.3270 O   0  0  0  0  0  0  0  0  0  0  0  0
  183.7410  178.8020  141.5860 C   0  0  2  0  0  3  0  0  0  0  0  0
  186.7800  178.0060  142.7520 C   0  0  2  0  0  3  0  0  0  0  0  0
  185.0830  179.4730  141.9510 C   0  0  2  0  0  3  0  0  0  0  0  0
  187.9130  177.7030  143.7520 C   0  0  2  0  0  3  0  0  0  0  0  0
  182.7600  178.7850  142.7750 C   0  0  0  0  0  2  0  0  0  0  0  0
  186.1370  179.2080  140.8830 C   0  0  0  0  0  2  0  0  0  0  0  0
  185.1440  178.1460  145.5670 C   0  0  0  0  0  2  0  0  0  0  0  0
  183.4040  178.9480  144.0830 N   0  0  0  0  0  2  0  0  0  0  0  0
  189.3140  176.2600  142.1640 O   0  0  0  0  0  0  0  0  0  0  0  0
  189.9070  177.4820  142.5530 C   0  0  1  0  0  3  0  0  0  0  0  0
  184.6650  178.2140  144.1240 C   0  0  1  0  0  3  0  0  0  0  0  0
  187.3110  178.6190  141.5340 N   0  0  2  0  0  0  0  0  0  0  0  0
  187.6170  178.0100  145.2290 C   0  0  1  0  0  3  0  0  0  0  0  0
  189.3900  177.2440  141.1560 C   0  0  2  0  0  3  0  0  0  0  0  0
  187.9370  177.5600  140.7200 C   0  0  2  0  0  3  0  0  0  0  0  0
  186.3780  177.2700  145.7170 C   0  0  0  0  0  2  0  0  0  0  0  0
  188.7820  178.0780  147.4390 C   0  0  0  0  0  3  0  0  0  0  0  0
  188.7890  177.6720  146.1000 C   0  0  0  0  0  0  0  0  0  0  0  0
  189.8910  176.9640  145.5950 C   0  0  0  0  0  3  0  0  0  0  0  0
  192.0630  175.9680  145.9230 O   0  0  0  0  0  1  0  0  0  0  0  0
  190.9630  177.0750  147.7630 C   0  0  0  0  0  3  0  0  0  0  0  0
  190.9750  176.6670  146.4260 C   0  0  0  0  0  0  0  0  0  0  0  0
  189.8680  177.7800  148.2690 C   0  0  0  0  0  3  0  0  0  0  0  0
  187.9650  177.9100  139.2150 C   0  0  0  0  0  2  0  0  0  0  0  0
  188.4100  176.8070  138.3490 N   0  0  0  0  0  0  0  0  0  0  0  0
  186.2850  177.4620  137.3570 C   0  0  0  0  0  1  0  0  0  0  0  0
  187.3160  176.3590  137.4950 C   0  0  0  0  0  2  0  0  0  0  0  0
  189.5050  177.2530  137.4960 C   0  0  0  0  0  2  0  0  0  0  0  0
  190.8170  176.6480  137.9630 C   0  0  0  0  0  2  0  0  0  0  0  0
  190.6300  175.3090  138.3090 O   0  0  0  0  0  1  0  0  0  0  0  0
  183.9430  177.4830  141.1290 O   0  0  0  0  0  0  0  0  0  0  0  0
  183.0440  177.2140  140.0710 C   0  0  0  0  0  0  0  0  0  0  0  0
  181.7500  177.0360  140.5380 F   0  0  0  0  0  0  0  0  0  0  0  0
  183.0630  178.3240  139.0270 C   0  0  0  0  0  1  0  0  0  0  0  0
  183.4390  176.0430  139.4530 F   0  0  0  0  0  0  0  0  0  0  0  0
  1 13  1  0  0  0  0
  2  6  1  0  0  0  0
  3  5  1  0  0  0  0
  3  7  1  0  0  0  0
  4  1  1  0  0  0  0
  4  6  1  0  0  0  0
  5  1  1  0  0  0  0
  6 15  1  0  0  0  0
  7 10  1  0  0  0  0
  8 14  1  0  0  0  0
  8  5  1  0  0  0  0
  9 18  1  0  0  0  0
 10 13  1  0  0  0  0
 11 12  1  0  0  0  0
 12  2  1  0  0  0  0
 13  9  1  0  0  0  0
 14  4  1  0  0  0  0
 15 18  1  0  0  0  0
 15 20  1  0  0  0  0
 16 11  1  0  0  0  0
 16 12  1  0  0  0  0
 17 16  1  0  0  0  0
 17 14  1  0  0  0  0
 19 25  1  0  0  0  0
 20 19  2  0  0  0  0
 21 20  1  0  0  0  0
 21 24  2  0  0  0  0
 22 24  1  0  0  0  0
 23 25  2  0  0  0  0
 24 23  1  0  0  0  0
 26 17  1  0  0  0  0
 27 26  1  0  0  0  0
 28 29  1  0  0  0  0
 29 27  1  0  0  0  0
 30 31  1  0  0  0  0
 30 27  1  0  0  0  0
 31 32  1  0  0  0  0
 33  3  1  0  0  0  0
 34 35  1  0  0  0  0
 34 33  1  0  0  0  0
 36 34  1  0  0  0  0
 37 34  1  0  0  0  0
M  END
>  <MODEL>
2

>  <REMARK>
 VINA RESULT:      -8.9      2.969      6.326
  Name = 
  8 active torsions:
  status: ('A' for Active; 'I' for Inactive)
    1  A    between atoms: C_1  and  N_4
    2  A    between atoms: C_1  and  C_27
    3  A    between atoms: C_2  and  O_22
    4  A    between atoms: N_4  and  C_12
    5  A    between atoms: N_4  and  C_37
    6  A    between atoms: C_6  and  O_22
    7  A    between atoms: C_8  and  C_12
    8  A    between atoms: C_23  and  C_30
                            x       y       z     vdW  Elec       q    Type
                         _______ _______ _______ _____ _____    ______ ____

>  <TORSDO>
F 8

$$$$
=
 OpenBabel11122411443D

 37 42  0  0  1  0  0  0  0  0999 V2000
  186.8960  178.3310  137.3990 C   0  0  1  0  0  3  0  0  0  0  0  0
  185.3720  179.5280  140.2490 O   0  0  0  0  0  0  0  0  0  0  0  0
  189.0690  177.1610  136.7090 C   0  0  2  0  0  3  0  0  0  0  0  0
  186.6670  178.0500  138.8690 C   0  0  2  0  0  3  0  0  0  0  0  0
  188.4150  178.4300  137.2970 C   0  0  2  0  0  3  0  0  0  0  0  0
  185.2690  178.4020  139.4140 C   0  0  2  0  0  3  0  0  0  0  0  0
  188.3860  176.7100  135.4030 C   0  0  0  0  0  2  0  0  0  0  0  0
  188.8880  178.6800  138.7240 C   0  0  0  0  0  2  0  0  0  0  0  0
  184.8360  177.4820  136.2330 C   0  0  0  0  0  2  0  0  0  0  0  0
  187.0270  177.2340  135.2270 N   0  0  0  0  0  2  0  0  0  0  0  0
  185.7540  177.7830  141.8540 O   0  0  0  0  0  0  0  0  0  0  0  0
  185.5120  179.1540  141.6140 C   0  0  1  0  0  3  0  0  0  0  0  0
  186.3140  177.2330  136.5010 C   0  0  1  0  0  3  0  0  0  0  0  0
  187.7070  178.7900  139.5850 N   0  0  2  0  0  0  0  0  0  0  0  0
  184.1570  178.5870  138.3700 C   0  0  1  0  0  3  0  0  0  0  0  0
  186.8800  178.6250  141.9610 C   0  0  2  0  0  3  0  0  0  0  0  0
  187.9040  178.1500  140.9000 C   0  0  2  0  0  3  0  0  0  0  0  0
  183.9990  177.3490  137.4950 C   0  0  0  0  0  2  0  0  0  0  0  0
  182.2590  177.9940  139.8840 C   0  0  0  0  0  3  0  0  0  0  0  0
  182.8490  178.9230  139.0200 C   0  0  0  0  0  0  0  0  0  0  0  0
  182.2070  180.1460  138.7730 C   0  0  0  0  0  3  0  0  0  0  0  0
  180.3510  181.6430  139.1390 O   0  0  0  0  0  1  0  0  0  0  0  0
  180.3980  179.5010  140.2470 C   0  0  0  0  0  3  0  0  0  0  0  0
  180.9840  180.4330  139.3860 C   0  0  0  0  0  0  0  0  0  0  0  0
  181.0360  178.2830  140.4960 C   0  0  0  0  0  3  0  0  0  0  0  0
  189.3190  178.3960  141.4700 C   0  0  0  0  0  2  0  0  0  0  0  0
  189.6560  177.5550  142.6290 N   0  0  0  0  0  0  0  0  0  0  0  0
  191.8230  177.4570  141.5220 C   0  0  0  0  0  1  0  0  0  0  0  0
  190.7850  176.6870  142.3150 C   0  0  0  0  0  2  0  0  0  0  0  0
  190.0240  178.3930  143.7640 C   0  0  0  0  0  2  0  0  0  0  0  0
  189.5520  177.7590  145.0610 C   0  0  0  0  0  2  0  0  0  0  0  0
  188.3480  177.0860  144.8540 O   0  0  0  0  0  1  0  0  0  0  0  0
  189.0430  176.1010  137.6390 O   0  0  0  0  0  0  0  0  0  0  0  0
  190.3500  175.5800  137.7890 C   0  0  0  0  0  0  0  0  0  0  0  0
  190.7410  175.5700  139.1200 F   0  0  0  0  0  0  0  0  0  0  0  0
  190.4590  174.1740  137.2120 C   0  0  0  0  0  1  0  0  0  0  0  0
  191.2230  176.3940  137.0930 F   0  0  0  0  0  0  0  0  0  0  0  0
  1  4  1  0  0  0  0
  2 12  1  0  0  0  0
  3  5  1  0  0  0  0
  3 33  1  0  0  0  0
  4  6  1  0  0  0  0
  4 14  1  0  0  0  0
  5  1  1  0  0  0  0
  5  8  1  0  0  0  0
  6  2  1  0  0  0  0
  7  3  1  0  0  0  0
  8 14  1  0  0  0  0
  9 13  1  0  0  0  0
  9 18  1  0  0  0  0
 10  7  1  0  0  0  0
 10 13  1  0  0  0  0
 11 16  1  0  0  0  0
 12 11  1  0  0  0  0
 12 16  1  0  0  0  0
 13  1  1  0  0  0  0
 14 17  1  0  0  0  0
 15 20  1  0  0  0  0
 15  6  1  0  0  0  0
 17 26  1  0  0  0  0
 17 16  1  0  0  0  0
 18 15  1  0  0  0  0
 19 25  1  0  0  0  0
 20 19  2  0  0  0  0
 21 20  1  0  0  0  0
 21 24  2  0  0  0  0
 22 24  1  0  0  0  0
 23 25  2  0  0  0  0
 24 23  1  0  0  0  0
 26 27  1  0  0  0  0
 27 30  1  0  0  0  0
 28 29  1  0  0  0  0
 29 27  1  0  0  0  0
 30 31  1  0  0  0  0
 32 31  1  0  0  0  0
 33 34  1  0  0  0  0
 34 35  1  0  0  0  0
 36 34  1  0  0  0  0
 37 34  1  0  0  0  0
M  END
>  <MODEL>
3

>  <REMARK>
 VINA RESULT:      -8.1      2.760      6.052
  Name = 
  8 active torsions:
  status: ('A' for Active; 'I' for Inactive)
    1  A    between atoms: C_1  and  N_4
    2  A    between atoms: C_1  and  C_27
    3  A    between atoms: C_2  and  O_22
    4  A    between atoms: N_4  and  C_12
    5  A    between atoms: N_4  and  C_37
    6  A    between atoms: C_6  and  O_22
    7  A    between atoms: C_8  and  C_12
    8  A    between atoms: C_23  and  C_30
                            x       y       z     vdW  Elec       q    Type
                         _______ _______ _______ _____ _____    ______ ____

>  <TORSDO>
F 8

$$$$
=
 OpenBabel11122411443D

 37 42  0  0  1  0  0  0  0  0999 V2000
  186.4810  178.1880  137.2080 C   0  0  1  0  0  3  0  0  0  0  0  0
  185.1870  179.5970  140.0750 O   0  0  0  0  0  0  0  0  0  0  0  0
  188.5460  176.8700  136.4570 C   0  0  2  0  0  3  0  0  0  0  0  0
  186.3210  177.9880  138.7000 C   0  0  2  0  0  3  0  0  0  0  0  0
  187.9940  178.1990  137.0180 C   0  0  2  0  0  3  0  0  0  0  0  0
  184.9770  178.4410  139.3030 C   0  0  2  0  0  3  0  0  0  0  0  0
  187.7660  176.3980  135.2140 C   0  0  0  0  0  2  0  0  0  0  0  0
  188.5600  178.4870  138.4030 C   0  0  0  0  0  2  0  0  0  0  0  0
  184.3150  177.4020  136.1990 C   0  0  0  0  0  2  0  0  0  0  0  0
  186.4290  176.9880  135.0870 N   0  0  0  0  0  2  0  0  0  0  0  0
  185.5680  177.9080  141.7400 O   0  0  0  0  0  0  0  0  0  0  0  0
  185.3850  179.2780  141.4470 C   0  0  1  0  0  3  0  0  0  0  0  0
  185.7910  177.0850  136.3970 C   0  0  1  0  0  3  0  0  0  0  0  0
  187.4380  178.7010  139.3210 N   0  0  2  0  0  0  0  0  0  0  0  0
  183.8190  178.6400  138.3130 C   0  0  1  0  0  3  0  0  0  0  0  0
  186.7410  178.6900  141.7440 C   0  0  2  0  0  3  0  0  0  0  0  0
  187.6760  178.1120  140.6520 C   0  0  2  0  0  3  0  0  0  0  0  0
  183.5450  177.3740  137.5100 C   0  0  0  0  0  2  0  0  0  0  0  0
  181.9650  180.2820  138.6480 C   0  0  0  0  0  3  0  0  0  0  0  0
  182.5700  179.0770  139.0170 C   0  0  0  0  0  0  0  0  0  0  0  0
  182.0030  178.3010  140.0410 C   0  0  0  0  0  3  0  0  0  0  0  0
  180.2840  177.9640  141.7000 O   0  0  0  0  0  1  0  0  0  0  0  0
  180.2420  179.9390  140.3150 C   0  0  0  0  0  3  0  0  0  0  0  0
  180.8420  178.7330  140.6870 C   0  0  0  0  0  0  0  0  0  0  0  0
  180.8030  180.7130  139.2950 C   0  0  0  0  0  3  0  0  0  0  0  0
  189.1330  178.3050  141.1320 C   0  0  0  0  0  2  0  0  0  0  0  0
  189.3830  177.8300  142.5020 N   0  0  0  0  0  0  0  0  0  0  0  0
  190.3790  175.6450  142.9040 C   0  0  0  0  0  1  0  0  0  0  0  0
  189.1010  176.4030  142.6040 C   0  0  0  0  0  2  0  0  0  0  0  0
  190.7810  178.0470  142.8570 C   0  0  0  0  0  2  0  0  0  0  0  0
  190.8830  179.0320  144.0100 C   0  0  0  0  0  2  0  0  0  0  0  0
  190.0920  178.6040  145.0760 O   0  0  0  0  0  1  0  0  0  0  0  0
  188.5170  175.8560  137.4380 O   0  0  0  0  0  0  0  0  0  0  0  0
  189.8230  175.3410  137.6130 C   0  0  0  0  0  0  0  0  0  0  0  0
  189.8380  173.9570  137.5190 F   0  0  0  0  0  0  0  0  0  0  0  0
  190.7960  175.9340  136.6020 C   0  0  0  0  0  1  0  0  0  0  0  0
  190.2600  175.6870  138.8770 F   0  0  0  0  0  0  0  0  0  0  0  0
  1  4  1  0  0  0  0
  2 12  1  0  0  0  0
  3  5  1  0  0  0  0
  3 33  1  0  0  0  0
  4  6  1  0  0  0  0
  4 14  1  0  0  0  0
  5  1  1  0  0  0  0
  5  8  1  0  0  0  0
  6  2  1  0  0  0  0
  7  3  1  0  0  0  0
  8 14  1  0  0  0  0
  9 13  1  0  0  0  0
  9 18  1  0  0  0  0
 10  7  1  0  0  0  0
 10 13  1  0  0  0  0
 11 16  1  0  0  0  0
 12 11  1  0  0  0  0
 12 16  1  0  0  0  0
 13  1  1  0  0  0  0
 14 17  1  0  0  0  0
 15 20  1  0  0  0  0
 15  6  1  0  0  0  0
 17 26  1  0  0  0  0
 17 16  1  0  0  0  0
 18 15  1  0  0  0  0
 19 20  2  0  0  0  0
 19 25  1  0  0  0  0
 20 21  1  0  0  0  0
 21 24  2  0  0  0  0
 23 24  1  0  0  0  0
 24 22  1  0  0  0  0
 25 23  2  0  0  0  0
 26 27  1  0  0  0  0
 27 29  1  0  0  0  0
 27 30  1  0  0  0  0
 29 28  1  0  0  0  0
 30 31  1  0  0  0  0
 31 32  1  0  0  0  0
 33 34  1  0  0  0  0
 34 37  1  0  0  0  0
 35 34  1  0  0  0  0
 36 34  1  0  0  0  0
M  END
>  <MODEL>
4

>  <REMARK>
 VINA RESULT:      -7.8      2.848      6.215
  Name = 
  8 active torsions:
  status: ('A' for Active; 'I' for Inactive)
    1  A    between atoms: C_1  and  N_4
    2  A    between atoms: C_1  and  C_27
    3  A    between atoms: C_2  and  O_22
    4  A    between atoms: N_4  and  C_12
    5  A    between atoms: N_4  and  C_37
    6  A    between atoms: C_6  and  O_22
    7  A    between atoms: C_8  and  C_12
    8  A    between atoms: C_23  and  C_30
                            x       y       z     vdW  Elec       q    Type
                         _______ _______ _______ _____ _____    ______ ____

>  <TORSDO>
F 8

$$$$
=
 OpenBabel11122411443D

 37 42  0  0  1  0  0  0  0  0999 V2000
  186.0830  178.7480  143.2590 C   0  0  1  0  0  3  0  0  0  0  0  0
  189.4330  178.1900  142.6740 O   0  0  0  0  0  0  0  0  0  0  0  0
  183.8710  178.8000  141.9640 C   0  0  2  0  0  3  0  0  0  0  0  0
  187.0580  177.8970  142.4730 C   0  0  2  0  0  3  0  0  0  0  0  0
  185.2640  179.4340  142.1700 C   0  0  2  0  0  3  0  0  0  0  0  0
  188.3440  177.4840  143.2150 C   0  0  2  0  0  3  0  0  0  0  0  0
  183.1130  178.6250  143.2960 C   0  0  0  0  0  2  0  0  0  0  0  0
  186.1120  179.3150  140.9090 C   0  0  0  0  0  2  0  0  0  0  0  0
  185.9410  177.6700  145.5270 C   0  0  0  0  0  2  0  0  0  0  0  0
  183.9780  178.6320  144.4810 N   0  0  0  0  0  2  0  0  0  0  0  0
  189.4290  176.2630  141.2400 O   0  0  0  0  0  0  0  0  0  0  0  0
  190.0950  177.4340  141.6670 C   0  0  1  0  0  3  0  0  0  0  0  0
  185.2180  177.9120  144.2090 C   0  0  1  0  0  3  0  0  0  0  0  0
  187.3750  178.6620  141.2660 N   0  0  2  0  0  0  0  0  0  0  0  0
  188.3150  177.6030  144.7470 C   0  0  1  0  0  3  0  0  0  0  0  0
  189.3400  177.3660  140.3640 C   0  0  2  0  0  3  0  0  0  0  0  0
  187.8370  177.7180  140.2320 C   0  0  2  0  0  3  0  0  0  0  0  0
  187.1720  176.7950  145.3490 C   0  0  0  0  0  2  0  0  0  0  0  0
  190.4870  176.3740  144.6010 C   0  0  0  0  0  3  0  0  0  0  0  0
  189.6170  177.1720  145.3510 C   0  0  0  0  0  0  0  0  0  0  0  0
  189.9740  177.5490  146.6560 C   0  0  0  0  0  3  0  0  0  0  0  0
  191.5400  177.5030  148.4900 O   0  0  0  0  0  1  0  0  0  0  0  0
  192.0550  176.3310  146.4460 C   0  0  0  0  0  3  0  0  0  0  0  0
  191.1900  177.1290  147.2000 C   0  0  0  0  0  0  0  0  0  0  0  0
  191.7030  175.9540  145.1470 C   0  0  0  0  0  3  0  0  0  0  0  0
  187.6050  178.2520  138.8000 C   0  0  0  0  0  2  0  0  0  0  0  0
  187.2650  177.2110  137.8170 N   0  0  0  0  0  0  0  0  0  0  0  0
  185.3100  175.9610  137.0780 C   0  0  0  0  0  1  0  0  0  0  0  0
  185.8690  177.3300  137.4150 C   0  0  0  0  0  2  0  0  0  0  0  0
  188.0980  177.3550  136.6290 C   0  0  0  0  0  2  0  0  0  0  0  0
  189.4210  176.6350  136.8240 C   0  0  0  0  0  2  0  0  0  0  0  0
  189.5290  175.5820  135.9150 O   0  0  0  0  0  1  0  0  0  0  0  0
  183.9740  177.5490  141.3200 O   0  0  0  0  0  0  0  0  0  0  0  0
  183.0830  177.5160  140.2220 C   0  0  0  0  0  0  0  0  0  0  0  0
  183.0490  176.2600  139.6350 F   0  0  0  0  0  0  0  0  0  0  0  0
  181.6750  177.9270  140.6360 C   0  0  0  0  0  1  0  0  0  0  0  0
  183.5270  178.4180  139.2750 F   0  0  0  0  0  0  0  0  0  0  0  0
  1 13  1  0  0  0  0
  2  6  1  0  0  0  0
  3  5  1  0  0  0  0
  3  7  1  0  0  0  0
  4  6  1  0  0  0  0
  4  1  1  0  0  0  0
  5  1  1  0  0  0  0
  6 15  1  0  0  0  0
  7 10  1  0  0  0  0
  8 14  1  0  0  0  0
  8  5  1  0  0  0  0
 11 12  1  0  0  0  0
 12  2  1  0  0  0  0
 13 10  1  0  0  0  0
 13  9  1  0  0  0  0
 14  4  1  0  0  0  0
 15 18  1  0  0  0  0
 15 20  1  0  0  0  0
 16 11  1  0  0  0  0
 16 12  1  0  0  0  0
 17 16  1  0  0  0  0
 17 14  1  0  0  0  0
 18  9  1  0  0  0  0
 19 25  2  0  0  0  0
 19 20  1  0  0  0  0
 20 21  2  0  0  0  0
 21 24  1  0  0  0  0
 23 24  2  0  0  0  0
 24 22  1  0  0  0  0
 25 23  1  0  0  0  0
 26 17  1  0  0  0  0
 27 26  1  0  0  0  0
 28 29  1  0  0  0  0
 29 27  1  0  0  0  0
 30 31  1  0  0  0  0
 30 27  1  0  0  0  0
 32 31  1  0  0  0  0
 33  3  1  0  0  0  0
 34 36  1  0  0  0  0
 34 33  1  0  0  0  0
 35 34  1  0  0  0  0
 37 34  1  0  0  0  0
M  END
>  <MODEL>
5

>  <REMARK>
 VINA RESULT:      -7.6      3.049      6.562
  Name = 
  8 active torsions:
  status: ('A' for Active; 'I' for Inactive)
    1  A    between atoms: C_1  and  N_4
    2  A    between atoms: C_1  and  C_27
    3  A    between atoms: C_2  and  O_22
    4  A    between atoms: N_4  and  C_12
    5  A    between atoms: N_4  and  C_37
    6  A    between atoms: C_6  and  O_22
    7  A    between atoms: C_8  and  C_12
    8  A    between atoms: C_23  and  C_30
                            x       y       z     vdW  Elec       q    Type
                         _______ _______ _______ _____ _____    ______ ____

>  <TORSDO>
F 8

$$$$
=
 OpenBabel11122411443D

 37 42  0  0  1  0  0  0  0  0999 V2000
  185.5670  178.9400  141.2310 C   0  0  1  0  0  3  0  0  0  0  0  0
  188.8940  178.5760  140.4060 O   0  0  0  0  0  0  0  0  0  0  0  0
  183.2580  178.5860  140.1760 C   0  0  2  0  0  3  0  0  0  0  0  0
  186.5510  178.0540  140.4970 C   0  0  2  0  0  3  0  0  0  0  0  0
  184.5940  179.3620  140.1350 C   0  0  2  0  0  3  0  0  0  0  0  0
  187.9310  177.8820  141.1610 C   0  0  2  0  0  3  0  0  0  0  0  0
  182.6390  178.5760  141.5880 C   0  0  0  0  0  2  0  0  0  0  0  0
  185.3370  179.1030  138.8300 C   0  0  0  0  0  2  0  0  0  0  0  0
  185.7300  178.2530  143.6450 C   0  0  0  0  0  2  0  0  0  0  0  0
  183.5970  178.8550  142.6630 N   0  0  0  0  0  2  0  0  0  0  0  0
  188.9590  176.4420  139.3060 O   0  0  0  0  0  0  0  0  0  0  0  0
  189.5390  177.7190  139.4710 C   0  0  1  0  0  3  0  0  0  0  0  0
  184.8750  178.2060  142.3860 C   0  0  1  0  0  3  0  0  0  0  0  0
  186.6850  178.6290  139.1570 N   0  0  2  0  0  0  0  0  0  0  0  0
  188.0230  178.2550  142.6490 C   0  0  1  0  0  3  0  0  0  0  0  0
  188.6840  177.3690  138.2790 C   0  0  2  0  0  3  0  0  0  0  0  0
  187.1480  177.5660  138.2450 C   0  0  2  0  0  3  0  0  0  0  0  0
  187.0220  177.4660  143.4850 C   0  0  0  0  0  2  0  0  0  0  0  0
  190.1840  179.1550  143.5230 C   0  0  0  0  0  3  0  0  0  0  0  0
  189.4080  178.0430  143.1790 C   0  0  0  0  0  0  0  0  0  0  0  0
  189.9400  176.7520  143.3300 C   0  0  0  0  0  3  0  0  0  0  0  0
  191.7610  175.3040  143.9680 O   0  0  0  0  0  1  0  0  0  0  0  0
  192.0090  177.6960  144.1620 C   0  0  0  0  0  3  0  0  0  0  0  0
  191.2380  176.5810  143.8200 C   0  0  0  0  0  0  0  0  0  0  0  0
  191.4820  178.9820  144.0130 C   0  0  0  0  0  3  0  0  0  0  0  0
  186.7420  177.8290  136.7770 C   0  0  0  0  0  2  0  0  0  0  0  0
  186.2930  176.6300  136.0530 N   0  0  0  0  0  0  0  0  0  0  0  0
  188.2350  175.6450  134.9610 C   0  0  0  0  0  1  0  0  0  0  0  0
  187.0010  176.5090  134.7840 C   0  0  0  0  0  2  0  0  0  0  0  0
  186.5660  175.4370  136.8450 C   0  0  0  0  0  2  0  0  0  0  0  0
  185.3080  174.5950  136.9780 C   0  0  0  0  0  2  0  0  0  0  0  0
  185.5830  173.4380  137.7070 O   0  0  0  0  0  1  0  0  0  0  0  0
  183.4300  177.2590  139.7320 O   0  0  0  0  0  0  0  0  0  0  0  0
  182.5360  177.0050  138.6670 C   0  0  0  0  0  0  0  0  0  0  0  0
  183.0990  177.3370  137.4430 F   0  0  0  0  0  0  0  0  0  0  0  0
  182.0910  175.5470  138.6470 C   0  0  0  0  0  1  0  0  0  0  0  0
  181.4130  177.7880  138.8460 F   0  0  0  0  0  0  0  0  0  0  0  0
  1 13  1  0  0  0  0
  2  6  1  0  0  0  0
  3  7  1  0  0  0  0
  4  6  1  0  0  0  0
  4  1  1  0  0  0  0
  5  3  1  0  0  0  0
  5  1  1  0  0  0  0
  6 15  1  0  0  0  0
  7 10  1  0  0  0  0
  8 14  1  0  0  0  0
  8  5  1  0  0  0  0
 11 12  1  0  0  0  0
 12  2  1  0  0  0  0
 13 10  1  0  0  0  0
 13  9  1  0  0  0  0
 14  4  1  0  0  0  0
 15 20  1  0  0  0  0
 15 18  1  0  0  0  0
 16 11  1  0  0  0  0
 16 12  1  0  0  0  0
 17 16  1  0  0  0  0
 17 14  1  0  0  0  0
 18  9  1  0  0  0  0
 19 25  1  0  0  0  0
 20 21  1  0  0  0  0
 20 19  2  0  0  0  0
 21 24  2  0  0  0  0
 24 22  1  0  0  0  0
 24 23  1  0  0  0  0
 25 23  2  0  0  0  0
 26 17  1  0  0  0  0
 27 26  1  0  0  0  0
 27 30  1  0  0  0  0
 29 28  1  0  0  0  0
 29 27  1  0  0  0  0
 30 31  1  0  0  0  0
 31 32  1  0  0  0  0
 33  3  1  0  0  0  0
 34 37  1  0  0  0  0
 34 33  1  0  0  0  0
 35 34  1  0  0  0  0
 36 34  1  0  0  0  0
M  END
>  <MODEL>
6

>  <REMARK>
 VINA RESULT:      -7.6      3.569      6.966
  Name = 
  8 active torsions:
  status: ('A' for Active; 'I' for Inactive)
    1  A    between atoms: C_1  and  N_4
    2  A    between atoms: C_1  and  C_27
    3  A    between atoms: C_2  and  O_22
    4  A    between atoms: N_4  and  C_12
    5  A    between atoms: N_4  and  C_37
    6  A    between atoms: C_6  and  O_22
    7  A    between atoms: C_8  and  C_12
    8  A    between atoms: C_23  and  C_30
                            x       y       z     vdW  Elec       q    Type
                         _______ _______ _______ _____ _____    ______ ____

>  <TORSDO>
F 8

$$$$
=
 OpenBabel11122411443D

 37 42  0  0  1  0  0  0  0  0999 V2000
  187.0110  177.3360  142.3920 C   0  0  1  0  0  3  0  0  0  0  0  0
  190.2580  176.1790  142.3650 O   0  0  0  0  0  0  0  0  0  0  0  0
  185.3060  178.2890  144.0510 C   0  0  2  0  0  3  0  0  0  0  0  0
  188.3930  177.5690  142.9640 C   0  0  2  0  0  3  0  0  0  0  0  0
  186.1610  177.0730  143.6310 C   0  0  2  0  0  3  0  0  0  0  0  0
  189.5720  177.3490  141.9960 C   0  0  2  0  0  3  0  0  0  0  0  0
  184.5140  178.8760  142.8660 C   0  0  0  0  0  2  0  0  0  0  0  0
  187.1610  176.7040  144.7200 C   0  0  0  0  0  2  0  0  0  0  0  0
  187.0250  178.4640  140.1440 C   0  0  0  0  0  2  0  0  0  0  0  0
  185.0520  178.5150  141.5500 N   0  0  0  0  0  2  0  0  0  0  0  0
  191.4290  177.7920  143.7060 O   0  0  0  0  0  0  0  0  0  0  0  0
  191.3620  176.4690  143.2130 C   0  0  1  0  0  3  0  0  0  0  0  0
  186.5110  178.5330  141.5750 C   0  0  1  0  0  3  0  0  0  0  0  0
  188.5010  176.6850  144.1250 N   0  0  2  0  0  0  0  0  0  0  0  0
  189.2300  177.3390  140.4980 C   0  0  1  0  0  3  0  0  0  0  0  0
  190.9680  176.8250  144.6240 C   0  0  2  0  0  3  0  0  0  0  0  0
  189.5290  177.2340  145.0290 C   0  0  2  0  0  3  0  0  0  0  0  0
  188.5360  178.6280  140.0730 C   0  0  0  0  0  2  0  0  0  0  0  0
  190.3130  176.6000  138.3700 C   0  0  0  0  0  3  0  0  0  0  0  0
  190.4540  177.1200  139.6610 C   0  0  0  0  0  0  0  0  0  0  0  0
  191.7340  177.4210  140.1520 C   0  0  0  0  0  3  0  0  0  0  0  0
  194.1250  177.4980  139.8440 O   0  0  0  0  0  1  0  0  0  0  0  0
  192.7150  176.6810  138.0660 C   0  0  0  0  0  3  0  0  0  0  0  0
  192.8610  177.2000  139.3550 C   0  0  0  0  0  0  0  0  0  0  0  0
  191.4420  176.3810  137.5740 C   0  0  0  0  0  3  0  0  0  0  0  0
  189.3150  176.8050  146.4980 C   0  0  0  0  0  2  0  0  0  0  0  0
  190.4660  177.0690  147.3760 N   0  0  0  0  0  0  0  0  0  0  0  0
  188.5740  177.8800  148.6770 C   0  0  0  0  0  1  0  0  0  0  0  0
  190.0760  177.9440  148.4750 C   0  0  0  0  0  2  0  0  0  0  0  0
  190.9610  175.8180  147.9390 C   0  0  0  0  0  2  0  0  0  0  0  0
  192.4500  175.6740  147.6730 C   0  0  0  0  0  2  0  0  0  0  0  0
  193.1780  176.2550  148.7110 O   0  0  0  0  0  1  0  0  0  0  0  0
  186.1090  179.2990  144.6210 O   0  0  0  0  0  0  0  0  0  0  0  0
  185.8170  179.4020  146.0010 C   0  0  0  0  0  0  0  0  0  0  0  0
  185.6810  180.7260  146.3930 F   0  0  0  0  0  0  0  0  0  0  0  0
  184.5560  178.6280  146.3640 C   0  0  0  0  0  1  0  0  0  0  0  0
  186.8690  178.8540  146.7090 F   0  0  0  0  0  0  0  0  0  0  0  0
  1  4  1  0  0  0  0
  1  5  1  0  0  0  0
  2 12  1  0  0  0  0
  3 33  1  0  0  0  0
  4 14  1  0  0  0  0
  5  3  1  0  0  0  0
  5  8  1  0  0  0  0
  6  2  1  0  0  0  0
  6  4  1  0  0  0  0
  7  3  1  0  0  0  0
  9 13  1  0  0  0  0
 10 13  1  0  0  0  0
 10  7  1  0  0  0  0
 11 16  1  0  0  0  0
 12 11  1  0  0  0  0
 12 16  1  0  0  0  0
 13  1  1  0  0  0  0
 14  8  1  0  0  0  0
 14 17  1  0  0  0  0
 15  6  1  0  0  0  0
 16 17  1  0  0  0  0
 17 26  1  0  0  0  0
 18  9  1  0  0  0  0
 18 15  1  0  0  0  0
 19 20  1  0  0  0  0
 20 21  2  0  0  0  0
 20 15  1  0  0  0  0
 23 24  2  0  0  0  0
 24 22  1  0  0  0  0
 24 21  1  0  0  0  0
 25 23  1  0  0  0  0
 25 19  2  0  0  0  0
 26 27  1  0  0  0  0
 27 30  1  0  0  0  0
 27 29  1  0  0  0  0
 29 28  1  0  0  0  0
 31 30  1  0  0  0  0
 31 32  1  0  0  0  0
 33 34  1  0  0  0  0
 34 36  1  0  0  0  0
 34 35  1  0  0  0  0
 34 37  1  0  0  0  0
M  END
>  <MODEL>
7

>  <REMARK>
 VINA RESULT:      -7.3      2.842      7.885
  Name = 
  8 active torsions:
  status: ('A' for Active; 'I' for Inactive)
    1  A    between atoms: C_1  and  N_4
    2  A    between atoms: C_1  and  C_27
    3  A    between atoms: C_2  and  O_22
    4  A    between atoms: N_4  and  C_12
    5  A    between atoms: N_4  and  C_37
    6  A    between atoms: C_6  and  O_22
    7  A    between atoms: C_8  and  C_12
    8  A    between atoms: C_23  and  C_30
                            x       y       z     vdW  Elec       q    Type
                         _______ _______ _______ _____ _____    ______ ____

>  <TORSDO>
F 8

$$$$
=
 OpenBabel11122411443D

 37 42  0  0  1  0  0  0  0  0999 V2000
  187.2430  177.2110  143.3700 C   0  0  1  0  0  3  0  0  0  0  0  0
  186.5400  177.3740  140.0000 O   0  0  0  0  0  0  0  0  0  0  0  0
  189.2790  177.1310  144.9240 C   0  0  2  0  0  3  0  0  0  0  0  0
  187.6840  177.8310  142.0620 C   0  0  2  0  0  3  0  0  0  0  0  0
  188.4710  176.4230  143.8140 C   0  0  2  0  0  3  0  0  0  0  0  0
  186.5570  178.2510  141.0990 C   0  0  2  0  0  3  0  0  0  0  0  0
  188.3810  177.5900  146.0900 C   0  0  0  0  0  2  0  0  0  0  0  0
  189.3070  176.2560  142.5510 C   0  0  0  0  0  2  0  0  0  0  0  0
  185.3590  178.6620  144.1900 C   0  0  0  0  0  2  0  0  0  0  0  0
  186.9610  177.7090  145.7390 N   0  0  0  0  0  2  0  0  0  0  0  0
  188.0870  179.0250  139.1940 O   0  0  0  0  0  0  0  0  0  0  0  0
  187.2940  177.8900  138.9100 C   0  0  1  0  0  3  0  0  0  0  0  0
  186.8140  178.2650  144.3970 C   0  0  1  0  0  3  0  0  0  0  0  0
  188.5690  176.8490  141.4320 N   0  0  2  0  0  0  0  0  0  0  0  0
  185.1550  178.3950  141.7120 C   0  0  1  0  0  3  0  0  0  0  0  0
  188.7860  177.8030  139.1090 C   0  0  2  0  0  3  0  0  0  0  0  0
  189.4490  177.5620  140.4880 C   0  0  2  0  0  3  0  0  0  0  0  0
  185.1500  179.3870  142.8690 C   0  0  0  0  0  2  0  0  0  0  0  0
  184.5260  179.7170  139.6870 C   0  0  0  0  0  3  0  0  0  0  0  0
  184.1490  178.8080  140.6810 C   0  0  0  0  0  0  0  0  0  0  0  0
  182.8380  178.3060  140.7010 C   0  0  0  0  0  3  0  0  0  0  0  0
  180.6210  178.2140  139.7560 O   0  0  0  0  0  1  0  0  0  0  0  0
  182.2980  179.6210  138.7420 C   0  0  0  0  0  3  0  0  0  0  0  0
  181.9160  178.7130  139.7330 C   0  0  0  0  0  0  0  0  0  0  0  0
  183.6020  180.1230  138.7190 C   0  0  0  0  0  3  0  0  0  0  0  0
  190.7810  176.8180  140.2440 C   0  0  0  0  0  2  0  0  0  0  0  0
  191.1940  176.7680  138.8330 N   0  0  0  0  0  0  0  0  0  0  0  0
  193.2980  177.1260  140.0050 C   0  0  0  0  0  1  0  0  0  0  0  0
  192.5600  177.2560  138.6860 C   0  0  0  0  0  2  0  0  0  0  0  0
  191.1420  175.3950  138.3460 C   0  0  0  0  0  2  0  0  0  0  0  0
  190.3880  175.3320  137.0280 C   0  0  0  0  0  2  0  0  0  0  0  0
  190.9750  174.3880  136.1860 O   0  0  0  0  0  1  0  0  0  0  0  0
  189.9810  178.2410  144.4110 O   0  0  0  0  0  0  0  0  0  0  0  0
  191.3710  178.0080  144.5260 C   0  0  0  0  0  0  0  0  0  0  0  0
  192.0680  179.1910  144.7220 F   0  0  0  0  0  0  0  0  0  0  0  0
  191.6810  177.0370  145.6590 C   0  0  0  0  0  1  0  0  0  0  0  0
  191.8150  177.4410  143.3480 F   0  0  0  0  0  0  0  0  0  0  0  0
  1  5  1  0  0  0  0
  1 13  1  0  0  0  0
  2  6  1  0  0  0  0
  3  7  1  0  0  0  0
  4  1  1  0  0  0  0
  5  3  1  0  0  0  0
  6 15  1  0  0  0  0
  6  4  1  0  0  0  0
  8  5  1  0  0  0  0
  9 13  1  0  0  0  0
 10  7  1  0  0  0  0
 12 16  1  0  0  0  0
 12 11  1  0  0  0  0
 12  2  1  0  0  0  0
 13 10  1  0  0  0  0
 14  4  1  0  0  0  0
 14  8  1  0  0  0  0
 15 18  1  0  0  0  0
 16 11  1  0  0  0  0
 16 17  1  0  0  0  0
 17 14  1  0  0  0  0
 18  9  1  0  0  0  0
 19 20  1  0  0  0  0
 20 21  2  0  0  0  0
 20 15  1  0  0  0  0
 23 24  2  0  0  0  0
 24 22  1  0  0  0  0
 24 21  1  0  0  0  0
 25 23  1  0  0  0  0
 25 19  2  0  0  0  0
 26 17  1  0  0  0  0
 27 26  1  0  0  0  0
 29 27  1  0  0  0  0
 29 28  1  0  0  0  0
 30 27  1  0  0  0  0
 31 30  1  0  0  0  0
 32 31  1  0  0  0  0
 33 34  1  0  0  0  0
 33  3  1  0  0  0  0
 34 35  1  0  0  0  0
 34 36  1  0  0  0  0
 37 34  1  0  0  0  0
M  END
>  <MODEL>
8

>  <REMARK>
 VINA RESULT:      -7.0      1.877      2.795
  Name = 
  8 active torsions:
  status: ('A' for Active; 'I' for Inactive)
    1  A    between atoms: C_1  and  N_4
    2  A    between atoms: C_1  and  C_27
    3  A    between atoms: C_2  and  O_22
    4  A    between atoms: N_4  and  C_12
    5  A    between atoms: N_4  and  C_37
    6  A    between atoms: C_6  and  O_22
    7  A    between atoms: C_8  and  C_12
    8  A    between atoms: C_23  and  C_30
                            x       y       z     vdW  Elec       q    Type
                         _______ _______ _______ _____ _____    ______ ____

>  <TORSDO>
F 8

$$$$
=
 OpenBabel11122411443D

 37 42  0  0  1  0  0  0  0  0999 V2000
  186.7580  178.6570  141.1660 C   0  0  1  0  0  3  0  0  0  0  0  0
  189.8620  178.1420  142.5720 O   0  0  0  0  0  0  0  0  0  0  0  0
  185.5900  178.4030  138.8990 C   0  0  2  0  0  3  0  0  0  0  0  0
  187.9510  177.7260  141.1780 C   0  0  2  0  0  3  0  0  0  0  0  0
  186.6900  179.1180  139.7140 C   0  0  2  0  0  3  0  0  0  0  0  0
  188.6150  177.4940  142.5500 C   0  0  2  0  0  3  0  0  0  0  0  0
  184.2280  178.4250  139.6230 C   0  0  0  0  0  2  0  0  0  0  0  0
  188.0720  178.8220  139.1450 C   0  0  0  0  0  2  0  0  0  0  0  0
  185.3630  177.9710  143.1430 C   0  0  0  0  0  2  0  0  0  0  0  0
  184.3230  178.6650  141.0670 N   0  0  0  0  0  2  0  0  0  0  0  0
  190.5160  176.0030  141.6960 O   0  0  0  0  0  0  0  0  0  0  0  0
  190.9160  177.2540  142.2160 C   0  0  1  0  0  3  0  0  0  0  0  0
  185.4720  177.9590  141.6250 C   0  0  1  0  0  3  0  0  0  0  0  0
  188.9080  178.2890  140.2250 N   0  0  2  0  0  0  0  0  0  0  0  0
  187.7770  177.8670  143.7830 C   0  0  1  0  0  3  0  0  0  0  0  0
  190.9720  176.9380  140.7430 C   0  0  2  0  0  3  0  0  0  0  0  0
  189.7970  177.2040  139.7690 C   0  0  2  0  0  3  0  0  0  0  0  0
  186.4450  177.1270  143.7990 C   0  0  0  0  0  2  0  0  0  0  0  0
  189.8740  177.2300  144.9840 C   0  0  0  0  0  3  0  0  0  0  0  0
  188.5260  177.5960  145.0520 C   0  0  0  0  0  0  0  0  0  0  0  0
  187.8970  177.6970  146.3040 C   0  0  0  0  0  3  0  0  0  0  0  0
  187.9900  177.5310  148.7090 O   0  0  0  0  0  1  0  0  0  0  0  0
  189.9620  177.0650  147.3990 C   0  0  0  0  0  3  0  0  0  0  0  0
  188.6150  177.4310  147.4730 C   0  0  0  0  0  0  0  0  0  0  0  0
  190.5910  176.9650  146.1550 C   0  0  0  0  0  3  0  0  0  0  0  0
  190.3990  177.4800  138.3730 C   0  0  0  0  0  2  0  0  0  0  0  0
  190.1150  176.4350  137.3770 N   0  0  0  0  0  0  0  0  0  0  0  0
  189.7450  176.2060  134.9810 C   0  0  0  0  0  1  0  0  0  0  0  0
  189.4180  177.0030  136.2290 C   0  0  0  0  0  2  0  0  0  0  0  0
  191.3610  175.8400  136.9090 C   0  0  0  0  0  2  0  0  0  0  0  0
  191.5960  174.5040  137.5920 C   0  0  0  0  0  2  0  0  0  0  0  0
  190.4180  173.7550  137.5940 O   0  0  0  0  0  1  0  0  0  0  0  0
  185.9500  177.0670  138.6240 O   0  0  0  0  0  0  0  0  0  0  0  0
  185.7040  176.7900  137.2590 C   0  0  0  0  0  0  0  0  0  0  0  0
  186.1780  177.8070  136.4430 F   0  0  0  0  0  0  0  0  0  0  0  0
  186.3250  175.4640  136.8390 C   0  0  0  0  0  1  0  0  0  0  0  0
  184.3380  176.6970  137.0750 F   0  0  0  0  0  0  0  0  0  0  0  0
  1  4  1  0  0  0  0
  1 13  1  0  0  0  0
  3  7  1  0  0  0  0
  3  5  1  0  0  0  0
  4  6  1  0  0  0  0
  5  1  1  0  0  0  0
  6  2  1  0  0  0  0
  6 15  1  0  0  0  0
  7 10  1  0  0  0  0
  8  5  1  0  0  0  0
  8 14  1  0  0  0  0
  9 18  1  0  0  0  0
 10 13  1  0  0  0  0
 11 12  1  0  0  0  0
 12  2  1  0  0  0  0
 13  9  1  0  0  0  0
 14  4  1  0  0  0  0
 15 18  1  0  0  0  0
 15 20  1  0  0  0  0
 16 11  1  0  0  0  0
 16 12  1  0  0  0  0
 17 14  1  0  0  0  0
 17 16  1  0  0  0  0
 19 20  2  0  0  0  0
 19 25  1  0  0  0  0
 20 21  1  0  0  0  0
 21 24  2  0  0  0  0
 23 24  1  0  0  0  0
 24 22  1  0  0  0  0
 25 23  2  0  0  0  0
 26 17  1  0  0  0  0
 27 26  1  0  0  0  0
 28 29  1  0  0  0  0
 29 27  1  0  0  0  0
 30 27  1  0  0  0  0
 30 31  1  0  0  0  0
 31 32  1  0  0  0  0
 33  3  1  0  0  0  0
 34 33  1  0  0  0  0
 35 34  1  0  0  0  0
 36 34  1  0  0  0  0
 37 34  1  0  0  0  0
M  END
>  <MODEL>
9

>  <REMARK>
 VINA RESULT:      -6.8      3.560      6.401
  Name = 
  8 active torsions:
  status: ('A' for Active; 'I' for Inactive)
    1  A    between atoms: C_1  and  N_4
    2  A    between atoms: C_1  and  C_27
    3  A    between atoms: C_2  and  O_22
    4  A    between atoms: N_4  and  C_12
    5  A    between atoms: N_4  and  C_37
    6  A    between atoms: C_6  and  O_22
    7  A    between atoms: C_8  and  C_12
    8  A    between atoms: C_23  and  C_30
                            x       y       z     vdW  Elec       q    Type
                         _______ _______ _______ _____ _____    ______ ____

>  <TORSDO>
F 8

$$$$
