=
 OpenBabel11122411513D

 28 32  0  0  1  0  0  0  0  0999 V2000
  188.2620  176.9140  142.3960 C   0  0  0  0  0  0  0  0  0  0  0  0
  186.2780  178.0640  138.3530 O   0  0  0  0  0  0  0  0  0  0  0  0
  193.6600  178.0660  139.8040 O   0  0  0  0  0  0  0  0  0  0  0  0
  186.4310  179.0080  142.0480 C   0  0  0  0  0  3  0  0  0  0  0  0
  192.1630  176.5490  138.7210 C   0  0  0  0  0  0  0  0  0  0  0  0
  189.3080  175.9040  142.7460 C   0  0  0  0  0  2  0  0  0  0  0  0
  188.3120  179.2790  137.6460 O   0  0  0  0  0  0  0  0  0  0  0  0
  187.6810  177.9280  137.8330 S   0  0  0  0  0  0  0  0  0  0  0  0
  188.4920  175.8580  136.1910 C   0  0  0  0  0  0  0  0  0  0  0  0
  188.6520  176.9090  138.9060 C   0  0  1  0  0  3  0  0  0  0  0  0
  191.5820  178.5610  144.2900 C   0  0  0  0  0  1  0  0  0  0  0  0
  190.4720  176.6580  140.3940 N   0  0  1  0  0  0  0  0  0  0  0  0
  189.4470  175.5740  137.0360 N   0  0  0  0  0  0  0  0  0  0  0  0
  187.6820  177.0420  136.3390 N   0  0  0  0  0  2  0  0  0  0  0  0
  190.9750  177.7800  143.1440 C   0  0  1  0  0  3  0  0  0  0  0  0
  188.3520  177.7380  141.2420 C   0  0  0  0  0  0  0  0  0  0  0  0
  192.5680  177.4390  139.7520 C   0  0  0  0  0  0  0  0  0  0  0  0
  188.2050  174.9180  135.0760 C   0  0  0  0  0  1  0  0  0  0  0  0
  192.0710  177.4390  142.1500 C   0  0  0  0  0  2  0  0  0  0  0  0
  187.4310  178.7870  141.1000 C   0  0  0  0  0  3  0  0  0  0  0  0
  187.2550  177.1460  143.3410 C   0  0  0  0  0  3  0  0  0  0  0  0
  186.3380  178.1810  143.1650 C   0  0  0  0  0  3  0  0  0  0  0  0
  190.3360  176.5090  143.7010 C   0  0  0  0  0  2  0  0  0  0  0  0
  190.8280  176.0130  139.0910 C   0  0  1  0  0  3  0  0  0  0  0  0
  191.5900  177.4440  140.7710 N   0  0  0  0  0  0  0  0  0  0  0  0
  189.8230  176.5150  138.0870 C   0  0  2  0  0  3  0  0  0  0  0  0
  192.8270  176.2530  137.6930 O   0  0  0  0  0  0  0  0  0  0  0  0
  189.3320  177.5470  140.0960 C   0  0  2  0  0  3  0  0  0  0  0  0
  1  6  1  0  0  0  0
  1 21  1  0  0  0  0
  4 22  1  0  0  0  0
  5 17  1  0  0  0  0
  6 23  1  0  0  0  0
  7  8  2  0  0  0  0
  8  2  2  0  0  0  0
  9 14  1  0  0  0  0
  9 13  2  0  0  0  0
 10  8  1  6  0  0  0
 10 28  1  0  0  0  0
 12 25  1  6  0  0  0
 14  8  1  0  0  0  0
 15 23  1  0  0  0  0
 15 11  1  1  0  0  0
 16  1  2  0  0  0  0
 17  3  2  0  0  0  0
 17 25  1  0  0  0  0
 18  9  1  0  0  0  0
 19 15  1  0  0  0  0
 20 16  1  0  0  0  0
 20  4  2  0  0  0  0
 22 21  2  0  0  0  0
 24  5  1  6  0  0  0
 24 12  1  0  0  0  0
 25 19  1  0  0  0  0
 26 13  1  6  0  0  0
 26 10  1  0  0  0  0
 26 24  1  0  0  0  0
 27  5  2  0  0  0  0
 28 12  1  0  0  0  0
 28 16  1  1  0  0  0
M  END
>  <MODEL>
1

>  <REMARK>
 VINA RESULT:      -9.1      0.000      0.000
  Name = 
  0 active torsions:
  status: ('A' for Active; 'I' for Inactive)
                            x       y       z     vdW  Elec       q    Type
                         _______ _______ _______ _____ _____    ______ ____

>  <TORSDO>
F 0

$$$$
=
 OpenBabel11122411513D

 28 32  0  0  1  0  0  0  0  0999 V2000
  186.9870  177.8690  136.3210 C   0  0  0  0  0  0  0  0  0  0  0  0
  182.6740  176.1800  136.7050 O   0  0  0  0  0  0  0  0  0  0  0  0
  187.1830  178.1050  142.4110 O   0  0  0  0  0  0  0  0  0  0  0  0
  186.1540  175.3690  135.3670 C   0  0  0  0  0  3  0  0  0  0  0  0
  185.3670  179.1670  141.2760 C   0  0  0  0  0  0  0  0  0  0  0  0
  187.6220  179.1190  136.8400 C   0  0  0  0  0  2  0  0  0  0  0  0
  183.0900  175.5200  139.0510 O   0  0  0  0  0  0  0  0  0  0  0  0
  182.8040  176.6650  138.1220 S   0  0  0  0  0  0  0  0  0  0  0  0
  181.4240  178.8470  139.1070 C   0  0  0  0  0  0  0  0  0  0  0  0
  184.0490  177.9170  138.2440 C   0  0  1  0  0  3  0  0  0  0  0  0
  190.3370  177.1640  138.6890 C   0  0  0  0  0  1  0  0  0  0  0  0
  186.1340  178.6530  139.0810 N   0  0  1  0  0  0  0  0  0  0  0  0
  182.5550  179.3810  139.4840 N   0  0  0  0  0  0  0  0  0  0  0  0
  181.3580  177.4970  138.6050 N   0  0  0  0  0  2  0  0  0  0  0  0
  188.9500  177.7440  138.5130 C   0  0  1  0  0  3  0  0  0  0  0  0
  186.1070  177.0770  137.1070 C   0  0  0  0  0  0  0  0  0  0  0  0
  186.5790  178.4280  141.3540 C   0  0  0  0  0  0  0  0  0  0  0  0
  180.1820  179.6620  139.1580 C   0  0  0  0  0  1  0  0  0  0  0  0
  188.4970  178.3390  139.8350 C   0  0  0  0  0  2  0  0  0  0  0  0
  185.7170  175.8240  136.6110 C   0  0  0  0  0  3  0  0  0  0  0  0
  187.4200  177.4010  135.0750 C   0  0  0  0  0  3  0  0  0  0  0  0
  187.0000  176.1620  134.5940 C   0  0  0  0  0  3  0  0  0  0  0  0
  189.0000  178.8160  137.4260 C   0  0  0  0  0  2  0  0  0  0  0  0
  185.0440  179.3460  139.8370 C   0  0  1  0  0  3  0  0  0  0  0  0
  187.0600  178.1880  140.0480 N   0  0  0  0  0  0  0  0  0  0  0  0
  183.7780  178.5860  139.5390 C   0  0  2  0  0  3  0  0  0  0  0  0
  184.7020  179.6070  142.2510 O   0  0  0  0  0  0  0  0  0  0  0  0
  185.4890  177.4950  138.4310 C   0  0  2  0  0  3  0  0  0  0  0  0
  1  6  1  0  0  0  0
  1 16  1  0  0  0  0
  2  8  2  0  0  0  0
  4 20  1  0  0  0  0
  5 17  1  0  0  0  0
  5 27  2  0  0  0  0
  6 23  1  0  0  0  0
  8 14  1  0  0  0  0
  8  7  2  0  0  0  0
  9 18  1  0  0  0  0
  9 13  2  0  0  0  0
 10  8  1  1  0  0  0
 10 28  1  0  0  0  0
 10 26  1  0  0  0  0
 12 24  1  0  0  0  0
 12 25  1  1  0  0  0
 14  9  1  0  0  0  0
 15 11  1  1  0  0  0
 15 19  1  0  0  0  0
 17  3  2  0  0  0  0
 19 25  1  0  0  0  0
 20 16  2  0  0  0  0
 21  1  2  0  0  0  0
 22 21  1  0  0  0  0
 22  4  2  0  0  0  0
 23 15  1  0  0  0  0
 24  5  1  1  0  0  0
 25 17  1  0  0  0  0
 26 13  1  6  0  0  0
 26 24  1  0  0  0  0
 28 16  1  6  0  0  0
 28 12  1  0  0  0  0
M  END
>  <MODEL>
2

>  <REMARK>
 VINA RESULT:      -6.3      3.792      6.721
  Name = 
  0 active torsions:
  status: ('A' for Active; 'I' for Inactive)
                            x       y       z     vdW  Elec       q    Type
                         _______ _______ _______ _____ _____    ______ ____

>  <TORSDO>
F 0

$$$$
=
 OpenBabel11122411513D

 28 32  0  0  1  0  0  0  0  0999 V2000
  182.2630  175.6120  138.5770 C   0  0  0  0  0  0  0  0  0  0  0  0
  185.9870  177.9790  140.0390 O   0  0  0  0  0  0  0  0  0  0  0  0
  178.9310  180.5750  139.7800 O   0  0  0  0  0  0  0  0  0  0  0  0
  184.5170  176.1820  137.0110 C   0  0  0  0  0  3  0  0  0  0  0  0
  180.3270  179.6820  141.5020 C   0  0  0  0  0  0  0  0  0  0  0  0
  180.9570  175.2970  139.2330 C   0  0  0  0  0  2  0  0  0  0  0  0
  184.8060  180.1280  139.7180 O   0  0  0  0  0  0  0  0  0  0  0  0
  184.9500  178.9150  140.5930 S   0  0  0  0  0  0  0  0  0  0  0  0
  184.4350  179.1730  143.2960 C   0  0  0  0  0  0  0  0  0  0  0  0
  183.4010  178.0840  140.7980 C   0  0  1  0  0  3  0  0  0  0  0  0
  178.9640  176.9260  136.4080 C   0  0  0  0  0  1  0  0  0  0  0  0
  181.1200  177.8370  140.2220 N   0  0  1  0  0  0  0  0  0  0  0  0
  183.1750  178.9130  143.0720 N   0  0  0  0  0  0  0  0  0  0  0  0
  185.3660  179.3770  142.2150 N   0  0  0  0  0  2  0  0  0  0  0  0
  179.7880  176.9300  137.6770 C   0  0  1  0  0  3  0  0  0  0  0  0
  182.8740  176.8920  138.6680 C   0  0  0  0  0  0  0  0  0  0  0  0
  179.7530  179.7190  140.2020 C   0  0  0  0  0  0  0  0  0  0  0  0
  184.9300  179.2190  144.6970 C   0  0  0  0  0  1  0  0  0  0  0  0
  179.1710  177.9090  138.6590 C   0  0  0  0  0  2  0  0  0  0  0  0
  183.9920  177.1540  137.8620 C   0  0  0  0  0  3  0  0  0  0  0  0
  182.7980  174.6450  137.7180 C   0  0  0  0  0  3  0  0  0  0  0  0
  183.9240  174.9220  136.9450 C   0  0  0  0  0  3  0  0  0  0  0  0
  179.8020  175.5170  138.2580 C   0  0  0  0  0  2  0  0  0  0  0  0
  181.2060  178.4860  141.5680 C   0  0  1  0  0  3  0  0  0  0  0  0
  180.1760  178.5840  139.4750 N   0  0  0  0  0  0  0  0  0  0  0  0
  182.6300  178.9540  141.7190 C   0  0  2  0  0  3  0  0  0  0  0  0
  180.1110  180.5020  142.4320 O   0  0  0  0  0  0  0  0  0  0  0  0
  182.4580  178.0030  139.6180 C   0  0  2  0  0  3  0  0  0  0  0  0
  1 16  1  0  0  0  0
  1  6  1  0  0  0  0
  2  8  2  0  0  0  0
  3 17  2  0  0  0  0
  4 20  1  0  0  0  0
  5 27  2  0  0  0  0
  7  8  2  0  0  0  0
  8 14  1  0  0  0  0
  9 18  1  0  0  0  0
 10  8  1  6  0  0  0
 10 26  1  0  0  0  0
 12 25  1  6  0  0  0
 12 24  1  0  0  0  0
 13  9  2  0  0  0  0
 14  9  1  0  0  0  0
 15 11  1  6  0  0  0
 15 23  1  0  0  0  0
 15 19  1  0  0  0  0
 17  5  1  0  0  0  0
 19 25  1  0  0  0  0
 20 16  2  0  0  0  0
 21  1  2  0  0  0  0
 22  4  2  0  0  0  0
 22 21  1  0  0  0  0
 23  6  1  0  0  0  0
 24  5  1  6  0  0  0
 24 26  1  0  0  0  0
 25 17  1  0  0  0  0
 26 13  1  1  0  0  0
 28 16  1  6  0  0  0
 28 12  1  0  0  0  0
 28 10  1  0  0  0  0
M  END
>  <MODEL>
3

>  <REMARK>
 VINA RESULT:      -6.2      6.171      9.721
  Name = 
  0 active torsions:
  status: ('A' for Active; 'I' for Inactive)
                            x       y       z     vdW  Elec       q    Type
                         _______ _______ _______ _____ _____    ______ ____

>  <TORSDO>
F 0

$$$$
