=
 OpenBabel11122410303D

 30 35  0  0  1  0  0  0  0  0999 V2000
  189.1420  177.6170  143.2720 C   0  0  0  0  0  0  0  0  0  0  0  0
  191.0910  176.6650  144.6400 C   0  0  0  0  0  0  0  0  0  0  0  0
  186.7840  177.9860  146.7270 N   0  0  0  0  0  2  0  0  0  0  0  0
  187.8220  178.1380  143.2220 C   0  0  0  0  0  0  0  0  0  0  0  0
  189.9600  177.6320  142.0130 C   0  0  0  0  0  2  0  0  0  0  0  0
  187.3300  178.2650  139.6070 O   0  0  0  0  0  0  0  0  0  0  0  0
  184.7830  178.2470  142.3460 C   0  0  1  0  0  3  0  0  0  0  0  0
  187.8690  178.0370  140.7260 C   0  0  0  0  0  0  0  0  0  0  0  0
  184.6860  178.0540  143.8610 C   0  0  2  0  0  3  0  0  0  0  0  0
  185.6260  178.5770  146.1480 C   0  0  0  0  0  0  0  0  0  0  0  0
  189.1340  177.2230  140.8000 C   0  0  1  0  0  3  0  0  0  0  0  0
  187.2250  178.4690  141.9410 N   0  0  0  0  0  0  0  0  0  0  0  0
  191.6520  176.4650  145.9400 N   0  0  0  0  0  0  0  0  0  0  0  0
  183.2840  178.5270  144.2080 C   0  0  0  0  0  2  0  0  0  0  0  0
  183.4400  178.7980  141.9180 C   0  0  0  0  0  2  0  0  0  0  0  0
  191.7950  176.4070  143.6290 O   0  0  0  0  0  0  0  0  0  0  0  0
  187.6610  177.8260  145.6240 C   0  0  0  0  0  0  0  0  0  0  0  0
  190.9480  176.5470  147.0280 C   0  0  0  0  0  3  0  0  0  0  0  0
  189.7070  177.1910  144.5110 C   0  0  0  0  0  0  0  0  0  0  0  0
  187.1130  178.2540  144.4320 C   0  0  0  0  0  0  0  0  0  0  0  0
  184.6300  178.9150  146.8400 O   0  0  0  0  0  0  0  0  0  0  0  0
  185.7440  178.8160  144.6700 C   0  0  1  0  0  3  0  0  0  0  0  0
  182.4950  178.5210  142.9870 N   0  0  0  0  0  2  0  0  0  0  0  0
  185.9430  180.4050  142.3760 O   0  0  0  0  0  1  0  0  0  0  0  0
  189.4630  176.7810  147.0140 C   0  0  0  0  0  2  0  0  0  0  0  0
  188.9470  177.2950  145.6960 C   0  0  0  0  0  0  0  0  0  0  0  0
  185.9240  179.1260  141.8130 C   0  0  2  0  0  3  0  0  0  0  0  0
  189.9610  177.3010  139.5490 C   0  0  0  0  0  3  0  0  0  0  0  0
  191.8920  176.8530  138.2810 O   0  0  0  0  0  1  0  0  0  0  0  0
  191.1680  176.7520  139.4610 C   0  0  0  0  0  3  0  0  0  0  0  0
  1 19  1  0  0  0  0
  2 13  1  0  0  0  0
  4  1  2  0  0  0  0
  4 20  1  0  0  0  0
  5  1  1  0  0  0  0
  6  8  2  0  0  0  0
  7 15  1  1  0  0  0
  7  9  1  0  0  0  0
  8 11  1  0  0  0  0
  8 12  1  0  0  0  0
  9 14  1  1  0  0  0
  9 22  1  0  0  0  0
 10  3  1  0  0  0  0
 10 21  2  0  0  0  0
 11 28  1  6  0  0  0
 11  5  1  0  0  0  0
 12  4  1  0  0  0  0
 13 18  2  0  0  0  0
 15 23  1  0  0  0  0
 16  2  2  0  0  0  0
 17 26  1  0  0  0  0
 17  3  1  0  0  0  0
 19  2  1  0  0  0  0
 19 26  2  0  0  0  0
 20 17  2  0  0  0  0
 22 20  1  6  0  0  0
 22 10  1  0  0  0  0
 23 14  1  0  0  0  0
 25 18  1  0  0  0  0
 26 25  1  0  0  0  0
 27 12  1  0  0  0  0
 27  7  1  0  0  0  0
 27 24  1  1  0  0  0
 29 30  1  0  0  0  0
 30 28  2  0  0  0  0
M  END
>  <MODEL>
1

>  <REMARK>
 VINA RESULT:     -10.7      0.000      0.000
  Name = 
  1 active torsions:
  status: ('A' for Active; 'I' for Inactive)
    1  A    between atoms: C_11  and  C_28
                            x       y       z     vdW  Elec       q    Type
                         _______ _______ _______ _____ _____    ______ ____

>  <TORSDO>
F 1

$$$$
=
 OpenBabel11122410303D

 30 35  0  0  1  0  0  0  0  0999 V2000
  186.9920  178.1500  140.9360 C   0  0  0  0  0  0  0  0  0  0  0  0
  184.6570  178.9760  140.2750 C   0  0  0  0  0  0  0  0  0  0  0  0
  185.8550  177.8930  144.9700 N   0  0  0  0  0  2  0  0  0  0  0  0
  187.8950  177.7070  141.9390 C   0  0  0  0  0  0  0  0  0  0  0  0
  187.4410  178.0960  139.5040 C   0  0  0  0  0  2  0  0  0  0  0  0
  190.9940  177.6360  140.0120 O   0  0  0  0  0  0  0  0  0  0  0  0
  190.5110  177.7820  143.7190 C   0  0  1  0  0  3  0  0  0  0  0  0
  189.7800  177.8240  140.3040 C   0  0  0  0  0  0  0  0  0  0  0  0
  189.4000  177.9700  144.7530 C   0  0  2  0  0  3  0  0  0  0  0  0
  187.0630  177.3760  145.5130 C   0  0  0  0  0  0  0  0  0  0  0  0
  188.8820  178.5620  139.3460 C   0  0  1  0  0  3  0  0  0  0  0  0
  189.2750  177.4220  141.5920 N   0  0  0  0  0  0  0  0  0  0  0  0
  183.2910  179.1340  140.6670 N   0  0  0  0  0  0  0  0  0  0  0  0
  190.0470  177.5770  146.0700 C   0  0  0  0  0  2  0  0  0  0  0  0
  191.7210  177.3140  144.4990 C   0  0  0  0  0  2  0  0  0  0  0  0
  184.9750  179.2000  139.0780 O   0  0  0  0  0  0  0  0  0  0  0  0
  186.1370  178.0110  143.5850 C   0  0  0  0  0  0  0  0  0  0  0  0
  182.9060  179.0850  141.9060 C   0  0  0  0  0  3  0  0  0  0  0  0
  185.6620  178.5330  141.2770 C   0  0  0  0  0  0  0  0  0  0  0  0
  187.4220  177.6240  143.2610 C   0  0  0  0  0  0  0  0  0  0  0  0
  187.1810  177.0910  146.7340 O   0  0  0  0  0  0  0  0  0  0  0  0
  188.1360  177.1410  144.4880 C   0  0  1  0  0  3  0  0  0  0  0  0
  191.4890  177.6380  145.8960 N   0  0  0  0  0  2  0  0  0  0  0  0
  189.8410  175.5600  142.9340 O   0  0  0  0  0  1  0  0  0  0  0  0
  183.8740  178.9380  143.0470 C   0  0  0  0  0  2  0  0  0  0  0  0
  185.2380  178.4640  142.6220 C   0  0  0  0  0  0  0  0  0  0  0  0
  190.2320  176.8430  142.5370 C   0  0  2  0  0  3  0  0  0  0  0  0
  189.3200  178.4450  137.9150 C   0  0  0  0  0  3  0  0  0  0  0  0
  189.0180  177.7810  135.6780 O   0  0  0  0  0  1  0  0  0  0  0  0
  188.5660  177.8640  136.9880 C   0  0  0  0  0  3  0  0  0  0  0  0
  1 19  2  0  0  0  0
  1  4  1  0  0  0  0
  2 13  1  0  0  0  0
  2 19  1  0  0  0  0
  3 10  1  0  0  0  0
  4 20  2  0  0  0  0
  5  1  1  0  0  0  0
  6  8  2  0  0  0  0
  7 15  1  1  0  0  0
  7  9  1  0  0  0  0
  8 12  1  0  0  0  0
  9 14  1  1  0  0  0
 10 21  2  0  0  0  0
 11 28  1  6  0  0  0
 11  5  1  0  0  0  0
 11  8  1  0  0  0  0
 12  4  1  0  0  0  0
 12 27  1  0  0  0  0
 13 18  2  0  0  0  0
 15 23  1  0  0  0  0
 16  2  2  0  0  0  0
 17  3  1  0  0  0  0
 18 25  1  0  0  0  0
 19 26  1  0  0  0  0
 20 17  1  0  0  0  0
 22 20  1  6  0  0  0
 22  9  1  0  0  0  0
 22 10  1  0  0  0  0
 23 14  1  0  0  0  0
 26 25  1  0  0  0  0
 26 17  2  0  0  0  0
 27 24  1  1  0  0  0
 27  7  1  0  0  0  0
 29 30  1  0  0  0  0
 30 28  2  0  0  0  0
M  END
>  <MODEL>
2

>  <REMARK>
 VINA RESULT:     -10.2      1.800      5.502
  Name = 
  1 active torsions:
  status: ('A' for Active; 'I' for Inactive)
    1  A    between atoms: C_11  and  C_28
                            x       y       z     vdW  Elec       q    Type
                         _______ _______ _______ _____ _____    ______ ____

>  <TORSDO>
F 1

$$$$
=
 OpenBabel11122410303D

 30 35  0  0  1  0  0  0  0  0999 V2000
  188.1230  177.8540  145.1250 C   0  0  0  0  0  0  0  0  0  0  0  0
  186.0200  178.1730  146.5570 C   0  0  0  0  0  0  0  0  0  0  0  0
  185.9380  178.5440  141.6060 N   0  0  0  0  0  2  0  0  0  0  0  0
  188.7410  177.8320  143.8470 C   0  0  0  0  0  0  0  0  0  0  0  0
  188.9970  177.7190  146.3390 C   0  0  0  0  0  2  0  0  0  0  0  0
  192.0260  176.5270  144.7580 O   0  0  0  0  0  0  0  0  0  0  0  0
  190.3340  176.5670  141.4220 C   0  0  1  0  0  3  0  0  0  0  0  0
  190.8250  176.9010  144.8630 C   0  0  0  0  0  0  0  0  0  0  0  0
  188.9740  176.8860  140.7970 C   0  0  2  0  0  3  0  0  0  0  0  0
  186.9980  178.4570  140.6610 C   0  0  0  0  0  0  0  0  0  0  0  0
  190.0710  176.6570  146.1440 C   0  0  1  0  0  3  0  0  0  0  0  0
  190.1420  177.4710  143.7300 N   0  0  0  0  0  0  0  0  0  0  0  0
  184.6690  178.6410  146.6080 N   0  0  0  0  0  0  0  0  0  0  0  0
  189.2520  176.9300  139.3040 C   0  0  0  0  0  2  0  0  0  0  0  0
  191.2960  176.4330  140.2610 C   0  0  0  0  0  2  0  0  0  0  0  0
  186.5890  177.8450  147.6300 O   0  0  0  0  0  0  0  0  0  0  0  0
  186.5840  178.3300  142.8510 C   0  0  0  0  0  0  0  0  0  0  0  0
  183.9560  178.8410  145.5410 C   0  0  0  0  0  3  0  0  0  0  0  0
  186.7250  178.1050  145.2500 C   0  0  0  0  0  0  0  0  0  0  0  0
  187.9390  178.1020  142.7230 C   0  0  0  0  0  0  0  0  0  0  0  0
  186.8150  178.6430  139.4300 O   0  0  0  0  0  0  0  0  0  0  0  0
  188.3410  178.1970  141.2820 C   0  0  1  0  0  3  0  0  0  0  0  0
  190.5030  176.2300  139.0610 N   0  0  0  0  0  2  0  0  0  0  0  0
  190.9600  178.8630  142.0040 O   0  0  0  0  0  1  0  0  0  0  0  0
  184.4590  178.5240  144.1610 C   0  0  0  0  0  2  0  0  0  0  0  0
  185.9520  178.3400  144.0920 C   0  0  0  0  0  0  0  0  0  0  0  0
  190.8830  177.5470  142.4690 C   0  0  2  0  0  3  0  0  0  0  0  0
  190.9630  176.5830  147.3500 C   0  0  0  0  0  3  0  0  0  0  0  0
  192.7620  175.6870  148.5740 O   0  0  0  0  0  1  0  0  0  0  0  0
  191.9660  175.7150  147.4380 C   0  0  0  0  0  3  0  0  0  0  0  0
  1 19  1  0  0  0  0
  1  5  1  0  0  0  0
  2 13  1  0  0  0  0
  2 16  2  0  0  0  0
  3 17  1  0  0  0  0
  4  1  2  0  0  0  0
  6  8  2  0  0  0  0
  7 15  1  6  0  0  0
  7 27  1  0  0  0  0
  8 11  1  0  0  0  0
  9 14  1  6  0  0  0
  9 22  1  0  0  0  0
  9  7  1  0  0  0  0
 10  3  1  0  0  0  0
 11  5  1  0  0  0  0
 11 28  1  1  0  0  0
 12  4  1  0  0  0  0
 12  8  1  0  0  0  0
 17 26  1  0  0  0  0
 18 13  2  0  0  0  0
 19  2  1  0  0  0  0
 20 17  2  0  0  0  0
 20  4  1  0  0  0  0
 21 10  2  0  0  0  0
 22 10  1  6  0  0  0
 22 20  1  0  0  0  0
 23 14  1  0  0  0  0
 23 15  1  0  0  0  0
 25 18  1  0  0  0  0
 26 25  1  0  0  0  0
 26 19  2  0  0  0  0
 27 24  1  6  0  0  0
 27 12  1  0  0  0  0
 28 30  2  0  0  0  0
 30 29  1  0  0  0  0
M  END
>  <MODEL>
3

>  <REMARK>
 VINA RESULT:      -9.9      1.815      6.096
  Name = 
  1 active torsions:
  status: ('A' for Active; 'I' for Inactive)
    1  A    between atoms: C_11  and  C_28
                            x       y       z     vdW  Elec       q    Type
                         _______ _______ _______ _____ _____    ______ ____

>  <TORSDO>
F 1

$$$$
=
 OpenBabel11122410303D

 30 35  0  0  1  0  0  0  0  0999 V2000
  187.3500  178.1620  142.1440 C   0  0  0  0  0  0  0  0  0  0  0  0
  188.5770  177.7750  144.3620 C   0  0  0  0  0  0  0  0  0  0  0  0
  183.6570  178.3970  144.1280 N   0  0  0  0  0  2  0  0  0  0  0  0
  186.1380  178.3940  141.4410 C   0  0  0  0  0  0  0  0  0  0  0  0
  188.6390  178.2130  141.3750 C   0  0  0  0  0  2  0  0  0  0  0  0
  187.3260  178.0410  138.0070 O   0  0  0  0  0  0  0  0  0  0  0  0
  183.8430  177.7870  139.3480 C   0  0  1  0  0  3  0  0  0  0  0  0
  187.3240  178.0460  139.2700 C   0  0  0  0  0  0  0  0  0  0  0  0
  183.0970  177.7360  140.6830 C   0  0  2  0  0  3  0  0  0  0  0  0
  182.8180  178.6750  143.0140 C   0  0  0  0  0  0  0  0  0  0  0  0
  188.5170  177.5200  140.0240 C   0  0  1  0  0  3  0  0  0  0  0  0
  186.1480  178.4600  139.9910 N   0  0  0  0  0  0  0  0  0  0  0  0
  188.5100  177.8300  145.7900 N   0  0  0  0  0  0  0  0  0  0  0  0
  181.6410  177.9460  140.3050 C   0  0  0  0  0  2  0  0  0  0  0  0
  182.7780  178.0050  138.2940 C   0  0  0  0  0  2  0  0  0  0  0  0
  189.6900  177.5630  143.8150 O   0  0  0  0  0  0  0  0  0  0  0  0
  184.9510  178.3050  143.5560 C   0  0  0  0  0  0  0  0  0  0  0  0
  187.3850  177.8780  146.4370 C   0  0  0  0  0  3  0  0  0  0  0  0
  187.3440  177.9910  143.5600 C   0  0  0  0  0  0  0  0  0  0  0  0
  184.9500  178.4860  142.1880 C   0  0  0  0  0  0  0  0  0  0  0  0
  181.5810  178.8710  143.1380 O   0  0  0  0  0  0  0  0  0  0  0  0
  183.5590  178.7780  141.7110 C   0  0  1  0  0  3  0  0  0  0  0  0
  181.5000  177.6520  138.8880 N   0  0  0  0  0  2  0  0  0  0  0  0
  184.5560  180.1280  139.4730 O   0  0  0  0  0  1  0  0  0  0  0  0
  186.0520  177.8010  145.7480 C   0  0  0  0  0  2  0  0  0  0  0  0
  186.1240  178.0600  144.2670 C   0  0  0  0  0  0  0  0  0  0  0  0
  184.9690  178.8200  139.2010 C   0  0  2  0  0  3  0  0  0  0  0  0
  189.8010  177.6360  139.2550 C   0  0  0  0  0  3  0  0  0  0  0  0
  191.7730  176.7530  138.3210 O   0  0  0  0  0  1  0  0  0  0  0  0
  190.5960  176.5920  139.0390 C   0  0  0  0  0  3  0  0  0  0  0  0
  1 19  1  0  0  0  0
  2 13  1  0  0  0  0
  4  1  2  0  0  0  0
  4 20  1  0  0  0  0
  5  1  1  0  0  0  0
  6  8  2  0  0  0  0
  7 15  1  6  0  0  0
  7  9  1  0  0  0  0
  8 12  1  0  0  0  0
  8 11  1  0  0  0  0
  9 14  1  6  0  0  0
  9 22  1  0  0  0  0
 10 21  2  0  0  0  0
 10  3  1  0  0  0  0
 11 28  1  6  0  0  0
 11  5  1  0  0  0  0
 12  4  1  0  0  0  0
 13 18  2  0  0  0  0
 15 23  1  0  0  0  0
 16  2  2  0  0  0  0
 17  3  1  0  0  0  0
 17 26  1  0  0  0  0
 19 26  2  0  0  0  0
 19  2  1  0  0  0  0
 20 17  2  0  0  0  0
 22 20  1  1  0  0  0
 22 10  1  0  0  0  0
 23 14  1  0  0  0  0
 25 18  1  0  0  0  0
 26 25  1  0  0  0  0
 27  7  1  0  0  0  0
 27 24  1  1  0  0  0
 27 12  1  0  0  0  0
 29 30  1  0  0  0  0
 30 28  2  0  0  0  0
M  END
>  <MODEL>
4

>  <REMARK>
 VINA RESULT:      -9.8      2.032      3.065
  Name = 
  1 active torsions:
  status: ('A' for Active; 'I' for Inactive)
    1  A    between atoms: C_11  and  C_28
                            x       y       z     vdW  Elec       q    Type
                         _______ _______ _______ _____ _____    ______ ____

>  <TORSDO>
F 1

$$$$
=
 OpenBabel11122410303D

 30 35  0  0  1  0  0  0  0  0999 V2000
  186.4420  178.2590  144.4060 C   0  0  0  0  0  0  0  0  0  0  0  0
  183.9520  178.5750  144.9330 C   0  0  0  0  0  0  0  0  0  0  0  0
  185.7080  178.6280  140.2890 N   0  0  0  0  0  2  0  0  0  0  0  0
  187.4910  178.1830  143.4520 C   0  0  0  0  0  0  0  0  0  0  0  0
  186.8050  178.2380  145.8640 C   0  0  0  0  0  2  0  0  0  0  0  0
  190.2250  177.0830  145.6060 O   0  0  0  0  0  0  0  0  0  0  0  0
  189.8910  176.8380  141.8880 C   0  0  1  0  0  3  0  0  0  0  0  0
  189.0640  177.4100  145.2320 C   0  0  0  0  0  0  0  0  0  0  0  0
  188.8560  177.0580  140.7830 C   0  0  2  0  0  3  0  0  0  0  0  0
  187.0440  178.5280  139.8110 C   0  0  0  0  0  0  0  0  0  0  0  0
  187.8930  177.2140  146.1590 C   0  0  1  0  0  3  0  0  0  0  0  0
  188.8410  177.8770  143.8880 N   0  0  0  0  0  0  0  0  0  0  0  0
  182.6710  178.9850  144.4460 N   0  0  0  0  0  0  0  0  0  0  0  0
  189.6670  177.0190  139.5000 C   0  0  0  0  0  2  0  0  0  0  0  0
  191.2180  176.6740  141.1780 C   0  0  0  0  0  2  0  0  0  0  0  0
  184.0880  178.3400  146.1620 O   0  0  0  0  0  0  0  0  0  0  0  0
  185.8490  178.5220  141.6960 C   0  0  0  0  0  0  0  0  0  0  0  0
  182.4020  179.0870  143.1800 C   0  0  0  0  0  3  0  0  0  0  0  0
  185.0930  178.4560  143.9870 C   0  0  0  0  0  0  0  0  0  0  0  0
  187.1590  178.3460  142.0950 C   0  0  0  0  0  0  0  0  0  0  0  0
  187.3280  178.6280  138.5890 O   0  0  0  0  0  0  0  0  0  0  0  0
  188.0650  178.3680  140.9010 C   0  0  1  0  0  3  0  0  0  0  0  0
  190.9300  176.3610  139.7880 N   0  0  0  0  0  2  0  0  0  0  0  0
  190.2170  179.1920  142.4870 O   0  0  0  0  0  1  0  0  0  0  0  0
  183.3870  178.7050  142.1110 C   0  0  0  0  0  2  0  0  0  0  0  0
  184.8020  178.5820  142.6120 C   0  0  0  0  0  0  0  0  0  0  0  0
  189.9950  177.9050  142.9880 C   0  0  2  0  0  3  0  0  0  0  0  0
  188.2750  177.2560  147.6110 C   0  0  0  0  0  3  0  0  0  0  0  0
  188.3090  178.2530  149.7420 O   0  0  0  0  0  1  0  0  0  0  0  0
  187.9300  178.2630  148.4070 C   0  0  0  0  0  3  0  0  0  0  0  0
  1  5  1  0  0  0  0
  2 16  2  0  0  0  0
  3 17  1  0  0  0  0
  4 12  1  0  0  0  0
  4  1  2  0  0  0  0
  5 11  1  0  0  0  0
  7 15  1  6  0  0  0
  7 27  1  0  0  0  0
  8  6  2  0  0  0  0
  8 11  1  0  0  0  0
  9 14  1  6  0  0  0
  9 22  1  0  0  0  0
  9  7  1  0  0  0  0
 10  3  1  0  0  0  0
 11 28  1  1  0  0  0
 12  8  1  0  0  0  0
 13  2  1  0  0  0  0
 14 23  1  0  0  0  0
 17 20  2  0  0  0  0
 17 26  1  0  0  0  0
 18 13  2  0  0  0  0
 19  1  1  0  0  0  0
 19  2  1  0  0  0  0
 20  4  1  0  0  0  0
 21 10  2  0  0  0  0
 22 10  1  6  0  0  0
 22 20  1  0  0  0  0
 23 15  1  0  0  0  0
 25 26  1  0  0  0  0
 25 18  1  0  0  0  0
 26 19  2  0  0  0  0
 27 24  1  6  0  0  0
 27 12  1  0  0  0  0
 28 30  2  0  0  0  0
 30 29  1  0  0  0  0
M  END
>  <MODEL>
5

>  <REMARK>
 VINA RESULT:      -9.6      1.934      6.800
  Name = 
  1 active torsions:
  status: ('A' for Active; 'I' for Inactive)
    1  A    between atoms: C_11  and  C_28
                            x       y       z     vdW  Elec       q    Type
                         _______ _______ _______ _____ _____    ______ ____

>  <TORSDO>
F 1

$$$$
=
 OpenBabel11122410303D

 30 35  0  0  1  0  0  0  0  0999 V2000
  187.8700  178.0150  141.2420 C   0  0  0  0  0  0  0  0  0  0  0  0
  189.5190  177.5020  143.1370 C   0  0  0  0  0  0  0  0  0  0  0  0
  184.6970  178.3380  143.9730 N   0  0  0  0  0  2  0  0  0  0  0  0
  186.5490  178.3220  140.8190 C   0  0  0  0  0  0  0  0  0  0  0  0
  188.9680  178.0380  140.2170 C   0  0  0  0  0  2  0  0  0  0  0  0
  186.9640  178.0380  137.2040 O   0  0  0  0  0  0  0  0  0  0  0  0
  183.8360  177.8850  139.2500 C   0  0  1  0  0  3  0  0  0  0  0  0
  187.2300  177.9990  138.4370 C   0  0  0  0  0  0  0  0  0  0  0  0
  183.3890  177.8200  140.7110 C   0  0  2  0  0  3  0  0  0  0  0  0
  183.6560  178.6890  143.0700 C   0  0  0  0  0  0  0  0  0  0  0  0
  188.5290  177.3980  138.9070 C   0  0  1  0  0  3  0  0  0  0  0  0
  186.2550  178.4380  139.4020 N   0  0  0  0  0  0  0  0  0  0  0  0
  189.7580  177.5100  144.5470 N   0  0  0  0  0  0  0  0  0  0  0  0
  181.8980  178.1030  140.6580 C   0  0  0  0  0  2  0  0  0  0  0  0
  182.5850  178.1830  138.4530 C   0  0  0  0  0  2  0  0  0  0  0  0
  190.4800  177.2620  142.3600 O   0  0  0  0  0  0  0  0  0  0  0  0
  185.8350  178.2120  143.1360 C   0  0  0  0  0  0  0  0  0  0  0  0
  188.8010  177.5840  145.4210 C   0  0  0  0  0  3  0  0  0  0  0  0
  188.1560  177.7970  142.6220 C   0  0  0  0  0  0  0  0  0  0  0  0
  185.5530  178.4390  141.8040 C   0  0  0  0  0  0  0  0  0  0  0  0
  182.4840  178.9330  143.4610 O   0  0  0  0  0  0  0  0  0  0  0  0
  184.1080  178.8050  141.6420 C   0  0  1  0  0  3  0  0  0  0  0  0
  181.4460  177.8650  139.2970 N   0  0  0  0  0  2  0  0  0  0  0  0
  184.6720  180.1880  139.2770 O   0  0  0  0  0  1  0  0  0  0  0  0
  187.3490  177.5870  145.0300 C   0  0  0  0  0  2  0  0  0  0  0  0
  187.1180  177.8920  143.5740 C   0  0  0  0  0  0  0  0  0  0  0  0
  184.9550  178.8740  138.8910 C   0  0  2  0  0  3  0  0  0  0  0  0
  189.6250  177.4860  137.8850 C   0  0  0  0  0  3  0  0  0  0  0  0
  191.1250  176.5470  136.3340 O   0  0  0  0  0  1  0  0  0  0  0  0
  190.1110  176.4110  137.2720 C   0  0  0  0  0  3  0  0  0  0  0  0
  1 19  1  0  0  0  0
  2 13  1  0  0  0  0
  4  1  2  0  0  0  0
  4 20  1  0  0  0  0
  5  1  1  0  0  0  0
  6  8  2  0  0  0  0
  7 15  1  6  0  0  0
  7  9  1  0  0  0  0
  8 11  1  0  0  0  0
  8 12  1  0  0  0  0
  9 14  1  6  0  0  0
  9 22  1  0  0  0  0
 10 21  2  0  0  0  0
 10  3  1  0  0  0  0
 11 28  1  6  0  0  0
 11  5  1  0  0  0  0
 12  4  1  0  0  0  0
 13 18  2  0  0  0  0
 15 23  1  0  0  0  0
 16  2  2  0  0  0  0
 17 26  1  0  0  0  0
 17  3  1  0  0  0  0
 19  2  1  0  0  0  0
 19 26  2  0  0  0  0
 20 17  2  0  0  0  0
 22 20  1  1  0  0  0
 22 10  1  0  0  0  0
 23 14  1  0  0  0  0
 25 18  1  0  0  0  0
 26 25  1  0  0  0  0
 27  7  1  0  0  0  0
 27 24  1  1  0  0  0
 27 12  1  0  0  0  0
 29 30  1  0  0  0  0
 30 28  2  0  0  0  0
M  END
>  <MODEL>
6

>  <REMARK>
 VINA RESULT:      -9.5      2.159      2.946
  Name = 
  1 active torsions:
  status: ('A' for Active; 'I' for Inactive)
    1  A    between atoms: C_11  and  C_28
                            x       y       z     vdW  Elec       q    Type
                         _______ _______ _______ _____ _____    ______ ____

>  <TORSDO>
F 1

$$$$
=
 OpenBabel11122410303D

 30 35  0  0  1  0  0  0  0  0999 V2000
  187.4200  178.0210  143.2040 C   0  0  0  0  0  0  0  0  0  0  0  0
  185.9350  178.2010  145.2870 C   0  0  0  0  0  0  0  0  0  0  0  0
  184.1900  179.0060  140.7090 N   0  0  0  0  0  2  0  0  0  0  0  0
  187.5670  178.1150  141.7950 C   0  0  0  0  0  0  0  0  0  0  0  0
  188.6500  177.7840  144.0320 C   0  0  0  0  0  2  0  0  0  0  0  0
  190.9330  176.7530  141.4210 O   0  0  0  0  0  0  0  0  0  0  0  0
  188.2120  177.0770  138.8750 C   0  0  1  0  0  3  0  0  0  0  0  0
  189.8480  177.1090  141.9600 C   0  0  0  0  0  0  0  0  0  0  0  0
  186.7290  177.4430  138.7780 C   0  0  2  0  0  3  0  0  0  0  0  0
  184.8640  179.0080  139.4560 C   0  0  0  0  0  0  0  0  0  0  0  0
  189.5680  176.7490  143.3950 C   0  0  1  0  0  3  0  0  0  0  0  0
  188.8360  177.7730  141.1780 N   0  0  0  0  0  0  0  0  0  0  0  0
  184.6940  178.6550  145.8330 N   0  0  0  0  0  0  0  0  0  0  0  0
  186.4850  177.6190  137.2900 C   0  0  0  0  0  2  0  0  0  0  0  0
  188.7190  177.0510  137.4490 C   0  0  0  0  0  2  0  0  0  0  0  0
  186.8260  177.7830  146.0710 O   0  0  0  0  0  0  0  0  0  0  0  0
  185.2130  178.6870  141.6370 C   0  0  0  0  0  0  0  0  0  0  0  0
  183.6670  178.9450  145.0930 C   0  0  0  0  0  3  0  0  0  0  0  0
  186.1540  178.2530  143.8170 C   0  0  0  0  0  0  0  0  0  0  0  0
  186.4390  178.4780  141.0370 C   0  0  0  0  0  0  0  0  0  0  0  0
  184.2780  179.3010  138.3810 O   0  0  0  0  0  0  0  0  0  0  0  0
  186.3310  178.7020  139.5590 C   0  0  1  0  0  3  0  0  0  0  0  0
  187.5620  176.9500  136.5780 N   0  0  0  0  0  2  0  0  0  0  0  0
  189.0550  179.3160  139.4020 O   0  0  0  0  0  1  0  0  0  0  0  0
  183.6640  178.7530  143.6030 C   0  0  0  0  0  2  0  0  0  0  0  0
  185.0400  178.5840  143.0150 C   0  0  0  0  0  0  0  0  0  0  0  0
  189.1070  177.9640  139.7520 C   0  0  2  0  0  3  0  0  0  0  0  0
  190.8140  176.5740  144.2140 C   0  0  0  0  0  3  0  0  0  0  0  0
  192.0550  176.7530  146.2060 O   0  0  0  0  0  1  0  0  0  0  0  0
  190.8790  176.9360  145.4920 C   0  0  0  0  0  3  0  0  0  0  0  0
  1 19  1  0  0  0  0
  1  5  1  0  0  0  0
  2 13  1  0  0  0  0
  2 16  2  0  0  0  0
  3 17  1  0  0  0  0
  4  1  2  0  0  0  0
  6  8  2  0  0  0  0
  7 15  1  6  0  0  0
  7 27  1  0  0  0  0
  8 11  1  0  0  0  0
  9 14  1  6  0  0  0
  9  7  1  0  0  0  0
  9 22  1  0  0  0  0
 10  3  1  0  0  0  0
 11  5  1  0  0  0  0
 11 28  1  1  0  0  0
 12  4  1  0  0  0  0
 12  8  1  0  0  0  0
 17 26  1  0  0  0  0
 18 13  2  0  0  0  0
 19  2  1  0  0  0  0
 20 17  2  0  0  0  0
 20  4  1  0  0  0  0
 21 10  2  0  0  0  0
 22 10  1  1  0  0  0
 22 20  1  0  0  0  0
 23 14  1  0  0  0  0
 23 15  1  0  0  0  0
 25 18  1  0  0  0  0
 26 25  1  0  0  0  0
 26 19  2  0  0  0  0
 27 24  1  6  0  0  0
 27 12  1  0  0  0  0
 28 30  2  0  0  0  0
 30 29  1  0  0  0  0
M  END
>  <MODEL>
7

>  <REMARK>
 VINA RESULT:      -9.4      2.129      5.558
  Name = 
  1 active torsions:
  status: ('A' for Active; 'I' for Inactive)
    1  A    between atoms: C_11  and  C_28
                            x       y       z     vdW  Elec       q    Type
                         _______ _______ _______ _____ _____    ______ ____

>  <TORSDO>
F 1

$$$$
=
 OpenBabel11122410303D

 30 35  0  0  1  0  0  0  0  0999 V2000
  189.6990  177.3380  143.4390 C   0  0  0  0  0  0  0  0  0  0  0  0
  191.3400  177.4600  141.4730 C   0  0  0  0  0  0  0  0  0  0  0  0
  186.4780  178.3050  140.9260 N   0  0  0  0  0  2  0  0  0  0  0  0
  188.3710  177.4370  143.9330 C   0  0  0  0  0  0  0  0  0  0  0  0
  190.7720  176.8690  144.3790 C   0  0  0  0  0  2  0  0  0  0  0  0
  189.0150  177.2440  147.5210 O   0  0  0  0  0  0  0  0  0  0  0  0
  186.0230  178.5830  145.7190 C   0  0  1  0  0  3  0  0  0  0  0  0
  189.2250  177.3060  146.2770 C   0  0  0  0  0  0  0  0  0  0  0  0
  185.5580  178.9210  144.3010 C   0  0  2  0  0  3  0  0  0  0  0  0
  185.4200  178.2290  141.8730 C   0  0  0  0  0  0  0  0  0  0  0  0
  190.6260  177.4950  145.7600 C   0  0  1  0  0  3  0  0  0  0  0  0
  188.1180  177.2950  145.3550 N   0  0  0  0  0  0  0  0  0  0  0  0
  191.5000  177.5030  140.0530 N   0  0  0  0  0  0  0  0  0  0  0  0
  184.0600  179.1300  144.4400 C   0  0  0  0  0  2  0  0  0  0  0  0
  184.7790  178.6340  146.5800 C   0  0  0  0  0  2  0  0  0  0  0  0
  192.3590  177.3060  142.1950 O   0  0  0  0  0  0  0  0  0  0  0  0
  187.6300  177.9810  141.6860 C   0  0  0  0  0  0  0  0  0  0  0  0
  190.5340  177.8210  139.2470 C   0  0  0  0  0  3  0  0  0  0  0  0
  189.9800  177.5760  142.0620 C   0  0  0  0  0  0  0  0  0  0  0  0
  187.3480  177.7380  143.0150 C   0  0  0  0  0  0  0  0  0  0  0  0
  184.2170  178.4120  141.5510 O   0  0  0  0  0  0  0  0  0  0  0  0
  185.8720  177.8440  143.2540 C   0  0  1  0  0  3  0  0  0  0  0  0
  183.7710  179.3780  145.8440 N   0  0  0  0  0  2  0  0  0  0  0  0
  186.0560  176.1460  145.4690 O   0  0  0  0  0  1  0  0  0  0  0  0
  189.1800  178.2520  139.7390 C   0  0  0  0  0  2  0  0  0  0  0  0
  188.9260  177.9070  141.1820 C   0  0  0  0  0  0  0  0  0  0  0  0
  186.7700  177.2570  145.9260 C   0  0  2  0  0  3  0  0  0  0  0  0
  191.6770  176.9660  146.6920 C   0  0  0  0  0  3  0  0  0  0  0  0
  193.0320  175.2530  147.5680 O   0  0  0  0  0  1  0  0  0  0  0  0
  192.0560  175.6920  146.6850 C   0  0  0  0  0  3  0  0  0  0  0  0
  1  4  1  0  0  0  0
  1  5  1  0  0  0  0
  2 19  1  0  0  0  0
  2 16  2  0  0  0  0
  3 17  1  0  0  0  0
  3 10  1  0  0  0  0
  4 12  1  0  0  0  0
  5 11  1  0  0  0  0
  7 27  1  0  0  0  0
  7 15  1  1  0  0  0
  8  6  2  0  0  0  0
  9 14  1  1  0  0  0
  9  7  1  0  0  0  0
 11  8  1  0  0  0  0
 11 28  1  1  0  0  0
 12 27  1  0  0  0  0
 12  8  1  0  0  0  0
 13  2  1  0  0  0  0
 14 23  1  0  0  0  0
 17 20  1  0  0  0  0
 18 25  1  0  0  0  0
 18 13  2  0  0  0  0
 19  1  2  0  0  0  0
 20 22  1  0  0  0  0
 20  4  2  0  0  0  0
 21 10  2  0  0  0  0
 22 10  1  6  0  0  0
 22  9  1  0  0  0  0
 23 15  1  0  0  0  0
 25 26  1  0  0  0  0
 26 17  2  0  0  0  0
 26 19  1  0  0  0  0
 27 24  1  6  0  0  0
 30 28  2  0  0  0  0
 30 29  1  0  0  0  0
M  END
>  <MODEL>
8

>  <REMARK>
 VINA RESULT:      -9.2      2.018      4.972
  Name = 
  1 active torsions:
  status: ('A' for Active; 'I' for Inactive)
    1  A    between atoms: C_11  and  C_28
                            x       y       z     vdW  Elec       q    Type
                         _______ _______ _______ _____ _____    ______ ____

>  <TORSDO>
F 1

$$$$
=
 OpenBabel11122410303D

 30 35  0  0  1  0  0  0  0  0999 V2000
  186.1410  178.1350  143.1790 C   0  0  0  0  0  0  0  0  0  0  0  0
  184.4830  178.7120  145.0480 C   0  0  0  0  0  0  0  0  0  0  0  0
  189.1220  177.2110  145.9880 N   0  0  0  0  0  2  0  0  0  0  0  0
  187.4320  177.6950  142.7800 C   0  0  0  0  0  0  0  0  0  0  0  0
  185.0970  178.3280  142.1160 C   0  0  0  0  0  2  0  0  0  0  0  0
  187.2210  178.2980  139.1860 O   0  0  0  0  0  0  0  0  0  0  0  0
  190.2470  177.9000  141.3490 C   0  0  1  0  0  3  0  0  0  0  0  0
  186.9050  178.2780  140.4080 C   0  0  0  0  0  0  0  0  0  0  0  0
  190.6310  177.7990  142.8260 C   0  0  2  0  0  3  0  0  0  0  0  0
  190.1520  176.7980  145.0970 C   0  0  0  0  0  0  0  0  0  0  0  0
  185.6710  179.0030  140.8770 C   0  0  1  0  0  3  0  0  0  0  0  0
  187.7740  177.6490  141.3700 N   0  0  0  0  0  0  0  0  0  0  0  0
  184.1810  178.6290  146.4430 N   0  0  0  0  0  0  0  0  0  0  0  0
  192.0770  177.3340  142.8040 C   0  0  0  0  0  2  0  0  0  0  0  0
  191.4870  177.5060  140.5760 C   0  0  0  0  0  2  0  0  0  0  0  0
  183.5970  179.1290  144.2580 O   0  0  0  0  0  0  0  0  0  0  0  0
  188.0480  177.5420  145.1230 C   0  0  0  0  0  0  0  0  0  0  0  0
  185.0810  178.3700  147.3420 C   0  0  0  0  0  3  0  0  0  0  0  0
  185.8210  178.2850  144.5600 C   0  0  0  0  0  0  0  0  0  0  0  0
  188.3600  177.3800  143.7880 C   0  0  0  0  0  0  0  0  0  0  0  0
  191.2650  176.3790  145.5090 O   0  0  0  0  0  0  0  0  0  0  0  0
  189.7540  176.8460  143.6490 C   0  0  1  0  0  3  0  0  0  0  0  0
  192.6170  177.6130  141.4840 N   0  0  0  0  0  2  0  0  0  0  0  0
  189.1320  175.7260  141.1630 O   0  0  0  0  0  1  0  0  0  0  0  0
  186.5380  178.2120  147.0040 C   0  0  0  0  0  2  0  0  0  0  0  0
  186.7950  177.9880  145.5380 C   0  0  0  0  0  0  0  0  0  0  0  0
  189.0320  177.0900  140.8730 C   0  0  2  0  0  3  0  0  0  0  0  0
  184.6200  179.1310  139.8130 C   0  0  0  0  0  3  0  0  0  0  0  0
  182.3920  179.1290  139.0550 O   0  0  0  0  0  1  0  0  0  0  0  0
  183.3240  179.0010  140.0760 C   0  0  0  0  0  3  0  0  0  0  0  0
  1 19  1  0  0  0  0
  2 13  1  0  0  0  0
  4  1  2  0  0  0  0
  4 20  1  0  0  0  0
  5  1  1  0  0  0  0
  6  8  2  0  0  0  0
  7 15  1  6  0  0  0
  7  9  1  0  0  0  0
  8 11  1  0  0  0  0
  8 12  1  0  0  0  0
  9 14  1  6  0  0  0
  9 22  1  0  0  0  0
 10 21  2  0  0  0  0
 10  3  1  0  0  0  0
 11 28  1  6  0  0  0
 11  5  1  0  0  0  0
 12  4  1  0  0  0  0
 13 18  2  0  0  0  0
 15 23  1  0  0  0  0
 16  2  2  0  0  0  0
 17 26  1  0  0  0  0
 17  3  1  0  0  0  0
 19  2  1  0  0  0  0
 19 26  2  0  0  0  0
 20 17  2  0  0  0  0
 22 20  1  1  0  0  0
 22 10  1  0  0  0  0
 23 14  1  0  0  0  0
 25 18  1  0  0  0  0
 26 25  1  0  0  0  0
 27 24  1  1  0  0  0
 27  7  1  0  0  0  0
 27 12  1  0  0  0  0
 28 30  2  0  0  0  0
 29 30  1  0  0  0  0
M  END
>  <MODEL>
9

>  <REMARK>
 VINA RESULT:      -9.1      1.988      5.710
  Name = 
  1 active torsions:
  status: ('A' for Active; 'I' for Inactive)
    1  A    between atoms: C_11  and  C_28
                            x       y       z     vdW  Elec       q    Type
                         _______ _______ _______ _____ _____    ______ ____

>  <TORSDO>
F 1

$$$$
