=
 OpenBabel11122411543D

 28 32  0  0  1  0  0  0  0  0999 V2000
  180.1900  178.0490  141.8800 C   0  0  0  0  0  0  0  0  0  0  0  0
  180.5160  180.7810  139.5410 O   0  0  0  0  0  0  0  0  0  0  0  0
  182.0740  174.0150  137.2810 O   0  0  0  0  0  0  0  0  0  0  0  0
  182.2800  179.0140  143.4790 C   0  0  0  0  0  3  0  0  0  0  0  0
  183.4590  175.8750  137.6590 N   0  0  0  0  0  0  0  0  0  0  0  0
  179.0720  177.4720  141.0730 C   0  0  0  0  0  2  0  0  0  0  0  0
  182.6290  181.6930  138.6700 O   0  0  0  0  0  0  0  0  0  0  0  0
  181.6950  180.5170  138.6450 S   0  0  0  0  0  0  0  0  0  0  0  0
  181.4590  179.0130  136.3710 C   0  0  0  0  0  0  0  0  0  0  0  0
  182.5670  179.0600  139.1680 C   0  0  2  0  0  3  0  0  0  0  0  0
  178.9930  174.0740  139.5560 O   0  0  0  0  0  1  0  0  0  0  0  0
  182.4220  176.6920  139.6480 C   0  0  2  0  0  3  0  0  0  0  0  0
  182.3240  178.1650  136.8430 N   0  0  0  0  0  0  0  0  0  0  0  0
  181.1580  180.2380  137.0360 N   0  0  0  0  0  2  0  0  0  0  0  0
  179.0520  175.4670  139.5650 C   0  0  2  0  0  3  0  0  0  0  0  0
  181.4530  178.3020  141.3060 C   0  0  0  0  0  0  0  0  0  0  0  0
  182.3480  175.0520  137.9440 C   0  0  0  0  0  0  0  0  0  0  0  0
  180.7170  178.6690  135.1320 C   0  0  0  0  0  1  0  0  0  0  0  0
  180.1610  175.9490  138.6280 C   0  0  0  0  0  2  0  0  0  0  0  0
  182.4950  178.7730  142.1200 C   0  0  0  0  0  3  0  0  0  0  0  0
  179.9840  178.2870  143.2440 C   0  0  0  0  0  3  0  0  0  0  0  0
  181.0240  178.7730  144.0400 C   0  0  0  0  0  3  0  0  0  0  0  0
  179.2340  175.9630  140.9940 C   0  0  0  0  0  2  0  0  0  0  0  0
  183.5380  176.9610  138.6190 C   0  0  2  0  0  3  0  0  0  0  0  0
  181.5560  175.5240  139.1020 C   0  0  2  0  0  3  0  0  0  0  0  0
  183.2200  178.3300  138.0030 C   0  0  2  0  0  3  0  0  0  0  0  0
  184.4490  175.6160  136.6270 C   0  0  0  0  0  1  0  0  0  0  0  0
  181.6920  178.0210  139.8470 C   0  0  1  0  0  3  0  0  0  0  0  0
  1 21  1  0  0  0  0
  3 17  2  0  0  0  0
  4 22  1  0  0  0  0
  5 17  1  0  0  0  0
  5 24  1  0  0  0  0
  6  1  1  0  0  0  0
  8  7  2  0  0  0  0
  8  2  2  0  0  0  0
  9 13  2  0  0  0  0
  9 14  1  0  0  0  0
 10  8  1  6  0  0  0
 10 28  1  0  0  0  0
 11 15  1  0  0  0  0
 12 28  1  0  0  0  0
 13 26  1  0  0  0  0
 14  8  1  0  0  0  0
 15 23  1  0  0  0  0
 16  1  2  0  0  0  0
 16 20  1  0  0  0  0
 17 25  1  0  0  0  0
 18  9  1  0  0  0  0
 19 25  1  0  0  0  0
 19 15  1  0  0  0  0
 20  4  2  0  0  0  0
 21 22  2  0  0  0  0
 23  6  1  0  0  0  0
 24 12  1  0  0  0  0
 25 12  1  0  0  0  0
 26 24  1  0  0  0  0
 26 10  1  0  0  0  0
 27  5  1  0  0  0  0
 28 16  1  0  0  0  0
M  END
>  <MODEL>
1

>  <REMARK>
 VINA RESULT:      -6.3      0.000      0.000
  Name = 
  0 active torsions:
  status: ('A' for Active; 'I' for Inactive)
                            x       y       z     vdW  Elec       q    Type
                         _______ _______ _______ _____ _____    ______ ____

>  <TORSDO>
F 0

$$$$
=
 OpenBabel11122411543D

 28 32  0  0  1  0  0  0  0  0999 V2000
  185.3610  175.8140  137.1090 C   0  0  0  0  0  0  0  0  0  0  0  0
  182.6450  175.4470  134.7570 O   0  0  0  0  0  0  0  0  0  0  0  0
  181.3470  178.7630  141.1310 O   0  0  0  0  0  0  0  0  0  0  0  0
  185.5470  173.0460  137.5070 C   0  0  0  0  0  3  0  0  0  0  0  0
  180.6380  176.6830  140.2990 N   0  0  0  0  0  0  0  0  0  0  0  0
  185.3150  177.3000  136.9530 C   0  0  0  0  0  2  0  0  0  0  0  0
  180.7130  173.9420  135.0040 O   0  0  0  0  0  0  0  0  0  0  0  0
  181.3740  175.1900  135.5180 S   0  0  0  0  0  0  0  0  0  0  0  0
  179.8410  177.2420  136.4830 C   0  0  0  0  0  0  0  0  0  0  0  0
  181.7050  175.0090  137.2530 C   0  0  2  0  0  3  0  0  0  0  0  0
  184.7430  179.7730  139.6750 O   0  0  0  0  0  1  0  0  0  0  0  0
  182.6670  176.0150  139.2340 C   0  0  2  0  0  3  0  0  0  0  0  0
  180.0100  176.7970  137.6940 N   0  0  0  0  0  0  0  0  0  0  0  0
  180.3050  176.5250  135.3410 N   0  0  0  0  0  2  0  0  0  0  0  0
  184.4390  179.0510  138.5220 C   0  0  2  0  0  3  0  0  0  0  0  0
  184.2200  175.0830  137.5010 C   0  0  0  0  0  0  0  0  0  0  0  0
  181.5750  177.7290  140.4470 C   0  0  0  0  0  0  0  0  0  0  0  0
  179.2000  178.5660  136.2870 C   0  0  0  0  0  1  0  0  0  0  0  0
  183.0130  178.5040  138.6070 C   0  0  0  0  0  2  0  0  0  0  0  0
  184.3280  173.6990  137.7090 C   0  0  0  0  0  3  0  0  0  0  0  0
  186.5790  175.1520  136.9150 C   0  0  0  0  0  3  0  0  0  0  0  0
  186.6700  173.7720  137.1080 C   0  0  0  0  0  3  0  0  0  0  0  0
  185.4770  177.9560  138.3140 C   0  0  0  0  0  2  0  0  0  0  0  0
  181.2030  175.6130  139.4970 C   0  0  2  0  0  3  0  0  0  0  0  0
  182.8470  177.4760  139.7320 C   0  0  2  0  0  3  0  0  0  0  0  0
  180.5470  175.4890  138.1160 C   0  0  2  0  0  3  0  0  0  0  0  0
  179.3380  176.6270  140.9460 C   0  0  0  0  0  1  0  0  0  0  0  0
  182.9130  175.7910  137.7410 C   0  0  1  0  0  3  0  0  0  0  0  0
  1 16  1  0  0  0  0
  2  8  2  0  0  0  0
  4 20  1  0  0  0  0
  5 17  1  0  0  0  0
  5 27  1  0  0  0  0
  6  1  1  0  0  0  0
  6 23  1  0  0  0  0
  7  8  2  0  0  0  0
  9 13  2  0  0  0  0
 10  8  1  6  0  0  0
 10 28  1  0  0  0  0
 10 26  1  0  0  0  0
 12 24  1  0  0  0  0
 12 25  1  0  0  0  0
 13 26  1  0  0  0  0
 14  8  1  0  0  0  0
 14  9  1  0  0  0  0
 15 19  1  0  0  0  0
 15 11  1  0  0  0  0
 16 20  2  0  0  0  0
 16 28  1  0  0  0  0
 17  3  2  0  0  0  0
 18  9  1  0  0  0  0
 19 25  1  0  0  0  0
 21 22  1  0  0  0  0
 21  1  2  0  0  0  0
 22  4  2  0  0  0  0
 23 15  1  0  0  0  0
 24  5  1  0  0  0  0
 25 17  1  0  0  0  0
 26 24  1  0  0  0  0
 28 12  1  0  0  0  0
M  END
>  <MODEL>
2

>  <REMARK>
 VINA RESULT:      -5.7      2.564      6.053
  Name = 
  0 active torsions:
  status: ('A' for Active; 'I' for Inactive)
                            x       y       z     vdW  Elec       q    Type
                         _______ _______ _______ _____ _____    ______ ____

>  <TORSDO>
F 0

$$$$
=
 OpenBabel11122411543D

 28 32  0  0  1  0  0  0  0  0999 V2000
  180.6710  180.2840  138.7740 C   0  0  0  0  0  0  0  0  0  0  0  0
  184.2630  180.3840  139.1300 O   0  0  0  0  0  0  0  0  0  0  0  0
  181.2670  174.9760  135.2460 O   0  0  0  0  0  0  0  0  0  0  0  0
  180.2950  179.8010  141.5090 C   0  0  0  0  0  3  0  0  0  0  0  0
  182.3550  174.9630  137.3290 N   0  0  0  0  0  0  0  0  0  0  0  0
  180.7950  180.5320  137.3050 C   0  0  0  0  0  2  0  0  0  0  0  0
  185.6260  178.8340  140.4710 O   0  0  0  0  0  0  0  0  0  0  0  0
  184.7810  178.9760  139.2370 S   0  0  0  0  0  0  0  0  0  0  0  0
  185.3600  177.4890  137.0140 C   0  0  0  0  0  0  0  0  0  0  0  0
  183.4380  177.8160  139.3060 C   0  0  2  0  0  3  0  0  0  0  0  0
  179.5230  178.3230  134.5940 O   0  0  0  0  0  1  0  0  0  0  0  0
  181.4420  176.9810  138.2190 C   0  0  2  0  0  3  0  0  0  0  0  0
  184.4740  176.6070  137.3740 N   0  0  0  0  0  0  0  0  0  0  0  0
  185.7170  178.5880  137.8480 N   0  0  0  0  0  2  0  0  0  0  0  0
  180.4860  178.9540  135.3790 C   0  0  2  0  0  3  0  0  0  0  0  0
  181.3210  179.1940  139.3890 C   0  0  0  0  0  0  0  0  0  0  0  0
  181.5240  175.5400  136.3430 C   0  0  0  0  0  0  0  0  0  0  0  0
  185.9740  177.3810  135.6660 C   0  0  0  0  0  1  0  0  0  0  0  0
  181.5480  177.9440  135.8170 C   0  0  0  0  0  2  0  0  0  0  0  0
  181.1150  178.9550  140.7570 C   0  0  0  0  0  3  0  0  0  0  0  0
  179.8460  181.1230  139.5330 C   0  0  0  0  0  3  0  0  0  0  0  0
  179.6630  180.8860  140.8960 C   0  0  0  0  0  3  0  0  0  0  0  0
  179.8130  179.6450  136.5580 C   0  0  0  0  0  2  0  0  0  0  0  0
  182.4230  175.8250  138.4950 C   0  0  2  0  0  3  0  0  0  0  0  0
  180.9810  176.8590  136.7400 C   0  0  2  0  0  3  0  0  0  0  0  0
  183.7990  176.4770  138.6790 C   0  0  2  0  0  3  0  0  0  0  0  0
  182.9640  173.6470  137.2420 C   0  0  0  0  0  1  0  0  0  0  0  0
  182.1850  178.2700  138.5750 C   0  0  1  0  0  3  0  0  0  0  0  0
  1 16  2  0  0  0  0
  1 21  1  0  0  0  0
  2  8  2  0  0  0  0
  3 17  2  0  0  0  0
  5 24  1  0  0  0  0
  6  1  1  0  0  0  0
  8  7  2  0  0  0  0
  9 13  2  0  0  0  0
  9 14  1  0  0  0  0
 10  8  1  6  0  0  0
 11 15  1  0  0  0  0
 12 24  1  0  0  0  0
 12 28  1  0  0  0  0
 13 26  1  0  0  0  0
 14  8  1  0  0  0  0
 15 19  1  0  0  0  0
 15 23  1  0  0  0  0
 16 20  1  0  0  0  0
 17 25  1  0  0  0  0
 17  5  1  0  0  0  0
 18  9  1  0  0  0  0
 19 25  1  0  0  0  0
 20  4  2  0  0  0  0
 21 22  2  0  0  0  0
 22  4  1  0  0  0  0
 23  6  1  0  0  0  0
 24 26  1  0  0  0  0
 25 12  1  0  0  0  0
 26 10  1  0  0  0  0
 27  5  1  0  0  0  0
 28 10  1  0  0  0  0
 28 16  1  0  0  0  0
M  END
>  <MODEL>
3

>  <REMARK>
 VINA RESULT:      -5.4      2.469      3.703
  Name = 
  0 active torsions:
  status: ('A' for Active; 'I' for Inactive)
                            x       y       z     vdW  Elec       q    Type
                         _______ _______ _______ _____ _____    ______ ____

>  <TORSDO>
F 0

$$$$
=
 OpenBabel11122411543D

 28 32  0  0  1  0  0  0  0  0999 V2000
  183.9760  175.9790  136.3310 C   0  0  0  0  0  0  0  0  0  0  0  0
  181.2600  178.1460  135.3480 O   0  0  0  0  0  0  0  0  0  0  0  0
  184.4690  179.2490  141.8120 O   0  0  0  0  0  0  0  0  0  0  0  0
  182.2940  173.7430  136.4830 C   0  0  0  0  0  3  0  0  0  0  0  0
  182.3250  178.4580  141.2670 N   0  0  0  0  0  0  0  0  0  0  0  0
  184.9310  177.1280  136.2780 C   0  0  0  0  0  2  0  0  0  0  0  0
  179.0010  178.1660  136.3250 O   0  0  0  0  0  0  0  0  0  0  0  0
  180.4480  178.4920  136.5660 S   0  0  0  0  0  0  0  0  0  0  0  0
  181.1190  180.5930  138.1860 C   0  0  0  0  0  0  0  0  0  0  0  0
  181.0270  177.5920  137.9830 C   0  0  2  0  0  3  0  0  0  0  0  0
  187.0220  178.3700  139.0960 O   0  0  0  0  0  1  0  0  0  0  0  0
  182.9160  177.0810  139.4090 C   0  0  2  0  0  3  0  0  0  0  0  0
  181.2600  179.7740  139.1870 N   0  0  0  0  0  0  0  0  0  0  0  0
  180.6120  180.1650  136.9240 N   0  0  0  0  0  2  0  0  0  0  0  0
  185.9990  178.4130  138.1500 C   0  0  2  0  0  3  0  0  0  0  0  0
  182.8200  176.0240  137.1380 C   0  0  0  0  0  0  0  0  0  0  0  0
  183.7140  178.5880  141.0490 C   0  0  0  0  0  0  0  0  0  0  0  0
  181.5550  182.0030  138.3440 C   0  0  0  0  0  1  0  0  0  0  0  0
  184.6950  178.8650  138.8100 C   0  0  0  0  0  2  0  0  0  0  0  0
  181.9920  174.8940  137.2160 C   0  0  0  0  0  3  0  0  0  0  0  0
  184.2740  174.8200  135.6060 C   0  0  0  0  0  3  0  0  0  0  0  0
  183.4330  173.7070  135.6770 C   0  0  0  0  0  3  0  0  0  0  0  0
  185.8730  177.0560  137.4690 C   0  0  0  0  0  2  0  0  0  0  0  0
  181.7360  177.6030  140.2520 C   0  0  2  0  0  3  0  0  0  0  0  0
  184.1860  177.8600  139.8500 C   0  0  2  0  0  3  0  0  0  0  0  0
  180.8290  178.3660  139.2780 C   0  0  2  0  0  3  0  0  0  0  0  0
  181.6020  179.0030  142.4040 C   0  0  0  0  0  1  0  0  0  0  0  0
  182.5080  177.2560  137.9450 C   0  0  1  0  0  3  0  0  0  0  0  0
  1 16  1  0  0  0  0
  2  8  2  0  0  0  0
  4 20  1  0  0  0  0
  5 27  1  0  0  0  0
  6  1  1  0  0  0  0
  6 23  1  0  0  0  0
  7  8  2  0  0  0  0
  8 14  1  0  0  0  0
  9 18  1  0  0  0  0
  9 13  2  0  0  0  0
 10  8  1  6  0  0  0
 10 26  1  0  0  0  0
 12 25  1  0  0  0  0
 12 24  1  0  0  0  0
 13 26  1  0  0  0  0
 14  9  1  0  0  0  0
 15 19  1  0  0  0  0
 15 11  1  0  0  0  0
 16 20  2  0  0  0  0
 16 28  1  0  0  0  0
 17  5  1  0  0  0  0
 17  3  2  0  0  0  0
 19 25  1  0  0  0  0
 21 22  1  0  0  0  0
 21  1  2  0  0  0  0
 22  4  2  0  0  0  0
 23 15  1  0  0  0  0
 24  5  1  0  0  0  0
 25 17  1  0  0  0  0
 26 24  1  0  0  0  0
 28 10  1  0  0  0  0
 28 12  1  0  0  0  0
M  END
>  <MODEL>
4

>  <REMARK>
 VINA RESULT:      -5.3      2.657      5.854
  Name = 
  0 active torsions:
  status: ('A' for Active; 'I' for Inactive)
                            x       y       z     vdW  Elec       q    Type
                         _______ _______ _______ _____ _____    ______ ____

>  <TORSDO>
F 0

$$$$
=
 OpenBabel11122411543D

 28 32  0  0  1  0  0  0  0  0999 V2000
  180.4590  179.6500  141.5450 C   0  0  0  0  0  0  0  0  0  0  0  0
  179.4970  177.0640  139.2140 O   0  0  0  0  0  0  0  0  0  0  0  0
  186.6000  178.4350  140.2070 O   0  0  0  0  0  0  0  0  0  0  0  0
  179.3220  181.6640  139.9620 C   0  0  0  0  0  3  0  0  0  0  0  0
  185.1950  178.8210  138.3640 N   0  0  0  0  0  0  0  0  0  0  0  0
  181.0920  178.6310  142.4370 C   0  0  0  0  0  2  0  0  0  0  0  0
  179.6890  177.1840  136.7640 O   0  0  0  0  0  0  0  0  0  0  0  0
  180.4530  177.0760  138.0530 S   0  0  0  0  0  0  0  0  0  0  0  0
  182.8140  175.6940  138.1240 C   0  0  0  0  0  0  0  0  0  0  0  0
  181.5830  178.4400  138.1830 C   0  0  2  0  0  3  0  0  0  0  0  0
  184.6570  178.5690  143.5060 O   0  0  0  0  0  1  0  0  0  0  0  0
  183.2510  179.5480  139.5450 C   0  0  2  0  0  3  0  0  0  0  0  0
  183.4690  176.8070  137.9670 N   0  0  0  0  0  0  0  0  0  0  0  0
  181.3910  175.6360  138.0500 N   0  0  0  0  0  2  0  0  0  0  0  0
  183.5200  178.1310  142.8290 C   0  0  2  0  0  3  0  0  0  0  0  0
  180.8420  179.7800  140.1940 C   0  0  0  0  0  0  0  0  0  0  0  0
  185.4660  178.7410  139.7470 C   0  0  0  0  0  0  0  0  0  0  0  0
  183.5660  174.4570  138.4500 C   0  0  0  0  0  1  0  0  0  0  0  0
  183.8650  177.8180  141.3720 C   0  0  0  0  0  2  0  0  0  0  0  0
  180.2740  180.8010  139.4140 C   0  0  0  0  0  3  0  0  0  0  0  0
  179.5090  180.5240  142.0870 C   0  0  0  0  0  3  0  0  0  0  0  0
  178.9380  181.5230  141.2970 C   0  0  0  0  0  3  0  0  0  0  0  0
  182.4140  179.1710  142.9600 C   0  0  0  0  0  2  0  0  0  0  0  0
  183.8220  179.2400  138.1460 C   0  0  2  0  0  3  0  0  0  0  0  0
  184.2940  179.0660  140.5910 C   0  0  2  0  0  3  0  0  0  0  0  0
  182.9400  178.1250  137.5690 C   0  0  2  0  0  3  0  0  0  0  0  0
  186.1720  178.6270  137.3070 C   0  0  0  0  0  1  0  0  0  0  0  0
  181.8840  178.8650  139.6110 C   0  0  1  0  0  3  0  0  0  0  0  0
  1 21  1  0  0  0  0
  1  6  1  0  0  0  0
  4 22  1  0  0  0  0
  5 17  1  0  0  0  0
  6 23  1  0  0  0  0
  7  8  2  0  0  0  0
  8  2  2  0  0  0  0
  9 18  1  0  0  0  0
 10  8  1  1  0  0  0
 10 28  1  0  0  0  0
 12 28  1  0  0  0  0
 12 25  1  0  0  0  0
 13  9  2  0  0  0  0
 14  8  1  0  0  0  0
 14  9  1  0  0  0  0
 15 23  1  0  0  0  0
 15 11  1  0  0  0  0
 16  1  2  0  0  0  0
 17  3  2  0  0  0  0
 17 25  1  0  0  0  0
 19 15  1  0  0  0  0
 20  4  2  0  0  0  0
 20 16  1  0  0  0  0
 22 21  2  0  0  0  0
 24  5  1  0  0  0  0
 24 12  1  0  0  0  0
 25 19  1  0  0  0  0
 26 13  1  0  0  0  0
 26 24  1  0  0  0  0
 26 10  1  0  0  0  0
 27  5  1  0  0  0  0
 28 16  1  0  0  0  0
M  END
>  <MODEL>
5

>  <REMARK>
 VINA RESULT:      -4.7      2.752      4.308
  Name = 
  0 active torsions:
  status: ('A' for Active; 'I' for Inactive)
                            x       y       z     vdW  Elec       q    Type
                         _______ _______ _______ _____ _____    ______ ____

>  <TORSDO>
F 0

$$$$
=
 OpenBabel11122411543D

 28 32  0  0  1  0  0  0  0  0999 V2000
  189.0770  174.0400  136.5800 C   0  0  0  0  0  0  0  0  0  0  0  0
  189.1240  177.0890  138.5150 O   0  0  0  0  0  0  0  0  0  0  0  0
  182.8290  174.9310  135.5110 O   0  0  0  0  0  0  0  0  0  0  0  0
  190.7400  175.1280  134.6050 C   0  0  0  0  0  3  0  0  0  0  0  0
  184.2340  176.7480  135.0160 N   0  0  0  0  0  0  0  0  0  0  0  0
  188.1820  173.3960  137.5900 C   0  0  0  0  0  2  0  0  0  0  0  0
  188.9130  179.3720  137.6200 O   0  0  0  0  0  0  0  0  0  0  0  0
  188.1890  178.0820  137.8810 S   0  0  0  0  0  0  0  0  0  0  0  0
  185.5180  178.1180  138.4770 C   0  0  0  0  0  0  0  0  0  0  0  0
  187.5420  177.4490  136.3530 C   0  0  2  0  0  3  0  0  0  0  0  0
  184.8050  171.9750  136.9350 O   0  0  0  0  0  1  0  0  0  0  0  0
  186.3380  175.6490  135.2690 C   0  0  2  0  0  3  0  0  0  0  0  0
  185.2370  177.8840  137.2290 N   0  0  0  0  0  0  0  0  0  0  0  0
  186.8500  178.3710  138.9190 N   0  0  0  0  0  2  0  0  0  0  0  0
  185.7310  172.8750  137.4600 C   0  0  2  0  0  3  0  0  0  0  0  0
  188.7170  175.2480  135.9480 C   0  0  0  0  0  0  0  0  0  0  0  0
  183.9880  175.4180  135.4230 C   0  0  0  0  0  0  0  0  0  0  0  0
  184.4270  178.0600  139.4820 C   0  0  0  0  0  1  0  0  0  0  0  0
  185.2660  174.3110  137.2100 C   0  0  0  0  0  2  0  0  0  0  0  0
  189.5520  175.7770  134.9520 C   0  0  0  0  0  3  0  0  0  0  0  0
  190.2660  173.3930  136.2230 C   0  0  0  0  0  3  0  0  0  0  0  0
  191.0970  173.9380  135.2420 C   0  0  0  0  0  3  0  0  0  0  0  0
  187.1090  172.5930  136.8730 C   0  0  0  0  0  2  0  0  0  0  0  0
  185.6630  177.0010  134.9670 C   0  0  2  0  0  3  0  0  0  0  0  0
  185.2260  174.6610  135.7180 C   0  0  2  0  0  3  0  0  0  0  0  0
  186.1390  177.9630  136.0640 C   0  0  2  0  0  3  0  0  0  0  0  0
  183.2160  177.6960  134.5950 C   0  0  0  0  0  1  0  0  0  0  0  0
  187.4260  175.9340  136.3060 C   0  0  1  0  0  3  0  0  0  0  0  0
  1  6  1  0  0  0  0
  4 20  2  0  0  0  0
  4 22  1  0  0  0  0
  5 17  1  0  0  0  0
  7  8  2  0  0  0  0
  8  2  2  0  0  0  0
  8 14  1  0  0  0  0
  9 14  1  0  0  0  0
  9 18  1  0  0  0  0
 10  8  1  1  0  0  0
 11 15  1  0  0  0  0
 12 25  1  0  0  0  0
 12 28  1  0  0  0  0
 13  9  2  0  0  0  0
 16 28  1  0  0  0  0
 16  1  2  0  0  0  0
 17  3  2  0  0  0  0
 17 25  1  0  0  0  0
 19 15  1  0  0  0  0
 20 16  1  0  0  0  0
 21  1  1  0  0  0  0
 22 21  2  0  0  0  0
 23 15  1  0  0  0  0
 23  6  1  0  0  0  0
 24  5  1  0  0  0  0
 24 12  1  0  0  0  0
 24 26  1  0  0  0  0
 25 19  1  0  0  0  0
 26 10  1  0  0  0  0
 26 13  1  0  0  0  0
 27  5  1  0  0  0  0
 28 10  1  0  0  0  0
M  END
>  <MODEL>
6

>  <REMARK>
 VINA RESULT:      -4.7      4.434      7.791
  Name = 
  0 active torsions:
  status: ('A' for Active; 'I' for Inactive)
                            x       y       z     vdW  Elec       q    Type
                         _______ _______ _______ _____ _____    ______ ____

>  <TORSDO>
F 0

$$$$
=
 OpenBabel11122411543D

 28 32  0  0  1  0  0  0  0  0999 V2000
  180.0340  175.0420  138.7350 C   0  0  0  0  0  0  0  0  0  0  0  0
  183.5520  175.3350  137.9750 O   0  0  0  0  0  0  0  0  0  0  0  0
  180.0680  181.1110  140.7690 O   0  0  0  0  0  0  0  0  0  0  0  0
  179.3530  174.7470  136.0320 C   0  0  0  0  0  3  0  0  0  0  0  0
  180.9580  180.7310  138.6280 N   0  0  0  0  0  0  0  0  0  0  0  0
  180.3210  175.2000  140.1940 C   0  0  0  0  0  2  0  0  0  0  0  0
  184.5290  176.6540  136.1410 O   0  0  0  0  0  0  0  0  0  0  0  0
  183.8260  176.7240  137.4670 S   0  0  0  0  0  0  0  0  0  0  0  0
  184.3450  178.7990  139.1750 C   0  0  0  0  0  0  0  0  0  0  0  0
  182.3120  177.6360  137.2840 C   0  0  2  0  0  3  0  0  0  0  0  0
  178.9450  177.8440  142.4230 O   0  0  0  0  0  1  0  0  0  0  0  0
  180.3080  178.4480  138.3730 C   0  0  2  0  0  3  0  0  0  0  0  0
  183.3020  179.4310  138.7230 N   0  0  0  0  0  0  0  0  0  0  0  0
  184.8020  177.5790  138.5940 N   0  0  0  0  0  2  0  0  0  0  0  0
  179.9270  177.1660  141.7020 C   0  0  2  0  0  3  0  0  0  0  0  0
  180.4450  176.0130  137.7980 C   0  0  0  0  0  0  0  0  0  0  0  0
  180.3180  180.3220  139.8180 C   0  0  0  0  0  0  0  0  0  0  0  0
  185.0460  179.3320  140.3690 C   0  0  0  0  0  1  0  0  0  0  0  0
  180.7720  178.1620  140.9050 C   0  0  0  0  0  2  0  0  0  0  0  0
  180.0880  175.8600  136.4490 C   0  0  0  0  0  3  0  0  0  0  0  0
  179.2930  173.9330  138.3090 C   0  0  0  0  0  3  0  0  0  0  0  0
  178.9590  173.7830  136.9620 C   0  0  0  0  0  3  0  0  0  0  0  0
  179.2760  176.1100  140.8170 C   0  0  0  0  0  2  0  0  0  0  0  0
  181.0640  179.6140  137.7060 C   0  0  2  0  0  3  0  0  0  0  0  0
  179.9610  178.8850  139.8230 C   0  0  2  0  0  3  0  0  0  0  0  0
  182.5060  179.1280  137.5180 C   0  0  2  0  0  3  0  0  0  0  0  0
  181.3530  182.0940  138.3170 C   0  0  0  0  0  1  0  0  0  0  0  0
  181.2160  177.2230  138.2520 C   0  0  1  0  0  3  0  0  0  0  0  0
  1  6  1  0  0  0  0
  4 20  2  0  0  0  0
  4 22  1  0  0  0  0
  5 17  1  0  0  0  0
  6 23  1  0  0  0  0
  7  8  2  0  0  0  0
  8  2  2  0  0  0  0
  8 14  1  0  0  0  0
  9 18  1  0  0  0  0
 10  8  1  1  0  0  0
 10 26  1  0  0  0  0
 10 28  1  0  0  0  0
 12 25  1  0  0  0  0
 13  9  2  0  0  0  0
 14  9  1  0  0  0  0
 15 11  1  0  0  0  0
 16 28  1  0  0  0  0
 16  1  2  0  0  0  0
 17 25  1  0  0  0  0
 17  3  2  0  0  0  0
 19 15  1  0  0  0  0
 20 16  1  0  0  0  0
 21  1  1  0  0  0  0
 22 21  2  0  0  0  0
 23 15  1  0  0  0  0
 24 12  1  0  0  0  0
 24  5  1  0  0  0  0
 25 19  1  0  0  0  0
 26 24  1  0  0  0  0
 26 13  1  0  0  0  0
 27  5  1  0  0  0  0
 28 12  1  0  0  0  0
M  END
>  <MODEL>
7

>  <REMARK>
 VINA RESULT:      -4.6      2.329      5.216
  Name = 
  0 active torsions:
  status: ('A' for Active; 'I' for Inactive)
                            x       y       z     vdW  Elec       q    Type
                         _______ _______ _______ _____ _____    ______ ____

>  <TORSDO>
F 0

$$$$
=
 OpenBabel11122411543D

 28 32  0  0  1  0  0  0  0  0999 V2000
  181.6720  178.6620  137.1430 C   0  0  0  0  0  0  0  0  0  0  0  0
  180.8690  175.1660  136.7250 O   0  0  0  0  0  0  0  0  0  0  0  0
  187.8830  177.1170  137.2650 O   0  0  0  0  0  0  0  0  0  0  0  0
  180.7070  179.3110  134.5940 C   0  0  0  0  0  3  0  0  0  0  0  0
  186.6450  176.2900  135.4470 N   0  0  0  0  0  0  0  0  0  0  0  0
  182.2110  178.3890  138.5110 C   0  0  0  0  0  2  0  0  0  0  0  0
  181.2680  173.8240  134.7010 O   0  0  0  0  0  0  0  0  0  0  0  0
  181.9180  174.5250  135.8590 S   0  0  0  0  0  0  0  0  0  0  0  0
  184.2420  173.5390  136.9170 C   0  0  0  0  0  0  0  0  0  0  0  0
  183.0570  175.7440  135.2460 C   0  0  2  0  0  3  0  0  0  0  0  0
  185.6710  179.1000  139.6830 O   0  0  0  0  0  1  0  0  0  0  0  0
  184.6210  177.5010  135.8150 C   0  0  2  0  0  3  0  0  0  0  0  0
  184.9260  174.3680  136.1840 N   0  0  0  0  0  0  0  0  0  0  0  0
  182.8300  173.3960  136.7810 N   0  0  0  0  0  2  0  0  0  0  0  0
  184.5880  178.3060  139.3100 C   0  0  2  0  0  3  0  0  0  0  0  0
  182.1700  177.9840  136.0110 C   0  0  0  0  0  0  0  0  0  0  0  0
  186.7980  177.0510  136.6270 C   0  0  0  0  0  0  0  0  0  0  0  0
  184.9440  172.7610  137.9680 C   0  0  0  0  0  1  0  0  0  0  0  0
  185.0510  177.2070  138.3520 C   0  0  0  0  0  2  0  0  0  0  0  0
  181.6870  178.3260  134.7380 C   0  0  0  0  0  3  0  0  0  0  0  0
  180.6940  179.6510  136.9880 C   0  0  0  0  0  3  0  0  0  0  0  0
  180.2090  179.9710  135.7190 C   0  0  0  0  0  3  0  0  0  0  0  0
  183.4920  179.1810  138.7150 C   0  0  0  0  0  2  0  0  0  0  0  0
  185.3030  176.4490  134.9180 C   0  0  2  0  0  3  0  0  0  0  0  0
  185.5640  177.7680  137.0210 C   0  0  2  0  0  3  0  0  0  0  0  0
  184.4550  175.1770  135.0450 C   0  0  2  0  0  3  0  0  0  0  0  0
  187.7060  175.5450  134.7890 C   0  0  0  0  0  1  0  0  0  0  0  0
  183.2430  176.9390  136.1650 C   0  0  1  0  0  3  0  0  0  0  0  0
  1  6  1  0  0  0  0
  4 20  2  0  0  0  0
  4 22  1  0  0  0  0
  5 17  1  0  0  0  0
  6 23  1  0  0  0  0
  7  8  2  0  0  0  0
  8  2  2  0  0  0  0
  8 14  1  0  0  0  0
  9 18  1  0  0  0  0
 10  8  1  1  0  0  0
 10 28  1  0  0  0  0
 12 28  1  0  0  0  0
 12 25  1  0  0  0  0
 13  9  2  0  0  0  0
 14  9  1  0  0  0  0
 15 11  1  0  0  0  0
 16 28  1  0  0  0  0
 16  1  2  0  0  0  0
 17 25  1  0  0  0  0
 17  3  2  0  0  0  0
 19 15  1  0  0  0  0
 20 16  1  0  0  0  0
 21  1  1  0  0  0  0
 22 21  2  0  0  0  0
 23 15  1  0  0  0  0
 24 26  1  0  0  0  0
 24  5  1  0  0  0  0
 24 12  1  0  0  0  0
 25 19  1  0  0  0  0
 26 10  1  0  0  0  0
 26 13  1  0  0  0  0
 27  5  1  0  0  0  0
M  END
>  <MODEL>
8

>  <REMARK>
 VINA RESULT:      -4.5      3.783      6.113
  Name = 
  0 active torsions:
  status: ('A' for Active; 'I' for Inactive)
                            x       y       z     vdW  Elec       q    Type
                         _______ _______ _______ _____ _____    ______ ____

>  <TORSDO>
F 0

$$$$
=
 OpenBabel11122411543D

 28 32  0  0  1  0  0  0  0  0999 V2000
  189.4690  178.2410  139.7070 C   0  0  0  0  0  0  0  0  0  0  0  0
  193.0350  178.0450  139.1660 O   0  0  0  0  0  0  0  0  0  0  0  0
  188.5870  174.4930  134.5940 O   0  0  0  0  0  0  0  0  0  0  0  0
  189.6420  176.8440  142.1310 C   0  0  0  0  0  3  0  0  0  0  0  0
  190.0930  173.6990  136.2130 N   0  0  0  0  0  0  0  0  0  0  0  0
  189.3000  178.9850  138.4220 C   0  0  0  0  0  2  0  0  0  0  0  0
  194.4450  176.0630  139.5330 O   0  0  0  0  0  0  0  0  0  0  0  0
  193.3770  176.6680  138.6680 S   0  0  0  0  0  0  0  0  0  0  0  0
  193.2570  176.0340  136.0090 C   0  0  0  0  0  0  0  0  0  0  0  0
  191.9420  175.6200  138.6840 C   0  0  2  0  0  3  0  0  0  0  0  0
  187.1900  177.9310  135.5420 O   0  0  0  0  0  1  0  0  0  0  0  0
  189.6660  175.3140  137.9180 C   0  0  2  0  0  3  0  0  0  0  0  0
  192.3650  175.1230  136.2670 N   0  0  0  0  0  0  0  0  0  0  0  0
  193.9280  176.7520  137.0420 N   0  0  0  0  0  2  0  0  0  0  0  0
  188.3750  178.2010  136.2250 C   0  0  2  0  0  3  0  0  0  0  0  0
  190.0910  176.9760  139.7450 C   0  0  0  0  0  0  0  0  0  0  0  0
  189.1490  174.6230  135.7150 C   0  0  0  0  0  0  0  0  0  0  0  0
  193.5420  176.3800  134.5940 C   0  0  0  0  0  1  0  0  0  0  0  0
  189.3680  177.0540  136.0230 C   0  0  0  0  0  2  0  0  0  0  0  0
  190.1610  176.2810  140.9620 C   0  0  0  0  0  3  0  0  0  0  0  0
  188.9470  178.7960  140.8810 C   0  0  0  0  0  3  0  0  0  0  0  0
  189.0370  178.1020  142.0900 C   0  0  0  0  0  3  0  0  0  0  0  0
  188.0720  178.4630  137.6950 C   0  0  0  0  0  2  0  0  0  0  0  0
  190.5250  174.0910  137.5420 C   0  0  2  0  0  3  0  0  0  0  0  0
  188.8810  175.7410  136.6470 C   0  0  2  0  0  3  0  0  0  0  0  0
  191.9810  174.5730  137.5810 C   0  0  2  0  0  3  0  0  0  0  0  0
  190.4930  172.4710  135.5470 C   0  0  0  0  0  1  0  0  0  0  0  0
  190.6300  176.3590  138.4820 C   0  0  1  0  0  3  0  0  0  0  0  0
  1 16  2  0  0  0  0
  1 21  1  0  0  0  0
  3 17  2  0  0  0  0
  5 24  1  0  0  0  0
  6  1  1  0  0  0  0
  8  2  2  0  0  0  0
  8  7  2  0  0  0  0
  9 13  2  0  0  0  0
  9 14  1  0  0  0  0
 10  8  1  6  0  0  0
 11 15  1  0  0  0  0
 12 28  1  0  0  0  0
 13 26  1  0  0  0  0
 14  8  1  0  0  0  0
 15 23  1  0  0  0  0
 16 20  1  0  0  0  0
 17  5  1  0  0  0  0
 17 25  1  0  0  0  0
 18  9  1  0  0  0  0
 19 15  1  0  0  0  0
 19 25  1  0  0  0  0
 20  4  2  0  0  0  0
 21 22  2  0  0  0  0
 22  4  1  0  0  0  0
 23  6  1  0  0  0  0
 24 26  1  0  0  0  0
 24 12  1  0  0  0  0
 25 12  1  0  0  0  0
 26 10  1  0  0  0  0
 27  5  1  0  0  0  0
 28 10  1  0  0  0  0
 28 16  1  0  0  0  0
M  END
>  <MODEL>
9

>  <REMARK>
 VINA RESULT:      -4.5      7.974      9.818
  Name = 
  0 active torsions:
  status: ('A' for Active; 'I' for Inactive)
                            x       y       z     vdW  Elec       q    Type
                         _______ _______ _______ _____ _____    ______ ____

>  <TORSDO>
F 0

$$$$
