=
 OpenBabel11122411563D

 28 32  0  0  1  0  0  0  0  0999 V2000
  189.5160  178.1830  138.1840 C   0  0  0  0  0  0  0  0  0  0  0  0
  192.4630  175.9530  134.5940 O   0  0  0  0  0  1  0  0  0  0  0  0
  186.7360  174.6940  137.2240 O   0  0  0  0  0  0  0  0  0  0  0  0
  190.0280  176.7550  140.5360 C   0  0  0  0  0  3  0  0  0  0  0  0
  188.8920  173.8060  136.6930 C   0  0  0  0  0  0  0  0  0  0  0  0
  189.2210  178.8550  136.9970 O   0  0  0  0  0  0  0  0  0  0  0  0
  193.9520  176.8330  136.2110 C   0  0  0  0  0  1  0  0  0  0  0  0
  193.0410  175.6810  135.8400 C   0  0  1  0  0  0  0  0  0  0  0  0
  192.9940  173.2350  135.4570 C   0  0  1  0  0  3  0  0  0  0  0  0
  191.9590  175.5200  136.9460 C   0  0  2  0  0  3  0  0  0  0  0  0
  186.5610  177.5630  137.6930 F   0  0  0  0  0  0  0  0  0  0  0  0
  189.8170  175.8530  135.8980 C   0  0  1  0  0  3  0  0  0  0  0  0
  192.0850  173.0420  136.6570 C   0  0  0  0  0  2  0  0  0  0  0  0
  193.8900  174.4270  135.7230 C   0  0  0  0  0  2  0  0  0  0  0  0
  186.9670  178.0830  136.4780 C   0  0  2  0  0  3  0  0  0  0  0  0
  190.3240  177.0370  138.1350 C   0  0  0  0  0  0  0  0  0  0  0  0
  187.9120  174.8490  136.8020 C   0  0  0  0  0  0  0  0  0  0  0  0
  193.7770  172.0960  135.2800 O   0  0  0  0  0  1  0  0  0  0  0  0
  187.5620  177.0030  135.5690 C   0  0  0  0  0  2  0  0  0  0  0  0
  190.5640  176.3200  139.3220 C   0  0  0  0  0  3  0  0  0  0  0  0
  188.9760  178.6140  139.4040 C   0  0  0  0  0  3  0  0  0  0  0  0
  189.2350  177.9040  140.5780 C   0  0  0  0  0  3  0  0  0  0  0  0
  187.9020  179.2800  136.6760 C   0  0  0  0  0  2  0  0  0  0  0  0
  190.1210  174.3420  136.0460 C   0  0  1  0  0  3  0  0  0  0  0  0
  188.4200  176.0730  136.3000 N   0  0  0  0  0  0  0  0  0  0  0  0
  191.2600  174.2230  136.9510 N   0  0  2  0  0  0  0  0  0  0  0  0
  188.7230  172.6110  137.0510 O   0  0  0  0  0  0  0  0  0  0  0  0
  190.8540  176.5620  136.7940 C   0  0  1  0  0  3  0  0  0  0  0  0
  1 21  1  0  0  0  0
  2  8  1  0  0  0  0
  4 22  1  0  0  0  0
  5 17  1  0  0  0  0
  5 27  2  0  0  0  0
  6  1  1  0  0  0  0
  8  7  1  1  0  0  0
  8 10  1  0  0  0  0
  9 18  1  1  0  0  0
  9 14  1  0  0  0  0
  9 13  1  0  0  0  0
 10 26  1  0  0  0  0
 12 24  1  0  0  0  0
 12 25  1  0  0  0  0
 12 28  1  0  0  0  0
 13 26  1  0  0  0  0
 14  8  1  0  0  0  0
 15 23  1  0  0  0  0
 15 11  1  0  0  0  0
 16  1  2  0  0  0  0
 16 20  1  0  0  0  0
 17  3  2  0  0  0  0
 19 25  1  0  0  0  0
 19 15  1  0  0  0  0
 20  4  2  0  0  0  0
 21 22  2  0  0  0  0
 23  6  1  0  0  0  0
 24  5  1  0  0  0  0
 24 26  1  0  0  0  0
 25 17  1  0  0  0  0
 28 10  1  0  0  0  0
 28 16  1  0  0  0  0
M  END
>  <MODEL>
1

>  <REMARK>
 VINA RESULT:      -5.7      0.000      0.000
  Name = 
  0 active torsions:
  status: ('A' for Active; 'I' for Inactive)
                            x       y       z     vdW  Elec       q    Type
                         _______ _______ _______ _____ _____    ______ ____

>  <TORSDO>
F 0

$$$$
=
 OpenBabel11122411563D

 28 32  0  0  1  0  0  0  0  0999 V2000
  180.7740  177.8210  137.9490 C   0  0  0  0  0  0  0  0  0  0  0  0
  183.9390  173.7930  137.3930 O   0  0  0  0  0  1  0  0  0  0  0  0
  184.5990  179.8820  139.3410 O   0  0  0  0  0  0  0  0  0  0  0  0
  181.1310  179.3530  135.6330 C   0  0  0  0  0  3  0  0  0  0  0  0
  185.4240  178.1910  137.8650 C   0  0  0  0  0  0  0  0  0  0  0  0
  180.6410  177.0850  139.1260 O   0  0  0  0  0  0  0  0  0  0  0  0
  182.3730  173.6460  135.6240 C   0  0  0  0  0  1  0  0  0  0  0  0
  183.6560  174.2850  136.1130 C   0  0  1  0  0  0  0  0  0  0  0  0
  186.0540  174.5820  135.5710 C   0  0  1  0  0  3  0  0  0  0  0  0
  183.4760  175.8300  136.1230 C   0  0  2  0  0  3  0  0  0  0  0  0
  181.8000  179.7090  140.1250 F   0  0  0  0  0  0  0  0  0  0  0  0
  183.7670  176.5640  138.3970 C   0  0  1  0  0  3  0  0  0  0  0  0
  185.8510  176.0760  135.3900 C   0  0  0  0  0  2  0  0  0  0  0  0
  184.7760  173.8740  135.1720 C   0  0  0  0  0  2  0  0  0  0  0  0
  181.7540  178.4910  140.7770 C   0  0  2  0  0  3  0  0  0  0  0  0
  181.7720  177.4630  137.0290 C   0  0  0  0  0  0  0  0  0  0  0  0
  184.5130  178.7340  138.8320 C   0  0  0  0  0  0  0  0  0  0  0  0
  187.0970  174.1540  134.7530 O   0  0  0  0  0  1  0  0  0  0  0  0
  183.0430  177.6880  140.5720 C   0  0  0  0  0  2  0  0  0  0  0  0
  181.9510  178.2480  135.8750 C   0  0  0  0  0  3  0  0  0  0  0  0
  179.9560  178.9340  137.7040 C   0  0  0  0  0  3  0  0  0  0  0  0
  180.1320  179.6950  136.5460 C   0  0  0  0  0  3  0  0  0  0  0  0
  180.4940  177.7080  140.3960 C   0  0  0  0  0  2  0  0  0  0  0  0
  185.0710  176.7720  137.5870 C   0  0  1  0  0  3  0  0  0  0  0  0
  183.5370  177.7750  139.1990 N   0  0  0  0  0  0  0  0  0  0  0  0
  184.7280  176.6040  136.1780 N   0  0  2  0  0  0  0  0  0  0  0  0
  186.3990  178.8080  137.3600 O   0  0  0  0  0  0  0  0  0  0  0  0
  182.6770  176.2850  137.3420 C   0  0  1  0  0  3  0  0  0  0  0  0
  1  6  1  0  0  0  0
  4 20  2  0  0  0  0
  4 22  1  0  0  0  0
  5 17  1  0  0  0  0
  6 23  1  0  0  0  0
  8  7  1  6  0  0  0
  8 10  1  0  0  0  0
  8  2  1  0  0  0  0
  9 18  1  6  0  0  0
 10 26  1  0  0  0  0
 10 28  1  0  0  0  0
 11 15  1  0  0  0  0
 12 25  1  0  0  0  0
 13  9  1  0  0  0  0
 13 26  1  0  0  0  0
 14  9  1  0  0  0  0
 14  8  1  0  0  0  0
 16 28  1  0  0  0  0
 16  1  2  0  0  0  0
 17 25  1  0  0  0  0
 17  3  2  0  0  0  0
 19 15  1  0  0  0  0
 20 16  1  0  0  0  0
 21  1  1  0  0  0  0
 22 21  2  0  0  0  0
 23 15  1  0  0  0  0
 24  5  1  0  0  0  0
 24 12  1  0  0  0  0
 25 19  1  0  0  0  0
 26 24  1  0  0  0  0
 27  5  2  0  0  0  0
 28 12  1  0  0  0  0
M  END
>  <MODEL>
2

>  <REMARK>
 VINA RESULT:      -5.1      5.147      8.044
  Name = 
  0 active torsions:
  status: ('A' for Active; 'I' for Inactive)
                            x       y       z     vdW  Elec       q    Type
                         _______ _______ _______ _____ _____    ______ ____

>  <TORSDO>
F 0

$$$$
=
 OpenBabel11122411563D

 28 32  0  0  1  0  0  0  0  0999 V2000
  179.9080  179.4000  137.1080 C   0  0  0  0  0  0  0  0  0  0  0  0
  181.1690  174.6790  138.7440 O   0  0  0  0  0  1  0  0  0  0  0  0
  183.8660  180.5030  139.0930 O   0  0  0  0  0  0  0  0  0  0  0  0
  181.3340  179.7500  134.7260 C   0  0  0  0  0  3  0  0  0  0  0  0
  184.2040  178.2140  138.4880 C   0  0  0  0  0  0  0  0  0  0  0  0
  179.2440  179.2440  138.3250 O   0  0  0  0  0  0  0  0  0  0  0  0
  180.0820  174.3840  136.6610 C   0  0  0  0  0  1  0  0  0  0  0  0
  181.3840  174.7160  137.3610 C   0  0  1  0  0  0  0  0  0  0  0  0
  183.7460  174.0100  137.5930 C   0  0  1  0  0  3  0  0  0  0  0  0
  181.8590  176.1230  136.8960 C   0  0  2  0  0  3  0  0  0  0  0  0
  181.1490  181.5360  138.9120 F   0  0  0  0  0  0  0  0  0  0  0  0
  181.9530  177.5240  138.8520 C   0  0  1  0  0  3  0  0  0  0  0  0
  184.2190  175.3070  136.9620 C   0  0  0  0  0  2  0  0  0  0  0  0
  182.4020  173.6500  136.9950 C   0  0  0  0  0  2  0  0  0  0  0  0
  180.4710  180.7350  139.8130 C   0  0  2  0  0  3  0  0  0  0  0  0
  180.8350  178.4260  136.7070 C   0  0  0  0  0  0  0  0  0  0  0  0
  183.4210  179.3390  138.9120 C   0  0  0  0  0  0  0  0  0  0  0  0
  184.6630  172.9980  137.3170 O   0  0  0  0  0  1  0  0  0  0  0  0
  181.3260  179.5490  140.2730 C   0  0  0  0  0  2  0  0  0  0  0  0
  181.5550  178.6190  135.5140 C   0  0  0  0  0  3  0  0  0  0  0  0
  179.6920  180.5370  136.3160 C   0  0  0  0  0  3  0  0  0  0  0  0
  180.4000  180.7090  135.1250 C   0  0  0  0  0  3  0  0  0  0  0  0
  179.1090  180.3100  139.2570 C   0  0  0  0  0  2  0  0  0  0  0  0
  183.3620  176.9860  138.5000 C   0  0  1  0  0  3  0  0  0  0  0  0
  182.0830  178.9520  139.1750 N   0  0  0  0  0  0  0  0  0  0  0  0
  183.2790  176.4200  137.1560 N   0  0  2  0  0  0  0  0  0  0  0  0
  185.4280  178.2510  138.1930 O   0  0  0  0  0  0  0  0  0  0  0  0
  181.0870  177.2300  137.6090 C   0  0  1  0  0  3  0  0  0  0  0  0
  1  6  1  0  0  0  0
  4 22  2  0  0  0  0
  4 20  1  0  0  0  0
  5 24  1  0  0  0  0
  5 17  1  0  0  0  0
  6 23  1  0  0  0  0
  8  7  1  6  0  0  0
  8  2  1  0  0  0  0
  9 18  1  6  0  0  0
 10 26  1  0  0  0  0
 10  8  1  0  0  0  0
 10 28  1  0  0  0  0
 11 15  1  0  0  0  0
 12 25  1  0  0  0  0
 13 26  1  0  0  0  0
 13  9  1  0  0  0  0
 14  8  1  0  0  0  0
 14  9  1  0  0  0  0
 15 19  1  0  0  0  0
 16  1  1  0  0  0  0
 16 28  1  0  0  0  0
 17  3  2  0  0  0  0
 17 25  1  0  0  0  0
 20 16  2  0  0  0  0
 21  1  2  0  0  0  0
 22 21  1  0  0  0  0
 23 15  1  0  0  0  0
 24 12  1  0  0  0  0
 25 19  1  0  0  0  0
 26 24  1  0  0  0  0
 27  5  2  0  0  0  0
 28 12  1  0  0  0  0
M  END
>  <MODEL>
3

>  <REMARK>
 VINA RESULT:      -4.9      6.617      9.418
  Name = 
  0 active torsions:
  status: ('A' for Active; 'I' for Inactive)
                            x       y       z     vdW  Elec       q    Type
                         _______ _______ _______ _____ _____    ______ ____

>  <TORSDO>
F 0

$$$$
=
 OpenBabel11122411563D

 28 32  0  0  1  0  0  0  0  0999 V2000
  181.1750  179.2650  137.5660 C   0  0  0  0  0  0  0  0  0  0  0  0
  185.5830  176.7930  138.5750 O   0  0  0  0  0  1  0  0  0  0  0  0
  180.3930  178.4490  141.9870 O   0  0  0  0  0  0  0  0  0  0  0  0
  181.6030  181.8950  138.4210 C   0  0  0  0  0  3  0  0  0  0  0  0
  182.7820  178.5210  141.8830 C   0  0  0  0  0  0  0  0  0  0  0  0
  180.9470  177.9390  137.1940 O   0  0  0  0  0  0  0  0  0  0  0  0
  186.1200  178.4770  136.9990 C   0  0  0  0  0  1  0  0  0  0  0  0
  185.8820  178.1560  138.4610 C   0  0  1  0  0  0  0  0  0  0  0  0
  186.9300  178.2330  140.7030 C   0  0  1  0  0  3  0  0  0  0  0  0
  184.7150  179.0420  138.9850 C   0  0  2  0  0  3  0  0  0  0  0  0
  178.9580  178.3340  139.4560 F   0  0  0  0  0  0  0  0  0  0  0  0
  182.9670  177.5550  139.7130 C   0  0  1  0  0  3  0  0  0  0  0  0
  185.9040  179.2490  141.1730 C   0  0  0  0  0  2  0  0  0  0  0  0
  187.1650  178.4420  139.2210 C   0  0  0  0  0  2  0  0  0  0  0  0
  179.4140  177.1460  138.9150 C   0  0  2  0  0  3  0  0  0  0  0  0
  182.3620  179.5880  138.2420 C   0  0  0  0  0  0  0  0  0  0  0  0
  181.4710  178.2420  141.3690 C   0  0  0  0  0  0  0  0  0  0  0  0
  188.1240  178.4260  141.3950 O   0  0  0  0  0  1  0  0  0  0  0  0
  180.6050  176.5860  139.6990 C   0  0  0  0  0  2  0  0  0  0  0  0
  182.5600  180.9110  138.6790 C   0  0  0  0  0  3  0  0  0  0  0  0
  180.2150  180.2550  137.3130 C   0  0  0  0  0  3  0  0  0  0  0  0
  180.4310  181.5680  137.7360 C   0  0  0  0  0  3  0  0  0  0  0  0
  179.6990  177.2950  137.4180 C   0  0  0  0  0  2  0  0  0  0  0  0
  183.8090  178.0370  140.9200 C   0  0  1  0  0  3  0  0  0  0  0  0
  181.5490  177.6300  140.0940 N   0  0  0  0  0  0  0  0  0  0  0  0
  184.6260  179.1530  140.4520 N   0  0  2  0  0  0  0  0  0  0  0  0
  183.0260  179.0550  142.9970 O   0  0  0  0  0  0  0  0  0  0  0  0
  183.3620  178.4870  138.5490 C   0  0  1  0  0  3  0  0  0  0  0  0
  1 16  1  0  0  0  0
  4 20  1  0  0  0  0
  5 27  2  0  0  0  0
  6 23  1  0  0  0  0
  6  1  1  0  0  0  0
  8  7  1  6  0  0  0
  8  2  1  0  0  0  0
  8 10  1  0  0  0  0
  8 14  1  0  0  0  0
  9 13  1  0  0  0  0
  9 18  1  1  0  0  0
 10 26  1  0  0  0  0
 12 25  1  0  0  0  0
 12 24  1  0  0  0  0
 14  9  1  0  0  0  0
 15 11  1  0  0  0  0
 15 19  1  0  0  0  0
 16 28  1  0  0  0  0
 16 20  2  0  0  0  0
 17  5  1  0  0  0  0
 17  3  2  0  0  0  0
 19 25  1  0  0  0  0
 21  1  2  0  0  0  0
 21 22  1  0  0  0  0
 22  4  2  0  0  0  0
 23 15  1  0  0  0  0
 24  5  1  0  0  0  0
 25 17  1  0  0  0  0
 26 24  1  0  0  0  0
 26 13  1  0  0  0  0
 28 10  1  0  0  0  0
 28 12  1  0  0  0  0
M  END
>  <MODEL>
4

>  <REMARK>
 VINA RESULT:      -4.8      6.020      8.804
  Name = 
  0 active torsions:
  status: ('A' for Active; 'I' for Inactive)
                            x       y       z     vdW  Elec       q    Type
                         _______ _______ _______ _____ _____    ______ ____

>  <TORSDO>
F 0

$$$$
=
 OpenBabel11122411563D

 28 32  0  0  1  0  0  0  0  0999 V2000
  182.4170  179.1360  138.6190 C   0  0  0  0  0  0  0  0  0  0  0  0
  179.7880  175.6920  135.8290 O   0  0  0  0  0  1  0  0  0  0  0  0
  179.1140  178.3140  141.6580 O   0  0  0  0  0  0  0  0  0  0  0  0
  183.9990  177.6120  140.3540 C   0  0  0  0  0  3  0  0  0  0  0  0
  179.2090  176.2680  140.4230 C   0  0  0  0  0  0  0  0  0  0  0  0
  181.5850  179.8910  137.7920 O   0  0  0  0  0  0  0  0  0  0  0  0
  182.0760  175.3300  135.3340 C   0  0  0  0  0  1  0  0  0  0  0  0
  180.9420  175.0560  136.3020 C   0  0  1  0  0  0  0  0  0  0  0  0
  179.6440  173.2390  137.3700 C   0  0  1  0  0  3  0  0  0  0  0  0
  181.3470  175.5830  137.7090 C   0  0  2  0  0  3  0  0  0  0  0  0
  180.5610  180.5930  140.5650 F   0  0  0  0  0  0  0  0  0  0  0  0
  179.7410  177.2670  138.3260 C   0  0  1  0  0  3  0  0  0  0  0  0
  180.1830  173.6250  138.7360 C   0  0  0  0  0  2  0  0  0  0  0  0
  180.6990  173.5580  136.3310 C   0  0  0  0  0  2  0  0  0  0  0  0
  179.9330  180.7810  139.3470 C   0  0  2  0  0  3  0  0  0  0  0  0
  182.2560  177.7420  138.6580 C   0  0  0  0  0  0  0  0  0  0  0  0
  179.3090  177.6910  140.5810 C   0  0  0  0  0  0  0  0  0  0  0  0
  179.3690  171.8730  137.3500 O   0  0  0  0  0  1  0  0  0  0  0  0
  179.0010  179.6140  139.0030 C   0  0  0  0  0  2  0  0  0  0  0  0
  183.0470  176.9880  139.5440 C   0  0  0  0  0  3  0  0  0  0  0  0
  183.3710  179.7590  139.4370 C   0  0  0  0  0  3  0  0  0  0  0  0
  184.1630  178.9970  140.2990 C   0  0  0  0  0  3  0  0  0  0  0  0
  180.9490  181.0810  138.2430 C   0  0  0  0  0  2  0  0  0  0  0  0
  179.3900  175.9110  138.9880 C   0  0  1  0  0  3  0  0  0  0  0  0
  179.5870  178.3180  139.3410 N   0  0  0  0  0  0  0  0  0  0  0  0
  180.5540  175.0450  138.8280 N   0  0  2  0  0  0  0  0  0  0  0  0
  178.9620  175.4500  141.3480 O   0  0  0  0  0  0  0  0  0  0  0  0
  181.1820  177.0980  137.8000 C   0  0  1  0  0  3  0  0  0  0  0  0
  1 16  2  0  0  0  0
  1 21  1  0  0  0  0
  2  8  1  0  0  0  0
  5 17  1  0  0  0  0
  5 27  2  0  0  0  0
  6 23  1  0  0  0  0
  6  1  1  0  0  0  0
  8  7  1  6  0  0  0
  8 14  1  0  0  0  0
  8 10  1  0  0  0  0
  9 18  1  1  0  0  0
  9 13  1  0  0  0  0
 10 28  1  0  0  0  0
 10 26  1  0  0  0  0
 12 24  1  0  0  0  0
 12 25  1  0  0  0  0
 13 26  1  0  0  0  0
 14  9  1  0  0  0  0
 15 11  1  0  0  0  0
 16 20  1  0  0  0  0
 17  3  2  0  0  0  0
 19 25  1  0  0  0  0
 19 15  1  0  0  0  0
 20  4  2  0  0  0  0
 21 22  2  0  0  0  0
 22  4  1  0  0  0  0
 23 15  1  0  0  0  0
 24  5  1  0  0  0  0
 25 17  1  0  0  0  0
 26 24  1  0  0  0  0
 28 12  1  0  0  0  0
 28 16  1  0  0  0  0
M  END
>  <MODEL>
5

>  <REMARK>
 VINA RESULT:      -4.7      8.484     10.074
  Name = 
  0 active torsions:
  status: ('A' for Active; 'I' for Inactive)
                            x       y       z     vdW  Elec       q    Type
                         _______ _______ _______ _____ _____    ______ ____

>  <TORSDO>
F 0

$$$$
=
 OpenBabel11122411563D

 28 32  0  0  1  0  0  0  0  0999 V2000
  180.4600  176.8620  136.5300 C   0  0  0  0  0  0  0  0  0  0  0  0
  184.9630  174.5960  137.5960 O   0  0  0  0  0  1  0  0  0  0  0  0
  181.7830  179.7090  139.8420 O   0  0  0  0  0  0  0  0  0  0  0  0
  181.1010  178.9940  134.8340 C   0  0  0  0  0  3  0  0  0  0  0  0
  183.8650  178.9170  138.9710 C   0  0  0  0  0  0  0  0  0  0  0  0
  180.1520  175.8340  137.4210 O   0  0  0  0  0  0  0  0  0  0  0  0
  184.6570  174.3810  135.2570 C   0  0  0  0  0  1  0  0  0  0  0  0
  185.1150  175.2830  136.3850 C   0  0  1  0  0  0  0  0  0  0  0  0
  187.0520  176.5740  137.2270 C   0  0  1  0  0  3  0  0  0  0  0  0
  184.2670  176.5870  136.3600 C   0  0  2  0  0  3  0  0  0  0  0  0
  179.3720  178.3130  138.9930 F   0  0  0  0  0  0  0  0  0  0  0  0
  183.1030  176.7170  138.4640 C   0  0  1  0  0  3  0  0  0  0  0  0
  186.2990  177.8780  137.0270 C   0  0  0  0  0  2  0  0  0  0  0  0
  186.5880  175.5880  136.1760 C   0  0  0  0  0  2  0  0  0  0  0  0
  179.5920  177.0330  139.4680 C   0  0  2  0  0  3  0  0  0  0  0  0
  181.8070  177.1630  136.2760 C   0  0  0  0  0  0  0  0  0  0  0  0
  182.4770  178.7980  139.3200 C   0  0  0  0  0  0  0  0  0  0  0  0
  188.4190  176.8020  137.0800 O   0  0  0  0  0  1  0  0  0  0  0  0
  181.0340  176.8490  139.9540 C   0  0  0  0  0  2  0  0  0  0  0  0
  182.1170  178.2450  135.4320 C   0  0  0  0  0  3  0  0  0  0  0  0
  179.4430  177.6190  135.9310 C   0  0  0  0  0  3  0  0  0  0  0  0
  179.7630  178.6800  135.0810 C   0  0  0  0  0  3  0  0  0  0  0  0
  179.1690  175.9830  138.4380 C   0  0  0  0  0  2  0  0  0  0  0  0
  184.3730  177.6030  138.4890 C   0  0  1  0  0  3  0  0  0  0  0  0
  182.0040  177.4860  139.0660 N   0  0  0  0  0  0  0  0  0  0  0  0
  184.8390  177.7180  137.1100 N   0  0  2  0  0  0  0  0  0  0  0  0
  184.5570  179.9610  139.0940 O   0  0  0  0  0  0  0  0  0  0  0  0
  182.8890  176.3610  136.9780 C   0  0  1  0  0  3  0  0  0  0  0  0
  1  6  1  0  0  0  0
  4 22  2  0  0  0  0
  4 20  1  0  0  0  0
  5 27  2  0  0  0  0
  5 17  1  0  0  0  0
  6 23  1  0  0  0  0
  8  7  1  6  0  0  0
  8  2  1  0  0  0  0
  9 18  1  6  0  0  0
 10  8  1  0  0  0  0
 10 28  1  0  0  0  0
 10 26  1  0  0  0  0
 11 15  1  0  0  0  0
 12 24  1  0  0  0  0
 12 25  1  0  0  0  0
 13 26  1  0  0  0  0
 13  9  1  0  0  0  0
 14  8  1  0  0  0  0
 14  9  1  0  0  0  0
 15 19  1  0  0  0  0
 16  1  1  0  0  0  0
 16 28  1  0  0  0  0
 17  3  2  0  0  0  0
 20 16  2  0  0  0  0
 21  1  2  0  0  0  0
 22 21  1  0  0  0  0
 23 15  1  0  0  0  0
 24  5  1  0  0  0  0
 25 17  1  0  0  0  0
 25 19  1  0  0  0  0
 26 24  1  0  0  0  0
 28 12  1  0  0  0  0
M  END
>  <MODEL>
6

>  <REMARK>
 VINA RESULT:      -4.6      5.410      8.380
  Name = 
  0 active torsions:
  status: ('A' for Active; 'I' for Inactive)
                            x       y       z     vdW  Elec       q    Type
                         _______ _______ _______ _____ _____    ______ ____

>  <TORSDO>
F 0

$$$$
=
 OpenBabel11122411563D

 28 32  0  0  1  0  0  0  0  0999 V2000
  180.2970  179.3760  138.9170 C   0  0  0  0  0  0  0  0  0  0  0  0
  183.7990  175.8940  137.4460 O   0  0  0  0  0  1  0  0  0  0  0  0
  182.7750  179.3780  142.7490 O   0  0  0  0  0  0  0  0  0  0  0  0
  181.5080  181.8590  138.4720 C   0  0  0  0  0  3  0  0  0  0  0  0
  184.3800  178.7510  141.0890 C   0  0  0  0  0  0  0  0  0  0  0  0
  179.7200  178.1360  139.1910 O   0  0  0  0  0  0  0  0  0  0  0  0
  183.2600  177.1420  135.5070 C   0  0  0  0  0  1  0  0  0  0  0  0
  184.0870  177.0890  136.7760 C   0  0  1  0  0  0  0  0  0  0  0  0
  186.4110  177.1430  137.6290 C   0  0  1  0  0  3  0  0  0  0  0  0
  183.7460  178.3290  137.6500 C   0  0  2  0  0  3  0  0  0  0  0  0
  179.9730  179.3620  141.9580 F   0  0  0  0  0  0  0  0  0  0  0  0
  182.8640  177.5080  139.7340 C   0  0  1  0  0  3  0  0  0  0  0  0
  186.1450  178.4600  138.3360 C   0  0  0  0  0  2  0  0  0  0  0  0
  185.5540  177.0880  136.3810 C   0  0  0  0  0  2  0  0  0  0  0  0
  179.7700  178.0360  141.6260 C   0  0  2  0  0  3  0  0  0  0  0  0
  181.6420  179.4280  138.5170 C   0  0  0  0  0  0  0  0  0  0  0  0
  183.0680  178.7960  141.6710 C   0  0  0  0  0  0  0  0  0  0  0  0
  187.7560  177.0720  137.2730 O   0  0  0  0  0  1  0  0  0  0  0  0
  181.0900  177.2610  141.5530 C   0  0  0  0  0  2  0  0  0  0  0  0
  182.2430  180.6830  138.3090 C   0  0  0  0  0  3  0  0  0  0  0  0
  179.5640  180.5590  139.0840 C   0  0  0  0  0  3  0  0  0  0  0  0
  180.1680  181.7980  138.8570 C   0  0  0  0  0  3  0  0  0  0  0  0
  178.9310  177.9080  140.3520 C   0  0  0  0  0  2  0  0  0  0  0  0
  184.3610  177.8760  139.8840 C   0  0  1  0  0  3  0  0  0  0  0  0
  182.1510  178.0320  140.9080 N   0  0  0  0  0  0  0  0  0  0  0  0
  184.7320  178.6440  138.6990 N   0  0  2  0  0  0  0  0  0  0  0  0
  185.3990  179.3280  141.5510 O   0  0  0  0  0  0  0  0  0  0  0  0
  182.4270  178.1350  138.3940 C   0  0  1  0  0  3  0  0  0  0  0  0
  1 21  1  0  0  0  0
  1  6  1  0  0  0  0
  4 22  1  0  0  0  0
  5 27  2  0  0  0  0
  5 17  1  0  0  0  0
  6 23  1  0  0  0  0
  8  7  1  6  0  0  0
  8  2  1  0  0  0  0
  8 10  1  0  0  0  0
  9 18  1  6  0  0  0
  9 13  1  0  0  0  0
 10 28  1  0  0  0  0
 10 26  1  0  0  0  0
 12 24  1  0  0  0  0
 12 25  1  0  0  0  0
 13 26  1  0  0  0  0
 14  8  1  0  0  0  0
 14  9  1  0  0  0  0
 15 11  1  0  0  0  0
 16  1  2  0  0  0  0
 17  3  2  0  0  0  0
 19 15  1  0  0  0  0
 20  4  2  0  0  0  0
 20 16  1  0  0  0  0
 22 21  2  0  0  0  0
 23 15  1  0  0  0  0
 24  5  1  0  0  0  0
 25 19  1  0  0  0  0
 25 17  1  0  0  0  0
 26 24  1  0  0  0  0
 28 16  1  0  0  0  0
 28 12  1  0  0  0  0
M  END
>  <MODEL>
7

>  <REMARK>
 VINA RESULT:      -4.5      6.093      8.861
  Name = 
  0 active torsions:
  status: ('A' for Active; 'I' for Inactive)
                            x       y       z     vdW  Elec       q    Type
                         _______ _______ _______ _____ _____    ______ ____

>  <TORSDO>
F 0

$$$$
=
 OpenBabel11122411563D

 28 32  0  0  1  0  0  0  0  0999 V2000
  183.1020  177.1690  137.6470 C   0  0  0  0  0  0  0  0  0  0  0  0
  186.2640  173.1130  137.9580 O   0  0  0  0  0  1  0  0  0  0  0  0
  186.9890  179.3820  136.7400 O   0  0  0  0  0  0  0  0  0  0  0  0
  182.6100  177.5010  134.9110 C   0  0  0  0  0  3  0  0  0  0  0  0
  187.4590  177.1640  135.9760 C   0  0  0  0  0  0  0  0  0  0  0  0
  183.3960  177.0360  139.0040 O   0  0  0  0  0  0  0  0  0  0  0  0
  184.2490  172.3040  137.0120 C   0  0  0  0  0  1  0  0  0  0  0  0
  185.5650  173.0090  136.7490 C   0  0  1  0  0  0  0  0  0  0  0  0
  187.6500  172.8820  135.4210 C   0  0  1  0  0  3  0  0  0  0  0  0
  185.2710  174.4090  136.1390 C   0  0  2  0  0  3  0  0  0  0  0  0
  184.5860  179.7510  138.3430 F   0  0  0  0  0  0  0  0  0  0  0  0
  186.1820  176.0480  137.6490 C   0  0  1  0  0  3  0  0  0  0  0  0
  187.2810  174.1540  134.6780 C   0  0  0  0  0  2  0  0  0  0  0  0
  186.3730  172.1550  135.7880 C   0  0  0  0  0  2  0  0  0  0  0  0
  184.8410  178.9500  139.4410 C   0  0  2  0  0  3  0  0  0  0  0  0
  183.7980  176.3800  136.7180 C   0  0  0  0  0  0  0  0  0  0  0  0
  186.8450  178.1340  136.8380 C   0  0  0  0  0  0  0  0  0  0  0  0
  188.4250  172.0710  134.5940 O   0  0  0  0  0  1  0  0  0  0  0  0
  186.0670  178.0570  139.2190 C   0  0  0  0  0  2  0  0  0  0  0  0
  183.5510  176.5640  135.3450 C   0  0  0  0  0  3  0  0  0  0  0  0
  182.1610  178.1120  137.2070 C   0  0  0  0  0  3  0  0  0  0  0  0
  181.9130  178.2730  135.8420 C   0  0  0  0  0  3  0  0  0  0  0  0
  183.5930  178.1620  139.8500 C   0  0  0  0  0  2  0  0  0  0  0  0
  187.1540  175.7930  136.4710 C   0  0  1  0  0  3  0  0  0  0  0  0
  186.1090  177.4990  137.8690 N   0  0  0  0  0  0  0  0  0  0  0  0
  186.4120  175.0460  135.4600 N   0  0  2  0  0  0  0  0  0  0  0  0
  188.1800  177.4320  134.9790 O   0  0  0  0  0  0  0  0  0  0  0  0
  184.8480  175.4040  137.2170 C   0  0  1  0  0  3  0  0  0  0  0  0
  1  6  1  0  0  0  0
  3 17  2  0  0  0  0
  4 20  2  0  0  0  0
  4 22  1  0  0  0  0
  5 24  1  0  0  0  0
  5 17  1  0  0  0  0
  6 23  1  0  0  0  0
  8  7  1  1  0  0  0
  8  2  1  0  0  0  0
  9 18  1  6  0  0  0
  9 14  1  0  0  0  0
 10  8  1  0  0  0  0
 10 28  1  0  0  0  0
 11 15  1  0  0  0  0
 12 25  1  0  0  0  0
 13  9  1  0  0  0  0
 13 26  1  0  0  0  0
 14  8  1  0  0  0  0
 15 23  1  0  0  0  0
 16 28  1  0  0  0  0
 16  1  2  0  0  0  0
 17 25  1  0  0  0  0
 19 15  1  0  0  0  0
 20 16  1  0  0  0  0
 21  1  1  0  0  0  0
 22 21  2  0  0  0  0
 24 12  1  0  0  0  0
 25 19  1  0  0  0  0
 26 10  1  0  0  0  0
 26 24  1  0  0  0  0
 27  5  2  0  0  0  0
 28 12  1  0  0  0  0
M  END
>  <MODEL>
8

>  <REMARK>
 VINA RESULT:      -4.5      3.850      6.230
  Name = 
  0 active torsions:
  status: ('A' for Active; 'I' for Inactive)
                            x       y       z     vdW  Elec       q    Type
                         _______ _______ _______ _____ _____    ______ ____

>  <TORSDO>
F 0

$$$$
=
 OpenBabel11122411563D

 28 32  0  0  1  0  0  0  0  0999 V2000
  180.7450  178.7800  138.1860 C   0  0  0  0  0  0  0  0  0  0  0  0
  180.8090  173.6300  138.0320 O   0  0  0  0  0  1  0  0  0  0  0  0
  185.2760  178.2500  138.1020 O   0  0  0  0  0  0  0  0  0  0  0  0
  181.0770  179.5920  135.5280 C   0  0  0  0  0  3  0  0  0  0  0  0
  184.4990  176.2850  136.9810 C   0  0  0  0  0  0  0  0  0  0  0  0
  180.6370  178.3720  139.5150 O   0  0  0  0  0  0  0  0  0  0  0  0
  178.9310  174.3010  136.7560 C   0  0  0  0  0  1  0  0  0  0  0  0
  180.4300  174.0830  136.7630 C   0  0  1  0  0  0  0  0  0  0  0  0
  182.2560  172.8400  135.6450 C   0  0  1  0  0  3  0  0  0  0  0  0
  181.1330  175.4240  136.4020 C   0  0  2  0  0  3  0  0  0  0  0  0
  183.2880  179.8530  139.5020 F   0  0  0  0  0  0  0  0  0  0  0  0
  182.5180  176.0250  138.2780 C   0  0  1  0  0  3  0  0  0  0  0  0
  182.8510  174.1370  135.1250 C   0  0  0  0  0  2  0  0  0  0  0  0
  180.7540  173.0080  135.7400 C   0  0  0  0  0  2  0  0  0  0  0  0
  182.8100  178.9650  140.4470 C   0  0  2  0  0  3  0  0  0  0  0  0
  181.0110  177.8200  137.1970 C   0  0  0  0  0  0  0  0  0  0  0  0
  184.4160  177.3440  137.9470 C   0  0  0  0  0  0  0  0  0  0  0  0
  182.5540  171.8060  134.7600 O   0  0  0  0  0  1  0  0  0  0  0  0
  183.2980  177.5370  140.1820 C   0  0  0  0  0  2  0  0  0  0  0  0
  181.1890  178.2420  135.8670 C   0  0  0  0  0  3  0  0  0  0  0  0
  180.6380  180.1350  137.8420 C   0  0  0  0  0  3  0  0  0  0  0  0
  180.7990  180.5390  136.5150 C   0  0  0  0  0  3  0  0  0  0  0  0
  181.2870  179.0630  140.5750 C   0  0  0  0  0  2  0  0  0  0  0  0
  183.3630  175.3420  137.1750 C   0  0  1  0  0  3  0  0  0  0  0  0
  183.2660  177.1940  138.7610 N   0  0  0  0  0  0  0  0  0  0  0  0
  182.5370  175.2960  135.9720 N   0  0  2  0  0  0  0  0  0  0  0  0
  185.4160  176.1510  136.1290 O   0  0  0  0  0  0  0  0  0  0  0  0
  181.1730  176.3660  137.6030 C   0  0  1  0  0  3  0  0  0  0  0  0
  1  6  1  0  0  0  0
  4 20  2  0  0  0  0
  4 22  1  0  0  0  0
  5 24  1  0  0  0  0
  5 17  1  0  0  0  0
  6 23  1  0  0  0  0
  8  7  1  6  0  0  0
  8  2  1  0  0  0  0
  9 18  1  6  0  0  0
  9 14  1  0  0  0  0
 10  8  1  0  0  0  0
 10 28  1  0  0  0  0
 11 15  1  0  0  0  0
 12 25  1  0  0  0  0
 13  9  1  0  0  0  0
 13 26  1  0  0  0  0
 14  8  1  0  0  0  0
 15 23  1  0  0  0  0
 16 28  1  0  0  0  0
 16  1  2  0  0  0  0
 17  3  2  0  0  0  0
 17 25  1  0  0  0  0
 19 15  1  0  0  0  0
 20 16  1  0  0  0  0
 21  1  1  0  0  0  0
 22 21  2  0  0  0  0
 24 12  1  0  0  0  0
 25 19  1  0  0  0  0
 26 10  1  0  0  0  0
 26 24  1  0  0  0  0
 27  5  2  0  0  0  0
 28 12  1  0  0  0  0
M  END
>  <MODEL>
9

>  <REMARK>
 VINA RESULT:      -4.4      6.440      9.166
  Name = 
  0 active torsions:
  status: ('A' for Active; 'I' for Inactive)
                            x       y       z     vdW  Elec       q    Type
                         _______ _______ _______ _____ _____    ______ ____

>  <TORSDO>
F 0

$$$$
