=
 OpenBabel11122410463D

 32 37  0  0  1  0  0  0  0  0999 V2000
  180.2220  176.4270  139.0610 C   0  0  0  0  0  2  0  0  0  0  0  0
  184.8440  179.2620  139.7510 C   0  0  1  0  0  3  0  0  0  0  0  0
  188.5900  178.3880  136.7330 C   0  0  0  0  0  3  0  0  0  0  0  0
  189.4340  178.1520  137.8200 C   0  0  0  0  0  3  0  0  0  0  0  0
  185.1590  178.7770  142.2720 C   0  0  0  0  0  0  0  0  0  0  0  0
  185.9650  178.2890  143.3000 C   0  0  0  0  0  0  0  0  0  0  0  0
  182.8180  177.8420  139.9240 N   0  0  2  0  0  0  0  0  0  0  0  0
  184.6000  177.1860  138.3430 C   0  0  0  0  0  2  0  0  0  0  0  0
  187.8440  177.3910  144.2470 N   0  0  0  0  0  0  0  0  0  0  0  0
  182.6500  175.7460  138.6210 C   0  0  0  0  0  2  0  0  0  0  0  0
  187.2170  178.5540  136.9360 C   0  0  0  0  0  3  0  0  0  0  0  0
  185.2030  178.5860  138.4180 C   0  0  2  0  0  3  0  0  0  0  0  0
  186.6850  178.4980  138.2280 C   0  0  0  0  0  0  0  0  0  0  0  0
  186.9620  178.2310  140.6990 C   0  0  0  0  0  0  0  0  0  0  0  0
  186.9530  177.6410  145.3730 C   0  0  0  0  0  3  0  0  0  0  0  0
  180.7690  176.7520  140.3070 O   0  0  0  0  0  0  0  0  0  0  0  0
  183.0950  177.2090  138.6160 C   0  0  1  0  0  3  0  0  0  0  0  0
  185.6720  178.2530  144.7640 C   0  0  0  0  0  3  0  0  0  0  0  0
  181.3760  177.9940  140.1000 C   0  0  0  0  0  2  0  0  0  0  0  0
  181.1780  175.5600  138.2390 C   0  0  1  0  0  3  0  0  0  0  0  0
  188.9070  178.0870  139.1130 C   0  0  0  0  0  3  0  0  0  0  0  0
  187.5300  178.2580  139.3290 C   0  0  0  0  0  0  0  0  0  0  0  0
  187.7470  177.7650  141.7720 C   0  0  0  0  0  3  0  0  0  0  0  0
  183.3220  179.2160  139.9090 C   0  0  0  0  0  2  0  0  0  0  0  0
  183.9260  179.3360  142.5850 O   0  0  0  0  0  1  0  0  0  0  0  0
  189.1830  176.8390  144.3580 C   0  0  0  0  0  1  0  0  0  0  0  0
  185.6370  178.7050  140.9340 C   0  0  0  0  0  0  0  0  0  0  0  0
  187.2090  177.7940  143.0540 C   0  0  0  0  0  0  0  0  0  0  0  0
  180.8060  174.1600  138.3890 N   0  0  0  0  0  2  0  0  0  0  0  0
  180.8020  173.2310  137.3020 C   0  0  0  0  0  0  0  0  0  0  0  0
  181.0930  173.6140  136.1020 N   0  0  0  0  0  2  0  0  0  0  0  0
  180.4300  171.8140  137.5510 C   0  0  0  0  0  1  0  0  0  0  0  0
  1 16  1  0  0  0  0
  2 24  1  1  0  0  0
  2 27  1  0  0  0  0
  3 11  2  0  0  0  0
  3  4  1  0  0  0  0
  4 21  2  0  0  0  0
  5 25  1  0  0  0  0
  5  6  1  0  0  0  0
  6 18  1  0  0  0  0
  7 24  1  6  0  0  0
  7 19  1  0  0  0  0
  9 26  1  0  0  0  0
  9 15  1  0  0  0  0
 11 13  1  0  0  0  0
 12  8  1  1  0  0  0
 12  2  1  0  0  0  0
 13 12  1  0  0  0  0
 13 22  2  0  0  0  0
 14 27  1  0  0  0  0
 14 23  2  0  0  0  0
 17  8  1  1  0  0  0
 17 10  1  0  0  0  0
 17  7  1  0  0  0  0
 18 15  2  0  0  0  0
 19 16  1  0  0  0  0
 20 29  1  1  0  0  0
 20 10  1  0  0  0  0
 20  1  1  0  0  0  0
 21 22  1  0  0  0  0
 22 14  1  0  0  0  0
 23 28  1  0  0  0  0
 27  5  2  0  0  0  0
 28  6  2  0  0  0  0
 28  9  1  0  0  0  0
 30 32  1  0  0  0  0
 30 29  1  0  0  0  0
 31 30  2  0  0  0  0
M  END
>  <MODEL>
1

>  <REMARK>
 VINA RESULT:      -8.2      0.000      0.000
  Name = 
  1 active torsions:
  status: ('A' for Active; 'I' for Inactive)
    1  A    between atoms: C_20  and  N_29
                            x       y       z     vdW  Elec       q    Type
                         _______ _______ _______ _____ _____    ______ ____

>  <TORSDO>
F 1

$$$$
=
 OpenBabel11122410463D

 32 37  0  0  1  0  0  0  0  0999 V2000
  183.4060  175.4740  135.9600 C   0  0  0  0  0  2  0  0  0  0  0  0
  187.3940  178.3770  138.3140 C   0  0  1  0  0  3  0  0  0  0  0  0
  191.9710  176.6720  138.0790 C   0  0  0  0  0  3  0  0  0  0  0  0
  192.0910  176.7530  139.4680 C   0  0  0  0  0  3  0  0  0  0  0  0
  186.2960  178.6280  140.6420 C   0  0  0  0  0  0  0  0  0  0  0  0
  186.3750  178.4500  142.0220 C   0  0  0  0  0  0  0  0  0  0  0  0
  185.3760  177.0690  137.7090 N   0  0  2  0  0  0  0  0  0  0  0  0
  187.5900  175.9880  137.5370 C   0  0  0  0  0  2  0  0  0  0  0  0
  187.3390  177.8530  144.0090 N   0  0  0  0  0  0  0  0  0  0  0  0
  185.5790  174.6900  137.0640 C   0  0  0  0  0  2  0  0  0  0  0  0
  190.7330  176.8920  137.4700 C   0  0  0  0  0  3  0  0  0  0  0  0
  188.2770  177.3490  137.5860 C   0  0  2  0  0  3  0  0  0  0  0  0
  189.6130  177.2080  138.2470 C   0  0  0  0  0  0  0  0  0  0  0  0
  188.5400  177.6530  140.4610 C   0  0  0  0  0  0  0  0  0  0  0  0
  186.0480  178.4150  144.3860 C   0  0  0  0  0  3  0  0  0  0  0  0
  183.2800  176.1380  137.1850 O   0  0  0  0  0  0  0  0  0  0  0  0
  186.1830  176.0900  136.9490 C   0  0  1  0  0  3  0  0  0  0  0  0
  185.3720  178.8310  143.0600 C   0  0  0  0  0  3  0  0  0  0  0  0
  184.0900  177.2690  137.0440 C   0  0  0  0  0  2  0  0  0  0  0  0
  184.5010  174.4070  136.0120 C   0  0  1  0  0  3  0  0  0  0  0  0
  190.9740  177.0590  140.2490 C   0  0  0  0  0  3  0  0  0  0  0  0
  189.7260  177.2880  139.6480 C   0  0  0  0  0  0  0  0  0  0  0  0
  188.5830  177.5090  141.8620 C   0  0  0  0  0  3  0  0  0  0  0  0
  186.0210  178.3810  137.6390 C   0  0  0  0  0  2  0  0  0  0  0  0
  185.1790  179.2550  140.1020 O   0  0  0  0  0  1  0  0  0  0  0  0
  188.3290  177.3520  144.9470 C   0  0  0  0  0  1  0  0  0  0  0  0
  187.3730  178.1770  139.8290 C   0  0  0  0  0  0  0  0  0  0  0  0
  187.4750  177.9020  142.6070 C   0  0  0  0  0  0  0  0  0  0  0  0
  183.8950  173.1080  136.2690 N   0  0  0  0  0  2  0  0  0  0  0  0
  184.4260  171.8830  135.7580 C   0  0  0  0  0  0  0  0  0  0  0  0
  185.4660  171.8790  134.9910 N   0  0  0  0  0  2  0  0  0  0  0  0
  183.7540  170.5990  136.0900 C   0  0  0  0  0  1  0  0  0  0  0  0
  1 20  1  0  0  0  0
  1 16  1  0  0  0  0
  2 24  1  6  0  0  0
  2 27  1  0  0  0  0
  3  4  1  0  0  0  0
  4 21  2  0  0  0  0
  5  6  1  0  0  0  0
  6 28  2  0  0  0  0
  6 18  1  0  0  0  0
  7 19  1  6  0  0  0
  9 15  1  0  0  0  0
  9 26  1  0  0  0  0
 11  3  2  0  0  0  0
 11 13  1  0  0  0  0
 12  8  1  1  0  0  0
 12 13  1  0  0  0  0
 12  2  1  0  0  0  0
 13 22  2  0  0  0  0
 14 23  2  0  0  0  0
 17 10  1  1  0  0  0
 17  8  1  0  0  0  0
 17  7  1  0  0  0  0
 18 15  2  0  0  0  0
 19 16  1  0  0  0  0
 20 29  1  1  0  0  0
 20 10  1  0  0  0  0
 22 21  1  0  0  0  0
 22 14  1  0  0  0  0
 23 28  1  0  0  0  0
 24  7  1  0  0  0  0
 25  5  1  0  0  0  0
 27 14  1  0  0  0  0
 27  5  2  0  0  0  0
 28  9  1  0  0  0  0
 30 32  1  0  0  0  0
 30 29  1  0  0  0  0
 31 30  2  0  0  0  0
M  END
>  <MODEL>
2

>  <REMARK>
 VINA RESULT:      -8.0      2.423      3.166
  Name = 
  1 active torsions:
  status: ('A' for Active; 'I' for Inactive)
    1  A    between atoms: C_20  and  N_29
                            x       y       z     vdW  Elec       q    Type
                         _______ _______ _______ _____ _____    ______ ____

>  <TORSDO>
F 1

$$$$
=
 OpenBabel11122410463D

 32 37  0  0  1  0  0  0  0  0999 V2000
  185.5420  175.2820  135.2640 C   0  0  0  0  0  2  0  0  0  0  0  0
  188.0720  178.4820  138.9010 C   0  0  1  0  0  3  0  0  0  0  0  0
  192.4930  177.1460  140.5080 C   0  0  0  0  0  3  0  0  0  0  0  0
  192.0560  177.2300  141.8320 C   0  0  0  0  0  3  0  0  0  0  0  0
  186.1380  178.6350  140.6120 C   0  0  0  0  0  0  0  0  0  0  0  0
  185.6870  178.4580  141.9190 C   0  0  0  0  0  0  0  0  0  0  0  0
  186.5510  177.0200  137.5960 N   0  0  2  0  0  0  0  0  0  0  0  0
  188.7320  176.1180  138.3270 C   0  0  0  0  0  2  0  0  0  0  0  0
  185.8440  177.9320  144.1400 N   0  0  0  0  0  0  0  0  0  0  0  0
  187.1660  174.6670  137.1450 C   0  0  0  0  0  2  0  0  0  0  0  0
  191.5760  177.2700  139.4600 C   0  0  0  0  0  3  0  0  0  0  0  0
  189.2420  177.5300  138.6010 C   0  0  2  0  0  3  0  0  0  0  0  0
  190.2220  177.4920  139.7320 C   0  0  0  0  0  0  0  0  0  0  0  0
  188.3430  177.8420  141.3440 C   0  0  0  0  0  0  0  0  0  0  0  0
  184.4700  178.3880  143.9710 C   0  0  0  0  0  3  0  0  0  0  0  0
  184.9000  175.9280  136.3250 O   0  0  0  0  0  0  0  0  0  0  0  0
  187.6610  176.1120  137.2350 C   0  0  1  0  0  3  0  0  0  0  0  0
  184.3340  178.7550  142.4760 C   0  0  0  0  0  3  0  0  0  0  0  0
  185.6150  177.1200  136.4790 C   0  0  0  0  0  2  0  0  0  0  0  0
  186.6070  174.3040  135.7650 C   0  0  1  0  0  3  0  0  0  0  0  0
  190.7040  177.4440  142.1090 C   0  0  0  0  0  3  0  0  0  0  0  0
  189.7750  177.5760  141.0650 C   0  0  0  0  0  0  0  0  0  0  0  0
  187.8470  177.6960  142.6540 C   0  0  0  0  0  3  0  0  0  0  0  0
  187.0730  178.3800  137.7460 C   0  0  0  0  0  2  0  0  0  0  0  0
  185.2760  179.1740  139.6650 O   0  0  0  0  0  1  0  0  0  0  0  0
  186.4260  177.5070  145.4020 C   0  0  0  0  0  1  0  0  0  0  0  0
  187.4780  178.2750  140.2940 C   0  0  0  0  0  0  0  0  0  0  0  0
  186.5110  177.9970  142.9000 C   0  0  0  0  0  0  0  0  0  0  0  0
  186.0480  172.9610  135.8020 N   0  0  0  0  0  2  0  0  0  0  0  0
  186.7030  171.8250  135.2310 C   0  0  0  0  0  0  0  0  0  0  0  0
  187.8260  171.9520  134.6040 N   0  0  0  0  0  2  0  0  0  0  0  0
  186.0680  170.4850  135.3350 C   0  0  0  0  0  1  0  0  0  0  0  0
  1 20  1  0  0  0  0
  1 16  1  0  0  0  0
  2 24  1  6  0  0  0
  2 27  1  0  0  0  0
  3  4  1  0  0  0  0
  4 21  2  0  0  0  0
  5  6  1  0  0  0  0
  6 18  1  0  0  0  0
  6 28  2  0  0  0  0
  7 19  1  6  0  0  0
  7 24  1  0  0  0  0
  9 26  1  0  0  0  0
 11 13  1  0  0  0  0
 11  3  2  0  0  0  0
 12  8  1  1  0  0  0
 12  2  1  0  0  0  0
 12 13  1  0  0  0  0
 13 22  2  0  0  0  0
 14 23  2  0  0  0  0
 15  9  1  0  0  0  0
 16 19  1  0  0  0  0
 17 10  1  1  0  0  0
 17  7  1  0  0  0  0
 17  8  1  0  0  0  0
 18 15  2  0  0  0  0
 20 29  1  1  0  0  0
 20 10  1  0  0  0  0
 22 14  1  0  0  0  0
 22 21  1  0  0  0  0
 23 28  1  0  0  0  0
 25  5  1  0  0  0  0
 27  5  2  0  0  0  0
 27 14  1  0  0  0  0
 28  9  1  0  0  0  0
 30 32  1  0  0  0  0
 30 29  1  0  0  0  0
 31 30  2  0  0  0  0
M  END
>  <MODEL>
3

>  <REMARK>
 VINA RESULT:      -8.0      3.292      4.398
  Name = 
  1 active torsions:
  status: ('A' for Active; 'I' for Inactive)
    1  A    between atoms: C_20  and  N_29
                            x       y       z     vdW  Elec       q    Type
                         _______ _______ _______ _____ _____    ______ ____

>  <TORSDO>
F 1

$$$$
=
 OpenBabel11122410463D

 32 37  0  0  1  0  0  0  0  0999 V2000
  184.0550  174.7760  136.4590 C   0  0  0  0  0  2  0  0  0  0  0  0
  188.6310  177.6450  137.2920 C   0  0  1  0  0  3  0  0  0  0  0  0
  192.8620  175.8140  135.6630 C   0  0  0  0  0  3  0  0  0  0  0  0
  193.4250  175.9350  136.9350 C   0  0  0  0  0  3  0  0  0  0  0  0
  188.3460  177.9970  139.8380 C   0  0  0  0  0  0  0  0  0  0  0  0
  188.8630  177.8600  141.1260 C   0  0  0  0  0  0  0  0  0  0  0  0
  186.5070  176.3720  137.4190 N   0  0  2  0  0  0  0  0  0  0  0  0
  188.5310  175.2280  136.5860 C   0  0  0  0  0  2  0  0  0  0  0  0
  190.4080  177.3010  142.7180 N   0  0  0  0  0  0  0  0  0  0  0  0
  186.4560  173.9700  136.8340 C   0  0  0  0  0  2  0  0  0  0  0  0
  191.4970  176.0470  135.4760 C   0  0  0  0  0  3  0  0  0  0  0  0
  189.2170  176.5720  136.3590 C   0  0  2  0  0  3  0  0  0  0  0  0
  190.6920  176.4160  136.5590 C   0  0  0  0  0  0  0  0  0  0  0  0
  190.3980  176.9580  138.9820 C   0  0  0  0  0  0  0  0  0  0  0  0
  189.3160  177.9080  143.4680 C   0  0  0  0  0  3  0  0  0  0  0  0
  184.3400  175.4810  137.6330 O   0  0  0  0  0  0  0  0  0  0  0  0
  187.0110  175.3490  136.4780 C   0  0  1  0  0  3  0  0  0  0  0  0
  188.2550  178.3000  142.4160 C   0  0  0  0  0  3  0  0  0  0  0  0
  185.0790  176.5850  137.1960 C   0  0  0  0  0  2  0  0  0  0  0  0
  185.0920  173.6820  136.1960 C   0  0  1  0  0  3  0  0  0  0  0  0
  192.6240  176.2950  138.0220 C   0  0  0  0  0  3  0  0  0  0  0  0
  191.2530  176.5370  137.8460 C   0  0  0  0  0  0  0  0  0  0  0  0
  190.8870  176.8570  140.2990 C   0  0  0  0  0  3  0  0  0  0  0  0
  187.1140  177.6640  137.0950 C   0  0  0  0  0  2  0  0  0  0  0  0
  187.1240  178.6370  139.6640 O   0  0  0  0  0  1  0  0  0  0  0  0
  191.6400  176.8040  143.3050 C   0  0  0  0  0  1  0  0  0  0  0  0
  189.0970  177.4930  138.7400 C   0  0  0  0  0  0  0  0  0  0  0  0
  190.0850  177.3020  141.3450 C   0  0  0  0  0  0  0  0  0  0  0  0
  184.5820  172.4090  136.6830 N   0  0  0  0  0  2  0  0  0  0  0  0
  183.9240  171.4570  135.8430 C   0  0  0  0  0  0  0  0  0  0  0  0
  183.7090  171.7110  134.5950 N   0  0  0  0  0  2  0  0  0  0  0  0
  183.4550  170.1700  136.4220 C   0  0  0  0  0  1  0  0  0  0  0  0
  1 16  1  0  0  0  0
  2 24  1  1  0  0  0
  2 27  1  0  0  0  0
  3  4  1  0  0  0  0
  4 21  2  0  0  0  0
  5  6  1  0  0  0  0
  6 28  2  0  0  0  0
  6 18  1  0  0  0  0
  7 24  1  6  0  0  0
  9 26  1  0  0  0  0
  9 15  1  0  0  0  0
 11  3  2  0  0  0  0
 11 13  1  0  0  0  0
 12 13  1  0  0  0  0
 12  8  1  1  0  0  0
 12  2  1  0  0  0  0
 13 22  2  0  0  0  0
 14 23  2  0  0  0  0
 17  8  1  1  0  0  0
 17 10  1  0  0  0  0
 17  7  1  0  0  0  0
 18 15  2  0  0  0  0
 19  7  1  0  0  0  0
 19 16  1  0  0  0  0
 20  1  1  0  0  0  0
 20 29  1  1  0  0  0
 20 10  1  0  0  0  0
 22 21  1  0  0  0  0
 22 14  1  0  0  0  0
 23 28  1  0  0  0  0
 25  5  1  0  0  0  0
 27 14  1  0  0  0  0
 27  5  2  0  0  0  0
 28  9  1  0  0  0  0
 30 32  1  0  0  0  0
 30 29  1  0  0  0  0
 31 30  2  0  0  0  0
M  END
>  <MODEL>
4

>  <REMARK>
 VINA RESULT:      -8.0      3.098      4.313
  Name = 
  1 active torsions:
  status: ('A' for Active; 'I' for Inactive)
    1  A    between atoms: C_20  and  N_29
                            x       y       z     vdW  Elec       q    Type
                         _______ _______ _______ _____ _____    ______ ____

>  <TORSDO>
F 1

$$$$
=
 OpenBabel11122410463D

 32 37  0  0  1  0  0  0  0  0999 V2000
  179.3010  180.9310  136.1760 C   0  0  0  0  0  2  0  0  0  0  0  0
  182.3370  177.6950  139.3660 C   0  0  1  0  0  3  0  0  0  0  0  0
  183.0310  178.9990  144.0270 C   0  0  0  0  0  3  0  0  0  0  0  0
  184.4150  178.9080  143.8650 C   0  0  0  0  0  3  0  0  0  0  0  0
  184.4010  177.5390  137.8150 C   0  0  0  0  0  0  0  0  0  0  0  0
  185.7730  177.7090  137.6360 C   0  0  0  0  0  0  0  0  0  0  0  0
  181.3730  179.1720  137.6230 N   0  0  2  0  0  0  0  0  0  0  0  0
  181.6560  180.0590  139.9110 C   0  0  0  0  0  2  0  0  0  0  0  0
  187.9210  178.2200  138.2400 N   0  0  0  0  0  0  0  0  0  0  0  0
  180.8210  181.5250  138.1490 C   0  0  0  0  0  2  0  0  0  0  0  0
  182.1880  178.8870  142.9180 C   0  0  0  0  0  3  0  0  0  0  0  0
  181.8140  178.6430  140.4570 C   0  0  2  0  0  3  0  0  0  0  0  0
  182.7250  178.6690  141.6450 C   0  0  0  0  0  0  0  0  0  0  0  0
  184.6790  178.3170  140.1250 C   0  0  0  0  0  0  0  0  0  0  0  0
  188.0280  177.7710  136.8570 C   0  0  0  0  0  3  0  0  0  0  0  0
  180.4660  180.2810  135.7570 O   0  0  0  0  0  0  0  0  0  0  0  0
  180.8020  180.0780  138.6430 C   0  0  1  0  0  3  0  0  0  0  0  0
  186.5890  177.4150  136.4210 C   0  0  0  0  0  3  0  0  0  0  0  0
  180.4670  179.0840  136.4800 C   0  0  0  0  0  2  0  0  0  0  0  0
  179.5840  181.9010  137.3260 C   0  0  1  0  0  3  0  0  0  0  0  0
  184.9570  178.6990  142.5950 C   0  0  0  0  0  3  0  0  0  0  0  0
  184.1200  178.5790  141.4740 C   0  0  0  0  0  0  0  0  0  0  0  0
  186.0640  178.4560  139.9040 C   0  0  0  0  0  3  0  0  0  0  0  0
  181.4070  177.8090  138.1560 C   0  0  0  0  0  2  0  0  0  0  0  0
  183.6430  177.0100  136.7770 O   0  0  0  0  0  1  0  0  0  0  0  0
  189.0420  178.6330  139.0650 C   0  0  0  0  0  1  0  0  0  0  0  0
  183.8230  177.8960  139.0650 C   0  0  0  0  0  0  0  0  0  0  0  0
  186.5710  178.1600  138.6430 C   0  0  0  0  0  0  0  0  0  0  0  0
  179.7400  183.2460  136.7930 N   0  0  0  0  0  2  0  0  0  0  0  0
  179.4230  184.4250  137.5390 C   0  0  0  0  0  0  0  0  0  0  0  0
  178.9310  184.3420  138.7310 N   0  0  0  0  0  2  0  0  0  0  0  0
  179.6350  185.7610  136.9230 C   0  0  0  0  0  1  0  0  0  0  0  0
  1 20  1  0  0  0  0
  2 24  1  6  0  0  0
  2 12  1  0  0  0  0
  4  3  1  0  0  0  0
  5 27  1  0  0  0  0
  6  5  2  0  0  0  0
  6 28  1  0  0  0  0
  7 19  1  6  0  0  0
  7 24  1  0  0  0  0
  7 17  1  0  0  0  0
  9 28  1  0  0  0  0
  9 26  1  0  0  0  0
 11  3  2  0  0  0  0
 12  8  1  6  0  0  0
 12 13  1  0  0  0  0
 13 11  1  0  0  0  0
 14 22  1  0  0  0  0
 15  9  1  0  0  0  0
 16  1  1  0  0  0  0
 16 19  1  0  0  0  0
 17 10  1  6  0  0  0
 17  8  1  0  0  0  0
 18 15  2  0  0  0  0
 18  6  1  0  0  0  0
 20 29  1  6  0  0  0
 20 10  1  0  0  0  0
 21  4  2  0  0  0  0
 22 13  2  0  0  0  0
 22 21  1  0  0  0  0
 23 14  1  0  0  0  0
 25  5  1  0  0  0  0
 27  2  1  0  0  0  0
 27 14  2  0  0  0  0
 28 23  2  0  0  0  0
 29 30  1  0  0  0  0
 30 31  2  0  0  0  0
 32 30  1  0  0  0  0
M  END
>  <MODEL>
5

>  <REMARK>
 VINA RESULT:      -7.5      3.733      6.604
  Name = 
  1 active torsions:
  status: ('A' for Active; 'I' for Inactive)
    1  A    between atoms: C_20  and  N_29
                            x       y       z     vdW  Elec       q    Type
                         _______ _______ _______ _____ _____    ______ ____

>  <TORSDO>
F 1

$$$$
=
 OpenBabel11122410463D

 32 37  0  0  1  0  0  0  0  0999 V2000
  191.1790  177.4990  140.6530 C   0  0  0  0  0  2  0  0  0  0  0  0
  186.8430  177.7870  137.3380 C   0  0  1  0  0  3  0  0  0  0  0  0
  182.7070  179.7380  139.0700 C   0  0  0  0  0  3  0  0  0  0  0  0
  181.9940  178.5950  138.7030 C   0  0  0  0  0  3  0  0  0  0  0  0
  186.8180  175.3070  136.6050 C   0  0  0  0  0  0  0  0  0  0  0  0
  186.1210  174.1050  136.4920 C   0  0  0  0  0  0  0  0  0  0  0  0
  188.7930  177.1590  138.7360 N   0  0  2  0  0  0  0  0  0  0  0  0
  186.7950  178.1060  139.8370 C   0  0  0  0  0  2  0  0  0  0  0  0
  184.3270  172.6950  136.6660 N   0  0  0  0  0  0  0  0  0  0  0  0
  188.6810  177.3690  141.1980 C   0  0  0  0  0  2  0  0  0  0  0  0
  184.1020  179.7520  138.9770 C   0  0  0  0  0  3  0  0  0  0  0  0
  186.2840  178.6280  138.4980 C   0  0  2  0  0  3  0  0  0  0  0  0
  184.7870  178.6280  138.5030 C   0  0  0  0  0  0  0  0  0  0  0  0
  184.8060  176.2950  137.6040 C   0  0  0  0  0  0  0  0  0  0  0  0
  185.3640  171.8880  136.0340 C   0  0  0  0  0  3  0  0  0  0  0  0
  190.8100  176.4970  139.7490 O   0  0  0  0  0  0  0  0  0  0  0  0
  188.3200  178.0040  139.8540 C   0  0  1  0  0  3  0  0  0  0  0  0
  186.5910  172.8180  135.9000 C   0  0  0  0  0  3  0  0  0  0  0  0
  190.2520  177.1970  138.6750 C   0  0  0  0  0  2  0  0  0  0  0  0
  190.0820  177.7480  141.6900 C   0  0  1  0  0  3  0  0  0  0  0  0
  182.6730  177.4670  138.2370 C   0  0  0  0  0  3  0  0  0  0  0  0
  184.0730  177.4710  138.1340 C   0  0  0  0  0  0  0  0  0  0  0  0
  184.1360  175.0650  137.4540 C   0  0  0  0  0  3  0  0  0  0  0  0
  188.3680  177.7570  137.4690 C   0  0  0  0  0  2  0  0  0  0  0  0
  188.1100  175.3910  136.0990 O   0  0  0  0  0  1  0  0  0  0  0  0
  182.9840  172.2290  136.9650 C   0  0  0  0  0  1  0  0  0  0  0  0
  186.1740  176.4180  137.2180 C   0  0  0  0  0  0  0  0  0  0  0  0
  184.8300  173.9890  136.9110 C   0  0  0  0  0  0  0  0  0  0  0  0
  190.3910  177.0080  142.9050 N   0  0  0  0  0  2  0  0  0  0  0  0
  191.0870  177.5810  144.0150 C   0  0  0  0  0  0  0  0  0  0  0  0
  191.5210  178.7970  143.9690 N   0  0  0  0  0  2  0  0  0  0  0  0
  191.3400  176.7570  145.2250 C   0  0  0  0  0  1  0  0  0  0  0  0
  1 20  1  0  0  0  0
  2 24  1  1  0  0  0
  2 12  1  0  0  0  0
  4  3  2  0  0  0  0
  5 27  1  0  0  0  0
  6  5  2  0  0  0  0
  6 28  1  0  0  0  0
  7 24  1  6  0  0  0
  7 17  1  0  0  0  0
  9 28  1  0  0  0  0
  9 26  1  0  0  0  0
 10 20  1  0  0  0  0
 11  3  1  0  0  0  0
 12 13  1  0  0  0  0
 12  8  1  1  0  0  0
 13 11  2  0  0  0  0
 14 22  1  0  0  0  0
 15  9  1  0  0  0  0
 16  1  1  0  0  0  0
 17  8  1  1  0  0  0
 17 10  1  0  0  0  0
 18 15  2  0  0  0  0
 18  6  1  0  0  0  0
 19  7  1  0  0  0  0
 19 16  1  0  0  0  0
 20 29  1  1  0  0  0
 21  4  1  0  0  0  0
 22 21  2  0  0  0  0
 22 13  1  0  0  0  0
 23 14  1  0  0  0  0
 25  5  1  0  0  0  0
 27  2  1  0  0  0  0
 27 14  2  0  0  0  0
 28 23  2  0  0  0  0
 29 30  1  0  0  0  0
 30 32  1  0  0  0  0
 31 30  2  0  0  0  0
M  END
>  <MODEL>
6

>  <REMARK>
 VINA RESULT:      -7.4      3.291      8.271
  Name = 
  1 active torsions:
  status: ('A' for Active; 'I' for Inactive)
    1  A    between atoms: C_20  and  N_29
                            x       y       z     vdW  Elec       q    Type
                         _______ _______ _______ _____ _____    ______ ____

>  <TORSDO>
F 1

$$$$
=
 OpenBabel11122410463D

 32 37  0  0  1  0  0  0  0  0999 V2000
  187.9370  174.5940  134.8890 C   0  0  0  0  0  2  0  0  0  0  0  0
  188.7630  178.3880  138.7350 C   0  0  1  0  0  3  0  0  0  0  0  0
  192.0830  177.5000  142.2140 C   0  0  0  0  0  3  0  0  0  0  0  0
  191.1340  177.7490  143.2070 C   0  0  0  0  0  3  0  0  0  0  0  0
  186.2930  178.6880  139.4440 C   0  0  0  0  0  0  0  0  0  0  0  0
  185.3330  178.6750  140.4550 C   0  0  0  0  0  0  0  0  0  0  0  0
  187.9040  176.6880  137.1470 N   0  0  2  0  0  0  0  0  0  0  0  0
  189.5640  176.0010  138.8420 C   0  0  0  0  0  2  0  0  0  0  0  0
  184.5380  178.4730  142.5910 N   0  0  0  0  0  0  0  0  0  0  0  0
  188.6140  174.3270  137.3440 C   0  0  0  0  0  2  0  0  0  0  0  0
  191.6910  177.4330  140.8740 C   0  0  0  0  0  3  0  0  0  0  0  0
  189.9350  177.4600  139.0930 C   0  0  2  0  0  3  0  0  0  0  0  0
  190.3520  177.6270  140.5220 C   0  0  0  0  0  0  0  0  0  0  0  0
  187.9760  178.1100  141.1340 C   0  0  0  0  0  0  0  0  0  0  0  0
  183.3690  178.8360  141.8000 C   0  0  0  0  0  3  0  0  0  0  0  0
  186.9200  175.3520  135.4790 O   0  0  0  0  0  0  0  0  0  0  0  0
  189.0480  175.7910  137.4180 C   0  0  1  0  0  3  0  0  0  0  0  0
  183.8760  178.9830  140.3480 C   0  0  0  0  0  3  0  0  0  0  0  0
  187.5230  176.5860  135.7400 C   0  0  0  0  0  2  0  0  0  0  0  0
  188.6780  173.7470  135.9260 C   0  0  1  0  0  3  0  0  0  0  0  0
  189.7930  177.9350  142.8620 C   0  0  0  0  0  3  0  0  0  0  0  0
  189.3890  177.8750  141.5190 C   0  0  0  0  0  0  0  0  0  0  0  0
  186.9750  178.1260  142.1250 C   0  0  0  0  0  3  0  0  0  0  0  0
  188.3370  178.0780  137.2980 C   0  0  0  0  0  2  0  0  0  0  0  0
  185.9150  179.0480  138.1550 O   0  0  0  0  0  1  0  0  0  0  0  0
  184.5310  178.2570  144.0270 C   0  0  0  0  0  1  0  0  0  0  0  0
  187.6370  178.3500  139.7690 C   0  0  0  0  0  0  0  0  0  0  0  0
  185.6640  178.3950  141.7450 C   0  0  0  0  0  0  0  0  0  0  0  0
  188.1340  172.3980  135.9240 N   0  0  0  0  0  2  0  0  0  0  0  0
  188.7710  171.2980  135.2670 C   0  0  0  0  0  0  0  0  0  0  0  0
  189.8600  171.4690  134.5940 N   0  0  0  0  0  2  0  0  0  0  0  0
  188.1540  169.9470  135.3360 C   0  0  0  0  0  1  0  0  0  0  0  0
  1 16  1  0  0  0  0
  1 20  1  0  0  0  0
  2 24  1  6  0  0  0
  2 12  1  0  0  0  0
  2 27  1  0  0  0  0
  3  4  1  0  0  0  0
  5 27  2  0  0  0  0
  5  6  1  0  0  0  0
  6 28  2  0  0  0  0
  7 19  1  6  0  0  0
  7 24  1  0  0  0  0
  7 17  1  0  0  0  0
  9 26  1  0  0  0  0
 11  3  2  0  0  0  0
 12  8  1  1  0  0  0
 12 13  1  0  0  0  0
 13 11  1  0  0  0  0
 13 22  2  0  0  0  0
 14 22  1  0  0  0  0
 14 23  2  0  0  0  0
 15  9  1  0  0  0  0
 16 19  1  0  0  0  0
 17 10  1  1  0  0  0
 17  8  1  0  0  0  0
 18  6  1  0  0  0  0
 18 15  2  0  0  0  0
 20 29  1  1  0  0  0
 20 10  1  0  0  0  0
 21  4  2  0  0  0  0
 22 21  1  0  0  0  0
 25  5  1  0  0  0  0
 27 14  1  0  0  0  0
 28 23  1  0  0  0  0
 28  9  1  0  0  0  0
 30 32  1  0  0  0  0
 30 29  1  0  0  0  0
 31 30  2  0  0  0  0
M  END
>  <MODEL>
7

>  <REMARK>
 VINA RESULT:      -7.1      4.005      5.767
  Name = 
  1 active torsions:
  status: ('A' for Active; 'I' for Inactive)
    1  A    between atoms: C_20  and  N_29
                            x       y       z     vdW  Elec       q    Type
                         _______ _______ _______ _____ _____    ______ ____

>  <TORSDO>
F 1

$$$$
=
 OpenBabel11122410463D

 32 37  0  0  1  0  0  0  0  0999 V2000
  181.7990  176.5990  137.9010 C   0  0  0  0  0  2  0  0  0  0  0  0
  186.9090  178.5140  138.1930 C   0  0  1  0  0  3  0  0  0  0  0  0
  190.3390  176.4470  135.3870 C   0  0  0  0  0  3  0  0  0  0  0  0
  191.1410  176.2160  136.5070 C   0  0  0  0  0  3  0  0  0  0  0  0
  187.1730  178.3690  140.7620 C   0  0  0  0  0  0  0  0  0  0  0  0
  187.8850  177.8930  141.8620 C   0  0  0  0  0  0  0  0  0  0  0  0
  184.6430  177.5760  138.5610 N   0  0  2  0  0  0  0  0  0  0  0  0
  186.2230  176.3390  137.1210 C   0  0  0  0  0  2  0  0  0  0  0  0
  189.5650  176.7900  142.9570 N   0  0  0  0  0  0  0  0  0  0  0  0
  184.0300  175.3820  137.5970 C   0  0  0  0  0  2  0  0  0  0  0  0
  189.0330  176.9160  135.5470 C   0  0  0  0  0  3  0  0  0  0  0  0
  187.0970  177.5820  136.9840 C   0  0  2  0  0  3  0  0  0  0  0  0
  188.5280  177.1690  136.8270 C   0  0  0  0  0  0  0  0  0  0  0  0
  188.7960  177.2350  139.3120 C   0  0  0  0  0  0  0  0  0  0  0  0
  188.7660  177.3850  144.0210 C   0  0  0  0  0  3  0  0  0  0  0  0
  182.4250  176.9940  139.0870 O   0  0  0  0  0  0  0  0  0  0  0  0
  184.7610  176.7060  137.3710 C   0  0  1  0  0  3  0  0  0  0  0  0
  187.6220  178.1420  143.3100 C   0  0  0  0  0  3  0  0  0  0  0  0
  183.2650  178.0410  138.6960 C   0  0  0  0  0  2  0  0  0  0  0  0
  182.5430  175.4400  137.2330 C   0  0  1  0  0  3  0  0  0  0  0  0
  190.6390  176.4590  137.7880 C   0  0  0  0  0  3  0  0  0  0  0  0
  189.3300  176.9350  137.9610 C   0  0  0  0  0  0  0  0  0  0  0  0
  189.4940  176.7910  140.4530 C   0  0  0  0  0  3  0  0  0  0  0  0
  185.4130  178.8010  138.3390 C   0  0  0  0  0  2  0  0  0  0  0  0
  186.0840  179.2070  140.9710 O   0  0  0  0  0  1  0  0  0  0  0  0
  190.7670  176.0030  143.1660 C   0  0  0  0  0  1  0  0  0  0  0  0
  187.5990  177.9970  139.4560 C   0  0  0  0  0  0  0  0  0  0  0  0
  188.9990  177.1240  141.7090 C   0  0  0  0  0  0  0  0  0  0  0  0
  181.9010  174.1850  137.5940 N   0  0  0  0  0  2  0  0  0  0  0  0
  181.6640  173.1300  136.6570 C   0  0  0  0  0  0  0  0  0  0  0  0
  181.9770  173.2670  135.4110 N   0  0  0  0  0  2  0  0  0  0  0  0
  181.0220  171.8720  137.1190 C   0  0  0  0  0  1  0  0  0  0  0  0
  1 16  1  0  0  0  0
  2 24  1  1  0  0  0
  2 27  1  0  0  0  0
  3 11  2  0  0  0  0
  3  4  1  0  0  0  0
  4 21  2  0  0  0  0
  5 25  1  0  0  0  0
  5  6  1  0  0  0  0
  6 18  1  0  0  0  0
  7 24  1  6  0  0  0
  7 19  1  0  0  0  0
  9 26  1  0  0  0  0
  9 15  1  0  0  0  0
 11 13  1  0  0  0  0
 12  8  1  1  0  0  0
 12  2  1  0  0  0  0
 13 12  1  0  0  0  0
 13 22  2  0  0  0  0
 14 27  1  0  0  0  0
 14 23  2  0  0  0  0
 17  8  1  1  0  0  0
 17 10  1  0  0  0  0
 17  7  1  0  0  0  0
 18 15  2  0  0  0  0
 19 16  1  0  0  0  0
 20 29  1  1  0  0  0
 20 10  1  0  0  0  0
 20  1  1  0  0  0  0
 21 22  1  0  0  0  0
 22 14  1  0  0  0  0
 23 28  1  0  0  0  0
 27  5  2  0  0  0  0
 28  6  2  0  0  0  0
 28  9  1  0  0  0  0
 30 32  1  0  0  0  0
 30 29  1  0  0  0  0
 31 30  2  0  0  0  0
M  END
>  <MODEL>
8

>  <REMARK>
 VINA RESULT:      -6.8      1.599      2.311
  Name = 
  1 active torsions:
  status: ('A' for Active; 'I' for Inactive)
    1  A    between atoms: C_20  and  N_29
                            x       y       z     vdW  Elec       q    Type
                         _______ _______ _______ _____ _____    ______ ____

>  <TORSDO>
F 1

$$$$
=
 OpenBabel11122410463D

 32 37  0  0  1  0  0  0  0  0999 V2000
  190.8470  177.6820  142.1820 C   0  0  0  0  0  2  0  0  0  0  0  0
  187.4420  177.9520  137.9160 C   0  0  1  0  0  3  0  0  0  0  0  0
  182.8410  179.4140  138.6920 C   0  0  0  0  0  3  0  0  0  0  0  0
  182.3520  178.2600  138.0760 C   0  0  0  0  0  3  0  0  0  0  0  0
  187.8350  175.5560  137.0240 C   0  0  0  0  0  0  0  0  0  0  0  0
  187.3050  174.3200  136.6540 C   0  0  0  0  0  0  0  0  0  0  0  0
  189.0440  177.3440  139.7090 N   0  0  2  0  0  0  0  0  0  0  0  0
  186.7560  178.0310  140.3400 C   0  0  0  0  0  2  0  0  0  0  0  0
  185.6680  172.7690  136.2710 N   0  0  0  0  0  0  0  0  0  0  0  0
  188.3160  177.3140  142.0730 C   0  0  0  0  0  2  0  0  0  0  0  0
  184.2080  179.5420  138.9530 C   0  0  0  0  0  3  0  0  0  0  0  0
  186.5390  178.6350  138.9560 C   0  0  2  0  0  3  0  0  0  0  0  0
  185.0930  178.5220  138.5860 C   0  0  0  0  0  0  0  0  0  0  0  0
  185.5540  176.2920  137.5550 C   0  0  0  0  0  0  0  0  0  0  0  0
  186.9000  172.1060  135.8620 C   0  0  0  0  0  3  0  0  0  0  0  0
  190.8080  176.7440  141.1450 O   0  0  0  0  0  0  0  0  0  0  0  0
  188.2340  178.0420  140.7310 C   0  0  1  0  0  3  0  0  0  0  0  0
  188.0280  173.1340  136.1070 C   0  0  0  0  0  3  0  0  0  0  0  0
  190.4640  177.4970  140.0190 C   0  0  0  0  0  2  0  0  0  0  0  0
  189.5120  177.7490  142.9270 C   0  0  1  0  0  3  0  0  0  0  0  0
  183.2300  177.2350  137.7160 C   0  0  0  0  0  3  0  0  0  0  0  0
  184.6060  177.3540  137.9670 C   0  0  0  0  0  0  0  0  0  0  0  0
  185.0630  175.0340  137.1530 C   0  0  0  0  0  3  0  0  0  0  0  0
  188.8840  178.0250  138.4230 C   0  0  0  0  0  2  0  0  0  0  0  0
  189.1970  175.7840  136.8660 O   0  0  0  0  0  1  0  0  0  0  0  0
  184.3440  172.1780  136.1890 C   0  0  0  0  0  1  0  0  0  0  0  0
  186.9570  176.5530  137.5350 C   0  0  0  0  0  0  0  0  0  0  0  0
  185.9690  174.0690  136.7260 C   0  0  0  0  0  0  0  0  0  0  0  0
  189.5860  176.9240  144.1240 N   0  0  0  0  0  2  0  0  0  0  0  0
  190.0500  177.4150  145.3840 C   0  0  0  0  0  0  0  0  0  0  0  0
  190.4760  178.6290  145.5080 N   0  0  0  0  0  2  0  0  0  0  0  0
  190.0710  176.5060  146.5610 C   0  0  0  0  0  1  0  0  0  0  0  0
  1 20  1  0  0  0  0
  2 24  1  1  0  0  0
  2 12  1  0  0  0  0
  3 11  1  0  0  0  0
  4  3  2  0  0  0  0
  5 27  1  0  0  0  0
  6 28  1  0  0  0  0
  6  5  2  0  0  0  0
  7 24  1  6  0  0  0
  7 19  1  0  0  0  0
  7 17  1  0  0  0  0
  9 28  1  0  0  0  0
 10 20  1  0  0  0  0
 12  8  1  1  0  0  0
 13 11  2  0  0  0  0
 13 12  1  0  0  0  0
 14 22  1  0  0  0  0
 15 18  2  0  0  0  0
 15  9  1  0  0  0  0
 16  1  1  0  0  0  0
 17  8  1  6  0  0  0
 17 10  1  0  0  0  0
 18  6  1  0  0  0  0
 19 16  1  0  0  0  0
 20 29  1  1  0  0  0
 21 22  2  0  0  0  0
 21  4  1  0  0  0  0
 22 13  1  0  0  0  0
 23 14  1  0  0  0  0
 25  5  1  0  0  0  0
 26  9  1  0  0  0  0
 27 14  2  0  0  0  0
 27  2  1  0  0  0  0
 28 23  2  0  0  0  0
 29 30  1  0  0  0  0
 30 31  2  0  0  0  0
 30 32  1  0  0  0  0
M  END
>  <MODEL>
9

>  <REMARK>
 VINA RESULT:      -6.5      3.323      8.195
  Name = 
  1 active torsions:
  status: ('A' for Active; 'I' for Inactive)
    1  A    between atoms: C_20  and  N_29
                            x       y       z     vdW  Elec       q    Type
                         _______ _______ _______ _____ _____    ______ ____

>  <TORSDO>
F 1

$$$$
