=
 OpenBabel11122412073D

 34 40  0  0  1  0  0  0  0  0999 V2000
  182.0680  178.7720  143.2740 C   0  0  0  0  0  0  0  0  0  0  0  0
  183.5910  178.7780  145.3090 C   0  0  0  0  0  2  0  0  0  0  0  0
  180.5650  179.9700  137.5380 C   0  0  1  0  0  3  0  0  0  0  0  0
  180.7720  178.3520  141.2680 C   0  0  0  0  0  0  0  0  0  0  0  0
  181.8800  178.3020  138.9880 C   0  0  1  0  0  3  0  0  0  0  0  0
  182.2090  180.7050  139.1030 O   0  0  0  0  0  1  0  0  0  0  0  0
  180.8250  180.8090  136.3040 C   0  0  0  0  0  1  0  0  0  0  0  0
  178.9310  178.6200  138.2030 C   0  0  0  0  0  2  0  0  0  0  0  0
  184.5290  179.3230  143.1420 C   0  0  2  0  0  3  0  0  0  0  0  0
  187.5320  178.2140  142.6460 C   0  0  0  0  0  2  0  0  0  0  0  0
  183.1770  178.0070  139.7480 C   0  0  0  0  0  2  0  0  0  0  0  0
  179.4690  177.6370  139.2390 C   0  0  0  0  0  2  0  0  0  0  0  0
  184.5400  178.5240  141.8260 C   0  0  1  0  0  3  0  0  0  0  0  0
  185.0800  179.0030  145.5000 C   0  0  0  0  0  2  0  0  0  0  0  0
  180.6970  178.1450  139.8450 N   0  0  0  0  0  0  0  0  0  0  0  0
  179.8690  178.8060  137.1800 O   0  0  0  0  0  0  0  0  0  0  0  0
  186.5820  177.8780  143.7920 C   0  0  2  0  0  3  0  0  0  0  0  0
  182.0100  178.6280  141.8780 C   0  0  0  0  0  0  0  0  0  0  0  0
  181.8910  179.6530  138.2410 C   0  0  2  0  0  3  0  0  0  0  0  0
  183.2540  178.8280  141.0390 C   0  0  2  0  0  3  0  0  0  0  0  0
  179.6950  178.3540  143.3910 C   0  0  0  0  0  3  0  0  0  0  0  0
  186.9010  177.9330  141.2920 C   0  0  0  0  0  2  0  0  0  0  0  0
  179.6560  178.2200  142.0390 N   0  0  0  0  0  0  0  0  0  0  0  0
  185.7610  178.8950  140.9960 C   0  0  0  0  0  2  0  0  0  0  0  0
  185.7070  179.1050  144.1080 C   0  0  1  0  0  3  0  0  0  0  0  0
  180.9020  178.6270  144.0340 C   0  0  0  0  0  3  0  0  0  0  0  0
  183.3320  179.0210  143.9050 N   0  0  0  0  0  0  0  0  0  0  0  0
  187.3470  177.5200  144.9060 O   0  0  0  0  0  0  0  0  0  0  0  0
  188.6500  177.3860  144.4190 C   0  0  0  0  0  2  0  0  0  0  0  0
  190.7500  176.7420  147.2220 C   0  0  0  0  0  2  0  0  0  0  0  0
  191.0570  177.5080  145.0540 C   0  0  0  0  0  2  0  0  0  0  0  0
  189.6430  177.8960  145.4480 C   0  0  2  0  0  3  0  0  0  0  0  0
  191.5590  176.5500  146.0290 N   0  0  0  0  0  2  0  0  0  0  0  0
  189.3910  177.2140  146.7680 C   0  0  0  0  0  2  0  0  0  0  0  0
  1 27  1  0  0  0  0
  1 26  1  0  0  0  0
  2 14  1  0  0  0  0
  3  7  1  6  0  0  0
  3 19  1  0  0  0  0
  4 18  1  0  0  0  0
  4 23  2  0  0  0  0
  5 11  1  1  0  0  0
  5 15  1  0  0  0  0
  8 12  1  0  0  0  0
  9 27  1  1  0  0  0
  9 25  1  0  0  0  0
 10 17  1  0  0  0  0
 12 15  1  0  0  0  0
 13 24  1  6  0  0  0
 13  9  1  0  0  0  0
 15  4  1  0  0  0  0
 16  3  1  0  0  0  0
 16  8  1  0  0  0  0
 17 25  1  0  0  0  0
 17 28  1  1  0  0  0
 18  1  2  0  0  0  0
 19  5  1  0  0  0  0
 19  6  1  1  0  0  0
 20 11  1  6  0  0  0
 20 13  1  0  0  0  0
 20 18  1  0  0  0  0
 21 26  2  0  0  0  0
 22 10  1  0  0  0  0
 23 21  1  0  0  0  0
 24 22  1  0  0  0  0
 25 14  1  1  0  0  0
 27  2  1  0  0  0  0
 29 28  1  0  0  0  0
 31 32  1  0  0  0  0
 31 33  1  0  0  0  0
 32 29  1  6  0  0  0
 32 34  1  0  0  0  0
 33 30  1  0  0  0  0
 34 30  1  0  0  0  0
M  END
>  <MODEL>
1

>  <REMARK>
 VINA RESULT:      -9.0      0.000      0.000
  Name = 
  3 active torsions:
  status: ('A' for Active; 'I' for Inactive)
    1  A    between atoms: C_17  and  O_28
    2  A    between atoms: O_28  and  C_29
    3  A    between atoms: C_29  and  C_32
                            x       y       z     vdW  Elec       q    Type
                         _______ _______ _______ _____ _____    ______ ____

>  <TORSDO>
F 3

$$$$
=
 OpenBabel11122412073D

 34 40  0  0  1  0  0  0  0  0999 V2000
  186.2060  178.4180  141.8260 C   0  0  0  0  0  0  0  0  0  0  0  0
  188.6530  177.7770  142.0750 C   0  0  0  0  0  2  0  0  0  0  0  0
  181.4270  180.8620  139.0370 C   0  0  1  0  0  3  0  0  0  0  0  0
  183.8190  178.6100  141.4400 C   0  0  0  0  0  0  0  0  0  0  0  0
  182.8880  178.7460  139.0860 C   0  0  1  0  0  3  0  0  0  0  0  0
  183.8030  180.9830  138.8600 O   0  0  0  0  0  1  0  0  0  0  0  0
  180.9270  181.8370  137.9900 C   0  0  0  0  0  1  0  0  0  0  0  0
  180.4990  179.7560  140.7250 C   0  0  0  0  0  2  0  0  0  0  0  0
  187.8460  178.5000  139.9070 C   0  0  2  0  0  3  0  0  0  0  0  0
  189.1470  176.9380  137.3850 C   0  0  0  0  0  2  0  0  0  0  0  0
  184.1960  178.0800  138.6490 C   0  0  0  0  0  2  0  0  0  0  0  0
  181.3360  178.5240  141.0510 C   0  0  0  0  0  2  0  0  0  0  0  0
  186.7020  177.9560  139.0310 C   0  0  1  0  0  3  0  0  0  0  0  0
  189.8110  177.6740  141.0990 C   0  0  0  0  0  2  0  0  0  0  0  0
  182.6970  178.6730  140.5400 N   0  0  0  0  0  0  0  0  0  0  0  0
  180.4200  179.9350  139.3370 O   0  0  0  0  0  0  0  0  0  0  0  0
  189.2670  176.5970  138.8670 C   0  0  2  0  0  3  0  0  0  0  0  0
  185.1300  178.5330  140.9310 C   0  0  0  0  0  0  0  0  0  0  0  0
  182.7070  180.1790  138.5400 C   0  0  2  0  0  3  0  0  0  0  0  0
  185.3840  178.6330  139.4420 C   0  0  2  0  0  3  0  0  0  0  0  0
  184.6470  178.4500  143.6670 C   0  0  0  0  0  3  0  0  0  0  0  0
  187.6940  177.0240  136.9440 C   0  0  0  0  0  2  0  0  0  0  0  0
  183.6170  178.5640  142.7870 N   0  0  0  0  0  0  0  0  0  0  0  0
  186.9920  178.2230  137.5610 C   0  0  0  0  0  2  0  0  0  0  0  0
  189.2450  177.8940  139.6940 C   0  0  1  0  0  3  0  0  0  0  0  0
  185.9590  178.3700  143.2020 C   0  0  0  0  0  3  0  0  0  0  0  0
  187.5410  178.3060  141.3120 N   0  0  0  0  0  0  0  0  0  0  0  0
  190.4690  175.9090  139.0630 O   0  0  0  0  0  0  0  0  0  0  0  0
  190.8440  175.4720  137.7900 C   0  0  0  0  0  2  0  0  0  0  0  0
  194.0060  175.5730  136.1560 C   0  0  0  0  0  2  0  0  0  0  0  0
  193.1600  176.3080  138.1860 C   0  0  0  0  0  2  0  0  0  0  0  0
  192.3190  175.1090  137.7810 C   0  0  2  0  0  3  0  0  0  0  0  0
  193.9430  176.7300  137.0330 N   0  0  0  0  0  2  0  0  0  0  0  0
  192.7430  174.7770  136.3740 C   0  0  0  0  0  2  0  0  0  0  0  0
  1 26  1  0  0  0  0
  3  7  1  6  0  0  0
  3 16  1  0  0  0  0
  4 23  2  0  0  0  0
  5 11  1  1  0  0  0
  5 15  1  0  0  0  0
  8 12  1  0  0  0  0
  9 27  1  1  0  0  0
 10 17  1  0  0  0  0
 13 24  1  6  0  0  0
 13 20  1  0  0  0  0
 13  9  1  0  0  0  0
 14  2  1  0  0  0  0
 15 12  1  0  0  0  0
 15  4  1  0  0  0  0
 16  8  1  0  0  0  0
 17 28  1  6  0  0  0
 17 25  1  0  0  0  0
 18  4  1  0  0  0  0
 18  1  2  0  0  0  0
 19  6  1  1  0  0  0
 19  3  1  0  0  0  0
 19  5  1  0  0  0  0
 20 11  1  6  0  0  0
 20 18  1  0  0  0  0
 22 10  1  0  0  0  0
 22 24  1  0  0  0  0
 23 21  1  0  0  0  0
 25  9  1  0  0  0  0
 25 14  1  1  0  0  0
 26 21  2  0  0  0  0
 27  1  1  0  0  0  0
 27  2  1  0  0  0  0
 29 28  1  0  0  0  0
 30 34  1  0  0  0  0
 30 33  1  0  0  0  0
 32 29  1  6  0  0  0
 32 31  1  0  0  0  0
 33 31  1  0  0  0  0
 34 32  1  0  0  0  0
M  END
>  <MODEL>
2

>  <REMARK>
 VINA RESULT:      -8.3      4.099      5.430
  Name = 
  3 active torsions:
  status: ('A' for Active; 'I' for Inactive)
    1  A    between atoms: C_17  and  O_28
    2  A    between atoms: O_28  and  C_29
    3  A    between atoms: C_29  and  C_32
                            x       y       z     vdW  Elec       q    Type
                         _______ _______ _______ _____ _____    ______ ____

>  <TORSDO>
F 3

$$$$
=
 OpenBabel11122412073D

 34 40  0  0  1  0  0  0  0  0999 V2000
  189.4630  176.2610  136.8520 C   0  0  0  0  0  0  0  0  0  0  0  0
  187.5220  177.4130  138.0200 C   0  0  0  0  0  2  0  0  0  0  0  0
  195.2930  175.2330  135.6040 C   0  0  1  0  0  3  0  0  0  0  0  0
  191.2650  174.8470  136.0530 C   0  0  0  0  0  0  0  0  0  0  0  0
  193.4560  174.6900  137.3200 C   0  0  1  0  0  3  0  0  0  0  0  0
  194.0050  176.9550  136.6380 O   0  0  0  0  0  1  0  0  0  0  0  0
  196.7120  175.7630  135.6330 C   0  0  0  0  0  1  0  0  0  0  0  0
  194.2680  173.5410  134.5930 C   0  0  0  0  0  2  0  0  0  0  0  0
  189.7660  177.7340  138.8810 C   0  0  2  0  0  3  0  0  0  0  0  0
  189.9700  177.8900  142.1100 C   0  0  0  0  0  2  0  0  0  0  0  0
  192.6570  175.1650  138.5380 C   0  0  0  0  0  2  0  0  0  0  0  0
  193.0090  173.1690  135.3700 C   0  0  0  0  0  2  0  0  0  0  0  0
  190.8140  176.7080  139.3500 C   0  0  1  0  0  3  0  0  0  0  0  0
  187.4150  178.2780  139.2630 C   0  0  0  0  0  2  0  0  0  0  0  0
  192.5770  174.2770  136.2180 N   0  0  0  0  0  0  0  0  0  0  0  0
  195.3130  173.8370  135.4790 O   0  0  0  0  0  0  0  0  0  0  0  0
  188.7670  177.4900  141.2610 C   0  0  2  0  0  3  0  0  0  0  0  0
  190.7660  175.7580  137.0040 C   0  0  0  0  0  0  0  0  0  0  0  0
  194.5440  175.6860  136.8640 C   0  0  2  0  0  3  0  0  0  0  0  0
  191.6400  176.2390  138.1420 C   0  0  2  0  0  3  0  0  0  0  0  0
  189.2130  174.9360  134.8510 C   0  0  0  0  0  3  0  0  0  0  0  0
  191.1890  177.0400  141.7910 C   0  0  0  0  0  2  0  0  0  0  0  0
  190.4760  174.4620  135.0110 N   0  0  0  0  0  0  0  0  0  0  0  0
  191.7260  177.3310  140.3980 C   0  0  0  0  0  2  0  0  0  0  0  0
  188.7890  178.2770  139.9380 C   0  0  1  0  0  3  0  0  0  0  0  0
  188.6810  175.8400  135.7710 C   0  0  0  0  0  3  0  0  0  0  0  0
  188.9370  177.1640  137.8340 N   0  0  0  0  0  0  0  0  0  0  0  0
  187.6040  177.7770  141.9850 O   0  0  0  0  0  0  0  0  0  0  0  0
  188.0210  177.8590  143.3150 C   0  0  0  0  0  2  0  0  0  0  0  0
  186.1970  178.2180  146.3520 C   0  0  0  0  0  2  0  0  0  0  0  0
  185.6850  178.2580  144.0910 C   0  0  0  0  0  2  0  0  0  0  0  0
  186.9140  177.3770  144.2360 C   0  0  2  0  0  3  0  0  0  0  0  0
  185.4910  178.9840  145.3380 N   0  0  0  0  0  2  0  0  0  0  0  0
  187.3520  177.5300  145.6690 C   0  0  0  0  0  2  0  0  0  0  0  0
  1 18  1  0  0  0  0
  1 27  1  0  0  0  0
  2 14  1  0  0  0  0
  3  7  1  1  0  0  0
  3 19  1  0  0  0  0
  4 15  1  0  0  0  0
  4 18  2  0  0  0  0
  5 11  1  1  0  0  0
  8 12  1  0  0  0  0
  8 16  1  0  0  0  0
  9 27  1  6  0  0  0
  9 13  1  0  0  0  0
  9 25  1  0  0  0  0
 12 15  1  0  0  0  0
 13 24  1  1  0  0  0
 15  5  1  0  0  0  0
 16  3  1  0  0  0  0
 17 28  1  1  0  0  0
 17 10  1  0  0  0  0
 18 20  1  0  0  0  0
 19  6  1  6  0  0  0
 19  5  1  0  0  0  0
 20 11  1  1  0  0  0
 20 13  1  0  0  0  0
 21 23  2  0  0  0  0
 21 26  1  0  0  0  0
 22 10  1  0  0  0  0
 23  4  1  0  0  0  0
 24 22  1  0  0  0  0
 25 14  1  6  0  0  0
 25 17  1  0  0  0  0
 26  1  2  0  0  0  0
 27  2  1  0  0  0  0
 28 29  1  0  0  0  0
 31 32  1  0  0  0  0
 31 33  1  0  0  0  0
 32 29  1  6  0  0  0
 32 34  1  0  0  0  0
 33 30  1  0  0  0  0
 34 30  1  0  0  0  0
M  END
>  <MODEL>
3

>  <REMARK>
 VINA RESULT:      -7.5      6.865     10.121
  Name = 
  3 active torsions:
  status: ('A' for Active; 'I' for Inactive)
    1  A    between atoms: C_17  and  O_28
    2  A    between atoms: O_28  and  C_29
    3  A    between atoms: C_29  and  C_32
                            x       y       z     vdW  Elec       q    Type
                         _______ _______ _______ _____ _____    ______ ____

>  <TORSDO>
F 3

$$$$
=
 OpenBabel11122412073D

 34 40  0  0  1  0  0  0  0  0999 V2000
  187.2890  178.0590  140.1200 C   0  0  0  0  0  0  0  0  0  0  0  0
  189.5370  177.6010  141.2130 C   0  0  0  0  0  2  0  0  0  0  0  0
  181.2650  177.7910  139.6310 C   0  0  1  0  0  3  0  0  0  0  0  0
  185.1690  178.8910  139.2850 C   0  0  0  0  0  0  0  0  0  0  0  0
  183.1530  179.0790  140.8100 C   0  0  1  0  0  3  0  0  0  0  0  0
  182.9700  176.6590  140.8570 O   0  0  0  0  0  1  0  0  0  0  0  0
  179.9870  177.0850  140.0350 C   0  0  0  0  0  1  0  0  0  0  0  0
  181.8220  179.2490  138.0510 C   0  0  0  0  0  2  0  0  0  0  0  0
  187.5130  177.2120  142.4880 C   0  0  2  0  0  3  0  0  0  0  0  0
  187.7220  177.9730  145.6300 C   0  0  0  0  0  2  0  0  0  0  0  0
  184.1640  179.1050  141.9610 C   0  0  0  0  0  2  0  0  0  0  0  0
  183.0690  180.0160  138.4790 C   0  0  0  0  0  2  0  0  0  0  0  0
  186.3500  178.1600  142.8360 C   0  0  1  0  0  3  0  0  0  0  0  0
  189.9520  177.1620  142.6060 C   0  0  0  0  0  2  0  0  0  0  0  0
  183.8010  179.2810  139.5080 N   0  0  0  0  0  0  0  0  0  0  0  0
  180.9640  179.0700  139.1440 O   0  0  0  0  0  0  0  0  0  0  0  0
  188.7190  178.2840  144.5180 C   0  0  2  0  0  3  0  0  0  0  0  0
  185.9410  178.3820  140.3470 C   0  0  0  0  0  0  0  0  0  0  0  0
  182.2290  177.8420  140.8230 C   0  0  2  0  0  3  0  0  0  0  0  0
  185.3140  178.1280  141.7010 C   0  0  2  0  0  3  0  0  0  0  0  0
  187.0460  178.7650  137.8260 C   0  0  0  0  0  3  0  0  0  0  0  0
  186.3340  178.5000  145.3040 C   0  0  0  0  0  2  0  0  0  0  0  0
  185.7420  179.0700  138.0620 N   0  0  0  0  0  0  0  0  0  0  0  0
  185.7030  177.7390  144.1480 C   0  0  0  0  0  2  0  0  0  0  0  0
  188.6930  177.1530  143.4750 C   0  0  1  0  0  3  0  0  0  0  0  0
  187.8440  178.2590  138.8510 C   0  0  0  0  0  3  0  0  0  0  0  0
  188.0890  177.5700  141.2060 N   0  0  0  0  0  0  0  0  0  0  0  0
  189.9910  178.3990  145.0880 O   0  0  0  0  0  0  0  0  0  0  0  0
  190.0710  177.3450  146.0010 C   0  0  0  0  0  2  0  0  0  0  0  0
  192.4690  175.4670  147.8460 C   0  0  0  0  0  2  0  0  0  0  0  0
  192.0520  175.8840  145.6030 C   0  0  0  0  0  2  0  0  0  0  0  0
  191.5210  177.0850  146.3670 C   0  0  2  0  0  3  0  0  0  0  0  0
  192.3180  174.8150  146.5560 N   0  0  0  0  0  2  0  0  0  0  0  0
  191.6100  176.7070  147.8230 C   0  0  0  0  0  2  0  0  0  0  0  0
  1 18  1  0  0  0  0
  1 27  1  0  0  0  0
  2 14  1  0  0  0  0
  3  7  1  1  0  0  0
  3 19  1  0  0  0  0
  4 15  1  0  0  0  0
  4 18  2  0  0  0  0
  5 19  1  0  0  0  0
  5 11  1  1  0  0  0
  8 12  1  0  0  0  0
  8 16  1  0  0  0  0
  9 27  1  6  0  0  0
  9 13  1  0  0  0  0
  9 25  1  0  0  0  0
 12 15  1  0  0  0  0
 13 24  1  1  0  0  0
 15  5  1  0  0  0  0
 16  3  1  0  0  0  0
 17 28  1  1  0  0  0
 17 10  1  0  0  0  0
 18 20  1  0  0  0  0
 19  6  1  6  0  0  0
 20 11  1  1  0  0  0
 20 13  1  0  0  0  0
 21 23  2  0  0  0  0
 21 26  1  0  0  0  0
 22 10  1  0  0  0  0
 23  4  1  0  0  0  0
 24 22  1  0  0  0  0
 25 14  1  6  0  0  0
 25 17  1  0  0  0  0
 26  1  2  0  0  0  0
 27  2  1  0  0  0  0
 28 29  1  0  0  0  0
 31 32  1  0  0  0  0
 31 33  1  0  0  0  0
 32 29  1  6  0  0  0
 32 34  1  0  0  0  0
 33 30  1  0  0  0  0
 34 30  1  0  0  0  0
M  END
>  <MODEL>
4

>  <REMARK>
 VINA RESULT:      -7.1      2.255      4.387
  Name = 
  3 active torsions:
  status: ('A' for Active; 'I' for Inactive)
    1  A    between atoms: C_17  and  O_28
    2  A    between atoms: O_28  and  C_29
    3  A    between atoms: C_29  and  C_32
                            x       y       z     vdW  Elec       q    Type
                         _______ _______ _______ _____ _____    ______ ____

>  <TORSDO>
F 3

$$$$
=
 OpenBabel11122412073D

 34 40  0  0  1  0  0  0  0  0999 V2000
  185.9620  178.5870  141.1910 C   0  0  0  0  0  0  0  0  0  0  0  0
  188.4160  177.9960  140.9030 C   0  0  0  0  0  2  0  0  0  0  0  0
  180.6060  180.7990  139.4530 C   0  0  1  0  0  3  0  0  0  0  0  0
  183.5450  178.7230  141.3560 C   0  0  0  0  0  0  0  0  0  0  0  0
  182.0960  178.7100  139.2770 C   0  0  1  0  0  3  0  0  0  0  0  0
  182.8740  180.9440  138.7280 O   0  0  0  0  0  1  0  0  0  0  0  0
  179.8530  181.7050  138.5010 C   0  0  0  0  0  1  0  0  0  0  0  0
  180.1200  179.7790  141.3660 C   0  0  0  0  0  2  0  0  0  0  0  0
  187.1150  178.5820  138.9450 C   0  0  2  0  0  3  0  0  0  0  0  0
  187.8440  176.8960  136.2760 C   0  0  0  0  0  2  0  0  0  0  0  0
  183.2870  178.0390  138.5850 C   0  0  0  0  0  2  0  0  0  0  0  0
  181.0430  178.5790  141.5550 C   0  0  0  0  0  2  0  0  0  0  0  0
  185.8150  177.9720  138.3860 C   0  0  1  0  0  3  0  0  0  0  0  0
  189.3230  177.8540  139.6940 C   0  0  0  0  0  2  0  0  0  0  0  0
  182.2450  178.7180  140.7370 N   0  0  0  0  0  0  0  0  0  0  0  0
  179.7200  179.8760  140.0270 O   0  0  0  0  0  0  0  0  0  0  0  0
  188.3100  176.6430  137.7070 C   0  0  2  0  0  3  0  0  0  0  0  0
  184.7060  178.6350  140.5630 C   0  0  0  0  0  0  0  0  0  0  0  0
  181.7560  180.1060  138.7120 C   0  0  2  0  0  3  0  0  0  0  0  0
  184.6090  178.6530  139.0530 C   0  0  2  0  0  3  0  0  0  0  0  0
  184.8650  178.7020  143.3380 C   0  0  0  0  0  3  0  0  0  0  0  0
  186.3280  176.9360  136.1790 C   0  0  0  0  0  2  0  0  0  0  0  0
  183.6580  178.7510  142.7140 N   0  0  0  0  0  0  0  0  0  0  0  0
  185.7540  178.1590  136.8760 C   0  0  0  0  0  2  0  0  0  0  0  0
  188.4430  177.9850  138.4480 C   0  0  1  0  0  3  0  0  0  0  0  0
  186.0380  178.6150  142.5880 C   0  0  0  0  0  3  0  0  0  0  0  0
  187.1450  178.4640  140.3910 N   0  0  0  0  0  0  0  0  0  0  0  0
  189.5440  175.9850  137.6560 O   0  0  0  0  0  0  0  0  0  0  0  0
  189.2630  174.7380  137.0920 C   0  0  0  0  0  2  0  0  0  0  0  0
  192.3320  173.7050  135.6110 C   0  0  0  0  0  2  0  0  0  0  0  0
  191.6960  174.6550  137.6290 C   0  0  0  0  0  2  0  0  0  0  0  0
  190.5000  173.8590  137.1360 C   0  0  2  0  0  3  0  0  0  0  0  0
  192.6450  174.7850  136.5320 N   0  0  0  0  0  2  0  0  0  0  0  0
  190.8550  173.4250  135.7370 C   0  0  0  0  0  2  0  0  0  0  0  0
  1 26  1  0  0  0  0
  3  7  1  6  0  0  0
  3 16  1  0  0  0  0
  4 23  2  0  0  0  0
  5 11  1  6  0  0  0
  5 15  1  0  0  0  0
  8 12  1  0  0  0  0
  9 27  1  1  0  0  0
 10 17  1  0  0  0  0
 13 24  1  6  0  0  0
 13  9  1  0  0  0  0
 13 20  1  0  0  0  0
 14  2  1  0  0  0  0
 15  4  1  0  0  0  0
 15 12  1  0  0  0  0
 16  8  1  0  0  0  0
 17 28  1  6  0  0  0
 17 25  1  0  0  0  0
 18  1  2  0  0  0  0
 18  4  1  0  0  0  0
 19  6  1  1  0  0  0
 19  5  1  0  0  0  0
 19  3  1  0  0  0  0
 20 11  1  1  0  0  0
 20 18  1  0  0  0  0
 22 10  1  0  0  0  0
 22 24  1  0  0  0  0
 23 21  1  0  0  0  0
 25  9  1  0  0  0  0
 25 14  1  1  0  0  0
 26 21  2  0  0  0  0
 27  2  1  0  0  0  0
 27  1  1  0  0  0  0
 29 28  1  0  0  0  0
 30 34  1  0  0  0  0
 30 33  1  0  0  0  0
 32 29  1  6  0  0  0
 32 31  1  0  0  0  0
 33 31  1  0  0  0  0
 34 32  1  0  0  0  0
M  END
>  <MODEL>
5

>  <REMARK>
 VINA RESULT:      -6.9      4.226      5.800
  Name = 
  3 active torsions:
  status: ('A' for Active; 'I' for Inactive)
    1  A    between atoms: C_17  and  O_28
    2  A    between atoms: O_28  and  C_29
    3  A    between atoms: C_29  and  C_32
                            x       y       z     vdW  Elec       q    Type
                         _______ _______ _______ _____ _____    ______ ____

>  <TORSDO>
F 3

$$$$
=
 OpenBabel11122412073D

 34 40  0  0  1  0  0  0  0  0999 V2000
  184.7530  178.3730  144.1550 C   0  0  0  0  0  0  0  0  0  0  0  0
  182.4400  178.8550  143.2190 C   0  0  0  0  0  2  0  0  0  0  0  0
  190.3100  175.9810  144.1010 C   0  0  1  0  0  3  0  0  0  0  0  0
  187.0670  178.3150  144.8810 C   0  0  0  0  0  0  0  0  0  0  0  0
  188.9470  177.9730  143.2150 C   0  0  1  0  0  3  0  0  0  0  0  0
  188.2600  175.6630  142.9240 O   0  0  0  0  0  1  0  0  0  0  0  0
  191.2360  174.9300  143.5250 C   0  0  0  0  0  1  0  0  0  0  0  0
  190.3780  177.3440  145.8540 C   0  0  0  0  0  2  0  0  0  0  0  0
  184.1350  177.9430  141.7450 C   0  0  2  0  0  3  0  0  0  0  0  0
  184.0610  179.0970  138.7190 C   0  0  0  0  0  2  0  0  0  0  0  0
  187.9570  178.4840  142.1620 C   0  0  0  0  0  2  0  0  0  0  0  0
  189.4640  178.5400  145.6080 C   0  0  0  0  0  2  0  0  0  0  0  0
  185.5400  178.4650  141.3910 C   0  0  1  0  0  3  0  0  0  0  0  0
  181.8320  178.7550  141.8320 C   0  0  0  0  0  2  0  0  0  0  0  0
  188.4730  178.2310  144.5800 N   0  0  0  0  0  0  0  0  0  0  0  0
  191.0660  177.0100  144.6800 O   0  0  0  0  0  0  0  0  0  0  0  0
  183.2920  179.5990  139.9360 C   0  0  2  0  0  3  0  0  0  0  0  0
  186.1170  178.2340  143.8450 C   0  0  0  0  0  0  0  0  0  0  0  0
  189.3720  176.5040  143.0060 C   0  0  2  0  0  3  0  0  0  0  0  0
  186.5490  177.9410  142.4250 C   0  0  2  0  0  3  0  0  0  0  0  0
  185.3370  178.6750  146.4770 C   0  0  0  0  0  3  0  0  0  0  0  0
  185.5600  179.0680  138.9730 C   0  0  0  0  0  2  0  0  0  0  0  0
  186.6520  178.5350  146.1600 N   0  0  0  0  0  0  0  0  0  0  0  0
  185.9340  178.0050  139.9940 C   0  0  0  0  0  2  0  0  0  0  0  0
  182.9650  178.4140  140.8620 C   0  0  1  0  0  3  0  0  0  0  0  0
  184.3650  178.6010  145.4800 C   0  0  0  0  0  3  0  0  0  0  0  0
  183.7830  178.3240  143.1000 N   0  0  0  0  0  0  0  0  0  0  0  0
  182.1170  180.2130  139.4900 O   0  0  0  0  0  0  0  0  0  0  0  0
  181.9030  179.6920  138.2120 C   0  0  0  0  0  2  0  0  0  0  0  0
  180.4530  182.3260  136.3040 C   0  0  0  0  0  2  0  0  0  0  0  0
  180.6080  180.0210  136.1070 C   0  0  0  0  0  2  0  0  0  0  0  0
  180.6700  180.3280  137.5930 C   0  0  2  0  0  3  0  0  0  0  0  0
  180.7960  181.2640  135.3730 N   0  0  0  0  0  2  0  0  0  0  0  0
  180.7780  181.8270  137.6900 C   0  0  0  0  0  2  0  0  0  0  0  0
  1 26  1  0  0  0  0
  3  7  1  6  0  0  0
  3 16  1  0  0  0  0
  4 23  2  0  0  0  0
  5 11  1  6  0  0  0
  5 15  1  0  0  0  0
  9 27  1  1  0  0  0
 10 22  1  0  0  0  0
 10 17  1  0  0  0  0
 12  8  1  0  0  0  0
 13 24  1  6  0  0  0
 13  9  1  0  0  0  0
 13 20  1  0  0  0  0
 14  2  1  0  0  0  0
 15  4  1  0  0  0  0
 15 12  1  0  0  0  0
 16  8  1  0  0  0  0
 17 28  1  6  0  0  0
 17 25  1  0  0  0  0
 18  1  2  0  0  0  0
 18  4  1  0  0  0  0
 19  6  1  1  0  0  0
 19  5  1  0  0  0  0
 19  3  1  0  0  0  0
 20 11  1  6  0  0  0
 20 18  1  0  0  0  0
 22 24  1  0  0  0  0
 23 21  1  0  0  0  0
 25  9  1  0  0  0  0
 25 14  1  1  0  0  0
 26 21  2  0  0  0  0
 27  2  1  0  0  0  0
 27  1  1  0  0  0  0
 29 28  1  0  0  0  0
 30 34  1  0  0  0  0
 31 32  1  0  0  0  0
 32 34  1  0  0  0  0
 32 29  1  6  0  0  0
 33 31  1  0  0  0  0
 33 30  1  0  0  0  0
M  END
>  <MODEL>
6

>  <REMARK>
 VINA RESULT:      -6.8      1.950      8.966
  Name = 
  3 active torsions:
  status: ('A' for Active; 'I' for Inactive)
    1  A    between atoms: C_17  and  O_28
    2  A    between atoms: O_28  and  C_29
    3  A    between atoms: C_29  and  C_32
                            x       y       z     vdW  Elec       q    Type
                         _______ _______ _______ _____ _____    ______ ____

>  <TORSDO>
F 3

$$$$
=
 OpenBabel11122412073D

 34 40  0  0  1  0  0  0  0  0999 V2000
  186.1570  175.9500  136.8630 C   0  0  0  0  0  0  0  0  0  0  0  0
  184.2170  177.1540  137.9790 C   0  0  0  0  0  2  0  0  0  0  0  0
  191.8770  175.2990  135.0040 C   0  0  1  0  0  3  0  0  0  0  0  0
  188.0490  174.5880  136.1920 C   0  0  0  0  0  0  0  0  0  0  0  0
  190.3760  175.0630  137.0790 C   0  0  1  0  0  3  0  0  0  0  0  0
  190.4690  177.0820  135.7330 O   0  0  0  0  0  1  0  0  0  0  0  0
  193.1860  175.9780  134.6570 C   0  0  0  0  0  1  0  0  0  0  0  0
  191.0170  173.2790  134.6670 C   0  0  0  0  0  2  0  0  0  0  0  0
  186.4700  177.9720  138.3440 C   0  0  2  0  0  3  0  0  0  0  0  0
  187.0430  179.0800  141.3340 C   0  0  0  0  0  2  0  0  0  0  0  0
  189.6680  175.7730  138.2380 C   0  0  0  0  0  2  0  0  0  0  0  0
  189.9390  173.0010  135.7100 C   0  0  0  0  0  2  0  0  0  0  0  0
  187.7170  177.2570  138.8940 C   0  0  1  0  0  3  0  0  0  0  0  0
  184.1280  178.3230  138.9440 C   0  0  0  0  0  2  0  0  0  0  0  0
  189.4450  174.2490  136.2880 N   0  0  0  0  0  0  0  0  0  0  0  0
  192.1030  173.9390  135.2570 O   0  0  0  0  0  0  0  0  0  0  0  0
  185.8240  178.3120  140.8320 C   0  0  2  0  0  3  0  0  0  0  0  0
  187.5320  175.6700  136.9310 C   0  0  0  0  0  0  0  0  0  0  0  0
  191.2270  176.0060  136.2000 C   0  0  2  0  0  3  0  0  0  0  0  0
  188.4520  176.5590  137.7390 C   0  0  2  0  0  3  0  0  0  0  0  0
  185.8760  174.0830  135.3610 C   0  0  0  0  0  3  0  0  0  0  0  0
  188.3330  178.3240  141.0610 C   0  0  0  0  0  2  0  0  0  0  0  0
  187.2090  173.8280  135.4350 N   0  0  0  0  0  0  0  0  0  0  0  0
  188.6410  178.2600  139.5730 C   0  0  0  0  0  2  0  0  0  0  0  0
  185.5570  178.6790  139.3610 C   0  0  1  0  0  3  0  0  0  0  0  0
  185.3250  175.1450  136.0780 C   0  0  0  0  0  3  0  0  0  0  0  0
  185.6200  177.0300  137.6390 N   0  0  0  0  0  0  0  0  0  0  0  0
  184.7290  178.6570  141.6310 O   0  0  0  0  0  0  0  0  0  0  0  0
  185.2880  179.1640  142.8070 C   0  0  0  0  0  2  0  0  0  0  0  0
  185.9340  178.1320  146.1530 C   0  0  0  0  0  2  0  0  0  0  0  0
  184.1050  178.9620  144.9920 C   0  0  0  0  0  2  0  0  0  0  0  0
  184.9700  178.2430  143.9710 C   0  0  2  0  0  3  0  0  0  0  0  0
  184.8830  179.1350  146.2110 N   0  0  0  0  0  2  0  0  0  0  0  0
  186.2430  177.8940  144.6960 C   0  0  0  0  0  2  0  0  0  0  0  0
  1 18  1  0  0  0  0
  1 27  1  0  0  0  0
  2 14  1  0  0  0  0
  3  7  1  1  0  0  0
  3 16  1  0  0  0  0
  3 19  1  0  0  0  0
  4 15  1  0  0  0  0
  4 18  2  0  0  0  0
  5 11  1  1  0  0  0
  8 16  1  0  0  0  0
  8 12  1  0  0  0  0
  9 27  1  1  0  0  0
  9 13  1  0  0  0  0
  9 25  1  0  0  0  0
 12 15  1  0  0  0  0
 13 24  1  6  0  0  0
 15  5  1  0  0  0  0
 17 10  1  0  0  0  0
 17 28  1  1  0  0  0
 18 20  1  0  0  0  0
 19  6  1  6  0  0  0
 19  5  1  0  0  0  0
 20 11  1  1  0  0  0
 20 13  1  0  0  0  0
 21 23  2  0  0  0  0
 21 26  1  0  0  0  0
 22 10  1  0  0  0  0
 23  4  1  0  0  0  0
 24 22  1  0  0  0  0
 25 14  1  6  0  0  0
 25 17  1  0  0  0  0
 26  1  2  0  0  0  0
 27  2  1  0  0  0  0
 28 29  1  0  0  0  0
 30 33  1  0  0  0  0
 31 33  1  0  0  0  0
 32 29  1  6  0  0  0
 32 34  1  0  0  0  0
 32 31  1  0  0  0  0
 34 30  1  0  0  0  0
M  END
>  <MODEL>
7

>  <REMARK>
 VINA RESULT:      -6.7      5.648      8.279
  Name = 
  3 active torsions:
  status: ('A' for Active; 'I' for Inactive)
    1  A    between atoms: C_17  and  O_28
    2  A    between atoms: O_28  and  C_29
    3  A    between atoms: C_29  and  C_32
                            x       y       z     vdW  Elec       q    Type
                         _______ _______ _______ _____ _____    ______ ____

>  <TORSDO>
F 3

$$$$
=
 OpenBabel11122412073D

 34 40  0  0  1  0  0  0  0  0999 V2000
  188.2350  177.0200  138.3350 C   0  0  0  0  0  0  0  0  0  0  0  0
  189.7690  176.1860  136.4890 C   0  0  0  0  0  2  0  0  0  0  0  0
  186.3760  177.6700  144.0550 C   0  0  1  0  0  3  0  0  0  0  0  0
  187.0100  178.1950  140.0690 C   0  0  0  0  0  0  0  0  0  0  0  0
  188.0490  178.6100  142.3430 C   0  0  1  0  0  3  0  0  0  0  0  0
  187.8630  176.2430  142.8530 O   0  0  0  0  0  1  0  0  0  0  0  0
  186.4240  177.1440  145.4750 C   0  0  0  0  0  1  0  0  0  0  0  0
  185.0830  179.1000  142.9530 C   0  0  0  0  0  2  0  0  0  0  0  0
  190.5190  176.0430  138.7900 C   0  0  2  0  0  3  0  0  0  0  0  0
  193.6760  176.6210  139.2250 C   0  0  0  0  0  2  0  0  0  0  0  0
  189.3980  178.4330  141.6370 C   0  0  0  0  0  2  0  0  0  0  0  0
  185.8410  179.6540  141.7500 C   0  0  0  0  0  2  0  0  0  0  0  0
  190.6680  177.1360  139.8640 C   0  0  1  0  0  3  0  0  0  0  0  0
  191.1810  175.6270  136.4750 C   0  0  0  0  0  2  0  0  0  0  0  0
  186.9480  178.7720  141.3860 N   0  0  0  0  0  0  0  0  0  0  0  0
  185.9360  179.0010  144.0600 O   0  0  0  0  0  0  0  0  0  0  0  0
  192.8460  176.8320  137.9630 C   0  0  2  0  0  3  0  0  0  0  0  0
  188.1760  177.5290  139.6430 C   0  0  0  0  0  0  0  0  0  0  0  0
  187.7560  177.5240  143.4010 C   0  0  2  0  0  3  0  0  0  0  0  0
  189.3290  177.3090  140.5990 C   0  0  2  0  0  3  0  0  0  0  0  0
  186.0080  177.8590  137.9360 C   0  0  0  0  0  3  0  0  0  0  0  0
  193.0870  177.3620  140.4150 C   0  0  0  0  0  2  0  0  0  0  0  0
  185.9660  178.3420  139.2050 N   0  0  0  0  0  0  0  0  0  0  0  0
  191.7630  176.7570  140.8510 C   0  0  0  0  0  2  0  0  0  0  0  0
  191.7390  175.7650  137.8930 C   0  0  1  0  0  3  0  0  0  0  0  0
  187.1450  177.1940  137.4760 C   0  0  0  0  0  3  0  0  0  0  0  0
  189.4320  176.3700  137.8850 N   0  0  0  0  0  0  0  0  0  0  0  0
  193.6970  176.7300  136.8570 O   0  0  0  0  0  0  0  0  0  0  0  0
  194.4050  175.5430  137.0560 C   0  0  0  0  0  2  0  0  0  0  0  0
  197.0200  176.7120  134.9410 C   0  0  0  0  0  2  0  0  0  0  0  0
  196.7290  174.9300  136.3960 C   0  0  0  0  0  2  0  0  0  0  0  0
  195.3450  175.2980  135.8900 C   0  0  2  0  0  3  0  0  0  0  0  0
  197.6480  176.0040  136.0430 N   0  0  0  0  0  2  0  0  0  0  0  0
  195.5280  176.5780  135.1160 C   0  0  0  0  0  2  0  0  0  0  0  0
  1 18  1  0  0  0  0
  2 27  1  0  0  0  0
  3 16  1  0  0  0  0
  3  7  1  1  0  0  0
  4 15  1  0  0  0  0
  5 11  1  6  0  0  0
  5 19  1  0  0  0  0
  8 16  1  0  0  0  0
  9 27  1  6  0  0  0
  9 13  1  0  0  0  0
 10 22  1  0  0  0  0
 12  8  1  0  0  0  0
 13 20  1  0  0  0  0
 13 24  1  1  0  0  0
 14  2  1  0  0  0  0
 15 12  1  0  0  0  0
 15  5  1  0  0  0  0
 17 28  1  6  0  0  0
 17 10  1  0  0  0  0
 18  4  2  0  0  0  0
 18 20  1  0  0  0  0
 19  6  1  6  0  0  0
 19  3  1  0  0  0  0
 20 11  1  1  0  0  0
 21 23  2  0  0  0  0
 22 24  1  0  0  0  0
 23  4  1  0  0  0  0
 25 14  1  6  0  0  0
 25 17  1  0  0  0  0
 25  9  1  0  0  0  0
 26 21  1  0  0  0  0
 26  1  2  0  0  0  0
 27  1  1  0  0  0  0
 28 29  1  0  0  0  0
 30 34  1  0  0  0  0
 30 33  1  0  0  0  0
 32 31  1  0  0  0  0
 32 29  1  1  0  0  0
 33 31  1  0  0  0  0
 34 32  1  0  0  0  0
M  END
>  <MODEL>
8

>  <REMARK>
 VINA RESULT:      -6.7      6.138      8.976
  Name = 
  3 active torsions:
  status: ('A' for Active; 'I' for Inactive)
    1  A    between atoms: C_17  and  O_28
    2  A    between atoms: O_28  and  C_29
    3  A    between atoms: C_29  and  C_32
                            x       y       z     vdW  Elec       q    Type
                         _______ _______ _______ _____ _____    ______ ____

>  <TORSDO>
F 3

$$$$
=
 OpenBabel11122412073D

 34 40  0  0  1  0  0  0  0  0999 V2000
  187.9040  177.8320  140.3520 C   0  0  0  0  0  0  0  0  0  0  0  0
  186.0350  178.7280  138.8810 C   0  0  0  0  0  2  0  0  0  0  0  0
  191.0740  177.2830  145.4760 C   0  0  1  0  0  3  0  0  0  0  0  0
  189.4150  176.6260  141.8170 C   0  0  0  0  0  0  0  0  0  0  0  0
  188.9480  176.4370  144.3010 C   0  0  1  0  0  3  0  0  0  0  0  0
  189.4650  178.7940  144.5710 O   0  0  0  0  0  1  0  0  0  0  0  0
  191.4310  177.8820  146.8200 C   0  0  0  0  0  1  0  0  0  0  0  0
  191.9170  175.6710  144.2000 C   0  0  0  0  0  2  0  0  0  0  0  0
  185.9030  179.0640  141.2780 C   0  0  2  0  0  3  0  0  0  0  0  0
  182.9170  178.8410  142.5150 C   0  0  0  0  0  2  0  0  0  0  0  0
  187.4870  176.7170  143.9350 C   0  0  0  0  0  2  0  0  0  0  0  0
  190.8350  175.1400  143.2660 C   0  0  0  0  0  2  0  0  0  0  0  0
  185.9320  178.0480  142.4350 C   0  0  1  0  0  3  0  0  0  0  0  0
  184.7210  179.4290  139.1710 C   0  0  0  0  0  2  0  0  0  0  0  0
  189.7550  176.1120  143.1180 N   0  0  0  0  0  0  0  0  0  0  0  0
  191.3820  175.9150  145.4720 O   0  0  0  0  0  0  0  0  0  0  0  0
  183.3820  178.4820  141.1080 C   0  0  2  0  0  3  0  0  0  0  0  0
  188.2440  177.3870  141.6410 C   0  0  0  0  0  0  0  0  0  0  0  0
  189.5930  177.5390  145.1700 C   0  0  2  0  0  3  0  0  0  0  0  0
  187.3920  177.7740  142.8300 C   0  0  2  0  0  3  0  0  0  0  0  0
  189.8760  176.7470  139.4840 C   0  0  0  0  0  3  0  0  0  0  0  0
  183.7180  178.1040  143.5770 C   0  0  0  0  0  2  0  0  0  0  0  0
  190.1920  176.3270  140.7370 N   0  0  0  0  0  0  0  0  0  0  0  0
  185.1580  178.5900  143.6290 C   0  0  0  0  0  2  0  0  0  0  0  0
  184.5260  179.4220  140.6890 C   0  0  1  0  0  3  0  0  0  0  0  0
  188.7240  177.5030  139.2680 C   0  0  0  0  0  3  0  0  0  0  0  0
  186.6950  178.5800  140.1620 N   0  0  0  0  0  0  0  0  0  0  0  0
  182.2940  178.6150  140.2390 O   0  0  0  0  0  0  0  0  0  0  0  0
  181.2520  179.0900  141.0390 C   0  0  0  0  0  2  0  0  0  0  0  0
  179.3250  181.8450  139.8650 C   0  0  0  0  0  2  0  0  0  0  0  0
  180.6870  180.2360  138.8980 C   0  0  0  0  0  2  0  0  0  0  0  0
  180.1260  179.6150  140.1660 C   0  0  2  0  0  3  0  0  0  0  0  0
  180.4280  181.6680  138.9350 N   0  0  0  0  0  2  0  0  0  0  0  0
  179.4180  180.7350  140.8830 C   0  0  0  0  0  2  0  0  0  0  0  0
  1 18  1  0  0  0  0
  2 14  1  0  0  0  0
  2 27  1  0  0  0  0
  3  7  1  1  0  0  0
  4 15  1  0  0  0  0
  5 11  1  6  0  0  0
  5 19  1  0  0  0  0
  8 16  1  0  0  0  0
  9 27  1  6  0  0  0
  9 13  1  0  0  0  0
 10 22  1  0  0  0  0
 12  8  1  0  0  0  0
 13 20  1  0  0  0  0
 13 24  1  1  0  0  0
 15 12  1  0  0  0  0
 15  5  1  0  0  0  0
 16  3  1  0  0  0  0
 17 28  1  6  0  0  0
 17 10  1  0  0  0  0
 18  4  2  0  0  0  0
 18 20  1  0  0  0  0
 19  6  1  6  0  0  0
 19  3  1  0  0  0  0
 20 11  1  1  0  0  0
 21 23  2  0  0  0  0
 22 24  1  0  0  0  0
 23  4  1  0  0  0  0
 25 14  1  6  0  0  0
 25 17  1  0  0  0  0
 25  9  1  0  0  0  0
 26 21  1  0  0  0  0
 26  1  2  0  0  0  0
 27  1  1  0  0  0  0
 28 29  1  0  0  0  0
 30 34  1  0  0  0  0
 31 33  1  0  0  0  0
 31 32  1  0  0  0  0
 32 34  1  0  0  0  0
 32 29  1  1  0  0  0
 33 30  1  0  0  0  0
M  END
>  <MODEL>
9

>  <REMARK>
 VINA RESULT:      -6.7      2.457      9.477
  Name = 
  3 active torsions:
  status: ('A' for Active; 'I' for Inactive)
    1  A    between atoms: C_17  and  O_28
    2  A    between atoms: O_28  and  C_29
    3  A    between atoms: C_29  and  C_32
                            x       y       z     vdW  Elec       q    Type
                         _______ _______ _______ _____ _____    ______ ____

>  <TORSDO>
F 3

$$$$
