=
 OpenBabel11122411043D

 31 35  0  0  1  0  0  0  0  0999 V2000
  190.2510  177.0050  146.3250 C   0  0  0  0  0  0  0  0  0  0  0  0
  187.7530  177.8180  143.6030 N   0  0  0  0  0  0  0  0  0  0  0  0
  186.4990  178.1390  144.2600 C   0  0  0  0  0  0  0  0  0  0  0  0
  191.3050  177.0140  139.6650 O   0  0  0  0  0  0  0  0  0  0  0  0
  190.1920  177.3270  139.1670 C   0  0  0  0  0  0  0  0  0  0  0  0
  185.1140  178.4410  146.2420 C   0  0  0  0  0  0  0  0  0  0  0  0
  188.9780  177.4460  144.2920 C   0  0  0  0  0  0  0  0  0  0  0  0
  191.3850  176.7210  145.5660 C   0  0  0  0  0  3  0  0  0  0  0  0
  186.3420  178.1240  145.6550 C   0  0  0  0  0  3  0  0  0  0  0  0
  189.0390  177.5500  141.4390 C   0  0  0  0  0  0  0  0  0  0  0  0
  190.3040  176.9330  147.6770 F   0  0  0  0  0  0  0  0  0  0  0  0
  185.5270  178.5030  142.0800 O   0  0  0  0  0  0  0  0  0  0  0  0
  184.9820  178.4210  147.5900 F   0  0  0  0  0  0  0  0  0  0  0  0
  190.1050  177.2230  142.1070 N   0  0  0  0  0  0  0  0  0  0  0  0
  187.7890  177.8680  142.1560 C   0  0  0  0  0  0  0  0  0  0  0  0
  189.0630  177.6030  140.0070 N   0  0  0  0  0  2  0  0  0  0  0  0
  189.0580  177.3640  145.6920 C   0  0  0  0  0  3  0  0  0  0  0  0
  184.0230  178.7800  145.4390 C   0  0  0  0  0  3  0  0  0  0  0  0
  190.1350  177.1550  143.5370 C   0  0  0  0  0  0  0  0  0  0  0  0
  191.3270  176.7960  144.1730 C   0  0  0  0  0  3  0  0  0  0  0  0
  186.7300  178.1930  141.4750 N   0  0  0  0  0  0  0  0  0  0  0  0
  185.3900  178.4820  143.4660 C   0  0  0  0  0  0  0  0  0  0  0  0
  184.1620  178.8000  144.0500 C   0  0  0  0  0  3  0  0  0  0  0  0
  187.2810  177.0150  136.7660 C   0  0  1  0  0  3  0  0  0  0  0  0
  189.1760  178.5920  137.2510 C   0  0  0  0  0  2  0  0  0  0  0  0
  190.4490  174.9190  137.4030 C   0  0  0  0  0  1  0  0  0  0  0  0
  185.9340  176.7560  137.0130 O   0  0  0  0  0  1  0  0  0  0  0  0
  187.6950  178.2920  137.4920 C   0  0  0  0  0  2  0  0  0  0  0  0
  189.6020  176.1120  136.9950 C   0  0  2  0  0  3  0  0  0  0  0  0
  190.0650  177.4170  137.6720 C   0  0  2  0  0  3  0  0  0  0  0  0
  188.1210  175.8350  137.2440 C   0  0  0  0  0  2  0  0  0  0  0  0
  1 11  1  0  0  0  0
  2  3  1  0  0  0  0
  2  7  1  0  0  0  0
  3  9  1  0  0  0  0
  5  4  2  0  0  0  0
  5 16  1  0  0  0  0
  6 13  1  0  0  0  0
  7 17  2  0  0  0  0
  8  1  2  0  0  0  0
  9  6  2  0  0  0  0
 10 14  2  0  0  0  0
 10 15  1  0  0  0  0
 12 22  1  0  0  0  0
 14 19  1  0  0  0  0
 15  2  1  0  0  0  0
 16 10  1  0  0  0  0
 17  1  1  0  0  0  0
 18  6  1  0  0  0  0
 19 20  2  0  0  0  0
 19  7  1  0  0  0  0
 20  8  1  0  0  0  0
 21 12  1  0  0  0  0
 21 15  2  0  0  0  0
 22 23  1  0  0  0  0
 22  3  2  0  0  0  0
 23 18  2  0  0  0  0
 24 27  1  1  0  0  0
 24 31  1  0  0  0  0
 24 28  1  0  0  0  0
 25 28  1  0  0  0  0
 25 30  1  0  0  0  0
 29 31  1  0  0  0  0
 29 26  1  1  0  0  0
 29 30  1  0  0  0  0
 30  5  1  1  0  0  0
M  END
>  <MODEL>
1

>  <REMARK>
 VINA RESULT:     -11.7      0.000      0.000
  Name = 
  1 active torsions:
  status: ('A' for Active; 'I' for Inactive)
    1  A    between atoms: C_5  and  C_30
                            x       y       z     vdW  Elec       q    Type
                         _______ _______ _______ _____ _____    ______ ____

>  <TORSDO>
F 1

$$$$
=
 OpenBabel11122411043D

 31 35  0  0  1  0  0  0  0  0999 V2000
  184.3130  178.6320  144.7620 C   0  0  0  0  0  0  0  0  0  0  0  0
  187.9300  177.8510  143.9790 N   0  0  0  0  0  0  0  0  0  0  0  0
  188.5870  177.5680  145.2440 C   0  0  0  0  0  0  0  0  0  0  0  0
  187.2640  178.5230  138.7000 O   0  0  0  0  0  0  0  0  0  0  0  0
  188.4660  178.2320  138.9370 C   0  0  0  0  0  0  0  0  0  0  0  0
  188.5900  177.3220  147.6680 C   0  0  0  0  0  0  0  0  0  0  0  0
  186.5270  178.1990  143.8350 C   0  0  0  0  0  0  0  0  0  0  0  0
  183.8140  178.8790  143.4840 C   0  0  0  0  0  3  0  0  0  0  0  0
  187.9150  177.6020  146.4770 C   0  0  0  0  0  3  0  0  0  0  0  0
  188.1120  178.0630  141.4630 C   0  0  0  0  0  0  0  0  0  0  0  0
  183.4940  178.7170  145.8370 F   0  0  0  0  0  0  0  0  0  0  0  0
  190.6360  177.2040  144.0220 O   0  0  0  0  0  0  0  0  0  0  0  0
  187.9250  177.3600  148.8480 F   0  0  0  0  0  0  0  0  0  0  0  0
  186.8510  178.3700  141.3940 N   0  0  0  0  0  0  0  0  0  0  0  0
  188.7300  177.7840  142.7740 C   0  0  0  0  0  0  0  0  0  0  0  0
  188.9140  177.9930  140.2770 N   0  0  0  0  0  2  0  0  0  0  0  0
  185.6570  178.2950  144.9340 C   0  0  0  0  0  3  0  0  0  0  0  0
  189.9490  177.0020  147.6420 C   0  0  0  0  0  3  0  0  0  0  0  0
  186.0070  178.4540  142.5460 C   0  0  0  0  0  0  0  0  0  0  0  0
  184.6600  178.7900  142.3780 C   0  0  0  0  0  3  0  0  0  0  0  0
  189.9930  177.4770  142.8300 N   0  0  0  0  0  0  0  0  0  0  0  0
  189.9540  177.2440  145.2350 C   0  0  0  0  0  0  0  0  0  0  0  0
  190.6310  176.9630  146.4250 C   0  0  0  0  0  3  0  0  0  0  0  0
  188.5610  176.1290  135.7900 C   0  0  1  0  0  3  0  0  0  0  0  0
  188.7720  178.5400  136.4640 C   0  0  0  0  0  2  0  0  0  0  0  0
  190.7560  176.3000  138.9500 C   0  0  0  0  0  1  0  0  0  0  0  0
  187.6740  175.1570  135.3300 O   0  0  0  0  0  1  0  0  0  0  0  0
  187.8250  177.4570  135.9430 C   0  0  0  0  0  2  0  0  0  0  0  0
  190.1090  176.7530  137.6520 C   0  0  2  0  0  3  0  0  0  0  0  0
  189.4280  178.1280  137.7860 C   0  0  2  0  0  3  0  0  0  0  0  0
  189.1480  175.6880  137.1270 C   0  0  0  0  0  2  0  0  0  0  0  0
  1 17  1  0  0  0  0
  1 11  1  0  0  0  0
  2  3  1  0  0  0  0
  3  9  1  0  0  0  0
  4  5  2  0  0  0  0
  5 16  1  0  0  0  0
  6 13  1  0  0  0  0
  7  2  1  0  0  0  0
  7 17  2  0  0  0  0
  8  1  2  0  0  0  0
  9  6  2  0  0  0  0
 10 15  1  0  0  0  0
 12 22  1  0  0  0  0
 14 10  2  0  0  0  0
 14 19  1  0  0  0  0
 15 21  2  0  0  0  0
 15  2  1  0  0  0  0
 16 10  1  0  0  0  0
 18  6  1  0  0  0  0
 19  7  1  0  0  0  0
 20 19  2  0  0  0  0
 20  8  1  0  0  0  0
 21 12  1  0  0  0  0
 22  3  2  0  0  0  0
 22 23  1  0  0  0  0
 23 18  2  0  0  0  0
 24 27  1  1  0  0  0
 24 28  1  0  0  0  0
 24 31  1  0  0  0  0
 25 30  1  0  0  0  0
 28 25  1  0  0  0  0
 29 30  1  0  0  0  0
 29 26  1  1  0  0  0
 30  5  1  1  0  0  0
 31 29  1  0  0  0  0
M  END
>  <MODEL>
2

>  <REMARK>
 VINA RESULT:     -11.5      1.621      4.066
  Name = 
  1 active torsions:
  status: ('A' for Active; 'I' for Inactive)
    1  A    between atoms: C_5  and  C_30
                            x       y       z     vdW  Elec       q    Type
                         _______ _______ _______ _____ _____    ______ ____

>  <TORSDO>
F 1

$$$$
=
 OpenBabel11122411043D

 31 35  0  0  1  0  0  0  0  0999 V2000
  190.4490  177.1590  145.1420 C   0  0  0  0  0  0  0  0  0  0  0  0
  187.4050  178.1020  143.1030 N   0  0  0  0  0  0  0  0  0  0  0  0
  186.3140  178.3070  144.0390 C   0  0  0  0  0  0  0  0  0  0  0  0
  190.0450  177.8150  138.4430 O   0  0  0  0  0  0  0  0  0  0  0  0
  188.8430  178.1220  138.2260 C   0  0  0  0  0  0  0  0  0  0  0  0
  185.3810  178.3670  146.2900 C   0  0  0  0  0  0  0  0  0  0  0  0
  188.7580  177.7250  143.4780 C   0  0  0  0  0  0  0  0  0  0  0  0
  191.4000  176.9960  144.1360 C   0  0  0  0  0  3  0  0  0  0  0  0
  186.4610  178.1590  145.4280 C   0  0  0  0  0  3  0  0  0  0  0  0
  188.2020  178.0870  140.7000 C   0  0  0  0  0  0  0  0  0  0  0  0
  190.7940  176.9690  146.4380 F   0  0  0  0  0  0  0  0  0  0  0  0
  184.8880  178.8220  142.1620 O   0  0  0  0  0  0  0  0  0  0  0  0
  185.5430  178.2200  147.6270 F   0  0  0  0  0  0  0  0  0  0  0  0
  189.3940  177.7500  141.0930 N   0  0  0  0  0  0  0  0  0  0  0  0
  187.1280  178.2840  141.6940 C   0  0  0  0  0  0  0  0  0  0  0  0
  187.9150  178.2710  139.3080 N   0  0  0  0  0  2  0  0  0  0  0  0
  189.1400  177.5210  144.8140 C   0  0  0  0  0  3  0  0  0  0  0  0
  184.1350  178.7270  145.7730 C   0  0  0  0  0  3  0  0  0  0  0  0
  189.7330  177.5550  142.4700 C   0  0  0  0  0  0  0  0  0  0  0  0
  191.0410  177.1930  142.8010 C   0  0  0  0  0  3  0  0  0  0  0  0
  185.9390  178.6220  141.2870 N   0  0  0  0  0  0  0  0  0  0  0  0
  185.0530  178.6700  143.5350 C   0  0  0  0  0  0  0  0  0  0  0  0
  183.9710  178.8790  144.3950 C   0  0  0  0  0  3  0  0  0  0  0  0
  186.3610  176.3690  135.9660 C   0  0  1  0  0  3  0  0  0  0  0  0
  186.9080  178.6990  136.7340 C   0  0  0  0  0  2  0  0  0  0  0  0
  190.1900  176.7800  135.9100 C   0  0  0  0  0  1  0  0  0  0  0  0
  185.5520  175.2600  136.2070 O   0  0  0  0  0  1  0  0  0  0  0  0
  186.0220  177.4730  136.9650 C   0  0  0  0  0  2  0  0  0  0  0  0
  188.7250  177.1770  135.8520 C   0  0  2  0  0  3  0  0  0  0  0  0
  188.3960  178.3410  136.8070 C   0  0  2  0  0  3  0  0  0  0  0  0
  187.8270  175.9670  136.0960 C   0  0  0  0  0  2  0  0  0  0  0  0
  1 11  1  0  0  0  0
  2  7  1  0  0  0  0
  2  3  1  0  0  0  0
  3  9  1  0  0  0  0
  5  4  2  0  0  0  0
  5 16  1  0  0  0  0
  6 13  1  0  0  0  0
  7 17  2  0  0  0  0
  8  1  2  0  0  0  0
  9  6  2  0  0  0  0
 10 14  2  0  0  0  0
 10 15  1  0  0  0  0
 12 22  1  0  0  0  0
 14 19  1  0  0  0  0
 15  2  1  0  0  0  0
 16 10  1  0  0  0  0
 17  1  1  0  0  0  0
 18  6  1  0  0  0  0
 19 20  2  0  0  0  0
 19  7  1  0  0  0  0
 20  8  1  0  0  0  0
 21 15  2  0  0  0  0
 21 12  1  0  0  0  0
 22  3  2  0  0  0  0
 22 23  1  0  0  0  0
 23 18  2  0  0  0  0
 24 31  1  0  0  0  0
 24 27  1  1  0  0  0
 24 28  1  0  0  0  0
 25 30  1  0  0  0  0
 25 28  1  0  0  0  0
 29 26  1  1  0  0  0
 29 31  1  0  0  0  0
 29 30  1  0  0  0  0
 30  5  1  1  0  0  0
M  END
>  <MODEL>
3

>  <REMARK>
 VINA RESULT:     -10.4      1.144      1.341
  Name = 
  1 active torsions:
  status: ('A' for Active; 'I' for Inactive)
    1  A    between atoms: C_5  and  C_30
                            x       y       z     vdW  Elec       q    Type
                         _______ _______ _______ _____ _____    ______ ____

>  <TORSDO>
F 1

$$$$
=
 OpenBabel11122411043D

 31 35  0  0  1  0  0  0  0  0999 V2000
  186.3320  178.1380  146.8670 C   0  0  0  0  0  0  0  0  0  0  0  0
  187.6020  178.0670  143.3050 N   0  0  0  0  0  0  0  0  0  0  0  0
  189.0250  177.7830  143.3670 C   0  0  0  0  0  0  0  0  0  0  0  0
  182.7690  179.1080  141.2250 O   0  0  0  0  0  0  0  0  0  0  0  0
  183.6120  179.0060  140.2950 C   0  0  0  0  0  0  0  0  0  0  0  0
  191.0820  177.3150  144.5850 C   0  0  0  0  0  0  0  0  0  0  0  0
  186.7290  178.1810  144.4610 C   0  0  0  0  0  0  0  0  0  0  0  0
  184.9810  178.4160  146.6600 C   0  0  0  0  0  3  0  0  0  0  0  0
  189.7120  177.5860  144.5760 C   0  0  0  0  0  3  0  0  0  0  0  0
  185.5650  178.5430  141.8780 C   0  0  0  0  0  0  0  0  0  0  0  0
  186.8060  177.9800  148.1260 F   0  0  0  0  0  0  0  0  0  0  0  0
  189.0850  177.8930  140.9570 O   0  0  0  0  0  0  0  0  0  0  0  0
  191.7280  177.1270  145.7620 F   0  0  0  0  0  0  0  0  0  0  0  0
  184.8320  178.6340  142.9470 N   0  0  0  0  0  0  0  0  0  0  0  0
  187.0070  178.2510  141.9970 C   0  0  0  0  0  0  0  0  0  0  0  0
  184.9880  178.7230  140.5790 N   0  0  0  0  0  2  0  0  0  0  0  0
  187.1960  178.0230  145.7760 C   0  0  0  0  0  3  0  0  0  0  0  0
  191.7870  177.2360  143.3830 C   0  0  0  0  0  3  0  0  0  0  0  0
  185.3580  178.4630  144.2670 C   0  0  0  0  0  0  0  0  0  0  0  0
  184.4950  178.5770  145.3610 C   0  0  0  0  0  3  0  0  0  0  0  0
  187.7300  178.1630  140.9190 N   0  0  0  0  0  0  0  0  0  0  0  0
  189.7490  177.7010  142.1650 C   0  0  0  0  0  0  0  0  0  0  0  0
  191.1190  177.4300  142.1720 C   0  0  0  0  0  3  0  0  0  0  0  0
  180.2030  179.1390  138.6520 C   0  0  1  0  0  3  0  0  0  0  0  0
  182.3370  180.4640  138.6970 C   0  0  0  0  0  2  0  0  0  0  0  0
  183.1510  176.6670  138.4820 C   0  0  0  0  0  1  0  0  0  0  0  0
  178.9310  179.0260  139.2080 O   0  0  0  0  0  1  0  0  0  0  0  0
  180.9290  180.3260  139.2790 C   0  0  0  0  0  2  0  0  0  0  0  0
  182.3850  177.9660  138.3070 C   0  0  2  0  0  3  0  0  0  0  0  0
  183.1500  179.1780  138.8750 C   0  0  2  0  0  3  0  0  0  0  0  0
  180.9810  177.8500  138.8970 C   0  0  0  0  0  2  0  0  0  0  0  0
  1 11  1  0  0  0  0
  2  3  1  0  0  0  0
  2  7  1  0  0  0  0
  3  9  1  0  0  0  0
  5 16  1  0  0  0  0
  5  4  2  0  0  0  0
  6 13  1  0  0  0  0
  7 17  1  0  0  0  0
  8  1  1  0  0  0  0
  9  6  2  0  0  0  0
 10 15  1  0  0  0  0
 10 14  2  0  0  0  0
 12 22  1  0  0  0  0
 14 19  1  0  0  0  0
 15  2  1  0  0  0  0
 16 10  1  0  0  0  0
 17  1  2  0  0  0  0
 18  6  1  0  0  0  0
 19  7  2  0  0  0  0
 19 20  1  0  0  0  0
 20  8  2  0  0  0  0
 21 12  1  0  0  0  0
 21 15  2  0  0  0  0
 22 23  1  0  0  0  0
 22  3  2  0  0  0  0
 23 18  2  0  0  0  0
 24 31  1  0  0  0  0
 24 27  1  1  0  0  0
 24 28  1  0  0  0  0
 25 30  1  0  0  0  0
 25 28  1  0  0  0  0
 29 26  1  1  0  0  0
 29 30  1  0  0  0  0
 29 31  1  0  0  0  0
 30  5  1  1  0  0  0
M  END
>  <MODEL>
4

>  <REMARK>
 VINA RESULT:     -10.2      3.312      5.866
  Name = 
  1 active torsions:
  status: ('A' for Active; 'I' for Inactive)
    1  A    between atoms: C_5  and  C_30
                            x       y       z     vdW  Elec       q    Type
                         _______ _______ _______ _____ _____    ______ ____

>  <TORSDO>
F 1

$$$$
=
 OpenBabel11122411043D

 31 35  0  0  1  0  0  0  0  0999 V2000
  186.9020  178.2500  147.3290 C   0  0  0  0  0  0  0  0  0  0  0  0
  187.4700  177.9330  143.6030 N   0  0  0  0  0  0  0  0  0  0  0  0
  188.8900  177.6970  143.4080 C   0  0  0  0  0  0  0  0  0  0  0  0
  182.2880  178.6620  142.4300 O   0  0  0  0  0  0  0  0  0  0  0  0
  182.9410  178.5120  141.3640 C   0  0  0  0  0  0  0  0  0  0  0  0
  191.1620  177.3880  144.2360 C   0  0  0  0  0  0  0  0  0  0  0  0
  186.8310  178.1130  144.8950 C   0  0  0  0  0  0  0  0  0  0  0  0
  185.5270  178.4700  147.3680 C   0  0  0  0  0  3  0  0  0  0  0  0
  189.8030  177.6180  144.4720 C   0  0  0  0  0  3  0  0  0  0  0  0
  185.1800  178.2330  142.5680 C   0  0  0  0  0  0  0  0  0  0  0  0
  187.6150  178.2070  148.4800 F   0  0  0  0  0  0  0  0  0  0  0  0
  188.4840  177.6170  141.0310 O   0  0  0  0  0  0  0  0  0  0  0  0
  192.0270  177.3140  145.2750 F   0  0  0  0  0  0  0  0  0  0  0  0
  184.6610  178.3880  143.7490 N   0  0  0  0  0  0  0  0  0  0  0  0
  186.6300  177.9950  142.4260 C   0  0  0  0  0  0  0  0  0  0  0  0
  184.3580  178.2930  141.3950 N   0  0  0  0  0  2  0  0  0  0  0  0
  187.5470  178.0740  146.1030 C   0  0  0  0  0  3  0  0  0  0  0  0
  191.6260  177.2360  142.9280 C   0  0  0  0  0  3  0  0  0  0  0  0
  185.4360  178.3380  144.9510 C   0  0  0  0  0  0  0  0  0  0  0  0
  184.7950  178.5130  146.1800 C   0  0  0  0  0  3  0  0  0  0  0  0
  187.1360  177.8420  141.2370 N   0  0  0  0  0  0  0  0  0  0  0  0
  189.3740  177.5420  142.0980 C   0  0  0  0  0  0  0  0  0  0  0  0
  190.7320  177.3120  141.8590 C   0  0  0  0  0  3  0  0  0  0  0  0
  182.9550  176.3060  138.2870 C   0  0  1  0  0  3  0  0  0  0  0  0
  181.3000  177.3360  139.8710 C   0  0  0  0  0  2  0  0  0  0  0  0
  184.0530  179.9320  138.9720 C   0  0  0  0  0  1  0  0  0  0  0  0
  183.6880  175.1530  138.0090 O   0  0  0  0  0  1  0  0  0  0  0  0
  182.1040  176.0790  139.5330 C   0  0  0  0  0  2  0  0  0  0  0  0
  183.1220  178.7430  138.8240 C   0  0  2  0  0  3  0  0  0  0  0  0
  182.2090  178.5560  140.0520 C   0  0  2  0  0  3  0  0  0  0  0  0
  183.9100  177.4750  138.5010 C   0  0  0  0  0  2  0  0  0  0  0  0
  1  8  1  0  0  0  0
  1 11  1  0  0  0  0
  2  7  1  0  0  0  0
  3  2  1  0  0  0  0
  3  9  1  0  0  0  0
  5 16  1  0  0  0  0
  5  4  2  0  0  0  0
  6  9  2  0  0  0  0
  6 13  1  0  0  0  0
  7 19  2  0  0  0  0
  7 17  1  0  0  0  0
 10 14  2  0  0  0  0
 12 21  1  0  0  0  0
 12 22  1  0  0  0  0
 14 19  1  0  0  0  0
 15 10  1  0  0  0  0
 15  2  1  0  0  0  0
 16 10  1  0  0  0  0
 17  1  2  0  0  0  0
 18  6  1  0  0  0  0
 19 20  1  0  0  0  0
 20  8  2  0  0  0  0
 21 15  2  0  0  0  0
 22  3  2  0  0  0  0
 23 22  1  0  0  0  0
 23 18  2  0  0  0  0
 24 27  1  1  0  0  0
 24 31  1  0  0  0  0
 24 28  1  0  0  0  0
 25 30  1  0  0  0  0
 28 25  1  0  0  0  0
 29 26  1  1  0  0  0
 29 30  1  0  0  0  0
 30  5  1  1  0  0  0
 31 29  1  0  0  0  0
M  END
>  <MODEL>
5

>  <REMARK>
 VINA RESULT:     -10.1      2.813      5.654
  Name = 
  1 active torsions:
  status: ('A' for Active; 'I' for Inactive)
    1  A    between atoms: C_5  and  C_30
                            x       y       z     vdW  Elec       q    Type
                         _______ _______ _______ _____ _____    ______ ____

>  <TORSDO>
F 1

$$$$
=
 OpenBabel11122411043D

 31 35  0  0  1  0  0  0  0  0999 V2000
  188.4150  177.3330  145.9750 C   0  0  0  0  0  0  0  0  0  0  0  0
  187.5120  177.9870  142.3600 N   0  0  0  0  0  0  0  0  0  0  0  0
  188.7300  177.8350  141.5840 C   0  0  0  0  0  0  0  0  0  0  0  0
  182.3470  178.8950  143.4840 O   0  0  0  0  0  0  0  0  0  0  0  0
  182.5370  179.0340  142.2470 C   0  0  0  0  0  0  0  0  0  0  0  0
  191.1130  177.3670  141.3730 C   0  0  0  0  0  0  0  0  0  0  0  0
  187.4230  177.8200  143.8010 C   0  0  0  0  0  0  0  0  0  0  0  0
  187.1780  177.5110  146.5920 C   0  0  0  0  0  3  0  0  0  0  0  0
  189.9670  177.5030  142.1610 C   0  0  0  0  0  3  0  0  0  0  0  0
  185.0330  178.4990  142.3910 C   0  0  0  0  0  0  0  0  0  0  0  0
  189.5020  177.0110  146.7160 F   0  0  0  0  0  0  0  0  0  0  0  0
  187.4540  178.3550  139.6030 O   0  0  0  0  0  0  0  0  0  0  0  0
  192.2970  177.0470  141.9480 F   0  0  0  0  0  0  0  0  0  0  0  0
  185.0110  178.3380  143.6800 N   0  0  0  0  0  0  0  0  0  0  0  0
  186.2980  178.3320  141.6500 C   0  0  0  0  0  0  0  0  0  0  0  0
  183.8380  178.8400  141.6770 N   0  0  0  0  0  2  0  0  0  0  0  0
  188.5350  177.4870  144.5920 C   0  0  0  0  0  3  0  0  0  0  0  0
  191.0370  177.5610  139.9920 C   0  0  0  0  0  3  0  0  0  0  0  0
  186.1750  177.9970  144.4410 C   0  0  0  0  0  0  0  0  0  0  0  0
  186.0590  177.8420  145.8250 C   0  0  0  0  0  3  0  0  0  0  0  0
  186.3060  178.4960  140.3590 N   0  0  0  0  0  0  0  0  0  0  0  0
  188.6710  178.0270  140.1930 C   0  0  0  0  0  0  0  0  0  0  0  0
  189.8160  177.8910  139.4030 C   0  0  0  0  0  3  0  0  0  0  0  0
  179.4680  177.1580  141.0660 C   0  0  1  0  0  3  0  0  0  0  0  0
  180.0490  179.3530  142.1420 C   0  0  0  0  0  2  0  0  0  0  0  0
  182.5740  178.5770  139.2870 C   0  0  0  0  0  1  0  0  0  0  0  0
  179.0610  175.8480  141.3170 O   0  0  0  0  0  1  0  0  0  0  0  0
  179.5870  177.9140  142.3860 C   0  0  0  0  0  2  0  0  0  0  0  0
  181.2740  178.5720  140.0720 C   0  0  2  0  0  3  0  0  0  0  0  0
  181.3720  179.3970  141.3700 C   0  0  2  0  0  3  0  0  0  0  0  0
  180.8080  177.1430  140.3380 C   0  0  0  0  0  2  0  0  0  0  0  0
  1  8  1  0  0  0  0
  1 11  1  0  0  0  0
  2  7  1  0  0  0  0
  3  9  1  0  0  0  0
  3  2  1  0  0  0  0
  5  4  2  0  0  0  0
  6 13  1  0  0  0  0
  6  9  2  0  0  0  0
  7 19  2  0  0  0  0
  7 17  1  0  0  0  0
 10 14  2  0  0  0  0
 12 22  1  0  0  0  0
 12 21  1  0  0  0  0
 14 19  1  0  0  0  0
 15  2  1  0  0  0  0
 15 10  1  0  0  0  0
 16  5  1  0  0  0  0
 16 10  1  0  0  0  0
 17  1  2  0  0  0  0
 18  6  1  0  0  0  0
 19 20  1  0  0  0  0
 20  8  2  0  0  0  0
 21 15  2  0  0  0  0
 22  3  2  0  0  0  0
 23 18  2  0  0  0  0
 23 22  1  0  0  0  0
 24 27  1  1  0  0  0
 24 28  1  0  0  0  0
 25 28  1  0  0  0  0
 29 26  1  1  0  0  0
 29 31  1  0  0  0  0
 29 30  1  0  0  0  0
 30 25  1  0  0  0  0
 30  5  1  1  0  0  0
 31 24  1  0  0  0  0
M  END
>  <MODEL>
6

>  <REMARK>
 VINA RESULT:     -10.0      3.238      6.599
  Name = 
  1 active torsions:
  status: ('A' for Active; 'I' for Inactive)
    1  A    between atoms: C_5  and  C_30
                            x       y       z     vdW  Elec       q    Type
                         _______ _______ _______ _____ _____    ______ ____

>  <TORSDO>
F 1

$$$$
=
 OpenBabel11122411043D

 31 35  0  0  1  0  0  0  0  0999 V2000
  190.9220  177.3570  141.9170 C   0  0  0  0  0  0  0  0  0  0  0  0
  187.7830  177.8680  143.9660 N   0  0  0  0  0  0  0  0  0  0  0  0
  188.1620  177.7370  145.3620 C   0  0  0  0  0  0  0  0  0  0  0  0
  184.7080  178.6520  139.6430 O   0  0  0  0  0  0  0  0  0  0  0  0
  183.9980  178.7250  140.6800 C   0  0  0  0  0  0  0  0  0  0  0  0
  189.7940  177.3540  147.1310 C   0  0  0  0  0  0  0  0  0  0  0  0
  188.6990  177.7410  142.8450 C   0  0  0  0  0  0  0  0  0  0  0  0
  190.4200  177.5060  140.6250 C   0  0  0  0  0  3  0  0  0  0  0  0
  189.4770  177.4710  145.7740 C   0  0  0  0  0  3  0  0  0  0  0  0
  185.9560  178.2850  142.2640 C   0  0  0  0  0  0  0  0  0  0  0  0
  192.2380  177.1000  142.1070 F   0  0  0  0  0  0  0  0  0  0  0  0
  185.8590  178.1500  145.9560 O   0  0  0  0  0  0  0  0  0  0  0  0
  191.0690  177.0960  147.5090 F   0  0  0  0  0  0  0  0  0  0  0  0
  186.8190  178.1610  141.3010 N   0  0  0  0  0  0  0  0  0  0  0  0
  186.3940  178.1440  143.6670 C   0  0  0  0  0  0  0  0  0  0  0  0
  184.5780  178.5580  141.9810 N   0  0  0  0  0  2  0  0  0  0  0  0
  190.0670  177.4730  143.0160 C   0  0  0  0  0  3  0  0  0  0  0  0
  188.7960  177.5030  148.0960 C   0  0  0  0  0  3  0  0  0  0  0  0
  188.2050  177.8890  141.5290 C   0  0  0  0  0  0  0  0  0  0  0  0
  189.0630  177.7720  140.4320 C   0  0  0  0  0  3  0  0  0  0  0  0
  185.5200  178.2700  144.6220 N   0  0  0  0  0  0  0  0  0  0  0  0
  187.1690  177.8850  146.3460 C   0  0  0  0  0  0  0  0  0  0  0  0
  187.4830  177.7680  147.7030 C   0  0  0  0  0  3  0  0  0  0  0  0
  181.2640  177.2710  138.5020 C   0  0  1  0  0  3  0  0  0  0  0  0
  181.6830  177.7850  140.9250 C   0  0  0  0  0  2  0  0  0  0  0  0
  182.9440  180.7290  138.7190 C   0  0  0  0  0  1  0  0  0  0  0  0
  181.3220  176.2720  137.5310 O   0  0  0  0  0  1  0  0  0  0  0  0
  181.7210  176.7040  139.8430 C   0  0  0  0  0  2  0  0  0  0  0  0
  182.1160  179.5320  139.1480 C   0  0  2  0  0  3  0  0  0  0  0  0
  182.5270  179.0030  140.5360 C   0  0  2  0  0  3  0  0  0  0  0  0
  182.1560  178.4360  138.0850 C   0  0  0  0  0  2  0  0  0  0  0  0
  1 11  1  0  0  0  0
  1 17  1  0  0  0  0
  2  3  1  0  0  0  0
  3  9  2  0  0  0  0
  3 22  1  0  0  0  0
  4  5  2  0  0  0  0
  5 16  1  0  0  0  0
  6 13  1  0  0  0  0
  6 18  2  0  0  0  0
  7 17  2  0  0  0  0
  7  2  1  0  0  0  0
  8  1  2  0  0  0  0
  9  6  1  0  0  0  0
 10 15  1  0  0  0  0
 12 22  1  0  0  0  0
 14 19  1  0  0  0  0
 14 10  2  0  0  0  0
 15  2  1  0  0  0  0
 15 21  2  0  0  0  0
 16 10  1  0  0  0  0
 19  7  1  0  0  0  0
 20  8  1  0  0  0  0
 20 19  2  0  0  0  0
 21 12  1  0  0  0  0
 22 23  2  0  0  0  0
 23 18  1  0  0  0  0
 24 27  1  6  0  0  0
 24 28  1  0  0  0  0
 28 25  1  0  0  0  0
 29 26  1  6  0  0  0
 29 30  1  0  0  0  0
 30  5  1  6  0  0  0
 30 25  1  0  0  0  0
 31 24  1  0  0  0  0
 31 29  1  0  0  0  0
M  END
>  <MODEL>
7

>  <REMARK>
 VINA RESULT:      -9.8      3.182      5.338
  Name = 
  1 active torsions:
  status: ('A' for Active; 'I' for Inactive)
    1  A    between atoms: C_5  and  C_30
                            x       y       z     vdW  Elec       q    Type
                         _______ _______ _______ _____ _____    ______ ____

>  <TORSDO>
F 1

$$$$
=
 OpenBabel11122411043D

 31 35  0  0  1  0  0  0  0  0999 V2000
  191.3710  176.3690  145.5170 C   0  0  0  0  0  0  0  0  0  0  0  0
  188.0810  177.5830  144.0990 N   0  0  0  0  0  0  0  0  0  0  0  0
  187.2490  177.9670  145.2260 C   0  0  0  0  0  0  0  0  0  0  0  0
  189.5950  176.7440  139.0230 O   0  0  0  0  0  0  0  0  0  0  0  0
  188.4160  177.1870  139.0410 C   0  0  0  0  0  0  0  0  0  0  0  0
  186.8410  178.2530  147.6120 C   0  0  0  0  0  0  0  0  0  0  0  0
  189.4320  177.0590  144.2090 C   0  0  0  0  0  0  0  0  0  0  0  0
  192.0560  176.0400  144.3490 C   0  0  0  0  0  3  0  0  0  0  0  0
  187.6770  177.8700  146.5600 C   0  0  0  0  0  3  0  0  0  0  0  0
  188.3290  177.3530  141.5910 C   0  0  0  0  0  0  0  0  0  0  0  0
  191.9660  176.2000  146.7220 F   0  0  0  0  0  0  0  0  0  0  0  0
  185.5150  178.5640  143.6570 O   0  0  0  0  0  0  0  0  0  0  0  0
  187.2720  178.1510  148.8920 F   0  0  0  0  0  0  0  0  0  0  0  0
  189.5320  176.8900  141.7480 N   0  0  0  0  0  0  0  0  0  0  0  0
  187.5250  177.7300  142.7700 C   0  0  0  0  0  0  0  0  0  0  0  0
  187.7680  177.5030  140.2800 N   0  0  0  0  0  2  0  0  0  0  0  0
  190.0710  176.8740  145.4460 C   0  0  0  0  0  3  0  0  0  0  0  0
  185.5600  178.7400  147.3430 C   0  0  0  0  0  3  0  0  0  0  0  0
  190.1390  176.7200  143.0330 C   0  0  0  0  0  0  0  0  0  0  0  0
  191.4400  176.2150  143.1080 C   0  0  0  0  0  3  0  0  0  0  0  0
  186.3220  178.1930  142.5990 N   0  0  0  0  0  0  0  0  0  0  0  0
  185.9570  178.4600  144.9730 C   0  0  0  0  0  0  0  0  0  0  0  0
  185.1180  178.8430  146.0230 C   0  0  0  0  0  3  0  0  0  0  0  0
  189.0600  176.0330  135.4930 C   0  0  1  0  0  3  0  0  0  0  0  0
  187.1830  176.0680  137.1620 C   0  0  0  0  0  2  0  0  0  0  0  0
  189.0560  179.4760  137.2170 C   0  0  0  0  0  1  0  0  0  0  0  0
  190.0960  175.2590  134.9720 O   0  0  0  0  0  1  0  0  0  0  0  0
  188.3170  175.2350  136.5610 C   0  0  0  0  0  2  0  0  0  0  0  0
  188.5110  178.1650  136.6790 C   0  0  2  0  0  3  0  0  0  0  0  0
  187.6980  177.3910  137.7360 C   0  0  2  0  0  3  0  0  0  0  0  0
  189.6340  177.3140  136.0890 C   0  0  0  0  0  2  0  0  0  0  0  0
  1 11  1  0  0  0  0
  2  7  1  0  0  0  0
  2  3  1  0  0  0  0
  3  9  1  0  0  0  0
  4  5  2  0  0  0  0
  5 16  1  0  0  0  0
  6 13  1  0  0  0  0
  7 17  2  0  0  0  0
  8  1  2  0  0  0  0
  9  6  2  0  0  0  0
 10 14  2  0  0  0  0
 10 15  1  0  0  0  0
 12 22  1  0  0  0  0
 14 19  1  0  0  0  0
 15  2  1  0  0  0  0
 16 10  1  0  0  0  0
 17  1  1  0  0  0  0
 18  6  1  0  0  0  0
 19 20  2  0  0  0  0
 19  7  1  0  0  0  0
 20  8  1  0  0  0  0
 21 15  2  0  0  0  0
 21 12  1  0  0  0  0
 22  3  2  0  0  0  0
 22 23  1  0  0  0  0
 23 18  2  0  0  0  0
 24 27  1  1  0  0  0
 24 31  1  0  0  0  0
 24 28  1  0  0  0  0
 25 30  1  0  0  0  0
 28 25  1  0  0  0  0
 29 26  1  1  0  0  0
 29 30  1  0  0  0  0
 30  5  1  1  0  0  0
 31 29  1  0  0  0  0
M  END
>  <MODEL>
8

>  <REMARK>
 VINA RESULT:      -9.8      1.536      2.173
  Name = 
  1 active torsions:
  status: ('A' for Active; 'I' for Inactive)
    1  A    between atoms: C_5  and  C_30
                            x       y       z     vdW  Elec       q    Type
                         _______ _______ _______ _____ _____    ______ ____

>  <TORSDO>
F 1

$$$$
=
 OpenBabel11122411043D

 31 35  0  0  1  0  0  0  0  0999 V2000
  191.1500  177.3470  141.7040 C   0  0  0  0  0  0  0  0  0  0  0  0
  187.6260  177.9490  142.9400 N   0  0  0  0  0  0  0  0  0  0  0  0
  187.6550  177.8150  144.3860 C   0  0  0  0  0  0  0  0  0  0  0  0
  185.6990  178.7900  138.0070 O   0  0  0  0  0  0  0  0  0  0  0  0
  184.7630  178.8860  138.8440 C   0  0  0  0  0  0  0  0  0  0  0  0
  188.8050  177.3990  146.4940 C   0  0  0  0  0  0  0  0  0  0  0  0
  188.7810  177.7920  142.0710 C   0  0  0  0  0  0  0  0  0  0  0  0
  190.9770  177.5030  140.3300 C   0  0  0  0  0  3  0  0  0  0  0  0
  188.8260  177.5170  145.1020 C   0  0  0  0  0  3  0  0  0  0  0  0
  186.2720  178.4040  140.8510 C   0  0  0  0  0  0  0  0  0  0  0  0
  192.3750  177.0580  142.2040 F   0  0  0  0  0  0  0  0  0  0  0  0
  185.2890  178.2890  144.4110 O   0  0  0  0  0  0  0  0  0  0  0  0
  189.9440  177.1110  147.1680 F   0  0  0  0  0  0  0  0  0  0  0  0
  187.3370  178.2530  140.1220 N   0  0  0  0  0  0  0  0  0  0  0  0
  186.3560  178.2580  142.3170 C   0  0  0  0  0  0  0  0  0  0  0  0
  185.0090  178.7100  140.2450 N   0  0  0  0  0  2  0  0  0  0  0  0
  190.0610  177.4910  142.5660 C   0  0  0  0  0  3  0  0  0  0  0  0
  187.6080  177.5780  147.1920 C   0  0  0  0  0  3  0  0  0  0  0  0
  188.6210  177.9460  140.6760 C   0  0  0  0  0  0  0  0  0  0  0  0
  189.7140  177.8020  139.8160 C   0  0  0  0  0  3  0  0  0  0  0  0
  185.2820  178.4120  143.0350 N   0  0  0  0  0  0  0  0  0  0  0  0
  186.4590  177.9920  145.1040 C   0  0  0  0  0  0  0  0  0  0  0  0
  186.4360  177.8750  146.4960 C   0  0  0  0  0  3  0  0  0  0  0  0
  181.3220  177.5540  139.6910 C   0  0  1  0  0  3  0  0  0  0  0  0
  182.4950  179.7640  139.4690 C   0  0  0  0  0  2  0  0  0  0  0  0
  183.5280  177.4250  136.5380 C   0  0  0  0  0  1  0  0  0  0  0  0
  180.9370  176.5640  140.5940 O   0  0  0  0  0  1  0  0  0  0  0  0
  182.0470  178.6700  140.4390 C   0  0  0  0  0  2  0  0  0  0  0  0
  182.6760  178.0250  137.6420 C   0  0  2  0  0  3  0  0  0  0  0  0
  183.3780  179.2000  138.3510 C   0  0  2  0  0  3  0  0  0  0  0  0
  182.2320  176.9470  138.6290 C   0  0  0  0  0  2  0  0  0  0  0  0
  1 11  1  0  0  0  0
  1 17  1  0  0  0  0
  2  3  1  0  0  0  0
  3  9  2  0  0  0  0
  3 22  1  0  0  0  0
  4  5  2  0  0  0  0
  5 16  1  0  0  0  0
  6 13  1  0  0  0  0
  6 18  2  0  0  0  0
  7 17  2  0  0  0  0
  7  2  1  0  0  0  0
  8  1  2  0  0  0  0
  9  6  1  0  0  0  0
 10 15  1  0  0  0  0
 12 22  1  0  0  0  0
 14 19  1  0  0  0  0
 14 10  2  0  0  0  0
 15  2  1  0  0  0  0
 15 21  2  0  0  0  0
 16 10  1  0  0  0  0
 19  7  1  0  0  0  0
 20  8  1  0  0  0  0
 20 19  2  0  0  0  0
 21 12  1  0  0  0  0
 22 23  2  0  0  0  0
 23 18  1  0  0  0  0
 24 28  1  0  0  0  0
 24 27  1  1  0  0  0
 25 28  1  0  0  0  0
 29 26  1  6  0  0  0
 29 30  1  0  0  0  0
 29 31  1  0  0  0  0
 30  5  1  1  0  0  0
 30 25  1  0  0  0  0
 31 24  1  0  0  0  0
M  END
>  <MODEL>
9

>  <REMARK>
 VINA RESULT:      -9.8      2.988      4.771
  Name = 
  1 active torsions:
  status: ('A' for Active; 'I' for Inactive)
    1  A    between atoms: C_5  and  C_30
                            x       y       z     vdW  Elec       q    Type
                         _______ _______ _______ _____ _____    ______ ____

>  <TORSDO>
F 1

$$$$
