=
 OpenBabel11122410493D

 32 37  0  0  1  0  0  0  0  0999 V2000
  187.0220  176.9560  138.0730 C   0  0  1  0  0  3  0  0  0  0  0  0
  184.9330  173.5620  136.7680 C   0  0  0  0  0  2  0  0  0  0  0  0
  183.7830  174.4720  136.3650 C   0  0  0  0  0  2  0  0  0  0  0  0
  185.2000  178.4090  139.0240 C   0  0  0  0  0  0  0  0  0  0  0  0
  183.8870  179.1420  138.8990 C   0  0  2  0  0  3  0  0  0  0  0  0
  189.3190  178.0540  137.6040 C   0  0  2  0  0  3  0  0  0  0  0  0
  188.6620  175.6850  136.8670 C   0  0  0  0  0  2  0  0  0  0  0  0
  181.6540  178.4740  138.4260 C   0  0  1  0  0  3  0  0  0  0  0  0
  186.0560  174.4400  137.2890 C   0  0  0  0  0  2  0  0  0  0  0  0
  187.3770  176.3750  136.7580 N   0  0  1  0  0  0  0  0  0  0  0  0
  186.3980  175.4640  136.2830 N   0  0  2  0  0  0  0  0  0  0  0  0
  184.7250  177.1990  136.9360 C   0  0  0  0  0  0  0  0  0  0  0  0
  181.7480  179.0670  139.8190 C   0  0  0  0  0  2  0  0  0  0  0  0
  189.8000  176.6930  137.0650 C   0  0  2  0  0  3  0  0  0  0  0  0
  183.1670  179.1770  140.1670 N   0  0  0  0  0  2  0  0  0  0  0  0
  184.1900  175.3790  135.3630 O   0  0  0  0  0  0  0  0  0  0  0  0
  185.2050  176.2310  135.8740 C   0  0  2  0  0  3  0  0  0  0  0  0
  183.4670  177.6440  136.9090 C   0  0  0  0  0  3  0  0  0  0  0  0
  188.1250  177.9260  138.5570 C   0  0  0  0  0  2  0  0  0  0  0  0
  185.9710  178.6350  140.1610 O   0  0  0  0  0  1  0  0  0  0  0  0
  180.7420  179.3260  137.5660 C   0  0  0  0  0  1  0  0  0  0  0  0
  185.6480  177.6070  138.0300 C   0  0  0  0  0  0  0  0  0  0  0  0
  183.0030  178.5320  137.9250 N   0  0  0  0  0  0  0  0  0  0  0  0
  191.2760  174.7380  137.4880 C   0  0  0  0  0  2  0  0  0  0  0  0
  190.8510  176.1040  137.9900 C   0  0  1  0  0  3  0  0  0  0  0  0
  192.1530  175.9440  137.2300 C   0  0  1  0  0  3  0  0  0  0  0  0
  193.3040  175.9550  138.2170 C   0  0  0  0  0  2  0  0  0  0  0  0
  194.4080  175.0920  137.7150 C   0  0  0  0  0  0  0  0  0  0  0  0
  194.6080  173.8320  138.2640 O   0  0  0  0  0  1  0  0  0  0  0  0
  195.1790  175.5160  136.8160 O   0  0  0  0  0  0  0  0  0  0  0  0
  187.9620  179.8700  136.8480 O   0  0  0  0  0  1  0  0  0  0  0  0
  188.9800  179.0000  136.4610 C   0  0  0  0  0  2  0  0  0  0  0  0
  1 19  1  6  0  0  0
  2  9  1  0  0  0  0
  3  2  1  0  0  0  0
  4 20  1  0  0  0  0
  5  4  1  1  0  0  0
  5 15  1  0  0  0  0
  6 32  1  6  0  0  0
  6 19  1  0  0  0  0
  8 21  1  6  0  0  0
  8 13  1  0  0  0  0
 10  7  1  1  0  0  0
 10  1  1  0  0  0  0
 11 10  1  0  0  0  0
 11  9  1  1  0  0  0
 12 22  1  0  0  0  0
 13 15  1  0  0  0  0
 14  7  1  1  0  0  0
 14  6  1  0  0  0  0
 14 25  1  0  0  0  0
 16  3  1  0  0  0  0
 17 16  1  1  0  0  0
 17 11  1  0  0  0  0
 17 12  1  0  0  0  0
 18 12  2  0  0  0  0
 18 23  1  0  0  0  0
 22  1  1  0  0  0  0
 22  4  2  0  0  0  0
 23  8  1  0  0  0  0
 23  5  1  0  0  0  0
 25 24  1  6  0  0  0
 26 24  1  0  0  0  0
 26 25  1  0  0  0  0
 26 27  1  1  0  0  0
 28 27  1  0  0  0  0
 28 29  1  0  0  0  0
 30 28  2  0  0  0  0
 32 31  1  0  0  0  0
M  END
>  <MODEL>
1

>  <REMARK>
 VINA RESULT:      -5.6      0.000      0.000
  Name = 
  4 active torsions:
  status: ('A' for Active; 'I' for Inactive)
    1  A    between atoms: C_7  and  C_19
    2  A    between atoms: C_10  and  C_17
    3  A    between atoms: C_20  and  C_29
    4  A    between atoms: C_29  and  C_30
                            x       y       z     vdW  Elec       q    Type
                         _______ _______ _______ _____ _____    ______ ____

>  <TORSDO>
F 4

$$$$
=
 OpenBabel11122410493D

 32 37  0  0  1  0  0  0  0  0999 V2000
  187.7620  175.8890  137.4670 C   0  0  1  0  0  3  0  0  0  0  0  0
  184.9280  172.8000  137.5730 C   0  0  0  0  0  2  0  0  0  0  0  0
  183.8610  173.8190  137.2010 C   0  0  0  0  0  2  0  0  0  0  0  0
  186.4820  177.8590  138.3730 C   0  0  0  0  0  0  0  0  0  0  0  0
  185.3060  178.8030  138.3440 C   0  0  2  0  0  3  0  0  0  0  0  0
  189.9970  176.3600  136.2480 C   0  0  2  0  0  3  0  0  0  0  0  0
  188.8290  174.0750  136.3140 C   0  0  0  0  0  2  0  0  0  0  0  0
  182.9520  178.5240  138.5510 C   0  0  1  0  0  3  0  0  0  0  0  0
  186.2650  173.5180  137.5930 C   0  0  0  0  0  2  0  0  0  0  0  0
  187.6760  174.9760  136.3060 N   0  0  1  0  0  0  0  0  0  0  0  0
  186.4830  174.2060  136.3060 N   0  0  2  0  0  0  0  0  0  0  0  0
  185.3120  176.3480  136.8250 C   0  0  0  0  0  0  0  0  0  0  0  0
  183.4900  179.3740  139.6880 C   0  0  0  0  0  2  0  0  0  0  0  0
  190.1150  174.8450  135.9940 C   0  0  2  0  0  3  0  0  0  0  0  0
  184.9500  179.2610  139.6830 N   0  0  0  0  0  2  0  0  0  0  0  0
  184.1260  174.3810  135.9330 O   0  0  0  0  0  0  0  0  0  0  0  0
  185.3520  175.0950  135.9750 C   0  0  2  0  0  3  0  0  0  0  0  0
  184.1700  177.0270  136.9530 C   0  0  0  0  0  3  0  0  0  0  0  0
  189.0830  176.6920  137.4350 C   0  0  0  0  0  2  0  0  0  0  0  0
  187.5450  178.1630  139.2200 O   0  0  0  0  0  1  0  0  0  0  0  0
  181.9860  179.3390  137.7140 C   0  0  0  0  0  1  0  0  0  0  0  0
  186.5350  176.7850  137.5510 C   0  0  0  0  0  0  0  0  0  0  0  0
  184.1200  178.1920  137.7760 N   0  0  0  0  0  0  0  0  0  0  0  0
  191.8200  173.0380  136.0960 C   0  0  0  0  0  2  0  0  0  0  0  0
  191.2700  174.2660  136.7940 C   0  0  1  0  0  3  0  0  0  0  0  0
  192.5430  174.3620  135.9760 C   0  0  1  0  0  3  0  0  0  0  0  0
  193.7320  174.3790  136.9160 C   0  0  0  0  0  2  0  0  0  0  0  0
  194.5050  175.6370  136.7300 C   0  0  0  0  0  0  0  0  0  0  0  0
  195.8680  175.5830  136.4680 O   0  0  0  0  0  0  0  0  0  0  0  0
  193.9310  176.7510  136.8430 O   0  0  0  0  0  1  0  0  0  0  0  0
  188.8460  178.2530  135.3520 O   0  0  0  0  0  1  0  0  0  0  0  0
  189.5190  177.0830  134.9990 C   0  0  0  0  0  2  0  0  0  0  0  0
  1 19  1  6  0  0  0
  1 22  1  0  0  0  0
  2  9  1  0  0  0  0
  3  2  1  0  0  0  0
  4 20  1  0  0  0  0
  5  4  1  1  0  0  0
  5 15  1  0  0  0  0
  6 32  1  6  0  0  0
  6 19  1  0  0  0  0
  8 21  1  6  0  0  0
  8 13  1  0  0  0  0
 10 11  1  0  0  0  0
 10  7  1  1  0  0  0
 10  1  1  0  0  0  0
 11  9  1  1  0  0  0
 12 18  2  0  0  0  0
 12 22  1  0  0  0  0
 14  6  1  0  0  0  0
 14  7  1  1  0  0  0
 14 25  1  0  0  0  0
 15 13  1  0  0  0  0
 16  3  1  0  0  0  0
 17 16  1  1  0  0  0
 17 11  1  0  0  0  0
 17 12  1  0  0  0  0
 18 23  1  0  0  0  0
 22  4  2  0  0  0  0
 23  5  1  0  0  0  0
 23  8  1  0  0  0  0
 25 24  1  6  0  0  0
 26 24  1  0  0  0  0
 26 25  1  0  0  0  0
 26 27  1  1  0  0  0
 28 30  1  0  0  0  0
 28 27  1  0  0  0  0
 29 28  2  0  0  0  0
 32 31  1  0  0  0  0
M  END
>  <MODEL>
2

>  <REMARK>
 VINA RESULT:      -5.5      1.458      1.716
  Name = 
  4 active torsions:
  status: ('A' for Active; 'I' for Inactive)
    1  A    between atoms: C_7  and  C_19
    2  A    between atoms: C_10  and  C_17
    3  A    between atoms: C_20  and  C_29
    4  A    between atoms: C_29  and  C_30
                            x       y       z     vdW  Elec       q    Type
                         _______ _______ _______ _____ _____    ______ ____

>  <TORSDO>
F 4

$$$$
=
 OpenBabel11122410493D

 32 37  0  0  1  0  0  0  0  0999 V2000
  188.4100  176.5960  138.4970 C   0  0  1  0  0  3  0  0  0  0  0  0
  190.3230  176.7390  142.2260 C   0  0  0  0  0  2  0  0  0  0  0  0
  191.6580  176.7020  141.4990 C   0  0  0  0  0  2  0  0  0  0  0  0
  189.9080  175.0840  137.1530 C   0  0  0  0  0  0  0  0  0  0  0  0
  191.2570  174.7160  136.5860 C   0  0  2  0  0  3  0  0  0  0  0  0
  186.6650  178.0160  137.2150 C   0  0  2  0  0  3  0  0  0  0  0  0
  187.2040  178.2790  139.7110 C   0  0  0  0  0  2  0  0  0  0  0  0
  193.3740  174.2090  137.5450 C   0  0  1  0  0  3  0  0  0  0  0  0
  189.2270  176.7690  141.1770 C   0  0  0  0  0  2  0  0  0  0  0  0
  188.5160  177.9040  139.1830 N   0  0  1  0  0  0  0  0  0  0  0  0
  189.4580  177.8880  140.2430 N   0  0  2  0  0  0  0  0  0  0  0  0
  190.9770  176.7270  138.6390 C   0  0  0  0  0  0  0  0  0  0  0  0
  192.8320  173.0110  136.7890 C   0  0  0  0  0  2  0  0  0  0  0  0
  186.2400  178.6170  138.5680 C   0  0  2  0  0  3  0  0  0  0  0  0
  191.4220  173.2700  136.4860 N   0  0  0  0  0  2  0  0  0  0  0  0
  191.8120  177.8370  140.6740 O   0  0  0  0  0  0  0  0  0  0  0  0
  190.8150  177.8300  139.6630 C   0  0  2  0  0  3  0  0  0  0  0  0
  192.1960  176.2730  138.3400 C   0  0  0  0  0  3  0  0  0  0  0  0
  187.3600  176.6560  137.3630 C   0  0  0  0  0  2  0  0  0  0  0  0
  188.7970  174.3690  136.7150 O   0  0  0  0  0  1  0  0  0  0  0  0
  194.6630  174.6800  136.9010 C   0  0  0  0  0  1  0  0  0  0  0  0
  189.7710  176.1230  138.0090 C   0  0  0  0  0  0  0  0  0  0  0  0
  192.3520  175.2130  137.3970 N   0  0  0  0  0  0  0  0  0  0  0  0
  184.4710  178.6530  140.3150 C   0  0  0  0  0  2  0  0  0  0  0  0
  184.8370  178.1580  138.9300 C   0  0  1  0  0  3  0  0  0  0  0  0
  183.9410  179.3700  139.0920 C   0  0  1  0  0  3  0  0  0  0  0  0
  182.5030  178.9570  138.8440 C   0  0  0  0  0  2  0  0  0  0  0  0
  181.5990  180.1190  139.0620 C   0  0  0  0  0  0  0  0  0  0  0  0
  181.8280  181.3120  138.3900 O   0  0  0  0  0  0  0  0  0  0  0  0
  180.6460  180.0290  139.8780 O   0  0  0  0  0  1  0  0  0  0  0  0
  188.3600  178.2790  135.5520 O   0  0  0  0  0  1  0  0  0  0  0  0
  187.5570  178.9810  136.4500 C   0  0  0  0  0  2  0  0  0  0  0  0
  1 19  1  6  0  0  0
  1 10  1  0  0  0  0
  3  2  1  0  0  0  0
  4 22  2  0  0  0  0
  5 15  1  1  0  0  0
  5  4  1  0  0  0  0
  5 23  1  0  0  0  0
  6 32  1  1  0  0  0
  6 19  1  0  0  0  0
  6 14  1  0  0  0  0
  8 21  1  6  0  0  0
  9  2  1  0  0  0  0
 10  7  1  1  0  0  0
 10 11  1  0  0  0  0
 11  9  1  1  0  0  0
 13  8  1  0  0  0  0
 14 25  1  0  0  0  0
 14  7  1  1  0  0  0
 15 13  1  0  0  0  0
 16  3  1  0  0  0  0
 17 12  1  1  0  0  0
 17 11  1  0  0  0  0
 17 16  1  0  0  0  0
 18 12  2  0  0  0  0
 20  4  1  0  0  0  0
 22  1  1  0  0  0  0
 22 12  1  0  0  0  0
 23  8  1  0  0  0  0
 23 18  1  0  0  0  0
 25 26  1  0  0  0  0
 25 24  1  1  0  0  0
 26 27  1  6  0  0  0
 26 24  1  0  0  0  0
 27 28  1  0  0  0  0
 28 30  1  0  0  0  0
 29 28  2  0  0  0  0
 31 32  1  0  0  0  0
M  END
>  <MODEL>
3

>  <REMARK>
 VINA RESULT:      -5.4      3.023      8.753
  Name = 
  4 active torsions:
  status: ('A' for Active; 'I' for Inactive)
    1  A    between atoms: C_7  and  C_19
    2  A    between atoms: C_10  and  C_17
    3  A    between atoms: C_20  and  C_29
    4  A    between atoms: C_29  and  C_30
                            x       y       z     vdW  Elec       q    Type
                         _______ _______ _______ _____ _____    ______ ____

>  <TORSDO>
F 4

$$$$
=
 OpenBabel11122410493D

 32 37  0  0  1  0  0  0  0  0999 V2000
  189.6490  177.4740  139.7960 C   0  0  1  0  0  3  0  0  0  0  0  0
  191.9200  177.9340  143.2910 C   0  0  0  0  0  2  0  0  0  0  0  0
  190.6820  177.5720  144.0960 C   0  0  0  0  0  2  0  0  0  0  0  0
  187.3860  178.3430  140.4760 C   0  0  0  0  0  0  0  0  0  0  0  0
  186.1790  178.3330  141.3810 C   0  0  2  0  0  3  0  0  0  0  0  0
  189.8040  176.0930  137.6120 C   0  0  2  0  0  3  0  0  0  0  0  0
  191.7170  176.3630  139.3010 C   0  0  0  0  0  2  0  0  0  0  0  0
  185.8490  178.7020  143.7080 C   0  0  1  0  0  3  0  0  0  0  0  0
  191.5610  177.8300  141.8200 C   0  0  0  0  0  2  0  0  0  0  0  0
  190.5570  176.3750  140.1930 N   0  0  1  0  0  0  0  0  0  0  0  0
  191.0020  176.4940  141.5350 N   0  0  2  0  0  0  0  0  0  0  0  0
  188.6150  176.9600  142.0970 C   0  0  0  0  0  0  0  0  0  0  0  0
  185.1170  179.7520  142.8930 C   0  0  0  0  0  2  0  0  0  0  0  0
  191.3090  175.9190  137.8920 C   0  0  2  0  0  3  0  0  0  0  0  0
  185.5930  179.6630  141.5110 N   0  0  0  0  0  2  0  0  0  0  0  0
  190.2560  176.2600  143.7970 O   0  0  0  0  0  0  0  0  0  0  0  0
  189.8720  176.1840  142.4320 C   0  0  2  0  0  3  0  0  0  0  0  0
  187.6670  177.1200  143.0230 C   0  0  0  0  0  3  0  0  0  0  0  0
  189.2060  177.3130  138.3230 C   0  0  0  0  0  2  0  0  0  0  0  0
  187.3250  179.1020  139.3110 O   0  0  0  0  0  1  0  0  0  0  0  0
  184.8520  177.8810  144.5020 C   0  0  0  0  0  1  0  0  0  0  0  0
  188.4710  177.5820  140.7520 C   0  0  0  0  0  0  0  0  0  0  0  0
  186.4950  177.8760  142.7200 N   0  0  0  0  0  0  0  0  0  0  0  0
  193.5740  176.7550  137.3010 C   0  0  0  0  0  2  0  0  0  0  0  0
  192.1260  176.6780  136.8600 C   0  0  1  0  0  3  0  0  0  0  0  0
  193.1570  175.7450  136.2550 C   0  0  1  0  0  3  0  0  0  0  0  0
  193.5340  176.2550  134.8770 C   0  0  0  0  0  2  0  0  0  0  0  0
  194.9900  176.5640  134.8340 C   0  0  0  0  0  0  0  0  0  0  0  0
  195.4160  177.8790  134.7000 O   0  0  0  0  0  0  0  0  0  0  0  0
  195.8320  175.6310  134.8860 O   0  0  0  0  0  1  0  0  0  0  0  0
  189.7380  173.7040  137.5740 O   0  0  0  0  0  1  0  0  0  0  0  0
  189.0350  174.8360  137.9880 C   0  0  0  0  0  2  0  0  0  0  0  0
  1 19  1  6  0  0  0
  1 10  1  0  0  0  0
  1 22  1  0  0  0  0
  2  3  1  0  0  0  0
  4 22  2  0  0  0  0
  5  4  1  6  0  0  0
  5 15  1  0  0  0  0
  5 23  1  0  0  0  0
  6 14  1  0  0  0  0
  6 32  1  1  0  0  0
  6 19  1  0  0  0  0
  8 21  1  6  0  0  0
  9  2  1  0  0  0  0
 10  7  1  6  0  0  0
 10 11  1  0  0  0  0
 11  9  1  1  0  0  0
 11 17  1  0  0  0  0
 12 18  2  0  0  0  0
 13  8  1  0  0  0  0
 14  7  1  1  0  0  0
 15 13  1  0  0  0  0
 16  3  1  0  0  0  0
 17 12  1  1  0  0  0
 17 16  1  0  0  0  0
 20  4  1  0  0  0  0
 22 12  1  0  0  0  0
 23 18  1  0  0  0  0
 23  8  1  0  0  0  0
 25 24  1  1  0  0  0
 25 14  1  0  0  0  0
 26 27  1  6  0  0  0
 26 25  1  0  0  0  0
 26 24  1  0  0  0  0
 28 27  1  0  0  0  0
 28 30  1  0  0  0  0
 29 28  2  0  0  0  0
 31 32  1  0  0  0  0
M  END
>  <MODEL>
4

>  <REMARK>
 VINA RESULT:      -5.4      3.668      5.629
  Name = 
  4 active torsions:
  status: ('A' for Active; 'I' for Inactive)
    1  A    between atoms: C_7  and  C_19
    2  A    between atoms: C_10  and  C_17
    3  A    between atoms: C_20  and  C_29
    4  A    between atoms: C_29  and  C_30
                            x       y       z     vdW  Elec       q    Type
                         _______ _______ _______ _____ _____    ______ ____

>  <TORSDO>
F 4

$$$$
=
 OpenBabel11122410493D

 32 37  0  0  1  0  0  0  0  0999 V2000
  190.3330  177.2850  140.5660 C   0  0  1  0  0  3  0  0  0  0  0  0
  187.5700  178.5450  137.6730 C   0  0  0  0  0  2  0  0  0  0  0  0
  188.1720  177.5310  136.7130 C   0  0  0  0  0  2  0  0  0  0  0  0
  192.3960  176.8070  139.2040 C   0  0  0  0  0  0  0  0  0  0  0  0
  193.1050  176.1020  138.0750 C   0  0  2  0  0  3  0  0  0  0  0  0
  190.2470  176.3720  142.9870 C   0  0  2  0  0  3  0  0  0  0  0  0
  188.2600  177.4400  141.7630 C   0  0  0  0  0  2  0  0  0  0  0  0
  192.8190  176.0490  135.7140 C   0  0  1  0  0  3  0  0  0  0  0  0
  188.2810  178.3970  139.0060 C   0  0  0  0  0  2  0  0  0  0  0  0
  188.9450  176.7790  140.6530 N   0  0  1  0  0  0  0  0  0  0  0  0
  188.2100  176.9940  139.4580 N   0  0  2  0  0  0  0  0  0  0  0  0
  190.2260  176.1190  138.2730 C   0  0  0  0  0  0  0  0  0  0  0  0
  194.1700  176.6390  136.0730 C   0  0  0  0  0  2  0  0  0  0  0  0
  188.8330  176.9720  143.1060 C   0  0  2  0  0  3  0  0  0  0  0  0
  194.1690  176.9250  137.5090 N   0  0  0  0  0  2  0  0  0  0  0  0
  188.0080  176.2170  137.2030 O   0  0  0  0  0  0  0  0  0  0  0  0
  188.7190  176.0720  138.4230 C   0  0  2  0  0  3  0  0  0  0  0  0
  190.7940  175.6890  137.1440 C   0  0  0  0  0  3  0  0  0  0  0  0
  191.0870  177.0460  141.8940 C   0  0  0  0  0  2  0  0  0  0  0  0
  193.1660  177.5240  140.1150 O   0  0  0  0  0  1  0  0  0  0  0  0
  193.0120  174.7680  134.9260 C   0  0  0  0  0  1  0  0  0  0  0  0
  191.0570  176.6910  139.3670 C   0  0  0  0  0  0  0  0  0  0  0  0
  192.2100  175.7600  136.9870 N   0  0  0  0  0  0  0  0  0  0  0  0
  187.4290  178.3740  144.6040 C   0  0  0  0  0  2  0  0  0  0  0  0
  188.8350  178.1280  144.0930 C   0  0  1  0  0  3  0  0  0  0  0  0
  188.4220  177.6190  145.4590 C   0  0  1  0  0  3  0  0  0  0  0  0
  188.9860  178.5430  146.5210 C   0  0  0  0  0  2  0  0  0  0  0  0
  189.3430  177.7600  147.7350 C   0  0  0  0  0  0  0  0  0  0  0  0
  190.4030  176.8640  147.6970 O   0  0  0  0  0  0  0  0  0  0  0  0
  188.6640  177.8870  148.7870 O   0  0  0  0  0  1  0  0  0  0  0  0
  191.1740  174.2250  143.4810 O   0  0  0  0  0  1  0  0  0  0  0  0
  190.1800  174.8710  142.7470 C   0  0  0  0  0  2  0  0  0  0  0  0
  1 10  1  0  0  0  0
  1 19  1  1  0  0  0
  2  9  1  0  0  0  0
  3 16  1  0  0  0  0
  3  2  1  0  0  0  0
  4 22  2  0  0  0  0
  4 20  1  0  0  0  0
  5 15  1  6  0  0  0
  5  4  1  0  0  0  0
  6 32  1  6  0  0  0
  6 14  1  0  0  0  0
  8 21  1  6  0  0  0
  8 13  1  0  0  0  0
  8 23  1  0  0  0  0
 10  7  1  1  0  0  0
 11  9  1  6  0  0  0
 11 10  1  0  0  0  0
 12 17  1  0  0  0  0
 12 22  1  0  0  0  0
 13 15  1  0  0  0  0
 14  7  1  6  0  0  0
 14 25  1  0  0  0  0
 17 16  1  6  0  0  0
 17 11  1  0  0  0  0
 18 12  2  0  0  0  0
 19  6  1  0  0  0  0
 22  1  1  0  0  0  0
 23 18  1  0  0  0  0
 23  5  1  0  0  0  0
 24 26  1  0  0  0  0
 25 24  1  6  0  0  0
 25 26  1  0  0  0  0
 26 27  1  1  0  0  0
 27 28  1  0  0  0  0
 28 30  1  0  0  0  0
 29 28  2  0  0  0  0
 32 31  1  0  0  0  0
M  END
>  <MODEL>
5

>  <REMARK>
 VINA RESULT:      -4.9      4.780      8.330
  Name = 
  4 active torsions:
  status: ('A' for Active; 'I' for Inactive)
    1  A    between atoms: C_7  and  C_19
    2  A    between atoms: C_10  and  C_17
    3  A    between atoms: C_20  and  C_29
    4  A    between atoms: C_29  and  C_30
                            x       y       z     vdW  Elec       q    Type
                         _______ _______ _______ _____ _____    ______ ____

>  <TORSDO>
F 4

$$$$
=
 OpenBabel11122410493D

 32 37  0  0  1  0  0  0  0  0999 V2000
  191.8770  175.1110  137.1510 C   0  0  1  0  0  3  0  0  0  0  0  0
  188.8960  172.4900  135.7990 C   0  0  0  0  0  2  0  0  0  0  0  0
  187.9870  173.6920  135.5950 C   0  0  0  0  0  2  0  0  0  0  0  0
  190.5660  176.8570  138.4040 C   0  0  0  0  0  0  0  0  0  0  0  0
  189.4770  177.8990  138.4780 C   0  0  2  0  0  3  0  0  0  0  0  0
  194.3320  175.6570  136.5350 C   0  0  2  0  0  3  0  0  0  0  0  0
  193.0370  173.6120  135.6800 C   0  0  0  0  0  2  0  0  0  0  0  0
  187.1170  177.8520  138.1890 C   0  0  1  0  0  3  0  0  0  0  0  0
  190.2440  173.0060  136.2700 C   0  0  0  0  0  2  0  0  0  0  0  0
  191.9650  174.6030  135.7640 N   0  0  1  0  0  0  0  0  0  0  0  0
  190.7520  174.0150  135.3210 N   0  0  2  0  0  0  0  0  0  0  0  0
  189.6330  176.0280  136.2850 C   0  0  0  0  0  0  0  0  0  0  0  0
  187.4710  178.2530  139.6080 C   0  0  0  0  0  2  0  0  0  0  0  0
  194.4060  174.2840  135.8400 C   0  0  2  0  0  3  0  0  0  0  0  0
  188.8940  177.9750  139.8130 N   0  0  0  0  0  2  0  0  0  0  0  0
  188.5280  174.5710  134.6330 O   0  0  0  0  0  0  0  0  0  0  0  0
  189.7630  175.0900  135.1030 C   0  0  2  0  0  3  0  0  0  0  0  0
  188.5310  176.7680  136.4270 C   0  0  0  0  0  3  0  0  0  0  0  0
  193.2250  175.7250  137.5950 C   0  0  0  0  0  2  0  0  0  0  0  0
  191.4590  176.7670  139.4690 O   0  0  0  0  0  1  0  0  0  0  0  0
  186.3840  178.9880  137.5020 C   0  0  0  0  0  1  0  0  0  0  0  0
  190.7140  176.0800  137.3060 C   0  0  0  0  0  0  0  0  0  0  0  0
  188.3910  177.6300  137.5550 N   0  0  0  0  0  0  0  0  0  0  0  0
  195.9600  172.3540  135.6470 C   0  0  0  0  0  2  0  0  0  0  0  0
  195.3450  173.3600  136.5980 C   0  0  1  0  0  3  0  0  0  0  0  0
  196.7590  173.5590  136.0910 C   0  0  1  0  0  3  0  0  0  0  0  0
  197.7340  173.1510  137.1780 C   0  0  0  0  0  2  0  0  0  0  0  0
  198.3470  174.3630  137.7890 C   0  0  0  0  0  0  0  0  0  0  0  0
  198.0250  175.6230  137.3020 O   0  0  0  0  0  0  0  0  0  0  0  0
  199.1800  174.2430  138.7240 O   0  0  0  0  0  1  0  0  0  0  0  0
  195.1250  177.7530  135.7060 O   0  0  0  0  0  1  0  0  0  0  0  0
  194.1530  176.7710  135.5160 C   0  0  0  0  0  2  0  0  0  0  0  0
  1 22  1  0  0  0  0
  1 19  1  6  0  0  0
  2  9  1  0  0  0  0
  3  2  1  0  0  0  0
  4 20  1  0  0  0  0
  5  4  1  1  0  0  0
  5 15  1  0  0  0  0
  6 32  1  6  0  0  0
  6 19  1  0  0  0  0
  8 21  1  6  0  0  0
  8 13  1  0  0  0  0
 10  7  1  1  0  0  0
 10  1  1  0  0  0  0
 11 10  1  0  0  0  0
 11  9  1  1  0  0  0
 12 18  2  0  0  0  0
 12 22  1  0  0  0  0
 13 15  1  0  0  0  0
 14  7  1  1  0  0  0
 14  6  1  0  0  0  0
 14 25  1  0  0  0  0
 16  3  1  0  0  0  0
 17 16  1  1  0  0  0
 17 11  1  0  0  0  0
 17 12  1  0  0  0  0
 18 23  1  0  0  0  0
 22  4  2  0  0  0  0
 23  8  1  0  0  0  0
 23  5  1  0  0  0  0
 24 26  1  0  0  0  0
 25 24  1  6  0  0  0
 26 25  1  0  0  0  0
 26 27  1  1  0  0  0
 27 28  1  0  0  0  0
 28 30  1  0  0  0  0
 29 28  2  0  0  0  0
 32 31  1  0  0  0  0
M  END
>  <MODEL>
6

>  <REMARK>
 VINA RESULT:      -4.9      3.351      5.280
  Name = 
  4 active torsions:
  status: ('A' for Active; 'I' for Inactive)
    1  A    between atoms: C_7  and  C_19
    2  A    between atoms: C_10  and  C_17
    3  A    between atoms: C_20  and  C_29
    4  A    between atoms: C_29  and  C_30
                            x       y       z     vdW  Elec       q    Type
                         _______ _______ _______ _____ _____    ______ ____

>  <TORSDO>
F 4

$$$$
=
 OpenBabel11122410493D

 32 37  0  0  1  0  0  0  0  0999 V2000
  184.2110  176.8000  138.1840 C   0  0  1  0  0  3  0  0  0  0  0  0
  187.3480  178.5830  140.3220 C   0  0  0  0  0  2  0  0  0  0  0  0
  188.2980  178.1440  139.2170 C   0  0  0  0  0  2  0  0  0  0  0  0
  185.2990  174.7640  137.1810 C   0  0  0  0  0  0  0  0  0  0  0  0
  186.3720  174.1090  136.3470 C   0  0  2  0  0  3  0  0  0  0  0  0
  181.9180  177.5350  137.2350 C   0  0  2  0  0  3  0  0  0  0  0  0
  183.3150  178.9110  138.8900 C   0  0  0  0  0  2  0  0  0  0  0  0
  188.7450  174.0090  136.4800 C   0  0  1  0  0  3  0  0  0  0  0  0
  185.9450  178.1700  139.9150 C   0  0  0  0  0  2  0  0  0  0  0  0
  184.3690  178.2700  138.1050 N   0  0  1  0  0  0  0  0  0  0  0  0
  185.6340  178.7080  138.5770 N   0  0  2  0  0  0  0  0  0  0  0  0
  186.5890  176.8580  137.2000 C   0  0  0  0  0  0  0  0  0  0  0  0
  188.1450  172.6240  136.6320 C   0  0  0  0  0  2  0  0  0  0  0  0
  181.9500  178.7200  138.2180 C   0  0  2  0  0  3  0  0  0  0  0  0
  186.7040  172.7780  136.8450 N   0  0  0  0  0  2  0  0  0  0  0  0
  187.9540  178.7520  137.9900 O   0  0  0  0  0  0  0  0  0  0  0  0
  186.6610  178.3190  137.5910 C   0  0  2  0  0  3  0  0  0  0  0  0
  187.6580  176.2580  136.6710 C   0  0  0  0  0  3  0  0  0  0  0  0
  182.8140  176.3720  137.6780 C   0  0  0  0  0  2  0  0  0  0  0  0
  184.2270  173.9810  137.6000 O   0  0  0  0  0  1  0  0  0  0  0  0
  189.6070  174.0610  135.2340 C   0  0  0  0  0  1  0  0  0  0  0  0
  185.3410  176.0880  137.4560 C   0  0  0  0  0  0  0  0  0  0  0  0
  187.6030  174.8740  136.3290 N   0  0  0  0  0  0  0  0  0  0  0  0
  181.4990  178.6040  140.6600 C   0  0  0  0  0  2  0  0  0  0  0  0
  180.8760  178.5530  139.2790 C   0  0  1  0  0  3  0  0  0  0  0  0
  180.7890  179.8190  140.1070 C   0  0  1  0  0  3  0  0  0  0  0  0
  179.4020  179.9180  140.7130 C   0  0  0  0  0  2  0  0  0  0  0  0
  179.4900  179.8060  142.1950 C   0  0  0  0  0  0  0  0  0  0  0  0
  178.9340  178.7110  142.8420 O   0  0  0  0  0  0  0  0  0  0  0  0
  180.0390  180.7210  142.8620 O   0  0  0  0  0  1  0  0  0  0  0  0
  182.6750  176.8830  135.0640 O   0  0  0  0  0  1  0  0  0  0  0  0
  182.2960  177.9840  135.8320 C   0  0  0  0  0  2  0  0  0  0  0  0
  1 19  1  6  0  0  0
  3  2  1  0  0  0  0
  4 22  2  0  0  0  0
  4 20  1  0  0  0  0
  5 15  1  1  0  0  0
  5  4  1  0  0  0  0
  6 32  1  6  0  0  0
  6 19  1  0  0  0  0
  6 14  1  0  0  0  0
  8 21  1  6  0  0  0
  8 13  1  0  0  0  0
  9  2  1  0  0  0  0
 10  1  1  0  0  0  0
 10 11  1  0  0  0  0
 10  7  1  1  0  0  0
 11  9  1  1  0  0  0
 12 22  1  0  0  0  0
 13 15  1  0  0  0  0
 14  7  1  1  0  0  0
 14 25  1  0  0  0  0
 16  3  1  0  0  0  0
 17 12  1  1  0  0  0
 17 16  1  0  0  0  0
 17 11  1  0  0  0  0
 18 12  2  0  0  0  0
 22  1  1  0  0  0  0
 23  5  1  0  0  0  0
 23  8  1  0  0  0  0
 23 18  1  0  0  0  0
 25 26  1  0  0  0  0
 25 24  1  1  0  0  0
 26 24  1  0  0  0  0
 26 27  1  1  0  0  0
 27 28  1  0  0  0  0
 28 29  2  0  0  0  0
 28 30  1  0  0  0  0
 31 32  1  0  0  0  0
M  END
>  <MODEL>
7

>  <REMARK>
 VINA RESULT:      -4.8      3.004      8.670
  Name = 
  4 active torsions:
  status: ('A' for Active; 'I' for Inactive)
    1  A    between atoms: C_7  and  C_19
    2  A    between atoms: C_10  and  C_17
    3  A    between atoms: C_20  and  C_29
    4  A    between atoms: C_29  and  C_30
                            x       y       z     vdW  Elec       q    Type
                         _______ _______ _______ _____ _____    ______ ____

>  <TORSDO>
F 4

$$$$
=
 OpenBabel11122410493D

 32 37  0  0  1  0  0  0  0  0999 V2000
  186.7060  176.7660  137.9970 C   0  0  1  0  0  3  0  0  0  0  0  0
  185.3900  173.1130  136.4120 C   0  0  0  0  0  2  0  0  0  0  0  0
  184.3170  173.8750  135.6500 C   0  0  0  0  0  2  0  0  0  0  0  0
  184.5620  178.0470  138.3140 C   0  0  0  0  0  0  0  0  0  0  0  0
  183.2730  178.6270  137.7860 C   0  0  2  0  0  3  0  0  0  0  0  0
  188.9280  178.0900  138.0960 C   0  0  2  0  0  3  0  0  0  0  0  0
  188.7280  175.6340  137.3740 C   0  0  0  0  0  2  0  0  0  0  0  0
  181.3320  177.6980  136.7710 C   0  0  1  0  0  3  0  0  0  0  0  0
  186.2370  174.1290  137.1570 C   0  0  0  0  0  2  0  0  0  0  0  0
  187.4640  176.1740  136.8730 N   0  0  1  0  0  0  0  0  0  0  0  0
  186.7460  175.1430  136.2130 N   0  0  2  0  0  0  0  0  0  0  0  0
  184.8020  176.7090  136.2640 C   0  0  0  0  0  0  0  0  0  0  0  0
  180.9790  178.3540  138.0930 C   0  0  0  0  0  2  0  0  0  0  0  0
  189.6660  176.7690  137.8040 C   0  0  2  0  0  3  0  0  0  0  0  0
  182.2280  178.6330  138.8050 N   0  0  0  0  0  2  0  0  0  0  0  0
  184.9000  174.7790  134.7350 O   0  0  0  0  0  0  0  0  0  0  0  0
  185.6470  175.7570  135.4430 C   0  0  2  0  0  3  0  0  0  0  0  0
  183.5650  177.0110  135.8660 C   0  0  0  0  0  3  0  0  0  0  0  0
  187.5340  177.8700  138.6950 C   0  0  0  0  0  2  0  0  0  0  0  0
  184.9620  178.4030  139.6000 O   0  0  0  0  0  1  0  0  0  0  0  0
  180.6180  178.4100  135.6390 C   0  0  0  0  0  1  0  0  0  0  0  0
  185.3420  177.2600  137.5380 C   0  0  0  0  0  0  0  0  0  0  0  0
  182.7550  177.8840  136.6530 N   0  0  0  0  0  0  0  0  0  0  0  0
  191.8650  176.9240  138.9530 C   0  0  0  0  0  2  0  0  0  0  0  0
  190.4690  176.3360  139.0190 C   0  0  1  0  0  3  0  0  0  0  0  0
  190.8200  177.5560  139.8470 C   0  0  1  0  0  3  0  0  0  0  0  0
  191.0530  177.1270  141.2820 C   0  0  0  0  0  2  0  0  0  0  0  0
  189.9330  177.6040  142.1400 C   0  0  0  0  0  0  0  0  0  0  0  0
  190.1840  178.4870  143.1820 O   0  0  0  0  0  1  0  0  0  0  0  0
  188.7650  177.1820  141.9400 O   0  0  0  0  0  0  0  0  0  0  0  0
  187.6700  179.7150  136.8770 O   0  0  0  0  0  1  0  0  0  0  0  0
  188.8320  178.9450  136.8420 C   0  0  0  0  0  2  0  0  0  0  0  0
  1 19  1  6  0  0  0
  2  9  1  0  0  0  0
  3  2  1  0  0  0  0
  4 20  1  0  0  0  0
  5  4  1  1  0  0  0
  5 15  1  0  0  0  0
  6 32  1  6  0  0  0
  6 19  1  0  0  0  0
  8 21  1  6  0  0  0
  8 13  1  0  0  0  0
 10  7  1  1  0  0  0
 10  1  1  0  0  0  0
 11 10  1  0  0  0  0
 11  9  1  1  0  0  0
 12 22  1  0  0  0  0
 13 15  1  0  0  0  0
 14  7  1  1  0  0  0
 14  6  1  0  0  0  0
 14 25  1  0  0  0  0
 16  3  1  0  0  0  0
 17 16  1  1  0  0  0
 17 11  1  0  0  0  0
 17 12  1  0  0  0  0
 18 12  2  0  0  0  0
 18 23  1  0  0  0  0
 22  1  1  0  0  0  0
 22  4  2  0  0  0  0
 23  8  1  0  0  0  0
 23  5  1  0  0  0  0
 24 26  1  0  0  0  0
 25 24  1  6  0  0  0
 25 26  1  0  0  0  0
 26 27  1  1  0  0  0
 27 28  1  0  0  0  0
 28 29  1  0  0  0  0
 30 28  2  0  0  0  0
 32 31  1  0  0  0  0
M  END
>  <MODEL>
8

>  <REMARK>
 VINA RESULT:      -4.8      2.359      2.780
  Name = 
  4 active torsions:
  status: ('A' for Active; 'I' for Inactive)
    1  A    between atoms: C_7  and  C_19
    2  A    between atoms: C_10  and  C_17
    3  A    between atoms: C_20  and  C_29
    4  A    between atoms: C_29  and  C_30
                            x       y       z     vdW  Elec       q    Type
                         _______ _______ _______ _____ _____    ______ ____

>  <TORSDO>
F 4

$$$$
=
 OpenBabel11122410493D

 32 37  0  0  1  0  0  0  0  0999 V2000
  182.9670  176.4890  138.0250 C   0  0  1  0  0  3  0  0  0  0  0  0
  183.9040  178.3870  141.6460 C   0  0  0  0  0  2  0  0  0  0  0  0
  185.1430  178.9630  140.9780 C   0  0  0  0  0  2  0  0  0  0  0  0
  185.2280  175.8480  137.1230 C   0  0  0  0  0  0  0  0  0  0  0  0
  186.6310  176.1960  136.6920 C   0  0  2  0  0  3  0  0  0  0  0  0
  180.9530  176.4140  136.3990 C   0  0  2  0  0  3  0  0  0  0  0  0
  180.8760  177.4050  138.7660 C   0  0  0  0  0  2  0  0  0  0  0  0
  188.5120  177.1530  137.7890 C   0  0  1  0  0  3  0  0  0  0  0  0
  183.1400  177.5980  140.5980 C   0  0  0  0  0  2  0  0  0  0  0  0
  182.2460  177.7340  138.3730 N   0  0  1  0  0  0  0  0  0  0  0  0
  182.8730  178.4510  139.4240 N   0  0  2  0  0  0  0  0  0  0  0  0
  185.0040  178.0550  138.1850 C   0  0  0  0  0  0  0  0  0  0  0  0
  188.8220  175.7380  137.3390 C   0  0  0  0  0  2  0  0  0  0  0  0
  180.0700  176.9210  137.5550 C   0  0  2  0  0  3  0  0  0  0  0  0
  187.5610  175.1020  136.9510 N   0  0  0  0  0  2  0  0  0  0  0  0
  184.7860  179.8070  139.9040 O   0  0  0  0  0  0  0  0  0  0  0  0
  184.1180  179.0510  138.9050 C   0  0  2  0  0  3  0  0  0  0  0  0
  186.3040  178.3130  138.0310 C   0  0  0  0  0  3  0  0  0  0  0  0
  182.2380  175.7340  136.8900 C   0  0  0  0  0  2  0  0  0  0  0  0
  184.7580  174.5660  136.8500 O   0  0  0  0  0  1  0  0  0  0  0  0
  189.4260  178.1310  137.0770 C   0  0  0  0  0  1  0  0  0  0  0  0
  184.4240  176.7740  137.6970 C   0  0  0  0  0  0  0  0  0  0  0  0
  187.1470  177.3640  137.3800 N   0  0  0  0  0  0  0  0  0  0  0  0
  179.3910  174.5500  137.2420 C   0  0  0  0  0  2  0  0  0  0  0  0
  179.0980  175.8360  137.9880 C   0  0  1  0  0  3  0  0  0  0  0  0
  179.8660  174.7190  138.6680 C   0  0  1  0  0  3  0  0  0  0  0  0
  178.9320  173.9800  139.6060 C   0  0  0  0  0  2  0  0  0  0  0  0
  179.2700  174.3080  141.0180 C   0  0  0  0  0  0  0  0  0  0  0  0
  179.7010  173.3080  141.8790 O   0  0  0  0  0  1  0  0  0  0  0  0
  179.1340  175.4860  141.4400 O   0  0  0  0  0  0  0  0  0  0  0  0
  180.2370  178.4570  135.3880 O   0  0  0  0  0  1  0  0  0  0  0  0
  181.2910  177.5450  135.4400 C   0  0  0  0  0  2  0  0  0  0  0  0
  1 19  1  6  0  0  0
  1 10  1  0  0  0  0
  3  2  1  0  0  0  0
  4 22  2  0  0  0  0
  5 15  1  1  0  0  0
  5  4  1  0  0  0  0
  5 23  1  0  0  0  0
  6 32  1  6  0  0  0
  6 19  1  0  0  0  0
  6 14  1  0  0  0  0
  8 21  1  6  0  0  0
  9  2  1  0  0  0  0
 10  7  1  1  0  0  0
 10 11  1  0  0  0  0
 11  9  1  1  0  0  0
 13  8  1  0  0  0  0
 14 25  1  0  0  0  0
 14  7  1  1  0  0  0
 15 13  1  0  0  0  0
 16  3  1  0  0  0  0
 17 12  1  1  0  0  0
 17 11  1  0  0  0  0
 17 16  1  0  0  0  0
 18 12  2  0  0  0  0
 20  4  1  0  0  0  0
 22  1  1  0  0  0  0
 22 12  1  0  0  0  0
 23  8  1  0  0  0  0
 23 18  1  0  0  0  0
 24 26  1  0  0  0  0
 25 24  1  6  0  0  0
 25 26  1  0  0  0  0
 26 27  1  1  0  0  0
 27 28  1  0  0  0  0
 28 30  2  0  0  0  0
 28 29  1  0  0  0  0
 31 32  1  0  0  0  0
M  END
>  <MODEL>
9

>  <REMARK>
 VINA RESULT:      -4.7      3.326      8.656
  Name = 
  4 active torsions:
  status: ('A' for Active; 'I' for Inactive)
    1  A    between atoms: C_7  and  C_19
    2  A    between atoms: C_10  and  C_17
    3  A    between atoms: C_20  and  C_29
    4  A    between atoms: C_29  and  C_30
                            x       y       z     vdW  Elec       q    Type
                         _______ _______ _______ _____ _____    ______ ____

>  <TORSDO>
F 4

$$$$
