=
 OpenBabel11122412033D

 34 41  0  0  1  0  0  0  0  0999 V2000
  184.5810  178.5000  144.8020 C   0  0  0  0  0  0  0  0  0  0  0  0
  182.2320  178.9790  144.2390 O   0  0  0  0  0  0  0  0  0  0  0  0
  190.1680  176.2340  143.4360 C   0  0  1  0  0  3  0  0  0  0  0  0
  186.9160  178.0140  145.2430 C   0  0  0  0  0  0  0  0  0  0  0  0
  188.3800  177.7730  143.2820 C   0  0  0  0  0  0  0  0  0  0  0  0
  190.0130  176.7260  141.5240 C   0  0  0  0  0  2  0  0  0  0  0  0
  190.6020  175.6600  142.2370 O   0  0  0  0  0  0  0  0  0  0  0  0
  190.6750  177.6110  145.4570 C   0  0  0  0  0  2  0  0  0  0  0  0
  183.7460  178.7820  142.4920 C   0  0  0  0  0  0  0  0  0  0  0  0
  183.0730  177.3710  139.9870 C   0  0  0  0  0  2  0  0  0  0  0  0
  187.3820  178.0240  142.4210 C   0  0  0  0  0  3  0  0  0  0  0  0
  189.2250  177.5360  145.7150 N   0  0  0  0  0  2  0  0  0  0  0  0
  184.9660  178.5480  141.9670 C   0  0  0  0  0  0  0  0  0  0  0  0
  181.5610  179.2880  143.0210 C   0  0  0  0  0  2  0  0  0  0  0  0
  188.1540  177.7990  144.7730 C   0  0  0  0  0  0  0  0  0  0  0  0
  191.1980  176.5060  144.5110 C   0  0  0  0  0  2  0  0  0  0  0  0
  182.0070  177.9160  140.9470 C   0  0  1  0  0  3  0  0  0  0  0  0
  185.8100  178.2740  144.3130 C   0  0  2  0  0  3  0  0  0  0  0  0
  189.7600  177.5140  142.7870 C   0  0  2  0  0  3  0  0  0  0  0  0
  186.0500  178.2870  142.8900 N   0  0  0  0  0  0  0  0  0  0  0  0
  185.2880  178.2640  147.0850 C   0  0  0  0  0  3  0  0  0  0  0  0
  184.0420  178.4580  139.5330 C   0  0  0  0  0  2  0  0  0  0  0  0
  186.6310  178.0160  146.6460 N   0  0  0  0  0  0  0  0  0  0  0  0
  185.2470  178.5700  140.4740 C   0  0  0  0  0  2  0  0  0  0  0  0
  182.4910  179.0910  141.8110 C   0  0  2  0  0  3  0  0  0  0  0  0
  184.3390  178.4880  146.2210 N   0  0  0  0  0  0  0  0  0  0  0  0
  183.5190  178.7530  143.8780 N   0  0  0  0  0  0  0  0  0  0  0  0
  180.8350  178.3160  140.1840 N   0  0  0  0  0  2  0  0  0  0  0  0
  181.1330  179.5010  139.5990 O   0  0  0  0  0  0  0  0  0  0  0  0
  178.9310  181.5630  140.9210 C   0  0  0  0  0  2  0  0  0  0  0  0
  180.0890  181.5550  139.0190 C   0  0  0  0  0  2  0  0  0  0  0  0
  179.8940  180.0900  139.3390 C   0  0  2  0  0  3  0  0  0  0  0  0
  179.1510  182.3010  139.7490 O   0  0  0  0  0  0  0  0  0  0  0  0
  179.0650  180.0980  140.5880 C   0  0  0  0  0  2  0  0  0  0  0  0
  1 26  2  0  0  0  0
  3 16  1  1  0  0  0
  4 23  1  0  0  0  0
  5 15  1  0  0  0  0
  6  7  1  0  0  0  0
  7  3  1  0  0  0  0
  8 12  1  0  0  0  0
  9 27  1  0  0  0  0
 10 17  1  0  0  0  0
 11 20  1  0  0  0  0
 11  5  2  0  0  0  0
 13  9  2  0  0  0  0
 13 20  1  0  0  0  0
 14  2  1  0  0  0  0
 15  4  2  0  0  0  0
 15 12  1  0  0  0  0
 16  8  1  0  0  0  0
 17 28  1  6  0  0  0
 17 25  1  0  0  0  0
 18  1  1  1  0  0  0
 18  4  1  0  0  0  0
 19  6  1  6  0  0  0
 19  5  1  0  0  0  0
 19  3  1  0  0  0  0
 20 18  1  0  0  0  0
 22 10  1  0  0  0  0
 22 24  1  0  0  0  0
 23 21  2  0  0  0  0
 24 13  1  0  0  0  0
 25  9  1  0  0  0  0
 25 14  1  1  0  0  0
 26 21  1  0  0  0  0
 27  2  1  0  0  0  0
 27  1  1  0  0  0  0
 29 28  1  0  0  0  0
 31 32  1  0  0  0  0
 31 33  1  0  0  0  0
 32 29  1  1  0  0  0
 32 34  1  0  0  0  0
 33 30  1  0  0  0  0
 34 30  1  0  0  0  0
M  END
>  <MODEL>
1

>  <REMARK>
 VINA RESULT:      -9.4      0.000      0.000
  Name = 
  3 active torsions:
  status: ('A' for Active; 'I' for Inactive)
    1  A    between atoms: C_17  and  N_28
    2  A    between atoms: N_28  and  O_29
    3  A    between atoms: O_29  and  C_32
                            x       y       z     vdW  Elec       q    Type
                         _______ _______ _______ _____ _____    ______ ____

>  <TORSDO>
F 3

$$$$
=
 OpenBabel11122412033D

 34 41  0  0  1  0  0  0  0  0999 V2000
  184.5630  178.5000  144.7870 C   0  0  0  0  0  0  0  0  0  0  0  0
  182.2010  178.9460  144.2500 O   0  0  0  0  0  0  0  0  0  0  0  0
  190.1530  176.2700  143.3740 C   0  0  1  0  0  3  0  0  0  0  0  0
  186.9090  178.0440  145.2010 C   0  0  0  0  0  0  0  0  0  0  0  0
  188.3470  177.7880  143.2220 C   0  0  0  0  0  0  0  0  0  0  0  0
  189.9650  176.7320  141.4560 C   0  0  0  0  0  2  0  0  0  0  0  0
  190.5750  175.6830  142.1770 O   0  0  0  0  0  0  0  0  0  0  0  0
  190.6750  177.6810  145.3660 C   0  0  0  0  0  2  0  0  0  0  0  0
  183.6920  178.7400  142.4850 C   0  0  0  0  0  0  0  0  0  0  0  0
  182.9980  177.2850  140.0110 C   0  0  0  0  0  2  0  0  0  0  0  0
  187.3350  178.0170  142.3720 C   0  0  0  0  0  3  0  0  0  0  0  0
  189.2300  177.5960  145.6460 N   0  0  0  0  0  2  0  0  0  0  0  0
  184.9070  178.5100  141.9460 C   0  0  0  0  0  0  0  0  0  0  0  0
  181.5100  179.2310  143.0380 C   0  0  0  0  0  2  0  0  0  0  0  0
  188.1430  177.8340  144.7160 C   0  0  0  0  0  0  0  0  0  0  0  0
  191.1960  176.5690  144.4290 C   0  0  0  0  0  2  0  0  0  0  0  0
  181.9400  177.8330  140.9780 C   0  0  1  0  0  3  0  0  0  0  0  0
  185.7870  178.2790  144.2830 C   0  0  2  0  0  3  0  0  0  0  0  0
  189.7220  177.5360  142.7120 C   0  0  2  0  0  3  0  0  0  0  0  0
  186.0070  178.2730  142.8560 N   0  0  0  0  0  0  0  0  0  0  0  0
  185.3050  178.3040  147.0630 C   0  0  0  0  0  3  0  0  0  0  0  0
  183.9490  178.3740  139.5270 C   0  0  0  0  0  2  0  0  0  0  0  0
  186.6440  178.0630  146.6070 N   0  0  0  0  0  0  0  0  0  0  0  0
  185.1670  178.5130  140.4490 C   0  0  0  0  0  2  0  0  0  0  0  0
  182.4250  179.0260  141.8170 C   0  0  2  0  0  3  0  0  0  0  0  0
  184.3410  178.5060  146.2090 N   0  0  0  0  0  0  0  0  0  0  0  0
  183.4860  178.7290  143.8740 N   0  0  0  0  0  0  0  0  0  0  0  0
  180.7540  178.2100  140.2270 N   0  0  0  0  0  2  0  0  0  0  0  0
  180.8980  179.5150  139.8930 O   0  0  0  0  0  0  0  0  0  0  0  0
  181.3260  178.8690  136.6920 C   0  0  0  0  0  2  0  0  0  0  0  0
  179.7930  178.2770  138.1930 C   0  0  0  0  0  2  0  0  0  0  0  0
  180.2580  179.6390  138.6580 C   0  0  2  0  0  3  0  0  0  0  0  0
  180.1540  178.1170  136.8460 O   0  0  0  0  0  0  0  0  0  0  0  0
  181.2480  180.0600  137.6140 C   0  0  0  0  0  2  0  0  0  0  0  0
  1 26  2  0  0  0  0
  3 16  1  1  0  0  0
  4 23  1  0  0  0  0
  5 15  1  0  0  0  0
  6  7  1  0  0  0  0
  7  3  1  0  0  0  0
  8 12  1  0  0  0  0
  9 27  1  0  0  0  0
 10 17  1  0  0  0  0
 11 20  1  0  0  0  0
 11  5  2  0  0  0  0
 13  9  2  0  0  0  0
 13 20  1  0  0  0  0
 14  2  1  0  0  0  0
 15  4  2  0  0  0  0
 15 12  1  0  0  0  0
 16  8  1  0  0  0  0
 17 28  1  6  0  0  0
 17 25  1  0  0  0  0
 18  1  1  1  0  0  0
 18  4  1  0  0  0  0
 19  6  1  6  0  0  0
 19  5  1  0  0  0  0
 19  3  1  0  0  0  0
 20 18  1  0  0  0  0
 22 10  1  0  0  0  0
 22 24  1  0  0  0  0
 23 21  2  0  0  0  0
 24 13  1  0  0  0  0
 25  9  1  0  0  0  0
 25 14  1  1  0  0  0
 26 21  1  0  0  0  0
 27  2  1  0  0  0  0
 27  1  1  0  0  0  0
 29 28  1  0  0  0  0
 30 33  1  0  0  0  0
 30 34  1  0  0  0  0
 31 32  1  0  0  0  0
 32 29  1  1  0  0  0
 33 31  1  0  0  0  0
 34 32  1  0  0  0  0
M  END
>  <MODEL>
2

>  <REMARK>
 VINA RESULT:      -9.4      0.966      1.573
  Name = 
  3 active torsions:
  status: ('A' for Active; 'I' for Inactive)
    1  A    between atoms: C_17  and  N_28
    2  A    between atoms: N_28  and  O_29
    3  A    between atoms: O_29  and  C_32
                            x       y       z     vdW  Elec       q    Type
                         _______ _______ _______ _____ _____    ______ ____

>  <TORSDO>
F 3

$$$$
=
 OpenBabel11122412033D

 34 41  0  0  1  0  0  0  0  0999 V2000
  186.6020  178.2650  141.7240 C   0  0  0  0  0  0  0  0  0  0  0  0
  186.6460  178.3250  139.2630 O   0  0  0  0  0  0  0  0  0  0  0  0
  188.9940  176.6400  147.1880 C   0  0  1  0  0  3  0  0  0  0  0  0
  186.6720  178.1780  144.1480 C   0  0  0  0  0  0  0  0  0  0  0  0
  188.8850  177.8750  145.1750 C   0  0  0  0  0  0  0  0  0  0  0  0
  190.8580  176.8340  146.5450 C   0  0  0  0  0  2  0  0  0  0  0  0
  190.1960  175.9710  147.4440 O   0  0  0  0  0  0  0  0  0  0  0  0
  187.3020  178.3410  147.8780 C   0  0  0  0  0  2  0  0  0  0  0  0
  188.6690  178.1030  140.3770 C   0  0  0  0  0  0  0  0  0  0  0  0
  190.7870  176.2770  139.4300 C   0  0  0  0  0  2  0  0  0  0  0  0
  189.5100  177.8610  143.9880 C   0  0  0  0  0  3  0  0  0  0  0  0
  186.7060  178.1000  146.5510 N   0  0  0  0  0  2  0  0  0  0  0  0
  189.4380  177.9720  141.4780 C   0  0  0  0  0  0  0  0  0  0  0  0
  187.6990  178.3640  138.3040 C   0  0  0  0  0  2  0  0  0  0  0  0
  187.3940  178.0760  145.2740 C   0  0  0  0  0  0  0  0  0  0  0  0
  188.2250  177.2010  148.3640 C   0  0  0  0  0  2  0  0  0  0  0  0
  189.6660  176.7940  138.5190 C   0  0  1  0  0  3  0  0  0  0  0  0
  187.3390  178.1480  142.8400 C   0  0  2  0  0  3  0  0  0  0  0  0
  189.6590  177.7470  146.4400 C   0  0  2  0  0  3  0  0  0  0  0  0
  188.7720  177.9970  142.7630 N   0  0  0  0  0  0  0  0  0  0  0  0
  184.5350  178.4500  142.9350 C   0  0  0  0  0  3  0  0  0  0  0  0
  191.5650  177.4150  140.0820 C   0  0  0  0  0  2  0  0  0  0  0  0
  185.2490  178.3350  144.1740 N   0  0  0  0  0  0  0  0  0  0  0  0
  190.9490  177.8260  141.4250 C   0  0  0  0  0  2  0  0  0  0  0  0
  189.0660  178.1350  138.9720 C   0  0  2  0  0  3  0  0  0  0  0  0
  185.1720  178.4160  141.7980 N   0  0  0  0  0  0  0  0  0  0  0  0
  187.2730  178.2350  140.4620 N   0  0  0  0  0  0  0  0  0  0  0  0
  190.1710  176.9160  137.1610 N   0  0  0  0  0  2  0  0  0  0  0  0
  190.1370  175.6760  136.6160 O   0  0  0  0  0  0  0  0  0  0  0  0
  187.2970  176.4880  135.1560 C   0  0  0  0  0  2  0  0  0  0  0  0
  189.3550  177.3350  135.1050 C   0  0  0  0  0  2  0  0  0  0  0  0
  189.5710  175.8590  135.3530 C   0  0  2  0  0  3  0  0  0  0  0  0
  188.0620  177.5190  134.5940 O   0  0  0  0  0  0  0  0  0  0  0  0
  188.1870  175.2810  135.3290 C   0  0  0  0  0  2  0  0  0  0  0  0
  1 26  2  0  0  0  0
  2 27  1  0  0  0  0
  3  7  1  0  0  0  0
  3 16  1  1  0  0  0
  4 23  1  0  0  0  0
  4 15  2  0  0  0  0
  5 15  1  0  0  0  0
  5 19  1  0  0  0  0
  6  7  1  0  0  0  0
  8 16  1  0  0  0  0
  9 27  1  0  0  0  0
  9 13  2  0  0  0  0
 10 22  1  0  0  0  0
 11  5  2  0  0  0  0
 12  8  1  0  0  0  0
 13 20  1  0  0  0  0
 14  2  1  0  0  0  0
 15 12  1  0  0  0  0
 17 28  1  6  0  0  0
 17 25  1  0  0  0  0
 17 10  1  0  0  0  0
 18  1  1  1  0  0  0
 18  4  1  0  0  0  0
 19  6  1  6  0  0  0
 19  3  1  0  0  0  0
 20 18  1  0  0  0  0
 20 11  1  0  0  0  0
 21 23  2  0  0  0  0
 22 24  1  0  0  0  0
 24 13  1  0  0  0  0
 25 14  1  6  0  0  0
 25  9  1  0  0  0  0
 26 21  1  0  0  0  0
 27  1  1  0  0  0  0
 29 28  1  0  0  0  0
 30 34  1  0  0  0  0
 31 32  1  0  0  0  0
 32 29  1  1  0  0  0
 33 31  1  0  0  0  0
 33 30  1  0  0  0  0
 34 32  1  0  0  0  0
M  END
>  <MODEL>
3

>  <REMARK>
 VINA RESULT:      -9.3      3.715      6.664
  Name = 
  3 active torsions:
  status: ('A' for Active; 'I' for Inactive)
    1  A    between atoms: C_17  and  N_28
    2  A    between atoms: N_28  and  O_29
    3  A    between atoms: O_29  and  C_32
                            x       y       z     vdW  Elec       q    Type
                         _______ _______ _______ _____ _____    ______ ____

>  <TORSDO>
F 3

$$$$
=
 OpenBabel11122412033D

 34 41  0  0  1  0  0  0  0  0999 V2000
  186.6950  178.2210  141.7110 C   0  0  0  0  0  0  0  0  0  0  0  0
  186.8230  178.2820  139.2530 O   0  0  0  0  0  0  0  0  0  0  0  0
  188.9310  176.6450  147.2550 C   0  0  1  0  0  3  0  0  0  0  0  0
  186.6830  178.1350  144.1360 C   0  0  0  0  0  0  0  0  0  0  0  0
  188.8650  177.8780  145.2390 C   0  0  0  0  0  0  0  0  0  0  0  0
  190.8110  176.8790  146.6770 C   0  0  0  0  0  2  0  0  0  0  0  0
  190.1370  176.0030  147.5530 O   0  0  0  0  0  0  0  0  0  0  0  0
  187.1810  178.3110  147.8850 C   0  0  0  0  0  2  0  0  0  0  0  0
  188.8100  178.1030  140.4370 C   0  0  0  0  0  0  0  0  0  0  0  0
  190.9970  176.3220  139.5640 C   0  0  0  0  0  2  0  0  0  0  0  0
  189.5310  177.8780  144.0740 C   0  0  0  0  0  3  0  0  0  0  0  0
  186.6360  178.0580  146.5390 N   0  0  0  0  0  2  0  0  0  0  0  0
  189.5430  177.9870  141.5630 C   0  0  0  0  0  0  0  0  0  0  0  0
  187.9070  178.3440  138.3310 C   0  0  0  0  0  2  0  0  0  0  0  0
  187.3680  178.0480  145.2860 C   0  0  0  0  0  0  0  0  0  0  0  0
  188.1100  177.1900  148.4040 C   0  0  0  0  0  2  0  0  0  0  0  0
  189.8980  176.8150  138.6140 C   0  0  1  0  0  3  0  0  0  0  0  0
  187.3950  178.1190  142.8520 C   0  0  2  0  0  3  0  0  0  0  0  0
  189.5980  177.7660  146.5300 C   0  0  2  0  0  3  0  0  0  0  0  0
  188.8330  177.9980  142.8250 N   0  0  0  0  0  0  0  0  0  0  0  0
  184.5840  178.3620  142.8500 C   0  0  0  0  0  3  0  0  0  0  0  0
  191.7290  177.4760  140.2420 C   0  0  0  0  0  2  0  0  0  0  0  0
  185.2570  178.2620  144.1130 N   0  0  0  0  0  0  0  0  0  0  0  0
  191.0580  177.8730  141.5620 C   0  0  0  0  0  2  0  0  0  0  0  0
  189.2550  178.1430  139.0460 C   0  0  2  0  0  3  0  0  0  0  0  0
  185.2610  178.3420  141.7360 N   0  0  0  0  0  0  0  0  0  0  0  0
  187.4100  178.2050  140.4730 N   0  0  0  0  0  0  0  0  0  0  0  0
  190.4470  176.9480  137.2740 N   0  0  0  0  0  2  0  0  0  0  0  0
  190.9280  175.7310  136.9240 O   0  0  0  0  0  0  0  0  0  0  0  0
  194.1590  175.2450  136.5070 C   0  0  0  0  0  2  0  0  0  0  0  0
  192.3550  174.7330  135.3070 C   0  0  0  0  0  2  0  0  0  0  0  0
  191.9670  176.0030  136.0330 C   0  0  2  0  0  3  0  0  0  0  0  0
  193.7540  174.6200  135.3200 O   0  0  0  0  0  0  0  0  0  0  0  0
  193.2030  176.3770  136.7950 C   0  0  0  0  0  2  0  0  0  0  0  0
  1 26  2  0  0  0  0
  2 27  1  0  0  0  0
  3  7  1  0  0  0  0
  3 16  1  1  0  0  0
  4 15  2  0  0  0  0
  5 15  1  0  0  0  0
  5 19  1  0  0  0  0
  6  7  1  0  0  0  0
  8 16  1  0  0  0  0
  9 27  1  0  0  0  0
  9 13  2  0  0  0  0
 10 22  1  0  0  0  0
 11  5  2  0  0  0  0
 12  8  1  0  0  0  0
 13 20  1  0  0  0  0
 14  2  1  0  0  0  0
 15 12  1  0  0  0  0
 17 28  1  6  0  0  0
 17 25  1  0  0  0  0
 17 10  1  0  0  0  0
 18  1  1  1  0  0  0
 18  4  1  0  0  0  0
 19  6  1  6  0  0  0
 19  3  1  0  0  0  0
 20 18  1  0  0  0  0
 20 11  1  0  0  0  0
 21 23  2  0  0  0  0
 22 24  1  0  0  0  0
 23  4  1  0  0  0  0
 24 13  1  0  0  0  0
 25 14  1  6  0  0  0
 25  9  1  0  0  0  0
 26 21  1  0  0  0  0
 27  1  1  0  0  0  0
 29 28  1  0  0  0  0
 30 34  1  0  0  0  0
 31 33  1  0  0  0  0
 31 32  1  0  0  0  0
 32 34  1  0  0  0  0
 32 29  1  1  0  0  0
 33 30  1  0  0  0  0
M  END
>  <MODEL>
4

>  <REMARK>
 VINA RESULT:      -9.2      3.724      7.883
  Name = 
  3 active torsions:
  status: ('A' for Active; 'I' for Inactive)
    1  A    between atoms: C_17  and  N_28
    2  A    between atoms: N_28  and  O_29
    3  A    between atoms: O_29  and  C_32
                            x       y       z     vdW  Elec       q    Type
                         _______ _______ _______ _____ _____    ______ ____

>  <TORSDO>
F 3

$$$$
=
 OpenBabel11122412033D

 34 41  0  0  1  0  0  0  0  0999 V2000
  185.7610  178.4970  140.1890 C   0  0  0  0  0  0  0  0  0  0  0  0
  188.1780  178.1180  140.4710 O   0  0  0  0  0  0  0  0  0  0  0  0
  179.9150  178.1440  142.1660 C   0  0  1  0  0  3  0  0  0  0  0  0
  183.3670  178.8540  140.0260 C   0  0  0  0  0  0  0  0  0  0  0  0
  182.1260  178.9790  142.1450 C   0  0  0  0  0  0  0  0  0  0  0  0
  180.4300  178.4190  144.0590 C   0  0  0  0  0  2  0  0  0  0  0  0
  179.4410  177.6660  143.3910 O   0  0  0  0  0  0  0  0  0  0  0  0
  179.6960  179.7510  140.2670 C   0  0  0  0  0  2  0  0  0  0  0  0
  186.8820  178.3180  142.3850 C   0  0  0  0  0  0  0  0  0  0  0  0
  187.2950  176.5890  144.7420 C   0  0  0  0  0  2  0  0  0  0  0  0
  183.2350  178.8200  142.8830 C   0  0  0  0  0  3  0  0  0  0  0  0
  180.9970  179.2130  139.8290 N   0  0  0  0  0  2  0  0  0  0  0  0
  185.7190  178.4690  143.0500 C   0  0  0  0  0  0  0  0  0  0  0  0
  189.0390  178.0980  141.6050 C   0  0  0  0  0  2  0  0  0  0  0  0
  182.1870  179.0340  140.6390 C   0  0  0  0  0  0  0  0  0  0  0  0
  178.9310  178.8220  141.2360 C   0  0  0  0  0  2  0  0  0  0  0  0
  188.3750  176.8110  143.6750 C   0  0  1  0  0  3  0  0  0  0  0  0
  184.5880  178.6610  140.8190 C   0  0  0  0  0  0  0  0  0  0  0  0
  180.8010  179.1640  142.7980 C   0  0  2  0  0  3  0  0  0  0  0  0
  184.5190  178.6530  142.2610 N   0  0  0  0  0  0  0  0  0  0  0  0
  184.7770  178.6730  138.0040 C   0  0  0  0  0  3  0  0  0  0  0  0
  186.8090  177.9020  145.3460 C   0  0  0  0  0  2  0  0  0  0  0  0
  183.4850  178.8600  138.5990 N   0  0  0  0  0  2  0  0  0  0  0  0
  185.6220  178.4790  144.5660 C   0  0  0  0  0  2  0  0  0  0  0  0
  188.2320  178.1390  142.9150 C   0  0  2  0  0  3  0  0  0  0  0  0
  185.8320  178.5050  138.7510 N   0  0  0  0  0  0  0  0  0  0  0  0
  186.9370  178.3130  140.9820 N   0  0  0  0  0  0  0  0  0  0  0  0
  189.6860  176.7400  144.2990 N   0  0  0  0  0  2  0  0  0  0  0  0
  189.5650  177.2860  145.5330 O   0  0  0  0  0  0  0  0  0  0  0  0
  191.6210  175.6490  147.5180 C   0  0  0  0  0  2  0  0  0  0  0  0
  191.6960  176.2470  145.3750 C   0  0  0  0  0  2  0  0  0  0  0  0
  190.8680  177.3290  146.0310 C   0  0  2  0  0  3  0  0  0  0  0  0
  192.4210  175.5730  146.3690 O   0  0  0  0  0  0  0  0  0  0  0  0
  190.8680  176.9560  147.4840 C   0  0  0  0  0  2  0  0  0  0  0  0
  1 18  2  0  0  0  0
  1 27  1  0  0  0  0
  2 27  1  0  0  0  0
  2 14  1  0  0  0  0
  3 16  1  6  0  0  0
  3 19  1  0  0  0  0
  3  7  1  0  0  0  0
  4 15  2  0  0  0  0
  4 18  1  0  0  0  0
  5 19  1  0  0  0  0
  5 11  2  0  0  0  0
  7  6  1  0  0  0  0
  8 16  1  0  0  0  0
  9 25  1  0  0  0  0
  9 13  2  0  0  0  0
 10 22  1  0  0  0  0
 12  8  1  0  0  0  0
 12 15  1  0  0  0  0
 13 24  1  0  0  0  0
 15  5  1  0  0  0  0
 17 28  1  1  0  0  0
 17 10  1  0  0  0  0
 18 20  1  0  0  0  0
 19  6  1  1  0  0  0
 20 11  1  0  0  0  0
 20 13  1  0  0  0  0
 21 23  1  0  0  0  0
 21 26  2  0  0  0  0
 23  4  1  0  0  0  0
 24 22  1  0  0  0  0
 25 14  1  6  0  0  0
 25 17  1  0  0  0  0
 26  1  1  0  0  0  0
 27  9  1  0  0  0  0
 28 29  1  0  0  0  0
 31 32  1  0  0  0  0
 31 33  1  0  0  0  0
 32 29  1  6  0  0  0
 32 34  1  0  0  0  0
 33 30  1  0  0  0  0
 34 30  1  0  0  0  0
M  END
>  <MODEL>
5

>  <REMARK>
 VINA RESULT:      -9.1      2.177      9.189
  Name = 
  3 active torsions:
  status: ('A' for Active; 'I' for Inactive)
    1  A    between atoms: C_17  and  N_28
    2  A    between atoms: N_28  and  O_29
    3  A    between atoms: O_29  and  C_32
                            x       y       z     vdW  Elec       q    Type
                         _______ _______ _______ _____ _____    ______ ____

>  <TORSDO>
F 3

$$$$
=
 OpenBabel11122412033D

 34 41  0  0  1  0  0  0  0  0999 V2000
  186.2370  178.3310  141.7980 C   0  0  0  0  0  0  0  0  0  0  0  0
  186.1620  178.3820  139.3370 O   0  0  0  0  0  0  0  0  0  0  0  0
  188.8740  176.6980  147.1450 C   0  0  1  0  0  3  0  0  0  0  0  0
  186.4230  178.2510  144.2160 C   0  0  0  0  0  0  0  0  0  0  0  0
  188.6800  177.9270  145.1350 C   0  0  0  0  0  0  0  0  0  0  0  0
  190.7070  176.8690  146.4120 C   0  0  0  0  0  2  0  0  0  0  0  0
  190.0790  176.0170  147.3460 O   0  0  0  0  0  0  0  0  0  0  0  0
  187.2360  178.4200  147.9100 C   0  0  0  0  0  2  0  0  0  0  0  0
  188.2340  178.1420  140.3530 C   0  0  0  0  0  0  0  0  0  0  0  0
  190.2830  176.2890  139.3110 C   0  0  0  0  0  2  0  0  0  0  0  0
  189.2470  177.9030  143.9190 C   0  0  0  0  0  3  0  0  0  0  0  0
  186.5730  178.1810  146.6150 N   0  0  0  0  0  2  0  0  0  0  0  0
  189.0540  178.0060  141.4150 C   0  0  0  0  0  0  0  0  0  0  0  0
  187.1670  178.4070  138.3280 C   0  0  0  0  0  2  0  0  0  0  0  0
  187.1980  178.1450  145.3060 C   0  0  0  0  0  0  0  0  0  0  0  0
  188.1690  177.2710  148.3550 C   0  0  0  0  0  2  0  0  0  0  0  0
  189.1250  176.8160  138.4530 C   0  0  1  0  0  3  0  0  0  0  0  0
  187.0260  178.2100  142.8770 C   0  0  2  0  0  3  0  0  0  0  0  0
  189.5140  177.7950  146.3620 C   0  0  2  0  0  3  0  0  0  0  0  0
  188.4520  178.0420  142.7310 N   0  0  0  0  0  0  0  0  0  0  0  0
  184.2340  178.5430  143.1070 C   0  0  0  0  0  3  0  0  0  0  0  0
  191.1040  177.4210  139.9200 C   0  0  0  0  0  2  0  0  0  0  0  0
  185.0050  178.4240  144.3100 N   0  0  0  0  0  0  0  0  0  0  0  0
  190.5590  177.8430  141.2890 C   0  0  0  0  0  2  0  0  0  0  0  0
  188.5630  178.1640  138.9300 C   0  0  2  0  0  3  0  0  0  0  0  0
  184.8140  178.4980  141.9410 N   0  0  0  0  0  0  0  0  0  0  0  0
  186.8460  178.2900  140.5050 N   0  0  0  0  0  0  0  0  0  0  0  0
  189.5650  176.9270  137.0720 N   0  0  0  0  0  2  0  0  0  0  0  0
  189.5820  175.6720  136.5620 O   0  0  0  0  0  0  0  0  0  0  0  0
  187.2850  174.2680  134.6640 C   0  0  0  0  0  2  0  0  0  0  0  0
  188.1860  173.7510  136.6330 C   0  0  0  0  0  2  0  0  0  0  0  0
  188.2480  175.2620  136.5840 C   0  0  2  0  0  3  0  0  0  0  0  0
  187.2470  173.3110  135.6870 O   0  0  0  0  0  0  0  0  0  0  0  0
  187.5880  175.6100  135.2840 C   0  0  0  0  0  2  0  0  0  0  0  0
  1 26  2  0  0  0  0
  2 27  1  0  0  0  0
  3  7  1  0  0  0  0
  3 16  1  1  0  0  0
  4 23  1  0  0  0  0
  4 15  2  0  0  0  0
  5 15  1  0  0  0  0
  5 19  1  0  0  0  0
  6  7  1  0  0  0  0
  8 16  1  0  0  0  0
  9 27  1  0  0  0  0
  9 13  2  0  0  0  0
 10 22  1  0  0  0  0
 11  5  2  0  0  0  0
 12  8  1  0  0  0  0
 13 20  1  0  0  0  0
 14  2  1  0  0  0  0
 15 12  1  0  0  0  0
 17 28  1  6  0  0  0
 17 25  1  0  0  0  0
 17 10  1  0  0  0  0
 18  1  1  1  0  0  0
 18  4  1  0  0  0  0
 19  6  1  6  0  0  0
 19  3  1  0  0  0  0
 20 18  1  0  0  0  0
 20 11  1  0  0  0  0
 21 23  2  0  0  0  0
 22 24  1  0  0  0  0
 24 13  1  0  0  0  0
 25 14  1  6  0  0  0
 25  9  1  0  0  0  0
 26 21  1  0  0  0  0
 27  1  1  0  0  0  0
 29 28  1  0  0  0  0
 30 34  1  0  0  0  0
 30 33  1  0  0  0  0
 32 29  1  6  0  0  0
 32 31  1  0  0  0  0
 33 31  1  0  0  0  0
 34 32  1  0  0  0  0
M  END
>  <MODEL>
6

>  <REMARK>
 VINA RESULT:      -9.0      3.623      6.569
  Name = 
  3 active torsions:
  status: ('A' for Active; 'I' for Inactive)
    1  A    between atoms: C_17  and  N_28
    2  A    between atoms: N_28  and  O_29
    3  A    between atoms: O_29  and  C_32
                            x       y       z     vdW  Elec       q    Type
                         _______ _______ _______ _____ _____    ______ ____

>  <TORSDO>
F 3

$$$$
=
 OpenBabel11122412033D

 34 41  0  0  1  0  0  0  0  0999 V2000
  186.4710  177.9730  143.9380 C   0  0  0  0  0  0  0  0  0  0  0  0
  184.2620  178.3700  144.9520 O   0  0  0  0  0  0  0  0  0  0  0  0
  190.1070  176.7070  139.1010 C   0  0  1  0  0  3  0  0  0  0  0  0
  188.5990  177.6010  142.8340 C   0  0  0  0  0  0  0  0  0  0  0  0
  188.6800  178.0550  140.4180 C   0  0  0  0  0  0  0  0  0  0  0  0
  188.9460  177.6980  137.8380 C   0  0  0  0  0  2  0  0  0  0  0  0
  189.7420  176.5350  137.7630 O   0  0  0  0  0  0  0  0  0  0  0  0
  191.7770  177.5040  140.7780 C   0  0  0  0  0  2  0  0  0  0  0  0
  184.5090  178.8110  142.6880 C   0  0  0  0  0  0  0  0  0  0  0  0
  182.4280  178.1020  140.7180 C   0  0  0  0  0  2  0  0  0  0  0  0
  187.3970  178.4440  140.3790 C   0  0  0  0  0  3  0  0  0  0  0  0
  190.7230  177.2260  141.7710 N   0  0  0  0  0  2  0  0  0  0  0  0
  185.1980  178.8470  141.5290 C   0  0  0  0  0  0  0  0  0  0  0  0
  183.0520  178.9440  144.4670 C   0  0  0  0  0  2  0  0  0  0  0  0
  189.3350  177.6420  141.7120 C   0  0  0  0  0  0  0  0  0  0  0  0
  191.5820  176.7620  139.4370 C   0  0  0  0  0  2  0  0  0  0  0  0
  182.1370  178.2550  142.2160 C   0  0  1  0  0  3  0  0  0  0  0  0
  187.1880  178.0070  142.8040 C   0  0  2  0  0  3  0  0  0  0  0  0
  189.5150  178.0740  139.1860 C   0  0  2  0  0  3  0  0  0  0  0  0
  186.5870  178.4400  141.5650 N   0  0  0  0  0  0  0  0  0  0  0  0
  188.3160  177.1730  145.2510 C   0  0  0  0  0  3  0  0  0  0  0  0
  183.0630  179.3570  140.1270 C   0  0  0  0  0  2  0  0  0  0  0  0
  189.1530  177.1840  144.0860 N   0  0  0  0  0  0  0  0  0  0  0  0
  184.5930  179.3130  140.2150 C   0  0  0  0  0  2  0  0  0  0  0  0
  183.1200  179.1810  142.9480 C   0  0  2  0  0  3  0  0  0  0  0  0
  187.0680  177.5410  145.1740 N   0  0  0  0  0  0  0  0  0  0  0  0
  185.0990  178.3750  143.8850 N   0  0  0  0  0  0  0  0  0  0  0  0
  180.7780  178.7420  142.3920 N   0  0  0  0  0  2  0  0  0  0  0  0
  180.0150  178.1280  141.4560 O   0  0  0  0  0  0  0  0  0  0  0  0
  179.6980  181.1630  140.2160 C   0  0  0  0  0  2  0  0  0  0  0  0
  178.9390  179.1610  139.6070 C   0  0  0  0  0  2  0  0  0  0  0  0
  179.0460  179.0720  141.1130 C   0  0  2  0  0  3  0  0  0  0  0  0
  178.9320  180.5150  139.2380 O   0  0  0  0  0  0  0  0  0  0  0  0
  179.5020  180.4400  141.5260 C   0  0  0  0  0  2  0  0  0  0  0  0
  1 26  2  0  0  0  0
  3 19  1  0  0  0  0
  3 16  1  6  0  0  0
  4 23  1  0  0  0  0
  5 15  1  0  0  0  0
  7  6  1  0  0  0  0
  7  3  1  0  0  0  0
  8 12  1  0  0  0  0
  9 25  1  0  0  0  0
  9 27  1  0  0  0  0
 10 17  1  0  0  0  0
 11  5  2  0  0  0  0
 11 20  1  0  0  0  0
 13 20  1  0  0  0  0
 13  9  2  0  0  0  0
 14  2  1  0  0  0  0
 15 12  1  0  0  0  0
 15  4  2  0  0  0  0
 16  8  1  0  0  0  0
 17 28  1  6  0  0  0
 17 25  1  0  0  0  0
 18  4  1  1  0  0  0
 18  1  1  0  0  0  0
 19  6  1  6  0  0  0
 19  5  1  0  0  0  0
 20 18  1  0  0  0  0
 22 24  1  0  0  0  0
 22 10  1  0  0  0  0
 23 21  2  0  0  0  0
 24 13  1  0  0  0  0
 25 14  1  1  0  0  0
 26 21  1  0  0  0  0
 27  1  1  0  0  0  0
 27  2  1  0  0  0  0
 29 28  1  0  0  0  0
 30 34  1  0  0  0  0
 31 32  1  0  0  0  0
 32 29  1  6  0  0  0
 32 34  1  0  0  0  0
 33 31  1  0  0  0  0
 33 30  1  0  0  0  0
M  END
>  <MODEL>
7

>  <REMARK>
 VINA RESULT:      -8.7      1.998      2.805
  Name = 
  3 active torsions:
  status: ('A' for Active; 'I' for Inactive)
    1  A    between atoms: C_17  and  N_28
    2  A    between atoms: N_28  and  O_29
    3  A    between atoms: O_29  and  C_32
                            x       y       z     vdW  Elec       q    Type
                         _______ _______ _______ _____ _____    ______ ____

>  <TORSDO>
F 3

$$$$
=
 OpenBabel11122412033D

 34 41  0  0  1  0  0  0  0  0999 V2000
  190.6430  177.1910  139.7490 C   0  0  0  0  0  0  0  0  0  0  0  0
  191.7670  177.2070  141.9400 O   0  0  0  0  0  0  0  0  0  0  0  0
  185.6090  176.6490  136.2020 C   0  0  1  0  0  3  0  0  0  0  0  0
  189.4340  177.1890  137.6460 C   0  0  0  0  0  0  0  0  0  0  0  0
  187.0350  177.7190  137.7550 C   0  0  0  0  0  0  0  0  0  0  0  0
  184.4350  177.4810  137.5640 C   0  0  0  0  0  2  0  0  0  0  0  0
  184.2830  176.4600  136.6020 O   0  0  0  0  0  0  0  0  0  0  0  0
  187.2380  177.6510  134.5960 C   0  0  0  0  0  2  0  0  0  0  0  0
  189.5110  177.7460  141.8760 C   0  0  0  0  0  0  0  0  0  0  0  0
  187.6110  176.7750  143.9160 C   0  0  0  0  0  2  0  0  0  0  0  0
  187.0660  177.9020  139.0840 C   0  0  0  0  0  3  0  0  0  0  0  0
  188.2660  177.1830  135.5440 N   0  0  0  0  0  2  0  0  0  0  0  0
  188.3250  177.9220  141.2590 C   0  0  0  0  0  0  0  0  0  0  0  0
  191.3570  177.5970  143.2470 C   0  0  0  0  0  2  0  0  0  0  0  0
  188.2830  177.3770  136.9820 C   0  0  0  0  0  0  0  0  0  0  0  0
  185.8810  176.9260  134.7390 C   0  0  0  0  0  2  0  0  0  0  0  0
  189.1250  176.8370  144.1540 C   0  0  1  0  0  3  0  0  0  0  0  0
  189.4800  177.3690  139.1030 C   0  0  0  0  0  0  0  0  0  0  0  0
  185.7690  177.9030  136.9950 C   0  0  2  0  0  3  0  0  0  0  0  0
  188.2860  177.7380  139.8240 N   0  0  0  0  0  0  0  0  0  0  0  0
  191.8450  176.6530  137.7400 C   0  0  0  0  0  3  0  0  0  0  0  0
  187.0380  178.1300  143.5140 C   0  0  0  0  0  2  0  0  0  0  0  0
  190.6450  176.8280  136.9730 N   0  0  0  0  0  2  0  0  0  0  0  0
  187.0570  178.3240  141.9930 C   0  0  0  0  0  2  0  0  0  0  0  0
  189.8460  177.8860  143.2910 C   0  0  2  0  0  3  0  0  0  0  0  0
  191.8360  176.8230  139.0320 N   0  0  0  0  0  0  0  0  0  0  0  0
  190.6650  177.3730  141.1680 N   0  0  0  0  0  0  0  0  0  0  0  0
  189.3780  177.1000  145.5610 N   0  0  0  0  0  2  0  0  0  0  0  0
  188.2280  176.8310  146.2250 O   0  0  0  0  0  0  0  0  0  0  0  0
  189.5130  178.5690  148.7110 C   0  0  0  0  0  2  0  0  0  0  0  0
  187.6180  177.4330  148.4410 C   0  0  0  0  0  2  0  0  0  0  0  0
  188.6110  176.7060  147.5620 C   0  0  2  0  0  3  0  0  0  0  0  0
  188.3260  178.2140  149.3660 O   0  0  0  0  0  0  0  0  0  0  0  0
  189.9000  177.4370  147.7900 C   0  0  0  0  0  2  0  0  0  0  0  0
  1 27  1  0  0  0  0
  2 14  1  0  0  0  0
  3 16  1  6  0  0  0
  3  7  1  0  0  0  0
  3 19  1  0  0  0  0
  4 18  1  0  0  0  0
  5 11  2  0  0  0  0
  7  6  1  0  0  0  0
  8 16  1  0  0  0  0
  8 12  1  0  0  0  0
  9 25  1  0  0  0  0
 10 17  1  0  0  0  0
 11 20  1  0  0  0  0
 12 15  1  0  0  0  0
 13  9  2  0  0  0  0
 13 24  1  0  0  0  0
 15  4  2  0  0  0  0
 15  5  1  0  0  0  0
 17 28  1  1  0  0  0
 18  1  2  0  0  0  0
 18 20  1  0  0  0  0
 19  6  1  1  0  0  0
 19  5  1  0  0  0  0
 20 13  1  0  0  0  0
 21 26  2  0  0  0  0
 22 10  1  0  0  0  0
 23  4  1  0  0  0  0
 23 21  1  0  0  0  0
 24 22  1  0  0  0  0
 25 14  1  6  0  0  0
 25 17  1  0  0  0  0
 26  1  1  0  0  0  0
 27  9  1  0  0  0  0
 27  2  1  0  0  0  0
 28 29  1  0  0  0  0
 30 33  1  0  0  0  0
 31 33  1  0  0  0  0
 32 29  1  6  0  0  0
 32 34  1  0  0  0  0
 32 31  1  0  0  0  0
 34 30  1  0  0  0  0
M  END
>  <MODEL>
8

>  <REMARK>
 VINA RESULT:      -8.7      4.228      9.092
  Name = 
  3 active torsions:
  status: ('A' for Active; 'I' for Inactive)
    1  A    between atoms: C_17  and  N_28
    2  A    between atoms: N_28  and  O_29
    3  A    between atoms: O_29  and  C_32
                            x       y       z     vdW  Elec       q    Type
                         _______ _______ _______ _____ _____    ______ ____

>  <TORSDO>
F 3

$$$$
=
 OpenBabel11122412033D

 34 41  0  0  1  0  0  0  0  0999 V2000
  191.3140  177.2920  140.1900 C   0  0  0  0  0  0  0  0  0  0  0  0
  192.1310  177.5670  142.4970 O   0  0  0  0  0  0  0  0  0  0  0  0
  186.8670  176.0130  136.0920 C   0  0  1  0  0  3  0  0  0  0  0  0
  190.4000  177.0290  137.9580 C   0  0  0  0  0  0  0  0  0  0  0  0
  187.9700  177.3210  137.7230 C   0  0  0  0  0  0  0  0  0  0  0  0
  185.4510  176.8110  137.2250 C   0  0  0  0  0  2  0  0  0  0  0  0
  185.5220  175.7180  136.3350 O   0  0  0  0  0  0  0  0  0  0  0  0
  188.5960  177.0650  134.6300 C   0  0  0  0  0  2  0  0  0  0  0  0
  189.8650  177.8710  142.1080 C   0  0  0  0  0  0  0  0  0  0  0  0
  187.8070  176.8500  143.9620 C   0  0  0  0  0  2  0  0  0  0  0  0
  187.8070  177.5940  139.0260 C   0  0  0  0  0  3  0  0  0  0  0  0
  189.5280  176.7660  135.7330 N   0  0  0  0  0  2  0  0  0  0  0  0
  188.7600  177.8860  141.3340 C   0  0  0  0  0  0  0  0  0  0  0  0
  191.5180  178.0000  143.7070 C   0  0  0  0  0  2  0  0  0  0  0  0
  189.3360  177.0560  137.1420 C   0  0  0  0  0  0  0  0  0  0  0  0
  187.3040  176.2180  134.6570 C   0  0  0  0  0  2  0  0  0  0  0  0
  189.2640  177.0810  144.3830 C   0  0  1  0  0  3  0  0  0  0  0  0
  190.2370  177.3100  139.3910 C   0  0  0  0  0  0  0  0  0  0  0  0
  186.8050  177.3270  136.7970 C   0  0  2  0  0  3  0  0  0  0  0  0
  188.9280  177.6030  139.9250 N   0  0  0  0  0  0  0  0  0  0  0  0
  192.8160  176.7460  138.3970 C   0  0  0  0  0  3  0  0  0  0  0  0
  187.1710  178.1120  143.3860 C   0  0  0  0  0  2  0  0  0  0  0  0
  191.7180  176.7490  137.4740 N   0  0  0  0  0  2  0  0  0  0  0  0
  187.3740  178.2060  141.8690 C   0  0  0  0  0  2  0  0  0  0  0  0
  189.9940  178.1370  143.5380 C   0  0  2  0  0  3  0  0  0  0  0  0
  192.6200  177.0000  139.6600 N   0  0  0  0  0  0  0  0  0  0  0  0
  191.1320  177.5700  141.5810 N   0  0  0  0  0  0  0  0  0  0  0  0
  189.3030  177.4610  145.7860 N   0  0  0  0  0  2  0  0  0  0  0  0
  189.8510  176.4210  146.4600 O   0  0  0  0  0  0  0  0  0  0  0  0
  192.4250  175.9830  148.4690 C   0  0  0  0  0  2  0  0  0  0  0  0
  192.0550  175.5460  146.3170 C   0  0  0  0  0  2  0  0  0  0  0  0
  191.1980  176.7600  146.5990 C   0  0  2  0  0  3  0  0  0  0  0  0
  193.0260  175.4390  147.3250 O   0  0  0  0  0  0  0  0  0  0  0  0
  191.4930  177.0870  148.0320 C   0  0  0  0  0  2  0  0  0  0  0  0
  1 27  1  0  0  0  0
  2 14  1  0  0  0  0
  3 16  1  6  0  0  0
  3  7  1  0  0  0  0
  3 19  1  0  0  0  0
  4 18  1  0  0  0  0
  5 11  2  0  0  0  0
  7  6  1  0  0  0  0
  8 16  1  0  0  0  0
  8 12  1  0  0  0  0
  9 25  1  0  0  0  0
 10 17  1  0  0  0  0
 11 20  1  0  0  0  0
 12 15  1  0  0  0  0
 13 24  1  0  0  0  0
 13  9  2  0  0  0  0
 15  5  1  0  0  0  0
 15  4  2  0  0  0  0
 17 28  1  1  0  0  0
 18 20  1  0  0  0  0
 18  1  2  0  0  0  0
 19  6  1  1  0  0  0
 19  5  1  0  0  0  0
 20 13  1  0  0  0  0
 21 26  2  0  0  0  0
 22 10  1  0  0  0  0
 23  4  1  0  0  0  0
 23 21  1  0  0  0  0
 24 22  1  0  0  0  0
 25 14  1  1  0  0  0
 25 17  1  0  0  0  0
 26  1  1  0  0  0  0
 27  9  1  0  0  0  0
 27  2  1  0  0  0  0
 28 29  1  0  0  0  0
 31 32  1  0  0  0  0
 31 33  1  0  0  0  0
 32 29  1  1  0  0  0
 32 34  1  0  0  0  0
 33 30  1  0  0  0  0
 34 30  1  0  0  0  0
M  END
>  <MODEL>
9

>  <REMARK>
 VINA RESULT:      -8.6      4.832      9.653
  Name = 
  3 active torsions:
  status: ('A' for Active; 'I' for Inactive)
    1  A    between atoms: C_17  and  N_28
    2  A    between atoms: N_28  and  O_29
    3  A    between atoms: O_29  and  C_32
                            x       y       z     vdW  Elec       q    Type
                         _______ _______ _______ _____ _____    ______ ____

>  <TORSDO>
F 3

$$$$
