=
 OpenBabel11122410393D

 32 37  0  0  1  0  0  0  0  0999 V2000
  187.3610  176.9800  143.7970 C   0  0  0  0  0  2  0  0  0  0  0  0
  190.6640  177.3960  139.2530 C   0  0  1  0  0  3  0  0  0  0  0  0
  186.4110  175.8020  137.2920 C   0  0  0  0  0  2  0  0  0  0  0  0
  187.1730  174.9550  136.2770 C   0  0  0  0  0  2  0  0  0  0  0  0
  192.9040  176.3000  138.7350 C   0  0  1  0  0  3  0  0  0  0  0  0
  193.5780  175.2510  137.8930 C   0  0  0  0  0  0  0  0  0  0  0  0
  189.7400  177.4330  141.5720 C   0  0  1  0  0  3  0  0  0  0  0  0
  188.6200  178.6010  139.6690 C   0  0  0  0  0  2  0  0  0  0  0  0
  193.8550  173.5760  136.4330 N   0  0  0  0  0  0  0  0  0  0  0  0
  187.5680  178.6750  141.9360 C   0  0  0  0  0  2  0  0  0  0  0  0
  187.2270  177.0360  137.6640 C   0  0  0  0  0  2  0  0  0  0  0  0
  189.3610  177.7960  138.6810 N   0  0  2  0  0  0  0  0  0  0  0  0
  188.5780  176.6160  138.2590 C   0  0  2  0  0  3  0  0  0  0  0  0
  190.7360  175.3960  137.7080 C   0  0  1  0  0  3  0  0  0  0  0  0
  195.1570  173.7840  137.0530 C   0  0  0  0  0  3  0  0  0  0  0  0
  188.3590  175.9950  143.2030 C   0  0  0  0  0  2  0  0  0  0  0  0
  188.3880  177.8350  140.9730 C   0  0  2  0  0  3  0  0  0  0  0  0
  194.9390  174.8540  138.0270 N   0  0  0  0  0  0  0  0  0  0  0  0
  189.6790  176.7050  142.9220 C   0  0  0  0  0  2  0  0  0  0  0  0
  186.6230  177.7720  142.7170 C   0  0  2  0  0  3  0  0  0  0  0  0
  188.5300  174.5480  136.8430 C   0  0  0  0  0  2  0  0  0  0  0  0
  189.3450  175.7920  137.2040 C   0  0  1  0  0  3  0  0  0  0  0  0
  191.5310  174.7140  136.5870 C   0  0  0  0  0  2  0  0  0  0  0  0
  190.5090  176.5990  140.5610 C   0  0  0  0  0  2  0  0  0  0  0  0
  193.7560  177.5560  138.7790 C   0  0  0  0  0  1  0  0  0  0  0  0
  193.6140  172.7730  135.2490 C   0  0  0  0  0  1  0  0  0  0  0  0
  191.4940  176.6410  138.2080 C   0  0  1  0  0  3  0  0  0  0  0  0
  192.9540  174.5080  137.0040 C   0  0  0  0  0  0  0  0  0  0  0  0
  185.5850  178.5870  143.3320 N   0  0  0  0  0  2  0  0  0  0  0  0
  184.2280  178.5710  142.8850 C   0  0  0  0  0  0  0  0  0  0  0  0
  183.8800  177.8550  141.9090 O   0  0  0  0  0  0  0  0  0  0  0  0
  183.2170  179.4120  143.5780 C   0  0  0  0  0  1  0  0  0  0  0  0
  2 24  1  1  0  0  0
  3 11  1  0  0  0  0
  4 21  1  0  0  0  0
  4  3  1  0  0  0  0
  5 25  1  6  0  0  0
  6 18  1  0  0  0  0
  6  5  1  0  0  0  0
  7 24  1  6  0  0  0
  7 19  1  0  0  0  0
  9 28  1  0  0  0  0
  9 15  1  0  0  0  0
 10 20  1  0  0  0  0
 12  2  1  0  0  0  0
 12  8  1  1  0  0  0
 13 11  1  6  0  0  0
 13 12  1  0  0  0  0
 14 23  1  6  0  0  0
 14 27  1  0  0  0  0
 15 18  2  0  0  0  0
 16  1  1  0  0  0  0
 17  8  1  6  0  0  0
 17  7  1  0  0  0  0
 17 10  1  0  0  0  0
 19 16  1  0  0  0  0
 20 29  1  1  0  0  0
 20  1  1  0  0  0  0
 22 21  1  1  0  0  0
 22 14  1  0  0  0  0
 22 13  1  0  0  0  0
 23 28  1  0  0  0  0
 26  9  1  0  0  0  0
 27  5  1  0  0  0  0
 27  2  1  0  0  0  0
 28  6  2  0  0  0  0
 30 29  1  0  0  0  0
 30 32  1  0  0  0  0
 31 30  2  0  0  0  0
M  END
>  <MODEL>
1

>  <REMARK>
 VINA RESULT:      -7.6      0.000      0.000
  Name = 
  1 active torsions:
  status: ('A' for Active; 'I' for Inactive)
    1  A    between atoms: C_20  and  N_29
                            x       y       z     vdW  Elec       q    Type
                         _______ _______ _______ _____ _____    ______ ____

>  <TORSDO>
F 1

$$$$
=
 OpenBabel11122410393D

 32 37  0  0  1  0  0  0  0  0999 V2000
  187.1980  174.3500  136.3460 C   0  0  0  0  0  2  0  0  0  0  0  0
  184.3000  178.5860  138.6660 C   0  0  1  0  0  3  0  0  0  0  0  0
  187.8550  177.8150  142.0180 C   0  0  0  0  0  2  0  0  0  0  0  0
  186.8840  178.1290  143.1520 C   0  0  0  0  0  2  0  0  0  0  0  0
  181.8370  178.7500  139.2990 C   0  0  1  0  0  3  0  0  0  0  0  0
  180.8800  178.7860  140.4580 C   0  0  0  0  0  0  0  0  0  0  0  0
  185.1380  176.7810  137.1600 C   0  0  1  0  0  3  0  0  0  0  0  0
  186.6140  178.6150  137.9960 C   0  0  0  0  0  2  0  0  0  0  0  0
  180.1110  178.7270  142.5600 N   0  0  0  0  0  0  0  0  0  0  0  0
  187.5860  176.8390  136.5290 C   0  0  0  0  0  2  0  0  0  0  0  0
  187.4720  178.5960  140.7660 C   0  0  0  0  0  2  0  0  0  0  0  0
  185.6740  178.9340  139.0860 N   0  0  2  0  0  0  0  0  0  0  0  0
  186.0450  178.2320  140.3330 C   0  0  2  0  0  3  0  0  0  0  0  0
  183.6220  178.3140  141.0870 C   0  0  1  0  0  3  0  0  0  0  0  0
  178.9320  178.7580  141.7050 C   0  0  0  0  0  3  0  0  0  0  0  0
  185.9490  174.3370  137.2180 C   0  0  0  0  0  2  0  0  0  0  0  0
  186.5600  177.1360  137.6080 C   0  0  2  0  0  3  0  0  0  0  0  0
  179.4620  178.7580  140.3410 N   0  0  0  0  0  0  0  0  0  0  0  0
  184.9330  175.3380  136.6790 C   0  0  0  0  0  2  0  0  0  0  0  0
  188.1740  175.4530  136.7570 C   0  0  2  0  0  3  0  0  0  0  0  0
  185.4560  177.7940  142.7300 C   0  0  0  0  0  2  0  0  0  0  0  0
  185.0770  178.5900  141.4790 C   0  0  1  0  0  3  0  0  0  0  0  0
  182.6740  178.8210  142.1810 C   0  0  0  0  0  2  0  0  0  0  0  0
  184.1630  177.1030  138.2800 C   0  0  0  0  0  2  0  0  0  0  0  0
  181.4330  179.7830  138.2610 C   0  0  0  0  0  1  0  0  0  0  0  0
  180.1060  178.9400  143.9950 C   0  0  0  0  0  1  0  0  0  0  0  0
  183.2930  179.0000  139.7470 C   0  0  1  0  0  3  0  0  0  0  0  0
  181.2510  178.7430  141.7200 C   0  0  0  0  0  0  0  0  0  0  0  0
  189.4060  175.3260  135.9910 N   0  0  0  0  0  2  0  0  0  0  0  0
  190.5350  174.5920  136.4650 C   0  0  0  0  0  0  0  0  0  0  0  0
  190.5130  174.0360  137.5950 O   0  0  0  0  0  0  0  0  0  0  0  0
  191.7500  174.4850  135.6170 C   0  0  0  0  0  1  0  0  0  0  0  0
  1 20  1  0  0  0  0
  1 16  1  0  0  0  0
  2 24  1  1  0  0  0
  2 12  1  0  0  0  0
  2 27  1  0  0  0  0
  3  4  1  0  0  0  0
  5 25  1  6  0  0  0
  5 27  1  0  0  0  0
  5  6  1  0  0  0  0
  6 28  2  0  0  0  0
  7 19  1  1  0  0  0
  7 17  1  0  0  0  0
  7 24  1  0  0  0  0
  9 26  1  0  0  0  0
 10 20  1  0  0  0  0
 11  3  1  0  0  0  0
 12  8  1  6  0  0  0
 12 13  1  0  0  0  0
 13 11  1  1  0  0  0
 13 22  1  0  0  0  0
 14 22  1  0  0  0  0
 14 23  1  1  0  0  0
 15  9  1  0  0  0  0
 17 10  1  6  0  0  0
 17  8  1  0  0  0  0
 18  6  1  0  0  0  0
 18 15  2  0  0  0  0
 19 16  1  0  0  0  0
 20 29  1  6  0  0  0
 21  4  1  0  0  0  0
 22 21  1  1  0  0  0
 27 14  1  0  0  0  0
 28 23  1  0  0  0  0
 28  9  1  0  0  0  0
 29 30  1  0  0  0  0
 30 31  2  0  0  0  0
 32 30  1  0  0  0  0
M  END
>  <MODEL>
2

>  <REMARK>
 VINA RESULT:      -7.2      3.318      9.797
  Name = 
  1 active torsions:
  status: ('A' for Active; 'I' for Inactive)
    1  A    between atoms: C_20  and  N_29
                            x       y       z     vdW  Elec       q    Type
                         _______ _______ _______ _____ _____    ______ ____

>  <TORSDO>
F 1

$$$$
=
 OpenBabel11122410393D

 32 37  0  0  1  0  0  0  0  0999 V2000
  188.6430  177.6720  142.5540 C   0  0  0  0  0  2  0  0  0  0  0  0
  190.9090  176.4530  137.5430 C   0  0  1  0  0  3  0  0  0  0  0  0
  186.5310  174.1670  137.2760 C   0  0  0  0  0  2  0  0  0  0  0  0
  187.1540  173.0210  136.4840 C   0  0  0  0  0  2  0  0  0  0  0  0
  193.0990  175.2870  136.9610 C   0  0  1  0  0  3  0  0  0  0  0  0
  193.6910  174.0160  136.4180 C   0  0  0  0  0  0  0  0  0  0  0  0
  190.4700  177.3220  139.8410 C   0  0  1  0  0  3  0  0  0  0  0  0
  188.8800  177.6860  137.9490 C   0  0  0  0  0  2  0  0  0  0  0  0
  193.8350  171.9270  135.6230 N   0  0  0  0  0  0  0  0  0  0  0  0
  188.3020  178.5670  140.2170 C   0  0  0  0  0  2  0  0  0  0  0  0
  187.2770  175.4670  136.9940 C   0  0  0  0  0  2  0  0  0  0  0  0
  189.4850  176.5890  137.1720 N   0  0  2  0  0  0  0  0  0  0  0  0
  188.7550  175.3210  137.3820 C   0  0  2  0  0  3  0  0  0  0  0  0
  190.8690  174.0270  136.8320 C   0  0  1  0  0  3  0  0  0  0  0  0
  195.2080  172.3730  135.8220 C   0  0  0  0  0  3  0  0  0  0  0  0
  189.5950  176.5560  142.1410 C   0  0  0  0  0  2  0  0  0  0  0  0
  188.9920  177.4490  139.4570 C   0  0  2  0  0  3  0  0  0  0  0  0
  195.0830  173.7220  136.3770 N   0  0  0  0  0  0  0  0  0  0  0  0
  190.7540  177.1390  141.3390 C   0  0  0  0  0  2  0  0  0  0  0  0
  187.6280  177.9960  141.4570 C   0  0  2  0  0  3  0  0  0  0  0  0
  188.6300  172.8770  136.8390 C   0  0  0  0  0  2  0  0  0  0  0  0
  189.3730  174.1820  136.5450 C   0  0  1  0  0  3  0  0  0  0  0  0
  191.4870  172.9960  135.8790 C   0  0  0  0  0  2  0  0  0  0  0  0
  191.1000  176.1890  139.0480 C   0  0  0  0  0  2  0  0  0  0  0  0
  193.8120  176.4870  136.3660 C   0  0  0  0  0  1  0  0  0  0  0  0
  193.4430  170.7400  134.8870 C   0  0  0  0  0  1  0  0  0  0  0  0
  191.5850  175.3830  136.6760 C   0  0  1  0  0  3  0  0  0  0  0  0
  192.9790  172.9850  136.0130 C   0  0  0  0  0  0  0  0  0  0  0  0
  186.6580  178.9600  141.9580 N   0  0  0  0  0  2  0  0  0  0  0  0
  185.6690  178.6220  142.9310 C   0  0  0  0  0  0  0  0  0  0  0  0
  185.5840  177.4490  143.3820 O   0  0  0  0  0  0  0  0  0  0  0  0
  184.7270  179.6650  143.4140 C   0  0  0  0  0  1  0  0  0  0  0  0
  2 24  1  1  0  0  0
  4 21  1  0  0  0  0
  4  3  1  0  0  0  0
  5 25  1  6  0  0  0
  6  5  1  0  0  0  0
  7 24  1  6  0  0  0
  7 19  1  0  0  0  0
  9 15  1  0  0  0  0
  9 28  1  0  0  0  0
 10 20  1  0  0  0  0
 11  3  1  0  0  0  0
 12 13  1  0  0  0  0
 12  2  1  0  0  0  0
 12  8  1  1  0  0  0
 13 11  1  6  0  0  0
 14 23  1  6  0  0  0
 15 18  2  0  0  0  0
 16  1  1  0  0  0  0
 17  8  1  6  0  0  0
 17  7  1  0  0  0  0
 17 10  1  0  0  0  0
 18  6  1  0  0  0  0
 19 16  1  0  0  0  0
 20 29  1  1  0  0  0
 20  1  1  0  0  0  0
 22 14  1  0  0  0  0
 22 21  1  1  0  0  0
 22 13  1  0  0  0  0
 23 28  1  0  0  0  0
 26  9  1  0  0  0  0
 27 14  1  0  0  0  0
 27  5  1  0  0  0  0
 27  2  1  0  0  0  0
 28  6  2  0  0  0  0
 29 30  1  0  0  0  0
 30 31  2  0  0  0  0
 30 32  1  0  0  0  0
M  END
>  <MODEL>
3

>  <REMARK>
 VINA RESULT:      -7.1      1.379      1.865
  Name = 
  1 active torsions:
  status: ('A' for Active; 'I' for Inactive)
    1  A    between atoms: C_20  and  N_29
                            x       y       z     vdW  Elec       q    Type
                         _______ _______ _______ _____ _____    ______ ____

>  <TORSDO>
F 1

$$$$
=
 OpenBabel11122410393D

 32 37  0  0  1  0  0  0  0  0999 V2000
  181.3560  176.0820  137.9330 C   0  0  0  0  0  2  0  0  0  0  0  0
  184.7110  179.0120  141.3820 C   0  0  1  0  0  3  0  0  0  0  0  0
  187.8040  177.8090  137.7140 C   0  0  0  0  0  2  0  0  0  0  0  0
  188.9500  177.6400  138.7070 C   0  0  0  0  0  2  0  0  0  0  0  0
  185.2870  178.6380  143.8350 C   0  0  1  0  0  3  0  0  0  0  0  0
  186.3780  178.2000  144.7730 C   0  0  0  0  0  0  0  0  0  0  0  0
  182.7730  177.8580  140.3110 C   0  0  1  0  0  3  0  0  0  0  0  0
  184.1480  179.5590  139.1040 C   0  0  0  0  0  2  0  0  0  0  0  0
  188.3490  177.4260  145.5020 N   0  0  0  0  0  0  0  0  0  0  0  0
  182.2620  178.4400  137.9040 C   0  0  0  0  0  2  0  0  0  0  0  0
  186.8200  178.8580  138.2200 C   0  0  0  0  0  2  0  0  0  0  0  0
  185.2550  179.4120  140.0670 N   0  0  2  0  0  0  0  0  0  0  0  0
  186.2560  178.4380  139.5840 C   0  0  2  0  0  3  0  0  0  0  0  0
  186.9280  177.9570  141.9850 C   0  0  1  0  0  3  0  0  0  0  0  0
  187.5040  177.5380  146.6840 C   0  0  0  0  0  3  0  0  0  0  0  0
  182.1480  175.6410  139.1570 C   0  0  0  0  0  2  0  0  0  0  0  0
  183.3480  178.2640  138.9490 C   0  0  2  0  0  3  0  0  0  0  0  0
  186.2140  178.0080  146.1750 N   0  0  0  0  0  0  0  0  0  0  0  0
  181.8900  176.6030  140.3120 C   0  0  0  0  0  2  0  0  0  0  0  0
  182.0970  177.1450  137.1210 C   0  0  2  0  0  3  0  0  0  0  0  0
  188.4060  177.2460  140.0770 C   0  0  0  0  0  2  0  0  0  0  0  0
  187.4260  178.3080  140.5810 C   0  0  1  0  0  3  0  0  0  0  0  0
  188.0920  177.9860  142.9840 C   0  0  0  0  0  2  0  0  0  0  0  0
  183.9080  177.7000  141.3090 C   0  0  0  0  0  2  0  0  0  0  0  0
  184.5800  179.8590  144.3950 C   0  0  0  0  0  1  0  0  0  0  0  0
  189.7840  177.2110  145.5210 C   0  0  0  0  0  1  0  0  0  0  0  0
  185.8330  178.9490  142.4250 C   0  0  1  0  0  3  0  0  0  0  0  0
  187.5840  177.8450  144.3860 C   0  0  0  0  0  0  0  0  0  0  0  0
  181.3660  177.4200  135.8930 N   0  0  0  0  0  2  0  0  0  0  0  0
  180.0510  177.9770  135.8880 C   0  0  0  0  0  0  0  0  0  0  0  0
  179.4560  178.2320  136.9690 O   0  0  0  0  0  0  0  0  0  0  0  0
  179.3750  178.2540  134.5940 C   0  0  0  0  0  1  0  0  0  0  0  0
  1 16  1  0  0  0  0
  2 24  1  6  0  0  0
  2 27  1  0  0  0  0
  3 11  1  0  0  0  0
  3  4  1  0  0  0  0
  4 21  1  0  0  0  0
  5 25  1  1  0  0  0
  5  6  1  0  0  0  0
  6 18  1  0  0  0  0
  7 19  1  6  0  0  0
  7 24  1  0  0  0  0
  9 26  1  0  0  0  0
  9 15  1  0  0  0  0
 12  8  1  6  0  0  0
 12  2  1  0  0  0  0
 13 11  1  6  0  0  0
 13 12  1  0  0  0  0
 13 22  1  0  0  0  0
 14 27  1  0  0  0  0
 14 23  1  1  0  0  0
 16 19  1  0  0  0  0
 17 10  1  6  0  0  0
 17  8  1  0  0  0  0
 17  7  1  0  0  0  0
 18 15  2  0  0  0  0
 20 29  1  6  0  0  0
 20 10  1  0  0  0  0
 20  1  1  0  0  0  0
 22 21  1  6  0  0  0
 22 14  1  0  0  0  0
 23 28  1  0  0  0  0
 27  5  1  0  0  0  0
 28  6  2  0  0  0  0
 28  9  1  0  0  0  0
 30 29  1  0  0  0  0
 30 31  2  0  0  0  0
 32 30  1  0  0  0  0
M  END
>  <MODEL>
4

>  <REMARK>
 VINA RESULT:      -7.0      4.391      7.935
  Name = 
  1 active torsions:
  status: ('A' for Active; 'I' for Inactive)
    1  A    between atoms: C_20  and  N_29
                            x       y       z     vdW  Elec       q    Type
                         _______ _______ _______ _____ _____    ______ ____

>  <TORSDO>
F 1

$$$$
=
 OpenBabel11122410393D

 32 37  0  0  1  0  0  0  0  0999 V2000
  189.3800  174.5530  136.6510 C   0  0  0  0  0  2  0  0  0  0  0  0
  186.5640  178.6490  139.3010 C   0  0  1  0  0  3  0  0  0  0  0  0
  189.6380  177.0610  142.8360 C   0  0  0  0  0  2  0  0  0  0  0  0
  188.5680  177.2920  143.8990 C   0  0  0  0  0  2  0  0  0  0  0  0
  184.0640  178.9460  139.6940 C   0  0  1  0  0  3  0  0  0  0  0  0
  182.9850  178.8980  140.7400 C   0  0  0  0  0  0  0  0  0  0  0  0
  187.4310  177.0180  137.6220 C   0  0  1  0  0  3  0  0  0  0  0  0
  188.9350  178.5620  138.8840 C   0  0  0  0  0  2  0  0  0  0  0  0
  181.9750  178.5990  142.7160 N   0  0  0  0  0  0  0  0  0  0  0  0
  189.9320  176.9400  137.2630 C   0  0  0  0  0  2  0  0  0  0  0  0
  189.4630  178.0520  141.6900 C   0  0  0  0  0  2  0  0  0  0  0  0
  187.9020  178.8010  139.9090 N   0  0  2  0  0  0  0  0  0  0  0  0
  188.0720  177.8900  141.0600 C   0  0  2  0  0  3  0  0  0  0  0  0
  185.5910  178.0850  141.5650 C   0  0  1  0  0  3  0  0  0  0  0  0
  180.9080  178.8670  141.7610 C   0  0  0  0  0  3  0  0  0  0  0  0
  188.0410  174.5270  137.3770 C   0  0  0  0  0  2  0  0  0  0  0  0
  188.8140  177.1680  138.2640 C   0  0  2  0  0  3  0  0  0  0  0  0
  181.5910  179.0200  140.4750 N   0  0  0  0  0  0  0  0  0  0  0  0
  187.1740  175.6870  136.9010 C   0  0  0  0  0  2  0  0  0  0  0  0
  190.3830  175.4870  137.3290 C   0  0  2  0  0  3  0  0  0  0  0  0
  187.1780  177.1580  143.2850 C   0  0  0  0  0  2  0  0  0  0  0  0
  187.0080  178.1630  142.1430 C   0  0  1  0  0  3  0  0  0  0  0  0
  184.5640  178.5100  142.6230 C   0  0  0  0  0  2  0  0  0  0  0  0
  186.3600  177.2590  138.6730 C   0  0  0  0  0  2  0  0  0  0  0  0
  183.8630  180.1540  138.7970 C   0  0  0  0  0  1  0  0  0  0  0  0
  181.8200  178.5960  144.1590 C   0  0  0  0  0  1  0  0  0  0  0  0
  185.4730  178.9900  140.3230 C   0  0  1  0  0  3  0  0  0  0  0  0
  183.2020  178.6330  142.0110 C   0  0  0  0  0  0  0  0  0  0  0  0
  191.6820  175.3620  136.6830 N   0  0  0  0  0  2  0  0  0  0  0  0
  192.9010  175.7360  137.3270 C   0  0  0  0  0  0  0  0  0  0  0  0
  192.8930  176.2190  138.4900 O   0  0  0  0  0  0  0  0  0  0  0  0
  194.1920  175.5560  136.6140 C   0  0  0  0  0  1  0  0  0  0  0  0
  1 20  1  0  0  0  0
  1 16  1  0  0  0  0
  2 24  1  1  0  0  0
  2 12  1  0  0  0  0
  2 27  1  0  0  0  0
  3  4  1  0  0  0  0
  5 25  1  1  0  0  0
  5 27  1  0  0  0  0
  5  6  1  0  0  0  0
  6 28  2  0  0  0  0
  7 19  1  1  0  0  0
  7 17  1  0  0  0  0
  7 24  1  0  0  0  0
  9 26  1  0  0  0  0
 10 20  1  0  0  0  0
 11  3  1  0  0  0  0
 12  8  1  6  0  0  0
 12 13  1  0  0  0  0
 13 11  1  1  0  0  0
 13 22  1  0  0  0  0
 14 22  1  0  0  0  0
 14 23  1  1  0  0  0
 15  9  1  0  0  0  0
 17 10  1  6  0  0  0
 17  8  1  0  0  0  0
 18  6  1  0  0  0  0
 18 15  2  0  0  0  0
 19 16  1  0  0  0  0
 20 29  1  6  0  0  0
 21  4  1  0  0  0  0
 22 21  1  1  0  0  0
 27 14  1  0  0  0  0
 28 23  1  0  0  0  0
 28  9  1  0  0  0  0
 29 30  1  0  0  0  0
 30 31  2  0  0  0  0
 32 30  1  0  0  0  0
M  END
>  <MODEL>
5

>  <REMARK>
 VINA RESULT:      -6.9      2.640      8.964
  Name = 
  1 active torsions:
  status: ('A' for Active; 'I' for Inactive)
    1  A    between atoms: C_20  and  N_29
                            x       y       z     vdW  Elec       q    Type
                         _______ _______ _______ _____ _____    ______ ____

>  <TORSDO>
F 1

$$$$
=
 OpenBabel11122410393D

 32 37  0  0  1  0  0  0  0  0999 V2000
  183.2660  178.9110  143.0800 C   0  0  0  0  0  2  0  0  0  0  0  0
  185.3690  178.2130  137.9010 C   0  0  1  0  0  3  0  0  0  0  0  0
  181.8390  174.7520  138.0530 C   0  0  0  0  0  2  0  0  0  0  0  0
  182.7010  173.8060  137.2220 C   0  0  0  0  0  2  0  0  0  0  0  0
  187.7480  177.7080  137.1400 C   0  0  1  0  0  3  0  0  0  0  0  0
  188.6380  176.6430  136.5600 C   0  0  0  0  0  0  0  0  0  0  0  0
  184.8870  179.0030  140.2190 C   0  0  1  0  0  3  0  0  0  0  0  0
  183.1100  178.8230  138.4730 C   0  0  0  0  0  2  0  0  0  0  0  0
  189.3180  174.6580  135.7800 N   0  0  0  0  0  0  0  0  0  0  0  0
  182.4890  179.5820  140.7720 C   0  0  0  0  0  2  0  0  0  0  0  0
  182.1490  176.2000  137.6900 C   0  0  0  0  0  2  0  0  0  0  0  0
  183.9420  177.9190  137.6570 N   0  0  2  0  0  0  0  0  0  0  0  0
  183.6320  176.5030  137.9460 C   0  0  2  0  0  3  0  0  0  0  0  0
  185.9790  175.8540  137.2250 C   0  0  1  0  0  3  0  0  0  0  0  0
  190.5130  175.4880  135.8510 C   0  0  0  0  0  3  0  0  0  0  0  0
  184.4640  178.1030  142.5960 C   0  0  0  0  0  2  0  0  0  0  0  0
  183.4090  178.6830  139.9670 C   0  0  2  0  0  3  0  0  0  0  0  0
  190.0470  176.7630  136.3980 N   0  0  0  0  0  0  0  0  0  0  0  0
  185.3330  178.9660  141.6880 C   0  0  0  0  0  2  0  0  0  0  0  0
  182.1140  178.8880  142.0750 C   0  0  2  0  0  3  0  0  0  0  0  0
  184.1800  174.1080  137.4450 C   0  0  0  0  0  2  0  0  0  0  0  0
  184.4840  175.5600  137.0710 C   0  0  1  0  0  3  0  0  0  0  0  0
  186.7890  175.0110  136.2320 C   0  0  0  0  0  2  0  0  0  0  0  0
  185.7520  178.0720  139.3850 C   0  0  0  0  0  2  0  0  0  0  0  0
  188.0300  179.0410  136.4690 C   0  0  0  0  0  1  0  0  0  0  0  0
  189.2290  173.3810  135.0960 C   0  0  0  0  0  1  0  0  0  0  0  0
  186.2530  177.3530  136.9900 C   0  0  1  0  0  3  0  0  0  0  0  0
  188.2250  175.4370  136.2330 C   0  0  0  0  0  0  0  0  0  0  0  0
  180.9500  179.5480  142.6490 N   0  0  0  0  0  2  0  0  0  0  0  0
  180.0950  178.9110  143.6000 C   0  0  0  0  0  0  0  0  0  0  0  0
  180.3080  177.7250  143.9640 O   0  0  0  0  0  0  0  0  0  0  0  0
  178.9390  179.6570  144.1610 C   0  0  0  0  0  1  0  0  0  0  0  0
  2 24  1  1  0  0  0
  4 21  1  0  0  0  0
  4  3  1  0  0  0  0
  5 25  1  6  0  0  0
  6  5  1  0  0  0  0
  7 24  1  6  0  0  0
  7 19  1  0  0  0  0
  9 15  1  0  0  0  0
  9 28  1  0  0  0  0
 10 20  1  0  0  0  0
 11  3  1  0  0  0  0
 12  2  1  0  0  0  0
 12 13  1  0  0  0  0
 12  8  1  1  0  0  0
 13 11  1  6  0  0  0
 14 23  1  6  0  0  0
 15 18  2  0  0  0  0
 16  1  1  0  0  0  0
 17  8  1  6  0  0  0
 17  7  1  0  0  0  0
 17 10  1  0  0  0  0
 18  6  1  0  0  0  0
 19 16  1  0  0  0  0
 20 29  1  1  0  0  0
 20  1  1  0  0  0  0
 22 14  1  0  0  0  0
 22 21  1  1  0  0  0
 22 13  1  0  0  0  0
 23 28  1  0  0  0  0
 26  9  1  0  0  0  0
 27  5  1  0  0  0  0
 27 14  1  0  0  0  0
 27  2  1  0  0  0  0
 28  6  2  0  0  0  0
 29 30  1  0  0  0  0
 30 31  2  0  0  0  0
 30 32  1  0  0  0  0
M  END
>  <MODEL>
6

>  <REMARK>
 VINA RESULT:      -6.0      3.353      5.005
  Name = 
  1 active torsions:
  status: ('A' for Active; 'I' for Inactive)
    1  A    between atoms: C_20  and  N_29
                            x       y       z     vdW  Elec       q    Type
                         _______ _______ _______ _____ _____    ______ ____

>  <TORSDO>
F 1

$$$$
=
 OpenBabel11122410393D

 32 37  0  0  1  0  0  0  0  0999 V2000
  190.2580  175.9890  144.5580 C   0  0  0  0  0  2  0  0  0  0  0  0
  188.2360  178.6280  140.0100 C   0  0  1  0  0  3  0  0  0  0  0  0
  184.3770  178.7990  143.1000 C   0  0  0  0  0  2  0  0  0  0  0  0
  183.4090  178.6160  141.9350 C   0  0  0  0  0  2  0  0  0  0  0  0
  188.0220  177.8330  137.5990 C   0  0  1  0  0  3  0  0  0  0  0  0
  187.0420  177.3950  136.5470 C   0  0  0  0  0  0  0  0  0  0  0  0
  189.6740  177.4210  141.6550 C   0  0  1  0  0  3  0  0  0  0  0  0
  188.5020  179.5530  142.2190 C   0  0  0  0  0  2  0  0  0  0  0  0
  185.1070  176.8290  135.5710 N   0  0  0  0  0  0  0  0  0  0  0  0
  189.8770  178.4160  143.9700 C   0  0  0  0  0  2  0  0  0  0  0  0
  185.6310  179.5280  142.6320 C   0  0  0  0  0  2  0  0  0  0  0  0
  187.5700  179.3920  141.0870 N   0  0  2  0  0  0  0  0  0  0  0  0
  186.3190  178.7320  141.5160 C   0  0  2  0  0  3  0  0  0  0  0  0
  185.9830  177.8610  139.1540 C   0  0  1  0  0  3  0  0  0  0  0  0
  186.1460  176.5350  134.5940 C   0  0  0  0  0  3  0  0  0  0  0  0
  189.6130  175.4350  143.2940 C   0  0  0  0  0  2  0  0  0  0  0  0
  188.9730  178.2050  142.7690 C   0  0  2  0  0  3  0  0  0  0  0  0
  187.3990  176.8770  135.2690 N   0  0  0  0  0  0  0  0  0  0  0  0
  190.2610  176.0630  142.0660 C   0  0  0  0  0  2  0  0  0  0  0  0
  189.6280  177.3140  144.9910 C   0  0  2  0  0  3  0  0  0  0  0  0
  184.0840  177.8460  140.8050 C   0  0  0  0  0  2  0  0  0  0  0  0
  185.3360  178.5900  140.3350 C   0  0  1  0  0  3  0  0  0  0  0  0
  185.0400  177.8710  137.9440 C   0  0  0  0  0  2  0  0  0  0  0  0
  188.7200  177.2460  140.4850 C   0  0  0  0  0  2  0  0  0  0  0  0
  189.0550  178.7640  136.9900 C   0  0  0  0  0  1  0  0  0  0  0  0
  183.6840  176.8630  135.2900 C   0  0  0  0  0  1  0  0  0  0  0  0
  187.3210  178.5320  138.7830 C   0  0  1  0  0  3  0  0  0  0  0  0
  185.7390  177.3440  136.7290 C   0  0  0  0  0  0  0  0  0  0  0  0
  190.1800  177.7210  146.2750 N   0  0  0  0  0  2  0  0  0  0  0  0
  189.3780  177.8570  147.4500 C   0  0  0  0  0  0  0  0  0  0  0  0
  188.1370  177.6470  147.4090 O   0  0  0  0  0  0  0  0  0  0  0  0
  190.0150  178.2530  148.7320 C   0  0  0  0  0  1  0  0  0  0  0  0
  1 20  1  0  0  0  0
  2 24  1  1  0  0  0
  2 12  1  0  0  0  0
  4  3  1  0  0  0  0
  5 25  1  6  0  0  0
  5 27  1  0  0  0  0
  6 28  2  0  0  0  0
  6  5  1  0  0  0  0
  7 24  1  6  0  0  0
  7 19  1  0  0  0  0
  7 17  1  0  0  0  0
  9 28  1  0  0  0  0
 10 20  1  0  0  0  0
 11  3  1  0  0  0  0
 12 13  1  0  0  0  0
 12  8  1  1  0  0  0
 13 11  1  1  0  0  0
 14 23  1  6  0  0  0
 14 22  1  0  0  0  0
 15 18  2  0  0  0  0
 15  9  1  0  0  0  0
 16  1  1  0  0  0  0
 17  8  1  6  0  0  0
 17 10  1  0  0  0  0
 18  6  1  0  0  0  0
 19 16  1  0  0  0  0
 20 29  1  1  0  0  0
 21  4  1  0  0  0  0
 22 21  1  1  0  0  0
 22 13  1  0  0  0  0
 26  9  1  0  0  0  0
 27 14  1  0  0  0  0
 27  2  1  0  0  0  0
 28 23  1  0  0  0  0
 29 30  1  0  0  0  0
 30 32  1  0  0  0  0
 31 30  2  0  0  0  0
M  END
>  <MODEL>
7

>  <REMARK>
 VINA RESULT:      -5.5      4.001      5.991
  Name = 
  1 active torsions:
  status: ('A' for Active; 'I' for Inactive)
    1  A    between atoms: C_20  and  N_29
                            x       y       z     vdW  Elec       q    Type
                         _______ _______ _______ _____ _____    ______ ____

>  <TORSDO>
F 1

$$$$
=
 OpenBabel11122410393D

 32 37  0  0  1  0  0  0  0  0999 V2000
  182.9590  178.7420  141.2360 C   0  0  0  0  0  2  0  0  0  0  0  0
  186.3260  177.3320  136.9450 C   0  0  1  0  0  3  0  0  0  0  0  0
  183.5500  173.2690  137.4530 C   0  0  0  0  0  2  0  0  0  0  0  0
  184.7420  172.3850  137.0990 C   0  0  0  0  0  2  0  0  0  0  0  0
  188.8680  177.2410  136.8020 C   0  0  1  0  0  3  0  0  0  0  0  0
  190.0490  176.3130  136.7250 C   0  0  0  0  0  0  0  0  0  0  0  0
  185.1710  178.5210  138.8100 C   0  0  1  0  0  3  0  0  0  0  0  0
  183.9240  177.5020  136.9010 C   0  0  0  0  0  2  0  0  0  0  0  0
  191.2440  174.4190  136.6870 N   0  0  0  0  0  0  0  0  0  0  0  0
  182.6450  178.6260  138.7320 C   0  0  0  0  0  2  0  0  0  0  0  0
  183.6690  174.6170  136.7490 C   0  0  0  0  0  2  0  0  0  0  0  0
  185.0760  176.6540  136.5440 N   0  0  2  0  0  0  0  0  0  0  0  0
  184.9680  175.3180  137.1690 C   0  0  2  0  0  3  0  0  0  0  0  0
  187.4960  175.0960  137.1000 C   0  0  1  0  0  3  0  0  0  0  0  0
  192.2160  175.5030  136.7290 C   0  0  0  0  0  3  0  0  0  0  0  0
  184.3640  178.1520  141.2290 C   0  0  0  0  0  2  0  0  0  0  0  0
  183.8790  177.8060  138.4000 C   0  0  2  0  0  3  0  0  0  0  0  0
  191.4100  176.7230  136.7920 N   0  0  0  0  0  0  0  0  0  0  0  0
  185.2540  178.9500  140.2820 C   0  0  0  0  0  2  0  0  0  0  0  0
  182.1040  178.2000  140.0900 C   0  0  2  0  0  3  0  0  0  0  0  0
  186.0450  173.0770  137.4880 C   0  0  0  0  0  2  0  0  0  0  0  0
  186.1600  174.4240  136.7710 C   0  0  1  0  0  3  0  0  0  0  0  0
  188.6590  174.2560  136.5550 C   0  0  0  0  0  2  0  0  0  0  0  0
  186.3630  177.6510  138.4500 C   0  0  0  0  0  2  0  0  0  0  0  0
  189.0560  178.3990  135.8370 C   0  0  0  0  0  1  0  0  0  0  0  0
  191.5540  173.0320  136.3960 C   0  0  0  0  0  1  0  0  0  0  0  0
  187.5430  176.5130  136.4960 C   0  0  1  0  0  3  0  0  0  0  0  0
  189.9520  175.0010  136.6910 C   0  0  0  0  0  0  0  0  0  0  0  0
  180.7370  178.6810  140.2300 N   0  0  0  0  0  2  0  0  0  0  0  0
  180.3500  180.0130  139.8860 C   0  0  0  0  0  0  0  0  0  0  0  0
  181.2000  180.8400  139.4630 O   0  0  0  0  0  0  0  0  0  0  0  0
  178.9310  180.4250  140.0330 C   0  0  0  0  0  1  0  0  0  0  0  0
  2 24  1  1  0  0  0
  4  3  1  0  0  0  0
  4 21  1  0  0  0  0
  5 25  1  6  0  0  0
  6 18  1  0  0  0  0
  6  5  1  0  0  0  0
  7 24  1  1  0  0  0
  7 19  1  0  0  0  0
  9 28  1  0  0  0  0
  9 15  1  0  0  0  0
 10 20  1  0  0  0  0
 11  3  1  0  0  0  0
 12  8  1  1  0  0  0
 12  2  1  0  0  0  0
 12 13  1  0  0  0  0
 13 11  1  6  0  0  0
 14 23  1  6  0  0  0
 15 18  2  0  0  0  0
 16  1  1  0  0  0  0
 17  8  1  6  0  0  0
 17 10  1  0  0  0  0
 17  7  1  0  0  0  0
 19 16  1  0  0  0  0
 20 29  1  1  0  0  0
 20  1  1  0  0  0  0
 22 14  1  0  0  0  0
 22 13  1  0  0  0  0
 22 21  1  1  0  0  0
 23 28  1  0  0  0  0
 26  9  1  0  0  0  0
 27  5  1  0  0  0  0
 27  2  1  0  0  0  0
 27 14  1  0  0  0  0
 28  6  2  0  0  0  0
 30 32  1  0  0  0  0
 30 29  1  0  0  0  0
 31 30  2  0  0  0  0
M  END
>  <MODEL>
8

>  <REMARK>
 VINA RESULT:      -5.1      3.061      4.542
  Name = 
  1 active torsions:
  status: ('A' for Active; 'I' for Inactive)
    1  A    between atoms: C_20  and  N_29
                            x       y       z     vdW  Elec       q    Type
                         _______ _______ _______ _____ _____    ______ ____

>  <TORSDO>
F 1

$$$$
=
 OpenBabel11122410393D

 32 37  0  0  1  0  0  0  0  0999 V2000
  189.1150  171.9250  135.7160 C   0  0  0  0  0  2  0  0  0  0  0  0
  186.0180  176.6310  135.6870 C   0  0  1  0  0  3  0  0  0  0  0  0
  189.6610  177.8160  138.8160 C   0  0  0  0  0  2  0  0  0  0  0  0
  188.6910  178.6230  139.6730 C   0  0  0  0  0  2  0  0  0  0  0  0
  183.5600  176.9930  136.2510 C   0  0  1  0  0  3  0  0  0  0  0  0
  182.6200  177.5740  137.2710 C   0  0  0  0  0  0  0  0  0  0  0  0
  186.9330  174.3460  135.2700 C   0  0  1  0  0  3  0  0  0  0  0  0
  188.3160  176.4090  134.9980 C   0  0  0  0  0  2  0  0  0  0  0  0
  181.8870  178.5600  139.1430 N   0  0  0  0  0  0  0  0  0  0  0  0
  189.3640  174.1750  134.5950 C   0  0  0  0  0  2  0  0  0  0  0  0
  189.2150  177.8360  137.3570 C   0  0  0  0  0  2  0  0  0  0  0  0
  187.3760  177.1990  135.8150 N   0  0  2  0  0  0  0  0  0  0  0  0
  187.8050  177.2440  137.2290 C   0  0  2  0  0  3  0  0  0  0  0  0
  185.3930  177.5990  137.9370 C   0  0  1  0  0  3  0  0  0  0  0  0
  180.6950  178.1040  138.4400 C   0  0  0  0  0  3  0  0  0  0  0  0
  187.8820  172.3070  136.5250 C   0  0  0  0  0  2  0  0  0  0  0  0
  188.3400  174.9370  135.4160 C   0  0  2  0  0  3  0  0  0  0  0  0
  181.2030  177.4320  137.2440 N   0  0  0  0  0  0  0  0  0  0  0  0
  186.8030  172.8520  135.5950 C   0  0  0  0  0  2  0  0  0  0  0  0
  190.0330  173.1230  135.4700 C   0  0  2  0  0  3  0  0  0  0  0  0
  187.2780  178.0620  139.5390 C   0  0  0  0  0  2  0  0  0  0  0  0
  186.8360  178.0950  138.0740 C   0  0  1  0  0  3  0  0  0  0  0  0
  184.4340  178.5530  138.6620 C   0  0  0  0  0  2  0  0  0  0  0  0
  185.9590  175.1530  136.1120 C   0  0  0  0  0  2  0  0  0  0  0  0
  183.0820  177.3370  134.8510 C   0  0  0  0  0  1  0  0  0  0  0  0
  181.8910  179.4720  140.2710 C   0  0  0  0  0  1  0  0  0  0  0  0
  185.0060  177.4950  136.4490 C   0  0  1  0  0  3  0  0  0  0  0  0
  183.0110  178.1930  138.3640 C   0  0  0  0  0  0  0  0  0  0  0  0
  191.2580  172.6750  134.8230 N   0  0  0  0  0  2  0  0  0  0  0  0
  192.5450  172.8260  135.4240 C   0  0  0  0  0  0  0  0  0  0  0  0
  192.6700  173.3830  136.5460 O   0  0  0  0  0  0  0  0  0  0  0  0
  193.7500  172.3220  134.7140 C   0  0  0  0  0  1  0  0  0  0  0  0
  1 16  1  0  0  0  0
  2 12  1  0  0  0  0
  2 24  1  1  0  0  0
  2 27  1  0  0  0  0
  3  4  1  0  0  0  0
  5 25  1  6  0  0  0
  5 27  1  0  0  0  0
  5  6  1  0  0  0  0
  6 28  2  0  0  0  0
  7 17  1  0  0  0  0
  7 19  1  1  0  0  0
  7 24  1  0  0  0  0
  8 17  1  0  0  0  0
  9 26  1  0  0  0  0
 10 20  1  0  0  0  0
 11  3  1  0  0  0  0
 12  8  1  6  0  0  0
 12 13  1  0  0  0  0
 13 11  1  6  0  0  0
 13 22  1  0  0  0  0
 14 22  1  0  0  0  0
 14 23  1  1  0  0  0
 15  9  1  0  0  0  0
 17 10  1  6  0  0  0
 18  6  1  0  0  0  0
 18 15  2  0  0  0  0
 19 16  1  0  0  0  0
 20 29  1  6  0  0  0
 20  1  1  0  0  0  0
 21  4  1  0  0  0  0
 22 21  1  1  0  0  0
 27 14  1  0  0  0  0
 28 23  1  0  0  0  0
 28  9  1  0  0  0  0
 29 30  1  0  0  0  0
 30 31  2  0  0  0  0
 32 30  1  0  0  0  0
M  END
>  <MODEL>
9

>  <REMARK>
 VINA RESULT:      -5.1      3.638      9.311
  Name = 
  1 active torsions:
  status: ('A' for Active; 'I' for Inactive)
    1  A    between atoms: C_20  and  N_29
                            x       y       z     vdW  Elec       q    Type
                         _______ _______ _______ _____ _____    ______ ____

>  <TORSDO>
F 1

$$$$
