=
 OpenBabel11122412023D

 34 41  0  0  1  0  0  0  0  0999 V2000
  188.0130  177.8810  141.7210 C   0  0  0  0  0  0  0  0  0  0  0  0
  186.2210  178.6090  140.0220 C   0  0  0  0  0  2  0  0  0  0  0  0
  190.1070  177.3980  147.7820 C   0  0  0  0  0  0  0  0  0  0  0  0
  189.5440  177.1500  143.4820 C   0  0  0  0  0  0  0  0  0  0  0  0
  188.7540  177.1390  145.7820 C   0  0  0  0  0  0  0  0  0  0  0  0
  188.1330  177.5720  148.1270 C   0  0  0  0  0  2  0  0  0  0  0  0
  189.2920  178.1170  148.7310 O   0  0  0  0  0  0  0  0  0  0  0  0
  191.8370  176.5830  146.3740 C   0  0  0  0  0  3  0  0  0  0  0  0
  185.7080  178.5940  142.3270 C   0  0  0  0  0  0  0  0  0  0  0  0
  182.7160  179.0520  143.5080 C   0  0  0  0  0  2  0  0  0  0  0  0
  187.5410  177.5810  145.3460 N   0  0  0  0  0  0  0  0  0  0  0  0
  191.1520  176.3920  145.2320 C   0  0  0  0  0  3  0  0  0  0  0  0
  185.9330  178.3540  143.6390 C   0  0  0  0  0  0  0  0  0  0  0  0
  184.7230  178.8940  140.1900 C   0  0  0  0  0  2  0  0  0  0  0  0
  189.8030  176.9090  144.8500 C   0  0  0  0  0  0  0  0  0  0  0  0
  191.3620  177.3360  147.4950 N   0  0  0  0  0  0  0  0  0  0  0  0
  183.2170  178.4090  142.2090 C   0  0  2  0  0  3  0  0  0  0  0  0
  188.2800  177.6310  143.0800 C   0  0  0  0  0  0  0  0  0  0  0  0
  188.8960  176.7560  147.2270 C   0  0  2  0  0  3  0  0  0  0  0  0
  187.2770  177.8500  144.0410 C   0  0  0  0  0  0  0  0  0  0  0  0
  190.2560  177.1780  141.1500 C   0  0  0  0  0  3  0  0  0  0  0  0
  183.8280  179.5220  144.4480 C   0  0  0  0  0  2  0  0  0  0  0  0
  190.5250  176.9300  142.4990 C   0  0  0  0  0  3  0  0  0  0  0  0
  184.8510  178.4200  144.6910 C   0  0  0  0  0  2  0  0  0  0  0  0
  184.4690  179.1250  141.6890 C   0  0  1  0  0  3  0  0  0  0  0  0
  189.0020  177.6530  140.7590 C   0  0  0  0  0  3  0  0  0  0  0  0
  186.7140  178.3620  141.3610 N   0  0  0  0  0  0  0  0  0  0  0  0
  182.1870  178.4450  141.2640 O   0  0  0  0  0  0  0  0  0  0  0  0
  181.1080  179.0280  141.9330 C   0  0  0  0  0  2  0  0  0  0  0  0
  179.3720  181.6400  140.2470 O   0  0  0  0  0  0  0  0  0  0  0  0
  180.7060  179.7960  139.6080 C   0  0  0  0  0  2  0  0  0  0  0  0
  180.0650  179.4870  140.9300 C   0  0  2  0  0  3  0  0  0  0  0  0
  180.4300  181.2670  139.4060 C   0  0  0  0  0  2  0  0  0  0  0  0
  179.4890  180.8110  141.3720 C   0  0  0  0  0  2  0  0  0  0  0  0
  1 18  1  0  0  0  0
  2 14  1  0  0  0  0
  2 27  1  0  0  0  0
  3  7  1  0  0  0  0
  4 15  1  0  0  0  0
  5 19  1  0  0  0  0
  6  7  1  0  0  0  0
  8 16  1  0  0  0  0
  9 13  2  0  0  0  0
 10 22  1  0  0  0  0
 11  5  1  0  0  0  0
 12  8  2  0  0  0  0
 13 20  1  0  0  0  0
 13 24  1  0  0  0  0
 15 12  1  0  0  0  0
 15  5  2  0  0  0  0
 16  3  2  0  0  0  0
 17 28  1  6  0  0  0
 17 10  1  0  0  0  0
 18  4  2  0  0  0  0
 18 20  1  0  0  0  0
 19  3  1  0  0  0  0
 19  6  1  1  0  0  0
 20 11  2  0  0  0  0
 21 23  2  0  0  0  0
 22 24  1  0  0  0  0
 23  4  1  0  0  0  0
 25 14  1  6  0  0  0
 25 17  1  0  0  0  0
 25  9  1  0  0  0  0
 26 21  1  0  0  0  0
 26  1  2  0  0  0  0
 27  1  1  0  0  0  0
 27  9  1  0  0  0  0
 28 29  1  0  0  0  0
 30 34  1  0  0  0  0
 31 32  1  0  0  0  0
 32 34  1  0  0  0  0
 32 29  1  1  0  0  0
 33 31  1  0  0  0  0
 33 30  1  0  0  0  0
M  END
>  <MODEL>
1

>  <REMARK>
 VINA RESULT:     -11.0      0.000      0.000
  Name = 
  3 active torsions:
  status: ('A' for Active; 'I' for Inactive)
    1  A    between atoms: C_17  and  O_28
    2  A    between atoms: O_28  and  C_29
    3  A    between atoms: C_29  and  C_32
                            x       y       z     vdW  Elec       q    Type
                         _______ _______ _______ _____ _____    ______ ____

>  <TORSDO>
F 3

$$$$
=
 OpenBabel11122412023D

 34 41  0  0  1  0  0  0  0  0999 V2000
  188.2210  177.8350  141.7090 C   0  0  0  0  0  0  0  0  0  0  0  0
  186.4910  178.5500  139.9410 C   0  0  0  0  0  2  0  0  0  0  0  0
  190.0980  177.4020  147.8450 C   0  0  0  0  0  0  0  0  0  0  0  0
  189.6880  177.1190  143.5290 C   0  0  0  0  0  0  0  0  0  0  0  0
  188.8170  177.1270  145.8000 C   0  0  0  0  0  0  0  0  0  0  0  0
  188.1130  177.5790  148.1180 C   0  0  0  0  0  2  0  0  0  0  0  0
  189.2500  178.1290  148.7580 O   0  0  0  0  0  0  0  0  0  0  0  0
  191.8760  176.5750  146.5050 C   0  0  0  0  0  3  0  0  0  0  0  0
  185.8960  178.5540  142.2270 C   0  0  0  0  0  0  0  0  0  0  0  0
  182.8640  179.0220  143.2970 C   0  0  0  0  0  2  0  0  0  0  0  0
  187.6200  177.5650  145.3170 N   0  0  0  0  0  0  0  0  0  0  0  0
  191.2330  176.3750  145.3420 C   0  0  0  0  0  3  0  0  0  0  0  0
  186.0750  178.3240  143.5480 C   0  0  0  0  0  0  0  0  0  0  0  0
  184.9880  178.8360  140.0540 C   0  0  0  0  0  2  0  0  0  0  0  0
  189.8990  176.8890  144.9080 C   0  0  0  0  0  0  0  0  0  0  0  0
  191.3630  177.3380  147.6030 N   0  0  0  0  0  0  0  0  0  0  0  0
  183.4110  178.3680  142.0220 C   0  0  2  0  0  3  0  0  0  0  0  0
  188.4400  177.5970  143.0790 C   0  0  0  0  0  0  0  0  0  0  0  0
  188.9080  176.7560  147.2520 C   0  0  2  0  0  3  0  0  0  0  0  0
  187.4030  177.8240  144.0020 C   0  0  0  0  0  0  0  0  0  0  0  0
  190.4830  177.1280  141.2240 C   0  0  0  0  0  3  0  0  0  0  0  0
  183.9430  179.4990  144.2720 C   0  0  0  0  0  2  0  0  0  0  0  0
  190.7040  176.8910  142.5840 C   0  0  0  0  0  3  0  0  0  0  0  0
  184.9560  178.4000  144.5600 C   0  0  0  0  0  2  0  0  0  0  0  0
  184.6810  179.0790  141.5410 C   0  0  1  0  0  3  0  0  0  0  0  0
  189.2440  177.5990  140.7850 C   0  0  0  0  0  3  0  0  0  0  0  0
  186.9360  178.3140  141.2990 N   0  0  0  0  0  0  0  0  0  0  0  0
  182.4150  178.3960  141.0410 O   0  0  0  0  0  0  0  0  0  0  0  0
  181.3280  179.0240  141.6520 C   0  0  0  0  0  2  0  0  0  0  0  0
  179.6390  177.4450  138.9440 O   0  0  0  0  0  0  0  0  0  0  0  0
  179.6410  177.2400  141.2990 C   0  0  0  0  0  2  0  0  0  0  0  0
  180.0420  178.6410  140.9420 C   0  0  2  0  0  3  0  0  0  0  0  0
  179.6820  176.5020  139.9820 C   0  0  0  0  0  2  0  0  0  0  0  0
  180.2880  178.5790  139.4530 C   0  0  0  0  0  2  0  0  0  0  0  0
  1 18  1  0  0  0  0
  2 14  1  0  0  0  0
  2 27  1  0  0  0  0
  3  7  1  0  0  0  0
  4 15  1  0  0  0  0
  5 19  1  0  0  0  0
  6  7  1  0  0  0  0
  8 16  1  0  0  0  0
  9 13  2  0  0  0  0
 10 22  1  0  0  0  0
 11  5  1  0  0  0  0
 12  8  2  0  0  0  0
 13 20  1  0  0  0  0
 13 24  1  0  0  0  0
 15 12  1  0  0  0  0
 15  5  2  0  0  0  0
 16  3  2  0  0  0  0
 17 28  1  6  0  0  0
 17 10  1  0  0  0  0
 18  4  2  0  0  0  0
 18 20  1  0  0  0  0
 19  3  1  0  0  0  0
 19  6  1  1  0  0  0
 20 11  2  0  0  0  0
 21 23  2  0  0  0  0
 22 24  1  0  0  0  0
 23  4  1  0  0  0  0
 25 14  1  6  0  0  0
 25 17  1  0  0  0  0
 25  9  1  0  0  0  0
 26 21  1  0  0  0  0
 26  1  2  0  0  0  0
 27  1  1  0  0  0  0
 27  9  1  0  0  0  0
 28 29  1  0  0  0  0
 30 34  1  0  0  0  0
 30 33  1  0  0  0  0
 32 31  1  0  0  0  0
 32 29  1  1  0  0  0
 33 31  1  0  0  0  0
 34 32  1  0  0  0  0
M  END
>  <MODEL>
2

>  <REMARK>
 VINA RESULT:     -10.7      1.020      1.379
  Name = 
  3 active torsions:
  status: ('A' for Active; 'I' for Inactive)
    1  A    between atoms: C_17  and  O_28
    2  A    between atoms: O_28  and  C_29
    3  A    between atoms: C_29  and  C_32
                            x       y       z     vdW  Elec       q    Type
                         _______ _______ _______ _____ _____    ______ ____

>  <TORSDO>
F 3

$$$$
=
 OpenBabel11122412023D

 34 41  0  0  1  0  0  0  0  0999 V2000
  189.7270  177.6080  141.7650 C   0  0  0  0  0  0  0  0  0  0  0  0
  189.8170  177.8290  139.2010 C   0  0  0  0  0  2  0  0  0  0  0  0
  186.6600  178.4760  147.3500 C   0  0  0  0  0  0  0  0  0  0  0  0
  189.4160  177.3720  144.1780 C   0  0  0  0  0  0  0  0  0  0  0  0
  187.1940  177.7170  145.1060 C   0  0  0  0  0  0  0  0  0  0  0  0
  185.0860  178.5200  146.0980 C   0  0  0  0  0  2  0  0  0  0  0  0
  185.4670  179.2790  147.2320 O   0  0  0  0  0  0  0  0  0  0  0  0
  188.8010  177.5810  147.8550 C   0  0  0  0  0  3  0  0  0  0  0  0
  187.7790  178.1980  140.3340 C   0  0  0  0  0  0  0  0  0  0  0  0
  184.9250  178.5790  138.8290 C   0  0  0  0  0  2  0  0  0  0  0  0
  186.7270  177.9510  143.8470 N   0  0  0  0  0  0  0  0  0  0  0  0
  189.1620  177.1140  146.6470 C   0  0  0  0  0  3  0  0  0  0  0  0
  186.9510  178.2310  141.4040 C   0  0  0  0  0  0  0  0  0  0  0  0
  188.7030  177.9950  138.1600 C   0  0  0  0  0  2  0  0  0  0  0  0
  188.5690  177.4180  145.3090 C   0  0  0  0  0  0  0  0  0  0  0  0
  187.7140  178.4820  148.0930 N   0  0  0  0  0  0  0  0  0  0  0  0
  186.1680  177.7550  138.4740 C   0  0  2  0  0  3  0  0  0  0  0  0
  188.8930  177.6450  142.8970 C   0  0  0  0  0  0  0  0  0  0  0  0
  186.2020  177.6280  146.2290 C   0  0  2  0  0  3  0  0  0  0  0  0
  187.5260  177.9430  142.7490 C   0  0  0  0  0  0  0  0  0  0  0  0
  191.6090  177.0310  143.1700 C   0  0  0  0  0  3  0  0  0  0  0  0
  185.0220  179.3220  140.1640 C   0  0  0  0  0  2  0  0  0  0  0  0
  190.7830  177.0670  144.2970 C   0  0  0  0  0  3  0  0  0  0  0  0
  185.4530  178.3890  141.2870 C   0  0  0  0  0  2  0  0  0  0  0  0
  187.4490  178.4770  138.9080 C   0  0  1  0  0  3  0  0  0  0  0  0
  191.0840  177.3000  141.9050 C   0  0  0  0  0  3  0  0  0  0  0  0
  189.1500  177.8870  140.4850 N   0  0  0  0  0  0  0  0  0  0  0  0
  186.1690  177.5130  137.0960 O   0  0  0  0  0  0  0  0  0  0  0  0
  185.3560  176.3890  136.9300 C   0  0  0  0  0  2  0  0  0  0  0  0
  188.3530  175.1500  135.4600 O   0  0  0  0  0  0  0  0  0  0  0  0
  186.7930  174.3710  137.0560 C   0  0  0  0  0  2  0  0  0  0  0  0
  186.0960  175.3290  136.1350 C   0  0  2  0  0  3  0  0  0  0  0  0
  188.2560  174.5440  136.7200 C   0  0  0  0  0  2  0  0  0  0  0  0
  187.2210  175.9730  135.3610 C   0  0  0  0  0  2  0  0  0  0  0  0
  1 26  2  0  0  0  0
  1 18  1  0  0  0  0
  2 27  1  0  0  0  0
  3 16  2  0  0  0  0
  4 23  1  0  0  0  0
  4 15  1  0  0  0  0
  5 15  2  0  0  0  0
  5 19  1  0  0  0  0
  6  7  1  0  0  0  0
  7  3  1  0  0  0  0
  8 16  1  0  0  0  0
  9 27  1  0  0  0  0
  9 13  2  0  0  0  0
 10 22  1  0  0  0  0
 11  5  1  0  0  0  0
 12  8  2  0  0  0  0
 13 20  1  0  0  0  0
 14  2  1  0  0  0  0
 15 12  1  0  0  0  0
 17 28  1  6  0  0  0
 17 10  1  0  0  0  0
 17 25  1  0  0  0  0
 18  4  2  0  0  0  0
 19  6  1  6  0  0  0
 19  3  1  0  0  0  0
 20 18  1  0  0  0  0
 20 11  2  0  0  0  0
 21 23  2  0  0  0  0
 22 24  1  0  0  0  0
 24 13  1  0  0  0  0
 25 14  1  6  0  0  0
 25  9  1  0  0  0  0
 26 21  1  0  0  0  0
 27  1  1  0  0  0  0
 29 28  1  0  0  0  0
 30 33  1  0  0  0  0
 32 29  1  1  0  0  0
 32 31  1  0  0  0  0
 33 31  1  0  0  0  0
 34 30  1  0  0  0  0
 34 32  1  0  0  0  0
M  END
>  <MODEL>
3

>  <REMARK>
 VINA RESULT:     -10.4      3.090      5.103
  Name = 
  3 active torsions:
  status: ('A' for Active; 'I' for Inactive)
    1  A    between atoms: C_17  and  O_28
    2  A    between atoms: O_28  and  C_29
    3  A    between atoms: C_29  and  C_32
                            x       y       z     vdW  Elec       q    Type
                         _______ _______ _______ _____ _____    ______ ____

>  <TORSDO>
F 3

$$$$
=
 OpenBabel11122412023D

 34 41  0  0  1  0  0  0  0  0999 V2000
  184.1260  178.5590  143.9820 C   0  0  0  0  0  0  0  0  0  0  0  0
  181.7260  179.0030  143.1610 C   0  0  0  0  0  2  0  0  0  0  0  0
  190.1730  176.6920  142.8410 C   0  0  0  0  0  0  0  0  0  0  0  0
  186.4760  178.2000  144.5530 C   0  0  0  0  0  0  0  0  0  0  0  0
  188.0850  177.9290  142.7490 C   0  0  0  0  0  0  0  0  0  0  0  0
  189.6220  177.1870  140.9710 C   0  0  0  0  0  2  0  0  0  0  0  0
  190.3600  176.1160  141.5310 O   0  0  0  0  0  0  0  0  0  0  0  0
  189.9990  177.1280  145.1690 C   0  0  0  0  0  3  0  0  0  0  0  0
  183.4480  178.6310  141.5890 C   0  0  0  0  0  0  0  0  0  0  0  0
  183.0830  179.0420  138.3870 C   0  0  0  0  0  2  0  0  0  0  0  0
  187.0740  178.0960  141.8500 N   0  0  0  0  0  0  0  0  0  0  0  0
  188.8590  177.8390  145.2000 C   0  0  0  0  0  3  0  0  0  0  0  0
  184.7230  178.4330  141.1790 C   0  0  0  0  0  0  0  0  0  0  0  0
  181.1690  179.2650  141.7560 C   0  0  0  0  0  2  0  0  0  0  0  0
  187.8100  177.9760  144.1440 C   0  0  0  0  0  0  0  0  0  0  0  0
  190.4490  176.3510  144.0530 N   0  0  0  0  0  0  0  0  0  0  0  0
  182.4530  179.7550  139.5900 C   0  0  2  0  0  3  0  0  0  0  0  0
  185.4590  178.3420  143.5860 C   0  0  0  0  0  0  0  0  0  0  0  0
  189.4930  177.8570  142.2330 C   0  0  2  0  0  3  0  0  0  0  0  0
  185.7800  178.2810  142.2180 C   0  0  0  0  0  0  0  0  0  0  0  0
  184.8040  178.4930  146.3030 C   0  0  0  0  0  3  0  0  0  0  0  0
  184.1120  177.9720  138.7570 C   0  0  0  0  0  2  0  0  0  0  0  0
  186.1290  178.2770  145.9130 C   0  0  0  0  0  3  0  0  0  0  0  0
  185.1490  178.5140  139.7320 C   0  0  0  0  0  2  0  0  0  0  0  0
  182.2250  178.7790  140.7500 C   0  0  1  0  0  3  0  0  0  0  0  0
  183.8020  178.6340  145.3400 C   0  0  0  0  0  3  0  0  0  0  0  0
  183.1290  178.7040  142.9640 N   0  0  0  0  0  0  0  0  0  0  0  0
  181.2510  180.3440  139.1840 O   0  0  0  0  0  0  0  0  0  0  0  0
  181.5550  180.9850  137.9810 C   0  0  0  0  0  2  0  0  0  0  0  0
  181.9310  184.4370  137.1930 O   0  0  0  0  0  0  0  0  0  0  0  0
  180.3510  182.7450  136.7130 C   0  0  0  0  0  2  0  0  0  0  0  0
  181.0320  182.4100  138.0080 C   0  0  2  0  0  3  0  0  0  0  0  0
  181.1770  183.8780  136.1510 C   0  0  0  0  0  2  0  0  0  0  0  0
  182.1940  183.3730  138.0670 C   0  0  0  0  0  2  0  0  0  0  0  0
  1 26  1  0  0  0  0
  3 16  2  0  0  0  0
  4 23  2  0  0  0  0
  5 15  2  0  0  0  0
  6  7  1  0  0  0  0
  7  3  1  0  0  0  0
  8 12  2  0  0  0  0
  9 27  1  0  0  0  0
 10 22  1  0  0  0  0
 10 17  1  0  0  0  0
 11 20  2  0  0  0  0
 11  5  1  0  0  0  0
 13  9  2  0  0  0  0
 13 20  1  0  0  0  0
 14  2  1  0  0  0  0
 15  4  1  0  0  0  0
 15 12  1  0  0  0  0
 16  8  1  0  0  0  0
 17 28  1  6  0  0  0
 17 25  1  0  0  0  0
 18  1  2  0  0  0  0
 18  4  1  0  0  0  0
 19  6  1  6  0  0  0
 19  5  1  0  0  0  0
 19  3  1  0  0  0  0
 20 18  1  0  0  0  0
 22 24  1  0  0  0  0
 23 21  1  0  0  0  0
 24 13  1  0  0  0  0
 25  9  1  0  0  0  0
 25 14  1  1  0  0  0
 26 21  2  0  0  0  0
 27  2  1  0  0  0  0
 27  1  1  0  0  0  0
 29 28  1  0  0  0  0
 30 34  1  0  0  0  0
 31 32  1  0  0  0  0
 32 29  1  6  0  0  0
 32 34  1  0  0  0  0
 33 31  1  0  0  0  0
 33 30  1  0  0  0  0
M  END
>  <MODEL>
4

>  <REMARK>
 VINA RESULT:     -10.3      2.367      4.566
  Name = 
  3 active torsions:
  status: ('A' for Active; 'I' for Inactive)
    1  A    between atoms: C_17  and  O_28
    2  A    between atoms: O_28  and  C_29
    3  A    between atoms: C_29  and  C_32
                            x       y       z     vdW  Elec       q    Type
                         _______ _______ _______ _____ _____    ______ ____

>  <TORSDO>
F 3

$$$$
=
 OpenBabel11122412023D

 34 41  0  0  1  0  0  0  0  0999 V2000
  190.6090  177.3330  143.1940 C   0  0  0  0  0  0  0  0  0  0  0  0
  192.4310  177.1310  141.3860 C   0  0  0  0  0  2  0  0  0  0  0  0
  184.6620  179.0030  144.9820 C   0  0  0  0  0  0  0  0  0  0  0  0
  188.7270  177.4870  144.7460 C   0  0  0  0  0  0  0  0  0  0  0  0
  186.5050  177.9030  143.8460 C   0  0  0  0  0  0  0  0  0  0  0  0
  184.3640  178.7870  143.0050 C   0  0  0  0  0  2  0  0  0  0  0  0
  183.9410  179.7340  143.9690 O   0  0  0  0  0  0  0  0  0  0  0  0
  185.8050  178.2780  146.9330 C   0  0  0  0  0  3  0  0  0  0  0  0
  190.2070  177.6110  140.7550 C   0  0  0  0  0  0  0  0  0  0  0  0
  189.1750  177.6410  137.6740 C   0  0  0  0  0  2  0  0  0  0  0  0
  187.0380  177.9100  142.5920 N   0  0  0  0  0  0  0  0  0  0  0  0
  186.8460  177.6310  146.3800 C   0  0  0  0  0  3  0  0  0  0  0  0
  188.8800  177.7910  140.9530 C   0  0  0  0  0  0  0  0  0  0  0  0
  192.3370  177.0850  139.8560 C   0  0  0  0  0  2  0  0  0  0  0  0
  187.3460  177.6900  144.9730 C   0  0  0  0  0  0  0  0  0  0  0  0
  184.9300  179.1680  146.2330 N   0  0  0  0  0  0  0  0  0  0  0  0
  190.2520  176.8130  138.3860 C   0  0  2  0  0  3  0  0  0  0  0  0
  189.2360  177.5270  143.4320 C   0  0  0  0  0  0  0  0  0  0  0  0
  185.0120  177.9660  143.9880 C   0  0  2  0  0  3  0  0  0  0  0  0
  188.3650  177.7500  142.3500 C   0  0  0  0  0  0  0  0  0  0  0  0
  190.9820  177.0600  145.5690 C   0  0  0  0  0  3  0  0  0  0  0  0
  188.4070  178.5960  138.5910 C   0  0  0  0  0  2  0  0  0  0  0  0
  189.6180  177.2530  145.8080 C   0  0  0  0  0  3  0  0  0  0  0  0
  187.8790  177.8770  139.8240 C   0  0  0  0  0  2  0  0  0  0  0  0
  190.9570  177.6400  139.4670 C   0  0  1  0  0  3  0  0  0  0  0  0
  191.4790  177.0990  144.2650 C   0  0  0  0  0  3  0  0  0  0  0  0
  191.0790  177.3760  141.8430 N   0  0  0  0  0  0  0  0  0  0  0  0
  191.1640  176.3480  137.4330 O   0  0  0  0  0  0  0  0  0  0  0  0
  190.9270  174.9730  137.3530 C   0  0  0  0  0  2  0  0  0  0  0  0
  194.0040  175.1440  135.5670 O   0  0  0  0  0  0  0  0  0  0  0  0
  193.2630  174.1720  137.5910 C   0  0  0  0  0  2  0  0  0  0  0  0
  192.0920  174.2880  136.6600 C   0  0  2  0  0  3  0  0  0  0  0  0
  194.3440  174.9850  136.9190 C   0  0  0  0  0  2  0  0  0  0  0  0
  192.6020  175.1660  135.5430 C   0  0  0  0  0  2  0  0  0  0  0  0
  1 18  2  0  0  0  0
  1 26  1  0  0  0  0
  2 27  1  0  0  0  0
  3 16  2  0  0  0  0
  4 15  1  0  0  0  0
  4 23  2  0  0  0  0
  5 19  1  0  0  0  0
  5 15  2  0  0  0  0
  6  7  1  0  0  0  0
  7  3  1  0  0  0  0
  9 13  2  0  0  0  0
  9 27  1  0  0  0  0
 10 17  1  0  0  0  0
 10 22  1  0  0  0  0
 11  5  1  0  0  0  0
 12  8  2  0  0  0  0
 13 20  1  0  0  0  0
 14  2  1  0  0  0  0
 15 12  1  0  0  0  0
 16  8  1  0  0  0  0
 17 28  1  6  0  0  0
 17 25  1  0  0  0  0
 18  4  1  0  0  0  0
 19  6  1  6  0  0  0
 19  3  1  0  0  0  0
 20 11  2  0  0  0  0
 20 18  1  0  0  0  0
 21 23  1  0  0  0  0
 22 24  1  0  0  0  0
 24 13  1  0  0  0  0
 25 14  1  1  0  0  0
 25  9  1  0  0  0  0
 26 21  2  0  0  0  0
 27  1  1  0  0  0  0
 29 28  1  0  0  0  0
 30 33  1  0  0  0  0
 32 29  1  1  0  0  0
 32 31  1  0  0  0  0
 33 31  1  0  0  0  0
 34 30  1  0  0  0  0
 34 32  1  0  0  0  0
M  END
>  <MODEL>
5

>  <REMARK>
 VINA RESULT:     -10.1      4.022      8.009
  Name = 
  3 active torsions:
  status: ('A' for Active; 'I' for Inactive)
    1  A    between atoms: C_17  and  O_28
    2  A    between atoms: O_28  and  C_29
    3  A    between atoms: C_29  and  C_32
                            x       y       z     vdW  Elec       q    Type
                         _______ _______ _______ _____ _____    ______ ____

>  <TORSDO>
F 3

$$$$
=
 OpenBabel11122412023D

 34 41  0  0  1  0  0  0  0  0999 V2000
  190.6290  177.3370  143.2510 C   0  0  0  0  0  0  0  0  0  0  0  0
  192.4640  177.1290  141.4580 C   0  0  0  0  0  2  0  0  0  0  0  0
  184.6700  179.0200  144.9900 C   0  0  0  0  0  0  0  0  0  0  0  0
  188.7340  177.4960  144.7880 C   0  0  0  0  0  0  0  0  0  0  0  0
  186.5210  177.9160  143.8690 C   0  0  0  0  0  0  0  0  0  0  0  0
  184.3880  178.8030  143.0110 C   0  0  0  0  0  2  0  0  0  0  0  0
  183.9590  179.7520  143.9700 O   0  0  0  0  0  0  0  0  0  0  0  0
  185.7970  178.2950  146.9510 C   0  0  0  0  0  3  0  0  0  0  0  0
  190.2460  177.6140  140.8090 C   0  0  0  0  0  0  0  0  0  0  0  0
  189.2390  177.6430  137.7190 C   0  0  0  0  0  2  0  0  0  0  0  0
  187.0640  177.9210  142.6200 N   0  0  0  0  0  0  0  0  0  0  0  0
  186.8400  177.6450  146.4070 C   0  0  0  0  0  3  0  0  0  0  0  0
  188.9180  177.7970  140.9950 C   0  0  0  0  0  0  0  0  0  0  0  0
  192.3820  177.0820  139.9270 C   0  0  0  0  0  2  0  0  0  0  0  0
  187.3520  177.7020  145.0040 C   0  0  0  0  0  0  0  0  0  0  0  0
  184.9280  179.1850  146.2420 N   0  0  0  0  0  0  0  0  0  0  0  0
  190.3090  176.8130  138.4410 C   0  0  2  0  0  3  0  0  0  0  0  0
  189.2540  177.5340  143.4770 C   0  0  0  0  0  0  0  0  0  0  0  0
  185.0270  177.9820  143.9990 C   0  0  2  0  0  3  0  0  0  0  0  0
  188.3910  177.7570  142.3890 C   0  0  0  0  0  0  0  0  0  0  0  0
  190.9810  177.0650  145.6290 C   0  0  0  0  0  3  0  0  0  0  0  0
  188.4660  178.6000  138.6290 C   0  0  0  0  0  2  0  0  0  0  0  0
  189.6160  177.2610  145.8570 C   0  0  0  0  0  3  0  0  0  0  0  0
  187.9270  177.8830  139.8590 C   0  0  0  0  0  2  0  0  0  0  0  0
  191.0060  177.6400  139.5270 C   0  0  1  0  0  3  0  0  0  0  0  0
  191.4890  177.1020  144.3290 C   0  0  0  0  0  3  0  0  0  0  0  0
  191.1090  177.3780  141.9030 N   0  0  0  0  0  0  0  0  0  0  0  0
  191.2270  176.3450  137.4960 O   0  0  0  0  0  0  0  0  0  0  0  0
  190.4510  175.6940  136.5340 C   0  0  0  0  0  2  0  0  0  0  0  0
  188.8500  172.5330  136.1820 O   0  0  0  0  0  0  0  0  0  0  0  0
  191.0050  173.4060  135.7520 C   0  0  0  0  0  2  0  0  0  0  0  0
  190.3730  174.2120  136.8490 C   0  0  2  0  0  3  0  0  0  0  0  0
  189.8690  172.5650  135.2180 C   0  0  0  0  0  2  0  0  0  0  0  0
  188.9300  173.7690  136.8400 C   0  0  0  0  0  2  0  0  0  0  0  0
  1 18  2  0  0  0  0
  1 26  1  0  0  0  0
  2 27  1  0  0  0  0
  3 16  2  0  0  0  0
  4 15  1  0  0  0  0
  4 23  2  0  0  0  0
  5 19  1  0  0  0  0
  5 15  2  0  0  0  0
  6  7  1  0  0  0  0
  7  3  1  0  0  0  0
  9 13  2  0  0  0  0
  9 27  1  0  0  0  0
 10 17  1  0  0  0  0
 10 22  1  0  0  0  0
 11  5  1  0  0  0  0
 12  8  2  0  0  0  0
 13 20  1  0  0  0  0
 14  2  1  0  0  0  0
 15 12  1  0  0  0  0
 16  8  1  0  0  0  0
 17 28  1  6  0  0  0
 17 25  1  0  0  0  0
 18  4  1  0  0  0  0
 19  6  1  6  0  0  0
 19  3  1  0  0  0  0
 20 11  2  0  0  0  0
 20 18  1  0  0  0  0
 21 23  1  0  0  0  0
 22 24  1  0  0  0  0
 24 13  1  0  0  0  0
 25 14  1  1  0  0  0
 25  9  1  0  0  0  0
 26 21  2  0  0  0  0
 27  1  1  0  0  0  0
 29 28  1  0  0  0  0
 30 34  1  0  0  0  0
 31 32  1  0  0  0  0
 32 29  1  6  0  0  0
 33 31  1  0  0  0  0
 33 30  1  0  0  0  0
 34 32  1  0  0  0  0
M  END
>  <MODEL>
6

>  <REMARK>
 VINA RESULT:      -9.9      3.803      7.444
  Name = 
  3 active torsions:
  status: ('A' for Active; 'I' for Inactive)
    1  A    between atoms: C_17  and  O_28
    2  A    between atoms: O_28  and  C_29
    3  A    between atoms: C_29  and  C_32
                            x       y       z     vdW  Elec       q    Type
                         _______ _______ _______ _____ _____    ______ ____

>  <TORSDO>
F 3

$$$$
=
 OpenBabel11122412023D

 34 41  0  0  1  0  0  0  0  0999 V2000
  185.6340  178.4080  142.5040 C   0  0  0  0  0  0  0  0  0  0  0  0
  185.1130  178.5150  139.9850 C   0  0  0  0  0  2  0  0  0  0  0  0
  189.5520  176.8000  147.3440 C   0  0  0  0  0  0  0  0  0  0  0  0
  186.3480  178.3320  144.8410 C   0  0  0  0  0  0  0  0  0  0  0  0
  188.6800  177.8440  145.3310 C   0  0  0  0  0  0  0  0  0  0  0  0
  190.8940  176.8930  145.8490 C   0  0  0  0  0  2  0  0  0  0  0  0
  190.6810  176.0020  146.9290 O   0  0  0  0  0  0  0  0  0  0  0  0
  187.5560  177.6510  148.3080 C   0  0  0  0  0  3  0  0  0  0  0  0
  187.2970  177.9790  140.7050 C   0  0  0  0  0  0  0  0  0  0  0  0
  189.8480  177.7530  138.7040 C   0  0  0  0  0  2  0  0  0  0  0  0
  188.9230  177.7650  143.9930 N   0  0  0  0  0  0  0  0  0  0  0  0
  187.0160  178.2720  147.2450 C   0  0  0  0  0  3  0  0  0  0  0  0
  188.2890  177.8000  141.6070 C   0  0  0  0  0  0  0  0  0  0  0  0
  186.0330  178.4680  138.7580 C   0  0  0  0  0  2  0  0  0  0  0  0
  187.3680  178.1320  145.7990 C   0  0  0  0  0  0  0  0  0  0  0  0
  188.6360  176.7130  148.2470 N   0  0  0  0  0  0  0  0  0  0  0  0
  188.5910  178.6320  138.6680 C   0  0  2  0  0  3  0  0  0  0  0  0
  186.6420  178.2170  143.4660 C   0  0  0  0  0  0  0  0  0  0  0  0
  189.8470  177.7770  146.2740 C   0  0  2  0  0  3  0  0  0  0  0  0
  187.9550  177.9220  143.0540 C   0  0  0  0  0  0  0  0  0  0  0  0
  184.0310  178.8270  144.2670 C   0  0  0  0  0  3  0  0  0  0  0  0
  189.9470  176.8490  139.9350 C   0  0  0  0  0  2  0  0  0  0  0  0
  185.0300  178.6380  145.2260 C   0  0  0  0  0  3  0  0  0  0  0  0
  189.7400  177.6370  141.2210 C   0  0  0  0  0  2  0  0  0  0  0  0
  187.3760  177.8780  139.2200 C   0  0  1  0  0  3  0  0  0  0  0  0
  184.3300  178.7130  142.9080 C   0  0  0  0  0  3  0  0  0  0  0  0
  185.9810  178.2860  141.1210 N   0  0  0  0  0  0  0  0  0  0  0  0
  188.3710  179.0460  137.3500 O   0  0  0  0  0  0  0  0  0  0  0  0
  189.2470  178.2750  136.5820 C   0  0  0  0  0  2  0  0  0  0  0  0
  186.9740  175.8940  135.2220 O   0  0  0  0  0  0  0  0  0  0  0  0
  187.1230  178.2520  135.2990 C   0  0  0  0  0  2  0  0  0  0  0  0
  188.5080  177.6830  135.3950 C   0  0  2  0  0  3  0  0  0  0  0  0
  186.2240  177.0520  135.4750 C   0  0  0  0  0  2  0  0  0  0  0  0
  188.2790  176.2090  135.6280 C   0  0  0  0  0  2  0  0  0  0  0  0
  1 26  2  0  0  0  0
  1 18  1  0  0  0  0
  2 27  1  0  0  0  0
  3 16  2  0  0  0  0
  4 23  1  0  0  0  0
  4 15  1  0  0  0  0
  5 15  2  0  0  0  0
  5 19  1  0  0  0  0
  6  7  1  0  0  0  0
  7  3  1  0  0  0  0
  9 27  1  0  0  0  0
  9 13  2  0  0  0  0
 10 22  1  0  0  0  0
 11  5  1  0  0  0  0
 12  8  2  0  0  0  0
 13 20  1  0  0  0  0
 14  2  1  0  0  0  0
 15 12  1  0  0  0  0
 16  8  1  0  0  0  0
 17 28  1  6  0  0  0
 17 10  1  0  0  0  0
 17 25  1  0  0  0  0
 18  4  2  0  0  0  0
 19  6  1  6  0  0  0
 19  3  1  0  0  0  0
 20 18  1  0  0  0  0
 20 11  2  0  0  0  0
 21 23  2  0  0  0  0
 22 24  1  0  0  0  0
 24 13  1  0  0  0  0
 25 14  1  6  0  0  0
 25  9  1  0  0  0  0
 26 21  1  0  0  0  0
 27  1  1  0  0  0  0
 29 28  1  0  0  0  0
 30 33  1  0  0  0  0
 30 34  1  0  0  0  0
 31 32  1  0  0  0  0
 31 33  1  0  0  0  0
 32 34  1  0  0  0  0
 32 29  1  1  0  0  0
M  END
>  <MODEL>
7

>  <REMARK>
 VINA RESULT:      -9.8      3.028      5.756
  Name = 
  3 active torsions:
  status: ('A' for Active; 'I' for Inactive)
    1  A    between atoms: C_17  and  O_28
    2  A    between atoms: O_28  and  C_29
    3  A    between atoms: C_29  and  C_32
                            x       y       z     vdW  Elec       q    Type
                         _______ _______ _______ _____ _____    ______ ____

>  <TORSDO>
F 3

$$$$
=
 OpenBabel11122412023D

 34 41  0  0  1  0  0  0  0  0999 V2000
  189.7980  177.6280  141.8590 C   0  0  0  0  0  0  0  0  0  0  0  0
  189.9820  177.8090  139.2970 C   0  0  0  0  0  2  0  0  0  0  0  0
  186.5280  178.5780  147.3150 C   0  0  0  0  0  0  0  0  0  0  0  0
  189.3990  177.4280  144.2630 C   0  0  0  0  0  0  0  0  0  0  0  0
  187.1440  177.7850  145.1030 C   0  0  0  0  0  0  0  0  0  0  0  0
  185.0020  178.6020  146.0050 C   0  0  0  0  0  2  0  0  0  0  0  0
  185.3400  179.3780  147.1410 O   0  0  0  0  0  0  0  0  0  0  0  0
  188.6500  177.6940  147.9110 C   0  0  0  0  0  3  0  0  0  0  0  0
  187.9040  178.1930  140.3500 C   0  0  0  0  0  0  0  0  0  0  0  0
  185.1060  178.5480  138.7350 C   0  0  0  0  0  2  0  0  0  0  0  0
  186.7240  177.9990  143.8240 N   0  0  0  0  0  0  0  0  0  0  0  0
  189.0550  177.2090  146.7250 C   0  0  0  0  0  3  0  0  0  0  0  0
  187.0370  178.2410  141.3880 C   0  0  0  0  0  0  0  0  0  0  0  0
  188.9070  177.9570  138.2140 C   0  0  0  0  0  2  0  0  0  0  0  0
  188.5120  177.4910  145.3610 C   0  0  0  0  0  0  0  0  0  0  0  0
  187.5550  178.5970  148.0950 N   0  0  0  0  0  0  0  0  0  0  0  0
  186.3630  177.7190  138.4380 C   0  0  2  0  0  3  0  0  0  0  0  0
  188.9230  177.6810  142.9590 C   0  0  0  0  0  0  0  0  0  0  0  0
  186.1120  177.7120  146.1910 C   0  0  2  0  0  3  0  0  0  0  0  0
  187.5630  177.9760  142.7560 C   0  0  0  0  0  0  0  0  0  0  0  0
  191.6280  177.0740  143.3410 C   0  0  0  0  0  3  0  0  0  0  0  0
  185.1540  179.3110  140.0600 C   0  0  0  0  0  2  0  0  0  0  0  0
  190.7620  177.1270  144.4370 C   0  0  0  0  0  3  0  0  0  0  0  0
  185.5440  178.3960  141.2140 C   0  0  0  0  0  2  0  0  0  0  0  0
  187.6260  178.4500  138.9080 C   0  0  1  0  0  3  0  0  0  0  0  0
  191.1500  177.3240  142.0540 C   0  0  0  0  0  3  0  0  0  0  0  0
  189.2680  177.8860  140.5550 N   0  0  0  0  0  0  0  0  0  0  0  0
  186.4140  177.4560  137.0660 O   0  0  0  0  0  0  0  0  0  0  0  0
  186.0820  176.1040  136.9480 C   0  0  0  0  0  2  0  0  0  0  0  0
  183.2380  175.8090  134.8260 O   0  0  0  0  0  0  0  0  0  0  0  0
  185.1980  177.1290  134.8680 C   0  0  0  0  0  2  0  0  0  0  0  0
  185.4760  175.8380  135.5820 C   0  0  2  0  0  3  0  0  0  0  0  0
  183.6990  177.1250  134.6800 C   0  0  0  0  0  2  0  0  0  0  0  0
  184.1110  175.2150  135.7480 C   0  0  0  0  0  2  0  0  0  0  0  0
  1 26  2  0  0  0  0
  1 18  1  0  0  0  0
  2 27  1  0  0  0  0
  3 16  2  0  0  0  0
  4 23  1  0  0  0  0
  4 15  1  0  0  0  0
  5 15  2  0  0  0  0
  5 19  1  0  0  0  0
  6  7  1  0  0  0  0
  7  3  1  0  0  0  0
  8 16  1  0  0  0  0
  9 27  1  0  0  0  0
  9 13  2  0  0  0  0
 10 22  1  0  0  0  0
 11  5  1  0  0  0  0
 12  8  2  0  0  0  0
 13 20  1  0  0  0  0
 14  2  1  0  0  0  0
 15 12  1  0  0  0  0
 17 28  1  6  0  0  0
 17 10  1  0  0  0  0
 17 25  1  0  0  0  0
 18  4  2  0  0  0  0
 19  6  1  6  0  0  0
 19  3  1  0  0  0  0
 20 18  1  0  0  0  0
 20 11  2  0  0  0  0
 21 23  2  0  0  0  0
 22 24  1  0  0  0  0
 24 13  1  0  0  0  0
 25 14  1  6  0  0  0
 25  9  1  0  0  0  0
 26 21  1  0  0  0  0
 27  1  1  0  0  0  0
 29 28  1  0  0  0  0
 30 34  1  0  0  0  0
 31 32  1  0  0  0  0
 32 34  1  0  0  0  0
 32 29  1  1  0  0  0
 33 30  1  0  0  0  0
 33 31  1  0  0  0  0
M  END
>  <MODEL>
8

>  <REMARK>
 VINA RESULT:      -9.8      3.160      4.610
  Name = 
  3 active torsions:
  status: ('A' for Active; 'I' for Inactive)
    1  A    between atoms: C_17  and  O_28
    2  A    between atoms: O_28  and  C_29
    3  A    between atoms: C_29  and  C_32
                            x       y       z     vdW  Elec       q    Type
                         _______ _______ _______ _____ _____    ______ ____

>  <TORSDO>
F 3

$$$$
=
 OpenBabel11122412023D

 34 41  0  0  1  0  0  0  0  0999 V2000
  184.2170  178.5470  144.2500 C   0  0  0  0  0  0  0  0  0  0  0  0
  181.8080  179.0030  143.4640 C   0  0  0  0  0  2  0  0  0  0  0  0
  190.2350  176.6390  143.0240 C   0  0  0  0  0  0  0  0  0  0  0  0
  186.5730  178.1750  144.7870 C   0  0  0  0  0  0  0  0  0  0  0  0
  188.1530  177.8890  142.9600 C   0  0  0  0  0  0  0  0  0  0  0  0
  189.6580  177.1320  141.1610 C   0  0  0  0  0  2  0  0  0  0  0  0
  190.3980  176.0580  141.7130 O   0  0  0  0  0  0  0  0  0  0  0  0
  190.0980  177.0820  145.3530 C   0  0  0  0  0  3  0  0  0  0  0  0
  183.5040  178.6160  141.8680 C   0  0  0  0  0  0  0  0  0  0  0  0
  183.0930  179.0200  138.6700 C   0  0  0  0  0  2  0  0  0  0  0  0
  187.1300  178.0590  142.0760 N   0  0  0  0  0  0  0  0  0  0  0  0
  188.9630  177.8010  145.3990 C   0  0  0  0  0  3  0  0  0  0  0  0
  184.7710  178.4090  141.4390 C   0  0  0  0  0  0  0  0  0  0  0  0
  181.2310  179.2650  142.0670 C   0  0  0  0  0  2  0  0  0  0  0  0
  187.8990  177.9410  144.3580 C   0  0  0  0  0  0  0  0  0  0  0  0
  190.5260  176.3000  144.2330 N   0  0  0  0  0  0  0  0  0  0  0  0
  182.4850  179.7410  139.8800 C   0  0  2  0  0  3  0  0  0  0  0  0
  185.5420  178.3210  143.8350 C   0  0  0  0  0  0  0  0  0  0  0  0
  189.5530  177.8060  142.4240 C   0  0  2  0  0  3  0  0  0  0  0  0
  185.8430  178.2530  142.4620 C   0  0  0  0  0  0  0  0  0  0  0  0
  184.9290  178.4830  146.5610 C   0  0  0  0  0  3  0  0  0  0  0  0
  184.1210  177.9450  139.0280 C   0  0  0  0  0  2  0  0  0  0  0  0
  186.2460  178.2570  146.1520 C   0  0  0  0  0  3  0  0  0  0  0  0
  185.1760  178.4830  139.9860 C   0  0  0  0  0  2  0  0  0  0  0  0
  182.2690  178.7690  141.0460 C   0  0  1  0  0  3  0  0  0  0  0  0
  183.9140  178.6280  145.6130 C   0  0  0  0  0  3  0  0  0  0  0  0
  183.2060  178.6950  143.2470 N   0  0  0  0  0  0  0  0  0  0  0  0
  181.2810  180.3360  139.4910 O   0  0  0  0  0  0  0  0  0  0  0  0
  181.5980  181.0660  138.3430 C   0  0  0  0  0  2  0  0  0  0  0  0
  179.5130  180.9650  135.4580 O   0  0  0  0  0  0  0  0  0  0  0  0
  179.2880  180.3920  137.7400 C   0  0  0  0  0  2  0  0  0  0  0  0
  180.3260  181.4680  137.6190 C   0  0  2  0  0  3  0  0  0  0  0  0
  179.0460  179.9570  136.3140 C   0  0  0  0  0  2  0  0  0  0  0  0
  180.5940  181.5480  136.1350 C   0  0  0  0  0  2  0  0  0  0  0  0
  1 26  1  0  0  0  0
  3 16  2  0  0  0  0
  4 23  2  0  0  0  0
  5 15  2  0  0  0  0
  6  7  1  0  0  0  0
  7  3  1  0  0  0  0
  8 12  2  0  0  0  0
  9 27  1  0  0  0  0
 10 22  1  0  0  0  0
 10 17  1  0  0  0  0
 11 20  2  0  0  0  0
 11  5  1  0  0  0  0
 13  9  2  0  0  0  0
 13 20  1  0  0  0  0
 14  2  1  0  0  0  0
 15  4  1  0  0  0  0
 15 12  1  0  0  0  0
 16  8  1  0  0  0  0
 17 28  1  6  0  0  0
 17 25  1  0  0  0  0
 18  1  2  0  0  0  0
 18  4  1  0  0  0  0
 19  6  1  6  0  0  0
 19  5  1  0  0  0  0
 19  3  1  0  0  0  0
 20 18  1  0  0  0  0
 22 24  1  0  0  0  0
 23 21  1  0  0  0  0
 24 13  1  0  0  0  0
 25  9  1  0  0  0  0
 25 14  1  1  0  0  0
 26 21  2  0  0  0  0
 27  2  1  0  0  0  0
 27  1  1  0  0  0  0
 29 28  1  0  0  0  0
 30 34  1  0  0  0  0
 30 33  1  0  0  0  0
 32 31  1  0  0  0  0
 32 29  1  1  0  0  0
 33 31  1  0  0  0  0
 34 32  1  0  0  0  0
M  END
>  <MODEL>
9

>  <REMARK>
 VINA RESULT:      -9.7      2.288      4.433
  Name = 
  3 active torsions:
  status: ('A' for Active; 'I' for Inactive)
    1  A    between atoms: C_17  and  O_28
    2  A    between atoms: O_28  and  C_29
    3  A    between atoms: C_29  and  C_32
                            x       y       z     vdW  Elec       q    Type
                         _______ _______ _______ _____ _____    ______ ____

>  <TORSDO>
F 3

$$$$
