=
 OpenBabel11122411573D

 28 32  0  0  1  0  0  0  0  0999 V2000
  189.4420  178.0170  138.1470 C   0  0  0  0  0  0  0  0  0  0  0  0
  192.6400  175.9670  134.5940 C   0  0  0  0  0  1  0  0  0  0  0  0
  186.8030  174.4000  137.2610 O   0  0  0  0  0  0  0  0  0  0  0  0
  190.0280  176.6760  140.5030 C   0  0  0  0  0  3  0  0  0  0  0  0
  188.9990  173.4780  136.8860 C   0  0  2  0  0  3  0  0  0  0  0  0
  189.1270  178.6360  136.9380 O   0  0  0  0  0  0  0  0  0  0  0  0
  194.0670  176.7880  136.4200 C   0  0  0  0  0  1  0  0  0  0  0  0
  193.1700  175.6440  135.9890 C   0  0  0  0  0  0  0  0  0  0  0  0
  193.1350  173.1730  135.6790 C   0  0  1  0  0  3  0  0  0  0  0  0
  192.0540  175.4710  137.0580 C   0  0  2  0  0  3  0  0  0  0  0  0
  186.4790  177.2490  137.6200 O   0  0  0  0  0  1  0  0  0  0  0  0
  189.8670  175.5980  135.9720 C   0  0  1  0  0  3  0  0  0  0  0  0
  192.3110  172.9540  136.8620 N   0  0  0  0  0  2  0  0  0  0  0  0
  194.0250  174.3860  135.8990 C   0  0  0  0  0  2  0  0  0  0  0  0
  186.9220  177.7440  136.3940 C   0  0  2  0  0  3  0  0  0  0  0  0
  190.3030  176.9130  138.1490 C   0  0  0  0  0  0  0  0  0  0  0  0
  187.9900  174.5580  136.8680 C   0  0  0  0  0  0  0  0  0  0  0  0
  194.0000  171.9540  135.4370 C   0  0  0  0  0  1  0  0  0  0  0  0
  187.5920  176.6520  135.5470 C   0  0  0  0  0  2  0  0  0  0  0  0
  190.5630  176.2670  139.3220 N   0  0  0  0  0  0  0  0  0  0  0  0
  188.8760  178.4480  139.3530 C   0  0  0  0  0  3  0  0  0  0  0  0
  189.1740  177.7790  140.5390 C   0  0  0  0  0  3  0  0  0  0  0  0
  187.7940  178.9870  136.5900 C   0  0  0  0  0  2  0  0  0  0  0  0
  190.1990  174.1090  136.1800 C   0  0  1  0  0  3  0  0  0  0  0  0
  188.4670  175.7810  136.3330 N   0  0  0  0  0  0  0  0  0  0  0  0
  191.4050  174.0830  137.1010 C   0  0  2  0  0  3  0  0  0  0  0  0
  188.5440  172.3920  136.1380 O   0  0  0  0  0  1  0  0  0  0  0  0
  190.8660  176.4090  136.8370 C   0  0  1  0  0  3  0  0  0  0  0  0
  1 16  2  0  0  0  0
  1 21  1  0  0  0  0
  2  8  1  0  0  0  0
  4 22  1  0  0  0  0
  5 27  1  6  0  0  0
  6  1  1  0  0  0  0
  8  7  1  0  0  0  0
  9 18  1  1  0  0  0
  9 14  1  0  0  0  0
  9 13  1  0  0  0  0
 10  8  1  6  0  0  0
 10 26  1  0  0  0  0
 12 24  1  0  0  0  0
 12 25  1  1  0  0  0
 12 28  1  0  0  0  0
 13 26  1  0  0  0  0
 14  8  1  0  0  0  0
 15 23  1  0  0  0  0
 15 11  1  1  0  0  0
 16 20  1  0  0  0  0
 17  5  1  0  0  0  0
 17  3  2  0  0  0  0
 19 25  1  0  0  0  0
 19 15  1  0  0  0  0
 20  4  2  0  0  0  0
 21 22  2  0  0  0  0
 23  6  1  0  0  0  0
 24  5  1  0  0  0  0
 24 26  1  0  0  0  0
 25 17  1  0  0  0  0
 28 10  1  0  0  0  0
 28 16  1  0  0  0  0
M  END
>  <MODEL>
1

>  <REMARK>
 VINA RESULT:      -6.1      0.000      0.000
  Name = 
  0 active torsions:
  status: ('A' for Active; 'I' for Inactive)
                            x       y       z     vdW  Elec       q    Type
                         _______ _______ _______ _____ _____    ______ ____

>  <TORSDO>
F 0

$$$$
=
 OpenBabel11122411573D

 28 32  0  0  1  0  0  0  0  0999 V2000
  180.8250  177.6260  137.8430 C   0  0  0  0  0  0  0  0  0  0  0  0
  184.1240  173.6440  137.2810 C   0  0  0  0  0  1  0  0  0  0  0  0
  184.4840  179.9150  139.3250 O   0  0  0  0  0  0  0  0  0  0  0  0
  181.1340  179.1480  135.5460 C   0  0  0  0  0  3  0  0  0  0  0  0
  185.4910  178.4000  137.7430 C   0  0  2  0  0  3  0  0  0  0  0  0
  180.7290  176.8740  139.0140 O   0  0  0  0  0  0  0  0  0  0  0  0
  182.6590  173.6150  135.3060 C   0  0  0  0  0  1  0  0  0  0  0  0
  183.8750  174.2840  135.9160 C   0  0  0  0  0  0  0  0  0  0  0  0
  186.2690  174.8090  135.4720 C   0  0  1  0  0  3  0  0  0  0  0  0
  183.6080  175.8140  135.9830 C   0  0  2  0  0  3  0  0  0  0  0  0
  181.7220  179.5650  140.0980 O   0  0  0  0  0  1  0  0  0  0  0  0
  183.9060  176.5890  138.2820 C   0  0  1  0  0  3  0  0  0  0  0  0
  186.0010  176.2240  135.2430 N   0  0  0  0  0  2  0  0  0  0  0  0
  185.0720  173.9860  135.0210 C   0  0  0  0  0  2  0  0  0  0  0  0
  181.7510  178.3080  140.7020 C   0  0  2  0  0  3  0  0  0  0  0  0
  181.8430  177.3410  136.9260 C   0  0  0  0  0  0  0  0  0  0  0  0
  184.5000  178.7850  138.7700 C   0  0  0  0  0  0  0  0  0  0  0  0
  187.4890  174.3950  134.6780 C   0  0  0  0  0  1  0  0  0  0  0  0
  183.0920  177.5960  140.4710 C   0  0  0  0  0  2  0  0  0  0  0  0
  181.9780  178.1150  135.8110 N   0  0  0  0  0  0  0  0  0  0  0  0
  179.9510  178.6890  137.5910 C   0  0  0  0  0  3  0  0  0  0  0  0
  180.1010  179.4530  136.4330 C   0  0  0  0  0  3  0  0  0  0  0  0
  180.5360  177.4740  140.2880 C   0  0  0  0  0  2  0  0  0  0  0  0
  185.1950  176.9190  137.5070 C   0  0  1  0  0  3  0  0  0  0  0  0
  183.5890  177.7510  139.1030 N   0  0  0  0  0  0  0  0  0  0  0  0
  184.8630  176.6910  136.0440 C   0  0  2  0  0  3  0  0  0  0  0  0
  186.7810  178.5360  138.2560 O   0  0  0  0  0  1  0  0  0  0  0  0
  182.8260  176.2300  137.2300 C   0  0  1  0  0  3  0  0  0  0  0  0
  1  6  1  0  0  0  0
  4 20  2  0  0  0  0
  4 22  1  0  0  0  0
  5 27  1  1  0  0  0
  5 17  1  0  0  0  0
  6 23  1  0  0  0  0
  7  8  1  0  0  0  0
  8  2  1  0  0  0  0
  9 18  1  6  0  0  0
 10  8  1  1  0  0  0
 10 26  1  0  0  0  0
 10 28  1  0  0  0  0
 12 25  1  6  0  0  0
 13  9  1  0  0  0  0
 13 26  1  0  0  0  0
 14  9  1  0  0  0  0
 14  8  1  0  0  0  0
 15 11  1  6  0  0  0
 16 28  1  0  0  0  0
 16  1  2  0  0  0  0
 17 25  1  0  0  0  0
 17  3  2  0  0  0  0
 19 15  1  0  0  0  0
 20 16  1  0  0  0  0
 21  1  1  0  0  0  0
 22 21  2  0  0  0  0
 23 15  1  0  0  0  0
 24  5  1  0  0  0  0
 24 12  1  0  0  0  0
 25 19  1  0  0  0  0
 26 24  1  0  0  0  0
 28 12  1  0  0  0  0
M  END
>  <MODEL>
2

>  <REMARK>
 VINA RESULT:      -5.1      4.910      8.035
  Name = 
  0 active torsions:
  status: ('A' for Active; 'I' for Inactive)
                            x       y       z     vdW  Elec       q    Type
                         _______ _______ _______ _____ _____    ______ ____

>  <TORSDO>
F 0

$$$$
=
 OpenBabel11122411573D

 28 32  0  0  1  0  0  0  0  0999 V2000
  180.5410  179.1880  138.3340 C   0  0  0  0  0  0  0  0  0  0  0  0
  184.4820  175.8850  137.5440 C   0  0  0  0  0  1  0  0  0  0  0  0
  181.8360  179.0430  142.7080 O   0  0  0  0  0  0  0  0  0  0  0  0
  181.7040  181.7050  138.3500 C   0  0  0  0  0  3  0  0  0  0  0  0
  183.9470  178.7280  141.5860 C   0  0  2  0  0  3  0  0  0  0  0  0
  179.9900  177.9070  138.3780 O   0  0  0  0  0  0  0  0  0  0  0  0
  184.5280  177.4800  135.6740 C   0  0  0  0  0  1  0  0  0  0  0  0
  184.9150  177.2890  137.1270 C   0  0  0  0  0  0  0  0  0  0  0  0
  186.8560  177.4000  138.6830 C   0  0  1  0  0  3  0  0  0  0  0  0
  184.2510  178.4220  137.9600 C   0  0  2  0  0  3  0  0  0  0  0  0
  179.3730  178.9340  141.2010 O   0  0  0  0  0  1  0  0  0  0  0  0
  182.9200  177.4320  139.7560 C   0  0  1  0  0  3  0  0  0  0  0  0
  186.3970  178.6400  139.2990 N   0  0  0  0  0  2  0  0  0  0  0  0
  186.4330  177.3720  137.2230 C   0  0  0  0  0  2  0  0  0  0  0  0
  179.3870  177.6220  140.7240 C   0  0  2  0  0  3  0  0  0  0  0  0
  181.9330  179.3350  138.3190 C   0  0  0  0  0  0  0  0  0  0  0  0
  182.4840  178.5760  141.7340 C   0  0  0  0  0  0  0  0  0  0  0  0
  188.3660  177.3270  138.7690 C   0  0  0  0  0  1  0  0  0  0  0  0
  180.7410  176.9410  140.9720 C   0  0  0  0  0  2  0  0  0  0  0  0
  182.4760  180.5860  138.3390 N   0  0  0  0  0  0  0  0  0  0  0  0
  179.7300  180.3280  138.3520 C   0  0  0  0  0  3  0  0  0  0  0  0
  180.3120  181.5950  138.3540 C   0  0  0  0  0  3  0  0  0  0  0  0
  178.9320  177.5670  139.2640 C   0  0  0  0  0  2  0  0  0  0  0  0
  184.2660  177.8720  140.3610 C   0  0  1  0  0  3  0  0  0  0  0  0
  181.8780  177.8210  140.6980 N   0  0  0  0  0  0  0  0  0  0  0  0
  184.9320  178.7280  139.2990 C   0  0  2  0  0  3  0  0  0  0  0  0
  184.5930  178.1950  142.7020 O   0  0  0  0  0  1  0  0  0  0  0  0
  182.8110  178.1020  138.3630 C   0  0  1  0  0  3  0  0  0  0  0  0
  1 21  1  0  0  0  0
  1  6  1  0  0  0  0
  4 22  1  0  0  0  0
  5 17  1  0  0  0  0
  5 27  1  1  0  0  0
  6 23  1  0  0  0  0
  7  8  1  0  0  0  0
  8 14  1  0  0  0  0
  8  2  1  0  0  0  0
  9 18  1  6  0  0  0
  9 13  1  0  0  0  0
 10  8  1  1  0  0  0
 10 28  1  0  0  0  0
 10 26  1  0  0  0  0
 12 24  1  0  0  0  0
 12 25  1  1  0  0  0
 13 26  1  0  0  0  0
 14  9  1  0  0  0  0
 15 19  1  0  0  0  0
 15 11  1  6  0  0  0
 16  1  2  0  0  0  0
 16 20  1  0  0  0  0
 16 28  1  0  0  0  0
 17  3  2  0  0  0  0
 20  4  2  0  0  0  0
 21 22  2  0  0  0  0
 23 15  1  0  0  0  0
 24  5  1  0  0  0  0
 25 19  1  0  0  0  0
 25 17  1  0  0  0  0
 26 24  1  0  0  0  0
 28 12  1  0  0  0  0
M  END
>  <MODEL>
3

>  <REMARK>
 VINA RESULT:      -4.9      5.970      8.782
  Name = 
  0 active torsions:
  status: ('A' for Active; 'I' for Inactive)
                            x       y       z     vdW  Elec       q    Type
                         _______ _______ _______ _____ _____    ______ ____

>  <TORSDO>
F 0

$$$$
=
 OpenBabel11122411573D

 28 32  0  0  1  0  0  0  0  0999 V2000
  179.4120  176.3940  137.3200 C   0  0  0  0  0  0  0  0  0  0  0  0
  180.8220  180.0220  140.7700 C   0  0  0  0  0  1  0  0  0  0  0  0
  183.5950  176.9940  135.5950 O   0  0  0  0  0  0  0  0  0  0  0  0
  180.4500  174.0190  138.3070 C   0  0  0  0  0  3  0  0  0  0  0  0
  183.9840  177.4440  137.9310 C   0  0  2  0  0  3  0  0  0  0  0  0
  178.9500  177.6090  136.8160 O   0  0  0  0  0  0  0  0  0  0  0  0
  179.5910  178.3070  142.0310 C   0  0  0  0  0  1  0  0  0  0  0  0
  180.9360  178.6440  141.4190 C   0  0  0  0  0  0  0  0  0  0  0  0
  183.3570  178.8510  141.9660 C   0  0  1  0  0  3  0  0  0  0  0  0
  181.3140  177.5130  140.4210 C   0  0  2  0  0  3  0  0  0  0  0  0
  180.8910  176.7340  134.6090 O   0  0  0  0  0  1  0  0  0  0  0  0
  181.7700  178.4870  138.2260 C   0  0  1  0  0  3  0  0  0  0  0  0
  183.7050  177.6190  141.2680 N   0  0  0  0  0  2  0  0  0  0  0  0
  181.9570  178.7280  142.5470 C   0  0  0  0  0  2  0  0  0  0  0  0
  180.3680  178.0010  134.8700 C   0  0  2  0  0  3  0  0  0  0  0  0
  180.2770  176.3920  138.4200 C   0  0  0  0  0  0  0  0  0  0  0  0
  183.1790  177.4530  136.6920 C   0  0  0  0  0  0  0  0  0  0  0  0
  184.3460  179.0870  143.0880 C   0  0  0  0  0  1  0  0  0  0  0  0
  181.3120  178.8360  135.7480 C   0  0  0  0  0  2  0  0  0  0  0  0
  180.7800  175.2080  138.8760 N   0  0  0  0  0  0  0  0  0  0  0  0
  179.0660  175.1790  136.7160 C   0  0  0  0  0  3  0  0  0  0  0  0
  179.5810  173.9830  137.2140 C   0  0  0  0  0  3  0  0  0  0  0  0
  178.9450  177.9020  135.4250 C   0  0  0  0  0  2  0  0  0  0  0  0
  183.1240  178.2360  138.9150 C   0  0  1  0  0  3  0  0  0  0  0  0
  181.9070  178.0620  136.8380 N   0  0  0  0  0  0  0  0  0  0  0  0
  182.8130  177.3790  140.1270 C   0  0  2  0  0  3  0  0  0  0  0  0
  185.1850  178.1220  137.7200 O   0  0  0  0  0  1  0  0  0  0  0  0
  180.7000  177.7090  139.0340 C   0  0  1  0  0  3  0  0  0  0  0  0
  1 16  1  0  0  0  0
  2  8  1  0  0  0  0
  3 17  2  0  0  0  0
  4 20  1  0  0  0  0
  5 27  1  6  0  0  0
  5 24  1  0  0  0  0
  6  1  1  0  0  0  0
  8  7  1  0  0  0  0
  8 14  1  0  0  0  0
  9 14  1  0  0  0  0
  9 18  1  1  0  0  0
 10  8  1  1  0  0  0
 12 25  1  6  0  0  0
 12 24  1  0  0  0  0
 12 28  1  0  0  0  0
 13  9  1  0  0  0  0
 15 11  1  1  0  0  0
 15 23  1  0  0  0  0
 15 19  1  0  0  0  0
 16 20  2  0  0  0  0
 16 28  1  0  0  0  0
 17 25  1  0  0  0  0
 17  5  1  0  0  0  0
 19 25  1  0  0  0  0
 21 22  1  0  0  0  0
 21  1  2  0  0  0  0
 22  4  2  0  0  0  0
 23  6  1  0  0  0  0
 24 26  1  0  0  0  0
 26 10  1  0  0  0  0
 26 13  1  0  0  0  0
 28 10  1  0  0  0  0
M  END
>  <MODEL>
4

>  <REMARK>
 VINA RESULT:      -4.7      7.344     10.262
  Name = 
  0 active torsions:
  status: ('A' for Active; 'I' for Inactive)
                            x       y       z     vdW  Elec       q    Type
                         _______ _______ _______ _____ _____    ______ ____

>  <TORSDO>
F 0

$$$$
=
 OpenBabel11122411573D

 28 32  0  0  1  0  0  0  0  0999 V2000
  186.0180  174.9700  135.8000 C   0  0  0  0  0  0  0  0  0  0  0  0
  182.0130  178.2090  135.0750 C   0  0  0  0  0  1  0  0  0  0  0  0
  187.3090  177.9430  139.0140 O   0  0  0  0  0  0  0  0  0  0  0  0
  185.2780  173.3790  137.9460 C   0  0  0  0  0  3  0  0  0  0  0  0
  184.9100  178.1610  139.1130 C   0  0  2  0  0  3  0  0  0  0  0  0
  186.3890  175.8210  134.7590 O   0  0  0  0  0  0  0  0  0  0  0  0
  181.0940  175.9320  134.9510 C   0  0  0  0  0  1  0  0  0  0  0  0
  181.5470  177.0160  135.9080 C   0  0  0  0  0  0  0  0  0  0  0  0
  180.7860  178.3790  137.8490 C   0  0  1  0  0  3  0  0  0  0  0  0
  182.6540  176.4250  136.8270 C   0  0  2  0  0  3  0  0  0  0  0  0
  188.5320  176.4550  136.8590 O   0  0  0  0  0  1  0  0  0  0  0  0
  184.6560  177.8210  136.6840 C   0  0  1  0  0  3  0  0  0  0  0  0
  181.6130  177.6410  138.7970 N   0  0  0  0  0  2  0  0  0  0  0  0
  180.3400  177.4480  136.7320 C   0  0  0  0  0  2  0  0  0  0  0  0
  188.1460  177.1990  135.7430 C   0  0  2  0  0  3  0  0  0  0  0  0
  184.8620  175.2530  136.5370 C   0  0  0  0  0  0  0  0  0  0  0  0
  186.1980  177.9370  138.4220 C   0  0  0  0  0  0  0  0  0  0  0  0
  179.5680  178.9230  138.5650 C   0  0  0  0  0  1  0  0  0  0  0  0
  187.0930  178.2570  136.1010 C   0  0  0  0  0  2  0  0  0  0  0  0
  184.5300  174.4580  137.5950 N   0  0  0  0  0  0  0  0  0  0  0  0
  186.8040  173.8670  136.1510 C   0  0  0  0  0  3  0  0  0  0  0  0
  186.4310  173.0610  137.2260 C   0  0  0  0  0  3  0  0  0  0  0  0
  187.7250  176.2800  134.5940 C   0  0  0  0  0  2  0  0  0  0  0  0
  183.9010  178.2170  137.9670 C   0  0  1  0  0  3  0  0  0  0  0  0
  186.0720  177.7540  137.0210 N   0  0  0  0  0  0  0  0  0  0  0  0
  182.8420  177.1480  138.1650 C   0  0  2  0  0  3  0  0  0  0  0  0
  184.9330  179.3920  139.7680 O   0  0  0  0  0  1  0  0  0  0  0  0
  184.0460  176.4810  136.1970 C   0  0  1  0  0  3  0  0  0  0  0  0
  1 21  2  0  0  0  0
  1 16  1  0  0  0  0
  2  8  1  0  0  0  0
  5 27  1  6  0  0  0
  6  1  1  0  0  0  0
  7  8  1  0  0  0  0
  8 14  1  0  0  0  0
  9 18  1  1  0  0  0
  9 13  1  0  0  0  0
 10  8  1  6  0  0  0
 10 26  1  0  0  0  0
 12 25  1  1  0  0  0
 12 24  1  0  0  0  0
 14  9  1  0  0  0  0
 15 19  1  0  0  0  0
 15 11  1  1  0  0  0
 16 20  2  0  0  0  0
 17  3  2  0  0  0  0
 17  5  1  0  0  0  0
 19 25  1  0  0  0  0
 20  4  1  0  0  0  0
 21 22  1  0  0  0  0
 22  4  2  0  0  0  0
 23  6  1  0  0  0  0
 23 15  1  0  0  0  0
 24 26  1  0  0  0  0
 24  5  1  0  0  0  0
 25 17  1  0  0  0  0
 26 13  1  0  0  0  0
 28 16  1  0  0  0  0
 28 12  1  0  0  0  0
 28 10  1  0  0  0  0
M  END
>  <MODEL>
5

>  <REMARK>
 VINA RESULT:      -4.5      4.213      8.349
  Name = 
  0 active torsions:
  status: ('A' for Active; 'I' for Inactive)
                            x       y       z     vdW  Elec       q    Type
                         _______ _______ _______ _____ _____    ______ ____

>  <TORSDO>
F 0

$$$$
=
 OpenBabel11122411573D

 28 32  0  0  1  0  0  0  0  0999 V2000
  186.2540  175.3720  136.6570 C   0  0  0  0  0  0  0  0  0  0  0  0
  183.0540  177.2240  140.3160 C   0  0  0  0  0  1  0  0  0  0  0  0
  182.4290  173.9540  134.6100 O   0  0  0  0  0  0  0  0  0  0  0  0
  186.2790  177.3110  134.6740 C   0  0  0  0  0  3  0  0  0  0  0  0
  181.6520  175.9470  135.7220 C   0  0  2  0  0  3  0  0  0  0  0  0
  186.1800  174.3880  137.6420 O   0  0  0  0  0  0  0  0  0  0  0  0
  184.7840  178.9370  139.9760 C   0  0  0  0  0  1  0  0  0  0  0  0
  183.4960  178.3720  139.4110 C   0  0  0  0  0  0  0  0  0  0  0  0
  181.1920  179.0190  138.7230 C   0  0  1  0  0  3  0  0  0  0  0  0
  183.7570  177.9430  137.9390 C   0  0  2  0  0  3  0  0  0  0  0  0
  185.0530  172.9010  135.2090 O   0  0  0  0  0  1  0  0  0  0  0  0
  183.1380  175.5950  137.6580 C   0  0  1  0  0  3  0  0  0  0  0  0
  181.4940  178.9010  137.3010 N   0  0  0  0  0  2  0  0  0  0  0  0
  182.4380  179.4660  139.4720 C   0  0  0  0  0  2  0  0  0  0  0  0
  184.9340  172.5890  136.5640 C   0  0  2  0  0  3  0  0  0  0  0  0
  185.3750  176.4610  136.7070 C   0  0  0  0  0  0  0  0  0  0  0  0
  182.4890  174.7350  135.5970 C   0  0  0  0  0  0  0  0  0  0  0  0
  180.0950  180.0440  138.9180 C   0  0  0  0  0  1  0  0  0  0  0  0
  183.6370  173.1500  137.1650 C   0  0  0  0  0  2  0  0  0  0  0  0
  185.4030  177.3920  135.7100 N   0  0  0  0  0  0  0  0  0  0  0  0
  187.1590  175.2690  135.5940 C   0  0  0  0  0  3  0  0  0  0  0  0
  187.1770  176.2450  134.5990 C   0  0  0  0  0  3  0  0  0  0  0  0
  186.1920  173.0010  137.3320 C   0  0  0  0  0  2  0  0  0  0  0  0
  181.9730  176.4520  137.1280 C   0  0  1  0  0  3  0  0  0  0  0  0
  183.3400  174.5080  136.7080 N   0  0  0  0  0  0  0  0  0  0  0  0
  182.5080  177.8690  137.0530 C   0  0  2  0  0  3  0  0  0  0  0  0
  180.3030  175.6000  135.6540 O   0  0  0  0  0  1  0  0  0  0  0  0
  184.3550  176.5400  137.8230 C   0  0  1  0  0  3  0  0  0  0  0  0
  1 16  1  0  0  0  0
  1  6  1  0  0  0  0
  3 17  2  0  0  0  0
  4 20  1  0  0  0  0
  5 27  1  1  0  0  0
  5 24  1  0  0  0  0
  8 14  1  0  0  0  0
  8  7  1  0  0  0  0
  8  2  1  0  0  0  0
  9 18  1  6  0  0  0
  9 14  1  0  0  0  0
 10  8  1  1  0  0  0
 12 25  1  6  0  0  0
 12 28  1  0  0  0  0
 13  9  1  0  0  0  0
 15 11  1  6  0  0  0
 15 19  1  0  0  0  0
 15 23  1  0  0  0  0
 16 28  1  0  0  0  0
 17  5  1  0  0  0  0
 17 25  1  0  0  0  0
 20 16  2  0  0  0  0
 21  1  2  0  0  0  0
 22  4  2  0  0  0  0
 22 21  1  0  0  0  0
 23  6  1  0  0  0  0
 24 12  1  0  0  0  0
 25 19  1  0  0  0  0
 26 24  1  0  0  0  0
 26 13  1  0  0  0  0
 26 10  1  0  0  0  0
 28 10  1  0  0  0  0
M  END
>  <MODEL>
6

>  <REMARK>
 VINA RESULT:      -4.5      4.811      8.544
  Name = 
  0 active torsions:
  status: ('A' for Active; 'I' for Inactive)
                            x       y       z     vdW  Elec       q    Type
                         _______ _______ _______ _____ _____    ______ ____

>  <TORSDO>
F 0

$$$$
=
 OpenBabel11122411573D

 28 32  0  0  1  0  0  0  0  0999 V2000
  181.4720  176.4280  137.1610 C   0  0  0  0  0  0  0  0  0  0  0  0
  185.8580  175.3190  134.5940 C   0  0  0  0  0  1  0  0  0  0  0  0
  180.8060  171.9120  137.1450 O   0  0  0  0  0  0  0  0  0  0  0  0
  182.0920  176.0580  139.8390 C   0  0  0  0  0  3  0  0  0  0  0  0
  183.2140  172.0290  137.2170 C   0  0  2  0  0  3  0  0  0  0  0  0
  181.1710  176.5510  135.8050 O   0  0  0  0  0  0  0  0  0  0  0  0
  186.4290  177.0790  136.2130 C   0  0  0  0  0  1  0  0  0  0  0  0
  186.1920  175.5900  136.0590 C   0  0  0  0  0  0  0  0  0  0  0  0
  187.2490  173.3720  136.4650 C   0  0  1  0  0  3  0  0  0  0  0  0
  185.0640  175.1720  137.0440 C   0  0  2  0  0  3  0  0  0  0  0  0
  179.2630  174.3050  136.6520 O   0  0  0  0  0  1  0  0  0  0  0  0
  183.2810  174.0490  135.8050 C   0  0  1  0  0  3  0  0  0  0  0  0
  186.3780  173.0710  137.5950 N   0  0  0  0  0  2  0  0  0  0  0  0
  187.4920  174.8710  136.3970 C   0  0  0  0  0  2  0  0  0  0  0  0
  179.6900  174.6620  135.3720 C   0  0  2  0  0  3  0  0  0  0  0  0
  182.6960  175.8650  137.5430 C   0  0  0  0  0  0  0  0  0  0  0  0
  181.8710  172.4990  136.8160 C   0  0  0  0  0  0  0  0  0  0  0  0
  188.5710  172.6570  136.6480 C   0  0  0  0  0  1  0  0  0  0  0  0
  180.9040  173.8340  134.9260 C   0  0  0  0  0  2  0  0  0  0  0  0
  182.9680  175.6860  138.8680 N   0  0  0  0  0  0  0  0  0  0  0  0
  180.5560  176.8110  138.1460 C   0  0  0  0  0  3  0  0  0  0  0  0
  180.8670  176.6320  139.4940 C   0  0  0  0  0  3  0  0  0  0  0  0
  179.9090  176.1730  135.2710 C   0  0  0  0  0  2  0  0  0  0  0  0
  184.1550  172.9600  136.4550 C   0  0  1  0  0  3  0  0  0  0  0  0
  181.8900  173.6530  135.9910 N   0  0  0  0  0  0  0  0  0  0  0  0
  185.0570  173.6890  137.4330 C   0  0  2  0  0  3  0  0  0  0  0  0
  183.4060  170.7190  136.7780 O   0  0  0  0  0  1  0  0  0  0  0  0
  183.6610  175.3940  136.4770 C   0  0  1  0  0  3  0  0  0  0  0  0
  1 16  2  0  0  0  0
  1 21  1  0  0  0  0
  2  8  1  0  0  0  0
  5 27  1  6  0  0  0
  6  1  1  0  0  0  0
  8  7  1  0  0  0  0
  8 14  1  0  0  0  0
  9 18  1  1  0  0  0
  9 13  1  0  0  0  0
 10  8  1  6  0  0  0
 10 26  1  0  0  0  0
 12 25  1  1  0  0  0
 12 24  1  0  0  0  0
 12 28  1  0  0  0  0
 14  9  1  0  0  0  0
 15 11  1  1  0  0  0
 16 20  1  0  0  0  0
 17  3  2  0  0  0  0
 17  5  1  0  0  0  0
 19 15  1  0  0  0  0
 19 25  1  0  0  0  0
 20  4  2  0  0  0  0
 21 22  2  0  0  0  0
 22  4  1  0  0  0  0
 23 15  1  0  0  0  0
 23  6  1  0  0  0  0
 24  5  1  0  0  0  0
 24 26  1  0  0  0  0
 25 17  1  0  0  0  0
 26 13  1  0  0  0  0
 28 10  1  0  0  0  0
 28 16  1  0  0  0  0
M  END
>  <MODEL>
7

>  <REMARK>
 VINA RESULT:      -4.3      5.238      7.157
  Name = 
  0 active torsions:
  status: ('A' for Active; 'I' for Inactive)
                            x       y       z     vdW  Elec       q    Type
                         _______ _______ _______ _____ _____    ______ ____

>  <TORSDO>
F 0

$$$$
=
 OpenBabel11122411573D

 28 32  0  0  1  0  0  0  0  0999 V2000
  180.6040  176.8800  136.1080 C   0  0  0  0  0  0  0  0  0  0  0  0
  185.5100  175.2520  136.6930 C   0  0  0  0  0  1  0  0  0  0  0  0
  180.7740  177.6980  140.5950 O   0  0  0  0  0  0  0  0  0  0  0  0
  180.7840  179.6370  135.8690 C   0  0  0  0  0  3  0  0  0  0  0  0
  183.0670  178.0890  139.9620 C   0  0  2  0  0  3  0  0  0  0  0  0
  180.5370  175.4980  136.2880 O   0  0  0  0  0  0  0  0  0  0  0  0
  185.4510  176.5390  134.5990 C   0  0  0  0  0  1  0  0  0  0  0  0
  185.5180  176.6630  136.1080 C   0  0  0  0  0  0  0  0  0  0  0  0
  186.8650  177.6640  137.9490 C   0  0  1  0  0  3  0  0  0  0  0  0
  184.3230  177.5410  136.5780 C   0  0  2  0  0  3  0  0  0  0  0  0
  178.9410  176.5070  138.7050 O   0  0  0  0  0  1  0  0  0  0  0  0
  183.0250  176.3160  138.2490 C   0  0  1  0  0  3  0  0  0  0  0  0
  185.8710  178.6950  138.2260 N   0  0  0  0  0  2  0  0  0  0  0  0
  186.8430  177.3240  136.4670 C   0  0  0  0  0  2  0  0  0  0  0  0
  179.5220  175.2550  138.4930 C   0  0  2  0  0  3  0  0  0  0  0  0
  181.8190  177.5410  136.3240 C   0  0  0  0  0  0  0  0  0  0  0  0
  181.7580  177.4110  139.8630 C   0  0  0  0  0  0  0  0  0  0  0  0
  188.2380  178.1780  138.3250 C   0  0  0  0  0  1  0  0  0  0  0  0
  180.9260  175.1680  139.1100 C   0  0  0  0  0  2  0  0  0  0  0  0
  181.8740  178.8990  136.2100 N   0  0  0  0  0  0  0  0  0  0  0  0
  179.4700  177.6230  135.7620 C   0  0  0  0  0  3  0  0  0  0  0  0
  179.5590  179.0090  135.6350 C   0  0  0  0  0  3  0  0  0  0  0  0
  179.4810  174.8780  137.0100 C   0  0  0  0  0  2  0  0  0  0  0  0
  183.9480  177.2940  139.0000 C   0  0  1  0  0  3  0  0  0  0  0  0
  181.7190  176.3790  138.8920 N   0  0  0  0  0  0  0  0  0  0  0  0
  184.5120  178.2210  137.9390 C   0  0  2  0  0  3  0  0  0  0  0  0
  183.5680  177.9620  141.2580 O   0  0  0  0  0  1  0  0  0  0  0  0
  183.0300  176.7440  136.7590 C   0  0  1  0  0  3  0  0  0  0  0  0
  1  6  1  0  0  0  0
  1 16  1  0  0  0  0
  4 20  1  0  0  0  0
  5 27  1  1  0  0  0
  6 23  1  0  0  0  0
  7  8  1  0  0  0  0
  8 14  1  0  0  0  0
  8  2  1  0  0  0  0
  9 13  1  0  0  0  0
  9 18  1  6  0  0  0
 10  8  1  1  0  0  0
 10 28  1  0  0  0  0
 10 26  1  0  0  0  0
 12 25  1  1  0  0  0
 12 24  1  0  0  0  0
 14  9  1  0  0  0  0
 15 11  1  6  0  0  0
 15 19  1  0  0  0  0
 16 28  1  0  0  0  0
 17  5  1  0  0  0  0
 17  3  2  0  0  0  0
 20 16  2  0  0  0  0
 21  1  2  0  0  0  0
 22 21  1  0  0  0  0
 22  4  2  0  0  0  0
 23 15  1  0  0  0  0
 24  5  1  0  0  0  0
 25 19  1  0  0  0  0
 25 17  1  0  0  0  0
 26 13  1  0  0  0  0
 26 24  1  0  0  0  0
 28 12  1  0  0  0  0
M  END
>  <MODEL>
8

>  <REMARK>
 VINA RESULT:      -4.3      5.481      8.516
  Name = 
  0 active torsions:
  status: ('A' for Active; 'I' for Inactive)
                            x       y       z     vdW  Elec       q    Type
                         _______ _______ _______ _____ _____    ______ ____

>  <TORSDO>
F 0

$$$$
=
 OpenBabel11122411573D

 28 32  0  0  1  0  0  0  0  0999 V2000
  184.9790  175.9190  136.0510 C   0  0  0  0  0  0  0  0  0  0  0  0
  181.5470  179.6650  137.1660 C   0  0  0  0  0  1  0  0  0  0  0  0
  187.5530  177.8890  139.2650 O   0  0  0  0  0  0  0  0  0  0  0  0
  184.5560  173.9610  137.9680 C   0  0  0  0  0  3  0  0  0  0  0  0
  185.3370  178.3450  140.0970 C   0  0  2  0  0  3  0  0  0  0  0  0
  185.2100  176.9440  135.1340 O   0  0  0  0  0  0  0  0  0  0  0  0
  180.2470  177.5990  136.8740 C   0  0  0  0  0  1  0  0  0  0  0  0
  181.1130  178.3700  137.8500 C   0  0  0  0  0  0  0  0  0  0  0  0
  181.1280  179.3150  140.1540 C   0  0  1  0  0  3  0  0  0  0  0  0
  182.3000  177.4600  138.2730 C   0  0  2  0  0  3  0  0  0  0  0  0
  187.9000  176.8220  136.6020 O   0  0  0  0  0  1  0  0  0  0  0  0
  184.4070  178.6160  137.8300 C   0  0  1  0  0  3  0  0  0  0  0  0
  182.0310  178.2870  140.6580 N   0  0  0  0  0  2  0  0  0  0  0  0
  180.2550  178.7290  139.0560 C   0  0  0  0  0  2  0  0  0  0  0  0
  187.3730  177.8450  135.8130 C   0  0  2  0  0  3  0  0  0  0  0  0
  184.1200  176.1480  137.1330 C   0  0  0  0  0  0  0  0  0  0  0  0
  186.3420  178.1470  139.0320 C   0  0  0  0  0  0  0  0  0  0  0  0
  180.2500  179.8080  141.2840 C   0  0  0  0  0  1  0  0  0  0  0  0
  186.6480  178.9010  136.6600 C   0  0  0  0  0  2  0  0  0  0  0  0
  183.9410  175.1690  138.0660 N   0  0  0  0  0  0  0  0  0  0  0  0
  185.6250  174.6830  135.9380 C   0  0  0  0  0  3  0  0  0  0  0  0
  185.4100  173.6940  136.8970 C   0  0  0  0  0  3  0  0  0  0  0  0
  186.5160  177.2750  134.6800 C   0  0  0  0  0  2  0  0  0  0  0  0
  184.0910  178.7810  139.3280 C   0  0  1  0  0  3  0  0  0  0  0  0
  185.8290  178.3130  137.7210 N   0  0  0  0  0  0  0  0  0  0  0  0
  182.9510  177.8220  139.6130 C   0  0  2  0  0  3  0  0  0  0  0  0
  185.7410  179.3780  140.9440 O   0  0  0  0  0  1  0  0  0  0  0  0
  183.4700  177.5060  137.2900 C   0  0  1  0  0  3  0  0  0  0  0  0
  1 16  1  0  0  0  0
  2  8  1  0  0  0  0
  4 20  1  0  0  0  0
  5 27  1  1  0  0  0
  6  1  1  0  0  0  0
  7  8  1  0  0  0  0
  8 14  1  0  0  0  0
  9 13  1  0  0  0  0
  9 18  1  1  0  0  0
 10  8  1  6  0  0  0
 10 26  1  0  0  0  0
 12 25  1  1  0  0  0
 12 24  1  0  0  0  0
 14  9  1  0  0  0  0
 15 11  1  1  0  0  0
 15 19  1  0  0  0  0
 16 28  1  0  0  0  0
 16 20  2  0  0  0  0
 17  3  2  0  0  0  0
 17  5  1  0  0  0  0
 19 25  1  0  0  0  0
 21  1  2  0  0  0  0
 21 22  1  0  0  0  0
 22  4  2  0  0  0  0
 23  6  1  0  0  0  0
 23 15  1  0  0  0  0
 24 26  1  0  0  0  0
 24  5  1  0  0  0  0
 25 17  1  0  0  0  0
 26 13  1  0  0  0  0
 28 12  1  0  0  0  0
 28 10  1  0  0  0  0
M  END
>  <MODEL>
9

>  <REMARK>
 VINA RESULT:      -4.3      4.818      8.793
  Name = 
  0 active torsions:
  status: ('A' for Active; 'I' for Inactive)
                            x       y       z     vdW  Elec       q    Type
                         _______ _______ _______ _____ _____    ______ ____

>  <TORSDO>
F 0

$$$$
