=
 OpenBabel11122410413D

 32 38  0  0  1  0  0  0  0  0999 V2000
  187.6800  178.6060  136.8220 C   0  0  1  0  0  3  0  0  0  0  0  0
  187.3310  178.0970  142.0510 C   0  0  0  0  0  0  0  0  0  0  0  0
  182.6360  178.9690  143.0870 C   0  0  0  0  0  3  0  0  0  0  0  0
  182.9050  178.8430  144.4480 C   0  0  0  0  0  3  0  0  0  0  0  0
  188.9460  177.6730  143.9300 C   0  0  0  0  0  0  0  0  0  0  0  0
  189.1360  177.5620  145.3030 C   0  0  0  0  0  0  0  0  0  0  0  0
  188.0590  178.0880  139.6840 C   0  0  0  0  0  0  0  0  0  0  0  0
  185.6700  178.5210  140.1530 C   0  0  0  0  0  2  0  0  0  0  0  0
  188.7260  177.5260  147.4770 C   0  0  0  0  0  0  0  0  0  0  0  0
  186.5290  178.4700  137.7360 C   0  0  2  0  0  3  0  0  0  0  0  0
  183.6650  178.8150  142.1580 C   0  0  0  0  0  3  0  0  0  0  0  0
  186.0090  178.3810  141.6270 C   0  0  0  0  0  0  0  0  0  0  0  0
  184.9800  178.5330  142.5740 C   0  0  0  0  0  0  0  0  0  0  0  0
  186.5610  178.1220  144.3930 C   0  0  0  0  0  0  0  0  0  0  0  0
  189.9850  177.2850  147.2970 N   0  0  0  0  0  0  0  0  0  0  0  0
  189.0620  178.6850  137.4980 C   0  0  0  0  0  2  0  0  0  0  0  0
  186.8290  178.3460  139.2140 C   0  0  0  0  0  0  0  0  0  0  0  0
  190.2480  177.3080  145.9150 N   0  0  0  0  0  0  0  0  0  0  0  0
  189.1950  177.8280  138.7530 C   0  0  0  0  0  2  0  0  0  0  0  0
  187.0430  177.2900  137.0130 N   0  0  0  0  0  0  0  0  0  0  0  0
  184.2020  178.5630  144.8780 C   0  0  0  0  0  3  0  0  0  0  0  0
  185.2530  178.4050  143.9550 C   0  0  0  0  0  0  0  0  0  0  0  0
  186.8190  177.9960  145.7780 C   0  0  0  0  0  3  0  0  0  0  0  0
  188.2930  177.9560  141.1270 C   0  0  0  0  0  3  0  0  0  0  0  0
  190.0420  177.5020  143.0880 O   0  0  0  0  0  1  0  0  0  0  0  0
  188.0650  177.5840  148.8080 C   0  0  0  0  0  1  0  0  0  0  0  0
  187.6270  177.9620  143.4390 C   0  0  0  0  0  0  0  0  0  0  0  0
  188.1110  177.7180  146.1830 C   0  0  0  0  0  0  0  0  0  0  0  0
  186.1630  177.0820  135.8750 C   0  0  0  0  0  2  0  0  0  0  0  0
  184.8270  176.5440  136.3020 C   0  0  0  0  0  0  0  0  0  0  0  0
  184.7000  175.3040  137.1270 C   0  0  0  0  0  1  0  0  0  0  0  0
  183.8160  177.1370  135.9650 O   0  0  0  0  0  0  0  0  0  0  0  0
  1 20  1  0  0  0  0
  1 16  1  1  0  0  0
  1 10  1  0  0  0  0
  2 27  1  0  0  0  0
  3  4  1  0  0  0  0
  4 21  2  0  0  0  0
  5  6  1  0  0  0  0
  6 18  2  0  0  0  0
  6 28  1  0  0  0  0
  7 24  1  0  0  0  0
  8 12  1  0  0  0  0
  9 26  1  0  0  0  0
 10 17  1  1  0  0  0
 11 13  1  0  0  0  0
 11  3  2  0  0  0  0
 12  2  1  0  0  0  0
 12 13  2  0  0  0  0
 13 22  1  0  0  0  0
 14 23  1  0  0  0  0
 15  9  2  0  0  0  0
 16 19  1  0  0  0  0
 17  7  2  0  0  0  0
 17  8  1  0  0  0  0
 18 15  1  0  0  0  0
 19  7  1  0  0  0  0
 20 10  1  0  0  0  0
 22 14  2  0  0  0  0
 22 21  1  0  0  0  0
 23 28  2  0  0  0  0
 24  2  2  0  0  0  0
 25  5  1  0  0  0  0
 27  5  2  0  0  0  0
 27 14  1  0  0  0  0
 28  9  1  0  0  0  0
 29 30  1  0  0  0  0
 29 20  1  0  0  0  0
 30 31  1  0  0  0  0
 32 30  2  0  0  0  0
M  END
>  <MODEL>
1

>  <REMARK>
 VINA RESULT:     -11.3      0.000      0.000
  Name = 
  2 active torsions:
  status: ('A' for Active; 'I' for Inactive)
    1  A    between atoms: N_20  and  C_29
    2  A    between atoms: C_29  and  C_30
                            x       y       z     vdW  Elec       q    Type
                         _______ _______ _______ _____ _____    ______ ____

>  <TORSDO>
F 2

$$$$
=
 OpenBabel11122410413D

 32 38  0  0  1  0  0  0  0  0999 V2000
  188.1260  178.2000  136.8860 C   0  0  1  0  0  3  0  0  0  0  0  0
  187.7420  177.9300  142.1300 C   0  0  0  0  0  0  0  0  0  0  0  0
  183.0570  178.9310  143.0990 C   0  0  0  0  0  3  0  0  0  0  0  0
  183.3170  178.8600  144.4660 C   0  0  0  0  0  3  0  0  0  0  0  0
  189.3380  177.5620  144.0360 C   0  0  0  0  0  0  0  0  0  0  0  0
  189.5190  177.5090  145.4140 C   0  0  0  0  0  0  0  0  0  0  0  0
  188.4810  177.8030  139.7710 C   0  0  0  0  0  0  0  0  0  0  0  0
  186.0980  178.2980  140.2050 C   0  0  0  0  0  2  0  0  0  0  0  0
  189.0970  177.5770  147.5840 C   0  0  0  0  0  0  0  0  0  0  0  0
  186.9680  178.1240  137.7990 C   0  0  2  0  0  3  0  0  0  0  0  0
  184.0880  178.7170  142.1840 C   0  0  0  0  0  3  0  0  0  0  0  0
  186.4260  178.2180  141.6860 C   0  0  0  0  0  0  0  0  0  0  0  0
  185.3950  178.4300  142.6200 C   0  0  0  0  0  0  0  0  0  0  0  0
  186.9590  178.0730  144.4640 C   0  0  0  0  0  0  0  0  0  0  0  0
  190.3530  177.3060  147.4230 N   0  0  0  0  0  0  0  0  0  0  0  0
  189.5060  178.2840  137.5670 C   0  0  0  0  0  2  0  0  0  0  0  0
  187.2580  178.0620  139.2830 C   0  0  0  0  0  0  0  0  0  0  0  0
  190.6230  177.2620  146.0420 N   0  0  0  0  0  0  0  0  0  0  0  0
  189.6170  177.4820  138.8590 C   0  0  0  0  0  2  0  0  0  0  0  0
  187.4650  176.9050  137.1310 N   0  0  0  0  0  0  0  0  0  0  0  0
  184.6060  178.5770  144.9160 C   0  0  0  0  0  3  0  0  0  0  0  0
  185.6590  178.3600  144.0060 C   0  0  0  0  0  0  0  0  0  0  0  0
  187.2080  178.0040  145.8550 C   0  0  0  0  0  3  0  0  0  0  0  0
  188.7060  177.7310  141.2190 C   0  0  0  0  0  3  0  0  0  0  0  0
  190.4360  177.3340  143.2090 O   0  0  0  0  0  1  0  0  0  0  0  0
  188.4310  177.7060  148.9080 C   0  0  0  0  0  1  0  0  0  0  0  0
  188.0270  177.8520  143.5250 C   0  0  0  0  0  0  0  0  0  0  0  0
  188.4930  177.7220  146.2800 C   0  0  0  0  0  0  0  0  0  0  0  0
  186.5870  176.6620  135.9980 C   0  0  0  0  0  2  0  0  0  0  0  0
  186.9630  175.4040  135.2690 C   0  0  0  0  0  0  0  0  0  0  0  0
  188.2870  175.2460  134.5940 C   0  0  0  0  0  1  0  0  0  0  0  0
  186.1640  174.4840  135.2260 O   0  0  0  0  0  0  0  0  0  0  0  0
  1 20  1  0  0  0  0
  1 16  1  1  0  0  0
  1 10  1  0  0  0  0
  2 27  1  0  0  0  0
  3  4  1  0  0  0  0
  4 21  2  0  0  0  0
  5  6  1  0  0  0  0
  6 18  2  0  0  0  0
  6 28  1  0  0  0  0
  7 24  1  0  0  0  0
  8 12  1  0  0  0  0
  9 26  1  0  0  0  0
 10 17  1  1  0  0  0
 11 13  1  0  0  0  0
 11  3  2  0  0  0  0
 12  2  1  0  0  0  0
 12 13  2  0  0  0  0
 13 22  1  0  0  0  0
 14 23  1  0  0  0  0
 15  9  2  0  0  0  0
 16 19  1  0  0  0  0
 17  7  2  0  0  0  0
 17  8  1  0  0  0  0
 18 15  1  0  0  0  0
 19  7  1  0  0  0  0
 20 10  1  0  0  0  0
 22 14  2  0  0  0  0
 22 21  1  0  0  0  0
 23 28  2  0  0  0  0
 24  2  2  0  0  0  0
 25  5  1  0  0  0  0
 27  5  2  0  0  0  0
 27 14  1  0  0  0  0
 28  9  1  0  0  0  0
 29 20  1  0  0  0  0
 30 29  1  0  0  0  0
 31 30  1  0  0  0  0
 32 30  2  0  0  0  0
M  END
>  <MODEL>
2

>  <REMARK>
 VINA RESULT:     -10.7      1.012      1.194
  Name = 
  2 active torsions:
  status: ('A' for Active; 'I' for Inactive)
    1  A    between atoms: N_20  and  C_29
    2  A    between atoms: C_29  and  C_30
                            x       y       z     vdW  Elec       q    Type
                         _______ _______ _______ _____ _____    ______ ____

>  <TORSDO>
F 2

$$$$
=
 OpenBabel11122410413D

 32 38  0  0  1  0  0  0  0  0999 V2000
  180.4370  178.6610  141.6690 C   0  0  1  0  0  3  0  0  0  0  0  0
  185.1880  178.3010  143.9090 C   0  0  0  0  0  0  0  0  0  0  0  0
  188.3050  177.8310  140.1740 C   0  0  0  0  0  3  0  0  0  0  0  0
  189.3650  177.6890  141.0660 C   0  0  0  0  0  3  0  0  0  0  0  0
  186.0660  178.1990  146.2620 C   0  0  0  0  0  0  0  0  0  0  0  0
  187.1750  178.0490  147.0890 C   0  0  0  0  0  0  0  0  0  0  0  0
  182.7810  178.6300  143.4320 C   0  0  0  0  0  0  0  0  0  0  0  0
  184.3170  178.4120  141.5070 C   0  0  0  0  0  3  0  0  0  0  0  0
  189.2630  177.7600  147.7580 C   0  0  0  0  0  0  0  0  0  0  0  0
  181.8060  178.7740  141.1280 C   0  0  2  0  0  3  0  0  0  0  0  0
  187.0100  178.0190  140.6570 C   0  0  0  0  0  3  0  0  0  0  0  0
  185.4420  178.2550  142.5150 C   0  0  0  0  0  0  0  0  0  0  0  0
  186.7530  178.0660  142.0400 C   0  0  0  0  0  0  0  0  0  0  0  0
  187.5940  177.9660  144.3340 C   0  0  0  0  0  0  0  0  0  0  0  0
  188.5130  177.8750  148.8070 N   0  0  0  0  0  0  0  0  0  0  0  0
  180.3390  178.3020  143.1650 C   0  0  0  0  0  2  0  0  0  0  0  0
  182.9520  178.6050  142.1020 C   0  0  0  0  0  0  0  0  0  0  0  0
  187.1840  178.0600  148.3830 N   0  0  0  0  0  2  0  0  0  0  0  0
  181.4420  178.9080  144.0270 C   0  0  0  0  0  2  0  0  0  0  0  0
  181.0360  179.9900  141.4560 N   0  0  0  0  0  0  0  0  0  0  0  0
  189.1290  177.7330  142.4410 C   0  0  0  0  0  3  0  0  0  0  0  0
  187.8280  177.9200  142.9460 C   0  0  0  0  0  0  0  0  0  0  0  0
  188.6800  177.8200  145.2280 C   0  0  0  0  0  3  0  0  0  0  0  0
  183.9290  178.4830  144.3340 C   0  0  0  0  0  3  0  0  0  0  0  0
  184.8160  178.3810  146.8470 O   0  0  0  0  0  1  0  0  0  0  0  0
  190.7360  177.5530  147.7990 C   0  0  0  0  0  1  0  0  0  0  0  0
  186.2600  178.1590  144.8390 C   0  0  0  0  0  0  0  0  0  0  0  0
  188.4250  177.8680  146.5860 C   0  0  0  0  0  0  0  0  0  0  0  0
  180.4990  180.4950  140.2020 C   0  0  0  0  0  2  0  0  0  0  0  0
  179.4370  181.5320  140.4340 C   0  0  0  0  0  0  0  0  0  0  0  0
  178.9840  182.4560  139.3510 C   0  0  0  0  0  1  0  0  0  0  0  0
  178.9310  181.6220  141.5390 O   0  0  0  0  0  0  0  0  0  0  0  0
  1 16  1  1  0  0  0
  2 24  1  0  0  0  0
  2 27  1  0  0  0  0
  3 11  2  0  0  0  0
  3  4  1  0  0  0  0
  4 21  2  0  0  0  0
  5 25  1  0  0  0  0
  5  6  1  0  0  0  0
  6 18  1  0  0  0  0
  7 19  1  0  0  0  0
  7 24  2  0  0  0  0
  8 17  2  0  0  0  0
  8 12  1  0  0  0  0
  9 26  1  0  0  0  0
  9 15  2  0  0  0  0
 10 20  1  0  0  0  0
 10  1  1  0  0  0  0
 10 17  1  1  0  0  0
 11 13  1  0  0  0  0
 12  2  2  0  0  0  0
 13 12  1  0  0  0  0
 13 22  2  0  0  0  0
 14 27  1  0  0  0  0
 14 23  2  0  0  0  0
 16 19  1  0  0  0  0
 17  7  1  0  0  0  0
 18 15  1  0  0  0  0
 20  1  1  0  0  0  0
 21 22  1  0  0  0  0
 22 14  1  0  0  0  0
 23 28  1  0  0  0  0
 27  5  2  0  0  0  0
 28  6  2  0  0  0  0
 28  9  1  0  0  0  0
 29 30  1  0  0  0  0
 29 20  1  0  0  0  0
 30 32  2  0  0  0  0
 31 30  1  0  0  0  0
M  END
>  <MODEL>
3

>  <REMARK>
 VINA RESULT:     -10.5      3.164      5.676
  Name = 
  2 active torsions:
  status: ('A' for Active; 'I' for Inactive)
    1  A    between atoms: N_20  and  C_29
    2  A    between atoms: C_29  and  C_30
                            x       y       z     vdW  Elec       q    Type
                         _______ _______ _______ _____ _____    ______ ____

>  <TORSDO>
F 2

$$$$
=
 OpenBabel11122410413D

 32 38  0  0  1  0  0  0  0  0999 V2000
  186.1180  178.6680  137.1950 C   0  0  1  0  0  3  0  0  0  0  0  0
  187.7060  177.8300  142.1440 C   0  0  0  0  0  0  0  0  0  0  0  0
  183.8130  178.8780  144.9070 C   0  0  0  0  0  3  0  0  0  0  0  0
  184.5600  178.6470  146.0600 C   0  0  0  0  0  3  0  0  0  0  0  0
  189.8680  177.1970  143.2580 C   0  0  0  0  0  0  0  0  0  0  0  0
  190.5470  176.9830  144.4530 C   0  0  0  0  0  0  0  0  0  0  0  0
  187.4960  177.9410  139.6800 C   0  0  0  0  0  0  0  0  0  0  0  0
  185.4930  178.4670  141.0310 C   0  0  0  0  0  2  0  0  0  0  0  0
  190.9750  176.8240  146.6180 C   0  0  0  0  0  0  0  0  0  0  0  0
  185.3830  178.5320  138.4690 C   0  0  2  0  0  3  0  0  0  0  0  0
  184.4080  178.7320  143.6540 C   0  0  0  0  0  3  0  0  0  0  0  0
  186.3460  178.2110  142.2620 C   0  0  0  0  0  0  0  0  0  0  0  0
  185.7580  178.3530  143.5320 C   0  0  0  0  0  0  0  0  0  0  0  0
  187.8670  177.7390  144.6030 C   0  0  0  0  0  0  0  0  0  0  0  0
  192.0550  176.5290  145.9670 N   0  0  0  0  0  0  0  0  0  0  0  0
  187.6540  178.6280  137.3040 C   0  0  0  0  0  2  0  0  0  0  0  0
  186.2020  178.2940  139.7190 C   0  0  0  0  0  0  0  0  0  0  0  0
  191.7850  176.6300  144.5900 N   0  0  0  0  0  0  0  0  0  0  0  0
  188.1810  177.6840  138.3800 C   0  0  0  0  0  2  0  0  0  0  0  0
  185.5020  177.3780  137.5560 N   0  0  0  0  0  0  0  0  0  0  0  0
  185.8990  178.2710  145.9590 C   0  0  0  0  0  3  0  0  0  0  0  0
  186.5160  178.1200  144.7020 C   0  0  0  0  0  0  0  0  0  0  0  0
  188.6130  177.5070  145.7830 C   0  0  0  0  0  3  0  0  0  0  0  0
  188.2410  177.7000  140.9210 C   0  0  0  0  0  3  0  0  0  0  0  0
  190.5560  177.0240  142.0600 O   0  0  0  0  0  1  0  0  0  0  0  0
  190.8640  176.8280  148.1010 C   0  0  0  0  0  1  0  0  0  0  0  0
  188.4870  177.5860  143.3130 C   0  0  0  0  0  0  0  0  0  0  0  0
  189.9380  177.1340  145.6600 C   0  0  0  0  0  0  0  0  0  0  0  0
  184.2480  177.2940  136.8250 C   0  0  0  0  0  2  0  0  0  0  0  0
  183.0910  177.0250  137.7440 C   0  0  0  0  0  0  0  0  0  0  0  0
  183.0550  175.8330  138.6450 C   0  0  0  0  0  1  0  0  0  0  0  0
  182.1520  177.8030  137.7550 O   0  0  0  0  0  0  0  0  0  0  0  0
  1 16  1  1  0  0  0
  1 20  1  0  0  0  0
  1 10  1  0  0  0  0
  2 12  1  0  0  0  0
  2 27  1  0  0  0  0
  3  4  1  0  0  0  0
  5 27  2  0  0  0  0
  5  6  1  0  0  0  0
  6 18  2  0  0  0  0
  6 28  1  0  0  0  0
  7 17  2  0  0  0  0
  7 24  1  0  0  0  0
  8 12  1  0  0  0  0
  9 26  1  0  0  0  0
 10 17  1  1  0  0  0
 11  3  2  0  0  0  0
 12 13  2  0  0  0  0
 13 11  1  0  0  0  0
 13 22  1  0  0  0  0
 14 22  2  0  0  0  0
 14 23  1  0  0  0  0
 15  9  2  0  0  0  0
 16 19  1  0  0  0  0
 17  8  1  0  0  0  0
 18 15  1  0  0  0  0
 19  7  1  0  0  0  0
 20 10  1  0  0  0  0
 21  4  2  0  0  0  0
 22 21  1  0  0  0  0
 24  2  2  0  0  0  0
 25  5  1  0  0  0  0
 27 14  1  0  0  0  0
 28 23  2  0  0  0  0
 28  9  1  0  0  0  0
 29 20  1  0  0  0  0
 29 30  1  0  0  0  0
 30 32  2  0  0  0  0
 30 31  1  0  0  0  0
M  END
>  <MODEL>
4

>  <REMARK>
 VINA RESULT:     -10.2      1.392      1.752
  Name = 
  2 active torsions:
  status: ('A' for Active; 'I' for Inactive)
    1  A    between atoms: N_20  and  C_29
    2  A    between atoms: C_29  and  C_30
                            x       y       z     vdW  Elec       q    Type
                         _______ _______ _______ _____ _____    ______ ____

>  <TORSDO>
F 2

$$$$
=
 OpenBabel11122410413D

 32 38  0  0  1  0  0  0  0  0999 V2000
  181.0820  179.6720  139.3980 C   0  0  1  0  0  3  0  0  0  0  0  0
  185.6080  178.5000  141.8190 C   0  0  0  0  0  0  0  0  0  0  0  0
  184.5160  178.4820  146.5830 C   0  0  0  0  0  3  0  0  0  0  0  0
  185.8520  178.2410  146.8960 C   0  0  0  0  0  3  0  0  0  0  0  0
  187.9870  178.1220  141.1030 C   0  0  0  0  0  0  0  0  0  0  0  0
  189.3000  177.8810  141.4950 C   0  0  0  0  0  0  0  0  0  0  0  0
  183.8000  178.8870  140.1730 C   0  0  0  0  0  0  0  0  0  0  0  0
  183.1920  178.8740  142.5690 C   0  0  0  0  0  3  0  0  0  0  0  0
  191.0720  177.5230  142.7700 C   0  0  0  0  0  0  0  0  0  0  0  0
  181.3950  179.2470  140.7770 C   0  0  2  0  0  3  0  0  0  0  0  0
  184.1260  178.6050  145.2490 C   0  0  0  0  0  3  0  0  0  0  0  0
  184.6590  178.6170  142.8660 C   0  0  0  0  0  0  0  0  0  0  0  0
  185.0650  178.4900  144.2070 C   0  0  0  0  0  0  0  0  0  0  0  0
  187.3760  178.1250  143.4970 C   0  0  0  0  0  0  0  0  0  0  0  0
  191.4530  177.5100  141.5320 N   0  0  0  0  0  0  0  0  0  0  0  0
  182.2980  179.8910  138.4770 C   0  0  0  0  0  2  0  0  0  0  0  0
  182.8490  178.9990  141.1130 C   0  0  0  0  0  0  0  0  0  0  0  0
  190.3270  177.7370  140.7200 N   0  0  0  0  0  0  0  0  0  0  0  0
  183.4510  178.9240  138.7230 C   0  0  0  0  0  2  0  0  0  0  0  0
  180.9270  178.2590  139.7850 N   0  0  0  0  0  0  0  0  0  0  0  0
  186.7960  178.1230  145.8760 C   0  0  0  0  0  3  0  0  0  0  0  0
  186.4200  178.2460  144.5240 C   0  0  0  0  0  0  0  0  0  0  0  0
  188.7280  177.8800  143.8300 C   0  0  0  0  0  3  0  0  0  0  0  0
  185.1940  178.6250  140.5500 C   0  0  0  0  0  2  0  0  0  0  0  0
  187.7050  178.2280  139.7440 O   0  0  0  0  0  1  0  0  0  0  0  0
  191.9810  177.3180  143.9290 C   0  0  0  0  0  1  0  0  0  0  0  0
  186.9800  178.2520  142.1190 C   0  0  0  0  0  0  0  0  0  0  0  0
  189.6480  177.7660  142.8040 C   0  0  0  0  0  0  0  0  0  0  0  0
  179.5110  178.0480  140.0420 C   0  0  0  0  0  2  0  0  0  0  0  0
  179.2360  176.6450  140.5010 C   0  0  0  0  0  0  0  0  0  0  0  0
  178.9880  175.5300  139.5360 C   0  0  0  0  0  1  0  0  0  0  0  0
  179.2150  176.4080  141.6970 O   0  0  0  0  0  0  0  0  0  0  0  0
  1 16  1  6  0  0  0
  1 20  1  0  0  0  0
  1 10  1  0  0  0  0
  2 27  2  0  0  0  0
  2 12  1  0  0  0  0
  3  4  1  0  0  0  0
  5  6  2  0  0  0  0
  5 27  1  0  0  0  0
  6 28  1  0  0  0  0
  7 24  1  0  0  0  0
  7 17  2  0  0  0  0
  8 12  2  0  0  0  0
  9 28  2  0  0  0  0
  9 26  1  0  0  0  0
 10 17  1  6  0  0  0
 11  3  2  0  0  0  0
 12 13  1  0  0  0  0
 13 22  2  0  0  0  0
 13 11  1  0  0  0  0
 14 23  2  0  0  0  0
 14 22  1  0  0  0  0
 15  9  1  0  0  0  0
 16 19  1  0  0  0  0
 17  8  1  0  0  0  0
 18  6  1  0  0  0  0
 18 15  2  0  0  0  0
 19  7  1  0  0  0  0
 20 29  1  0  0  0  0
 20 10  1  0  0  0  0
 21  4  2  0  0  0  0
 22 21  1  0  0  0  0
 24  2  1  0  0  0  0
 25  5  1  0  0  0  0
 27 14  1  0  0  0  0
 28 23  1  0  0  0  0
 29 30  1  0  0  0  0
 30 32  2  0  0  0  0
 31 30  1  0  0  0  0
M  END
>  <MODEL>
5

>  <REMARK>
 VINA RESULT:     -10.0      3.165      4.799
  Name = 
  2 active torsions:
  status: ('A' for Active; 'I' for Inactive)
    1  A    between atoms: N_20  and  C_29
    2  A    between atoms: C_29  and  C_30
                            x       y       z     vdW  Elec       q    Type
                         _______ _______ _______ _____ _____    ______ ____

>  <TORSDO>
F 2

$$$$
=
 OpenBabel11122410413D

 32 38  0  0  1  0  0  0  0  0999 V2000
  189.3370  177.7490  147.9940 C   0  0  1  0  0  3  0  0  0  0  0  0
  185.9510  178.2760  143.9960 C   0  0  0  0  0  0  0  0  0  0  0  0
  188.7100  178.0100  139.9710 C   0  0  0  0  0  3  0  0  0  0  0  0
  187.5900  178.2530  139.1790 C   0  0  0  0  0  3  0  0  0  0  0  0
  183.4880  178.7230  143.7700 C   0  0  0  0  0  0  0  0  0  0  0  0
  182.4180  178.9600  142.9130 C   0  0  0  0  0  0  0  0  0  0  0  0
  187.0200  177.9710  146.2090 C   0  0  0  0  0  0  0  0  0  0  0  0
  188.4580  177.8130  144.2040 C   0  0  0  0  0  3  0  0  0  0  0  0
  181.2490  179.2700  141.0610 C   0  0  0  0  0  0  0  0  0  0  0  0
  189.4570  177.4940  146.5450 C   0  0  2  0  0  3  0  0  0  0  0  0
  188.5800  177.9550  141.3590 C   0  0  0  0  0  3  0  0  0  0  0  0
  187.2130  178.0860  143.3790 C   0  0  1  0  0  3  0  0  0  0  0  0
  187.3300  178.1430  141.9770 C   0  0  0  0  0  0  0  0  0  0  0  0
  184.9330  178.5790  141.7710 C   0  0  0  0  0  0  0  0  0  0  0  0
  180.4420  179.3560  142.0710 N   0  0  0  0  0  0  0  0  0  0  0  0
  187.9940  178.3490  148.4560 C   0  0  0  0  0  2  0  0  0  0  0  0
  188.2410  177.7730  145.6890 C   0  0  0  0  0  0  0  0  0  0  0  0
  181.1850  179.1590  143.2500 N   0  0  0  0  0  0  0  0  0  0  0  0
  186.7840  177.8460  147.6770 C   0  0  0  0  0  2  0  0  0  0  0  0
  189.1820  176.3790  147.4720 N   0  0  0  0  0  0  0  0  0  0  0  0
  186.3430  178.4410  139.7750 C   0  0  0  0  0  3  0  0  0  0  0  0
  186.1940  178.3900  141.1740 C   0  0  0  0  0  0  0  0  0  0  0  0
  183.8060  178.8240  140.9540 C   0  0  0  0  0  3  0  0  0  0  0  0
  185.8680  178.2160  145.3340 C   0  0  0  0  0  3  0  0  0  0  0  0
  183.2500  178.6890  145.1420 O   0  0  0  0  0  1  0  0  0  0  0  0
  180.8350  179.4220  139.6410 C   0  0  0  0  0  1  0  0  0  0  0  0
  184.7930  178.5240  143.2030 C   0  0  0  0  0  0  0  0  0  0  0  0
  182.5790  179.0070  141.5640 C   0  0  0  0  0  0  0  0  0  0  0  0
  190.4480  175.7000  147.6960 C   0  0  0  0  0  2  0  0  0  0  0  0
  191.5750  176.3830  146.9760 C   0  0  0  0  0  0  0  0  0  0  0  0
  191.6810  176.3770  145.4850 C   0  0  0  0  0  1  0  0  0  0  0  0
  192.4290  176.9590  147.6270 O   0  0  0  0  0  0  0  0  0  0  0  0
  1 16  1  6  0  0  0
  2 24  1  0  0  0  0
  3 11  1  0  0  0  0
  4 21  1  0  0  0  0
  4  3  2  0  0  0  0
  5 25  1  0  0  0  0
  6 18  1  0  0  0  0
  6  5  2  0  0  0  0
  7 19  1  0  0  0  0
  8 17  2  0  0  0  0
  9 28  2  0  0  0  0
  9 15  1  0  0  0  0
 10 17  1  6  0  0  0
 10 20  1  0  0  0  0
 10  1  1  0  0  0  0
 11 13  2  0  0  0  0
 12  2  1  0  0  0  0
 12  8  1  6  0  0  0
 13 12  1  0  0  0  0
 14 27  1  0  0  0  0
 15 18  2  0  0  0  0
 17  7  1  0  0  0  0
 19 16  1  0  0  0  0
 20 29  1  0  0  0  0
 20  1  1  0  0  0  0
 21 22  2  0  0  0  0
 22 14  1  0  0  0  0
 22 13  1  0  0  0  0
 23 28  1  0  0  0  0
 23 14  2  0  0  0  0
 24  7  2  0  0  0  0
 26  9  1  0  0  0  0
 27  5  1  0  0  0  0
 27  2  2  0  0  0  0
 28  6  1  0  0  0  0
 30 32  2  0  0  0  0
 30 29  1  0  0  0  0
 31 30  1  0  0  0  0
M  END
>  <MODEL>
6

>  <REMARK>
 VINA RESULT:      -9.5      3.011      8.286
  Name = 
  2 active torsions:
  status: ('A' for Active; 'I' for Inactive)
    1  A    between atoms: N_20  and  C_29
    2  A    between atoms: C_29  and  C_30
                            x       y       z     vdW  Elec       q    Type
                         _______ _______ _______ _____ _____    ______ ____

>  <TORSDO>
F 2

$$$$
=
 OpenBabel11122410413D

 32 38  0  0  1  0  0  0  0  0999 V2000
  188.9460  177.8670  147.7680 C   0  0  1  0  0  3  0  0  0  0  0  0
  186.2430  178.2210  143.2640 C   0  0  0  0  0  0  0  0  0  0  0  0
  189.6160  177.8740  139.7450 C   0  0  0  0  0  3  0  0  0  0  0  0
  188.6360  178.0760  138.7750 C   0  0  0  0  0  3  0  0  0  0  0  0
  183.8450  178.6240  142.6310 C   0  0  0  0  0  0  0  0  0  0  0  0
  182.9240  178.8190  141.6060 C   0  0  0  0  0  0  0  0  0  0  0  0
  186.9450  178.0000  145.6280 C   0  0  0  0  0  0  0  0  0  0  0  0
  188.6880  177.8020  143.8860 C   0  0  0  0  0  3  0  0  0  0  0  0
  182.0650  179.0550  139.5810 C   0  0  0  0  0  0  0  0  0  0  0  0
  189.3010  177.5700  146.3660 C   0  0  2  0  0  3  0  0  0  0  0  0
  189.2650  177.8600  141.0940 C   0  0  0  0  0  3  0  0  0  0  0  0
  187.5900  178.0310  142.8630 C   0  0  1  0  0  3  0  0  0  0  0  0
  187.9300  178.0470  141.4980 C   0  0  0  0  0  0  0  0  0  0  0  0
  185.5940  178.4410  140.8950 C   0  0  0  0  0  0  0  0  0  0  0  0
  181.1060  179.1600  140.4450 N   0  0  0  0  0  0  0  0  0  0  0  0
  187.5410  178.4600  147.9890 C   0  0  0  0  0  2  0  0  0  0  0  0
  188.2360  177.8040  145.3170 C   0  0  0  0  0  0  0  0  0  0  0  0
  181.6510  179.0090  141.7330 N   0  0  0  0  0  0  0  0  0  0  0  0
  186.4770  177.9160  147.0420 C   0  0  0  0  0  2  0  0  0  0  0  0
  188.8910  176.4790  147.2730 N   0  0  0  0  0  0  0  0  0  0  0  0
  187.3080  178.2630  139.1570 C   0  0  0  0  0  3  0  0  0  0  0  0
  186.9360  178.2530  140.5150 C   0  0  0  0  0  0  0  0  0  0  0  0
  184.6100  178.6440  139.9000 C   0  0  0  0  0  3  0  0  0  0  0  0
  185.9460  178.2010  144.5720 C   0  0  0  0  0  3  0  0  0  0  0  0
  183.3890  178.6280  143.9470 O   0  0  0  0  0  1  0  0  0  0  0  0
  181.8830  179.1570  138.1090 C   0  0  0  0  0  1  0  0  0  0  0  0
  185.2250  178.4270  142.2870 C   0  0  0  0  0  0  0  0  0  0  0  0
  183.2990  178.8270  140.2990 C   0  0  0  0  0  0  0  0  0  0  0  0
  190.1110  175.8260  147.7190 C   0  0  0  0  0  2  0  0  0  0  0  0
  191.3320  176.4860  147.1430 C   0  0  0  0  0  0  0  0  0  0  0  0
  191.6810  176.3780  145.6930 C   0  0  0  0  0  1  0  0  0  0  0  0
  192.0600  177.1280  147.8800 O   0  0  0  0  0  0  0  0  0  0  0  0
  1 16  1  6  0  0  0
  2 24  1  0  0  0  0
  3 11  1  0  0  0  0
  4 21  1  0  0  0  0
  4  3  2  0  0  0  0
  5 25  1  0  0  0  0
  6 18  1  0  0  0  0
  6  5  2  0  0  0  0
  7 19  1  0  0  0  0
  8 17  2  0  0  0  0
  9 28  2  0  0  0  0
  9 15  1  0  0  0  0
 10 17  1  6  0  0  0
 10 20  1  0  0  0  0
 10  1  1  0  0  0  0
 11 13  2  0  0  0  0
 12  2  1  0  0  0  0
 12  8  1  6  0  0  0
 13 12  1  0  0  0  0
 14 27  1  0  0  0  0
 15 18  2  0  0  0  0
 17  7  1  0  0  0  0
 19 16  1  0  0  0  0
 20 29  1  0  0  0  0
 20  1  1  0  0  0  0
 21 22  2  0  0  0  0
 22 14  1  0  0  0  0
 22 13  1  0  0  0  0
 23 28  1  0  0  0  0
 23 14  2  0  0  0  0
 24  7  2  0  0  0  0
 26  9  1  0  0  0  0
 27  5  1  0  0  0  0
 27  2  2  0  0  0  0
 28  6  1  0  0  0  0
 30 29  1  0  0  0  0
 30 32  2  0  0  0  0
 31 30  1  0  0  0  0
M  END
>  <MODEL>
7

>  <REMARK>
 VINA RESULT:      -9.5      2.786      8.368
  Name = 
  2 active torsions:
  status: ('A' for Active; 'I' for Inactive)
    1  A    between atoms: N_20  and  C_29
    2  A    between atoms: C_29  and  C_30
                            x       y       z     vdW  Elec       q    Type
                         _______ _______ _______ _____ _____    ______ ____

>  <TORSDO>
F 2

$$$$
=
 OpenBabel11122410413D

 32 38  0  0  1  0  0  0  0  0999 V2000
  180.6500  179.0870  139.2440 C   0  0  1  0  0  3  0  0  0  0  0  0
  185.0860  178.4100  141.9980 C   0  0  0  0  0  0  0  0  0  0  0  0
  188.6270  178.1720  138.6380 C   0  0  0  0  0  3  0  0  0  0  0  0
  189.5680  177.9260  139.6350 C   0  0  0  0  0  3  0  0  0  0  0  0
  185.6690  178.0860  144.4210 C   0  0  0  0  0  0  0  0  0  0  0  0
  186.6650  177.8370  145.3590 C   0  0  0  0  0  0  0  0  0  0  0  0
  182.7610  178.8430  141.2660 C   0  0  0  0  0  0  0  0  0  0  0  0
  184.5160  178.7470  139.5270 C   0  0  0  0  0  3  0  0  0  0  0  0
  188.6510  177.4350  146.2460 C   0  0  0  0  0  0  0  0  0  0  0  0
  182.0770  179.2080  138.8830 C   0  0  2  0  0  3  0  0  0  0  0  0
  187.2860  178.3540  138.9770 C   0  0  0  0  0  3  0  0  0  0  0  0
  185.5070  178.4750  140.6460 C   0  0  0  0  0  0  0  0  0  0  0  0
  186.8630  178.2910  140.3170 C   0  0  0  0  0  0  0  0  0  0  0  0
  187.4160  177.9750  142.6780 C   0  0  0  0  0  0  0  0  0  0  0  0
  187.7810  177.4820  147.2040 N   0  0  0  0  0  0  0  0  0  0  0  0
  180.3650  178.6060  140.6800 C   0  0  0  0  0  2  0  0  0  0  0  0
  183.0930  178.9270  139.9680 C   0  0  0  0  0  0  0  0  0  0  0  0
  186.5160  177.7380  146.6410 N   0  0  0  0  0  2  0  0  0  0  0  0
  181.3640  179.1070  141.7170 C   0  0  0  0  0  2  0  0  0  0  0  0
  181.2930  180.4130  139.2200 N   0  0  0  0  0  0  0  0  0  0  0  0
  189.1660  177.8610  140.9700 C   0  0  0  0  0  3  0  0  0  0  0  0
  187.8170  178.0400  141.3300 C   0  0  0  0  0  0  0  0  0  0  0  0
  188.3820  177.7250  143.6800 C   0  0  0  0  0  3  0  0  0  0  0  0
  183.7880  178.5890  142.2830 C   0  0  0  0  0  3  0  0  0  0  0  0
  184.3590  178.2510  144.8660 O   0  0  0  0  0  1  0  0  0  0  0  0
  190.1040  177.1850  146.4460 C   0  0  0  0  0  1  0  0  0  0  0  0
  186.0340  178.1610  143.0340 C   0  0  0  0  0  0  0  0  0  0  0  0
  187.9640  177.6640  144.9960 C   0  0  0  0  0  0  0  0  0  0  0  0
  180.9220  181.0360  137.9600 C   0  0  0  0  0  2  0  0  0  0  0  0
  181.4120  182.4540  137.8800 C   0  0  0  0  0  0  0  0  0  0  0  0
  180.6560  183.5120  137.1420 C   0  0  0  0  0  1  0  0  0  0  0  0
  182.4560  182.7510  138.4340 O   0  0  0  0  0  0  0  0  0  0  0  0
  1 16  1  1  0  0  0
  2 24  1  0  0  0  0
  2 27  1  0  0  0  0
  3 11  2  0  0  0  0
  3  4  1  0  0  0  0
  4 21  2  0  0  0  0
  5 25  1  0  0  0  0
  5  6  1  0  0  0  0
  6 18  1  0  0  0  0
  7 19  1  0  0  0  0
  7 24  2  0  0  0  0
  8 17  2  0  0  0  0
  8 12  1  0  0  0  0
  9 26  1  0  0  0  0
  9 15  2  0  0  0  0
 10 20  1  0  0  0  0
 10  1  1  0  0  0  0
 10 17  1  1  0  0  0
 11 13  1  0  0  0  0
 12  2  2  0  0  0  0
 13 12  1  0  0  0  0
 13 22  2  0  0  0  0
 14 27  1  0  0  0  0
 14 23  2  0  0  0  0
 16 19  1  0  0  0  0
 17  7  1  0  0  0  0
 18 15  1  0  0  0  0
 20  1  1  0  0  0  0
 21 22  1  0  0  0  0
 22 14  1  0  0  0  0
 23 28  1  0  0  0  0
 27  5  2  0  0  0  0
 28  6  2  0  0  0  0
 28  9  1  0  0  0  0
 29 20  1  0  0  0  0
 30 29  1  0  0  0  0
 30 32  2  0  0  0  0
 31 30  1  0  0  0  0
M  END
>  <MODEL>
8

>  <REMARK>
 VINA RESULT:      -9.5      3.210      5.269
  Name = 
  2 active torsions:
  status: ('A' for Active; 'I' for Inactive)
    1  A    between atoms: N_20  and  C_29
    2  A    between atoms: C_29  and  C_30
                            x       y       z     vdW  Elec       q    Type
                         _______ _______ _______ _____ _____    ______ ____

>  <TORSDO>
F 2

$$$$
=
 OpenBabel11122410413D

 32 38  0  0  1  0  0  0  0  0999 V2000
  191.6620  175.8070  147.1110 C   0  0  1  0  0  3  0  0  0  0  0  0
  188.1210  177.5940  143.6470 C   0  0  0  0  0  0  0  0  0  0  0  0
  184.1620  178.6270  146.3190 C   0  0  0  0  0  3  0  0  0  0  0  0
  183.4610  178.9650  145.1630 C   0  0  0  0  0  3  0  0  0  0  0  0
  188.0240  177.8660  141.1510 C   0  0  0  0  0  0  0  0  0  0  0  0
  187.2600  178.2200  140.0440 C   0  0  0  0  0  0  0  0  0  0  0  0
  190.1730  176.8100  144.7910 C   0  0  0  0  0  0  0  0  0  0  0  0
  188.2020  177.3330  146.1900 C   0  0  0  0  0  3  0  0  0  0  0  0
  185.5530  178.8920  138.8070 C   0  0  0  0  0  0  0  0  0  0  0  0
  190.3860  176.5320  147.2730 C   0  0  2  0  0  3  0  0  0  0  0  0
  185.4880  178.2050  146.2290 C   0  0  0  0  0  3  0  0  0  0  0  0
  187.4740  177.6850  144.9050 C   0  0  0  0  0  0  0  0  0  0  0  0
  186.1360  178.1130  144.9820 C   0  0  0  0  0  0  0  0  0  0  0  0
  186.0530  178.3710  142.5530 C   0  0  0  0  0  0  0  0  0  0  0  0
  186.5520  178.6430  138.0210 N   0  0  0  0  0  0  0  0  0  0  0  0
  192.0310  175.4230  145.6650 C   0  0  0  0  0  2  0  0  0  0  0  0
  189.6240  176.8830  146.0140 C   0  0  0  0  0  0  0  0  0  0  0  0
  187.6390  178.2160  138.8060 N   0  0  0  0  0  0  0  0  0  0  0  0
  191.6090  176.4480  144.6180 C   0  0  0  0  0  2  0  0  0  0  0  0
  191.6650  177.2670  147.3150 N   0  0  0  0  0  0  0  0  0  0  0  0
  184.0870  178.8790  143.9200 C   0  0  0  0  0  3  0  0  0  0  0  0
  185.4250  178.4550  143.8090 C   0  0  0  0  0  0  0  0  0  0  0  0
  185.3290  178.7180  141.3880 C   0  0  0  0  0  3  0  0  0  0  0  0
  189.3980  177.1840  143.6020 C   0  0  0  0  0  2  0  0  0  0  0  0
  189.3400  177.4570  140.9500 O   0  0  0  0  0  1  0  0  0  0  0  0
  184.2220  179.3690  138.3460 C   0  0  0  0  0  1  0  0  0  0  0  0
  187.4220  177.9370  142.4530 C   0  0  0  0  0  0  0  0  0  0  0  0
  185.9680  178.6270  140.1660 C   0  0  0  0  0  0  0  0  0  0  0  0
  191.9710  177.4930  148.7180 C   0  0  0  0  0  2  0  0  0  0  0  0
  193.1960  176.7370  149.1450 C   0  0  0  0  0  0  0  0  0  0  0  0
  193.9880  177.1280  150.3510 C   0  0  0  0  0  1  0  0  0  0  0  0
  193.5560  175.7750  148.4870 O   0  0  0  0  0  0  0  0  0  0  0  0
  1 16  1  6  0  0  0
  1 10  1  0  0  0  0
  1 20  1  0  0  0  0
  2 12  1  0  0  0  0
  4  3  2  0  0  0  0
  5 27  1  0  0  0  0
  6 28  1  0  0  0  0
  6  5  2  0  0  0  0
  7 17  2  0  0  0  0
  9 28  2  0  0  0  0
 10 17  1  6  0  0  0
 10 20  1  0  0  0  0
 11  3  1  0  0  0  0
 12 13  1  0  0  0  0
 12  8  2  0  0  0  0
 13 11  2  0  0  0  0
 14 22  1  0  0  0  0
 15 18  2  0  0  0  0
 15  9  1  0  0  0  0
 17  8  1  0  0  0  0
 18  6  1  0  0  0  0
 19  7  1  0  0  0  0
 19 16  1  0  0  0  0
 20 29  1  0  0  0  0
 21  4  1  0  0  0  0
 22 21  2  0  0  0  0
 22 13  1  0  0  0  0
 23 14  2  0  0  0  0
 24  2  1  0  0  0  0
 24  7  1  0  0  0  0
 25  5  1  0  0  0  0
 26  9  1  0  0  0  0
 27 14  1  0  0  0  0
 27  2  2  0  0  0  0
 28 23  1  0  0  0  0
 29 30  1  0  0  0  0
 30 31  1  0  0  0  0
 32 30  2  0  0  0  0
M  END
>  <MODEL>
9

>  <REMARK>
 VINA RESULT:      -9.1      2.440      8.163
  Name = 
  2 active torsions:
  status: ('A' for Active; 'I' for Inactive)
    1  A    between atoms: N_20  and  C_29
    2  A    between atoms: C_29  and  C_30
                            x       y       z     vdW  Elec       q    Type
                         _______ _______ _______ _____ _____    ______ ____

>  <TORSDO>
F 2

$$$$
