=
 OpenBabel11122410443D

 32 37  0  0  1  0  0  0  0  0999 V2000
  181.6450  177.4260  137.7980 S   0  0  0  0  0  0  0  0  0  0  0  0
  184.9920  178.9440  141.9310 C   0  0  1  0  0  3  0  0  0  0  0  0
  188.8120  177.6330  139.0660 C   0  0  0  0  0  3  0  0  0  0  0  0
  189.4810  177.1210  140.1800 C   0  0  0  0  0  3  0  0  0  0  0  0
  185.3340  178.8730  144.3530 C   0  0  0  0  0  0  0  0  0  0  0  0
  186.0850  178.5250  145.4740 C   0  0  0  0  0  0  0  0  0  0  0  0
  183.0190  178.2800  140.6380 N   0  0  1  0  0  0  0  0  0  0  0  0
  184.9270  179.4010  139.5140 C   0  0  0  0  0  2  0  0  0  0  0  0
  187.9940  177.6360  146.4660 C   0  0  0  0  0  0  0  0  0  0  0  0
  182.9220  178.6960  138.1670 C   0  0  2  0  0  3  0  0  0  0  0  0
  187.5820  178.2740  139.2240 C   0  0  0  0  0  3  0  0  0  0  0  0
  185.7390  179.0590  140.6760 N   0  0  0  0  0  0  0  0  0  0  0  0
  187.0060  178.4050  140.4990 C   0  0  0  0  0  0  0  0  0  0  0  0
  187.0940  178.0750  142.9520 C   0  0  0  0  0  0  0  0  0  0  0  0
  186.9900  178.0980  147.7300 S   0  0  0  0  0  0  0  0  0  0  0  0
  182.2110  176.0050  139.2900 S   0  0  0  0  0  0  0  0  0  0  0  0
  183.8010  178.3700  139.3820 C   0  0  2  0  0  3  0  0  0  0  0  0
  185.7050  178.6970  146.8060 C   0  0  0  0  0  3  0  0  0  0  0  0
  181.9550  177.2650  140.5870 C   0  0  0  0  0  2  0  0  0  0  0  0
  188.9170  177.2540  141.4510 C   0  0  0  0  0  3  0  0  0  0  0  0
  187.6800  177.8940  141.6140 C   0  0  0  0  0  0  0  0  0  0  0  0
  187.8280  177.7310  144.0490 N   0  0  0  0  0  0  0  0  0  0  0  0
  183.9010  177.8910  141.7430 C   0  0  0  0  0  2  0  0  0  0  0  0
  184.1950  179.4010  144.4990 O   0  0  0  0  0  0  0  0  0  0  0  0
  189.3410  177.0150  146.6030 C   0  0  0  0  0  1  0  0  0  0  0  0
  185.8410  178.6340  143.0980 N   0  0  0  0  0  0  0  0  0  0  0  0
  187.3370  177.9440  145.2900 C   0  0  0  0  0  0  0  0  0  0  0  0
  182.3030  179.9390  138.3280 O   0  0  0  0  0  0  0  0  0  0  0  0
  181.1460  179.8670  137.5500 C   0  0  0  0  0  2  0  0  0  0  0  0
  180.8000  181.2230  137.0460 C   0  0  0  0  0  0  0  0  0  0  0  0
  180.2730  181.3560  135.9110 O   0  0  0  0  0  0  0  0  0  0  0  0
  181.0280  182.3660  137.8620 N   0  0  0  0  0  1  0  0  0  0  0  0
  1 10  1  0  0  0  0
  1 16  1  0  0  0  0
  2 23  1  6  0  0  0
  2 26  1  0  0  0  0
  3 11  2  0  0  0  0
  3  4  1  0  0  0  0
  4 20  2  0  0  0  0
  5 24  2  0  0  0  0
  5  6  1  0  0  0  0
  6 18  2  0  0  0  0
  7 19  1  6  0  0  0
  7 23  1  0  0  0  0
  8 12  1  0  0  0  0
  9 25  1  0  0  0  0
  9 15  1  0  0  0  0
 10 28  1  1  0  0  0
 10 17  1  0  0  0  0
 11 13  1  0  0  0  0
 12  2  1  0  0  0  0
 13 12  1  0  0  0  0
 13 21  2  0  0  0  0
 14 26  1  0  0  0  0
 14 22  2  0  0  0  0
 16 19  1  0  0  0  0
 17  8  1  1  0  0  0
 17  7  1  0  0  0  0
 18 15  1  0  0  0  0
 20 21  1  0  0  0  0
 21 14  1  0  0  0  0
 22 27  1  0  0  0  0
 26  5  1  0  0  0  0
 27  6  1  0  0  0  0
 27  9  2  0  0  0  0
 29 28  1  0  0  0  0
 30 29  1  0  0  0  0
 30 32  1  0  0  0  0
 31 30  2  0  0  0  0
M  END
>  <MODEL>
1

>  <REMARK>
 VINA RESULT:      -7.9      0.000      0.000
  Name = 
  3 active torsions:
  status: ('A' for Active; 'I' for Inactive)
    1  A    between atoms: C_10  and  O_20
    2  A    between atoms: O_20  and  C_29
    3  A    between atoms: C_29  and  C_30
                            x       y       z     vdW  Elec       q    Type
                         _______ _______ _______ _____ _____    ______ ____

>  <TORSDO>
F 3

$$$$
=
 OpenBabel11122410443D

 32 37  0  0  1  0  0  0  0  0999 V2000
  193.4630  174.3970  136.7000 S   0  0  0  0  0  0  0  0  0  0  0  0
  189.7400  177.7680  139.0140 C   0  0  1  0  0  3  0  0  0  0  0  0
  191.6590  176.5560  143.4150 C   0  0  0  0  0  3  0  0  0  0  0  0
  190.3820  176.5570  143.9800 C   0  0  0  0  0  3  0  0  0  0  0  0
  187.4020  178.4900  138.9740 C   0  0  0  0  0  0  0  0  0  0  0  0
  186.1630  178.6630  139.5880 C   0  0  0  0  0  0  0  0  0  0  0  0
  190.9310  176.3310  137.4270 N   0  0  1  0  0  0  0  0  0  0  0  0
  192.1710  177.4670  139.2530 C   0  0  0  0  0  2  0  0  0  0  0  0
  184.7630  178.5530  141.4450 C   0  0  0  0  0  0  0  0  0  0  0  0
  193.4030  175.9700  137.6490 C   0  0  2  0  0  3  0  0  0  0  0  0
  191.8320  176.9250  142.0800 C   0  0  0  0  0  3  0  0  0  0  0  0
  190.8890  177.6710  139.9180 N   0  0  0  0  0  0  0  0  0  0  0  0
  190.7270  177.2940  141.2950 C   0  0  0  0  0  0  0  0  0  0  0  0
  188.3010  177.7280  141.0500 C   0  0  0  0  0  0  0  0  0  0  0  0
  183.8140  179.1310  140.1850 S   0  0  0  0  0  0  0  0  0  0  0  0
  191.5480  173.6410  137.2710 S   0  0  0  0  0  0  0  0  0  0  0  0
  192.0700  176.2200  138.3680 C   0  0  2  0  0  3  0  0  0  0  0  0
  184.9990  179.1300  138.9770 C   0  0  0  0  0  3  0  0  0  0  0  0
  190.7550  175.1360  136.5860 C   0  0  0  0  0  2  0  0  0  0  0  0
  189.2800  176.9280  143.2070 C   0  0  0  0  0  3  0  0  0  0  0  0
  189.4480  177.2960  141.8640 C   0  0  0  0  0  0  0  0  0  0  0  0
  187.0870  177.8940  141.6510 N   0  0  0  0  0  0  0  0  0  0  0  0
  189.6820  176.4910  138.1770 C   0  0  0  0  0  2  0  0  0  0  0  0
  187.5410  178.7710  137.7500 O   0  0  0  0  0  0  0  0  0  0  0  0
  184.3080  178.3160  142.8430 C   0  0  0  0  0  1  0  0  0  0  0  0
  188.4600  178.0120  139.7090 N   0  0  0  0  0  0  0  0  0  0  0  0
  186.0320  178.3470  140.9380 C   0  0  0  0  0  0  0  0  0  0  0  0
  193.7080  177.0350  136.7970 O   0  0  0  0  0  0  0  0  0  0  0  0
  194.2690  176.4400  135.6650 C   0  0  0  0  0  2  0  0  0  0  0  0
  195.5120  177.1630  135.2870 C   0  0  0  0  0  0  0  0  0  0  0  0
  195.4410  178.2340  134.6310 O   0  0  0  0  0  0  0  0  0  0  0  0
  196.7790  176.6670  135.7030 N   0  0  0  0  0  1  0  0  0  0  0  0
  1 16  1  0  0  0  0
  1 10  1  0  0  0  0
  2 23  1  1  0  0  0
  2 26  1  0  0  0  0
  2 12  1  0  0  0  0
  3  4  1  0  0  0  0
  5  6  1  0  0  0  0
  5 26  1  0  0  0  0
  6 27  1  0  0  0  0
  7 19  1  1  0  0  0
  7 23  1  0  0  0  0
  7 17  1  0  0  0  0
  8 12  1  0  0  0  0
  9 25  1  0  0  0  0
 10 28  1  6  0  0  0
 10 17  1  0  0  0  0
 11  3  2  0  0  0  0
 12 13  1  0  0  0  0
 13 21  2  0  0  0  0
 13 11  1  0  0  0  0
 14 22  2  0  0  0  0
 14 21  1  0  0  0  0
 15  9  1  0  0  0  0
 17  8  1  6  0  0  0
 18  6  2  0  0  0  0
 18 15  1  0  0  0  0
 19 16  1  0  0  0  0
 20  4  2  0  0  0  0
 21 20  1  0  0  0  0
 24  5  2  0  0  0  0
 26 14  1  0  0  0  0
 27  9  2  0  0  0  0
 27 22  1  0  0  0  0
 29 28  1  0  0  0  0
 30 29  1  0  0  0  0
 30 32  1  0  0  0  0
 31 30  2  0  0  0  0
M  END
>  <MODEL>
2

>  <REMARK>
 VINA RESULT:      -6.8      5.719      8.567
  Name = 
  3 active torsions:
  status: ('A' for Active; 'I' for Inactive)
    1  A    between atoms: C_10  and  O_20
    2  A    between atoms: O_20  and  C_29
    3  A    between atoms: C_29  and  C_30
                            x       y       z     vdW  Elec       q    Type
                         _______ _______ _______ _____ _____    ______ ____

>  <TORSDO>
F 3

$$$$
=
 OpenBabel11122410443D

 32 37  0  0  1  0  0  0  0  0999 V2000
  189.1290  175.3080  135.5130 S   0  0  0  0  0  0  0  0  0  0  0  0
  187.5320  178.2460  139.9180 C   0  0  1  0  0  3  0  0  0  0  0  0
  191.8740  177.1110  142.0110 C   0  0  0  0  0  3  0  0  0  0  0  0
  191.2480  176.9740  143.2510 C   0  0  0  0  0  3  0  0  0  0  0  0
  185.6620  178.7410  141.4170 C   0  0  0  0  0  0  0  0  0  0  0  0
  185.0870  178.7790  142.6860 C   0  0  0  0  0  0  0  0  0  0  0  0
  187.5260  176.9710  137.8250 N   0  0  1  0  0  0  0  0  0  0  0  0
  189.5740  178.1740  138.5460 C   0  0  0  0  0  2  0  0  0  0  0  0
  185.1920  178.4870  144.9930 C   0  0  0  0  0  0  0  0  0  0  0  0
  189.5930  176.8430  136.4110 C   0  0  2  0  0  3  0  0  0  0  0  0
  191.1380  177.5290  140.9000 C   0  0  0  0  0  3  0  0  0  0  0  0
  188.9970  178.2370  139.8840 N   0  0  0  0  0  0  0  0  0  0  0  0
  189.7670  177.8100  141.0190 C   0  0  0  0  0  0  0  0  0  0  0  0
  187.7160  178.0150  142.3930 C   0  0  0  0  0  0  0  0  0  0  0  0
  183.6280  179.0030  144.6640 S   0  0  0  0  0  0  0  0  0  0  0  0
  188.0590  174.3570  137.0980 S   0  0  0  0  0  0  0  0  0  0  0  0
  189.0080  176.9460  137.8260 C   0  0  2  0  0  3  0  0  0  0  0  0
  183.7750  179.1470  142.9840 C   0  0  0  0  0  3  0  0  0  0  0  0
  186.9260  175.7870  137.1900 C   0  0  0  0  0  2  0  0  0  0  0  0
  189.8860  177.2580  143.3790 C   0  0  0  0  0  3  0  0  0  0  0  0
  189.1420  177.6750  142.2650 C   0  0  0  0  0  0  0  0  0  0  0  0
  187.1520  178.0490  143.6350 N   0  0  0  0  0  0  0  0  0  0  0  0
  187.0300  176.9910  139.2040 C   0  0  0  0  0  2  0  0  0  0  0  0
  184.9770  179.0650  140.4070 O   0  0  0  0  0  0  0  0  0  0  0  0
  185.7420  178.1710  146.3410 C   0  0  0  0  0  1  0  0  0  0  0  0
  186.9720  178.3480  141.2800 N   0  0  0  0  0  0  0  0  0  0  0  0
  185.8600  178.4170  143.7860 C   0  0  0  0  0  0  0  0  0  0  0  0
  189.2260  177.9550  135.6460 O   0  0  0  0  0  0  0  0  0  0  0  0
  188.4670  177.4330  134.5970 C   0  0  0  0  0  2  0  0  0  0  0  0
  187.1130  178.0480  134.6080 C   0  0  0  0  0  0  0  0  0  0  0  0
  186.9910  179.3000  134.5940 O   0  0  0  0  0  0  0  0  0  0  0  0
  185.9550  177.2220  134.5940 N   0  0  0  0  0  1  0  0  0  0  0  0
  1 10  1  0  0  0  0
  1 16  1  0  0  0  0
  2 23  1  1  0  0  0
  2 26  1  0  0  0  0
  3  4  1  0  0  0  0
  4 20  2  0  0  0  0
  5  6  1  0  0  0  0
  6 18  2  0  0  0  0
  6 27  1  0  0  0  0
  7 19  1  1  0  0  0
  7 17  1  0  0  0  0
  7 23  1  0  0  0  0
  8 12  1  0  0  0  0
  9 25  1  0  0  0  0
 10 28  1  6  0  0  0
 10 17  1  0  0  0  0
 11 13  1  0  0  0  0
 11  3  2  0  0  0  0
 12  2  1  0  0  0  0
 12 13  1  0  0  0  0
 13 21  2  0  0  0  0
 14 22  2  0  0  0  0
 15  9  1  0  0  0  0
 16 19  1  0  0  0  0
 17  8  1  6  0  0  0
 18 15  1  0  0  0  0
 21 14  1  0  0  0  0
 21 20  1  0  0  0  0
 22 27  1  0  0  0  0
 24  5  2  0  0  0  0
 26  5  1  0  0  0  0
 26 14  1  0  0  0  0
 27  9  2  0  0  0  0
 29 30  1  0  0  0  0
 29 28  1  0  0  0  0
 31 30  2  0  0  0  0
 32 30  1  0  0  0  0
M  END
>  <MODEL>
3

>  <REMARK>
 VINA RESULT:      -5.9      3.674      4.973
  Name = 
  3 active torsions:
  status: ('A' for Active; 'I' for Inactive)
    1  A    between atoms: C_10  and  O_20
    2  A    between atoms: O_20  and  C_29
    3  A    between atoms: C_29  and  C_30
                            x       y       z     vdW  Elec       q    Type
                         _______ _______ _______ _____ _____    ______ ____

>  <TORSDO>
F 3

$$$$
=
 OpenBabel11122410443D

 32 37  0  0  1  0  0  0  0  0999 V2000
  178.9520  181.5310  138.3300 S   0  0  0  0  0  0  0  0  0  0  0  0
  183.4430  178.5440  139.5530 C   0  0  1  0  0  3  0  0  0  0  0  0
  182.2100  178.9950  144.3280 C   0  0  0  0  0  3  0  0  0  0  0  0
  183.5570  179.1300  144.6700 C   0  0  0  0  0  3  0  0  0  0  0  0
  185.8090  178.1930  139.0370 C   0  0  0  0  0  0  0  0  0  0  0  0
  187.1510  178.1480  139.4110 C   0  0  0  0  0  0  0  0  0  0  0  0
  181.8060  179.9390  138.3790 N   0  0  1  0  0  0  0  0  0  0  0  0
  181.0770  178.4470  140.2240 C   0  0  0  0  0  2  0  0  0  0  0  0
  188.8370  178.2790  141.0120 C   0  0  0  0  0  0  0  0  0  0  0  0
  179.3900  179.8970  139.0490 C   0  0  2  0  0  3  0  0  0  0  0  0
  181.8480  178.7420  143.0030 C   0  0  0  0  0  3  0  0  0  0  0  0
  182.4730  178.3730  140.6380 N   0  0  0  0  0  0  0  0  0  0  0  0
  182.8320  178.6280  142.0060 C   0  0  0  0  0  0  0  0  0  0  0  0
  185.2090  178.5940  141.3120 C   0  0  0  0  0  0  0  0  0  0  0  0
  189.6100  177.9830  139.5500 S   0  0  0  0  0  0  0  0  0  0  0  0
  180.8220  182.5060  138.6690 S   0  0  0  0  0  0  0  0  0  0  0  0
  180.8510  179.7790  139.5010 C   0  0  2  0  0  3  0  0  0  0  0  0
  188.2360  177.9270  138.5630 C   0  0  0  0  0  3  0  0  0  0  0  0
  181.6680  181.2260  137.6790 C   0  0  0  0  0  2  0  0  0  0  0  0
  184.5400  179.0110  143.6850 C   0  0  0  0  0  3  0  0  0  0  0  0
  184.1810  178.7610  142.3520 C   0  0  0  0  0  0  0  0  0  0  0  0
  186.5230  178.5530  141.6790 N   0  0  0  0  0  0  0  0  0  0  0  0
  183.1800  179.8940  138.8870 C   0  0  0  0  0  2  0  0  0  0  0  0
  185.4890  178.0210  137.8270 O   0  0  0  0  0  0  0  0  0  0  0  0
  189.5030  178.4370  142.3340 C   0  0  0  0  0  1  0  0  0  0  0  0
  184.8480  178.4280  139.9910 N   0  0  0  0  0  0  0  0  0  0  0  0
  187.4810  178.3400  140.7500 C   0  0  0  0  0  0  0  0  0  0  0  0
  179.0780  178.8900  138.1300 O   0  0  0  0  0  0  0  0  0  0  0  0
  178.9310  179.5520  136.9090 C   0  0  0  0  0  2  0  0  0  0  0  0
  179.4530  178.6940  135.8120 C   0  0  0  0  0  0  0  0  0  0  0  0
  178.9350  177.5670  135.5950 O   0  0  0  0  0  0  0  0  0  0  0  0
  180.5090  179.1630  134.9830 N   0  0  0  0  0  1  0  0  0  0  0  0
  1 16  1  0  0  0  0
  1 10  1  0  0  0  0
  2 23  1  1  0  0  0
  2 26  1  0  0  0  0
  2 12  1  0  0  0  0
  3  4  1  0  0  0  0
  5  6  1  0  0  0  0
  5 26  1  0  0  0  0
  6 27  1  0  0  0  0
  7 19  1  1  0  0  0
  7 23  1  0  0  0  0
  7 17  1  0  0  0  0
  8 12  1  0  0  0  0
  9 25  1  0  0  0  0
 10 28  1  6  0  0  0
 10 17  1  0  0  0  0
 11  3  2  0  0  0  0
 12 13  1  0  0  0  0
 13 21  2  0  0  0  0
 13 11  1  0  0  0  0
 14 22  2  0  0  0  0
 14 21  1  0  0  0  0
 15  9  1  0  0  0  0
 17  8  1  6  0  0  0
 18  6  2  0  0  0  0
 18 15  1  0  0  0  0
 19 16  1  0  0  0  0
 20  4  2  0  0  0  0
 21 20  1  0  0  0  0
 24  5  2  0  0  0  0
 26 14  1  0  0  0  0
 27  9  2  0  0  0  0
 27 22  1  0  0  0  0
 29 28  1  0  0  0  0
 30 29  1  0  0  0  0
 31 30  2  0  0  0  0
 32 30  1  0  0  0  0
M  END
>  <MODEL>
4

>  <REMARK>
 VINA RESULT:      -5.9      3.175      5.121
  Name = 
  3 active torsions:
  status: ('A' for Active; 'I' for Inactive)
    1  A    between atoms: C_10  and  O_20
    2  A    between atoms: O_20  and  C_29
    3  A    between atoms: C_29  and  C_30
                            x       y       z     vdW  Elec       q    Type
                         _______ _______ _______ _____ _____    ______ ____

>  <TORSDO>
F 3

$$$$
=
 OpenBabel11122410443D

 32 37  0  0  1  0  0  0  0  0999 V2000
  179.4880  177.6850  136.8250 S   0  0  0  0  0  0  0  0  0  0  0  0
  183.0290  179.2360  140.7790 C   0  0  1  0  0  3  0  0  0  0  0  0
  186.6960  178.4140  137.5540 C   0  0  0  0  0  3  0  0  0  0  0  0
  187.4900  177.8970  138.5790 C   0  0  0  0  0  3  0  0  0  0  0  0
  183.5710  179.0540  143.1590 C   0  0  0  0  0  0  0  0  0  0  0  0
  184.4350  178.7050  144.1950 C   0  0  0  0  0  0  0  0  0  0  0  0
  181.0170  178.4850  139.6010 N   0  0  1  0  0  0  0  0  0  0  0  0
  182.7330  179.8240  138.4080 C   0  0  0  0  0  2  0  0  0  0  0  0
  186.4830  177.9220  144.9790 C   0  0  0  0  0  0  0  0  0  0  0  0
  180.6870  179.0340  137.1760 C   0  0  2  0  0  3  0  0  0  0  0  0
  185.4360  178.9410  137.8460 C   0  0  0  0  0  3  0  0  0  0  0  0
  183.6600  179.4840  139.4810 N   0  0  0  0  0  0  0  0  0  0  0  0
  184.9570  178.9500  139.1670 C   0  0  0  0  0  0  0  0  0  0  0  0
  185.2690  178.4870  141.5800 C   0  0  0  0  0  0  0  0  0  0  0  0
  185.5510  178.2250  146.3440 S   0  0  0  0  0  0  0  0  0  0  0  0
  180.2830  176.2330  138.1750 S   0  0  0  0  0  0  0  0  0  0  0  0
  181.6840  178.7130  138.2970 C   0  0  2  0  0  3  0  0  0  0  0  0
  184.1530  178.7680  145.5600 C   0  0  0  0  0  3  0  0  0  0  0  0
  180.0340  177.3900  139.5650 C   0  0  0  0  0  2  0  0  0  0  0  0
  187.0230  177.9080  139.8950 C   0  0  0  0  0  3  0  0  0  0  0  0
  185.7570  178.4320  140.1920 C   0  0  0  0  0  0  0  0  0  0  0  0
  186.1150  178.1430  142.5930 N   0  0  0  0  0  0  0  0  0  0  0  0
  182.0130  178.1080  140.6080 C   0  0  0  0  0  2  0  0  0  0  0  0
  182.4100  179.4760  143.4250 O   0  0  0  0  0  0  0  0  0  0  0  0
  187.8810  177.4090  144.9740 C   0  0  0  0  0  1  0  0  0  0  0  0
  183.9920  178.9310  141.8560 N   0  0  0  0  0  0  0  0  0  0  0  0
  185.7100  178.2420  143.8790 C   0  0  0  0  0  0  0  0  0  0  0  0
  179.9870  180.2100  137.4630 O   0  0  0  0  0  0  0  0  0  0  0  0
  179.9070  180.8860  136.2440 C   0  0  0  0  0  2  0  0  0  0  0  0
  179.8470  182.3510  136.4910 C   0  0  0  0  0  0  0  0  0  0  0  0
  178.9300  183.0400  135.9720 O   0  0  0  0  0  0  0  0  0  0  0  0
  180.8010  182.9680  137.3470 N   0  0  0  0  0  1  0  0  0  0  0  0
  1 10  1  0  0  0  0
  1 16  1  0  0  0  0
  2 23  1  6  0  0  0
  2 26  1  0  0  0  0
  3 11  2  0  0  0  0
  3  4  1  0  0  0  0
  4 20  2  0  0  0  0
  5 24  2  0  0  0  0
  5  6  1  0  0  0  0
  6 18  2  0  0  0  0
  7 19  1  6  0  0  0
  7 23  1  0  0  0  0
  8 12  1  0  0  0  0
  9 15  1  0  0  0  0
 10 28  1  1  0  0  0
 10 17  1  0  0  0  0
 11 13  1  0  0  0  0
 12  2  1  0  0  0  0
 13 12  1  0  0  0  0
 13 21  2  0  0  0  0
 14 26  1  0  0  0  0
 14 22  2  0  0  0  0
 16 19  1  0  0  0  0
 17  8  1  1  0  0  0
 17  7  1  0  0  0  0
 18 15  1  0  0  0  0
 20 21  1  0  0  0  0
 21 14  1  0  0  0  0
 22 27  1  0  0  0  0
 25  9  1  0  0  0  0
 26  5  1  0  0  0  0
 27  6  1  0  0  0  0
 27  9  2  0  0  0  0
 29 30  1  0  0  0  0
 29 28  1  0  0  0  0
 30 32  1  0  0  0  0
 31 30  2  0  0  0  0
M  END
>  <MODEL>
5

>  <REMARK>
 VINA RESULT:      -5.8      1.639      2.266
  Name = 
  3 active torsions:
  status: ('A' for Active; 'I' for Inactive)
    1  A    between atoms: C_10  and  O_20
    2  A    between atoms: O_20  and  C_29
    3  A    between atoms: C_29  and  C_30
                            x       y       z     vdW  Elec       q    Type
                         _______ _______ _______ _____ _____    ______ ____

>  <TORSDO>
F 3

$$$$
=
 OpenBabel11122410443D

 32 37  0  0  1  0  0  0  0  0999 V2000
  180.3290  179.1980  139.9010 S   0  0  0  0  0  0  0  0  0  0  0  0
  184.8540  177.5560  137.1800 C   0  0  1  0  0  3  0  0  0  0  0  0
  182.7920  173.0660  136.8430 C   0  0  0  0  0  3  0  0  0  0  0  0
  184.0380  172.4710  137.0480 C   0  0  0  0  0  3  0  0  0  0  0  0
  187.2980  177.6720  137.1160 C   0  0  0  0  0  0  0  0  0  0  0  0
  188.5540  177.0680  137.1370 C   0  0  0  0  0  0  0  0  0  0  0  0
  183.2930  178.8280  138.5760 N   0  0  1  0  0  0  0  0  0  0  0  0
  182.4350  177.3430  136.7810 C   0  0  0  0  0  2  0  0  0  0  0  0
  189.9210  175.1840  137.1890 C   0  0  0  0  0  0  0  0  0  0  0  0
  180.8190  178.6190  138.2270 C   0  0  2  0  0  3  0  0  0  0  0  0
  182.6890  174.4560  136.7490 C   0  0  0  0  0  3  0  0  0  0  0  0
  183.7410  176.6950  136.7730 N   0  0  0  0  0  0  0  0  0  0  0  0
  183.8330  175.2640  136.8630 C   0  0  0  0  0  0  0  0  0  0  0  0
  186.2820  175.5120  137.1380 C   0  0  0  0  0  0  0  0  0  0  0  0
  190.9570  176.5060  137.1720 S   0  0  0  0  0  0  0  0  0  0  0  0
  181.9940  178.4070  140.9800 S   0  0  0  0  0  0  0  0  0  0  0  0
  182.1870  177.9260  138.1760 C   0  0  2  0  0  3  0  0  0  0  0  0
  189.7840  177.7260  137.1350 C   0  0  0  0  0  3  0  0  0  0  0  0
  183.1320  179.3770  139.9320 C   0  0  0  0  0  2  0  0  0  0  0  0
  185.1800  173.2670  137.1550 C   0  0  0  0  0  3  0  0  0  0  0  0
  185.0820  174.6640  137.0650 C   0  0  0  0  0  0  0  0  0  0  0  0
  187.5110  174.9200  137.1620 N   0  0  0  0  0  0  0  0  0  0  0  0
  184.5580  178.0870  138.5820 C   0  0  0  0  0  2  0  0  0  0  0  0
  187.2080  178.9320  137.0880 O   0  0  0  0  0  0  0  0  0  0  0  0
  190.3320  173.7530  137.2190 C   0  0  0  0  0  1  0  0  0  0  0  0
  186.1690  176.8870  137.1280 N   0  0  0  0  0  0  0  0  0  0  0  0
  188.6300  175.6780  137.1670 C   0  0  0  0  0  0  0  0  0  0  0  0
  180.7810  179.6960  137.3360 O   0  0  0  0  0  0  0  0  0  0  0  0
  180.2510  180.7550  138.0760 C   0  0  0  0  0  2  0  0  0  0  0  0
  180.9480  182.0160  137.7080 C   0  0  0  0  0  0  0  0  0  0  0  0
  181.9720  182.3770  138.3440 O   0  0  0  0  0  0  0  0  0  0  0  0
  180.4810  182.7930  136.6120 N   0  0  0  0  0  1  0  0  0  0  0  0
  1 16  1  0  0  0  0
  2 23  1  1  0  0  0
  3  4  1  0  0  0  0
  4 20  2  0  0  0  0
  5 26  1  0  0  0  0
  5  6  1  0  0  0  0
  6 27  1  0  0  0  0
  7 23  1  1  0  0  0
  7 19  1  0  0  0  0
  9 25  1  0  0  0  0
 10 28  1  6  0  0  0
 10  1  1  0  0  0  0
 11  3  2  0  0  0  0
 11 13  1  0  0  0  0
 12  8  1  0  0  0  0
 12 13  1  0  0  0  0
 12  2  1  0  0  0  0
 13 21  2  0  0  0  0
 14 22  2  0  0  0  0
 15  9  1  0  0  0  0
 17  8  1  6  0  0  0
 17 10  1  0  0  0  0
 17  7  1  0  0  0  0
 18  6  2  0  0  0  0
 18 15  1  0  0  0  0
 19 16  1  0  0  0  0
 21 14  1  0  0  0  0
 21 20  1  0  0  0  0
 22 27  1  0  0  0  0
 24  5  2  0  0  0  0
 26 14  1  0  0  0  0
 26  2  1  0  0  0  0
 27  9  2  0  0  0  0
 28 29  1  0  0  0  0
 30 29  1  0  0  0  0
 30 31  2  0  0  0  0
 32 30  1  0  0  0  0
M  END
>  <MODEL>
6

>  <REMARK>
 VINA RESULT:      -5.8      4.641      6.286
  Name = 
  3 active torsions:
  status: ('A' for Active; 'I' for Inactive)
    1  A    between atoms: C_10  and  O_20
    2  A    between atoms: O_20  and  C_29
    3  A    between atoms: C_29  and  C_30
                            x       y       z     vdW  Elec       q    Type
                         _______ _______ _______ _____ _____    ______ ____

>  <TORSDO>
F 3

$$$$
=
 OpenBabel11122410443D

 32 37  0  0  1  0  0  0  0  0999 V2000
  180.8900  177.4740  137.6610 S   0  0  0  0  0  0  0  0  0  0  0  0
  185.3800  178.6340  140.6740 C   0  0  1  0  0  3  0  0  0  0  0  0
  188.1000  177.6260  136.6610 C   0  0  0  0  0  3  0  0  0  0  0  0
  189.0690  177.0190  137.4620 C   0  0  0  0  0  3  0  0  0  0  0  0
  186.4520  178.3420  142.8540 C   0  0  0  0  0  0  0  0  0  0  0  0
  187.5060  177.8980  143.6520 C   0  0  0  0  0  0  0  0  0  0  0  0
  183.0910  178.0740  140.0010 N   0  0  1  0  0  0  0  0  0  0  0  0
  184.5800  179.3110  138.4470 C   0  0  0  0  0  2  0  0  0  0  0  0
  189.6100  176.9380  143.9180 C   0  0  0  0  0  0  0  0  0  0  0  0
  182.2430  178.7160  137.7300 C   0  0  2  0  0  3  0  0  0  0  0  0
  186.9920  178.2390  137.2490 C   0  0  0  0  0  3  0  0  0  0  0  0
  185.7040  178.8700  139.2650 N   0  0  0  0  0  0  0  0  0  0  0  0
  186.8410  178.2470  138.6460 C   0  0  0  0  0  0  0  0  0  0  0  0
  187.6760  177.6920  140.9110 C   0  0  0  0  0  0  0  0  0  0  0  0
  189.0550  177.2720  145.4680 S   0  0  0  0  0  0  0  0  0  0  0  0
  181.8600  175.9270  138.7690 S   0  0  0  0  0  0  0  0  0  0  0  0
  183.4480  178.2870  138.5780 C   0  0  2  0  0  3  0  0  0  0  0  0
  187.5600  177.9430  145.0450 C   0  0  0  0  0  3  0  0  0  0  0  0
  182.0420  177.0600  140.1900 C   0  0  0  0  0  2  0  0  0  0  0  0
  188.9290  177.0290  138.8510 C   0  0  0  0  0  3  0  0  0  0  0  0
  187.8160  177.6400  139.4470 C   0  0  0  0  0  0  0  0  0  0  0  0
  188.7070  177.2550  141.6910 N   0  0  0  0  0  0  0  0  0  0  0  0
  184.2630  177.5930  140.7380 C   0  0  0  0  0  2  0  0  0  0  0  0
  185.4260  178.8440  143.3930 O   0  0  0  0  0  0  0  0  0  0  0  0
  190.9200  176.3190  143.5750 C   0  0  0  0  0  1  0  0  0  0  0  0
  186.5420  178.2240  141.4880 N   0  0  0  0  0  0  0  0  0  0  0  0
  188.6270  177.3470  143.0370 C   0  0  0  0  0  0  0  0  0  0  0  0
  181.7300  179.9340  138.1870 O   0  0  0  0  0  0  0  0  0  0  0  0
  180.5190  180.0890  137.5090 C   0  0  0  0  0  2  0  0  0  0  0  0
  180.5490  181.3500  136.7200 C   0  0  0  0  0  0  0  0  0  0  0  0
  180.8510  182.4350  137.2810 O   0  0  0  0  0  0  0  0  0  0  0  0
  180.2780  181.3230  135.3240 N   0  0  0  0  0  1  0  0  0  0  0  0
  1 10  1  0  0  0  0
  1 16  1  0  0  0  0
  2 23  1  6  0  0  0
  2 26  1  0  0  0  0
  3 11  2  0  0  0  0
  3  4  1  0  0  0  0
  4 20  2  0  0  0  0
  5 24  2  0  0  0  0
  5  6  1  0  0  0  0
  6 18  2  0  0  0  0
  7 19  1  6  0  0  0
  7 23  1  0  0  0  0
  8 12  1  0  0  0  0
  9 15  1  0  0  0  0
 10 28  1  1  0  0  0
 10 17  1  0  0  0  0
 11 13  1  0  0  0  0
 12  2  1  0  0  0  0
 13 12  1  0  0  0  0
 13 21  2  0  0  0  0
 14 26  1  0  0  0  0
 14 22  2  0  0  0  0
 16 19  1  0  0  0  0
 17  8  1  1  0  0  0
 17  7  1  0  0  0  0
 18 15  1  0  0  0  0
 20 21  1  0  0  0  0
 21 14  1  0  0  0  0
 22 27  1  0  0  0  0
 25  9  1  0  0  0  0
 26  5  1  0  0  0  0
 27  6  1  0  0  0  0
 27  9  2  0  0  0  0
 29 28  1  0  0  0  0
 30 31  2  0  0  0  0
 30 29  1  0  0  0  0
 32 30  1  0  0  0  0
M  END
>  <MODEL>
7

>  <REMARK>
 VINA RESULT:      -5.7      1.574      2.001
  Name = 
  3 active torsions:
  status: ('A' for Active; 'I' for Inactive)
    1  A    between atoms: C_10  and  O_20
    2  A    between atoms: O_20  and  C_29
    3  A    between atoms: C_29  and  C_30
                            x       y       z     vdW  Elec       q    Type
                         _______ _______ _______ _____ _____    ______ ____

>  <TORSDO>
F 3

$$$$
=
 OpenBabel11122410443D

 32 37  0  0  1  0  0  0  0  0999 V2000
  187.7740  173.1230  136.3240 S   0  0  0  0  0  0  0  0  0  0  0  0
  184.5270  177.5280  137.1230 C   0  0  1  0  0  3  0  0  0  0  0  0
  187.3170  178.6330  141.0620 C   0  0  0  0  0  3  0  0  0  0  0  0
  186.1790  179.0450  141.7600 C   0  0  0  0  0  3  0  0  0  0  0  0
  182.2140  178.3290  137.1290 C   0  0  0  0  0  0  0  0  0  0  0  0
  181.1210  178.9090  137.7690 C   0  0  0  0  0  0  0  0  0  0  0  0
  185.4020  175.3710  136.3560 N   0  0  1  0  0  0  0  0  0  0  0  0
  186.9610  177.1780  137.0400 C   0  0  0  0  0  2  0  0  0  0  0  0
  180.1260  179.9150  139.6190 C   0  0  0  0  0  0  0  0  0  0  0  0
  187.8750  174.9580  136.2850 C   0  0  2  0  0  3  0  0  0  0  0  0
  187.2100  178.2310  139.7290 C   0  0  0  0  0  3  0  0  0  0  0  0
  185.8360  177.8150  137.7140 N   0  0  0  0  0  0  0  0  0  0  0  0
  185.9620  178.2310  139.0830 C   0  0  0  0  0  0  0  0  0  0  0  0
  183.5280  178.6890  139.0900 C   0  0  0  0  0  0  0  0  0  0  0  0
  178.9320  179.8310  138.4410 S   0  0  0  0  0  0  0  0  0  0  0  0
  186.0290  172.9550  137.5450 S   0  0  0  0  0  0  0  0  0  0  0  0
  186.7100  175.6670  136.9890 C   0  0  2  0  0  3  0  0  0  0  0  0
  179.8490  179.0900  137.2260 C   0  0  0  0  0  3  0  0  0  0  0  0
  185.0840  173.9350  136.3270 C   0  0  0  0  0  2  0  0  0  0  0  0
  184.9370  179.0540  141.1230 C   0  0  0  0  0  3  0  0  0  0  0  0
  184.8240  178.6470  139.7850 C   0  0  0  0  0  0  0  0  0  0  0  0
  182.4570  179.2550  139.7180 N   0  0  0  0  0  0  0  0  0  0  0  0
  184.3270  176.0120  137.1190 C   0  0  0  0  0  2  0  0  0  0  0  0
  182.0980  177.9130  135.9420 O   0  0  0  0  0  0  0  0  0  0  0  0
  179.9670  180.4880  140.9840 C   0  0  0  0  0  1  0  0  0  0  0  0
  183.4090  178.2130  137.8000 N   0  0  0  0  0  0  0  0  0  0  0  0
  181.2710  179.3600  139.0790 C   0  0  0  0  0  0  0  0  0  0  0  0
  187.9810  175.3870  134.9580 O   0  0  0  0  0  0  0  0  0  0  0  0
  189.3210  175.1860  134.6230 C   0  0  0  0  0  2  0  0  0  0  0  0
  190.1250  176.3580  135.0630 C   0  0  0  0  0  0  0  0  0  0  0  0
  189.8570  177.5050  134.6230 O   0  0  0  0  0  0  0  0  0  0  0  0
  191.1700  176.1880  136.0140 N   0  0  0  0  0  1  0  0  0  0  0  0
  1 16  1  0  0  0  0
  2 23  1  1  0  0  0
  2 12  1  0  0  0  0
  2 26  1  0  0  0  0
  3  4  1  0  0  0  0
  5  6  1  0  0  0  0
  5 26  1  0  0  0  0
  6 27  1  0  0  0  0
  7 19  1  1  0  0  0
  7 17  1  0  0  0  0
  7 23  1  0  0  0  0
  8 12  1  0  0  0  0
  9 25  1  0  0  0  0
 10 28  1  6  0  0  0
 10  1  1  0  0  0  0
 10 17  1  0  0  0  0
 11  3  2  0  0  0  0
 12 13  1  0  0  0  0
 13 11  1  0  0  0  0
 13 21  2  0  0  0  0
 14 22  2  0  0  0  0
 14 21  1  0  0  0  0
 15  9  1  0  0  0  0
 17  8  1  6  0  0  0
 18  6  2  0  0  0  0
 18 15  1  0  0  0  0
 19 16  1  0  0  0  0
 20  4  2  0  0  0  0
 21 20  1  0  0  0  0
 24  5  2  0  0  0  0
 26 14  1  0  0  0  0
 27  9  2  0  0  0  0
 27 22  1  0  0  0  0
 29 28  1  0  0  0  0
 29 30  1  0  0  0  0
 30 32  1  0  0  0  0
 31 30  2  0  0  0  0
M  END
>  <MODEL>
8

>  <REMARK>
 VINA RESULT:      -5.4      4.094      7.554
  Name = 
  3 active torsions:
  status: ('A' for Active; 'I' for Inactive)
    1  A    between atoms: C_10  and  O_20
    2  A    between atoms: O_20  and  C_29
    3  A    between atoms: C_29  and  C_30
                            x       y       z     vdW  Elec       q    Type
                         _______ _______ _______ _____ _____    ______ ____

>  <TORSDO>
F 3

$$$$
=
 OpenBabel11122410443D

 32 37  0  0  1  0  0  0  0  0999 V2000
  188.7550  177.9200  135.9900 S   0  0  0  0  0  0  0  0  0  0  0  0
  184.9600  174.0950  137.2360 C   0  0  1  0  0  3  0  0  0  0  0  0
  187.9540  170.7280  135.1820 C   0  0  0  0  0  3  0  0  0  0  0  0
  186.8490  170.0640  134.6450 C   0  0  0  0  0  3  0  0  0  0  0  0
  182.5650  173.5940  137.2650 C   0  0  0  0  0  0  0  0  0  0  0  0
  181.4700  172.8230  136.8780 C   0  0  0  0  0  0  0  0  0  0  0  0
  186.0750  176.2330  136.8000 N   0  0  1  0  0  0  0  0  0  0  0  0
  187.3950  174.2670  137.5450 C   0  0  0  0  0  2  0  0  0  0  0  0
  180.5370  170.9990  135.7710 C   0  0  0  0  0  0  0  0  0  0  0  0
  188.5600  176.4460  137.0710 C   0  0  2  0  0  3  0  0  0  0  0  0
  187.7660  171.8350  136.0120 C   0  0  0  0  0  3  0  0  0  0  0  0
  186.2640  173.4330  137.1570 N   0  0  0  0  0  0  0  0  0  0  0  0
  186.4710  172.2920  136.3080 C   0  0  0  0  0  0  0  0  0  0  0  0
  184.0110  172.0770  136.1220 C   0  0  0  0  0  0  0  0  0  0  0  0
  179.2490  171.8300  136.4590 S   0  0  0  0  0  0  0  0  0  0  0  0
  187.2020  177.4640  134.5950 S   0  0  0  0  0  0  0  0  0  0  0  0
  187.3810  175.5390  136.6920 C   0  0  2  0  0  3  0  0  0  0  0  0
  180.1330  173.0760  137.1880 C   0  0  0  0  0  3  0  0  0  0  0  0
  185.9870  177.4370  135.9590 C   0  0  0  0  0  2  0  0  0  0  0  0
  185.5590  170.5080  134.9410 C   0  0  0  0  0  3  0  0  0  0  0  0
  185.3660  171.6220  135.7710 C   0  0  0  0  0  0  0  0  0  0  0  0
  182.9390  171.3240  135.7400 N   0  0  0  0  0  0  0  0  0  0  0  0
  185.0030  175.3410  136.3520 C   0  0  0  0  0  2  0  0  0  0  0  0
  182.3870  174.6280  137.9680 O   0  0  0  0  0  0  0  0  0  0  0  0
  180.4390  169.7520  134.9630 C   0  0  0  0  0  1  0  0  0  0  0  0
  183.8280  173.2190  136.8740 N   0  0  0  0  0  0  0  0  0  0  0  0
  181.6890  171.6870  136.1020 C   0  0  0  0  0  0  0  0  0  0  0  0
  188.4510  176.8620  138.4020 O   0  0  0  0  0  0  0  0  0  0  0  0
  189.5820  177.6500  138.6250 C   0  0  0  0  0  2  0  0  0  0  0  0
  190.6780  176.8040  139.1690 C   0  0  0  0  0  0  0  0  0  0  0  0
  190.5340  176.2260  140.2780 O   0  0  0  0  0  0  0  0  0  0  0  0
  191.8710  176.6150  138.4180 N   0  0  0  0  0  1  0  0  0  0  0  0
  1 10  1  0  0  0  0
  2 23  1  6  0  0  0
  3 11  1  0  0  0  0
  4 20  1  0  0  0  0
  4  3  2  0  0  0  0
  5 24  2  0  0  0  0
  6 18  2  0  0  0  0
  6  5  1  0  0  0  0
  7 19  1  6  0  0  0
  9 27  2  0  0  0  0
  9 15  1  0  0  0  0
 10 28  1  1  0  0  0
 11 13  2  0  0  0  0
 12  2  1  0  0  0  0
 12  8  1  0  0  0  0
 13 12  1  0  0  0  0
 14 26  1  0  0  0  0
 15 18  1  0  0  0  0
 16 19  1  0  0  0  0
 16  1  1  0  0  0  0
 17  7  1  0  0  0  0
 17 10  1  0  0  0  0
 17  8  1  1  0  0  0
 20 21  2  0  0  0  0
 21 14  1  0  0  0  0
 21 13  1  0  0  0  0
 22 27  1  0  0  0  0
 22 14  2  0  0  0  0
 23  7  1  0  0  0  0
 25  9  1  0  0  0  0
 26  2  1  0  0  0  0
 26  5  1  0  0  0  0
 27  6  1  0  0  0  0
 28 29  1  0  0  0  0
 29 30  1  0  0  0  0
 30 31  2  0  0  0  0
 32 30  1  0  0  0  0
M  END
>  <MODEL>
9

>  <REMARK>
 VINA RESULT:      -5.1      6.396      9.651
  Name = 
  3 active torsions:
  status: ('A' for Active; 'I' for Inactive)
    1  A    between atoms: C_10  and  O_20
    2  A    between atoms: O_20  and  C_29
    3  A    between atoms: C_29  and  C_30
                            x       y       z     vdW  Elec       q    Type
                         _______ _______ _______ _____ _____    ______ ____

>  <TORSDO>
F 3

$$$$
