=
 OpenBabel11122411363D

 37 43  0  0  1  0  0  0  0  0999 V2000
  187.4080  178.0760  142.9300 C   0  0  1  0  0  0  0  0  0  0  0  0
  183.2800  178.5440  142.6880 C   0  0  0  0  0  0  0  0  0  0  0  0
  181.5290  177.0780  139.7160 C   0  0  1  0  0  3  0  0  0  0  0  0
  185.2340  178.7280  144.0840 C   0  0  0  0  0  0  0  0  0  0  0  0
  183.0550  178.3520  141.3430 C   0  0  0  0  0  0  0  0  0  0  0  0
  184.6310  178.5600  142.8550 C   0  0  0  0  0  0  0  0  0  0  0  0
  181.7760  178.1400  140.7100 N   0  0  0  0  0  0  0  0  0  0  0  0
  184.3950  178.9180  145.2000 C   0  0  0  0  0  3  0  0  0  0  0  0
  185.2790  178.3760  141.7020 N   0  0  0  0  0  0  0  0  0  0  0  0
  187.3570  176.5730  143.1410 C   0  0  0  0  0  1  0  0  0  0  0  0
  180.9340  178.7700  143.5390 C   0  0  0  0  0  2  0  0  0  0  0  0
  182.9840  178.9140  145.0360 C   0  0  0  0  0  3  0  0  0  0  0  0
  186.7330  178.4200  141.5780 C   0  0  0  0  0  2  0  0  0  0  0  0
  182.4810  177.1230  138.5200 C   0  0  2  0  0  0  0  0  0  0  0  0
  182.6580  176.0560  139.5890 C   0  0  0  0  0  2  0  0  0  0  0  0
  182.4100  178.7270  143.7580 C   0  0  0  0  0  0  0  0  0  0  0  0
  184.3180  178.2680  140.7560 C   0  0  0  0  0  0  0  0  0  0  0  0
  186.7380  178.7840  144.1380 C   0  0  0  0  0  2  0  0  0  0  0  0
  180.6040  178.9800  141.0120 C   0  0  1  0  0  3  0  0  0  0  0  0
  188.7450  178.4660  142.8710 O   0  0  0  0  0  1  0  0  0  0  0  0
  183.5290  178.2420  138.4290 C   0  0  0  0  0  2  0  0  0  0  0  0
  184.5700  178.1100  139.3940 O   0  0  0  0  0  0  0  0  0  0  0  0
  180.6190  179.7000  142.3720 C   0  0  0  0  0  2  0  0  0  0  0  0
  179.1760  179.8630  139.1610 C   0  0  0  0  0  3  0  0  0  0  0  0
  180.3600  179.9510  139.8990 C   0  0  0  0  0  0  0  0  0  0  0  0
  181.3260  180.9070  139.5550 C   0  0  0  0  0  3  0  0  0  0  0  0
  182.1260  182.7870  138.1200 C   0  0  0  0  0  1  0  0  0  0  0  0
  179.9140  181.6870  137.7500 C   0  0  0  0  0  3  0  0  0  0  0  0
  181.1010  181.7760  138.4830 C   0  0  0  0  0  0  0  0  0  0  0  0
  178.9520  180.7320  138.0880 C   0  0  0  0  0  3  0  0  0  0  0  0
  180.6090  175.4260  134.9270 O   0  0  0  0  0  0  0  0  0  0  0  0
  181.2700  174.7190  135.7340 C   0  0  0  0  0  0  0  0  0  0  0  0
  181.8360  176.6800  137.2520 C   0  0  0  0  0  0  0  0  0  0  0  0
  181.8770  175.2940  136.8950 N   0  0  0  0  0  2  0  0  0  0  0  0
  181.2300  177.5190  136.5310 O   0  0  0  0  0  0  0  0  0  0  0  0
  181.6820  172.6080  136.6950 O   0  0  0  0  0  1  0  0  0  0  0  0
  181.3940  173.2570  135.4940 C   0  0  0  0  0  2  0  0  0  0  0  0
  1 10  1  1  0  0  0
  1 18  1  0  0  0  0
  2  6  2  0  0  0  0
  2 16  1  0  0  0  0
  3 15  1  1  0  0  0
  3  7  1  0  0  0  0
  4 18  1  0  0  0  0
  4  8  2  0  0  0  0
  5  2  1  0  0  0  0
  6  4  1  0  0  0  0
  7 19  1  0  0  0  0
  7  5  1  0  0  0  0
  9  6  1  0  0  0  0
 11 16  1  0  0  0  0
 12  8  1  0  0  0  0
 13  9  1  0  0  0  0
 13  1  1  0  0  0  0
 14 33  1  6  0  0  0
 14 15  1  0  0  0  0
 14  3  1  0  0  0  0
 16 12  2  0  0  0  0
 17  5  2  0  0  0  0
 17  9  1  0  0  0  0
 19 25  1  6  0  0  0
 19 23  1  0  0  0  0
 20  1  1  0  0  0  0
 21 14  1  0  0  0  0
 21 22  1  0  0  0  0
 22 17  1  0  0  0  0
 23 11  1  0  0  0  0
 24 25  1  0  0  0  0
 26 25  2  0  0  0  0
 27 29  1  0  0  0  0
 28 30  1  0  0  0  0
 28 29  2  0  0  0  0
 29 26  1  0  0  0  0
 30 24  2  0  0  0  0
 31 32  2  0  0  0  0
 32 34  1  0  0  0  0
 34 33  1  0  0  0  0
 35 33  2  0  0  0  0
 37 32  1  0  0  0  0
 37 36  1  0  0  0  0
M  END
>  <MODEL>
1

>  <REMARK>
 VINA RESULT:      -6.9      0.000      0.000
  Name = 
  3 active torsions:
  status: ('A' for Active; 'I' for Inactive)
    1  A    between atoms: C_4  and  C_37
    2  A    between atoms: C_8  and  C_18
    3  A    between atoms: C_23  and  C_30
                            x       y       z     vdW  Elec       q    Type
                         _______ _______ _______ _____ _____    ______ ____

>  <TORSDO>
F 3

$$$$
=
 OpenBabel11122411363D

 37 43  0  0  1  0  0  0  0  0999 V2000
  185.0180  172.2530  136.0880 C   0  0  1  0  0  0  0  0  0  0  0  0
  186.5600  175.9640  137.1700 C   0  0  0  0  0  0  0  0  0  0  0  0
  190.2010  176.5920  136.5410 C   0  0  1  0  0  3  0  0  0  0  0  0
  184.5710  174.6520  136.8140 C   0  0  0  0  0  0  0  0  0  0  0  0
  187.9070  175.6910  137.2640 C   0  0  0  0  0  0  0  0  0  0  0  0
  185.9380  174.7720  136.9640 C   0  0  0  0  0  0  0  0  0  0  0  0
  188.9730  176.6590  137.3550 N   0  0  0  0  0  0  0  0  0  0  0  0
  183.8020  175.8290  136.9110 C   0  0  0  0  0  3  0  0  0  0  0  0
  186.8060  173.7580  136.9070 N   0  0  0  0  0  0  0  0  0  0  0  0
  185.1800  172.4750  134.5940 C   0  0  0  0  0  1  0  0  0  0  0  0
  186.5450  178.4400  137.5610 C   0  0  0  0  0  2  0  0  0  0  0  0
  184.4400  177.0780  137.1360 C   0  0  0  0  0  3  0  0  0  0  0  0
  186.4070  172.3600  136.7690 C   0  0  0  0  0  2  0  0  0  0  0  0
  190.9530  175.2660  136.6720 C   0  0  2  0  0  0  0  0  0  0  0  0
  190.1560  175.5630  135.4120 C   0  0  0  0  0  2  0  0  0  0  0  0
  185.8450  177.1530  137.2710 C   0  0  0  0  0  0  0  0  0  0  0  0
  188.0250  174.3090  137.1130 C   0  0  0  0  0  0  0  0  0  0  0  0
  183.9910  173.2740  136.6470 C   0  0  0  0  0  2  0  0  0  0  0  0
  188.9140  177.8030  138.2810 C   0  0  1  0  0  3  0  0  0  0  0  0
  184.5230  170.9660  136.2900 O   0  0  0  0  0  1  0  0  0  0  0  0
  190.4240  174.1880  137.6300 C   0  0  0  0  0  2  0  0  0  0  0  0
  189.2140  173.5860  137.1760 O   0  0  0  0  0  0  0  0  0  0  0  0
  187.5090  178.2430  138.7270 C   0  0  0  0  0  2  0  0  0  0  0  0
  191.1790  177.7200  139.3360 C   0  0  0  0  0  3  0  0  0  0  0  0
  189.7960  177.5590  139.4650 C   0  0  0  0  0  0  0  0  0  0  0  0
  189.2570  177.1170  140.6830 C   0  0  0  0  0  3  0  0  0  0  0  0
  189.5270  176.3820  143.0530 C   0  0  0  0  0  1  0  0  0  0  0  0
  191.4820  177.0160  141.6330 C   0  0  0  0  0  3  0  0  0  0  0  0
  190.1000  176.8500  141.7650 C   0  0  0  0  0  0  0  0  0  0  0  0
  192.0210  177.4510  140.4190 C   0  0  0  0  0  3  0  0  0  0  0  0
  195.3410  175.4410  136.6550 O   0  0  0  0  0  0  0  0  0  0  0  0
  194.6970  174.9020  137.5940 C   0  0  0  0  0  0  0  0  0  0  0  0
  192.4300  175.4270  136.5670 C   0  0  0  0  0  0  0  0  0  0  0  0
  193.2680  174.8630  137.5830 N   0  0  0  0  0  2  0  0  0  0  0  0
  192.9270  176.0200  135.5710 O   0  0  0  0  0  0  0  0  0  0  0  0
  195.7290  175.2280  139.6870 O   0  0  0  0  0  1  0  0  0  0  0  0
  195.4350  174.2680  138.7190 C   0  0  0  0  0  2  0  0  0  0  0  0
  1 10  1  6  0  0  0
  1 20  1  0  0  0  0
  1 18  1  0  0  0  0
  1 13  1  0  0  0  0
  2  5  1  0  0  0  0
  2 16  1  0  0  0  0
  3 15  1  6  0  0  0
  3 14  1  0  0  0  0
  3  7  1  0  0  0  0
  4  8  2  0  0  0  0
  4  6  1  0  0  0  0
  5  7  1  0  0  0  0
  6  2  2  0  0  0  0
  7 19  1  0  0  0  0
  8 12  1  0  0  0  0
  9  6  1  0  0  0  0
  9 17  1  0  0  0  0
 11 23  1  0  0  0  0
 12 16  2  0  0  0  0
 13  9  1  0  0  0  0
 14 33  1  6  0  0  0
 14 21  1  0  0  0  0
 15 14  1  0  0  0  0
 16 11  1  0  0  0  0
 17 22  1  0  0  0  0
 17  5  2  0  0  0  0
 18  4  1  0  0  0  0
 19 23  1  0  0  0  0
 19 25  1  1  0  0  0
 22 21  1  0  0  0  0
 24 25  2  0  0  0  0
 24 30  1  0  0  0  0
 25 26  1  0  0  0  0
 26 29  2  0  0  0  0
 28 29  1  0  0  0  0
 29 27  1  0  0  0  0
 30 28  2  0  0  0  0
 31 32  2  0  0  0  0
 32 37  1  0  0  0  0
 33 34  1  0  0  0  0
 34 32  1  0  0  0  0
 35 33  2  0  0  0  0
 37 36  1  0  0  0  0
M  END
>  <MODEL>
2

>  <REMARK>
 VINA RESULT:      -6.8      5.764     10.013
  Name = 
  3 active torsions:
  status: ('A' for Active; 'I' for Inactive)
    1  A    between atoms: C_4  and  C_37
    2  A    between atoms: C_8  and  C_18
    3  A    between atoms: C_23  and  C_30
                            x       y       z     vdW  Elec       q    Type
                         _______ _______ _______ _____ _____    ______ ____

>  <TORSDO>
F 3

$$$$
=
 OpenBabel11122411363D

 37 43  0  0  1  0  0  0  0  0999 V2000
  181.2460  173.8010  137.2700 C   0  0  1  0  0  0  0  0  0  0  0  0
  183.4230  177.2100  138.2460 C   0  0  0  0  0  0  0  0  0  0  0  0
  186.7210  177.7230  136.5410 C   0  0  1  0  0  3  0  0  0  0  0  0
  181.3010  176.0810  138.4000 C   0  0  0  0  0  0  0  0  0  0  0  0
  184.6950  176.8520  137.8570 C   0  0  0  0  0  0  0  0  0  0  0  0
  182.6490  176.1000  138.1060 C   0  0  0  0  0  0  0  0  0  0  0  0
  185.8280  177.7330  137.7140 N   0  0  0  0  0  0  0  0  0  0  0  0
  180.7270  177.2700  138.8930 C   0  0  0  0  0  3  0  0  0  0  0  0
  183.3450  175.0610  137.6400 N   0  0  0  0  0  0  0  0  0  0  0  0
  180.9470  174.2390  135.8470 C   0  0  0  0  0  1  0  0  0  0  0  0
  183.7870  179.5930  138.9320 C   0  0  0  0  0  2  0  0  0  0  0  0
  181.5280  178.4320  139.0530 C   0  0  0  0  0  3  0  0  0  0  0  0
  182.7820  173.7250  137.4640 C   0  0  0  0  0  2  0  0  0  0  0  0
  187.3350  176.3530  136.2480 C   0  0  2  0  0  0  0  0  0  0  0  0
  186.2140  176.8830  135.3680 C   0  0  0  0  0  2  0  0  0  0  0  0
  182.9030  178.4070  138.7270 C   0  0  0  0  0  0  0  0  0  0  0  0
  184.6160  175.5050  137.5010 C   0  0  0  0  0  0  0  0  0  0  0  0
  180.5600  174.7790  138.2600 C   0  0  0  0  0  2  0  0  0  0  0  0
  186.1840  178.7230  138.7460 C   0  0  1  0  0  3  0  0  0  0  0  0
  180.7110  172.5270  137.4580 O   0  0  0  0  0  1  0  0  0  0  0  0
  187.0300  175.1720  137.1820 C   0  0  0  0  0  2  0  0  0  0  0  0
  185.6830  174.7150  137.0780 O   0  0  0  0  0  0  0  0  0  0  0  0
  185.0460  179.1670  139.6810 C   0  0  0  0  0  2  0  0  0  0  0  0
  188.6090  178.1400  138.9040 C   0  0  0  0  0  3  0  0  0  0  0  0
  187.3660  178.2510  139.5330 C   0  0  0  0  0  0  0  0  0  0  0  0
  187.2280  177.8670  140.8760 C   0  0  0  0  0  3  0  0  0  0  0  0
  188.1840  176.9790  143.0040 C   0  0  0  0  0  1  0  0  0  0  0  0
  189.5750  177.2800  140.9510 C   0  0  0  0  0  3  0  0  0  0  0  0
  188.3330  177.3850  141.5830 C   0  0  0  0  0  0  0  0  0  0  0  0
  189.7140  177.6570  139.6120 C   0  0  0  0  0  3  0  0  0  0  0  0
  191.4980  176.3150  134.8480 O   0  0  0  0  0  0  0  0  0  0  0  0
  191.1520  175.7730  135.9320 C   0  0  0  0  0  0  0  0  0  0  0  0
  188.7110  176.4460  135.6850 C   0  0  0  0  0  0  0  0  0  0  0  0
  189.7920  175.8040  136.3720 N   0  0  0  0  0  2  0  0  0  0  0  0
  188.9040  177.0510  134.5950 O   0  0  0  0  0  0  0  0  0  0  0  0
  191.6310  174.7580  138.0030 O   0  0  0  0  0  1  0  0  0  0  0  0
  192.1680  175.0620  136.7530 C   0  0  0  0  0  2  0  0  0  0  0  0
  1 10  1  6  0  0  0
  1 20  1  0  0  0  0
  1 13  1  0  0  0  0
  1 18  1  0  0  0  0
  2 16  1  0  0  0  0
  3 15  1  6  0  0  0
  3  7  1  0  0  0  0
  4  8  2  0  0  0  0
  5  2  1  0  0  0  0
  6  2  2  0  0  0  0
  6  4  1  0  0  0  0
  7  5  1  0  0  0  0
  7 19  1  0  0  0  0
  8 12  1  0  0  0  0
  9  6  1  0  0  0  0
 11 23  1  0  0  0  0
 13  9  1  0  0  0  0
 14 33  1  6  0  0  0
 14  3  1  0  0  0  0
 14 21  1  0  0  0  0
 15 14  1  0  0  0  0
 16 11  1  0  0  0  0
 16 12  2  0  0  0  0
 17  9  1  0  0  0  0
 17  5  2  0  0  0  0
 18  4  1  0  0  0  0
 19 25  1  1  0  0  0
 19 23  1  0  0  0  0
 22 21  1  0  0  0  0
 22 17  1  0  0  0  0
 24 25  2  0  0  0  0
 24 30  1  0  0  0  0
 25 26  1  0  0  0  0
 26 29  2  0  0  0  0
 28 29  1  0  0  0  0
 29 27  1  0  0  0  0
 30 28  2  0  0  0  0
 31 32  2  0  0  0  0
 32 34  1  0  0  0  0
 32 37  1  0  0  0  0
 33 34  1  0  0  0  0
 35 33  2  0  0  0  0
 37 36  1  0  0  0  0
M  END
>  <MODEL>
3

>  <REMARK>
 VINA RESULT:      -5.7      3.975      7.799
  Name = 
  3 active torsions:
  status: ('A' for Active; 'I' for Inactive)
    1  A    between atoms: C_4  and  C_37
    2  A    between atoms: C_8  and  C_18
    3  A    between atoms: C_23  and  C_30
                            x       y       z     vdW  Elec       q    Type
                         _______ _______ _______ _____ _____    ______ ____

>  <TORSDO>
F 3

$$$$
=
 OpenBabel11122411363D

 37 43  0  0  1  0  0  0  0  0999 V2000
  179.9420  182.7560  137.3060 C   0  0  1  0  0  0  0  0  0  0  0  0
  181.1050  178.7620  137.2140 C   0  0  0  0  0  0  0  0  0  0  0  0
  183.2560  177.5050  140.0140 C   0  0  1  0  0  3  0  0  0  0  0  0
  179.6500  180.4420  136.2850 C   0  0  0  0  0  0  0  0  0  0  0  0
  182.2060  178.7720  138.0410 C   0  0  0  0  0  0  0  0  0  0  0  0
  180.7310  180.0600  137.0540 C   0  0  0  0  0  0  0  0  0  0  0  0
  182.8730  177.6180  138.5950 N   0  0  0  0  0  0  0  0  0  0  0  0
  178.9330  179.4270  135.6210 C   0  0  0  0  0  3  0  0  0  0  0  0
  181.5160  180.8950  137.7390 N   0  0  0  0  0  0  0  0  0  0  0  0
  179.0440  182.6030  138.5220 C   0  0  0  0  0  1  0  0  0  0  0  0
  180.8990  176.3130  136.7200 C   0  0  0  0  0  2  0  0  0  0  0  0
  179.3220  178.0690  135.7730 C   0  0  0  0  0  3  0  0  0  0  0  0
  181.3870  182.3490  137.6900 C   0  0  0  0  0  2  0  0  0  0  0  0
  184.1350  178.6560  140.5060 C   0  0  2  0  0  0  0  0  0  0  0  0
  182.6720  178.5940  140.9150 C   0  0  0  0  0  2  0  0  0  0  0  0
  180.4290  177.7240  136.5810 C   0  0  0  0  0  0  0  0  0  0  0  0
  182.4460  180.1140  138.3370 C   0  0  0  0  0  0  0  0  0  0  0  0
  179.3660  181.9130  136.1370 C   0  0  0  0  0  2  0  0  0  0  0  0
  183.2260  176.4490  137.7700 C   0  0  1  0  0  3  0  0  0  0  0  0
  179.9440  184.0980  136.9290 O   0  0  0  0  0  1  0  0  0  0  0  0
  184.5690  179.7520  139.5200 C   0  0  0  0  0  2  0  0  0  0  0  0
  183.4930  180.5970  139.1190 O   0  0  0  0  0  0  0  0  0  0  0  0
  182.4050  176.2520  136.4840 C   0  0  0  0  0  2  0  0  0  0  0  0
  185.3860  175.2360  137.4400 C   0  0  0  0  0  3  0  0  0  0  0  0
  184.6920  176.4490  137.4700 C   0  0  0  0  0  0  0  0  0  0  0  0
  185.3860  177.6530  137.2740 C   0  0  0  0  0  3  0  0  0  0  0  0
  187.4950  178.9130  136.8330 C   0  0  0  0  0  1  0  0  0  0  0  0
  187.4530  176.4220  137.0060 C   0  0  0  0  0  3  0  0  0  0  0  0
  186.7630  177.6380  137.0400 C   0  0  0  0  0  0  0  0  0  0  0  0
  186.7650  175.2210  137.2060 C   0  0  0  0  0  3  0  0  0  0  0  0
  187.3420  177.5850  143.3090 O   0  0  0  0  0  0  0  0  0  0  0  0
  187.5820  177.9540  142.1290 C   0  0  0  0  0  0  0  0  0  0  0  0
  185.1240  178.2290  141.5350 C   0  0  0  0  0  0  0  0  0  0  0  0
  186.5210  178.2920  141.2300 N   0  0  0  0  0  2  0  0  0  0  0  0
  184.7230  177.8560  142.6720 O   0  0  0  0  0  0  0  0  0  0  0  0
  189.6750  176.8890  141.9490 O   0  0  0  0  0  1  0  0  0  0  0  0
  188.9920  178.0720  141.6710 C   0  0  0  0  0  2  0  0  0  0  0  0
  1 13  1  0  0  0  0
  1 10  1  1  0  0  0
  2  5  1  0  0  0  0
  3 14  1  0  0  0  0
  3 15  1  1  0  0  0
  4  6  2  0  0  0  0
  5 17  2  0  0  0  0
  5  7  1  0  0  0  0
  6  2  1  0  0  0  0
  6  9  1  0  0  0  0
  7  3  1  0  0  0  0
  8 12  2  0  0  0  0
  8  4  1  0  0  0  0
  9 17  1  0  0  0  0
 12 16  1  0  0  0  0
 13  9  1  0  0  0  0
 14 15  1  0  0  0  0
 14 33  1  1  0  0  0
 16 11  1  0  0  0  0
 16  2  2  0  0  0  0
 17 22  1  0  0  0  0
 18  4  1  0  0  0  0
 18  1  1  0  0  0  0
 19 25  1  6  0  0  0
 19  7  1  0  0  0  0
 20  1  1  0  0  0  0
 21 14  1  0  0  0  0
 22 21  1  0  0  0  0
 23 11  1  0  0  0  0
 23 19  1  0  0  0  0
 24 25  1  0  0  0  0
 26 25  2  0  0  0  0
 27 29  1  0  0  0  0
 28 29  2  0  0  0  0
 28 30  1  0  0  0  0
 29 26  1  0  0  0  0
 30 24  2  0  0  0  0
 32 31  2  0  0  0  0
 33 35  2  0  0  0  0
 34 33  1  0  0  0  0
 34 32  1  0  0  0  0
 37 36  1  0  0  0  0
 37 32  1  0  0  0  0
M  END
>  <MODEL>
4

>  <REMARK>
 VINA RESULT:      -5.6      2.887      7.763
  Name = 
  3 active torsions:
  status: ('A' for Active; 'I' for Inactive)
    1  A    between atoms: C_4  and  C_37
    2  A    between atoms: C_8  and  C_18
    3  A    between atoms: C_23  and  C_30
                            x       y       z     vdW  Elec       q    Type
                         _______ _______ _______ _____ _____    ______ ____

>  <TORSDO>
F 3

$$$$
=
 OpenBabel11122411363D

 37 43  0  0  1  0  0  0  0  0999 V2000
  184.8980  178.7190  144.7560 C   0  0  1  0  0  0  0  0  0  0  0  0
  186.2050  178.3300  140.8240 C   0  0  0  0  0  0  0  0  0  0  0  0
  183.9230  179.5220  138.1000 C   0  0  1  0  0  3  0  0  0  0  0  0
  186.8180  178.2450  143.1520 C   0  0  0  0  0  0  0  0  0  0  0  0
  185.0180  178.3870  140.1280 C   0  0  0  0  0  0  0  0  0  0  0  0
  185.8760  178.2990  142.1440 C   0  0  0  0  0  0  0  0  0  0  0  0
  184.8680  178.5640  138.7040 N   0  0  0  0  0  0  0  0  0  0  0  0
  188.1740  178.1930  142.7740 C   0  0  0  0  0  3  0  0  0  0  0  0
  184.5550  178.3460  142.3320 N   0  0  0  0  0  0  0  0  0  0  0  0
  184.9520  180.2370  144.7620 C   0  0  0  0  0  1  0  0  0  0  0  0
  187.8610  178.2530  138.9440 C   0  0  0  0  0  2  0  0  0  0  0  0
  188.5280  178.2150  141.3980 C   0  0  0  0  0  3  0  0  0  0  0  0
  183.9230  178.2530  143.6450 C   0  0  0  0  0  2  0  0  0  0  0  0
  182.4770  179.3290  138.5590 C   0  0  2  0  0  0  0  0  0  0  0  0
  183.2910  180.4970  139.0930 C   0  0  0  0  0  2  0  0  0  0  0  0
  187.5290  178.2820  140.4000 C   0  0  0  0  0  0  0  0  0  0  0  0
  184.0110  178.3790  141.0930 C   0  0  0  0  0  0  0  0  0  0  0  0
  186.3330  178.1580  144.5750 C   0  0  0  0  0  2  0  0  0  0  0  0
  185.6580  177.7880  137.7310 C   0  0  1  0  0  3  0  0  0  0  0  0
  184.4040  178.2920  145.9880 O   0  0  0  0  0  1  0  0  0  0  0  0
  182.1340  178.1810  139.5200 C   0  0  0  0  0  2  0  0  0  0  0  0
  182.6420  178.3870  140.8360 O   0  0  0  0  0  0  0  0  0  0  0  0
  186.9900  177.2130  138.2440 C   0  0  0  0  0  2  0  0  0  0  0  0
  183.9100  177.0460  136.1060 C   0  0  0  0  0  3  0  0  0  0  0  0
  184.8170  176.7140  137.1170 C   0  0  0  0  0  0  0  0  0  0  0  0
  184.8880  175.3920  137.5820 C   0  0  0  0  0  3  0  0  0  0  0  0
  184.1380  173.0120  137.5230 C   0  0  0  0  0  1  0  0  0  0  0  0
  183.1600  174.7460  136.0140 C   0  0  0  0  0  3  0  0  0  0  0  0
  184.0620  174.4100  137.0290 C   0  0  0  0  0  0  0  0  0  0  0  0
  183.0840  176.0630  135.5530 C   0  0  0  0  0  3  0  0  0  0  0  0
  179.6970  180.6770  135.4370 O   0  0  0  0  0  0  0  0  0  0  0  0
  180.2840  181.4860  136.2040 C   0  0  0  0  0  0  0  0  0  0  0  0
  181.4860  179.6530  137.4950 C   0  0  0  0  0  0  0  0  0  0  0  0
  181.1800  181.0250  137.2180 N   0  0  0  0  0  2  0  0  0  0  0  0
  180.9580  178.7230  136.8250 O   0  0  0  0  0  0  0  0  0  0  0  0
  181.1550  183.5060  135.3610 O   0  0  0  0  0  1  0  0  0  0  0  0
  180.0680  182.9480  136.0320 C   0  0  0  0  0  2  0  0  0  0  0  0
  1 10  1  6  0  0  0
  1 20  1  0  0  0  0
  2  6  1  0  0  0  0
  3 14  1  0  0  0  0
  3  7  1  0  0  0  0
  3 15  1  1  0  0  0
  4 18  1  0  0  0  0
  5  2  1  0  0  0  0
  5 17  2  0  0  0  0
  6  9  1  0  0  0  0
  6  4  2  0  0  0  0
  7  5  1  0  0  0  0
  8  4  1  0  0  0  0
  9 13  1  0  0  0  0
 11 16  1  0  0  0  0
 12  8  2  0  0  0  0
 13  1  1  0  0  0  0
 14 33  1  6  0  0  0
 14 15  1  0  0  0  0
 14 21  1  0  0  0  0
 16  2  2  0  0  0  0
 16 12  1  0  0  0  0
 17  9  1  0  0  0  0
 18  1  1  0  0  0  0
 19 25  1  1  0  0  0
 19 23  1  0  0  0  0
 19  7  1  0  0  0  0
 21 22  1  0  0  0  0
 22 17  1  0  0  0  0
 23 11  1  0  0  0  0
 24 25  1  0  0  0  0
 25 26  2  0  0  0  0
 28 29  2  0  0  0  0
 29 27  1  0  0  0  0
 29 26  1  0  0  0  0
 30 28  1  0  0  0  0
 30 24  2  0  0  0  0
 31 32  2  0  0  0  0
 32 34  1  0  0  0  0
 34 33  1  0  0  0  0
 35 33  2  0  0  0  0
 36 37  1  0  0  0  0
 37 32  1  0  0  0  0
M  END
>  <MODEL>
5

>  <REMARK>
 VINA RESULT:      -5.6      2.501      5.616
  Name = 
  3 active torsions:
  status: ('A' for Active; 'I' for Inactive)
    1  A    between atoms: C_4  and  C_37
    2  A    between atoms: C_8  and  C_18
    3  A    between atoms: C_23  and  C_30
                            x       y       z     vdW  Elec       q    Type
                         _______ _______ _______ _____ _____    ______ ____

>  <TORSDO>
F 3

$$$$
=
 OpenBabel11122411363D

 37 43  0  0  1  0  0  0  0  0999 V2000
  179.6430  182.1370  137.8030 C   0  0  1  0  0  0  0  0  0  0  0  0
  181.3800  178.3660  137.5120 C   0  0  0  0  0  0  0  0  0  0  0  0
  184.0680  177.4880  139.9720 C   0  0  1  0  0  3  0  0  0  0  0  0
  179.5700  179.7930  136.8120 C   0  0  0  0  0  0  0  0  0  0  0  0
  182.5710  178.5540  138.1770 C   0  0  0  0  0  0  0  0  0  0  0  0
  180.7930  179.5900  137.4190 C   0  0  0  0  0  0  0  0  0  0  0  0
  183.4770  177.5230  138.6210 N   0  0  0  0  0  0  0  0  0  0  0  0
  178.9310  178.6720  136.2450 C   0  0  0  0  0  3  0  0  0  0  0  0
  181.5290  180.5430  137.9940 N   0  0  0  0  0  0  0  0  0  0  0  0
  178.9580  181.8630  139.1310 C   0  0  0  0  0  1  0  0  0  0  0  0
  181.4840  175.9090  137.0300 C   0  0  0  0  0  2  0  0  0  0  0  0
  179.5400  177.3910  136.3280 C   0  0  0  0  0  3  0  0  0  0  0  0
  181.1730  181.9590  137.9770 C   0  0  0  0  0  2  0  0  0  0  0  0
  184.8200  178.7650  140.3460 C   0  0  2  0  0  0  0  0  0  0  0  0
  183.4560  178.4850  140.9550 C   0  0  0  0  0  2  0  0  0  0  0  0
  180.7890  177.2290  136.9700 C   0  0  0  0  0  0  0  0  0  0  0  0
  182.6410  179.9210  138.4490 C   0  0  0  0  0  0  0  0  0  0  0  0
  179.0460  181.2010  136.7180 C   0  0  0  0  0  2  0  0  0  0  0  0
  183.8870  176.4110  137.7450 C   0  0  1  0  0  3  0  0  0  0  0  0
  179.3880  183.4580  137.4410 O   0  0  0  0  0  1  0  0  0  0  0  0
  184.9390  179.9020  139.3200 C   0  0  0  0  0  2  0  0  0  0  0  0
  183.7010  180.5680  139.0810 O   0  0  0  0  0  0  0  0  0  0  0  0
  182.9330  176.0750  136.5850 C   0  0  0  0  0  2  0  0  0  0  0  0
  185.6110  177.8580  136.6580 C   0  0  0  0  0  3  0  0  0  0  0  0
  185.2790  176.6320  137.2430 C   0  0  0  0  0  0  0  0  0  0  0  0
  186.2350  175.6070  137.3000 C   0  0  0  0  0  3  0  0  0  0  0  0
  188.5260  174.7280  136.8460 C   0  0  0  0  0  1  0  0  0  0  0  0
  187.8460  177.0440  136.2050 C   0  0  0  0  0  3  0  0  0  0  0  0
  187.5170  175.8150  136.7840 C   0  0  0  0  0  0  0  0  0  0  0  0
  186.8940  178.0660  136.1420 C   0  0  0  0  0  3  0  0  0  0  0  0
  188.0190  177.8400  143.2100 O   0  0  0  0  0  0  0  0  0  0  0  0
  186.8070  177.8770  143.5510 C   0  0  0  0  0  0  0  0  0  0  0  0
  185.9960  178.5070  141.2240 C   0  0  0  0  0  0  0  0  0  0  0  0
  185.7820  178.1870  142.6030 N   0  0  0  0  0  2  0  0  0  0  0  0
  187.1600  178.5330  140.7370 O   0  0  0  0  0  0  0  0  0  0  0  0
  187.5510  177.6760  145.7770 O   0  0  0  0  0  1  0  0  0  0  0  0
  186.4310  177.5610  144.9550 C   0  0  0  0  0  2  0  0  0  0  0  0
  1 13  1  0  0  0  0
  1 10  1  1  0  0  0
  2  5  1  0  0  0  0
  3 14  1  0  0  0  0
  3 15  1  1  0  0  0
  4  6  2  0  0  0  0
  5 17  2  0  0  0  0
  5  7  1  0  0  0  0
  6  2  1  0  0  0  0
  6  9  1  0  0  0  0
  7  3  1  0  0  0  0
  8 12  2  0  0  0  0
  8  4  1  0  0  0  0
  9 17  1  0  0  0  0
 12 16  1  0  0  0  0
 13  9  1  0  0  0  0
 14 15  1  0  0  0  0
 14 33  1  1  0  0  0
 16 11  1  0  0  0  0
 16  2  2  0  0  0  0
 17 22  1  0  0  0  0
 18  4  1  0  0  0  0
 18  1  1  0  0  0  0
 19 25  1  6  0  0  0
 19  7  1  0  0  0  0
 20  1  1  0  0  0  0
 21 14  1  0  0  0  0
 22 21  1  0  0  0  0
 23 11  1  0  0  0  0
 23 19  1  0  0  0  0
 24 25  1  0  0  0  0
 25 26  2  0  0  0  0
 28 29  2  0  0  0  0
 29 27  1  0  0  0  0
 29 26  1  0  0  0  0
 30 28  1  0  0  0  0
 30 24  2  0  0  0  0
 31 32  2  0  0  0  0
 32 37  1  0  0  0  0
 33 34  1  0  0  0  0
 34 32  1  0  0  0  0
 35 33  2  0  0  0  0
 37 36  1  0  0  0  0
M  END
>  <MODEL>
6

>  <REMARK>
 VINA RESULT:      -5.2      2.841      7.941
  Name = 
  3 active torsions:
  status: ('A' for Active; 'I' for Inactive)
    1  A    between atoms: C_4  and  C_37
    2  A    between atoms: C_8  and  C_18
    3  A    between atoms: C_23  and  C_30
                            x       y       z     vdW  Elec       q    Type
                         _______ _______ _______ _____ _____    ______ ____

>  <TORSDO>
F 3

$$$$
=
 OpenBabel11122411363D

 37 43  0  0  1  0  0  0  0  0999 V2000
  184.9950  178.6230  144.6240 C   0  0  1  0  0  0  0  0  0  0  0  0
  186.2440  178.3310  140.6650 C   0  0  0  0  0  0  0  0  0  0  0  0
  183.8700  179.4700  137.9980 C   0  0  1  0  0  3  0  0  0  0  0  0
  186.9020  178.2400  142.9810 C   0  0  0  0  0  0  0  0  0  0  0  0
  185.0430  178.3520  139.9910 C   0  0  0  0  0  0  0  0  0  0  0  0
  185.9410  178.2710  141.9900 C   0  0  0  0  0  0  0  0  0  0  0  0
  184.8600  178.5400  138.5720 N   0  0  0  0  0  0  0  0  0  0  0  0
  188.2520  178.2420  142.5770 C   0  0  0  0  0  3  0  0  0  0  0  0
  184.6230  178.2670  142.2020 N   0  0  0  0  0  0  0  0  0  0  0  0
  184.9940  180.1420  144.6490 C   0  0  0  0  0  1  0  0  0  0  0  0
  187.8660  178.3380  138.7550 C   0  0  0  0  0  2  0  0  0  0  0  0
  188.5790  178.2940  141.1950 C   0  0  0  0  0  3  0  0  0  0  0  0
  184.0180  178.1340  143.5250 C   0  0  0  0  0  2  0  0  0  0  0  0
  182.4400  179.2190  138.4800 C   0  0  2  0  0  0  0  0  0  0  0  0
  183.2210  180.4090  139.0150 C   0  0  0  0  0  2  0  0  0  0  0  0
  187.5610  178.3370  140.2170 C   0  0  0  0  0  0  0  0  0  0  0  0
  184.0550  178.2940  140.9740 C   0  0  0  0  0  0  0  0  0  0  0  0
  186.4470  178.1170  144.4100 C   0  0  0  0  0  2  0  0  0  0  0  0
  185.6600  177.8060  137.5760 C   0  0  1  0  0  3  0  0  0  0  0  0
  184.5410  178.1630  145.8590 O   0  0  0  0  0  1  0  0  0  0  0  0
  182.1580  178.0470  139.4320 C   0  0  0  0  0  2  0  0  0  0  0  0
  182.6820  178.2550  140.7420 O   0  0  0  0  0  0  0  0  0  0  0  0
  187.0220  177.2750  138.0570 C   0  0  0  0  0  2  0  0  0  0  0  0
  183.9670  177.0080  135.9190 C   0  0  0  0  0  3  0  0  0  0  0  0
  184.8480  176.7090  136.9630 C   0  0  0  0  0  0  0  0  0  0  0  0
  184.9190  175.3990  137.4600 C   0  0  0  0  0  3  0  0  0  0  0  0
  184.1960  173.0100  137.4340 C   0  0  0  0  0  1  0  0  0  0  0  0
  183.2440  174.6990  135.8590 C   0  0  0  0  0  3  0  0  0  0  0  0
  184.1190  174.3960  136.9060 C   0  0  0  0  0  0  0  0  0  0  0  0
  183.1670  176.0040  135.3660 C   0  0  0  0  0  3  0  0  0  0  0  0
  179.3490  179.6910  135.3960 O   0  0  0  0  0  0  0  0  0  0  0  0
  179.8780  178.5760  135.6470 C   0  0  0  0  0  0  0  0  0  0  0  0
  181.4180  179.5180  137.4380 C   0  0  0  0  0  0  0  0  0  0  0  0
  180.8880  178.4460  136.6510 N   0  0  0  0  0  2  0  0  0  0  0  0
  181.0040  180.7000  137.2880 O   0  0  0  0  0  0  0  0  0  0  0  0
  179.5970  176.2380  135.7090 O   0  0  0  0  0  1  0  0  0  0  0  0
  179.4230  177.3670  134.9090 C   0  0  0  0  0  2  0  0  0  0  0  0
  1 10  1  1  0  0  0
  1 20  1  0  0  0  0
  2  6  1  0  0  0  0
  3 14  1  0  0  0  0
  3  7  1  0  0  0  0
  3 15  1  1  0  0  0
  4 18  1  0  0  0  0
  5  2  1  0  0  0  0
  5 17  2  0  0  0  0
  6  9  1  0  0  0  0
  6  4  2  0  0  0  0
  7  5  1  0  0  0  0
  8  4  1  0  0  0  0
  9 13  1  0  0  0  0
 11 16  1  0  0  0  0
 12  8  2  0  0  0  0
 13  1  1  0  0  0  0
 14 33  1  6  0  0  0
 14 15  1  0  0  0  0
 14 21  1  0  0  0  0
 16  2  2  0  0  0  0
 16 12  1  0  0  0  0
 17  9  1  0  0  0  0
 18  1  1  0  0  0  0
 19 25  1  1  0  0  0
 19 23  1  0  0  0  0
 19  7  1  0  0  0  0
 21 22  1  0  0  0  0
 22 17  1  0  0  0  0
 23 11  1  0  0  0  0
 24 25  1  0  0  0  0
 25 26  2  0  0  0  0
 28 29  2  0  0  0  0
 29 27  1  0  0  0  0
 29 26  1  0  0  0  0
 30 28  1  0  0  0  0
 30 24  2  0  0  0  0
 31 32  2  0  0  0  0
 32 34  1  0  0  0  0
 34 33  1  0  0  0  0
 35 33  2  0  0  0  0
 37 32  1  0  0  0  0
 37 36  1  0  0  0  0
M  END
>  <MODEL>
7

>  <REMARK>
 VINA RESULT:      -5.1      2.377      5.069
  Name = 
  3 active torsions:
  status: ('A' for Active; 'I' for Inactive)
    1  A    between atoms: C_4  and  C_37
    2  A    between atoms: C_8  and  C_18
    3  A    between atoms: C_23  and  C_30
                            x       y       z     vdW  Elec       q    Type
                         _______ _______ _______ _____ _____    ______ ____

>  <TORSDO>
F 3

$$$$
=
 OpenBabel11122411363D

 37 43  0  0  1  0  0  0  0  0999 V2000
  188.9590  178.0450  138.4600 C   0  0  1  0  0  0  0  0  0  0  0  0
  185.2490  177.3720  136.7010 C   0  0  0  0  0  0  0  0  0  0  0  0
  182.2760  179.1150  138.1750 C   0  0  1  0  0  3  0  0  0  0  0  0
  187.6350  177.1200  136.4920 C   0  0  0  0  0  0  0  0  0  0  0  0
  184.3890  177.7280  137.7160 C   0  0  0  0  0  0  0  0  0  0  0  0
  186.5030  177.4140  137.2250 C   0  0  0  0  0  0  0  0  0  0  0  0
  182.9680  177.9470  137.5980 N   0  0  0  0  0  0  0  0  0  0  0  0
  187.4580  176.7340  135.1490 C   0  0  0  0  0  3  0  0  0  0  0  0
  186.4970  177.7870  138.5070 N   0  0  0  0  0  0  0  0  0  0  0  0
  189.0430  179.5010  138.0370 C   0  0  0  0  0  1  0  0  0  0  0  0
  183.6310  176.8990  134.8460 C   0  0  0  0  0  2  0  0  0  0  0  0
  186.1510  176.6780  134.5940 C   0  0  0  0  0  3  0  0  0  0  0  0
  187.6970  177.8440  139.3380 C   0  0  0  0  0  2  0  0  0  0  0  0
  182.5080  179.2860  139.6770 C   0  0  2  0  0  0  0  0  0  0  0  0
  183.2090  180.2090  138.6940 C   0  0  0  0  0  2  0  0  0  0  0  0
  185.0220  176.9990  135.3800 C   0  0  0  0  0  0  0  0  0  0  0  0
  185.1950  177.9640  138.8300 C   0  0  0  0  0  0  0  0  0  0  0  0
  188.9660  177.1450  137.1960 C   0  0  0  0  0  2  0  0  0  0  0  0
  182.0880  177.0070  136.8820 C   0  0  1  0  0  3  0  0  0  0  0  0
  190.0850  177.7450  139.2270 O   0  0  0  0  0  1  0  0  0  0  0  0
  183.3550  178.2520  140.4340 C   0  0  0  0  0  2  0  0  0  0  0  0
  184.7400  178.3150  140.0990 O   0  0  0  0  0  0  0  0  0  0  0  0
  182.7640  176.1150  135.8260 C   0  0  0  0  0  2  0  0  0  0  0  0
  181.3230  174.7870  137.7390 C   0  0  0  0  0  3  0  0  0  0  0  0
  181.3090  176.1800  137.8560 C   0  0  0  0  0  0  0  0  0  0  0  0
  180.5220  176.7870  138.8470 C   0  0  0  0  0  3  0  0  0  0  0  0
  178.9330  176.6470  140.7670 C   0  0  0  0  0  1  0  0  0  0  0  0
  179.7860  174.6080  139.6010 C   0  0  0  0  0  3  0  0  0  0  0  0
  179.7650  176.0010  139.7190 C   0  0  0  0  0  0  0  0  0  0  0  0
  180.5650  174.0010  138.6120 C   0  0  0  0  0  3  0  0  0  0  0  0
  179.1640  180.7720  142.1050 O   0  0  0  0  0  0  0  0  0  0  0  0
  179.8870  179.8120  142.4810 C   0  0  0  0  0  0  0  0  0  0  0  0
  181.3260  179.8540  140.3830 C   0  0  0  0  0  0  0  0  0  0  0  0
  180.9670  179.3400  141.6710 N   0  0  0  0  0  2  0  0  0  0  0  0
  180.6800  180.8040  139.8610 O   0  0  0  0  0  0  0  0  0  0  0  0
  180.3420  177.9790  143.8890 O   0  0  0  0  0  1  0  0  0  0  0  0
  179.6360  179.1790  143.8030 C   0  0  0  0  0  2  0  0  0  0  0  0
  1 10  1  6  0  0  0
  1 20  1  0  0  0  0
  1 13  1  0  0  0  0
  2  6  1  0  0  0  0
  2  5  1  0  0  0  0
  3 15  1  6  0  0  0
  3 14  1  0  0  0  0
  4 18  1  0  0  0  0
  4  6  2  0  0  0  0
  5 17  2  0  0  0  0
  6  9  1  0  0  0  0
  7  5  1  0  0  0  0
  7  3  1  0  0  0  0
  8  4  1  0  0  0  0
  9 17  1  0  0  0  0
  9 13  1  0  0  0  0
 11 16  1  0  0  0  0
 11 23  1  0  0  0  0
 12  8  2  0  0  0  0
 12 16  1  0  0  0  0
 14 33  1  1  0  0  0
 14 21  1  0  0  0  0
 15 14  1  0  0  0  0
 16  2  2  0  0  0  0
 17 22  1  0  0  0  0
 18  1  1  0  0  0  0
 19  7  1  0  0  0  0
 19 25  1  1  0  0  0
 22 21  1  0  0  0  0
 23 19  1  0  0  0  0
 24 25  2  0  0  0  0
 24 30  1  0  0  0  0
 25 26  1  0  0  0  0
 26 29  2  0  0  0  0
 28 29  1  0  0  0  0
 29 27  1  0  0  0  0
 30 28  2  0  0  0  0
 31 32  2  0  0  0  0
 32 37  1  0  0  0  0
 33 34  1  0  0  0  0
 34 32  1  0  0  0  0
 35 33  2  0  0  0  0
 37 36  1  0  0  0  0
M  END
>  <MODEL>
8

>  <REMARK>
 VINA RESULT:      -5.1      3.223      6.451
  Name = 
  3 active torsions:
  status: ('A' for Active; 'I' for Inactive)
    1  A    between atoms: C_4  and  C_37
    2  A    between atoms: C_8  and  C_18
    3  A    between atoms: C_23  and  C_30
                            x       y       z     vdW  Elec       q    Type
                         _______ _______ _______ _____ _____    ______ ____

>  <TORSDO>
F 3

$$$$
=
 OpenBabel11122411363D

 37 43  0  0  1  0  0  0  0  0999 V2000
  187.5070  173.7670  136.3450 C   0  0  1  0  0  0  0  0  0  0  0  0
  183.3600  173.5050  136.1330 C   0  0  0  0  0  0  0  0  0  0  0  0
  181.4060  176.7040  136.1510 C   0  0  1  0  0  3  0  0  0  0  0  0
  185.4510  172.3330  135.9030 C   0  0  0  0  0  0  0  0  0  0  0  0
  182.9760  174.7290  136.6350 C   0  0  0  0  0  0  0  0  0  0  0  0
  184.7080  173.4270  136.2970 C   0  0  0  0  0  0  0  0  0  0  0  0
  181.6570  175.3100  136.5620 N   0  0  0  0  0  0  0  0  0  0  0  0
  184.7580  171.2480  135.3310 C   0  0  0  0  0  3  0  0  0  0  0  0
  185.2090  174.5290  136.8600 N   0  0  0  0  0  0  0  0  0  0  0  0
  187.6700  174.3950  134.9710 C   0  0  0  0  0  1  0  0  0  0  0  0
  181.1440  172.5460  135.4620 C   0  0  0  0  0  2  0  0  0  0  0  0
  183.3480  171.3150  135.1640 C   0  0  0  0  0  3  0  0  0  0  0  0
  186.6160  174.6850  137.2190 C   0  0  0  0  0  2  0  0  0  0  0  0
  182.1710  177.7360  136.9800 C   0  0  2  0  0  0  0  0  0  0  0  0
  182.6230  177.4190  135.5640 C   0  0  0  0  0  2  0  0  0  0  0  0
  182.6300  172.4620  135.5730 C   0  0  0  0  0  0  0  0  0  0  0  0
  184.1460  175.3340  137.0940 C   0  0  0  0  0  0  0  0  0  0  0  0
  186.9290  172.3360  136.1870 C   0  0  0  0  0  2  0  0  0  0  0  0
  180.4450  174.5430  136.8990 C   0  0  1  0  0  3  0  0  0  0  0  0
  188.7660  173.6770  136.9380 O   0  0  0  0  0  1  0  0  0  0  0  0
  183.0520  177.2660  138.1470 C   0  0  0  0  0  2  0  0  0  0  0  0
  184.2250  176.5780  137.7170 O   0  0  0  0  0  0  0  0  0  0  0  0
  180.5590  173.0120  136.7930 C   0  0  0  0  0  2  0  0  0  0  0  0
  179.4110  176.2300  138.4250 C   0  0  0  0  0  3  0  0  0  0  0  0
  179.9330  174.9460  138.2460 C   0  0  0  0  0  0  0  0  0  0  0  0
  180.0220  174.0710  139.3390 C   0  0  0  0  0  3  0  0  0  0  0  0
  179.6770  173.5530  141.7570 C   0  0  0  0  0  1  0  0  0  0  0  0
  179.0560  175.7650  140.7750 C   0  0  0  0  0  3  0  0  0  0  0  0
  179.5810  174.4810  140.6010 C   0  0  0  0  0  0  0  0  0  0  0  0
  178.9710  176.6390  139.6880 C   0  0  0  0  0  3  0  0  0  0  0  0
  180.0270  181.4530  137.9160 O   0  0  0  0  0  0  0  0  0  0  0  0
  180.3150  180.6070  138.8030 C   0  0  0  0  0  0  0  0  0  0  0  0
  181.4150  179.0080  137.1590 C   0  0  0  0  0  0  0  0  0  0  0  0
  181.0080  179.3990  138.4750 N   0  0  0  0  0  2  0  0  0  0  0  0
  181.1790  179.7420  136.1610 O   0  0  0  0  0  0  0  0  0  0  0  0
  180.3790  179.8200  141.0220 O   0  0  0  0  0  1  0  0  0  0  0  0
  179.9570  180.8800  140.2200 C   0  0  0  0  0  2  0  0  0  0  0  0
  1 10  1  6  0  0  0
  1 20  1  0  0  0  0
  1 13  1  0  0  0  0
  2  6  1  0  0  0  0
  2  5  1  0  0  0  0
  3 15  1  6  0  0  0
  3  7  1  0  0  0  0
  3 14  1  0  0  0  0
  4 18  1  0  0  0  0
  4  6  2  0  0  0  0
  5 17  2  0  0  0  0
  6  9  1  0  0  0  0
  7  5  1  0  0  0  0
  7 19  1  0  0  0  0
  8  4  1  0  0  0  0
  9 17  1  0  0  0  0
  9 13  1  0  0  0  0
 11 16  1  0  0  0  0
 11 23  1  0  0  0  0
 12  8  2  0  0  0  0
 12 16  1  0  0  0  0
 14 33  1  1  0  0  0
 14 21  1  0  0  0  0
 15 14  1  0  0  0  0
 16  2  2  0  0  0  0
 17 22  1  0  0  0  0
 18  1  1  0  0  0  0
 19 25  1  1  0  0  0
 22 21  1  0  0  0  0
 23 19  1  0  0  0  0
 24 30  1  0  0  0  0
 25 24  2  0  0  0  0
 25 26  1  0  0  0  0
 26 29  2  0  0  0  0
 29 28  1  0  0  0  0
 29 27  1  0  0  0  0
 30 28  2  0  0  0  0
 31 32  2  0  0  0  0
 32 37  1  0  0  0  0
 33 34  1  0  0  0  0
 34 32  1  0  0  0  0
 35 33  2  0  0  0  0
 37 36  1  0  0  0  0
M  END
>  <MODEL>
9

>  <REMARK>
 VINA RESULT:      -4.9      3.970      7.289
  Name = 
  3 active torsions:
  status: ('A' for Active; 'I' for Inactive)
    1  A    between atoms: C_4  and  C_37
    2  A    between atoms: C_8  and  C_18
    3  A    between atoms: C_23  and  C_30
                            x       y       z     vdW  Elec       q    Type
                         _______ _______ _______ _____ _____    ______ ____

>  <TORSDO>
F 3

$$$$
