=
 OpenBabel11122412123D

 34 40  0  0  1  0  0  0  0  0999 V2000
  182.0720  178.8210  143.5290 C   0  0  0  0  0  0  0  0  0  0  0  0
  183.6830  178.8470  145.4890 C   0  0  0  0  0  2  0  0  0  0  0  0
  180.9680  179.0900  137.2090 C   0  0  0  0  0  0  0  0  0  0  0  0
  180.6520  178.3790  141.6130 C   0  0  0  0  0  0  0  0  0  0  0  0
  181.6930  177.9090  139.2910 C   0  0  1  0  0  3  0  0  0  0  0  0
  182.8950  179.8590  138.4280 O   0  0  0  0  0  1  0  0  0  0  0  0
  181.3200  179.7630  136.2040 O   0  0  0  0  0  0  0  0  0  0  0  0
  178.9350  177.9720  138.1960 C   0  0  0  0  0  3  0  0  0  0  0  0
  184.5520  179.2410  143.2600 C   0  0  2  0  0  3  0  0  0  0  0  0
  187.2740  177.5450  142.6450 C   0  0  0  0  0  2  0  0  0  0  0  0
  182.9700  177.6330  140.0950 C   0  0  0  0  0  2  0  0  0  0  0  0
  179.2590  178.1010  139.6310 C   0  0  0  0  0  3  0  0  0  0  0  0
  184.4710  178.3860  141.9760 C   0  0  1  0  0  3  0  0  0  0  0  0
  185.1860  179.0140  145.6040 C   0  0  0  0  0  2  0  0  0  0  0  0
  180.4860  178.1340  140.1610 C   0  0  0  0  0  0  0  0  0  0  0  0
  179.6670  178.3940  137.1580 C   0  0  0  0  0  3  0  0  0  0  0  0
  186.3900  177.5610  143.9050 C   0  0  2  0  0  3  0  0  0  0  0  0
  181.9380  178.5860  142.1500 C   0  0  0  0  0  0  0  0  0  0  0  0
  181.8440  179.0050  138.3380 N   0  0  0  0  0  0  0  0  0  0  0  0
  183.1460  178.6350  141.2370 C   0  0  2  0  0  3  0  0  0  0  0  0
  179.6830  178.6010  143.7760 C   0  0  0  0  0  3  0  0  0  0  0  0
  187.0200  178.7030  141.6770 C   0  0  0  0  0  2  0  0  0  0  0  0
  179.5670  178.3930  142.4390 N   0  0  0  0  0  0  0  0  0  0  0  0
  185.6420  178.6480  141.0160 C   0  0  0  0  0  2  0  0  0  0  0  0
  185.7480  178.9400  144.1850 C   0  0  1  0  0  3  0  0  0  0  0  0
  180.9370  178.8160  144.3450 C   0  0  0  0  0  3  0  0  0  0  0  0
  183.3750  179.0350  144.0860 N   0  0  0  0  0  0  0  0  0  0  0  0
  187.1510  177.1290  144.9950 O   0  0  0  0  0  0  0  0  0  0  0  0
  188.4770  177.2000  144.5560 C   0  0  0  0  0  2  0  0  0  0  0  0
  189.5900  177.5950  147.9190 O   0  0  0  0  0  0  0  0  0  0  0  0
  190.6070  177.1630  145.8290 C   0  0  0  0  0  2  0  0  0  0  0  0
  189.3280  177.9100  145.5930 C   0  0  2  0  0  3  0  0  0  0  0  0
  190.5420  176.7800  147.2900 C   0  0  0  0  0  2  0  0  0  0  0  0
  188.6330  177.8700  146.9320 C   0  0  0  0  0  2  0  0  0  0  0  0
  1 27  1  0  0  0  0
  1 26  1  0  0  0  0
  2 14  1  0  0  0  0
  3 19  1  0  0  0  0
  4 18  1  0  0  0  0
  4 23  2  0  0  0  0
  5 11  1  1  0  0  0
  5 15  1  0  0  0  0
  7  3  2  0  0  0  0
  8 12  1  0  0  0  0
  9 27  1  1  0  0  0
  9 25  1  0  0  0  0
 10 17  1  0  0  0  0
 12 15  2  0  0  0  0
 13 24  1  6  0  0  0
 13  9  1  0  0  0  0
 15  4  1  0  0  0  0
 16  3  1  0  0  0  0
 16  8  2  0  0  0  0
 17 25  1  0  0  0  0
 17 28  1  1  0  0  0
 18  1  2  0  0  0  0
 19  6  1  0  0  0  0
 19  5  1  0  0  0  0
 20 11  1  6  0  0  0
 20 13  1  0  0  0  0
 20 18  1  0  0  0  0
 21 26  2  0  0  0  0
 22 10  1  0  0  0  0
 23 21  1  0  0  0  0
 24 22  1  0  0  0  0
 25 14  1  1  0  0  0
 27  2  1  0  0  0  0
 29 28  1  0  0  0  0
 31 33  1  0  0  0  0
 32 29  1  6  0  0  0
 32 31  1  0  0  0  0
 32 34  1  0  0  0  0
 33 30  1  0  0  0  0
 34 30  1  0  0  0  0
M  END
>  <MODEL>
1

>  <REMARK>
 VINA RESULT:      -9.3      0.000      0.000
  Name = 
  3 active torsions:
  status: ('A' for Active; 'I' for Inactive)
    1  A    between atoms: C_17  and  O_28
    2  A    between atoms: O_28  and  C_29
    3  A    between atoms: C_29  and  C_32
                            x       y       z     vdW  Elec       q    Type
                         _______ _______ _______ _____ _____    ______ ____

>  <TORSDO>
F 3

$$$$
=
 OpenBabel11122412123D

 34 40  0  0  1  0  0  0  0  0999 V2000
  187.9430  178.1430  141.1150 C   0  0  0  0  0  0  0  0  0  0  0  0
  186.3200  178.6190  139.2240 C   0  0  0  0  0  2  0  0  0  0  0  0
  189.2460  177.7790  147.3920 C   0  0  0  0  0  0  0  0  0  0  0  0
  189.2940  177.3020  142.9460 C   0  0  0  0  0  0  0  0  0  0  0  0
  188.2410  176.9050  145.2760 C   0  0  1  0  0  3  0  0  0  0  0  0
  187.4860  178.9980  146.2950 O   0  0  0  0  0  1  0  0  0  0  0  0
  189.0660  178.4440  148.4470 O   0  0  0  0  0  0  0  0  0  0  0  0
  190.9820  176.3390  146.2650 C   0  0  0  0  0  3  0  0  0  0  0  0
  185.6100  179.0380  141.5040 C   0  0  2  0  0  3  0  0  0  0  0  0
  182.6170  177.8910  142.1260 C   0  0  0  0  0  2  0  0  0  0  0  0
  186.9130  176.9450  144.5080 C   0  0  0  0  0  2  0  0  0  0  0  0
  190.6530  176.6220  144.8530 C   0  0  0  0  0  3  0  0  0  0  0  0
  185.5490  178.1030  142.7320 C   0  0  1  0  0  3  0  0  0  0  0  0
  184.8810  179.0940  139.1770 C   0  0  0  0  0  2  0  0  0  0  0  0
  189.4450  176.9360  144.3740 C   0  0  0  0  0  0  0  0  0  0  0  0
  190.3790  176.8330  147.3530 C   0  0  0  0  0  3  0  0  0  0  0  0
  183.4510  177.8080  140.8370 C   0  0  2  0  0  3  0  0  0  0  0  0
  188.0630  177.7980  142.4720 C   0  0  0  0  0  0  0  0  0  0  0  0
  188.3420  177.9450  146.2950 N   0  0  0  0  0  0  0  0  0  0  0  0
  186.9160  178.0320  143.4330 C   0  0  2  0  0  3  0  0  0  0  0  0
  190.2310  177.4610  140.7630 C   0  0  0  0  0  3  0  0  0  0  0  0
  183.1260  178.9090  143.1480 C   0  0  0  0  0  2  0  0  0  0  0  0
  190.3360  177.1490  142.0810 N   0  0  0  0  0  0  0  0  0  0  0  0
  184.4810  178.5350  143.7510 C   0  0  0  0  0  2  0  0  0  0  0  0
  184.3530  179.0440  140.6110 C   0  0  1  0  0  3  0  0  0  0  0  0
  189.0320  177.9610  140.2560 C   0  0  0  0  0  3  0  0  0  0  0  0
  186.6970  178.6510  140.6230 N   0  0  0  0  0  0  0  0  0  0  0  0
  182.5890  177.6100  139.7540 O   0  0  0  0  0  0  0  0  0  0  0  0
  181.3100  177.8480  140.2660 C   0  0  0  0  0  2  0  0  0  0  0  0
  180.7090  181.2100  139.2460 O   0  0  0  0  0  0  0  0  0  0  0  0
  181.4110  179.2120  138.1950 C   0  0  0  0  0  2  0  0  0  0  0  0
  180.5830  178.8560  139.3950 C   0  0  2  0  0  3  0  0  0  0  0  0
  181.6540  180.6960  138.3460 C   0  0  0  0  0  2  0  0  0  0  0  0
  180.4450  180.1620  140.1390 C   0  0  0  0  0  2  0  0  0  0  0  0
  1 18  1  0  0  0  0
  2 27  1  0  0  0  0
  3  7  2  0  0  0  0
  4 15  1  0  0  0  0
  5 11  1  6  0  0  0
  5 19  1  0  0  0  0
  8 16  2  0  0  0  0
  9 27  1  6  0  0  0
  9 13  1  0  0  0  0
 10 22  1  0  0  0  0
 12  8  1  0  0  0  0
 13 20  1  0  0  0  0
 13 24  1  1  0  0  0
 14  2  1  0  0  0  0
 15 12  2  0  0  0  0
 15  5  1  0  0  0  0
 16  3  1  0  0  0  0
 17 28  1  6  0  0  0
 17 10  1  0  0  0  0
 18  4  2  0  0  0  0
 18 20  1  0  0  0  0
 19  6  1  0  0  0  0
 19  3  1  0  0  0  0
 20 11  1  1  0  0  0
 21 23  2  0  0  0  0
 22 24  1  0  0  0  0
 23  4  1  0  0  0  0
 25 14  1  6  0  0  0
 25 17  1  0  0  0  0
 25  9  1  0  0  0  0
 26 21  1  0  0  0  0
 26  1  2  0  0  0  0
 27  1  1  0  0  0  0
 28 29  1  0  0  0  0
 30 34  1  0  0  0  0
 31 33  1  0  0  0  0
 31 32  1  0  0  0  0
 32 34  1  0  0  0  0
 32 29  1  1  0  0  0
 33 30  1  0  0  0  0
M  END
>  <MODEL>
2

>  <REMARK>
 VINA RESULT:      -9.3      2.373      9.270
  Name = 
  3 active torsions:
  status: ('A' for Active; 'I' for Inactive)
    1  A    between atoms: C_17  and  O_28
    2  A    between atoms: O_28  and  C_29
    3  A    between atoms: C_29  and  C_32
                            x       y       z     vdW  Elec       q    Type
                         _______ _______ _______ _____ _____    ______ ____

>  <TORSDO>
F 3

$$$$
=
 OpenBabel11122412123D

 34 40  0  0  1  0  0  0  0  0999 V2000
  187.4830  178.2180  141.1940 C   0  0  0  0  0  0  0  0  0  0  0  0
  186.0740  178.5700  139.1120 C   0  0  0  0  0  2  0  0  0  0  0  0
  188.0740  178.1570  147.5870 C   0  0  0  0  0  0  0  0  0  0  0  0
  188.6340  177.4920  143.2010 C   0  0  0  0  0  0  0  0  0  0  0  0
  187.3330  177.1680  145.4140 C   0  0  1  0  0  3  0  0  0  0  0  0
  186.4240  179.2820  146.2450 O   0  0  0  0  0  1  0  0  0  0  0  0
  187.7620  178.8620  148.5830 O   0  0  0  0  0  0  0  0  0  0  0  0
  189.9560  176.7160  146.7280 C   0  0  0  0  0  3  0  0  0  0  0  0
  185.1020  179.0670  141.2770 C   0  0  2  0  0  3  0  0  0  0  0  0
  182.0820  177.8710  141.6120 C   0  0  0  0  0  2  0  0  0  0  0  0
  186.1010  177.1400  144.5000 C   0  0  0  0  0  2  0  0  0  0  0  0
  189.7830  176.9300  145.2770 C   0  0  0  0  0  3  0  0  0  0  0  0
  184.9220  178.1850  142.5320 C   0  0  1  0  0  3  0  0  0  0  0  0
  184.6400  179.0040  138.8830 C   0  0  0  0  0  2  0  0  0  0  0  0
  188.6300  177.1910  144.6520 C   0  0  0  0  0  0  0  0  0  0  0  0
  189.2240  177.2400  147.7180 C   0  0  0  0  0  3  0  0  0  0  0  0
  183.0590  177.7550  140.4290 C   0  0  2  0  0  3  0  0  0  0  0  0
  187.4550  177.9350  142.5700 C   0  0  0  0  0  0  0  0  0  0  0  0
  187.2960  178.2530  146.3890 N   0  0  0  0  0  0  0  0  0  0  0  0
  186.2020  178.1800  143.3840 C   0  0  2  0  0  3  0  0  0  0  0  0
  189.8090  177.5810  141.1310 C   0  0  0  0  0  3  0  0  0  0  0  0
  182.4510  178.9450  142.6370 C   0  0  0  0  0  2  0  0  0  0  0  0
  189.7710  177.3290  142.4660 N   0  0  0  0  0  0  0  0  0  0  0  0
  183.7370  178.6320  143.4040 C   0  0  0  0  0  2  0  0  0  0  0  0
  183.9540  179.0030  140.2490 C   0  0  1  0  0  3  0  0  0  0  0  0
  188.6650  178.0280  140.4710 C   0  0  0  0  0  3  0  0  0  0  0  0
  186.2900  178.6710  140.5420 N   0  0  0  0  0  0  0  0  0  0  0  0
  182.3290  177.4880  139.2660 O   0  0  0  0  0  0  0  0  0  0  0  0
  182.1030  176.1080  139.2940 C   0  0  0  0  0  2  0  0  0  0  0  0
  183.6610  176.3180  136.0950 O   0  0  0  0  0  0  0  0  0  0  0  0
  183.8050  174.8830  137.9690 C   0  0  0  0  0  2  0  0  0  0  0  0
  182.4390  175.5010  137.9440 C   0  0  2  0  0  3  0  0  0  0  0  0
  184.5780  175.6640  136.9300 C   0  0  0  0  0  2  0  0  0  0  0  0
  182.5550  176.5960  136.9120 C   0  0  0  0  0  2  0  0  0  0  0  0
  1 18  1  0  0  0  0
  2 27  1  0  0  0  0
  3 16  1  0  0  0  0
  3  7  2  0  0  0  0
  4 15  1  0  0  0  0
  5 11  1  6  0  0  0
  5 19  1  0  0  0  0
  6 19  1  0  0  0  0
  8 16  2  0  0  0  0
  9 27  1  6  0  0  0
  9 13  1  0  0  0  0
 10 22  1  0  0  0  0
 12  8  1  0  0  0  0
 13 20  1  0  0  0  0
 13 24  1  1  0  0  0
 14  2  1  0  0  0  0
 15 12  2  0  0  0  0
 15  5  1  0  0  0  0
 17 28  1  6  0  0  0
 17 10  1  0  0  0  0
 18  4  2  0  0  0  0
 18 20  1  0  0  0  0
 19  3  1  0  0  0  0
 20 11  1  1  0  0  0
 21 23  2  0  0  0  0
 22 24  1  0  0  0  0
 23  4  1  0  0  0  0
 25 14  1  6  0  0  0
 25 17  1  0  0  0  0
 25  9  1  0  0  0  0
 26 21  1  0  0  0  0
 26  1  2  0  0  0  0
 27  1  1  0  0  0  0
 28 29  1  0  0  0  0
 30 34  1  0  0  0  0
 30 33  1  0  0  0  0
 32 31  1  0  0  0  0
 32 29  1  1  0  0  0
 33 31  1  0  0  0  0
 34 32  1  0  0  0  0
M  END
>  <MODEL>
3

>  <REMARK>
 VINA RESULT:      -9.3      2.560      8.948
  Name = 
  3 active torsions:
  status: ('A' for Active; 'I' for Inactive)
    1  A    between atoms: C_17  and  O_28
    2  A    between atoms: O_28  and  C_29
    3  A    between atoms: C_29  and  C_32
                            x       y       z     vdW  Elec       q    Type
                         _______ _______ _______ _____ _____    ______ ____

>  <TORSDO>
F 3

$$$$
=
 OpenBabel11122412123D

 34 40  0  0  1  0  0  0  0  0999 V2000
  187.4560  178.2370  141.2540 C   0  0  0  0  0  0  0  0  0  0  0  0
  185.9990  178.6280  139.2140 C   0  0  0  0  0  2  0  0  0  0  0  0
  188.2100  178.0890  147.6290 C   0  0  0  0  0  0  0  0  0  0  0  0
  188.6530  177.4750  143.2210 C   0  0  0  0  0  0  0  0  0  0  0  0
  187.4050  177.1330  145.4620 C   0  0  1  0  0  3  0  0  0  0  0  0
  186.5370  179.2440  146.3440 O   0  0  0  0  0  1  0  0  0  0  0  0
  187.9300  178.7830  148.6420 O   0  0  0  0  0  0  0  0  0  0  0  0
  190.0570  176.6430  146.7030 C   0  0  0  0  0  3  0  0  0  0  0  0
  185.0860  179.1050  141.4090 C   0  0  2  0  0  3  0  0  0  0  0  0
  182.0660  177.9310  141.8050 C   0  0  0  0  0  2  0  0  0  0  0  0
  186.1500  177.1280  144.5810 C   0  0  0  0  0  2  0  0  0  0  0  0
  189.8490  176.8760  145.2600 C   0  0  0  0  0  3  0  0  0  0  0  0
  184.9300  178.2090  142.6570 C   0  0  1  0  0  3  0  0  0  0  0  0
  184.5630  179.0770  139.0270 C   0  0  0  0  0  2  0  0  0  0  0  0
  188.6830  177.1560  144.6680 C   0  0  0  0  0  0  0  0  0  0  0  0
  189.3550  177.1600  147.7190 C   0  0  0  0  0  3  0  0  0  0  0  0
  183.0110  177.8210  140.5960 C   0  0  2  0  0  3  0  0  0  0  0  0
  187.4620  177.9360  142.6260 C   0  0  0  0  0  0  0  0  0  0  0  0
  187.4030  178.2060  146.4520 N   0  0  0  0  0  0  0  0  0  0  0  0
  186.2320  178.1810  143.4750 C   0  0  2  0  0  3  0  0  0  0  0  0
  189.7750  177.5810  141.1230 C   0  0  0  0  0  3  0  0  0  0  0  0
  182.4700  178.9880  142.8340 C   0  0  0  0  0  2  0  0  0  0  0  0
  189.7690  177.3120  142.4550 N   0  0  0  0  0  0  0  0  0  0  0  0
  183.7720  178.6550  143.5640 C   0  0  0  0  0  2  0  0  0  0  0  0
  183.9120  179.0640  140.4100 C   0  0  1  0  0  3  0  0  0  0  0  0
  188.6180  178.0460  140.4990 C   0  0  0  0  0  3  0  0  0  0  0  0
  186.2520  178.7090  140.6380 N   0  0  0  0  0  0  0  0  0  0  0  0
  182.2490  177.5750  139.4500 O   0  0  0  0  0  0  0  0  0  0  0  0
  182.1530  176.1830  139.3750 C   0  0  0  0  0  2  0  0  0  0  0  0
  179.7190  173.6750  138.6740 O   0  0  0  0  0  0  0  0  0  0  0  0
  179.9350  175.4540  140.2160 C   0  0  0  0  0  2  0  0  0  0  0  0
  180.7400  175.7810  138.9930 C   0  0  2  0  0  3  0  0  0  0  0  0
  179.5580  174.0030  140.0280 C   0  0  0  0  0  2  0  0  0  0  0  0
  180.7730  174.4830  138.2240 C   0  0  0  0  0  2  0  0  0  0  0  0
  1 18  1  0  0  0  0
  2 27  1  0  0  0  0
  3 16  1  0  0  0  0
  3  7  2  0  0  0  0
  4 15  1  0  0  0  0
  5 11  1  6  0  0  0
  5 19  1  0  0  0  0
  6 19  1  0  0  0  0
  8 16  2  0  0  0  0
  9 27  1  6  0  0  0
  9 13  1  0  0  0  0
 10 22  1  0  0  0  0
 12  8  1  0  0  0  0
 13 20  1  0  0  0  0
 13 24  1  1  0  0  0
 14  2  1  0  0  0  0
 15 12  2  0  0  0  0
 15  5  1  0  0  0  0
 17 28  1  6  0  0  0
 17 10  1  0  0  0  0
 18  4  2  0  0  0  0
 18 20  1  0  0  0  0
 19  3  1  0  0  0  0
 20 11  1  1  0  0  0
 21 23  2  0  0  0  0
 22 24  1  0  0  0  0
 23  4  1  0  0  0  0
 25 14  1  6  0  0  0
 25 17  1  0  0  0  0
 25  9  1  0  0  0  0
 26 21  1  0  0  0  0
 26  1  2  0  0  0  0
 27  1  1  0  0  0  0
 29 28  1  0  0  0  0
 30 33  1  0  0  0  0
 32 29  1  1  0  0  0
 32 31  1  0  0  0  0
 33 31  1  0  0  0  0
 34 30  1  0  0  0  0
 34 32  1  0  0  0  0
M  END
>  <MODEL>
4

>  <REMARK>
 VINA RESULT:      -9.2      2.640      9.152
  Name = 
  3 active torsions:
  status: ('A' for Active; 'I' for Inactive)
    1  A    between atoms: C_17  and  O_28
    2  A    between atoms: O_28  and  C_29
    3  A    between atoms: C_29  and  C_32
                            x       y       z     vdW  Elec       q    Type
                         _______ _______ _______ _____ _____    ______ ____

>  <TORSDO>
F 3

$$$$
=
 OpenBabel11122412123D

 34 40  0  0  1  0  0  0  0  0999 V2000
  187.9590  177.8450  138.3020 C   0  0  0  0  0  0  0  0  0  0  0  0
  186.3860  178.5980  140.1450 C   0  0  0  0  0  2  0  0  0  0  0  0
  193.7860  175.9800  136.3530 C   0  0  0  0  0  0  0  0  0  0  0  0
  189.3900  176.7260  136.6950 C   0  0  0  0  0  0  0  0  0  0  0  0
  191.5810  175.5840  137.4640 C   0  0  1  0  0  3  0  0  0  0  0  0
  193.1900  177.2100  138.3330 O   0  0  0  0  0  1  0  0  0  0  0  0
  194.9940  176.3080  136.4980 O   0  0  0  0  0  0  0  0  0  0  0  0
  192.1900  175.1340  134.5940 C   0  0  0  0  0  3  0  0  0  0  0  0
  188.7340  178.2920  140.6670 C   0  0  2  0  0  3  0  0  0  0  0  0
  189.2080  176.6420  143.4450 C   0  0  0  0  0  2  0  0  0  0  0  0
  190.9430  175.6560  138.8570 C   0  0  0  0  0  2  0  0  0  0  0  0
  190.9380  175.7410  135.0890 C   0  0  0  0  0  3  0  0  0  0  0  0
  189.6550  177.0620  140.5070 C   0  0  1  0  0  3  0  0  0  0  0  0
  186.5680  178.8760  141.6250 C   0  0  0  0  0  2  0  0  0  0  0  0
  190.6470  176.0120  136.3650 C   0  0  0  0  0  0  0  0  0  0  0  0
  193.4100  175.2340  135.1350 C   0  0  0  0  0  3  0  0  0  0  0  0
  187.8940  177.0180  142.7380 C   0  0  2  0  0  3  0  0  0  0  0  0
  189.1550  177.1670  138.0120 C   0  0  0  0  0  0  0  0  0  0  0  0
  192.8410  176.3160  137.3740 N   0  0  0  0  0  0  0  0  0  0  0  0
  190.2160  176.9840  139.0770 C   0  0  2  0  0  3  0  0  0  0  0  0
  187.2810  177.5860  136.0010 C   0  0  0  0  0  3  0  0  0  0  0  0
  190.4380  177.4060  142.9480 C   0  0  0  0  0  2  0  0  0  0  0  0
  188.4500  176.9470  135.7330 N   0  0  0  0  0  0  0  0  0  0  0  0
  190.8210  177.0620  141.5080 C   0  0  0  0  0  2  0  0  0  0  0  0
  187.9630  178.3750  142.0000 C   0  0  1  0  0  3  0  0  0  0  0  0
  187.0140  178.0440  137.2900 C   0  0  0  0  0  3  0  0  0  0  0  0
  187.7100  178.3010  139.6370 N   0  0  0  0  0  0  0  0  0  0  0  0
  186.8580  177.0080  143.6770 O   0  0  0  0  0  0  0  0  0  0  0  0
  187.4630  177.3820  144.8810 C   0  0  0  0  0  2  0  0  0  0  0  0
  184.3830  178.8450  145.9220 O   0  0  0  0  0  0  0  0  0  0  0  0
  186.4160  178.2340  146.9630 C   0  0  0  0  0  2  0  0  0  0  0  0
  186.6880  178.5220  145.5170 C   0  0  2  0  0  3  0  0  0  0  0  0
  184.9070  178.2010  147.0520 C   0  0  0  0  0  2  0  0  0  0  0  0
  185.3130  178.6050  144.9000 C   0  0  0  0  0  2  0  0  0  0  0  0
  1 27  1  0  0  0  0
  2 14  1  0  0  0  0
  3  7  2  0  0  0  0
  3 19  1  0  0  0  0
  4 18  2  0  0  0  0
  5 11  1  1  0  0  0
  8 12  1  0  0  0  0
  8 16  2  0  0  0  0
  9 27  1  6  0  0  0
  9 25  1  0  0  0  0
 12 15  2  0  0  0  0
 13  9  1  0  0  0  0
 13 24  1  1  0  0  0
 15  4  1  0  0  0  0
 15  5  1  0  0  0  0
 16  3  1  0  0  0  0
 17 10  1  0  0  0  0
 17 28  1  1  0  0  0
 18  1  1  0  0  0  0
 18 20  1  0  0  0  0
 19  5  1  0  0  0  0
 19  6  1  0  0  0  0
 20 11  1  6  0  0  0
 20 13  1  0  0  0  0
 21 26  1  0  0  0  0
 22 10  1  0  0  0  0
 23 21  2  0  0  0  0
 23  4  1  0  0  0  0
 24 22  1  0  0  0  0
 25 14  1  6  0  0  0
 25 17  1  0  0  0  0
 26  1  2  0  0  0  0
 27  2  1  0  0  0  0
 28 29  1  0  0  0  0
 30 33  1  0  0  0  0
 31 33  1  0  0  0  0
 32 29  1  6  0  0  0
 32 31  1  0  0  0  0
 34 32  1  0  0  0  0
 34 30  1  0  0  0  0
M  END
>  <MODEL>
5

>  <REMARK>
 VINA RESULT:      -9.0      5.678      8.451
  Name = 
  3 active torsions:
  status: ('A' for Active; 'I' for Inactive)
    1  A    between atoms: C_17  and  O_28
    2  A    between atoms: O_28  and  C_29
    3  A    between atoms: C_29  and  C_32
                            x       y       z     vdW  Elec       q    Type
                         _______ _______ _______ _____ _____    ______ ____

>  <TORSDO>
F 3

$$$$
=
 OpenBabel11122412123D

 34 40  0  0  1  0  0  0  0  0999 V2000
  187.9170  177.9830  141.1110 C   0  0  0  0  0  0  0  0  0  0  0  0
  187.1810  177.9850  138.6830 C   0  0  0  0  0  2  0  0  0  0  0  0
  186.6250  178.8940  147.3350 C   0  0  0  0  0  0  0  0  0  0  0  0
  188.4220  177.5940  143.4510 C   0  0  0  0  0  0  0  0  0  0  0  0
  186.5280  177.5720  145.2140 C   0  0  1  0  0  3  0  0  0  0  0  0
  185.4580  179.7630  145.4190 O   0  0  0  0  0  1  0  0  0  0  0  0
  186.0510  179.7310  148.0800 O   0  0  0  0  0  0  0  0  0  0  0  0
  188.6470  177.3880  147.2850 C   0  0  0  0  0  3  0  0  0  0  0  0
  185.6320  178.7750  140.3720 C   0  0  2  0  0  3  0  0  0  0  0  0
  182.6220  177.5660  139.9920 C   0  0  0  0  0  2  0  0  0  0  0  0
  185.6140  177.3770  143.9980 C   0  0  0  0  0  2  0  0  0  0  0  0
  188.9070  177.3780  145.8310 C   0  0  0  0  0  3  0  0  0  0  0  0
  185.0780  178.0860  141.6390 C   0  0  1  0  0  3  0  0  0  0  0  0
  185.8840  178.3430  137.9840 C   0  0  0  0  0  2  0  0  0  0  0  0
  187.9910  177.5140  144.8670 C   0  0  0  0  0  0  0  0  0  0  0  0
  187.6690  178.0360  147.9300 C   0  0  0  0  0  3  0  0  0  0  0  0
  183.8980  177.2990  139.1750 C   0  0  2  0  0  3  0  0  0  0  0  0
  187.4860  177.9080  142.4460 C   0  0  0  0  0  0  0  0  0  0  0  0
  186.2310  178.7890  145.9630 N   0  0  0  0  0  0  0  0  0  0  0  0
  186.0550  178.2400  142.8160 C   0  0  2  0  0  3  0  0  0  0  0  0
  190.1480  177.4030  141.8220 C   0  0  0  0  0  3  0  0  0  0  0  0
  182.6990  178.7900  140.9070 C   0  0  0  0  0  2  0  0  0  0  0  0
  189.7200  177.3520  143.1110 N   0  0  0  0  0  0  0  0  0  0  0  0
  183.7000  178.6280  142.0520 C   0  0  0  0  0  2  0  0  0  0  0  0
  184.8310  178.5290  139.0780 C   0  0  1  0  0  3  0  0  0  0  0  0
  189.2540  177.7170  140.8000 C   0  0  0  0  0  3  0  0  0  0  0  0
  186.9740  178.3040  140.0810 N   0  0  0  0  0  0  0  0  0  0  0  0
  183.5320  176.8430  137.9050 O   0  0  0  0  0  0  0  0  0  0  0  0
  182.8630  175.6370  138.1360 C   0  0  0  0  0  2  0  0  0  0  0  0
  183.3210  172.9450  135.8440 O   0  0  0  0  0  0  0  0  0  0  0  0
  184.5030  174.9100  136.4220 C   0  0  0  0  0  2  0  0  0  0  0  0
  183.6870  174.4790  137.6040 C   0  0  2  0  0  3  0  0  0  0  0  0
  183.9960  174.0430  135.2920 C   0  0  0  0  0  2  0  0  0  0  0  0
  182.7680  173.4210  137.0430 C   0  0  0  0  0  2  0  0  0  0  0  0
  1 18  1  0  0  0  0
  2 27  1  0  0  0  0
  3 16  1  0  0  0  0
  3  7  2  0  0  0  0
  4 15  1  0  0  0  0
  5 11  1  6  0  0  0
  5 19  1  0  0  0  0
  6 19  1  0  0  0  0
  8 16  2  0  0  0  0
  9 27  1  6  0  0  0
  9 13  1  0  0  0  0
 10 22  1  0  0  0  0
 12  8  1  0  0  0  0
 13 24  1  1  0  0  0
 13 20  1  0  0  0  0
 14  2  1  0  0  0  0
 15  5  1  0  0  0  0
 15 12  2  0  0  0  0
 17 28  1  6  0  0  0
 17 10  1  0  0  0  0
 18 20  1  0  0  0  0
 18  4  2  0  0  0  0
 19  3  1  0  0  0  0
 20 11  1  1  0  0  0
 21 23  2  0  0  0  0
 22 24  1  0  0  0  0
 23  4  1  0  0  0  0
 25 14  1  6  0  0  0
 25 17  1  0  0  0  0
 25  9  1  0  0  0  0
 26  1  2  0  0  0  0
 26 21  1  0  0  0  0
 27  1  1  0  0  0  0
 28 29  1  0  0  0  0
 30 34  1  0  0  0  0
 31 32  1  0  0  0  0
 32 29  1  6  0  0  0
 33 30  1  0  0  0  0
 33 31  1  0  0  0  0
 34 32  1  0  0  0  0
M  END
>  <MODEL>
6

>  <REMARK>
 VINA RESULT:      -8.9      3.165      8.955
  Name = 
  3 active torsions:
  status: ('A' for Active; 'I' for Inactive)
    1  A    between atoms: C_17  and  O_28
    2  A    between atoms: O_28  and  C_29
    3  A    between atoms: C_29  and  C_32
                            x       y       z     vdW  Elec       q    Type
                         _______ _______ _______ _____ _____    ______ ____

>  <TORSDO>
F 3

$$$$
=
 OpenBabel11122412123D

 34 40  0  0  1  0  0  0  0  0999 V2000
  189.8780  177.7770  141.5020 C   0  0  0  0  0  0  0  0  0  0  0  0
  190.0820  177.8070  138.9730 C   0  0  0  0  0  2  0  0  0  0  0  0
  186.4210  178.6980  146.8350 C   0  0  0  0  0  0  0  0  0  0  0  0
  189.4830  177.3660  143.8600 C   0  0  0  0  0  0  0  0  0  0  0  0
  187.0760  177.3870  144.8080 C   0  0  1  0  0  3  0  0  0  0  0  0
  186.0570  179.6050  144.6360 O   0  0  0  0  0  1  0  0  0  0  0  0
  185.6340  179.5480  147.3290 O   0  0  0  0  0  0  0  0  0  0  0  0
  188.2860  177.1390  147.5080 C   0  0  0  0  0  3  0  0  0  0  0  0
  188.0410  178.6320  139.9890 C   0  0  2  0  0  3  0  0  0  0  0  0
  185.3510  177.5050  138.5200 C   0  0  0  0  0  2  0  0  0  0  0  0
  186.6650  177.2210  143.3390 C   0  0  0  0  0  2  0  0  0  0  0  0
  189.0590  177.1280  146.2490 C   0  0  0  0  0  3  0  0  0  0  0  0
  187.0460  177.9530  140.9570 C   0  0  1  0  0  3  0  0  0  0  0  0
  189.1380  178.2020  137.8540 C   0  0  0  0  0  2  0  0  0  0  0  0
  188.5630  177.2920  145.0190 C   0  0  0  0  0  0  0  0  0  0  0  0
  187.1550  177.8100  147.7590 C   0  0  0  0  0  3  0  0  0  0  0  0
  186.8310  177.2070  138.2220 C   0  0  2  0  0  3  0  0  0  0  0  0
  188.9870  177.7080  142.5870 C   0  0  0  0  0  0  0  0  0  0  0  0
  186.5540  178.6090  145.4120 N   0  0  0  0  0  0  0  0  0  0  0  0
  187.5290  178.0770  142.4120 C   0  0  2  0  0  3  0  0  0  0  0  0
  191.6810  177.1350  142.9720 C   0  0  0  0  0  3  0  0  0  0  0  0
  185.1170  178.7230  139.4160 C   0  0  0  0  0  2  0  0  0  0  0  0
  190.8100  177.0900  144.0140 N   0  0  0  0  0  0  0  0  0  0  0  0
  185.6260  178.5300  140.8450 C   0  0  0  0  0  2  0  0  0  0  0  0
  187.7630  178.4120  138.4890 C   0  0  1  0  0  3  0  0  0  0  0  0
  191.2300  177.4760  141.6980 C   0  0  0  0  0  3  0  0  0  0  0  0
  189.3850  178.1260  140.2030 N   0  0  0  0  0  0  0  0  0  0  0  0
  186.9440  176.7650  136.9000 O   0  0  0  0  0  0  0  0  0  0  0  0
  186.8940  175.3710  136.9830 C   0  0  0  0  0  2  0  0  0  0  0  0
  189.8440  175.6470  135.0020 O   0  0  0  0  0  0  0  0  0  0  0  0
  189.1290  174.3070  136.8130 C   0  0  0  0  0  2  0  0  0  0  0  0
  187.9210  174.7590  136.0480 C   0  0  2  0  0  3  0  0  0  0  0  0
  190.2560  175.1350  136.2400 C   0  0  0  0  0  2  0  0  0  0  0  0
  188.4580  175.8230  135.1210 C   0  0  0  0  0  2  0  0  0  0  0  0
  1 26  2  0  0  0  0
  1 18  1  0  0  0  0
  2 27  1  0  0  0  0
  3  7  2  0  0  0  0
  3 16  1  0  0  0  0
  4 23  1  0  0  0  0
  4 15  1  0  0  0  0
  5 11  1  6  0  0  0
  5 15  1  0  0  0  0
  5 19  1  0  0  0  0
  6 19  1  0  0  0  0
  8 16  2  0  0  0  0
  9 27  1  1  0  0  0
  9 13  1  0  0  0  0
 10 22  1  0  0  0  0
 12  8  1  0  0  0  0
 13 24  1  1  0  0  0
 13 20  1  0  0  0  0
 14  2  1  0  0  0  0
 15 12  2  0  0  0  0
 17 28  1  6  0  0  0
 17 25  1  0  0  0  0
 17 10  1  0  0  0  0
 18  4  2  0  0  0  0
 19  3  1  0  0  0  0
 20 18  1  0  0  0  0
 20 11  1  1  0  0  0
 21 23  2  0  0  0  0
 22 24  1  0  0  0  0
 25 14  1  6  0  0  0
 25  9  1  0  0  0  0
 26 21  1  0  0  0  0
 27  1  1  0  0  0  0
 28 29  1  0  0  0  0
 30 34  1  0  0  0  0
 30 33  1  0  0  0  0
 32 31  1  0  0  0  0
 32 29  1  1  0  0  0
 33 31  1  0  0  0  0
 34 32  1  0  0  0  0
M  END
>  <MODEL>
7

>  <REMARK>
 VINA RESULT:      -8.3      4.192      9.016
  Name = 
  3 active torsions:
  status: ('A' for Active; 'I' for Inactive)
    1  A    between atoms: C_17  and  O_28
    2  A    between atoms: O_28  and  C_29
    3  A    between atoms: C_29  and  C_32
                            x       y       z     vdW  Elec       q    Type
                         _______ _______ _______ _____ _____    ______ ____

>  <TORSDO>
F 3

$$$$
=
 OpenBabel11122412123D

 34 40  0  0  1  0  0  0  0  0999 V2000
  183.2470  178.6830  143.7270 C   0  0  0  0  0  0  0  0  0  0  0  0
  185.1380  178.2540  145.3630 C   0  0  0  0  0  2  0  0  0  0  0  0
  181.2010  180.0990  137.8070 C   0  0  0  0  0  0  0  0  0  0  0  0
  181.5060  178.6810  142.0380 C   0  0  0  0  0  0  0  0  0  0  0  0
  182.1170  178.5320  139.5280 C   0  0  1  0  0  3  0  0  0  0  0  0
  183.3630  180.5010  138.7820 O   0  0  0  0  0  1  0  0  0  0  0  0
  181.4590  180.9040  136.8730 O   0  0  0  0  0  0  0  0  0  0  0  0
  179.2420  178.9900  138.9440 C   0  0  0  0  0  3  0  0  0  0  0  0
  185.6840  178.9510  143.1060 C   0  0  2  0  0  3  0  0  0  0  0  0
  188.0850  177.1800  141.7800 C   0  0  0  0  0  2  0  0  0  0  0  0
  183.4680  178.0270  140.0490 C   0  0  0  0  0  2  0  0  0  0  0  0
  179.7990  178.8500  140.3050 C   0  0  0  0  0  3  0  0  0  0  0  0
  185.3140  178.3340  141.7390 C   0  0  1  0  0  3  0  0  0  0  0  0
  186.6500  178.2830  145.2430 C   0  0  0  0  0  2  0  0  0  0  0  0
  181.0900  178.6980  140.6150 C   0  0  0  0  0  0  0  0  0  0  0  0
  179.8420  179.5240  137.8730 C   0  0  0  0  0  3  0  0  0  0  0  0
  187.4160  177.0500  143.1590 C   0  0  2  0  0  3  0  0  0  0  0  0
  182.8750  178.6950  142.3720 C   0  0  0  0  0  0  0  0  0  0  0  0
  182.2290  179.7580  138.7430 N   0  0  0  0  0  0  0  0  0  0  0  0
  183.9230  178.8050  141.2850 C   0  0  2  0  0  3  0  0  0  0  0  0
  180.9150  178.6090  144.3440 C   0  0  0  0  0  3  0  0  0  0  0  0
  187.8050  178.5000  141.0590 C   0  0  0  0  0  2  0  0  0  0  0  0
  180.5710  178.6380  143.0290 N   0  0  0  0  0  0  0  0  0  0  0  0
  186.3420  178.6640  140.6440 C   0  0  0  0  0  2  0  0  0  0  0  0
  186.9720  178.4070  143.7540 C   0  0  1  0  0  3  0  0  0  0  0  0
  182.2590  178.6280  144.7150 C   0  0  0  0  0  3  0  0  0  0  0  0
  184.6350  178.6990  144.0790 N   0  0  0  0  0  0  0  0  0  0  0  0
  188.2900  176.3830  144.0230 O   0  0  0  0  0  0  0  0  0  0  0  0
  189.3680  176.0020  143.2190 C   0  0  0  0  0  2  0  0  0  0  0  0
  192.0550  178.3380  143.3840 O   0  0  0  0  0  0  0  0  0  0  0  0
  190.4070  177.5310  144.8740 C   0  0  0  0  0  2  0  0  0  0  0  0
  190.6690  176.4800  143.8370 C   0  0  2  0  0  3  0  0  0  0  0  0
  191.1220  178.7530  144.3450 C   0  0  0  0  0  2  0  0  0  0  0  0
  191.4910  177.1970  142.7940 C   0  0  0  0  0  2  0  0  0  0  0  0
  1 27  1  0  0  0  0
  1 26  1  0  0  0  0
  3 16  1  0  0  0  0
  3 19  1  0  0  0  0
  4 18  1  0  0  0  0
  4 23  2  0  0  0  0
  5 11  1  1  0  0  0
  5 15  1  0  0  0  0
  7  3  2  0  0  0  0
  8 12  1  0  0  0  0
  9 25  1  0  0  0  0
  9 27  1  1  0  0  0
 10 17  1  0  0  0  0
 12 15  2  0  0  0  0
 13 24  1  6  0  0  0
 13  9  1  0  0  0  0
 14  2  1  0  0  0  0
 15  4  1  0  0  0  0
 16  8  2  0  0  0  0
 17 25  1  0  0  0  0
 17 28  1  1  0  0  0
 18  1  2  0  0  0  0
 19  6  1  0  0  0  0
 19  5  1  0  0  0  0
 20 11  1  6  0  0  0
 20 13  1  0  0  0  0
 20 18  1  0  0  0  0
 21 26  2  0  0  0  0
 22 10  1  0  0  0  0
 23 21  1  0  0  0  0
 24 22  1  0  0  0  0
 25 14  1  1  0  0  0
 27  2  1  0  0  0  0
 29 28  1  0  0  0  0
 30 33  1  0  0  0  0
 32 29  1  6  0  0  0
 32 31  1  0  0  0  0
 33 31  1  0  0  0  0
 34 30  1  0  0  0  0
 34 32  1  0  0  0  0
M  END
>  <MODEL>
8

>  <REMARK>
 VINA RESULT:      -8.1      1.562      1.860
  Name = 
  3 active torsions:
  status: ('A' for Active; 'I' for Inactive)
    1  A    between atoms: C_17  and  O_28
    2  A    between atoms: O_28  and  C_29
    3  A    between atoms: C_29  and  C_32
                            x       y       z     vdW  Elec       q    Type
                         _______ _______ _______ _____ _____    ______ ____

>  <TORSDO>
F 3

$$$$
=
 OpenBabel11122412123D

 34 40  0  0  1  0  0  0  0  0999 V2000
  187.2540  178.0750  142.1810 C   0  0  0  0  0  0  0  0  0  0  0  0
  189.6950  177.4070  141.9990 C   0  0  0  0  0  2  0  0  0  0  0  0
  181.8530  180.2740  139.4930 C   0  0  0  0  0  0  0  0  0  0  0  0
  184.8410  178.3200  142.1860 C   0  0  0  0  0  0  0  0  0  0  0  0
  183.5360  178.4840  139.9580 C   0  0  1  0  0  3  0  0  0  0  0  0
  184.1190  180.5110  138.7170 O   0  0  0  0  0  1  0  0  0  0  0  0
  181.4770  181.1880  138.7110 O   0  0  0  0  0  0  0  0  0  0  0  0
  181.1170  179.0630  141.5780 C   0  0  0  0  0  3  0  0  0  0  0  0
  188.6040  178.3790  140.0640 C   0  0  2  0  0  3  0  0  0  0  0  0
  189.2350  176.7510  137.3050 C   0  0  0  0  0  2  0  0  0  0  0  0
  184.8150  177.8930  139.3490 C   0  0  0  0  0  2  0  0  0  0  0  0
  182.4390  178.7390  142.1510 C   0  0  0  0  0  3  0  0  0  0  0  0
  187.3350  177.9480  139.2960 C   0  0  1  0  0  3  0  0  0  0  0  0
  190.7010  177.4250  140.8640 C   0  0  0  0  0  2  0  0  0  0  0  0
  183.5650  178.5270  141.4620 C   0  0  0  0  0  0  0  0  0  0  0  0
  180.8650  179.7190  140.4390 C   0  0  0  0  0  3  0  0  0  0  0  0
  189.6910  176.4570  138.7450 C   0  0  2  0  0  3  0  0  0  0  0  0
  186.0550  178.2670  141.4740 C   0  0  0  0  0  0  0  0  0  0  0  0
  183.2020  179.7980  139.4180 N   0  0  0  0  0  0  0  0  0  0  0  0
  186.0710  178.4980  139.9770 C   0  0  2  0  0  3  0  0  0  0  0  0
  185.9970  177.9620  144.2380 C   0  0  0  0  0  3  0  0  0  0  0  0
  188.6720  178.1580  137.0920 C   0  0  0  0  0  2  0  0  0  0  0  0
  184.8480  178.1660  143.5410 N   0  0  0  0  0  0  0  0  0  0  0  0
  187.3520  178.3980  137.8260 C   0  0  0  0  0  2  0  0  0  0  0  0
  189.9200  177.7340  139.5870 C   0  0  1  0  0  3  0  0  0  0  0  0
  187.2190  177.9100  143.5700 C   0  0  0  0  0  3  0  0  0  0  0  0
  188.4950  178.0220  141.4680 N   0  0  0  0  0  0  0  0  0  0  0  0
  190.8460  175.6700  138.7000 O   0  0  0  0  0  0  0  0  0  0  0  0
  191.2650  175.7240  137.3670 C   0  0  0  0  0  2  0  0  0  0  0  0
  194.8000  175.3890  137.6750 O   0  0  0  0  0  0  0  0  0  0  0  0
  193.2910  176.0020  135.9620 C   0  0  0  0  0  2  0  0  0  0  0  0
  192.6610  176.3130  137.2870 C   0  0  2  0  0  3  0  0  0  0  0  0
  194.5080  175.1810  136.3200 C   0  0  0  0  0  2  0  0  0  0  0  0
  193.5600  175.6240  138.2850 C   0  0  0  0  0  2  0  0  0  0  0  0
  1 26  1  0  0  0  0
  3 16  1  0  0  0  0
  4 23  2  0  0  0  0
  5 11  1  6  0  0  0
  5 15  1  0  0  0  0
  6 19  1  0  0  0  0
  7  3  2  0  0  0  0
  8 12  1  0  0  0  0
  9 27  1  1  0  0  0
 10 17  1  0  0  0  0
 13 24  1  6  0  0  0
 13 20  1  0  0  0  0
 13  9  1  0  0  0  0
 14  2  1  0  0  0  0
 15 12  2  0  0  0  0
 15  4  1  0  0  0  0
 16  8  2  0  0  0  0
 17 28  1  6  0  0  0
 17 25  1  0  0  0  0
 18  1  2  0  0  0  0
 18  4  1  0  0  0  0
 19  3  1  0  0  0  0
 19  5  1  0  0  0  0
 20 11  1  6  0  0  0
 20 18  1  0  0  0  0
 22 10  1  0  0  0  0
 22 24  1  0  0  0  0
 23 21  1  0  0  0  0
 25  9  1  0  0  0  0
 25 14  1  1  0  0  0
 26 21  2  0  0  0  0
 27  2  1  0  0  0  0
 27  1  1  0  0  0  0
 29 28  1  0  0  0  0
 30 34  1  0  0  0  0
 31 33  1  0  0  0  0
 31 32  1  0  0  0  0
 32 29  1  6  0  0  0
 32 34  1  0  0  0  0
 33 30  1  0  0  0  0
M  END
>  <MODEL>
9

>  <REMARK>
 VINA RESULT:      -8.0      4.567      6.163
  Name = 
  3 active torsions:
  status: ('A' for Active; 'I' for Inactive)
    1  A    between atoms: C_17  and  O_28
    2  A    between atoms: O_28  and  C_29
    3  A    between atoms: C_29  and  C_32
                            x       y       z     vdW  Elec       q    Type
                         _______ _______ _______ _____ _____    ______ ____

>  <TORSDO>
F 3

$$$$
