=
 OpenBabel11122412133D

 34 40  0  0  1  0  0  0  0  0999 V2000
  184.0200  178.5900  144.3100 C   0  0  0  0  0  0  0  0  0  0  0  0
  181.6650  179.0960  143.6170 C   0  0  0  0  0  3  0  0  0  0  0  0
  191.1620  176.1870  144.7030 N   0  0  0  0  0  2  0  0  0  0  0  0
  186.3770  178.1640  144.7010 C   0  0  0  0  0  0  0  0  0  0  0  0
  187.9840  177.7200  142.8870 C   0  0  0  0  0  0  0  0  0  0  0  0
  189.8820  176.1020  142.6290 C   0  0  0  0  0  2  0  0  0  0  0  0
  191.2650  176.2230  143.2500 C   0  0  0  0  0  2  0  0  0  0  0  0
  190.0900  178.4110  145.0020 C   0  0  0  0  0  2  0  0  0  0  0  0
  183.2720  178.5320  141.9890 C   0  0  0  0  0  0  0  0  0  0  0  0
  182.6780  179.1290  138.8860 C   0  0  0  0  0  2  0  0  0  0  0  0
  186.9020  177.8660  141.9590 N   0  0  0  0  0  2  0  0  0  0  0  0
  188.8100  177.6290  145.2660 C   0  0  0  0  0  2  0  0  0  0  0  0
  184.5010  178.2860  141.4810 C   0  0  0  0  0  0  0  0  0  0  0  0
  181.0600  179.1290  142.4290 C   0  0  0  0  0  3  0  0  0  0  0  0
  187.7520  177.8700  144.2200 C   0  0  0  0  0  0  0  0  0  0  0  0
  191.3240  177.5380  145.2420 C   0  0  0  0  0  2  0  0  0  0  0  0
  182.0970  179.7550  140.1650 C   0  0  2  0  0  3  0  0  0  0  0  0
  185.3700  178.2810  143.8230 C   0  0  2  0  0  3  0  0  0  0  0  0
  189.3510  177.4900  142.3150 C   0  0  0  0  0  2  0  0  0  0  0  0
  185.6000  178.1380  142.4100 N   0  0  0  0  0  0  0  0  0  0  0  0
  184.9400  178.6240  146.5880 C   0  0  0  0  0  3  0  0  0  0  0  0
  183.6230  177.9450  139.1140 C   0  0  0  0  0  2  0  0  0  0  0  0
  186.1210  178.3410  146.1110 N   0  0  0  0  0  0  0  0  0  0  0  0
  184.7990  178.3280  140.0010 C   0  0  0  0  0  2  0  0  0  0  0  0
  181.9640  178.7140  141.2850 C   0  0  1  0  0  3  0  0  0  0  0  0
  183.8150  178.7740  145.7100 N   0  0  0  0  0  0  0  0  0  0  0  0
  183.0450  178.7050  143.4090 C   0  0  0  0  0  0  0  0  0  0  0  0
  180.7830  180.3900  139.8280 C   0  0  0  0  0  3  0  0  0  0  0  0
  180.4940  180.6840  138.6120 N   0  0  0  0  0  0  0  0  0  0  0  0
  179.3070  183.6180  138.7190 O   0  0  0  0  0  0  0  0  0  0  0  0
  179.3420  182.0270  136.9750 C   0  0  0  0  0  2  0  0  0  0  0  0
  179.2320  181.2930  138.2830 C   0  0  2  0  0  3  0  0  0  0  0  0
  179.0970  183.4700  137.3410 C   0  0  0  0  0  2  0  0  0  0  0  0
  178.9310  182.3890  139.2790 C   0  0  0  0  0  2  0  0  0  0  0  0
  1 26  1  0  0  0  0
  3 16  1  0  0  0  0
  4 23  2  0  0  0  0
  5 15  2  0  0  0  0
  6  7  1  0  0  0  0
  7  3  1  0  0  0  0
  8 16  1  0  0  0  0
  8 12  1  0  0  0  0
  9 27  1  0  0  0  0
 10 22  1  0  0  0  0
 10 17  1  0  0  0  0
 11 20  1  0  0  0  0
 11  5  1  0  0  0  0
 13  9  2  0  0  0  0
 13 20  1  0  0  0  0
 14  2  2  0  0  0  0
 15  4  1  0  0  0  0
 15 12  1  0  0  0  0
 17 28  1  6  0  0  0
 17 25  1  0  0  0  0
 18  1  1  6  0  0  0
 18  4  1  0  0  0  0
 19  6  1  0  0  0  0
 19  5  1  0  0  0  0
 20 18  1  0  0  0  0
 22 24  1  0  0  0  0
 23 21  1  0  0  0  0
 24 13  1  0  0  0  0
 25  9  1  0  0  0  0
 25 14  1  1  0  0  0
 26 21  2  0  0  0  0
 27  2  1  0  0  0  0
 27  1  2  0  0  0  0
 29 28  2  0  0  0  0
 30 34  1  0  0  0  0
 31 33  1  0  0  0  0
 31 32  1  0  0  0  0
 32 29  1  1  0  0  0
 32 34  1  0  0  0  0
 33 30  1  0  0  0  0
M  END
>  <MODEL>
1

>  <REMARK>
 VINA RESULT:     -10.0      0.000      0.000
  Name = 
  2 active torsions:
  status: ('A' for Active; 'I' for Inactive)
    1  A    between atoms: C_17  and  C_28
    2  A    between atoms: N_29  and  C_32
                            x       y       z     vdW  Elec       q    Type
                         _______ _______ _______ _____ _____    ______ ____

>  <TORSDO>
F 2

$$$$
=
 OpenBabel11122412133D

 34 40  0  0  1  0  0  0  0  0999 V2000
  191.1240  177.5400  142.3860 C   0  0  0  0  0  0  0  0  0  0  0  0
  192.9440  177.1410  140.7100 C   0  0  0  0  0  3  0  0  0  0  0  0
  184.7120  179.3990  145.9030 N   0  0  0  0  0  2  0  0  0  0  0  0
  189.1740  177.8220  143.8030 C   0  0  0  0  0  0  0  0  0  0  0  0
  186.8740  177.9110  142.9270 C   0  0  0  0  0  0  0  0  0  0  0  0
  184.8800  179.3290  143.4710 C   0  0  0  0  0  2  0  0  0  0  0  0
  183.9620  179.1760  144.6740 C   0  0  0  0  0  2  0  0  0  0  0  0
  186.0760  177.3200  145.8250 C   0  0  0  0  0  2  0  0  0  0  0  0
  190.7140  177.3720  139.9870 C   0  0  0  0  0  0  0  0  0  0  0  0
  189.8930  176.4470  137.0200 C   0  0  0  0  0  2  0  0  0  0  0  0
  187.4200  177.7390  141.6130 N   0  0  0  0  0  2  0  0  0  0  0  0
  187.2230  178.2280  145.4020 C   0  0  0  0  0  2  0  0  0  0  0  0
  189.3680  177.4540  140.0980 C   0  0  0  0  0  0  0  0  0  0  0  0
  192.9370  177.0100  139.3820 C   0  0  0  0  0  3  0  0  0  0  0  0
  187.7070  177.9450  144.0020 C   0  0  0  0  0  0  0  0  0  0  0  0
  184.9880  178.1160  146.5510 C   0  0  0  0  0  2  0  0  0  0  0  0
  191.0690  176.0310  137.9190 C   0  0  2  0  0  3  0  0  0  0  0  0
  189.6740  177.6790  142.5670 C   0  0  2  0  0  3  0  0  0  0  0  0
  185.3800  177.9610  143.0460 C   0  0  0  0  0  2  0  0  0  0  0  0
  188.8070  177.6280  141.4200 N   0  0  0  0  0  0  0  0  0  0  0  0
  191.3610  177.7130  144.8250 C   0  0  0  0  0  3  0  0  0  0  0  0
  189.0150  177.5710  137.5780 C   0  0  0  0  0  2  0  0  0  0  0  0
  190.0670  177.8410  144.9380 N   0  0  0  0  0  0  0  0  0  0  0  0
  188.4340  177.2080  138.9370 C   0  0  0  0  0  2  0  0  0  0  0  0
  191.5660  177.2090  138.7690 C   0  0  1  0  0  3  0  0  0  0  0  0
  191.9690  177.5460  143.5370 N   0  0  0  0  0  0  0  0  0  0  0  0
  191.5850  177.3930  141.1450 C   0  0  0  0  0  0  0  0  0  0  0  0
  192.1520  175.4650  137.0520 C   0  0  0  0  0  3  0  0  0  0  0  0
  192.5240  176.0810  135.9890 N   0  0  0  0  0  0  0  0  0  0  0  0
  195.6500  176.5080  135.7180 O   0  0  0  0  0  0  0  0  0  0  0  0
  194.3710  174.5340  135.9250 C   0  0  0  0  0  2  0  0  0  0  0  0
  193.5650  175.5410  135.1530 C   0  0  2  0  0  3  0  0  0  0  0  0
  195.7540  175.1360  135.9820 C   0  0  0  0  0  2  0  0  0  0  0  0
  194.5660  176.6290  134.8370 C   0  0  0  0  0  2  0  0  0  0  0  0
  1 26  1  0  0  0  0
  2 27  1  0  0  0  0
  3 16  1  0  0  0  0
  4 15  1  0  0  0  0
  4 23  2  0  0  0  0
  5 19  1  0  0  0  0
  5 15  2  0  0  0  0
  6  7  1  0  0  0  0
  7  3  1  0  0  0  0
  8 16  1  0  0  0  0
  9 13  2  0  0  0  0
  9 27  1  0  0  0  0
 10 22  1  0  0  0  0
 10 17  1  0  0  0  0
 11  5  1  0  0  0  0
 12  8  1  0  0  0  0
 13 20  1  0  0  0  0
 14  2  2  0  0  0  0
 15 12  1  0  0  0  0
 17 28  1  6  0  0  0
 17 25  1  0  0  0  0
 18  1  1  1  0  0  0
 18  4  1  0  0  0  0
 19  6  1  0  0  0  0
 20 11  1  0  0  0  0
 20 18  1  0  0  0  0
 21 23  1  0  0  0  0
 22 24  1  0  0  0  0
 24 13  1  0  0  0  0
 25 14  1  1  0  0  0
 25  9  1  0  0  0  0
 26 21  2  0  0  0  0
 27  1  2  0  0  0  0
 29 28  2  0  0  0  0
 30 33  1  0  0  0  0
 31 33  1  0  0  0  0
 32 31  1  0  0  0  0
 32 29  1  1  0  0  0
 34 32  1  0  0  0  0
 34 30  1  0  0  0  0
M  END
>  <MODEL>
2

>  <REMARK>
 VINA RESULT:      -9.7      5.156      9.511
  Name = 
  2 active torsions:
  status: ('A' for Active; 'I' for Inactive)
    1  A    between atoms: C_17  and  C_28
    2  A    between atoms: N_29  and  C_32
                            x       y       z     vdW  Elec       q    Type
                         _______ _______ _______ _____ _____    ______ ____

>  <TORSDO>
F 2

$$$$
=
 OpenBabel11122412133D

 34 40  0  0  1  0  0  0  0  0999 V2000
  186.6660  178.5650  140.3450 C   0  0  0  0  0  0  0  0  0  0  0  0
  184.6540  179.2290  139.0060 C   0  0  0  0  0  3  0  0  0  0  0  0
  191.7080  177.3010  145.8150 N   0  0  0  0  0  2  0  0  0  0  0  0
  188.4240  177.8280  141.8470 C   0  0  0  0  0  0  0  0  0  0  0  0
  188.0630  177.4370  144.2520 C   0  0  0  0  0  0  0  0  0  0  0  0
  189.4100  177.9590  146.3010 C   0  0  0  0  0  2  0  0  0  0  0  0
  190.6350  177.2040  146.7960 C   0  0  0  0  0  2  0  0  0  0  0  0
  190.6790  175.8530  144.0730 C   0  0  0  0  0  2  0  0  0  0  0  0
  184.4710  178.9460  141.3380 C   0  0  0  0  0  0  0  0  0  0  0  0
  181.5670  178.6680  142.6890 C   0  0  0  0  0  2  0  0  0  0  0  0
  186.6930  177.8110  144.0580 N   0  0  0  0  0  2  0  0  0  0  0  0
  190.3900  177.1520  143.3310 C   0  0  0  0  0  2  0  0  0  0  0  0
  184.8450  178.5740  142.5830 C   0  0  0  0  0  0  0  0  0  0  0  0
  183.3860  179.4730  139.3420 C   0  0  0  0  0  3  0  0  0  0  0  0
  188.9150  177.4300  143.1920 C   0  0  0  0  0  0  0  0  0  0  0  0
  191.8180  176.0400  145.0790 C   0  0  0  0  0  2  0  0  0  0  0  0
  182.0410  178.4060  141.2500 C   0  0  2  0  0  3  0  0  0  0  0  0
  187.1440  178.1920  141.6820 C   0  0  0  0  0  0  0  0  0  0  0  0
  188.4610  176.9860  145.6260 C   0  0  0  0  0  2  0  0  0  0  0  0
  186.2260  178.1940  142.7890 N   0  0  0  0  0  0  0  0  0  0  0  0
  188.9320  178.1250  139.5040 C   0  0  0  0  0  3  0  0  0  0  0  0
  182.6240  179.2650  143.6230 C   0  0  0  0  0  2  0  0  0  0  0  0
  189.3150  177.8090  140.7110 N   0  0  0  0  0  0  0  0  0  0  0  0
  183.8600  178.3790  143.7110 C   0  0  0  0  0  2  0  0  0  0  0  0
  183.1370  179.3970  140.8340 C   0  0  1  0  0  3  0  0  0  0  0  0
  187.5760  178.5160  139.2460 N   0  0  0  0  0  2  0  0  0  0  0  0
  185.3880  178.9170  140.2160 C   0  0  0  0  0  0  0  0  0  0  0  0
  180.8520  178.4660  140.3410 C   0  0  0  0  0  3  0  0  0  0  0  0
  180.0740  179.4860  140.3520 N   0  0  0  0  0  0  0  0  0  0  0  0
  179.5410  180.4970  137.3980 O   0  0  0  0  0  0  0  0  0  0  0  0
  179.0090  178.4520  138.4530 C   0  0  0  0  0  2  0  0  0  0  0  0
  178.9310  179.5480  139.4790 C   0  0  2  0  0  3  0  0  0  0  0  0
  179.1190  179.1860  137.1390 C   0  0  0  0  0  2  0  0  0  0  0  0
  179.0000  180.8130  138.6530 C   0  0  0  0  0  2  0  0  0  0  0  0
  1 18  1  0  0  0  0
  2 14  2  0  0  0  0
  2 27  1  0  0  0  0
  3  7  1  0  0  0  0
  4 15  1  0  0  0  0
  5 19  1  0  0  0  0
  6  7  1  0  0  0  0
  8 16  1  0  0  0  0
  9 13  2  0  0  0  0
 10 22  1  0  0  0  0
 11  5  1  0  0  0  0
 12  8  1  0  0  0  0
 13 20  1  0  0  0  0
 13 24  1  0  0  0  0
 15 12  1  0  0  0  0
 15  5  2  0  0  0  0
 16  3  1  0  0  0  0
 17 28  1  6  0  0  0
 17 10  1  0  0  0  0
 18  4  2  0  0  0  0
 18 20  1  0  0  0  0
 19  6  1  0  0  0  0
 20 11  1  0  0  0  0
 21 23  2  0  0  0  0
 22 24  1  0  0  0  0
 23  4  1  0  0  0  0
 25 14  1  6  0  0  0
 25 17  1  0  0  0  0
 25  9  1  0  0  0  0
 26 21  1  0  0  0  0
 26  1  1  0  0  0  0
 27  1  2  0  0  0  0
 27  9  1  0  0  0  0
 28 29  2  0  0  0  0
 30 34  1  0  0  0  0
 31 32  1  0  0  0  0
 32 29  1  1  0  0  0
 33 30  1  0  0  0  0
 33 31  1  0  0  0  0
 34 32  1  0  0  0  0
M  END
>  <MODEL>
3

>  <REMARK>
 VINA RESULT:      -9.3      1.680      3.683
  Name = 
  2 active torsions:
  status: ('A' for Active; 'I' for Inactive)
    1  A    between atoms: C_17  and  C_28
    2  A    between atoms: N_29  and  C_32
                            x       y       z     vdW  Elec       q    Type
                         _______ _______ _______ _____ _____    ______ ____

>  <TORSDO>
F 2

$$$$
=
 OpenBabel11122412133D

 34 40  0  0  1  0  0  0  0  0999 V2000
  186.2770  178.6260  141.2080 C   0  0  0  0  0  0  0  0  0  0  0  0
  184.6900  179.0170  139.3080 C   0  0  0  0  0  3  0  0  0  0  0  0
  189.6560  178.2550  147.9450 N   0  0  0  0  0  2  0  0  0  0  0  0
  187.5780  178.1620  143.2040 C   0  0  0  0  0  0  0  0  0  0  0  0
  186.5820  177.9910  145.4500 C   0  0  0  0  0  0  0  0  0  0  0  0
  187.2910  178.8040  147.7130 C   0  0  0  0  0  2  0  0  0  0  0  0
  188.3580  178.1850  148.6030 C   0  0  0  0  0  2  0  0  0  0  0  0
  189.2020  176.5750  146.1670 C   0  0  0  0  0  2  0  0  0  0  0  0
  183.8810  178.9570  141.5200 C   0  0  0  0  0  0  0  0  0  0  0  0
  180.7290  178.6210  142.0590 C   0  0  0  0  0  2  0  0  0  0  0  0
  185.3060  178.2510  144.8510 N   0  0  0  0  0  2  0  0  0  0  0  0
  189.0820  177.7710  145.2310 C   0  0  0  0  0  2  0  0  0  0  0  0
  183.9100  178.7370  142.8540 C   0  0  0  0  0  0  0  0  0  0  0  0
  183.3710  179.2080  139.2580 C   0  0  0  0  0  3  0  0  0  0  0  0
  187.6930  177.9350  144.6670 C   0  0  0  0  0  0  0  0  0  0  0  0
  190.0110  176.9380  147.4150 C   0  0  0  0  0  2  0  0  0  0  0  0
  181.5910  178.2490  140.8410 C   0  0  2  0  0  3  0  0  0  0  0  0
  186.3810  178.4220  142.6580 C   0  0  0  0  0  0  0  0  0  0  0  0
  186.6020  177.7060  146.9230 C   0  0  0  0  0  2  0  0  0  0  0  0
  185.1930  178.4720  143.4680 N   0  0  0  0  0  0  0  0  0  0  0  0
  188.7020  178.2570  141.0670 C   0  0  0  0  0  3  0  0  0  0  0  0
  181.4650  179.3780  143.1690 C   0  0  0  0  0  2  0  0  0  0  0  0
  188.7480  178.0890  142.3610 N   0  0  0  0  0  0  0  0  0  0  0  0
  182.6600  178.5900  143.6890 C   0  0  0  0  0  2  0  0  0  0  0  0
  182.7220  179.2650  140.6260 C   0  0  1  0  0  3  0  0  0  0  0  0
  187.4560  178.5290  140.4100 N   0  0  0  0  0  2  0  0  0  0  0  0
  185.0720  178.8770  140.6990 C   0  0  0  0  0  0  0  0  0  0  0  0
  180.6980  178.1380  139.6430 C   0  0  0  0  0  3  0  0  0  0  0  0
  179.7900  179.0180  139.4240 N   0  0  0  0  0  0  0  0  0  0  0  0
  179.8460  180.1280  136.4580 O   0  0  0  0  0  0  0  0  0  0  0  0
  179.5100  177.9420  137.2860 C   0  0  0  0  0  2  0  0  0  0  0  0
  178.9310  178.9160  138.2730 C   0  0  2  0  0  3  0  0  0  0  0  0
  179.7990  178.7830  136.0660 C   0  0  0  0  0  2  0  0  0  0  0  0
  178.9400  180.2290  137.5230 C   0  0  0  0  0  2  0  0  0  0  0  0
  1 18  1  0  0  0  0
  2 27  1  0  0  0  0
  3  7  1  0  0  0  0
  4 15  1  0  0  0  0
  5 19  1  0  0  0  0
  6  7  1  0  0  0  0
  8 16  1  0  0  0  0
  9 13  2  0  0  0  0
 10 22  1  0  0  0  0
 11  5  1  0  0  0  0
 12  8  1  0  0  0  0
 13 20  1  0  0  0  0
 13 24  1  0  0  0  0
 14  2  2  0  0  0  0
 15 12  1  0  0  0  0
 15  5  2  0  0  0  0
 16  3  1  0  0  0  0
 17 28  1  6  0  0  0
 17 10  1  0  0  0  0
 18  4  2  0  0  0  0
 18 20  1  0  0  0  0
 19  6  1  0  0  0  0
 20 11  1  0  0  0  0
 21 23  2  0  0  0  0
 22 24  1  0  0  0  0
 23  4  1  0  0  0  0
 25 14  1  6  0  0  0
 25 17  1  0  0  0  0
 25  9  1  0  0  0  0
 26 21  1  0  0  0  0
 26  1  1  0  0  0  0
 27  1  2  0  0  0  0
 27  9  1  0  0  0  0
 29 28  2  0  0  0  0
 30 34  1  0  0  0  0
 31 32  1  0  0  0  0
 32 29  1  1  0  0  0
 33 30  1  0  0  0  0
 33 31  1  0  0  0  0
 34 32  1  0  0  0  0
M  END
>  <MODEL>
4

>  <REMARK>
 VINA RESULT:      -9.2      1.963      3.785
  Name = 
  2 active torsions:
  status: ('A' for Active; 'I' for Inactive)
    1  A    between atoms: C_17  and  C_28
    2  A    between atoms: N_29  and  C_32
                            x       y       z     vdW  Elec       q    Type
                         _______ _______ _______ _____ _____    ______ ____

>  <TORSDO>
F 2

$$$$
=
 OpenBabel11122412133D

 34 40  0  0  1  0  0  0  0  0999 V2000
  187.9340  178.0380  141.7240 C   0  0  0  0  0  0  0  0  0  0  0  0
  186.2260  178.5920  139.9750 C   0  0  0  0  0  3  0  0  0  0  0  0
  191.9130  177.3890  148.1020 N   0  0  0  0  0  2  0  0  0  0  0  0
  189.3600  177.4530  143.5980 C   0  0  0  0  0  0  0  0  0  0  0  0
  188.5880  177.4840  145.9370 C   0  0  0  0  0  0  0  0  0  0  0  0
  189.6320  178.2530  148.0830 C   0  0  0  0  0  2  0  0  0  0  0  0
  190.6920  177.5170  148.8890 C   0  0  0  0  0  2  0  0  0  0  0  0
  191.0550  175.7400  146.4500 C   0  0  0  0  0  2  0  0  0  0  0  0
  185.6500  178.7050  142.2570 C   0  0  0  0  0  0  0  0  0  0  0  0
  182.5550  178.8240  143.1180 C   0  0  0  0  0  2  0  0  0  0  0  0
  187.3040  177.9010  145.4570 N   0  0  0  0  0  2  0  0  0  0  0  0
  191.0000  176.9140  145.4820 C   0  0  0  0  0  2  0  0  0  0  0  0
  185.7870  178.5200  143.5900 C   0  0  0  0  0  0  0  0  0  0  0  0
  184.9460  178.9630  140.0480 C   0  0  0  0  0  3  0  0  0  0  0  0
  189.5950  177.2530  145.0510 C   0  0  0  0  0  0  0  0  0  0  0  0
  192.0300  176.0210  147.5960 C   0  0  0  0  0  2  0  0  0  0  0  0
  183.2280  178.3030  141.8380 C   0  0  2  0  0  3  0  0  0  0  0  0
  188.1590  177.8610  143.1630 C   0  0  0  0  0  0  0  0  0  0  0  0
  188.7230  177.2400  147.4110 C   0  0  0  0  0  2  0  0  0  0  0  0
  187.0800  178.0980  144.0840 N   0  0  0  0  0  0  0  0  0  0  0  0
  190.2590  177.3330  141.3590 C   0  0  0  0  0  3  0  0  0  0  0  0
  183.4970  179.5020  144.1180 C   0  0  0  0  0  2  0  0  0  0  0  0
  190.4160  177.1960  142.6470 N   0  0  0  0  0  0  0  0  0  0  0  0
  184.6220  178.5710  144.5490 C   0  0  0  0  0  2  0  0  0  0  0  0
  184.4570  179.1470  141.4710 C   0  0  1  0  0  3  0  0  0  0  0  0
  189.0000  177.7560  140.8170 N   0  0  0  0  0  2  0  0  0  0  0  0
  186.7280  178.4390  141.3270 C   0  0  0  0  0  0  0  0  0  0  0  0
  182.2090  178.2840  140.7400 C   0  0  0  0  0  3  0  0  0  0  0  0
  181.3530  179.2340  140.6290 N   0  0  0  0  0  0  0  0  0  0  0  0
  180.5170  181.2080  138.2960 O   0  0  0  0  0  0  0  0  0  0  0  0
  181.0350  178.9040  138.2620 C   0  0  0  0  0  2  0  0  0  0  0  0
  180.3730  179.2200  139.5740 C   0  0  2  0  0  3  0  0  0  0  0  0
  180.8200  180.1460  137.4330 C   0  0  0  0  0  2  0  0  0  0  0  0
  179.8360  180.6190  139.3710 C   0  0  0  0  0  2  0  0  0  0  0  0
  1 18  1  0  0  0  0
  2 14  2  0  0  0  0
  2 27  1  0  0  0  0
  3  7  1  0  0  0  0
  4 15  1  0  0  0  0
  5 19  1  0  0  0  0
  6  7  1  0  0  0  0
  8 16  1  0  0  0  0
  9 13  2  0  0  0  0
 10 22  1  0  0  0  0
 11  5  1  0  0  0  0
 12  8  1  0  0  0  0
 13 20  1  0  0  0  0
 13 24  1  0  0  0  0
 15 12  1  0  0  0  0
 15  5  2  0  0  0  0
 16  3  1  0  0  0  0
 17 28  1  6  0  0  0
 17 10  1  0  0  0  0
 18  4  2  0  0  0  0
 18 20  1  0  0  0  0
 19  6  1  0  0  0  0
 20 11  1  0  0  0  0
 21 23  2  0  0  0  0
 22 24  1  0  0  0  0
 23  4  1  0  0  0  0
 25 14  1  6  0  0  0
 25 17  1  0  0  0  0
 25  9  1  0  0  0  0
 26 21  1  0  0  0  0
 26  1  1  0  0  0  0
 27  1  2  0  0  0  0
 27  9  1  0  0  0  0
 29 28  2  0  0  0  0
 30 34  1  0  0  0  0
 31 32  1  0  0  0  0
 32 29  1  1  0  0  0
 33 31  1  0  0  0  0
 33 30  1  0  0  0  0
 34 32  1  0  0  0  0
M  END
>  <MODEL>
5

>  <REMARK>
 VINA RESULT:      -9.1      1.852      4.098
  Name = 
  2 active torsions:
  status: ('A' for Active; 'I' for Inactive)
    1  A    between atoms: C_17  and  C_28
    2  A    between atoms: N_29  and  C_32
                            x       y       z     vdW  Elec       q    Type
                         _______ _______ _______ _____ _____    ______ ____

>  <TORSDO>
F 2

$$$$
=
 OpenBabel11122412133D

 34 40  0  0  1  0  0  0  0  0999 V2000
  190.5320  177.2840  141.4210 C   0  0  0  0  0  0  0  0  0  0  0  0
  191.8780  176.9260  139.3360 C   0  0  0  0  0  3  0  0  0  0  0  0
  185.3480  179.3310  146.5070 N   0  0  0  0  0  2  0  0  0  0  0  0
  188.9910  177.5790  143.2710 C   0  0  0  0  0  0  0  0  0  0  0  0
  186.5920  178.0480  142.9640 C   0  0  0  0  0  0  0  0  0  0  0  0
  184.9800  179.5880  144.1090 C   0  0  0  0  0  2  0  0  0  0  0  0
  184.3280  179.3690  145.4660 C   0  0  0  0  0  2  0  0  0  0  0  0
  186.3570  177.1450  145.8820 C   0  0  0  0  0  2  0  0  0  0  0  0
  189.5990  177.5040  139.1780 C   0  0  0  0  0  0  0  0  0  0  0  0
  188.0420  177.1070  136.3940 C   0  0  0  0  0  2  0  0  0  0  0  0
  186.8150  178.0030  141.5490 N   0  0  0  0  0  2  0  0  0  0  0  0
  187.5030  177.9700  145.3110 C   0  0  0  0  0  2  0  0  0  0  0  0
  188.3340  177.7200  139.6040 C   0  0  0  0  0  0  0  0  0  0  0  0
  191.5690  176.9860  138.0400 C   0  0  0  0  0  3  0  0  0  0  0  0
  187.6320  177.8360  143.8150 C   0  0  0  0  0  0  0  0  0  0  0  0
  185.5730  177.9460  146.9240 C   0  0  0  0  0  2  0  0  0  0  0  0
  189.3120  176.4380  136.9450 C   0  0  2  0  0  3  0  0  0  0  0  0
  189.1890  177.5570  141.9460 C   0  0  2  0  0  3  0  0  0  0  0  0
  185.1800  178.2460  143.4290 C   0  0  0  0  0  2  0  0  0  0  0  0
  188.0990  177.7660  141.0310 N   0  0  0  0  0  0  0  0  0  0  0  0
  191.3080  177.0830  143.7430 C   0  0  0  0  0  3  0  0  0  0  0  0
  187.4700  178.2310  137.2620 C   0  0  0  0  0  2  0  0  0  0  0  0
  190.0990  177.3370  144.1650 N   0  0  0  0  0  0  0  0  0  0  0  0
  187.1480  177.7460  138.6690 C   0  0  0  0  0  2  0  0  0  0  0  0
  190.1390  177.4210  137.7850 C   0  0  1  0  0  3  0  0  0  0  0  0
  191.5960  177.0330  142.3390 N   0  0  0  0  0  0  0  0  0  0  0  0
  190.6920  177.2640  140.0980 C   0  0  0  0  0  0  0  0  0  0  0  0
  190.0940  175.8840  135.7940 C   0  0  0  0  0  3  0  0  0  0  0  0
  190.3160  174.6230  135.7040 N   0  0  0  0  0  0  0  0  0  0  0  0
  193.3060  173.6840  135.2480 O   0  0  0  0  0  0  0  0  0  0  0  0
  191.2580  172.6050  134.7810 C   0  0  0  0  0  2  0  0  0  0  0  0
  191.0660  174.0850  134.5990 C   0  0  2  0  0  3  0  0  0  0  0  0
  192.7530  172.4420  134.9090 C   0  0  0  0  0  2  0  0  0  0  0  0
  192.4740  174.6330  134.6360 C   0  0  0  0  0  2  0  0  0  0  0  0
  1 26  1  0  0  0  0
  2 27  1  0  0  0  0
  3 16  1  0  0  0  0
  4 15  1  0  0  0  0
  4 23  2  0  0  0  0
  5 19  1  0  0  0  0
  5 15  2  0  0  0  0
  6  7  1  0  0  0  0
  7  3  1  0  0  0  0
  8 16  1  0  0  0  0
  9 13  2  0  0  0  0
  9 27  1  0  0  0  0
 10 17  1  0  0  0  0
 10 22  1  0  0  0  0
 11  5  1  0  0  0  0
 12  8  1  0  0  0  0
 13 20  1  0  0  0  0
 14  2  2  0  0  0  0
 15 12  1  0  0  0  0
 17 28  1  6  0  0  0
 17 25  1  0  0  0  0
 18  1  1  6  0  0  0
 18  4  1  0  0  0  0
 19  6  1  0  0  0  0
 20 11  1  0  0  0  0
 20 18  1  0  0  0  0
 21 23  1  0  0  0  0
 22 24  1  0  0  0  0
 24 13  1  0  0  0  0
 25 14  1  1  0  0  0
 25  9  1  0  0  0  0
 26 21  2  0  0  0  0
 27  1  2  0  0  0  0
 29 28  2  0  0  0  0
 31 33  1  0  0  0  0
 32 34  1  0  0  0  0
 32 31  1  0  0  0  0
 32 29  1  1  0  0  0
 33 30  1  0  0  0  0
 34 30  1  0  0  0  0
M  END
>  <MODEL>
6

>  <REMARK>
 VINA RESULT:      -8.7      5.158      8.864
  Name = 
  2 active torsions:
  status: ('A' for Active; 'I' for Inactive)
    1  A    between atoms: C_17  and  C_28
    2  A    between atoms: N_29  and  C_32
                            x       y       z     vdW  Elec       q    Type
                         _______ _______ _______ _____ _____    ______ ____

>  <TORSDO>
F 2

$$$$
=
 OpenBabel11122412133D

 34 40  0  0  1  0  0  0  0  0999 V2000
  187.4330  177.9570  142.0520 C   0  0  0  0  0  0  0  0  0  0  0  0
  189.8740  177.4070  141.9030 C   0  0  0  0  0  3  0  0  0  0  0  0
  180.4270  180.4860  140.8390 N   0  0  0  0  0  2  0  0  0  0  0  0
  185.0560  178.4260  141.9070 C   0  0  0  0  0  0  0  0  0  0  0  0
  183.9020  178.8880  139.7810 C   0  0  0  0  0  0  0  0  0  0  0  0
  182.1390  180.5360  139.1020 C   0  0  0  0  0  2  0  0  0  0  0  0
  180.6500  180.4420  139.4000 C   0  0  0  0  0  2  0  0  0  0  0  0
  181.3650  178.2450  141.3730 C   0  0  0  0  0  2  0  0  0  0  0  0
  188.6810  177.9890  139.9560 C   0  0  0  0  0  0  0  0  0  0  0  0
  189.9400  177.3640  137.0650 C   0  0  0  0  0  2  0  0  0  0  0  0
  185.1610  178.7170  139.1170 N   0  0  0  0  0  2  0  0  0  0  0  0
  182.5680  179.0060  141.9150 C   0  0  0  0  0  2  0  0  0  0  0  0
  187.6000  178.2530  139.1870 C   0  0  0  0  0  0  0  0  0  0  0  0
  190.7270  177.3570  140.8790 C   0  0  0  0  0  3  0  0  0  0  0  0
  183.8290  178.7410  141.1310 C   0  0  0  0  0  0  0  0  0  0  0  0
  180.1250  179.1410  141.3310 C   0  0  0  0  0  2  0  0  0  0  0  0
  190.2100  176.7350  138.4430 C   0  0  2  0  0  3  0  0  0  0  0  0
  186.2310  178.2870  141.2760 C   0  0  2  0  0  3  0  0  0  0  0  0
  182.7010  179.1380  138.9180 C   0  0  0  0  0  2  0  0  0  0  0  0
  186.3240  178.4250  139.8480 N   0  0  0  0  0  0  0  0  0  0  0  0
  186.0280  177.9520  144.0680 C   0  0  0  0  0  3  0  0  0  0  0  0
  188.9900  178.5650  137.0750 C   0  0  0  0  0  2  0  0  0  0  0  0
  184.9880  178.2530  143.3390 N   0  0  0  0  0  0  0  0  0  0  0  0
  187.6380  178.2080  137.6780 C   0  0  0  0  0  2  0  0  0  0  0  0
  190.1080  177.7800  139.5620 C   0  0  1  0  0  3  0  0  0  0  0  0
  187.3170  177.7770  143.4630 N   0  0  0  0  0  0  0  0  0  0  0  0
  188.5820  177.8200  141.3920 C   0  0  0  0  0  0  0  0  0  0  0  0
  191.5550  176.0760  138.4080 C   0  0  0  0  0  3  0  0  0  0  0  0
  192.4050  176.3770  137.4940 N   0  0  0  0  0  0  0  0  0  0  0  0
  193.5680  173.6780  136.3140 O   0  0  0  0  0  0  0  0  0  0  0  0
  194.3100  175.9090  136.0940 C   0  0  0  0  0  2  0  0  0  0  0  0
  193.6980  175.7460  137.4570 C   0  0  2  0  0  3  0  0  0  0  0  0
  194.4320  174.4970  135.5740 C   0  0  0  0  0  2  0  0  0  0  0  0
  193.5300  174.2500  137.5940 C   0  0  0  0  0  2  0  0  0  0  0  0
  1 26  1  0  0  0  0
  3 16  1  0  0  0  0
  4 23  2  0  0  0  0
  5 15  2  0  0  0  0
  6  7  1  0  0  0  0
  7  3  1  0  0  0  0
  8 12  1  0  0  0  0
  9 27  1  0  0  0  0
 10 22  1  0  0  0  0
 10 17  1  0  0  0  0
 11  5  1  0  0  0  0
 11 20  1  0  0  0  0
 13 20  1  0  0  0  0
 13  9  2  0  0  0  0
 14  2  2  0  0  0  0
 15  4  1  0  0  0  0
 15 12  1  0  0  0  0
 16  8  1  0  0  0  0
 17 28  1  6  0  0  0
 17 25  1  0  0  0  0
 18  4  1  6  0  0  0
 18  1  1  0  0  0  0
 19  6  1  0  0  0  0
 19  5  1  0  0  0  0
 20 18  1  0  0  0  0
 22 24  1  0  0  0  0
 23 21  1  0  0  0  0
 24 13  1  0  0  0  0
 25  9  1  0  0  0  0
 25 14  1  1  0  0  0
 26 21  2  0  0  0  0
 27  2  1  0  0  0  0
 27  1  2  0  0  0  0
 29 28  2  0  0  0  0
 30 34  1  0  0  0  0
 31 32  1  0  0  0  0
 32 29  1  6  0  0  0
 32 34  1  0  0  0  0
 33 31  1  0  0  0  0
 33 30  1  0  0  0  0
M  END
>  <MODEL>
7

>  <REMARK>
 VINA RESULT:      -8.5      4.680      9.535
  Name = 
  2 active torsions:
  status: ('A' for Active; 'I' for Inactive)
    1  A    between atoms: C_17  and  C_28
    2  A    between atoms: N_29  and  C_32
                            x       y       z     vdW  Elec       q    Type
                         _______ _______ _______ _____ _____    ______ ____

>  <TORSDO>
F 2

$$$$
=
 OpenBabel11122412133D

 34 40  0  0  1  0  0  0  0  0999 V2000
  182.0370  178.8380  143.1980 C   0  0  0  0  0  0  0  0  0  0  0  0
  183.4030  179.0050  145.2940 C   0  0  0  0  0  3  0  0  0  0  0  0
  179.5620  178.8800  136.0700 N   0  0  0  0  0  2  0  0  0  0  0  0
  180.9540  178.5490  141.0460 C   0  0  0  0  0  0  0  0  0  0  0  0
  182.1960  178.1730  138.9530 C   0  0  0  0  0  0  0  0  0  0  0  0
  181.9340  179.0440  136.6160 C   0  0  0  0  0  2  0  0  0  0  0  0
  180.9070  178.5880  135.5910 C   0  0  0  0  0  2  0  0  0  0  0  0
  179.4980  177.1860  137.8900 C   0  0  0  0  0  2  0  0  0  0  0  0
  184.4760  178.7700  143.2090 C   0  0  0  0  0  0  0  0  0  0  0  0
  187.5740  177.9190  143.0960 C   0  0  0  0  0  2  0  0  0  0  0  0
  183.4070  178.2360  139.7170 N   0  0  0  0  0  2  0  0  0  0  0  0
  179.6870  178.3650  138.8350 C   0  0  0  0  0  2  0  0  0  0  0  0
  184.5870  178.5310  141.8830 C   0  0  0  0  0  0  0  0  0  0  0  0
  184.7170  178.9810  145.5200 C   0  0  0  0  0  3  0  0  0  0  0  0
  180.9970  178.3140  139.5800 C   0  0  0  0  0  0  0  0  0  0  0  0
  178.9310  177.6490  136.5450 C   0  0  0  0  0  2  0  0  0  0  0  0
  186.5090  177.7160  144.1870 C   0  0  2  0  0  3  0  0  0  0  0  0
  182.0940  178.6230  141.7470 C   0  0  2  0  0  3  0  0  0  0  0  0
  182.3250  177.8660  137.4900 C   0  0  0  0  0  2  0  0  0  0  0  0
  183.3700  178.4640  141.1030 N   0  0  0  0  0  0  0  0  0  0  0  0
  179.5880  178.8680  143.0130 C   0  0  0  0  0  3  0  0  0  0  0  0
  187.1240  178.7610  141.8990 C   0  0  0  0  0  2  0  0  0  0  0  0
  179.6860  178.6840  141.7250 N   0  0  0  0  0  0  0  0  0  0  0  0
  185.8960  178.1670  141.2230 C   0  0  0  0  0  2  0  0  0  0  0  0
  185.5410  178.9050  144.2500 C   0  0  1  0  0  3  0  0  0  0  0  0
  180.7630  178.9480  143.8320 N   0  0  0  0  0  0  0  0  0  0  0  0
  183.1900  178.9000  143.8640 C   0  0  0  0  0  0  0  0  0  0  0  0
  187.2060  177.4860  145.4930 C   0  0  0  0  0  3  0  0  0  0  0  0
  188.4380  177.1280  145.5200 N   0  0  0  0  0  0  0  0  0  0  0  0
  189.0400  178.8680  148.0970 O   0  0  0  0  0  0  0  0  0  0  0  0
  188.1040  176.7120  147.8700 C   0  0  0  0  0  2  0  0  0  0  0  0
  189.1130  176.9070  146.7730 C   0  0  2  0  0  3  0  0  0  0  0  0
  188.3420  177.8770  148.8000 C   0  0  0  0  0  2  0  0  0  0  0  0
  189.8380  178.1700  147.1790 C   0  0  0  0  0  2  0  0  0  0  0  0
  1 26  1  0  0  0  0
  1 27  2  0  0  0  0
  2 14  2  0  0  0  0
  3 16  1  0  0  0  0
  4 23  2  0  0  0  0
  5 15  2  0  0  0  0
  5 11  1  0  0  0  0
  6 19  1  0  0  0  0
  7  3  1  0  0  0  0
  7  6  1  0  0  0  0
  8 12  1  0  0  0  0
  9 27  1  0  0  0  0
  9 25  1  0  0  0  0
 10 17  1  0  0  0  0
 11 20  1  0  0  0  0
 12 15  1  0  0  0  0
 13  9  2  0  0  0  0
 15  4  1  0  0  0  0
 16  8  1  0  0  0  0
 17 25  1  0  0  0  0
 17 28  1  1  0  0  0
 18  4  1  1  0  0  0
 18  1  1  0  0  0  0
 19  5  1  0  0  0  0
 20 18  1  0  0  0  0
 20 13  1  0  0  0  0
 21 26  2  0  0  0  0
 22 10  1  0  0  0  0
 23 21  1  0  0  0  0
 24 13  1  0  0  0  0
 24 22  1  0  0  0  0
 25 14  1  1  0  0  0
 27  2  1  0  0  0  0
 28 29  2  0  0  0  0
 30 33  1  0  0  0  0
 31 33  1  0  0  0  0
 32 29  1  6  0  0  0
 32 34  1  0  0  0  0
 32 31  1  0  0  0  0
 34 30  1  0  0  0  0
M  END
>  <MODEL>
8

>  <REMARK>
 VINA RESULT:      -8.5      3.436      9.135
  Name = 
  2 active torsions:
  status: ('A' for Active; 'I' for Inactive)
    1  A    between atoms: C_17  and  C_28
    2  A    between atoms: N_29  and  C_32
                            x       y       z     vdW  Elec       q    Type
                         _______ _______ _______ _____ _____    ______ ____

>  <TORSDO>
F 2

$$$$
=
 OpenBabel11122412133D

 34 40  0  0  1  0  0  0  0  0999 V2000
  187.4940  178.2160  140.8780 C   0  0  0  0  0  0  0  0  0  0  0  0
  186.2620  178.4830  138.7110 C   0  0  0  0  0  3  0  0  0  0  0  0
  189.6390  178.2490  148.1120 N   0  0  0  0  0  2  0  0  0  0  0  0
  188.4260  177.8770  143.0920 C   0  0  0  0  0  0  0  0  0  0  0  0
  187.0520  177.8070  145.1350 C   0  0  0  0  0  0  0  0  0  0  0  0
  187.3480  178.7480  147.4400 C   0  0  0  0  0  2  0  0  0  0  0  0
  188.2460  178.1930  148.5360 C   0  0  0  0  0  2  0  0  0  0  0  0
  189.5150  176.4720  146.3760 C   0  0  0  0  0  2  0  0  0  0  0  0
  185.0780  178.5250  140.7470 C   0  0  0  0  0  0  0  0  0  0  0  0
  181.8830  178.1690  140.7430 C   0  0  0  0  0  2  0  0  0  0  0  0
  185.9000  178.0160  144.3090 N   0  0  0  0  0  2  0  0  0  0  0  0
  189.5530  177.6150  145.3700 C   0  0  0  0  0  2  0  0  0  0  0  0
  184.8740  178.3750  142.0760 C   0  0  0  0  0  0  0  0  0  0  0  0
  184.9710  178.6500  138.4200 C   0  0  0  0  0  3  0  0  0  0  0  0
  188.2840  177.7280  144.5640 C   0  0  0  0  0  0  0  0  0  0  0  0
  190.0900  176.9120  147.7250 C   0  0  0  0  0  2  0  0  0  0  0  0
  182.9480  177.7470  139.7160 C   0  0  2  0  0  3  0  0  0  0  0  0
  187.3420  178.0890  142.3320 C   0  0  0  0  0  0  0  0  0  0  0  0
  186.8150  177.6000  146.6020 C   0  0  0  0  0  2  0  0  0  0  0  0
  186.0310  178.1630  142.9180 N   0  0  0  0  0  0  0  0  0  0  0  0
  189.9080  177.8780  141.1840 C   0  0  0  0  0  3  0  0  0  0  0  0
  182.4070  178.9930  141.9220 C   0  0  0  0  0  2  0  0  0  0  0  0
  189.7270  177.7790  142.4730 N   0  0  0  0  0  0  0  0  0  0  0  0
  183.4970  178.2530  142.6850 C   0  0  0  0  0  2  0  0  0  0  0  0
  184.0920  178.7680  139.6490 C   0  0  1  0  0  3  0  0  0  0  0  0
  188.7960  178.0960  140.3050 N   0  0  0  0  0  2  0  0  0  0  0  0
  186.3950  178.4210  140.1530 C   0  0  0  0  0  0  0  0  0  0  0  0
  182.2800  177.5600  138.3890 C   0  0  0  0  0  3  0  0  0  0  0  0
  181.7140  176.4450  138.0950 N   0  0  0  0  0  0  0  0  0  0  0  0
  181.3930  174.0460  136.0530 O   0  0  0  0  0  0  0  0  0  0  0  0
  179.7880  175.4970  137.0000 C   0  0  0  0  0  2  0  0  0  0  0  0
  181.0700  176.2620  136.8210 C   0  0  2  0  0  3  0  0  0  0  0  0
  180.0130  174.2170  136.2330 C   0  0  0  0  0  2  0  0  0  0  0  0
  181.9120  175.3450  135.9620 C   0  0  0  0  0  2  0  0  0  0  0  0
  1 18  1  0  0  0  0
  2 27  1  0  0  0  0
  3  7  1  0  0  0  0
  4 15  1  0  0  0  0
  5 19  1  0  0  0  0
  6  7  1  0  0  0  0
  8 16  1  0  0  0  0
  9 13  2  0  0  0  0
 10 22  1  0  0  0  0
 11  5  1  0  0  0  0
 12  8  1  0  0  0  0
 13 24  1  0  0  0  0
 13 20  1  0  0  0  0
 14  2  2  0  0  0  0
 15  5  2  0  0  0  0
 15 12  1  0  0  0  0
 16  3  1  0  0  0  0
 17 28  1  6  0  0  0
 17 10  1  0  0  0  0
 18 20  1  0  0  0  0
 18  4  2  0  0  0  0
 19  6  1  0  0  0  0
 20 11  1  0  0  0  0
 21 23  2  0  0  0  0
 22 24  1  0  0  0  0
 23  4  1  0  0  0  0
 25 14  1  6  0  0  0
 25 17  1  0  0  0  0
 25  9  1  0  0  0  0
 26  1  1  0  0  0  0
 26 21  1  0  0  0  0
 27  9  1  0  0  0  0
 27  1  2  0  0  0  0
 29 28  2  0  0  0  0
 30 33  1  0  0  0  0
 32 31  1  0  0  0  0
 32 29  1  1  0  0  0
 33 31  1  0  0  0  0
 34 30  1  0  0  0  0
 34 32  1  0  0  0  0
M  END
>  <MODEL>
9

>  <REMARK>
 VINA RESULT:      -8.4      3.107      4.935
  Name = 
  2 active torsions:
  status: ('A' for Active; 'I' for Inactive)
    1  A    between atoms: C_17  and  C_28
    2  A    between atoms: N_29  and  C_32
                            x       y       z     vdW  Elec       q    Type
                         _______ _______ _______ _____ _____    ______ ____

>  <TORSDO>
F 2

$$$$
