=
 OpenBabel11122410233D

 30 35  0  0  1  0  0  0  0  0999 V2000
  189.0510  177.7100  143.4020 C   0  0  1  0  0  3  0  0  0  0  0  0
  191.1280  176.7280  144.5570 C   0  0  2  0  0  3  0  0  0  0  0  0
  186.7910  177.6830  147.0930 C   0  0  0  0  0  2  0  0  0  0  0  0
  187.7210  178.4810  143.5960 C   0  0  1  0  0  3  0  0  0  0  0  0
  189.7980  178.3180  142.3730 O   0  0  0  0  0  0  0  0  0  0  0  0
  187.1780  178.5570  139.9730 O   0  0  0  0  0  0  0  0  0  0  0  0
  184.6120  178.1390  142.7030 C   0  0  1  0  0  3  0  0  0  0  0  0
  187.7420  178.3970  141.0880 C   0  0  0  0  0  0  0  0  0  0  0  0
  184.4180  178.0260  144.2140 C   0  0  2  0  0  3  0  0  0  0  0  0
  185.5400  178.1540  146.4540 C   0  0  0  0  0  0  0  0  0  0  0  0
  189.1930  177.9990  141.1320 C   0  0  2  0  0  3  0  0  0  0  0  0
  187.0080  178.5720  142.3140 N   0  0  0  0  0  0  0  0  0  0  0  0
  191.9030  176.6770  145.8740 C   0  0  0  0  0  2  0  0  0  0  0  0
  183.2920  178.9840  144.5410 C   0  0  0  0  0  2  0  0  0  0  0  0
  183.2530  178.5370  142.1480 C   0  0  0  0  0  2  0  0  0  0  0  0
  191.9690  177.2410  143.5700 O   0  0  0  0  0  1  0  0  0  0  0  0
  187.7570  177.9110  145.9540 C   0  0  2  0  0  3  0  0  0  0  0  0
  191.0230  176.1710  147.0130 C   0  0  0  0  0  2  0  0  0  0  0  0
  189.8730  177.6060  144.7120 C   0  0  2  0  0  3  0  0  0  0  0  0
  186.9370  177.7460  144.6850 C   0  0  1  0  0  3  0  0  0  0  0  0
  184.4860  178.3720  147.1070 O   0  0  0  0  0  0  0  0  0  0  0  0
  185.6160  178.2700  145.0290 N   0  0  0  0  0  0  0  0  0  0  0  0
  182.3860  178.9490  143.3280 C   0  0  0  0  0  2  0  0  0  0  0  0
  185.5910  180.5260  142.8750 C   0  0  0  0  0  1  0  0  0  0  0  0
  189.7970  177.0630  147.1630 C   0  0  0  0  0  2  0  0  0  0  0  0
  189.0030  177.0480  145.8610 C   0  0  1  0  0  3  0  0  0  0  0  0
  185.6680  179.1420  142.2350 C   0  0  2  0  0  3  0  0  0  0  0  0
  189.3800  176.5310  140.7540 C   0  0  0  0  0  2  0  0  0  0  0  0
  190.0800  177.1320  138.4590 C   0  0  0  0  0  1  0  0  0  0  0  0
  190.4790  176.3930  139.7180 C   0  0  0  0  0  2  0  0  0  0  0  0
  1  5  1  6  0  0  0
  1  4  1  0  0  0  0
  1 19  1  0  0  0  0
  2 16  1  6  0  0  0
  2 19  1  0  0  0  0
  2 13  1  0  0  0  0
  4 12  1  6  0  0  0
  4 20  1  0  0  0  0
  6  8  2  0  0  0  0
  7 15  1  6  0  0  0
  7  9  1  0  0  0  0
  8 11  1  0  0  0  0
  8 12  1  0  0  0  0
  9 14  1  1  0  0  0
  9 22  1  0  0  0  0
 10  3  1  0  0  0  0
 10 21  2  0  0  0  0
 11 28  1  1  0  0  0
 11  5  1  0  0  0  0
 13 18  1  0  0  0  0
 15 23  1  0  0  0  0
 17  3  1  1  0  0  0
 18 25  1  0  0  0  0
 19 26  1  0  0  0  0
 20 22  1  0  0  0  0
 20 17  1  0  0  0  0
 22 10  1  0  0  0  0
 23 14  1  0  0  0  0
 26 17  1  0  0  0  0
 26 25  1  0  0  0  0
 27 12  1  0  0  0  0
 27  7  1  0  0  0  0
 27 24  1  0  0  0  0
 29 30  1  0  0  0  0
 30 28  1  0  0  0  0
M  END
>  <MODEL>
1

>  <REMARK>
 VINA RESULT:      -8.7      0.000      0.000
  Name = 
  2 active torsions:
  status: ('A' for Active; 'I' for Inactive)
    1  A    between atoms: C_11  and  C_28
    2  A    between atoms: C_28  and  C_30
                            x       y       z     vdW  Elec       q    Type
                         _______ _______ _______ _____ _____    ______ ____

>  <TORSDO>
F 2

$$$$
=
 OpenBabel11122410233D

 30 35  0  0  1  0  0  0  0  0999 V2000
  188.2860  177.8580  142.4680 C   0  0  1  0  0  3  0  0  0  0  0  0
  187.2880  177.9200  144.8370 C   0  0  2  0  0  3  0  0  0  0  0  0
  184.4680  178.8100  140.6650 C   0  0  0  0  0  2  0  0  0  0  0  0
  188.1260  178.3200  140.9980 C   0  0  1  0  0  3  0  0  0  0  0  0
  189.5910  178.1510  142.9110 O   0  0  0  0  0  0  0  0  0  0  0  0
  191.3450  176.8060  140.1190 O   0  0  0  0  0  0  0  0  0  0  0  0
  188.2000  176.9560  138.0460 C   0  0  1  0  0  3  0  0  0  0  0  0
  190.3830  177.2410  140.8070 C   0  0  0  0  0  0  0  0  0  0  0  0
  186.7450  177.4200  138.0350 C   0  0  2  0  0  3  0  0  0  0  0  0
  184.9730  178.6880  139.2780 C   0  0  0  0  0  0  0  0  0  0  0  0
  190.4850  177.2320  142.3090 C   0  0  2  0  0  3  0  0  0  0  0  0
  189.1850  177.7240  140.1720 N   0  0  0  0  0  0  0  0  0  0  0  0
  186.2240  178.5790  145.7150 C   0  0  0  0  0  2  0  0  0  0  0  0
  186.5720  178.1480  136.7170 C   0  0  0  0  0  2  0  0  0  0  0  0
  188.5810  176.7800  136.5840 C   0  0  0  0  0  2  0  0  0  0  0  0
  188.5400  178.1680  145.4010 O   0  0  0  0  0  1  0  0  0  0  0  0
  185.7790  178.7710  141.4150 C   0  0  2  0  0  3  0  0  0  0  0  0
  184.8290  178.3900  145.1260 C   0  0  0  0  0  2  0  0  0  0  0  0
  187.2170  178.4780  143.4050 C   0  0  2  0  0  3  0  0  0  0  0  0
  186.7120  177.9300  140.5610 C   0  0  1  0  0  3  0  0  0  0  0  0
  184.2490  178.9070  138.2720 O   0  0  0  0  0  0  0  0  0  0  0  0
  186.3280  178.2350  139.1840 N   0  0  0  0  0  0  0  0  0  0  0  0
  187.4850  177.4240  135.7500 C   0  0  0  0  0  2  0  0  0  0  0  0
  189.1030  179.3640  138.3150 C   0  0  0  0  0  1  0  0  0  0  0  0
  184.7740  178.9660  143.7160 C   0  0  0  0  0  2  0  0  0  0  0  0
  185.7960  178.2490  142.8410 C   0  0  1  0  0  3  0  0  0  0  0  0
  189.1990  177.8960  138.7240 C   0  0  2  0  0  3  0  0  0  0  0  0
  190.3340  175.8200  142.8700 C   0  0  0  0  0  2  0  0  0  0  0  0
  191.5420  176.4020  144.9490 C   0  0  0  0  0  1  0  0  0  0  0  0
  191.5190  175.4770  143.7520 C   0  0  0  0  0  2  0  0  0  0  0  0
  1  5  1  1  0  0  0
  1 19  1  0  0  0  0
  2 16  1  1  0  0  0
  2 13  1  0  0  0  0
  4 12  1  6  0  0  0
  4  1  1  0  0  0  0
  6  8  2  0  0  0  0
  7 15  1  6  0  0  0
  7 27  1  0  0  0  0
  8 11  1  0  0  0  0
  9 14  1  6  0  0  0
  9  7  1  0  0  0  0
  9 22  1  0  0  0  0
 10  3  1  0  0  0  0
 11 28  1  1  0  0  0
 11  5  1  0  0  0  0
 12  8  1  0  0  0  0
 17  3  1  6  0  0  0
 17 26  1  0  0  0  0
 18 13  1  0  0  0  0
 19  2  1  0  0  0  0
 20  4  1  0  0  0  0
 20 17  1  0  0  0  0
 21 10  2  0  0  0  0
 22 10  1  0  0  0  0
 22 20  1  0  0  0  0
 23 15  1  0  0  0  0
 23 14  1  0  0  0  0
 24 27  1  0  0  0  0
 25 18  1  0  0  0  0
 26 19  1  0  0  0  0
 26 25  1  0  0  0  0
 27 12  1  0  0  0  0
 28 30  1  0  0  0  0
 30 29  1  0  0  0  0
M  END
>  <MODEL>
2

>  <REMARK>
 VINA RESULT:      -8.2      2.208      5.548
  Name = 
  2 active torsions:
  status: ('A' for Active; 'I' for Inactive)
    1  A    between atoms: C_11  and  C_28
    2  A    between atoms: C_28  and  C_30
                            x       y       z     vdW  Elec       q    Type
                         _______ _______ _______ _____ _____    ______ ____

>  <TORSDO>
F 2

$$$$
=
 OpenBabel11122410233D

 30 35  0  0  1  0  0  0  0  0999 V2000
  187.3630  177.9930  140.2390 C   0  0  1  0  0  3  0  0  0  0  0  0
  185.1810  178.7610  139.1170 C   0  0  2  0  0  3  0  0  0  0  0  0
  185.6110  178.2580  144.1880 C   0  0  0  0  0  2  0  0  0  0  0  0
  188.0010  177.3620  141.5020 C   0  0  1  0  0  3  0  0  0  0  0  0
  187.8190  177.3100  139.0940 O   0  0  0  0  0  0  0  0  0  0  0  0
  191.2910  177.3340  139.8870 O   0  0  0  0  0  0  0  0  0  0  0  0
  190.4800  178.0160  143.5050 C   0  0  1  0  0  3  0  0  0  0  0  0
  190.0450  177.4380  140.0480 C   0  0  0  0  0  0  0  0  0  0  0  0
  189.3420  178.1520  144.5150 C   0  0  2  0  0  3  0  0  0  0  0  0
  186.8720  177.9150  144.8860 C   0  0  0  0  0  0  0  0  0  0  0  0
  189.1640  177.6860  138.8540 C   0  0  2  0  0  3  0  0  0  0  0  0
  189.4640  177.3410  141.3620 N   0  0  0  0  0  0  0  0  0  0  0  0
  183.6560  178.7360  139.2300 C   0  0  0  0  0  2  0  0  0  0  0  0
  189.7660  177.3140  145.7040 C   0  0  0  0  0  2  0  0  0  0  0  0
  191.7290  177.7570  144.3330 C   0  0  0  0  0  2  0  0  0  0  0  0
  185.5430  178.1630  137.9100 O   0  0  0  0  0  1  0  0  0  0  0  0
  186.0120  177.9300  142.7690 C   0  0  2  0  0  3  0  0  0  0  0  0
  183.1910  179.3320  140.5560 C   0  0  0  0  0  2  0  0  0  0  0  0
  185.8140  178.0160  140.3050 C   0  0  2  0  0  3  0  0  0  0  0  0
  187.5100  178.1750  142.7020 C   0  0  1  0  0  3  0  0  0  0  0  0
  186.9460  177.8070  146.1380 O   0  0  0  0  0  0  0  0  0  0  0  0
  188.0060  177.7880  144.0220 N   0  0  0  0  0  0  0  0  0  0  0  0
  191.2740  177.4380  145.7490 C   0  0  0  0  0  2  0  0  0  0  0  0
  189.9170  175.5420  143.0060 C   0  0  0  0  0  1  0  0  0  0  0  0
  183.8140  178.5690  141.7190 C   0  0  0  0  0  2  0  0  0  0  0  0
  185.3330  178.6620  141.6250 C   0  0  1  0  0  3  0  0  0  0  0  0
  190.3210  176.9100  142.4600 C   0  0  2  0  0  3  0  0  0  0  0  0
  189.2850  179.1270  138.3610 C   0  0  0  0  0  2  0  0  0  0  0  0
  189.2170  177.9840  136.1690 C   0  0  0  0  0  1  0  0  0  0  0  0
  188.8120  179.2310  136.9240 C   0  0  0  0  0  2  0  0  0  0  0  0
  1  5  1  6  0  0  0
  1 19  1  0  0  0  0
  1  4  1  0  0  0  0
  2 16  1  6  0  0  0
  2 13  1  0  0  0  0
  2 19  1  0  0  0  0
  3 10  1  0  0  0  0
  4 12  1  6  0  0  0
  4 20  1  0  0  0  0
  6  8  2  0  0  0  0
  7 15  1  1  0  0  0
  7  9  1  0  0  0  0
  8 12  1  0  0  0  0
  9 14  1  1  0  0  0
 10 21  2  0  0  0  0
 11 28  1  1  0  0  0
 11  5  1  0  0  0  0
 11  8  1  0  0  0  0
 12 27  1  0  0  0  0
 13 18  1  0  0  0  0
 14 23  1  0  0  0  0
 15 23  1  0  0  0  0
 17  3  1  1  0  0  0
 18 25  1  0  0  0  0
 19 26  1  0  0  0  0
 20 17  1  0  0  0  0
 20 22  1  0  0  0  0
 22  9  1  0  0  0  0
 22 10  1  0  0  0  0
 26 25  1  0  0  0  0
 26 17  1  0  0  0  0
 27 24  1  0  0  0  0
 27  7  1  0  0  0  0
 29 30  1  0  0  0  0
 30 28  1  0  0  0  0
M  END
>  <MODEL>
3

>  <REMARK>
 VINA RESULT:      -8.1      1.918      5.798
  Name = 
  2 active torsions:
  status: ('A' for Active; 'I' for Inactive)
    1  A    between atoms: C_11  and  C_28
    2  A    between atoms: C_28  and  C_30
                            x       y       z     vdW  Elec       q    Type
                         _______ _______ _______ _____ _____    ______ ____

>  <TORSDO>
F 2

$$$$
=
 OpenBabel11122410233D

 30 35  0  0  1  0  0  0  0  0999 V2000
  186.3820  178.2910  140.1960 C   0  0  1  0  0  3  0  0  0  0  0  0
  187.8680  177.6200  138.2080 C   0  0  2  0  0  3  0  0  0  0  0  0
  189.5970  177.6440  143.0200 C   0  0  0  0  0  2  0  0  0  0  0  0
  186.3520  178.8040  141.6580 C   0  0  1  0  0  3  0  0  0  0  0  0
  185.5240  179.0820  139.4060 O   0  0  0  0  0  0  0  0  0  0  0  0
  182.6940  179.0030  141.5660 O   0  0  0  0  0  0  0  0  0  0  0  0
  184.8980  177.9770  144.4480 C   0  0  1  0  0  3  0  0  0  0  0  0
  183.8890  178.8770  141.1860 C   0  0  0  0  0  0  0  0  0  0  0  0
  186.3450  177.7400  144.8770 C   0  0  2  0  0  3  0  0  0  0  0  0
  188.7550  177.9260  144.2050 C   0  0  0  0  0  0  0  0  0  0  0  0
  184.1850  178.7370  139.7160 C   0  0  2  0  0  3  0  0  0  0  0  0
  184.9650  178.8460  142.1410 N   0  0  0  0  0  0  0  0  0  0  0  0
  189.3020  177.6260  137.6770 C   0  0  0  0  0  2  0  0  0  0  0  0
  186.4880  178.4640  146.2000 C   0  0  0  0  0  2  0  0  0  0  0  0
  184.1170  178.1640  145.7390 C   0  0  0  0  0  2  0  0  0  0  0  0
  187.0650  178.3320  137.3160 O   0  0  0  0  0  1  0  0  0  0  0  0
  188.6600  178.1070  141.9290 C   0  0  2  0  0  3  0  0  0  0  0  0
  190.2470  176.9050  138.6350 C   0  0  0  0  0  2  0  0  0  0  0  0
  187.8170  178.2530  139.6090 C   0  0  2  0  0  3  0  0  0  0  0  0
  187.2590  177.8780  142.4720 C   0  0  1  0  0  3  0  0  0  0  0  0
  189.2110  177.9160  145.3790 O   0  0  0  0  0  0  0  0  0  0  0  0
  187.3710  178.1410  143.9050 N   0  0  0  0  0  0  0  0  0  0  0  0
  185.1300  178.3440  146.8590 C   0  0  0  0  0  2  0  0  0  0  0  0
  185.3130  180.4830  143.9680 C   0  0  0  0  0  1  0  0  0  0  0  0
  190.1960  177.5580  140.0110 C   0  0  0  0  0  2  0  0  0  0  0  0
  188.7720  177.4820  140.5490 C   0  0  1  0  0  3  0  0  0  0  0  0
  184.6590  179.1760  143.5290 C   0  0  2  0  0  3  0  0  0  0  0  0
  183.8060  177.3510  139.2000 C   0  0  0  0  0  2  0  0  0  0  0  0
  184.3880  176.1080  137.1420 C   0  0  0  0  0  1  0  0  0  0  0  0
  183.7310  177.3580  137.6860 C   0  0  0  0  0  2  0  0  0  0  0  0
  1  5  1  6  0  0  0
  1  4  1  0  0  0  0
  2 16  1  6  0  0  0
  2 19  1  0  0  0  0
  3 10  1  0  0  0  0
  4 12  1  1  0  0  0
  4 20  1  0  0  0  0
  5 11  1  0  0  0  0
  7  9  1  0  0  0  0
  7 15  1  1  0  0  0
  8  6  2  0  0  0  0
  8 12  1  0  0  0  0
  9 14  1  1  0  0  0
 10 21  2  0  0  0  0
 11 28  1  1  0  0  0
 11  8  1  0  0  0  0
 12 27  1  0  0  0  0
 13  2  1  0  0  0  0
 13 18  1  0  0  0  0
 14 23  1  0  0  0  0
 15 23  1  0  0  0  0
 17 20  1  0  0  0  0
 17  3  1  1  0  0  0
 18 25  1  0  0  0  0
 19  1  1  0  0  0  0
 19 26  1  0  0  0  0
 20 22  1  0  0  0  0
 22 10  1  0  0  0  0
 22  9  1  0  0  0  0
 25 26  1  0  0  0  0
 26 17  1  0  0  0  0
 27 24  1  0  0  0  0
 27  7  1  0  0  0  0
 29 30  1  0  0  0  0
 30 28  1  0  0  0  0
M  END
>  <MODEL>
4

>  <REMARK>
 VINA RESULT:      -7.9      2.226      5.048
  Name = 
  2 active torsions:
  status: ('A' for Active; 'I' for Inactive)
    1  A    between atoms: C_11  and  C_28
    2  A    between atoms: C_28  and  C_30
                            x       y       z     vdW  Elec       q    Type
                         _______ _______ _______ _____ _____    ______ ____

>  <TORSDO>
F 2

$$$$
=
 OpenBabel11122410233D

 30 35  0  0  1  0  0  0  0  0999 V2000
  187.2220  178.1260  140.9460 C   0  0  1  0  0  3  0  0  0  0  0  0
  189.0080  177.6120  142.7230 C   0  0  2  0  0  3  0  0  0  0  0  0
  184.1080  178.4290  143.9370 C   0  0  0  0  0  2  0  0  0  0  0  0
  185.8290  178.7470  140.6710 C   0  0  1  0  0  3  0  0  0  0  0  0
  188.1540  178.6420  140.0250 O   0  0  0  0  0  0  0  0  0  0  0  0
  186.2200  178.1560  137.0760 O   0  0  0  0  0  0  0  0  0  0  0  0
  183.0850  177.8810  139.1530 C   0  0  1  0  0  3  0  0  0  0  0  0
  186.4930  178.2540  138.3020 C   0  0  0  0  0  0  0  0  0  0  0  0
  182.5240  177.9960  140.5690 C   0  0  2  0  0  3  0  0  0  0  0  0
  183.0270  178.6300  142.9440 C   0  0  0  0  0  0  0  0  0  0  0  0
  187.9120  178.0510  138.7610 C   0  0  2  0  0  3  0  0  0  0  0  0
  185.4600  178.5370  139.2640 N   0  0  0  0  0  0  0  0  0  0  0  0
  189.4250  177.8750  144.1700 C   0  0  0  0  0  2  0  0  0  0  0  0
  181.2800  178.8490  140.4340 C   0  0  0  0  0  2  0  0  0  0  0  0
  181.8850  178.0120  138.2290 C   0  0  0  0  0  2  0  0  0  0  0  0
  190.0290  178.0550  141.8820 O   0  0  0  0  0  1  0  0  0  0  0  0
  185.3100  178.5840  143.0350 C   0  0  2  0  0  3  0  0  0  0  0  0
  188.3270  177.4590  145.1450 C   0  0  0  0  0  2  0  0  0  0  0  0
  187.6900  178.3410  142.4080 C   0  0  2  0  0  3  0  0  0  0  0  0
  184.8550  178.1110  141.6650 C   0  0  1  0  0  3  0  0  0  0  0  0
  181.8280  178.8210  143.2770 O   0  0  0  0  0  0  0  0  0  0  0  0
  183.4530  178.5180  141.5820 N   0  0  0  0  0  0  0  0  0  0  0  0
  180.7170  178.5020  139.0710 C   0  0  0  0  0  2  0  0  0  0  0  0
  183.7970  180.3670  139.0930 C   0  0  0  0  0  1  0  0  0  0  0  0
  187.0370  178.2060  144.8290 C   0  0  0  0  0  2  0  0  0  0  0  0
  186.6030  177.8780  143.4050 C   0  0  1  0  0  3  0  0  0  0  0  0
  184.1430  178.9160  138.7650 C   0  0  2  0  0  3  0  0  0  0  0  0
  188.3040  176.5750  138.7250 C   0  0  0  0  0  2  0  0  0  0  0  0
  190.7620  176.3790  138.9160 C   0  0  0  0  0  1  0  0  0  0  0  0
  189.5960  176.3950  137.9520 C   0  0  0  0  0  2  0  0  0  0  0  0
  1  5  1  6  0  0  0
  1 19  1  0  0  0  0
  2 16  1  6  0  0  0
  2 13  1  0  0  0  0
  4 12  1  6  0  0  0
  4  1  1  0  0  0  0
  4 20  1  0  0  0  0
  6  8  2  0  0  0  0
  7 15  1  6  0  0  0
  7  9  1  0  0  0  0
  8 11  1  0  0  0  0
  8 12  1  0  0  0  0
  9 14  1  6  0  0  0
  9 22  1  0  0  0  0
 10 21  2  0  0  0  0
 10  3  1  0  0  0  0
 11 28  1  1  0  0  0
 11  5  1  0  0  0  0
 13 18  1  0  0  0  0
 15 23  1  0  0  0  0
 17 26  1  0  0  0  0
 17  3  1  1  0  0  0
 19  2  1  0  0  0  0
 19 26  1  0  0  0  0
 20 17  1  0  0  0  0
 22 20  1  0  0  0  0
 22 10  1  0  0  0  0
 23 14  1  0  0  0  0
 25 18  1  0  0  0  0
 26 25  1  0  0  0  0
 27 24  1  0  0  0  0
 27  7  1  0  0  0  0
 27 12  1  0  0  0  0
 30 28  1  0  0  0  0
 30 29  1  0  0  0  0
M  END
>  <MODEL>
5

>  <REMARK>
 VINA RESULT:      -7.8      2.364      3.567
  Name = 
  2 active torsions:
  status: ('A' for Active; 'I' for Inactive)
    1  A    between atoms: C_11  and  C_28
    2  A    between atoms: C_28  and  C_30
                            x       y       z     vdW  Elec       q    Type
                         _______ _______ _______ _____ _____    ______ ____

>  <TORSDO>
F 2

$$$$
=
 OpenBabel11122410233D

 30 35  0  0  1  0  0  0  0  0999 V2000
  186.6240  178.3590  142.3550 C   0  0  1  0  0  3  0  0  0  0  0  0
  187.4520  178.0390  144.7680 C   0  0  2  0  0  3  0  0  0  0  0  0
  182.4940  178.5710  143.6330 C   0  0  0  0  0  2  0  0  0  0  0  0
  185.4750  178.8740  141.4530 C   0  0  1  0  0  3  0  0  0  0  0  0
  187.8460  178.9010  141.9100 O   0  0  0  0  0  0  0  0  0  0  0  0
  187.4500  178.1680  138.4480 O   0  0  0  0  0  0  0  0  0  0  0  0
  183.7340  177.7650  138.9390 C   0  0  1  0  0  3  0  0  0  0  0  0
  187.1440  178.3320  139.6600 C   0  0  0  0  0  0  0  0  0  0  0  0
  182.5960  177.8980  139.9490 C   0  0  2  0  0  3  0  0  0  0  0  0
  181.9610  178.6580  142.2540 C   0  0  0  0  0  0  0  0  0  0  0  0
  188.2170  178.2440  140.7110 C   0  0  2  0  0  3  0  0  0  0  0  0
  185.7800  178.5830  140.0450 N   0  0  0  0  0  0  0  0  0  0  0  0
  187.1690  178.3870  146.2300 C   0  0  0  0  0  2  0  0  0  0  0  0
  181.5070  178.6580  139.2210 C   0  0  0  0  0  2  0  0  0  0  0  0
  183.0660  177.7770  137.5720 C   0  0  0  0  0  2  0  0  0  0  0  0
  188.7210  178.5160  144.4390 O   0  0  0  0  0  1  0  0  0  0  0  0
  183.9640  178.7700  143.3480 C   0  0  2  0  0  3  0  0  0  0  0  0
  185.7710  177.9370  146.6440 C   0  0  0  0  0  2  0  0  0  0  0  0
  186.3820  178.6640  143.8560 C   0  0  2  0  0  3  0  0  0  0  0  0
  184.1870  178.2140  141.9520 C   0  0  1  0  0  3  0  0  0  0  0  0
  180.7320  178.7810  142.0090 O   0  0  0  0  0  0  0  0  0  0  0  0
  182.9530  178.5210  141.2310 N   0  0  0  0  0  0  0  0  0  0  0  0
  181.6260  178.2200  137.7770 C   0  0  0  0  0  2  0  0  0  0  0  0
  184.2910  180.2880  139.0360 C   0  0  0  0  0  1  0  0  0  0  0  0
  184.7260  178.5820  145.7410 C   0  0  0  0  0  2  0  0  0  0  0  0
  184.9860  178.1680  144.2970 C   0  0  1  0  0  3  0  0  0  0  0  0
  184.8090  178.8520  138.9910 C   0  0  2  0  0  3  0  0  0  0  0  0
  188.6470  176.7980  140.9490 C   0  0  0  0  0  2  0  0  0  0  0  0
  190.0510  175.8660  142.7600 C   0  0  0  0  0  1  0  0  0  0  0  0
  190.0440  176.7570  141.5370 C   0  0  0  0  0  2  0  0  0  0  0  0
  1  5  1  6  0  0  0
  1 19  1  0  0  0  0
  2 16  1  6  0  0  0
  2 13  1  0  0  0  0
  4 12  1  6  0  0  0
  4 20  1  0  0  0  0
  4  1  1  0  0  0  0
  6  8  2  0  0  0  0
  7 15  1  6  0  0  0
  7 27  1  0  0  0  0
  7  9  1  0  0  0  0
  8 12  1  0  0  0  0
  8 11  1  0  0  0  0
  9 14  1  6  0  0  0
  9 22  1  0  0  0  0
 10  3  1  0  0  0  0
 11 28  1  1  0  0  0
 11  5  1  0  0  0  0
 13 18  1  0  0  0  0
 15 23  1  0  0  0  0
 17  3  1  1  0  0  0
 17 26  1  0  0  0  0
 19 26  1  0  0  0  0
 19  2  1  0  0  0  0
 20 17  1  0  0  0  0
 21 10  2  0  0  0  0
 22 20  1  0  0  0  0
 22 10  1  0  0  0  0
 23 14  1  0  0  0  0
 25 18  1  0  0  0  0
 26 25  1  0  0  0  0
 27 24  1  0  0  0  0
 27 12  1  0  0  0  0
 28 30  1  0  0  0  0
 30 29  1  0  0  0  0
M  END
>  <MODEL>
6

>  <REMARK>
 VINA RESULT:      -7.5      2.539      4.154
  Name = 
  2 active torsions:
  status: ('A' for Active; 'I' for Inactive)
    1  A    between atoms: C_11  and  C_28
    2  A    between atoms: C_28  and  C_30
                            x       y       z     vdW  Elec       q    Type
                         _______ _______ _______ _____ _____    ______ ____

>  <TORSDO>
F 2

$$$$
=
 OpenBabel11122410233D

 30 35  0  0  1  0  0  0  0  0999 V2000
  184.9260  178.3830  139.3020 C   0  0  1  0  0  3  0  0  0  0  0  0
  182.3610  178.4400  139.1370 C   0  0  2  0  0  3  0  0  0  0  0  0
  185.2910  176.4810  135.4310 C   0  0  0  0  0  2  0  0  0  0  0  0
  186.2590  178.2890  138.5180 C   0  0  1  0  0  3  0  0  0  0  0  0
  184.9850  179.4730  140.1930 O   0  0  0  0  0  0  0  0  0  0  0  0
  188.1700  178.7480  141.6110 O   0  0  0  0  0  0  0  0  0  0  0  0
  188.9990  176.5410  138.6680 C   0  0  1  0  0  3  0  0  0  0  0  0
  187.2010  178.7010  140.8060 C   0  0  0  0  0  0  0  0  0  0  0  0
  188.5090  176.0620  137.3030 C   0  0  2  0  0  3  0  0  0  0  0  0
  186.7620  176.3360  135.5230 C   0  0  0  0  0  0  0  0  0  0  0  0
  185.8330  179.1240  141.2730 C   0  0  2  0  0  3  0  0  0  0  0  0
  187.3860  178.2310  139.4590 N   0  0  0  0  0  0  0  0  0  0  0  0
  181.1860  178.5570  138.1650 C   0  0  0  0  0  2  0  0  0  0  0  0
  189.7030  176.2050  136.3820 C   0  0  0  0  0  2  0  0  0  0  0  0
  190.4940  176.2640  138.6830 C   0  0  0  0  0  2  0  0  0  0  0  0
  182.2850  179.4930  140.0480 O   0  0  0  0  0  1  0  0  0  0  0  0
  185.0530  177.3910  136.6130 C   0  0  2  0  0  3  0  0  0  0  0  0
  181.2360  177.4600  137.1050 C   0  0  0  0  0  2  0  0  0  0  0  0
  183.6930  178.4810  138.3680 C   0  0  2  0  0  3  0  0  0  0  0  0
  186.1530  177.0620  137.6080 C   0  0  1  0  0  3  0  0  0  0  0  0
  187.4540  175.8410  134.5950 O   0  0  0  0  0  0  0  0  0  0  0  0
  187.3150  176.7400  136.7810 N   0  0  0  0  0  0  0  0  0  0  0  0
  190.9060  175.9290  137.2580 C   0  0  0  0  0  2  0  0  0  0  0  0
  189.1470  179.0050  137.8950 C   0  0  0  0  0  1  0  0  0  0  0  0
  182.5530  177.5300  136.3420 C   0  0  0  0  0  2  0  0  0  0  0  0
  183.7090  177.3450  137.3190 C   0  0  1  0  0  3  0  0  0  0  0  0
  188.7510  178.0160  138.9900 C   0  0  2  0  0  3  0  0  0  0  0  0
  185.2080  178.0750  142.1890 C   0  0  0  0  0  2  0  0  0  0  0  0
  186.0680  177.9130  144.5020 C   0  0  0  0  0  1  0  0  0  0  0  0
  185.0810  178.6180  143.5990 C   0  0  0  0  0  2  0  0  0  0  0  0
  1  5  1  1  0  0  0
  2 16  1  1  0  0  0
  3 10  1  0  0  0  0
  4  1  1  0  0  0  0
  4 12  1  1  0  0  0
  5 11  1  0  0  0  0
  7 15  1  6  0  0  0
  7 27  1  0  0  0  0
  8 11  1  0  0  0  0
  8  6  2  0  0  0  0
  9 14  1  6  0  0  0
  9  7  1  0  0  0  0
 10 22  1  0  0  0  0
 11 28  1  6  0  0  0
 12  8  1  0  0  0  0
 13  2  1  0  0  0  0
 14 23  1  0  0  0  0
 17  3  1  6  0  0  0
 17 26  1  0  0  0  0
 17 20  1  0  0  0  0
 18 13  1  0  0  0  0
 19  2  1  0  0  0  0
 19  1  1  0  0  0  0
 20  4  1  0  0  0  0
 21 10  2  0  0  0  0
 22  9  1  0  0  0  0
 22 20  1  0  0  0  0
 23 15  1  0  0  0  0
 24 27  1  0  0  0  0
 25 18  1  0  0  0  0
 25 26  1  0  0  0  0
 26 19  1  0  0  0  0
 27 12  1  0  0  0  0
 28 30  1  0  0  0  0
 30 29  1  0  0  0  0
M  END
>  <MODEL>
7

>  <REMARK>
 VINA RESULT:      -7.4      3.614      8.777
  Name = 
  2 active torsions:
  status: ('A' for Active; 'I' for Inactive)
    1  A    between atoms: C_11  and  C_28
    2  A    between atoms: C_28  and  C_30
                            x       y       z     vdW  Elec       q    Type
                         _______ _______ _______ _____ _____    ______ ____

>  <TORSDO>
F 2

$$$$
=
 OpenBabel11122410233D

 30 35  0  0  1  0  0  0  0  0999 V2000
  186.2350  178.2480  140.7600 C   0  0  1  0  0  3  0  0  0  0  0  0
  184.0740  178.5170  142.1270 C   0  0  2  0  0  3  0  0  0  0  0  0
  184.0230  177.6150  137.0940 C   0  0  0  0  0  2  0  0  0  0  0  0
  186.8770  178.3160  139.3510 C   0  0  1  0  0  3  0  0  0  0  0  0
  187.0090  179.0030  141.6630 O   0  0  0  0  0  0  0  0  0  0  0  0
  190.1920  177.6740  140.7760 O   0  0  0  0  0  0  0  0  0  0  0  0
  188.7840  176.4360  137.5050 C   0  0  1  0  0  3  0  0  0  0  0  0
  188.9620  177.9400  140.6950 C   0  0  0  0  0  0  0  0  0  0  0  0
  187.5460  176.4340  136.6110 C   0  0  2  0  0  3  0  0  0  0  0  0
  185.2350  177.3550  136.2830 C   0  0  0  0  0  0  0  0  0  0  0  0
  188.1970  178.2840  141.9450 C   0  0  2  0  0  3  0  0  0  0  0  0
  188.2840  177.8980  139.4260 N   0  0  0  0  0  0  0  0  0  0  0  0
  182.6250  179.0030  142.0690 C   0  0  0  0  0  2  0  0  0  0  0  0
  188.0560  176.7780  135.2270 C   0  0  0  0  0  2  0  0  0  0  0  0
  189.9450  176.0720  136.5910 C   0  0  0  0  0  2  0  0  0  0  0  0
  184.7420  179.2400  143.1160 O   0  0  0  0  0  1  0  0  0  0  0  0
  184.6710  178.1290  138.3580 C   0  0  2  0  0  3  0  0  0  0  0  0
  181.8470  178.2870  140.9690 C   0  0  0  0  0  2  0  0  0  0  0  0
  184.7550  178.7090  140.7600 C   0  0  2  0  0  3  0  0  0  0  0  0
  186.0230  177.4390  138.4320 C   0  0  1  0  0  3  0  0  0  0  0  0
  185.1870  177.1280  135.0450 O   0  0  0  0  0  0  0  0  0  0  0  0
  186.4510  177.3150  137.0390 N   0  0  0  0  0  0  0  0  0  0  0  0
  189.4400  176.1680  135.1600 C   0  0  0  0  0  2  0  0  0  0  0  0
  189.0550  179.0030  137.3460 C   0  0  0  0  0  1  0  0  0  0  0  0
  182.5260  178.5040  139.6220 C   0  0  0  0  0  2  0  0  0  0  0  0
  183.9460  177.9540  139.6810 C   0  0  1  0  0  3  0  0  0  0  0  0
  189.0930  177.7520  138.2210 C   0  0  2  0  0  3  0  0  0  0  0  0
  187.9390  177.0460  142.8000 C   0  0  0  0  0  2  0  0  0  0  0  0
  187.0980  177.5030  145.0800 C   0  0  0  0  0  1  0  0  0  0  0  0
  188.3400  177.3080  144.2380 C   0  0  0  0  0  2  0  0  0  0  0  0
  1 19  1  0  0  0  0
  1  5  1  1  0  0  0
  2 16  1  1  0  0  0
  4 12  1  1  0  0  0
  4  1  1  0  0  0  0
  5 11  1  0  0  0  0
  7 15  1  6  0  0  0
  7 27  1  0  0  0  0
  8  6  2  0  0  0  0
  8 11  1  0  0  0  0
  9 14  1  6  0  0  0
  9 22  1  0  0  0  0
  9  7  1  0  0  0  0
 10 22  1  0  0  0  0
 10  3  1  0  0  0  0
 11 28  1  6  0  0  0
 12  8  1  0  0  0  0
 13  2  1  0  0  0  0
 17  3  1  6  0  0  0
 17 20  1  0  0  0  0
 17 26  1  0  0  0  0
 18 13  1  0  0  0  0
 19  2  1  0  0  0  0
 20  4  1  0  0  0  0
 21 10  2  0  0  0  0
 22 20  1  0  0  0  0
 23 14  1  0  0  0  0
 23 15  1  0  0  0  0
 24 27  1  0  0  0  0
 25 26  1  0  0  0  0
 25 18  1  0  0  0  0
 26 19  1  0  0  0  0
 27 12  1  0  0  0  0
 28 30  1  0  0  0  0
 30 29  1  0  0  0  0
M  END
>  <MODEL>
8

>  <REMARK>
 VINA RESULT:      -7.1      2.947      7.666
  Name = 
  2 active torsions:
  status: ('A' for Active; 'I' for Inactive)
    1  A    between atoms: C_11  and  C_28
    2  A    between atoms: C_28  and  C_30
                            x       y       z     vdW  Elec       q    Type
                         _______ _______ _______ _____ _____    ______ ____

>  <TORSDO>
F 2

$$$$
=
 OpenBabel11122410233D

 30 35  0  0  1  0  0  0  0  0999 V2000
  188.2400  177.7450  144.3710 C   0  0  1  0  0  3  0  0  0  0  0  0
  189.4650  177.2840  146.5830 C   0  0  2  0  0  3  0  0  0  0  0  0
  184.5520  178.6930  146.4280 C   0  0  0  0  0  2  0  0  0  0  0  0
  187.0410  178.4570  143.6940 C   0  0  1  0  0  3  0  0  0  0  0  0
  189.4230  178.0590  143.6740 O   0  0  0  0  0  0  0  0  0  0  0  0
  188.2210  177.4060  140.3870 O   0  0  0  0  0  0  0  0  0  0  0  0
  184.6650  177.6740  141.6140 C   0  0  1  0  0  3  0  0  0  0  0  0
  188.1970  177.6230  141.6280 C   0  0  0  0  0  0  0  0  0  0  0  0
  183.7950  178.0090  142.8230 C   0  0  2  0  0  3  0  0  0  0  0  0
  183.7770  178.8730  145.1780 C   0  0  0  0  0  0  0  0  0  0  0  0
  189.4260  177.3460  142.4510 C   0  0  2  0  0  3  0  0  0  0  0  0
  187.0030  178.1140  142.2650 N   0  0  0  0  0  0  0  0  0  0  0  0
  189.5460  177.6780  148.0580 C   0  0  0  0  0  2  0  0  0  0  0  0
  182.7320  178.9520  142.2960 C   0  0  0  0  0  2  0  0  0  0  0  0
  183.7500  177.8050  140.4060 C   0  0  0  0  0  2  0  0  0  0  0  0
  190.7060  177.5260  145.9940 O   0  0  0  0  0  1  0  0  0  0  0  0
  185.9470  178.6260  145.8520 C   0  0  2  0  0  3  0  0  0  0  0  0
  188.2020  177.4860  148.7560 C   0  0  0  0  0  2  0  0  0  0  0  0
  188.3600  178.0900  145.8770 C   0  0  2  0  0  3  0  0  0  0  0  0
  185.7850  178.0370  144.4610 C   0  0  1  0  0  3  0  0  0  0  0  0
  182.5650  179.2130  145.1760 O   0  0  0  0  0  0  0  0  0  0  0  0
  184.5050  178.5600  143.9860 N   0  0  0  0  0  0  0  0  0  0  0  0
  182.4810  178.4990  140.8740 C   0  0  0  0  0  2  0  0  0  0  0  0
  185.6640  180.0570  141.5070 C   0  0  0  0  0  1  0  0  0  0  0  0
  187.1270  178.3060  148.0540 C   0  0  0  0  0  2  0  0  0  0  0  0
  187.0160  177.8520  146.6020 C   0  0  1  0  0  3  0  0  0  0  0  0
  185.9020  178.5520  141.4140 C   0  0  2  0  0  3  0  0  0  0  0  0
  189.6360  175.8470  142.6520 C   0  0  0  0  0  2  0  0  0  0  0  0
  191.9780  176.6250  142.8140 C   0  0  0  0  0  1  0  0  0  0  0  0
  190.9860  175.5870  143.2920 C   0  0  0  0  0  2  0  0  0  0  0  0
  1  5  1  6  0  0  0
  1 19  1  0  0  0  0
  2 16  1  6  0  0  0
  2 13  1  0  0  0  0
  4 12  1  6  0  0  0
  4  1  1  0  0  0  0
  4 20  1  0  0  0  0
  6  8  2  0  0  0  0
  7 15  1  6  0  0  0
  7  9  1  0  0  0  0
  8 12  1  0  0  0  0
  8 11  1  0  0  0  0
  9 14  1  6  0  0  0
  9 22  1  0  0  0  0
 10  3  1  0  0  0  0
 11 28  1  1  0  0  0
 11  5  1  0  0  0  0
 13 18  1  0  0  0  0
 15 23  1  0  0  0  0
 17  3  1  1  0  0  0
 17 26  1  0  0  0  0
 19  2  1  0  0  0  0
 19 26  1  0  0  0  0
 20 17  1  0  0  0  0
 21 10  2  0  0  0  0
 22 20  1  0  0  0  0
 22 10  1  0  0  0  0
 23 14  1  0  0  0  0
 25 18  1  0  0  0  0
 26 25  1  0  0  0  0
 27 24  1  0  0  0  0
 27  7  1  0  0  0  0
 27 12  1  0  0  0  0
 28 30  1  0  0  0  0
 29 30  1  0  0  0  0
M  END
>  <MODEL>
9

>  <REMARK>
 VINA RESULT:      -7.1      1.652      2.294
  Name = 
  2 active torsions:
  status: ('A' for Active; 'I' for Inactive)
    1  A    between atoms: C_11  and  C_28
    2  A    between atoms: C_28  and  C_30
                            x       y       z     vdW  Elec       q    Type
                         _______ _______ _______ _____ _____    ______ ____

>  <TORSDO>
F 2

$$$$
