=
 OpenBabel11122411333D

 37 43  0  0  1  0  0  0  0  0999 V2000
  187.6140  176.5340  137.5820 C   0  0  0  0  0  2  0  0  0  0  0  0
  182.4550  179.0060  138.8560 C   0  0  0  0  0  0  0  0  0  0  0  0
  183.3870  175.1640  137.2770 C   0  0  1  0  0  3  0  0  0  0  0  0
  188.8860  177.2460  137.3640 N   0  0  0  0  0  0  0  0  0  0  0  0
  185.6530  174.9830  134.9340 O   0  0  0  0  0  0  0  0  0  0  0  0
  181.8190  177.0270  137.2890 C   0  0  1  0  0  3  0  0  0  0  0  0
  184.7030  175.2850  137.1190 C   0  0  1  0  0  3  0  0  0  0  0  0
  188.5720  177.4350  134.8810 C   0  0  2  0  0  3  0  0  0  0  0  0
  182.8610  176.2810  138.1060 C   0  0  2  0  0  3  0  0  0  0  0  0
  185.5770  174.4490  136.2260 C   0  0  1  0  0  3  0  0  0  0  0  0
  180.6390  176.1260  136.8890 C   0  0  0  0  0  2  0  0  0  0  0  0
  188.9090  178.1440  136.2010 C   0  0  0  0  0  2  0  0  0  0  0  0
  184.0530  177.1570  138.2170 C   0  0  2  0  0  3  0  0  0  0  0  0
  182.1950  178.6400  140.3070 C   0  0  0  0  0  1  0  0  0  0  0  0
  182.7670  172.8830  136.4470 C   0  0  0  0  0  2  0  0  0  0  0  0
  181.0020  174.6250  136.7960 C   0  0  0  0  0  2  0  0  0  0  0  0
  183.9090  178.6280  138.4960 C   0  0  0  0  0  2  0  0  0  0  0  0
  187.1140  176.9330  134.7690 C   0  0  1  0  0  3  0  0  0  0  0  0
  186.9860  175.4010  134.8200 C   0  0  0  0  0  2  0  0  0  0  0  0
  182.4620  174.3680  136.3930 C   0  0  1  0  0  3  0  0  0  0  0  0
  185.1180  176.5760  137.6740 C   0  0  2  0  0  3  0  0  0  0  0  0
  181.3750  178.3280  137.9740 C   0  0  0  0  0  2  0  0  0  0  0  0
  185.2680  172.9440  136.2550 C   0  0  1  0  0  3  0  0  0  0  0  0
  182.3070  180.5060  138.7190 C   0  0  0  0  0  1  0  0  0  0  0  0
  186.1720  177.6750  135.7350 C   0  0  0  0  0  2  0  0  0  0  0  0
  189.5120  176.4400  134.5940 O   0  0  0  0  0  1  0  0  0  0  0  0
  186.3370  177.3280  137.2300 C   0  0  2  0  0  3  0  0  0  0  0  0
  183.9610  172.5640  135.5630 C   0  0  0  0  0  2  0  0  0  0  0  0
  186.1840  170.8740  135.1900 C   0  0  0  0  0  3  0  0  0  0  0  0
  186.4200  172.1400  135.7350 C   0  0  0  0  0  0  0  0  0  0  0  0
  187.7390  172.6070  135.8160 C   0  0  0  0  0  3  0  0  0  0  0  0
  190.4380  172.3880  135.4440 Cl  0  0  0  0  0  0  0  0  0  0  0  0
  188.5070  170.5600  134.8050 C   0  0  0  0  0  3  0  0  0  0  0  0
  188.7880  171.8150  135.3470 C   0  0  0  0  0  0  0  0  0  0  0  0
  187.2210  170.1190  134.7380 N   0  0  0  0  0  0  0  0  0  0  0  0
  189.0550  179.3780  138.3730 O   0  0  0  0  0  1  0  0  0  0  0  0
  189.2350  178.0030  138.5660 C   0  0  0  0  0  2  0  0  0  0  0  0
  2 14  1  0  0  0  0
  3  9  1  0  0  0  0
  4  1  1  0  0  0  0
  4 37  1  0  0  0  0
  5 10  1  0  0  0  0
  6 22  1  0  0  0  0
  6  9  1  0  0  0  0
  7  3  1  0  0  0  0
  7 21  1  0  0  0  0
  8 12  1  0  0  0  0
  9 13  1  0  0  0  0
 10 23  1  0  0  0  0
 10  7  1  0  0  0  0
 11  6  1  0  0  0  0
 12  4  1  0  0  0  0
 13 17  1  0  0  0  0
 16 11  1  0  0  0  0
 17  2  1  0  0  0  0
 18 19  1  0  0  0  0
 18  8  1  0  0  0  0
 18 25  1  0  0  0  0
 19  5  1  0  0  0  0
 20 15  1  0  0  0  0
 20 16  1  0  0  0  0
 20  3  1  0  0  0  0
 21 13  1  0  0  0  0
 22  2  1  0  0  0  0
 24  2  1  0  0  0  0
 25 27  1  0  0  0  0
 26  8  1  0  0  0  0
 27  1  1  0  0  0  0
 27 21  1  0  0  0  0
 28 23  1  0  0  0  0
 28 15  1  0  0  0  0
 29 30  1  0  0  0  0
 30 31  2  0  0  0  0
 30 23  1  0  0  0  0
 33 34  2  0  0  0  0
 34 32  1  0  0  0  0
 34 31  1  0  0  0  0
 35 33  1  0  0  0  0
 35 29  2  0  0  0  0
 36 37  1  0  0  0  0
M  END
>  <MODEL>
1

>  <REMARK>
 VINA RESULT:      -6.0      0.000      0.000
  Name = 
  2 active torsions:
  status: ('A' for Active; 'I' for Inactive)
    1  A    between atoms: N_4  and  C_37
    2  A    between atoms: C_23  and  C_30
                            x       y       z     vdW  Elec       q    Type
                         _______ _______ _______ _____ _____    ______ ____

>  <TORSDO>
F 2

$$$$
=
 OpenBabel11122411333D

 37 43  0  0  1  0  0  0  0  0999 V2000
  186.2620  176.5480  137.7720 C   0  0  0  0  0  2  0  0  0  0  0  0
  181.0200  178.4330  139.5910 C   0  0  0  0  0  0  0  0  0  0  0  0
  182.2160  174.6940  137.9450 C   0  0  1  0  0  3  0  0  0  0  0  0
  187.4110  177.3980  137.4100 N   0  0  0  0  0  0  0  0  0  0  0  0
  184.2190  174.7300  135.3670 O   0  0  0  0  0  0  0  0  0  0  0  0
  180.4520  176.3640  138.1180 C   0  0  1  0  0  3  0  0  0  0  0  0
  183.4840  174.9620  137.6420 C   0  0  1  0  0  3  0  0  0  0  0  0
  186.8080  177.5000  134.9760 C   0  0  2  0  0  3  0  0  0  0  0  0
  181.6570  175.7600  138.8200 C   0  0  2  0  0  3  0  0  0  0  0  0
  184.3480  174.2160  136.6640 C   0  0  1  0  0  3  0  0  0  0  0  0
  179.3490  175.3250  137.8570 C   0  0  0  0  0  2  0  0  0  0  0  0
  187.2030  178.2690  136.2460 C   0  0  0  0  0  2  0  0  0  0  0  0
  182.7440  176.7690  138.7930 C   0  0  2  0  0  3  0  0  0  0  0  0
  180.9640  178.0690  141.0640 C   0  0  0  0  0  1  0  0  0  0  0  0
  181.7800  172.3410  137.2050 C   0  0  0  0  0  2  0  0  0  0  0  0
  179.8720  173.8740  137.7350 C   0  0  0  0  0  2  0  0  0  0  0  0
  182.4600  178.2180  139.0760 C   0  0  0  0  0  2  0  0  0  0  0  0
  185.4160  176.8310  135.0290 C   0  0  1  0  0  3  0  0  0  0  0  0
  185.4740  175.2960  135.1050 C   0  0  0  0  0  2  0  0  0  0  0  0
  181.3000  173.7800  137.1750 C   0  0  1  0  0  3  0  0  0  0  0  0
  183.8040  176.3040  138.1390 C   0  0  2  0  0  3  0  0  0  0  0  0
  179.9370  177.6190  138.8380 C   0  0  0  0  0  2  0  0  0  0  0  0
  184.2220  172.6860  136.7370 C   0  0  1  0  0  3  0  0  0  0  0  0
  180.6830  179.9030  139.4610 C   0  0  0  0  0  1  0  0  0  0  0  0
  184.5050  177.4790  136.0880 C   0  0  0  0  0  2  0  0  0  0  0  0
  187.8210  176.6140  134.5940 O   0  0  0  0  0  1  0  0  0  0  0  0
  184.8710  177.1820  137.5580 C   0  0  2  0  0  3  0  0  0  0  0  0
  182.9000  172.1450  136.1970 C   0  0  0  0  0  2  0  0  0  0  0  0
  185.1950  170.8450  135.3520 C   0  0  0  0  0  3  0  0  0  0  0  0
  185.3960  172.0110  136.0990 C   0  0  0  0  0  0  0  0  0  0  0  0
  186.7010  172.4940  136.2620 C   0  0  0  0  0  3  0  0  0  0  0  0
  189.4050  172.4130  135.8740 Cl  0  0  0  0  0  0  0  0  0  0  0  0
  187.5260  170.6620  134.9330 C   0  0  0  0  0  3  0  0  0  0  0  0
  187.7720  171.8180  135.6750 C   0  0  0  0  0  0  0  0  0  0  0  0
  186.2530  170.2030  134.7880 N   0  0  0  0  0  0  0  0  0  0  0  0
  188.8140  179.1170  138.2270 O   0  0  0  0  0  1  0  0  0  0  0  0
  187.7990  178.2130  138.5610 C   0  0  0  0  0  2  0  0  0  0  0  0
  2 14  1  0  0  0  0
  3  9  1  0  0  0  0
  4  1  1  0  0  0  0
  4 37  1  0  0  0  0
  5 10  1  0  0  0  0
  6  9  1  0  0  0  0
  6 22  1  0  0  0  0
  7  3  1  0  0  0  0
  7 21  1  0  0  0  0
  8 18  1  0  0  0  0
  8 12  1  0  0  0  0
 10 23  1  0  0  0  0
 10  7  1  0  0  0  0
 11  6  1  0  0  0  0
 12  4  1  0  0  0  0
 13  9  1  0  0  0  0
 13 17  1  0  0  0  0
 16 11  1  0  0  0  0
 17  2  1  0  0  0  0
 18 19  1  0  0  0  0
 18 25  1  0  0  0  0
 19  5  1  0  0  0  0
 20 15  1  0  0  0  0
 20 16  1  0  0  0  0
 20  3  1  0  0  0  0
 21 13  1  0  0  0  0
 22  2  1  0  0  0  0
 24  2  1  0  0  0  0
 25 27  1  0  0  0  0
 26  8  1  0  0  0  0
 27  1  1  0  0  0  0
 27 21  1  0  0  0  0
 28 23  1  0  0  0  0
 28 15  1  0  0  0  0
 29 30  1  0  0  0  0
 30 31  2  0  0  0  0
 30 23  1  0  0  0  0
 33 34  2  0  0  0  0
 34 32  1  0  0  0  0
 34 31  1  0  0  0  0
 35 33  1  0  0  0  0
 35 29  2  0  0  0  0
 36 37  1  0  0  0  0
M  END
>  <MODEL>
2

>  <REMARK>
 VINA RESULT:      -5.8      1.250      1.462
  Name = 
  2 active torsions:
  status: ('A' for Active; 'I' for Inactive)
    1  A    between atoms: N_4  and  C_37
    2  A    between atoms: C_23  and  C_30
                            x       y       z     vdW  Elec       q    Type
                         _______ _______ _______ _____ _____    ______ ____

>  <TORSDO>
F 2

$$$$
=
 OpenBabel11122411333D

 37 43  0  0  1  0  0  0  0  0999 V2000
  187.1750  175.4480  137.5980 C   0  0  0  0  0  2  0  0  0  0  0  0
  192.7540  174.5220  136.0630 C   0  0  0  0  0  0  0  0  0  0  0  0
  191.0880  176.4240  139.4880 C   0  0  1  0  0  3  0  0  0  0  0  0
  186.0120  175.4240  136.6940 N   0  0  0  0  0  0  0  0  0  0  0  0
  188.5940  178.4800  139.0320 O   0  0  0  0  0  0  0  0  0  0  0  0
  192.9170  176.3790  137.8800 C   0  0  1  0  0  3  0  0  0  0  0  0
  189.7970  176.4060  139.1650 C   0  0  1  0  0  3  0  0  0  0  0  0
  186.0960  177.8860  136.2140 C   0  0  2  0  0  3  0  0  0  0  0  0
  191.8610  175.5370  138.5770 C   0  0  2  0  0  3  0  0  0  0  0  0
  188.7180  177.2800  139.7420 C   0  0  1  0  0  3  0  0  0  0  0  0
  193.8970  177.0240  138.8730 C   0  0  0  0  0  2  0  0  0  0  0  0
  186.0070  176.4590  135.6520 C   0  0  0  0  0  2  0  0  0  0  0  0
  190.8350  175.1780  137.5680 C   0  0  2  0  0  3  0  0  0  0  0  0
  193.1020  173.1670  136.6550 C   0  0  0  0  0  1  0  0  0  0  0  0
  191.2630  177.5890  141.6980 C   0  0  0  0  0  2  0  0  0  0  0  0
  193.3010  177.2510  140.2820 C   0  0  0  0  0  2  0  0  0  0  0  0
  191.2310  174.7450  136.1840 C   0  0  0  0  0  2  0  0  0  0  0  0
  187.4400  178.2330  136.8940 C   0  0  1  0  0  3  0  0  0  0  0  0
  187.3370  178.3810  138.4210 C   0  0  0  0  0  2  0  0  0  0  0  0
  191.7860  177.5020  140.2760 C   0  0  1  0  0  3  0  0  0  0  0  0
  189.6440  175.6540  137.9160 C   0  0  2  0  0  3  0  0  0  0  0  0
  193.6220  175.6030  136.7580 C   0  0  0  0  0  2  0  0  0  0  0  0
  188.7940  177.4690  141.2650 C   0  0  1  0  0  3  0  0  0  0  0  0
  193.1160  174.4950  134.5940 C   0  0  0  0  0  1  0  0  0  0  0  0
  188.5780  177.3060  136.4280 C   0  0  0  0  0  2  0  0  0  0  0  0
  184.9900  178.1740  137.0210 O   0  0  0  0  0  1  0  0  0  0  0  0
  188.5150  175.8540  136.9490 C   0  0  2  0  0  3  0  0  0  0  0  0
  189.9500  178.3540  141.7250 C   0  0  0  0  0  2  0  0  0  0  0  0
  186.5960  178.6310  140.9960 C   0  0  0  0  0  3  0  0  0  0  0  0
  187.4860  177.9380  141.8230 C   0  0  0  0  0  0  0  0  0  0  0  0
  187.1440  177.7360  143.1670 C   0  0  0  0  0  3  0  0  0  0  0  0
  185.4910  177.9670  145.3310 Cl  0  0  0  0  0  0  0  0  0  0  0  0
  185.0660  178.8960  142.7940 C   0  0  0  0  0  3  0  0  0  0  0  0
  185.9280  178.2140  143.6550 C   0  0  0  0  0  0  0  0  0  0  0  0
  185.4150  179.0890  141.4920 N   0  0  0  0  0  0  0  0  0  0  0  0
  186.0310  173.0810  137.0100 O   0  0  0  0  0  1  0  0  0  0  0  0
  185.9070  174.1070  136.0660 C   0  0  0  0  0  2  0  0  0  0  0  0
  2 17  1  0  0  0  0
  2 14  1  0  0  0  0
  2 22  1  0  0  0  0
  3 20  1  0  0  0  0
  4  1  1  0  0  0  0
  5 10  1  0  0  0  0
  6  9  1  0  0  0  0
  6 11  1  0  0  0  0
  7  3  1  0  0  0  0
  7 10  1  0  0  0  0
  8 18  1  0  0  0  0
  8 26  1  0  0  0  0
  9  3  1  0  0  0  0
 10 23  1  0  0  0  0
 11 16  1  0  0  0  0
 12  8  1  0  0  0  0
 12  4  1  0  0  0  0
 13 21  1  0  0  0  0
 13  9  1  0  0  0  0
 15 28  1  0  0  0  0
 17 13  1  0  0  0  0
 18 19  1  0  0  0  0
 19  5  1  0  0  0  0
 20 16  1  0  0  0  0
 20 15  1  0  0  0  0
 21  7  1  0  0  0  0
 22  6  1  0  0  0  0
 23 28  1  0  0  0  0
 23 30  1  0  0  0  0
 24  2  1  0  0  0  0
 25 18  1  0  0  0  0
 25 27  1  0  0  0  0
 27  1  1  0  0  0  0
 27 21  1  0  0  0  0
 29 35  2  0  0  0  0
 29 30  1  0  0  0  0
 30 31  2  0  0  0  0
 31 34  1  0  0  0  0
 33 34  2  0  0  0  0
 34 32  1  0  0  0  0
 35 33  1  0  0  0  0
 37  4  1  0  0  0  0
 37 36  1  0  0  0  0
M  END
>  <MODEL>
3

>  <REMARK>
 VINA RESULT:      -5.8      3.978      8.809
  Name = 
  2 active torsions:
  status: ('A' for Active; 'I' for Inactive)
    1  A    between atoms: N_4  and  C_37
    2  A    between atoms: C_23  and  C_30
                            x       y       z     vdW  Elec       q    Type
                         _______ _______ _______ _____ _____    ______ ____

>  <TORSDO>
F 2

$$$$
=
 OpenBabel11122411333D

 37 43  0  0  1  0  0  0  0  0999 V2000
  182.7290  177.6420  136.1250 C   0  0  0  0  0  2  0  0  0  0  0  0
  180.3330  178.9710  141.3050 C   0  0  0  0  0  0  0  0  0  0  0  0
  184.4090  178.7500  140.0980 C   0  0  1  0  0  3  0  0  0  0  0  0
  182.0680  176.9180  135.0240 N   0  0  0  0  0  0  0  0  0  0  0  0
  185.3210  176.2170  138.2500 O   0  0  0  0  0  0  0  0  0  0  0  0
  182.8040  178.4070  141.8970 C   0  0  1  0  0  3  0  0  0  0  0  0
  184.2660  178.2870  138.8580 C   0  0  1  0  0  3  0  0  0  0  0  0
  182.8790  174.6620  135.7700 C   0  0  2  0  0  3  0  0  0  0  0  0
  183.0980  179.2030  140.6360 C   0  0  2  0  0  3  0  0  0  0  0  0
  185.3170  177.6000  138.0320 C   0  0  1  0  0  3  0  0  0  0  0  0
  183.8720  178.6200  142.9820 C   0  0  0  0  0  2  0  0  0  0  0  0
  181.6920  175.5300  135.3240 C   0  0  0  0  0  2  0  0  0  0  0  0
  182.1650  178.7340  139.5820 C   0  0  2  0  0  3  0  0  0  0  0  0
  180.1260  180.4750  141.2640 C   0  0  0  0  0  1  0  0  0  0  0  0
  186.8710  178.9610  140.5070 C   0  0  0  0  0  2  0  0  0  0  0  0
  185.2620  179.0090  142.4250 C   0  0  0  0  0  2  0  0  0  0  0  0
  180.7160  178.4790  139.8910 C   0  0  0  0  0  2  0  0  0  0  0  0
  183.4880  175.0490  137.1360 C   0  0  1  0  0  3  0  0  0  0  0  0
  184.8850  175.6830  137.0300 C   0  0  0  0  0  2  0  0  0  0  0  0
  185.5490  178.4320  141.0310 C   0  0  1  0  0  3  0  0  0  0  0  0
  182.8330  178.2320  138.5490 C   0  0  2  0  0  3  0  0  0  0  0  0
  181.3740  178.6440  142.4050 C   0  0  0  0  0  2  0  0  0  0  0  0
  186.7110  178.2420  138.1090 C   0  0  1  0  0  3  0  0  0  0  0  0
  179.0180  178.3290  141.6910 C   0  0  0  0  0  1  0  0  0  0  0  0
  182.4990  175.8510  138.0030 C   0  0  0  0  0  2  0  0  0  0  0  0
  183.8380  174.5700  134.7550 O   0  0  0  0  0  1  0  0  0  0  0  0
  182.2270  177.2990  137.5430 C   0  0  2  0  0  3  0  0  0  0  0  0
  187.4210  178.0260  139.4430 C   0  0  0  0  0  2  0  0  0  0  0  0
  187.1990  178.1890  135.6560 C   0  0  0  0  0  3  0  0  0  0  0  0
  187.5690  177.8240  136.9540 C   0  0  0  0  0  0  0  0  0  0  0  0
  188.7150  177.0390  137.1360 C   0  0  0  0  0  3  0  0  0  0  0  0
  190.9050  175.6660  136.2480 Cl  0  0  0  0  0  0  0  0  0  0  0  0
  189.0700  177.0370  134.7530 C   0  0  0  0  0  3  0  0  0  0  0  0
  189.4720  176.6460  136.0320 C   0  0  0  0  0  0  0  0  0  0  0  0
  187.9500  177.7950  134.5940 N   0  0  0  0  0  0  0  0  0  0  0  0
  181.1030  179.0400  134.6280 O   0  0  0  0  0  1  0  0  0  0  0  0
  180.8820  177.6580  134.5940 C   0  0  0  0  0  2  0  0  0  0  0  0
  1 27  1  0  0  0  0
  2 24  1  0  0  0  0
  2 22  1  0  0  0  0
  3  9  1  0  0  0  0
  3 20  1  0  0  0  0
  4 12  1  0  0  0  0
  4  1  1  0  0  0  0
  6 22  1  0  0  0  0
  6 11  1  0  0  0  0
  7  3  1  0  0  0  0
  8 18  1  0  0  0  0
  9  6  1  0  0  0  0
 10 23  1  0  0  0  0
 10  5  1  0  0  0  0
 10  7  1  0  0  0  0
 12  8  1  0  0  0  0
 13 17  1  0  0  0  0
 13  9  1  0  0  0  0
 14  2  1  0  0  0  0
 15 20  1  0  0  0  0
 16 11  1  0  0  0  0
 17  2  1  0  0  0  0
 18 25  1  0  0  0  0
 19 18  1  0  0  0  0
 19  5  1  0  0  0  0
 20 16  1  0  0  0  0
 21  7  1  0  0  0  0
 21 13  1  0  0  0  0
 23 28  1  0  0  0  0
 26  8  1  0  0  0  0
 27 25  1  0  0  0  0
 27 21  1  0  0  0  0
 28 15  1  0  0  0  0
 29 30  1  0  0  0  0
 30 31  2  0  0  0  0
 30 23  1  0  0  0  0
 33 34  2  0  0  0  0
 34 32  1  0  0  0  0
 34 31  1  0  0  0  0
 35 33  1  0  0  0  0
 35 29  2  0  0  0  0
 37 36  1  0  0  0  0
 37  4  1  0  0  0  0
M  END
>  <MODEL>
4

>  <REMARK>
 VINA RESULT:      -5.7      2.954      5.745
  Name = 
  2 active torsions:
  status: ('A' for Active; 'I' for Inactive)
    1  A    between atoms: N_4  and  C_37
    2  A    between atoms: C_23  and  C_30
                            x       y       z     vdW  Elec       q    Type
                         _______ _______ _______ _____ _____    ______ ____

>  <TORSDO>
F 2

$$$$
=
 OpenBabel11122411333D

 37 43  0  0  1  0  0  0  0  0999 V2000
  184.0090  178.6980  139.3040 C   0  0  0  0  0  2  0  0  0  0  0  0
  183.9410  173.5370  136.5300 C   0  0  0  0  0  0  0  0  0  0  0  0
  181.4420  176.9570  136.1080 C   0  0  1  0  0  3  0  0  0  0  0  0
  184.6570  178.9780  140.5980 N   0  0  0  0  0  0  0  0  0  0  0  0
  180.4080  178.4390  138.8280 O   0  0  0  0  0  0  0  0  0  0  0  0
  181.5830  174.5270  136.0450 C   0  0  1  0  0  3  0  0  0  0  0  0
  181.9080  177.7160  137.0970 C   0  0  1  0  0  3  0  0  0  0  0  0
  182.5980  178.4890  141.9480 C   0  0  2  0  0  3  0  0  0  0  0  0
  182.3630  175.8170  135.8530 C   0  0  2  0  0  3  0  0  0  0  0  0
  181.1980  178.8670  137.7530 C   0  0  1  0  0  3  0  0  0  0  0  0
  180.3950  174.4150  135.0760 C   0  0  0  0  0  2  0  0  0  0  0  0
  184.1020  178.2490  141.7470 C   0  0  0  0  0  2  0  0  0  0  0  0
  183.3120  175.9400  136.9860 C   0  0  2  0  0  3  0  0  0  0  0  0
  184.8540  173.7260  135.3310 C   0  0  0  0  0  1  0  0  0  0  0  0
  179.5610  178.2280  135.0510 C   0  0  0  0  0  2  0  0  0  0  0  0
  179.8410  175.7800  134.6040 C   0  0  0  0  0  2  0  0  0  0  0  0
  184.0930  174.7510  137.4720 C   0  0  0  0  0  2  0  0  0  0  0  0
  181.6950  177.9100  140.8350 C   0  0  1  0  0  3  0  0  0  0  0  0
  181.0420  178.9870  139.9510 C   0  0  0  0  0  2  0  0  0  0  0  0
  180.0120  176.9040  135.6370 C   0  0  1  0  0  3  0  0  0  0  0  0
  183.0700  177.0430  137.6870 C   0  0  2  0  0  3  0  0  0  0  0  0
  182.4980  173.2930  136.0190 C   0  0  0  0  0  2  0  0  0  0  0  0
  180.4640  179.8040  136.7820 C   0  0  1  0  0  3  0  0  0  0  0  0
  184.3960  172.2990  137.2720 C   0  0  0  0  0  1  0  0  0  0  0  0
  182.3970  176.7900  140.0450 C   0  0  0  0  0  2  0  0  0  0  0  0
  182.3380  179.8380  142.2100 O   0  0  0  0  0  1  0  0  0  0  0  0
  183.5290  177.2460  139.1000 C   0  0  2  0  0  3  0  0  0  0  0  0
  179.2060  179.1980  136.1650 C   0  0  0  0  0  2  0  0  0  0  0  0
  179.2190  181.2250  138.4200 C   0  0  0  0  0  3  0  0  0  0  0  0
  180.1840  181.1330  137.4120 C   0  0  0  0  0  0  0  0  0  0  0  0
  180.8360  182.3000  136.9910 C   0  0  0  0  0  3  0  0  0  0  0  0
  181.3340  184.9860  137.0650 Cl  0  0  0  0  0  0  0  0  0  0  0  0
  179.5590  183.5700  138.5900 C   0  0  0  0  0  3  0  0  0  0  0  0
  180.5250  183.5240  137.5830 C   0  0  0  0  0  0  0  0  0  0  0  0
  178.9310  182.4290  138.9840 N   0  0  0  0  0  0  0  0  0  0  0  0
  186.5030  178.6280  139.1630 O   0  0  0  0  0  1  0  0  0  0  0  0
  186.0900  178.7040  140.4980 C   0  0  0  0  0  2  0  0  0  0  0  0
  1  4  1  0  0  0  0
  2 24  1  0  0  0  0
  2 17  1  0  0  0  0
  3  7  1  0  0  0  0
  4 12  1  0  0  0  0
  5 19  1  0  0  0  0
  7 21  1  0  0  0  0
  7 10  1  0  0  0  0
  8 26  1  0  0  0  0
  9  6  1  0  0  0  0
  9  3  1  0  0  0  0
  9 13  1  0  0  0  0
 10  5  1  0  0  0  0
 11  6  1  0  0  0  0
 12  8  1  0  0  0  0
 13 17  1  0  0  0  0
 13 21  1  0  0  0  0
 14  2  1  0  0  0  0
 15 20  1  0  0  0  0
 15 28  1  0  0  0  0
 16 11  1  0  0  0  0
 16 20  1  0  0  0  0
 18  8  1  0  0  0  0
 19 18  1  0  0  0  0
 20  3  1  0  0  0  0
 21 27  1  0  0  0  0
 22  6  1  0  0  0  0
 22  2  1  0  0  0  0
 23 30  1  0  0  0  0
 23 10  1  0  0  0  0
 25 18  1  0  0  0  0
 27  1  1  0  0  0  0
 27 25  1  0  0  0  0
 28 23  1  0  0  0  0
 29 35  1  0  0  0  0
 30 29  2  0  0  0  0
 31 30  1  0  0  0  0
 31 34  2  0  0  0  0
 32 34  1  0  0  0  0
 33 35  2  0  0  0  0
 34 33  1  0  0  0  0
 36 37  1  0  0  0  0
 37  4  1  0  0  0  0
M  END
>  <MODEL>
5

>  <REMARK>
 VINA RESULT:      -5.6      4.334      8.167
  Name = 
  2 active torsions:
  status: ('A' for Active; 'I' for Inactive)
    1  A    between atoms: N_4  and  C_37
    2  A    between atoms: C_23  and  C_30
                            x       y       z     vdW  Elec       q    Type
                         _______ _______ _______ _____ _____    ______ ____

>  <TORSDO>
F 2

$$$$
=
 OpenBabel11122411333D

 37 43  0  0  1  0  0  0  0  0999 V2000
  186.3190  176.2540  137.6080 C   0  0  0  0  0  2  0  0  0  0  0  0
  180.7250  174.5470  137.2430 C   0  0  0  0  0  0  0  0  0  0  0  0
  184.3250  172.5310  136.1940 C   0  0  1  0  0  3  0  0  0  0  0  0
  186.7960  177.6440  137.7220 N   0  0  0  0  0  0  0  0  0  0  0  0
  186.6150  174.2250  134.5990 O   0  0  0  0  0  0  0  0  0  0  0  0
  181.9750  172.8970  135.6660 C   0  0  1  0  0  3  0  0  0  0  0  0
  185.2110  173.5010  136.4080 C   0  0  1  0  0  3  0  0  0  0  0  0
  187.0540  177.9560  135.2450 C   0  0  2  0  0  3  0  0  0  0  0  0
  183.0080  172.8960  136.7820 C   0  0  2  0  0  3  0  0  0  0  0  0
  186.6020  173.5820  135.8430 C   0  0  1  0  0  3  0  0  0  0  0  0
  181.8410  171.5190  134.9970 C   0  0  0  0  0  2  0  0  0  0  0  0
  186.4990  178.5040  136.5680 C   0  0  0  0  0  2  0  0  0  0  0  0
  183.2380  174.3070  137.1790 C   0  0  2  0  0  3  0  0  0  0  0  0
  180.4300  173.8860  138.5790 C   0  0  0  0  0  1  0  0  0  0  0  0
  185.6080  170.5560  135.3440 C   0  0  0  0  0  2  0  0  0  0  0  0
  183.1190  170.6520  135.0880 C   0  0  0  0  0  2  0  0  0  0  0  0
  182.0900  175.2650  137.3290 C   0  0  0  0  0  2  0  0  0  0  0  0
  186.3880  176.6510  134.7520 C   0  0  1  0  0  3  0  0  0  0  0  0
  187.3040  175.4190  134.8450 C   0  0  0  0  0  2  0  0  0  0  0  0
  184.4170  171.4710  135.1280 C   0  0  1  0  0  3  0  0  0  0  0  0
  184.5090  174.6480  136.9900 C   0  0  2  0  0  3  0  0  0  0  0  0
  180.6300  173.4740  136.1290 C   0  0  0  0  0  2  0  0  0  0  0  0
  187.3790  172.2570  135.8620 C   0  0  1  0  0  3  0  0  0  0  0  0
  179.6550  175.5880  136.9920 C   0  0  0  0  0  1  0  0  0  0  0  0
  184.9940  176.4450  135.3730 C   0  0  0  0  0  2  0  0  0  0  0  0
  188.4500  177.8690  135.2870 O   0  0  0  0  0  1  0  0  0  0  0  0
  184.9770  176.0680  136.8700 C   0  0  2  0  0  3  0  0  0  0  0  0
  186.8780  171.2280  134.8500 C   0  0  0  0  0  2  0  0  0  0  0  0
  189.5620  171.8310  134.7200 C   0  0  0  0  0  3  0  0  0  0  0  0
  188.8530  172.4860  135.7310 C   0  0  0  0  0  0  0  0  0  0  0  0
  189.5510  173.3110  136.6230 C   0  0  0  0  0  3  0  0  0  0  0  0
  191.8110  174.5030  137.5930 Cl  0  0  0  0  0  0  0  0  0  0  0  0
  191.5980  172.8080  135.4570 C   0  0  0  0  0  3  0  0  0  0  0  0
  190.9300  173.4750  136.4850 C   0  0  0  0  0  0  0  0  0  0  0  0
  190.9060  172.0060  134.6030 N   0  0  0  0  0  0  0  0  0  0  0  0
  185.3060  179.2440  138.6230 O   0  0  0  0  0  1  0  0  0  0  0  0
  186.2450  178.2530  138.9320 C   0  0  0  0  0  2  0  0  0  0  0  0
  1  4  1  0  0  0  0
  2 17  1  0  0  0  0
  2 14  1  0  0  0  0
  3  7  1  0  0  0  0
  3  9  1  0  0  0  0
  4 37  1  0  0  0  0
  5 19  1  0  0  0  0
  5 10  1  0  0  0  0
  6 22  1  0  0  0  0
  6  9  1  0  0  0  0
  7 21  1  0  0  0  0
  8 26  1  0  0  0  0
  8 12  1  0  0  0  0
  9 13  1  0  0  0  0
 10 23  1  0  0  0  0
 10  7  1  0  0  0  0
 11 16  1  0  0  0  0
 11  6  1  0  0  0  0
 12  4  1  0  0  0  0
 13 17  1  0  0  0  0
 16 20  1  0  0  0  0
 18 19  1  0  0  0  0
 18  8  1  0  0  0  0
 18 25  1  0  0  0  0
 20 15  1  0  0  0  0
 20  3  1  0  0  0  0
 21 13  1  0  0  0  0
 22  2  1  0  0  0  0
 24  2  1  0  0  0  0
 25 27  1  0  0  0  0
 27 21  1  0  0  0  0
 27  1  1  0  0  0  0
 28 15  1  0  0  0  0
 28 23  1  0  0  0  0
 29 30  1  0  0  0  0
 30 23  1  0  0  0  0
 30 31  2  0  0  0  0
 33 34  2  0  0  0  0
 34 31  1  0  0  0  0
 34 32  1  0  0  0  0
 35 29  2  0  0  0  0
 35 33  1  0  0  0  0
 36 37  1  0  0  0  0
M  END
>  <MODEL>
6

>  <REMARK>
 VINA RESULT:      -5.6      2.097      3.344
  Name = 
  2 active torsions:
  status: ('A' for Active; 'I' for Inactive)
    1  A    between atoms: N_4  and  C_37
    2  A    between atoms: C_23  and  C_30
                            x       y       z     vdW  Elec       q    Type
                         _______ _______ _______ _____ _____    ______ ____

>  <TORSDO>
F 2

$$$$
=
 OpenBabel11122411333D

 37 43  0  0  1  0  0  0  0  0999 V2000
  186.1950  176.8900  138.3320 C   0  0  0  0  0  2  0  0  0  0  0  0
  182.2870  173.0340  136.2830 C   0  0  0  0  0  0  0  0  0  0  0  0
  186.5360  172.8550  136.4790 C   0  0  1  0  0  3  0  0  0  0  0  0
  185.9620  178.3300  138.5470 N   0  0  0  0  0  0  0  0  0  0  0  0
  188.2180  175.5220  135.6320 O   0  0  0  0  0  0  0  0  0  0  0  0
  184.5350  172.2510  135.2290 C   0  0  1  0  0  3  0  0  0  0  0  0
  186.8050  174.0780  136.9300 C   0  0  1  0  0  3  0  0  0  0  0  0
  186.7780  178.9930  136.2680 C   0  0  2  0  0  3  0  0  0  0  0  0
  185.0840  172.5630  136.6120 C   0  0  2  0  0  3  0  0  0  0  0  0
  188.1190  174.8000  136.8280 C   0  0  1  0  0  3  0  0  0  0  0  0
  185.2180  171.0290  134.5940 C   0  0  0  0  0  2  0  0  0  0  0  0
  185.6750  179.1050  137.3330 C   0  0  0  0  0  2  0  0  0  0  0  0
  184.5490  173.8850  137.0180 C   0  0  2  0  0  3  0  0  0  0  0  0
  181.9300  172.1670  137.4780 C   0  0  0  0  0  1  0  0  0  0  0  0
  188.7380  171.7130  136.1350 C   0  0  0  0  0  2  0  0  0  0  0  0
  186.6550  170.7770  135.1090 C   0  0  0  0  0  2  0  0  0  0  0  0
  183.1100  174.2460  136.7710 C   0  0  0  0  0  2  0  0  0  0  0  0
  186.9240  177.5930  135.6310 C   0  0  1  0  0  3  0  0  0  0  0  0
  188.2120  176.8610  136.0450 C   0  0  0  0  0  2  0  0  0  0  0  0
  187.3910  172.0580  135.5290 C   0  0  1  0  0  3  0  0  0  0  0  0
  185.5360  174.7500  137.2270 C   0  0  2  0  0  3  0  0  0  0  0  0
  183.0020  172.1510  135.2280 C   0  0  0  0  0  2  0  0  0  0  0  0
  189.3510  173.9330  137.1310 C   0  0  1  0  0  3  0  0  0  0  0  0
  180.9990  173.5470  135.6770 C   0  0  0  0  0  1  0  0  0  0  0  0
  185.6440  176.7500  135.7900 C   0  0  0  0  0  2  0  0  0  0  0  0
  187.9900  179.5000  136.7490 O   0  0  0  0  0  1  0  0  0  0  0  0
  185.3520  176.2380  137.2160 C   0  0  2  0  0  3  0  0  0  0  0  0
  189.6720  172.9090  136.0450 C   0  0  0  0  0  2  0  0  0  0  0  0
  191.6970  174.6740  136.6770 C   0  0  0  0  0  3  0  0  0  0  0  0
  190.5440  174.7760  137.4620 C   0  0  0  0  0  0  0  0  0  0  0  0
  190.5510  175.6400  138.5660 C   0  0  0  0  0  3  0  0  0  0  0  0
  191.7120  177.4670  140.2330 Cl  0  0  0  0  0  0  0  0  0  0  0  0
  192.8200  176.2580  138.0450 C   0  0  0  0  0  3  0  0  0  0  0  0
  191.6930  176.3860  138.8580 C   0  0  0  0  0  0  0  0  0  0  0  0
  192.7990  175.4110  136.9790 N   0  0  0  0  0  0  0  0  0  0  0  0
  184.9580  179.7520  140.1470 O   0  0  0  0  0  1  0  0  0  0  0  0
  184.8710  178.5120  139.5040 C   0  0  0  0  0  2  0  0  0  0  0  0
  1  4  1  0  0  0  0
  2 17  1  0  0  0  0
  2 14  1  0  0  0  0
  3  9  1  0  0  0  0
  3  7  1  0  0  0  0
  4 37  1  0  0  0  0
  5 19  1  0  0  0  0
  5 10  1  0  0  0  0
  6  9  1  0  0  0  0
  7 21  1  0  0  0  0
  8 26  1  0  0  0  0
  8 12  1  0  0  0  0
  9 13  1  0  0  0  0
 10  7  1  0  0  0  0
 10 23  1  0  0  0  0
 11 16  1  0  0  0  0
 11  6  1  0  0  0  0
 12  4  1  0  0  0  0
 13 21  1  0  0  0  0
 16 20  1  0  0  0  0
 17 13  1  0  0  0  0
 18 25  1  0  0  0  0
 18 19  1  0  0  0  0
 18  8  1  0  0  0  0
 20 15  1  0  0  0  0
 20  3  1  0  0  0  0
 22  6  1  0  0  0  0
 22  2  1  0  0  0  0
 23 30  1  0  0  0  0
 24  2  1  0  0  0  0
 25 27  1  0  0  0  0
 27 21  1  0  0  0  0
 27  1  1  0  0  0  0
 28 15  1  0  0  0  0
 28 23  1  0  0  0  0
 29 35  2  0  0  0  0
 29 30  1  0  0  0  0
 30 31  2  0  0  0  0
 31 34  1  0  0  0  0
 33 34  2  0  0  0  0
 34 32  1  0  0  0  0
 35 33  1  0  0  0  0
 37 36  1  0  0  0  0
M  END
>  <MODEL>
7

>  <REMARK>
 VINA RESULT:      -5.1      2.573      5.115
  Name = 
  2 active torsions:
  status: ('A' for Active; 'I' for Inactive)
    1  A    between atoms: N_4  and  C_37
    2  A    between atoms: C_23  and  C_30
                            x       y       z     vdW  Elec       q    Type
                         _______ _______ _______ _____ _____    ______ ____

>  <TORSDO>
F 2

$$$$
=
 OpenBabel11122411333D

 37 43  0  0  1  0  0  0  0  0999 V2000
  188.3810  177.3080  136.3050 C   0  0  0  0  0  2  0  0  0  0  0  0
  186.0460  178.5000  141.5460 C   0  0  0  0  0  0  0  0  0  0  0  0
  190.0470  177.5740  140.4270 C   0  0  1  0  0  3  0  0  0  0  0  0
  187.6430  176.8700  135.1070 N   0  0  0  0  0  0  0  0  0  0  0  0
  190.5160  175.1380  138.3040 O   0  0  0  0  0  0  0  0  0  0  0  0
  188.3160  177.3690  142.1280 C   0  0  1  0  0  3  0  0  0  0  0  0
  189.8750  177.2980  139.1360 C   0  0  1  0  0  3  0  0  0  0  0  0
  187.9370  174.4240  135.5890 C   0  0  2  0  0  3  0  0  0  0  0  0
  188.8310  178.2260  140.9820 C   0  0  2  0  0  3  0  0  0  0  0  0
  190.8050  176.5070  138.2590 C   0  0  1  0  0  3  0  0  0  0  0  0
  189.3480  177.2270  143.2580 C   0  0  0  0  0  2  0  0  0  0  0  0
  186.9760  175.5660  135.2240 C   0  0  0  0  0  2  0  0  0  0  0  0
  187.8760  178.0870  139.8550 C   0  0  2  0  0  3  0  0  0  0  0  0
  186.1520  180.0090  141.6860 C   0  0  0  0  0  1  0  0  0  0  0  0
  192.4760  177.2180  140.9230 C   0  0  0  0  0  2  0  0  0  0  0  0
  190.8150  177.3790  142.7900 C   0  0  0  0  0  2  0  0  0  0  0  0
  186.3920  178.1060  140.0930 C   0  0  0  0  0  2  0  0  0  0  0  0
  188.5420  174.5150  137.0080 C   0  0  1  0  0  3  0  0  0  0  0  0
  190.0430  174.8510  137.0170 C   0  0  0  0  0  2  0  0  0  0  0  0
  191.0490  176.9200  141.3430 C   0  0  1  0  0  3  0  0  0  0  0  0
  188.4800  177.5790  138.7860 C   0  0  2  0  0  3  0  0  0  0  0  0
  186.9410  177.8380  142.6240 C   0  0  0  0  0  2  0  0  0  0  0  0
  192.2950  176.8300  138.4510 C   0  0  1  0  0  3  0  0  0  0  0  0
  184.6090  178.1070  141.8150 C   0  0  0  0  0  1  0  0  0  0  0  0
  187.6940  175.4000  137.9410 C   0  0  0  0  0  2  0  0  0  0  0  0
  188.9080  174.2510  134.5960 O   0  0  0  0  0  1  0  0  0  0  0  0
  187.7480  176.9160  137.6570 C   0  0  2  0  0  3  0  0  0  0  0  0
  192.8780  176.3190  139.7660 C   0  0  0  0  0  2  0  0  0  0  0  0
  192.6790  176.6950  135.9830 C   0  0  0  0  0  3  0  0  0  0  0  0
  193.1070  176.3780  137.2760 C   0  0  0  0  0  0  0  0  0  0  0  0
  194.2680  175.6100  137.4360 C   0  0  0  0  0  3  0  0  0  0  0  0
  196.4300  174.2240  136.5030 Cl  0  0  0  0  0  0  0  0  0  0  0  0
  194.5210  175.5270  135.0420 C   0  0  0  0  0  3  0  0  0  0  0  0
  194.9800  175.1830  136.3150 C   0  0  0  0  0  0  0  0  0  0  0  0
  193.3890  176.2690  134.9040 N   0  0  0  0  0  0  0  0  0  0  0  0
  185.3720  177.3380  134.6440 O   0  0  0  0  0  1  0  0  0  0  0  0
  186.6570  177.8860  134.7410 C   0  0  0  0  0  2  0  0  0  0  0  0
  1 27  1  0  0  0  0
  2 14  1  0  0  0  0
  2 24  1  0  0  0  0
  2 22  1  0  0  0  0
  3  9  1  0  0  0  0
  3 20  1  0  0  0  0
  4 12  1  0  0  0  0
  4  1  1  0  0  0  0
  6 22  1  0  0  0  0
  6 11  1  0  0  0  0
  7  3  1  0  0  0  0
  8 18  1  0  0  0  0
  9  6  1  0  0  0  0
 10  5  1  0  0  0  0
 10 23  1  0  0  0  0
 10  7  1  0  0  0  0
 12  8  1  0  0  0  0
 13 17  1  0  0  0  0
 13  9  1  0  0  0  0
 15 20  1  0  0  0  0
 16 11  1  0  0  0  0
 17  2  1  0  0  0  0
 18 19  1  0  0  0  0
 18 25  1  0  0  0  0
 19  5  1  0  0  0  0
 20 16  1  0  0  0  0
 21  7  1  0  0  0  0
 21 13  1  0  0  0  0
 23 28  1  0  0  0  0
 26  8  1  0  0  0  0
 27 25  1  0  0  0  0
 27 21  1  0  0  0  0
 28 15  1  0  0  0  0
 29 30  1  0  0  0  0
 30 31  2  0  0  0  0
 30 23  1  0  0  0  0
 33 34  2  0  0  0  0
 34 32  1  0  0  0  0
 34 31  1  0  0  0  0
 35 33  1  0  0  0  0
 35 29  2  0  0  0  0
 36 37  1  0  0  0  0
 37  4  1  0  0  0  0
M  END
>  <MODEL>
8

>  <REMARK>
 VINA RESULT:      -4.9      3.738      6.706
  Name = 
  2 active torsions:
  status: ('A' for Active; 'I' for Inactive)
    1  A    between atoms: N_4  and  C_37
    2  A    between atoms: C_23  and  C_30
                            x       y       z     vdW  Elec       q    Type
                         _______ _______ _______ _____ _____    ______ ____

>  <TORSDO>
F 2

$$$$
=
 OpenBabel11122411333D

 37 43  0  0  1  0  0  0  0  0999 V2000
  189.7070  175.9910  142.8130 C   0  0  0  0  0  2  0  0  0  0  0  0
  186.4860  178.0280  147.2650 C   0  0  0  0  0  0  0  0  0  0  0  0
  185.8880  178.2700  143.0570 C   0  0  1  0  0  3  0  0  0  0  0  0
  191.1290  175.6090  142.8750 N   0  0  0  0  0  0  0  0  0  0  0  0
  188.4630  179.0030  141.1870 O   0  0  0  0  0  0  0  0  0  0  0  0
  185.6170  179.3720  145.2120 C   0  0  1  0  0  3  0  0  0  0  0  0
  187.0230  177.7260  142.6240 C   0  0  1  0  0  3  0  0  0  0  0  0
  191.9620  177.8780  142.1980 C   0  0  2  0  0  3  0  0  0  0  0  0
  185.7210  178.0250  144.5140 C   0  0  2  0  0  3  0  0  0  0  0  0
  187.6250  177.8820  141.2550 C   0  0  1  0  0  3  0  0  0  0  0  0
  184.4150  180.1920  144.7180 C   0  0  0  0  0  2  0  0  0  0  0  0
  192.0580  176.7040  143.1850 C   0  0  0  0  0  2  0  0  0  0  0  0
  187.0340  177.4360  144.8710 C   0  0  2  0  0  3  0  0  0  0  0  0
  185.5300  176.8980  147.6040 C   0  0  0  0  0  1  0  0  0  0  0  0
  184.5900  178.9440  141.0240 C   0  0  0  0  0  2  0  0  0  0  0  0
  183.9730  179.8500  143.2750 C   0  0  0  0  0  2  0  0  0  0  0  0
  187.5540  177.5030  146.2810 C   0  0  0  0  0  2  0  0  0  0  0  0
  190.6330  178.6650  142.2540 C   0  0  1  0  0  3  0  0  0  0  0  0
  189.7420  178.4570  141.0180 C   0  0  0  0  0  2  0  0  0  0  0  0
  185.1250  179.3760  142.3760 C   0  0  1  0  0  3  0  0  0  0  0  0
  187.7740  177.2380  143.7850 C   0  0  2  0  0  3  0  0  0  0  0  0
  185.6630  179.2320  146.7400 C   0  0  0  0  0  2  0  0  0  0  0  0
  186.6180  177.7920  140.0980 C   0  0  1  0  0  3  0  0  0  0  0  0
  187.1820  178.4490  148.5410 C   0  0  0  0  0  1  0  0  0  0  0  0
  189.9020  178.4680  143.5960 C   0  0  0  0  0  2  0  0  0  0  0  0
  192.2960  177.4700  140.9020 O   0  0  0  0  0  1  0  0  0  0  0  0
  189.2650  177.0800  143.8130 C   0  0  2  0  0  3  0  0  0  0  0  0
  185.6950  179.0030  139.9830 C   0  0  0  0  0  2  0  0  0  0  0  0
  186.8140  178.0640  137.6200 C   0  0  0  0  0  3  0  0  0  0  0  0
  187.3030  177.4960  138.8000 C   0  0  0  0  0  0  0  0  0  0  0  0
  188.4020  176.6290  138.7290 C   0  0  0  0  0  3  0  0  0  0  0  0
  190.3670  175.2750  137.3970 Cl  0  0  0  0  0  0  0  0  0  0  0  0
  188.4770  176.9480  136.3430 C   0  0  0  0  0  3  0  0  0  0  0  0
  188.9950  176.3560  137.4960 C   0  0  0  0  0  0  0  0  0  0  0  0
  187.4060  177.7840  136.4280 N   0  0  0  0  0  0  0  0  0  0  0  0
  192.4300  174.7570  144.6560 O   0  0  0  0  0  1  0  0  0  0  0  0
  191.3060  174.5360  143.8530 C   0  0  0  0  0  2  0  0  0  0  0  0
  1  4  1  0  0  0  0
  1 27  1  0  0  0  0
  2 14  1  0  0  0  0
  2 24  1  0  0  0  0
  3  9  1  0  0  0  0
  4 12  1  0  0  0  0
  4 37  1  0  0  0  0
  5 10  1  0  0  0  0
  6 22  1  0  0  0  0
  7  3  1  0  0  0  0
  7 21  1  0  0  0  0
  8 18  1  0  0  0  0
  8 12  1  0  0  0  0
  9 13  1  0  0  0  0
  9  6  1  0  0  0  0
 10  7  1  0  0  0  0
 11  6  1  0  0  0  0
 13 17  1  0  0  0  0
 15 20  1  0  0  0  0
 16 11  1  0  0  0  0
 17  2  1  0  0  0  0
 18 25  1  0  0  0  0
 19  5  1  0  0  0  0
 19 18  1  0  0  0  0
 20  3  1  0  0  0  0
 20 16  1  0  0  0  0
 21 27  1  0  0  0  0
 21 13  1  0  0  0  0
 22  2  1  0  0  0  0
 23 10  1  0  0  0  0
 25 27  1  0  0  0  0
 26  8  1  0  0  0  0
 28 23  1  0  0  0  0
 28 15  1  0  0  0  0
 29 30  1  0  0  0  0
 30 23  1  0  0  0  0
 31 30  2  0  0  0  0
 32 34  1  0  0  0  0
 33 35  1  0  0  0  0
 33 34  2  0  0  0  0
 34 31  1  0  0  0  0
 35 29  2  0  0  0  0
 37 36  1  0  0  0  0
M  END
>  <MODEL>
9

>  <REMARK>
 VINA RESULT:      -4.7      5.122      7.646
  Name = 
  2 active torsions:
  status: ('A' for Active; 'I' for Inactive)
    1  A    between atoms: N_4  and  C_37
    2  A    between atoms: C_23  and  C_30
                            x       y       z     vdW  Elec       q    Type
                         _______ _______ _______ _____ _____    ______ ____

>  <TORSDO>
F 2

$$$$
