=
 OpenBabel11122410493D

 32 37  0  0  1  0  0  0  0  0999 V2000
  179.4720  180.1910  142.8280 C   0  0  0  0  0  2  0  0  0  0  0  0
  184.5830  178.5130  142.4910 C   0  0  0  0  0  0  0  0  0  0  0  0
  186.5700  178.2300  137.9830 C   0  0  0  0  0  2  0  0  0  0  0  0
  187.7020  178.7930  138.5960 O   0  0  0  0  0  0  0  0  0  0  0  0
  186.1350  178.1120  144.4590 C   0  0  0  0  0  0  0  0  0  0  0  0
  187.4130  177.4530  144.8920 C   0  0  2  0  0  3  0  0  0  0  0  0
  182.1900  179.0200  142.9090 C   0  0  1  0  0  3  0  0  0  0  0  0
  183.0190  178.9300  140.5590 C   0  0  0  0  0  2  0  0  0  0  0  0
  189.8630  177.6440  144.4930 C   0  0  2  0  0  3  0  0  0  0  0  0
  180.5580  178.8740  140.9090 C   0  0  0  0  0  2  0  0  0  0  0  0
  185.3080  178.6600  138.7360 C   0  0  0  0  0  2  0  0  0  0  0  0
  184.3900  178.6160  141.0980 C   0  0  0  0  0  0  0  0  0  0  0  0
  185.4830  178.4820  140.2250 C   0  0  0  0  0  0  0  0  0  0  0  0
  186.9620  178.1180  142.1260 C   0  0  0  0  0  0  0  0  0  0  0  0
  189.5970  177.4770  146.2880 S   0  0  0  0  0  0  0  0  0  0  0  0
  179.6960  178.8680  143.5670 C   0  0  0  0  0  2  0  0  0  0  0  0
  181.9140  178.4600  141.4990 C   0  0  2  0  0  3  0  0  0  0  0  0
  187.8860  177.9470  146.1750 N   0  0  0  0  0  2  0  0  0  0  0  0
  181.1550  178.6270  143.9680 C   0  0  0  0  0  2  0  0  0  0  0  0
  180.0770  180.2400  141.4110 C   0  0  1  0  0  3  0  0  0  0  0  0
  187.9160  178.0650  139.7830 C   0  0  0  0  0  2  0  0  0  0  0  0
  186.7700  178.2530  140.7440 C   0  0  0  0  0  0  0  0  0  0  0  0
  188.2870  177.9240  142.6520 N   0  0  0  0  0  0  0  0  0  0  0  0
  183.4860  178.6280  143.3560 O   0  0  0  0  0  0  0  0  0  0  0  0
  185.2780  178.4550  145.3190 O   0  0  0  0  0  0  0  0  0  0  0  0
  190.5830  178.9530  144.2250 C   0  0  0  0  0  1  0  0  0  0  0  0
  185.8700  178.2570  143.0070 C   0  0  0  0  0  0  0  0  0  0  0  0
  188.5070  177.6750  143.9100 C   0  0  0  0  0  0  0  0  0  0  0  0
  179.0620  180.8090  140.4330 C   0  0  0  0  0  2  0  0  0  0  0  0
  179.7160  181.6850  139.4740 N   0  0  0  0  0  0  0  0  0  0  0  0
  178.9310  182.9040  139.4220 C   0  0  0  0  0  1  0  0  0  0  0  0
  179.5930  181.0560  138.1700 C   0  0  0  0  0  1  0  0  0  0  0  0
  1 16  1  0  0  0  0
  2 27  1  0  0  0  0
  2 24  1  0  0  0  0
  3  4  1  0  0  0  0
  3 11  1  0  0  0  0
  4 21  1  0  0  0  0
  5  6  1  0  0  0  0
  5 25  2  0  0  0  0
  6 28  1  6  0  0  0
  6 18  1  0  0  0  0
  7 24  1  0  0  0  0
  7 19  1  1  0  0  0
  8 12  1  0  0  0  0
  9 26  1  1  0  0  0
  9 15  1  0  0  0  0
 10 20  1  0  0  0  0
 10 17  1  0  0  0  0
 11 13  1  0  0  0  0
 12  2  2  0  0  0  0
 13 22  2  0  0  0  0
 13 12  1  0  0  0  0
 14 23  1  0  0  0  0
 14 27  2  0  0  0  0
 16 19  1  0  0  0  0
 17  8  1  6  0  0  0
 17  7  1  0  0  0  0
 18 15  1  0  0  0  0
 20 29  1  6  0  0  0
 20  1  1  0  0  0  0
 21 22  1  0  0  0  0
 22 14  1  0  0  0  0
 23 28  2  0  0  0  0
 27  5  1  0  0  0  0
 28  9  1  0  0  0  0
 30 29  1  0  0  0  0
 31 30  1  0  0  0  0
 32 30  1  0  0  0  0
M  END
>  <MODEL>
1

>  <REMARK>
 VINA RESULT:      -9.4      0.000      0.000
  Name = 
  2 active torsions:
  status: ('A' for Active; 'I' for Inactive)
    1  A    between atoms: C_20  and  C_29
    2  A    between atoms: C_29  and  N_30
                            x       y       z     vdW  Elec       q    Type
                         _______ _______ _______ _____ _____    ______ ____

>  <TORSDO>
F 2

$$$$
=
 OpenBabel11122410493D

 32 37  0  0  1  0  0  0  0  0999 V2000
  188.3010  176.8110  147.9760 C   0  0  0  0  0  2  0  0  0  0  0  0
  187.4000  178.0350  142.8050 C   0  0  0  0  0  0  0  0  0  0  0  0
  191.1770  177.5090  139.6730 C   0  0  0  0  0  2  0  0  0  0  0  0
  190.2090  176.9590  138.8150 O   0  0  0  0  0  0  0  0  0  0  0  0
  185.1410  178.6030  141.7970 C   0  0  0  0  0  0  0  0  0  0  0  0
  184.4510  179.2200  140.6150 C   0  0  2  0  0  3  0  0  0  0  0  0
  187.6080  177.7760  145.2640 C   0  0  1  0  0  3  0  0  0  0  0  0
  189.6270  177.4590  143.8350 C   0  0  0  0  0  2  0  0  0  0  0  0
  184.1260  178.7910  138.1840 C   0  0  2  0  0  3  0  0  0  0  0  0
  189.9850  177.7490  146.2790 C   0  0  0  0  0  2  0  0  0  0  0  0
  190.7590  177.2890  141.1290 C   0  0  0  0  0  2  0  0  0  0  0  0
  188.7690  177.7460  142.6310 C   0  0  0  0  0  0  0  0  0  0  0  0
  189.3130  177.6690  141.3370 C   0  0  0  0  0  0  0  0  0  0  0  0
  187.1320  178.1940  140.3860 C   0  0  0  0  0  0  0  0  0  0  0  0
  182.5100  179.2370  138.8970 S   0  0  0  0  0  0  0  0  0  0  0  0
  187.6930  178.2080  147.8100 C   0  0  0  0  0  2  0  0  0  0  0  0
  189.0950  178.1430  145.0910 C   0  0  2  0  0  3  0  0  0  0  0  0
  183.0380  178.8850  140.5580 N   0  0  0  0  0  2  0  0  0  0  0  0
  186.9340  178.3950  146.4930 C   0  0  0  0  0  2  0  0  0  0  0  0
  189.4770  176.5110  147.0250 C   0  0  1  0  0  3  0  0  0  0  0  0
  189.1070  177.8340  138.8440 C   0  0  0  0  0  2  0  0  0  0  0  0
  188.4870  177.8740  140.2170 C   0  0  0  0  0  0  0  0  0  0  0  0
  186.2860  178.3640  139.2360 N   0  0  0  0  0  0  0  0  0  0  0  0
  186.8680  178.1300  144.0980 O   0  0  0  0  0  0  0  0  0  0  0  0
  184.5190  178.4540  142.8840 O   0  0  0  0  0  0  0  0  0  0  0  0
  184.0240  177.4070  137.5690 C   0  0  0  0  0  1  0  0  0  0  0  0
  186.5810  178.2670  141.6810 C   0  0  0  0  0  0  0  0  0  0  0  0
  185.0560  178.7760  139.3320 C   0  0  0  0  0  0  0  0  0  0  0  0
  190.6240  175.8830  147.8010 C   0  0  0  0  0  2  0  0  0  0  0  0
  191.9000  176.2680  147.2200 N   0  0  0  0  0  0  0  0  0  0  0  0
  192.1500  175.3520  146.1230 C   0  0  0  0  0  1  0  0  0  0  0  0
  192.9200  176.0030  148.2200 C   0  0  0  0  0  1  0  0  0  0  0  0
  2 24  1  0  0  0  0
  3 11  1  0  0  0  0
  4 21  1  0  0  0  0
  4  3  1  0  0  0  0
  5 25  2  0  0  0  0
  6 28  1  6  0  0  0
  6  5  1  0  0  0  0
  7 19  1  1  0  0  0
  9 26  1  1  0  0  0
  9 15  1  0  0  0  0
  9 28  1  0  0  0  0
 10 20  1  0  0  0  0
 11 13  1  0  0  0  0
 12  2  1  0  0  0  0
 12  8  1  0  0  0  0
 13 12  2  0  0  0  0
 14 27  1  0  0  0  0
 15 18  1  0  0  0  0
 16  1  1  0  0  0  0
 17  8  1  6  0  0  0
 17  7  1  0  0  0  0
 17 10  1  0  0  0  0
 18  6  1  0  0  0  0
 19 16  1  0  0  0  0
 20 29  1  1  0  0  0
 20  1  1  0  0  0  0
 21 22  1  0  0  0  0
 22 14  2  0  0  0  0
 22 13  1  0  0  0  0
 23 28  2  0  0  0  0
 23 14  1  0  0  0  0
 24  7  1  0  0  0  0
 27  5  1  0  0  0  0
 27  2  2  0  0  0  0
 30 29  1  0  0  0  0
 30 32  1  0  0  0  0
 31 30  1  0  0  0  0
M  END
>  <MODEL>
2

>  <REMARK>
 VINA RESULT:      -9.1      3.706      8.374
  Name = 
  2 active torsions:
  status: ('A' for Active; 'I' for Inactive)
    1  A    between atoms: C_20  and  C_29
    2  A    between atoms: C_29  and  N_30
                            x       y       z     vdW  Elec       q    Type
                         _______ _______ _______ _____ _____    ______ ____

>  <TORSDO>
F 2

$$$$
=
 OpenBabel11122410493D

 32 37  0  0  1  0  0  0  0  0999 V2000
  188.6800  176.4790  136.8250 C   0  0  0  0  0  2  0  0  0  0  0  0
  188.1440  177.7090  142.0460 C   0  0  0  0  0  0  0  0  0  0  0  0
  183.7460  179.3880  143.5260 C   0  0  0  0  0  2  0  0  0  0  0  0
  183.9520  178.5470  144.6330 O   0  0  0  0  0  0  0  0  0  0  0  0
  189.8680  177.2520  143.8510 C   0  0  0  0  0  0  0  0  0  0  0  0
  190.2950  177.6000  145.2480 C   0  0  2  0  0  3  0  0  0  0  0  0
  188.7300  177.3010  139.6690 C   0  0  1  0  0  3  0  0  0  0  0  0
  186.4500  178.1410  140.2300 C   0  0  0  0  0  2  0  0  0  0  0  0
  189.4830  177.3460  147.5880 C   0  0  2  0  0  3  0  0  0  0  0  0
  187.1740  178.2860  137.8550 C   0  0  0  0  0  2  0  0  0  0  0  0
  184.4950  178.8330  142.3120 C   0  0  0  0  0  2  0  0  0  0  0  0
  186.8460  178.1220  141.6830 C   0  0  0  0  0  0  0  0  0  0  0  0
  185.9110  178.4580  142.6770 C   0  0  0  0  0  0  0  0  0  0  0  0
  187.5720  177.9960  144.3990 C   0  0  0  0  0  0  0  0  0  0  0  0
  191.2470  176.8920  147.5540 S   0  0  0  0  0  0  0  0  0  0  0  0
  189.7780  177.4310  137.3110 C   0  0  0  0  0  2  0  0  0  0  0  0
  187.6520  178.3450  139.3130 C   0  0  2  0  0  3  0  0  0  0  0  0
  191.2470  176.6450  145.7930 N   0  0  0  0  0  2  0  0  0  0  0  0
  190.0060  177.3850  138.8240 C   0  0  0  0  0  2  0  0  0  0  0  0
  187.2530  176.8790  137.2530 C   0  0  1  0  0  3  0  0  0  0  0  0
  185.2660  178.7880  145.0780 C   0  0  0  0  0  2  0  0  0  0  0  0
  186.2730  178.3750  144.0350 C   0  0  0  0  0  0  0  0  0  0  0  0
  187.9210  177.8740  145.7890 N   0  0  0  0  0  0  0  0  0  0  0  0
  189.0780  177.3940  141.0490 O   0  0  0  0  0  0  0  0  0  0  0  0
  190.6830  176.7050  143.0600 O   0  0  0  0  0  0  0  0  0  0  0  0
  188.6810  176.1580  148.0880 C   0  0  0  0  0  1  0  0  0  0  0  0
  188.5110  177.6520  143.4060 C   0  0  0  0  0  0  0  0  0  0  0  0
  189.1400  177.6430  146.1830 C   0  0  0  0  0  0  0  0  0  0  0  0
  186.3100  176.7850  136.0650 C   0  0  0  0  0  2  0  0  0  0  0  0
  184.9300  176.9320  136.5000 N   0  0  0  0  0  0  0  0  0  0  0  0
  184.5680  175.6920  137.1620 C   0  0  0  0  0  1  0  0  0  0  0  0
  184.1130  177.0150  135.3010 C   0  0  0  0  0  1  0  0  0  0  0  0
  1 20  1  0  0  0  0
  1 16  1  0  0  0  0
  2 27  1  0  0  0  0
  3  4  1  0  0  0  0
  4 21  1  0  0  0  0
  6  5  1  6  0  0  0
  6 18  1  0  0  0  0
  6 28  1  0  0  0  0
  7 19  1  6  0  0  0
  7 24  1  0  0  0  0
  8 12  1  0  0  0  0
  9 26  1  6  0  0  0
 11 13  1  0  0  0  0
 11  3  1  0  0  0  0
 12  2  2  0  0  0  0
 12 13  1  0  0  0  0
 13 22  2  0  0  0  0
 14 23  1  0  0  0  0
 15  9  1  0  0  0  0
 16 19  1  0  0  0  0
 17 10  1  6  0  0  0
 17  7  1  0  0  0  0
 17  8  1  0  0  0  0
 18 15  1  0  0  0  0
 20 29  1  6  0  0  0
 20 10  1  0  0  0  0
 22 14  1  0  0  0  0
 22 21  1  0  0  0  0
 23 28  2  0  0  0  0
 24  2  1  0  0  0  0
 25  5  2  0  0  0  0
 27  5  1  0  0  0  0
 27 14  2  0  0  0  0
 28  9  1  0  0  0  0
 29 30  1  0  0  0  0
 30 31  1  0  0  0  0
 32 30  1  0  0  0  0
M  END
>  <MODEL>
3

>  <REMARK>
 VINA RESULT:      -8.6      3.192      6.282
  Name = 
  2 active torsions:
  status: ('A' for Active; 'I' for Inactive)
    1  A    between atoms: C_20  and  C_29
    2  A    between atoms: C_29  and  N_30
                            x       y       z     vdW  Elec       q    Type
                         _______ _______ _______ _____ _____    ______ ____

>  <TORSDO>
F 2

$$$$
=
 OpenBabel11122410493D

 32 37  0  0  1  0  0  0  0  0999 V2000
  191.0400  175.7370  136.7420 C   0  0  0  0  0  2  0  0  0  0  0  0
  189.4730  177.3780  141.6310 C   0  0  0  0  0  0  0  0  0  0  0  0
  184.9430  179.2960  142.0220 C   0  0  0  0  0  2  0  0  0  0  0  0
  184.8730  178.5360  143.2010 O   0  0  0  0  0  0  0  0  0  0  0  0
  190.7550  177.0070  143.7900 C   0  0  0  0  0  0  0  0  0  0  0  0
  190.8940  177.4480  145.2190 C   0  0  2  0  0  3  0  0  0  0  0  0
  190.5280  176.7720  139.4680 C   0  0  1  0  0  3  0  0  0  0  0  0
  188.2210  177.7210  139.4710 C   0  0  0  0  0  2  0  0  0  0  0  0
  189.5960  177.3980  147.3440 C   0  0  2  0  0  3  0  0  0  0  0  0
  189.4350  177.6630  137.3010 C   0  0  0  0  0  2  0  0  0  0  0  0
  185.9050  178.6280  141.0360 C   0  0  0  0  0  2  0  0  0  0  0  0
  188.3010  177.8010  140.9730 C   0  0  0  0  0  0  0  0  0  0  0  0
  187.1940  178.2400  141.7200 C   0  0  0  0  0  0  0  0  0  0  0  0
  188.4310  177.8600  143.7840 C   0  0  0  0  0  0  0  0  0  0  0  0
  191.3050  176.8900  147.7170 S   0  0  0  0  0  0  0  0  0  0  0  0
  192.0530  176.6910  137.3850 C   0  0  0  0  0  2  0  0  0  0  0  0
  189.5970  177.8170  138.8200 C   0  0  2  0  0  3  0  0  0  0  0  0
  191.6650  176.5090  146.0180 N   0  0  0  0  0  2  0  0  0  0  0  0
  191.9550  176.7530  138.9120 C   0  0  0  0  0  2  0  0  0  0  0  0
  189.5750  176.2120  136.8270 C   0  0  1  0  0  3  0  0  0  0  0  0
  186.0730  178.7700  143.8990 C   0  0  0  0  0  2  0  0  0  0  0  0
  187.2570  178.2490  143.1250 C   0  0  0  0  0  0  0  0  0  0  0  0
  188.4750  177.8340  145.2210 N   0  0  0  0  0  0  0  0  0  0  0  0
  190.5810  176.9590  140.8810 O   0  0  0  0  0  0  0  0  0  0  0  0
  191.6930  176.3780  143.2300 O   0  0  0  0  0  0  0  0  0  0  0  0
  188.6540  176.2760  147.7400 C   0  0  0  0  0  1  0  0  0  0  0  0
  189.5420  177.4130  143.0390 C   0  0  0  0  0  0  0  0  0  0  0  0
  189.5710  177.5970  145.8800 C   0  0  0  0  0  0  0  0  0  0  0  0
  188.9000  176.0560  135.4750 C   0  0  0  0  0  2  0  0  0  0  0  0
  187.4560  175.9830  135.6330 N   0  0  0  0  0  0  0  0  0  0  0  0
  187.0570  174.6560  135.2020 C   0  0  0  0  0  1  0  0  0  0  0  0
  186.8760  176.9180  134.6850 C   0  0  0  0  0  1  0  0  0  0  0  0
  1 20  1  0  0  0  0
  1 16  1  0  0  0  0
  2 27  1  0  0  0  0
  3  4  1  0  0  0  0
  4 21  1  0  0  0  0
  6  5  1  6  0  0  0
  6 28  1  0  0  0  0
  6 18  1  0  0  0  0
  7 19  1  6  0  0  0
  7 24  1  0  0  0  0
  8 12  1  0  0  0  0
  9 15  1  0  0  0  0
  9 26  1  6  0  0  0
 11 13  1  0  0  0  0
 11  3  1  0  0  0  0
 12  2  2  0  0  0  0
 12 13  1  0  0  0  0
 13 22  2  0  0  0  0
 14 23  1  0  0  0  0
 16 19  1  0  0  0  0
 17 10  1  6  0  0  0
 17  7  1  0  0  0  0
 17  8  1  0  0  0  0
 18 15  1  0  0  0  0
 20 29  1  6  0  0  0
 20 10  1  0  0  0  0
 22 14  1  0  0  0  0
 22 21  1  0  0  0  0
 23 28  2  0  0  0  0
 24  2  1  0  0  0  0
 25  5  2  0  0  0  0
 27 14  2  0  0  0  0
 27  5  1  0  0  0  0
 28  9  1  0  0  0  0
 29 30  1  0  0  0  0
 31 30  1  0  0  0  0
 32 30  1  0  0  0  0
M  END
>  <MODEL>
4

>  <REMARK>
 VINA RESULT:      -8.5      3.796      7.454
  Name = 
  2 active torsions:
  status: ('A' for Active; 'I' for Inactive)
    1  A    between atoms: C_20  and  C_29
    2  A    between atoms: C_29  and  N_30
                            x       y       z     vdW  Elec       q    Type
                         _______ _______ _______ _____ _____    ______ ____

>  <TORSDO>
F 2

$$$$
=
 OpenBabel11122410493D

 32 37  0  0  1  0  0  0  0  0999 V2000
  181.6160  178.3780  140.3900 C   0  0  0  0  0  2  0  0  0  0  0  0
  186.3700  178.1700  142.9220 C   0  0  0  0  0  0  0  0  0  0  0  0
  186.3130  178.4410  147.8490 C   0  0  0  0  0  2  0  0  0  0  0  0
  187.2810  177.4250  147.7790 O   0  0  0  0  0  0  0  0  0  0  0  0
  188.6040  177.6810  141.8230 C   0  0  0  0  0  0  0  0  0  0  0  0
  190.0940  177.7680  141.9920 C   0  0  2  0  0  3  0  0  0  0  0  0
  184.3560  178.4840  141.5050 C   0  0  1  0  0  3  0  0  0  0  0  0
  184.1330  178.6450  143.9840 C   0  0  0  0  0  2  0  0  0  0  0  0
  191.8920  176.7880  143.4080 C   0  0  2  0  0  3  0  0  0  0  0  0
  182.2540  179.5110  142.6040 C   0  0  0  0  0  2  0  0  0  0  0  0
  185.4030  178.3720  146.6200 C   0  0  0  0  0  2  0  0  0  0  0  0
  185.6090  178.3650  144.0930 C   0  0  0  0  0  0  0  0  0  0  0  0
  186.2160  178.2390  145.3550 C   0  0  0  0  0  0  0  0  0  0  0  0
  188.3490  177.7510  144.2840 C   0  0  0  0  0  0  0  0  0  0  0  0
  192.4580  176.7530  141.6770 S   0  0  0  0  0  0  0  0  0  0  0  0
  182.6120  179.4020  139.8360 C   0  0  0  0  0  2  0  0  0  0  0  0
  183.7770  179.3200  142.6640 C   0  0  2  0  0  3  0  0  0  0  0  0
  190.8110  176.9420  141.0340 N   0  0  0  0  0  2  0  0  0  0  0  0
  184.0760  179.0450  140.1070 C   0  0  0  0  0  2  0  0  0  0  0  0
  181.5290  178.3420  141.9290 C   0  0  1  0  0  3  0  0  0  0  0  0
  188.2180  177.8330  146.8100 C   0  0  0  0  0  2  0  0  0  0  0  0
  187.5820  177.9130  145.4450 C   0  0  0  0  0  0  0  0  0  0  0  0
  189.7350  177.3790  144.3840 N   0  0  0  0  0  0  0  0  0  0  0  0
  185.7630  178.3160  141.6660 O   0  0  0  0  0  0  0  0  0  0  0  0
  188.1070  177.5320  140.6730 O   0  0  0  0  0  0  0  0  0  0  0  0
  191.8740  175.3690  143.9470 C   0  0  0  0  0  1  0  0  0  0  0  0
  187.7440  177.8700  143.0160 C   0  0  0  0  0  0  0  0  0  0  0  0
  190.5200  177.3310  143.3480 C   0  0  0  0  0  0  0  0  0  0  0  0
  180.0730  178.3320  142.3660 C   0  0  0  0  0  2  0  0  0  0  0  0
  179.7800  179.4980  143.1850 N   0  0  0  0  0  0  0  0  0  0  0  0
  178.9440  179.0380  144.2780 C   0  0  0  0  0  1  0  0  0  0  0  0
  178.9590  180.3870  142.3810 C   0  0  0  0  0  1  0  0  0  0  0  0
  1 20  1  0  0  0  0
  2 27  2  0  0  0  0
  2 12  1  0  0  0  0
  4  3  1  0  0  0  0
  5  6  1  0  0  0  0
  5 27  1  0  0  0  0
  6 18  1  6  0  0  0
  6 28  1  0  0  0  0
  7 19  1  6  0  0  0
  7 24  1  0  0  0  0
  7 17  1  0  0  0  0
  8 12  1  0  0  0  0
  9 26  1  6  0  0  0
 11  3  1  0  0  0  0
 12 13  2  0  0  0  0
 13 22  1  0  0  0  0
 13 11  1  0  0  0  0
 14 23  1  0  0  0  0
 14 22  2  0  0  0  0
 15  9  1  0  0  0  0
 16 19  1  0  0  0  0
 16  1  1  0  0  0  0
 17 10  1  6  0  0  0
 17  8  1  0  0  0  0
 18 15  1  0  0  0  0
 20 29  1  6  0  0  0
 20 10  1  0  0  0  0
 21  4  1  0  0  0  0
 22 21  1  0  0  0  0
 24  2  1  0  0  0  0
 25  5  2  0  0  0  0
 27 14  1  0  0  0  0
 28  9  1  0  0  0  0
 28 23  2  0  0  0  0
 29 30  1  0  0  0  0
 30 31  1  0  0  0  0
 32 30  1  0  0  0  0
M  END
>  <MODEL>
5

>  <REMARK>
 VINA RESULT:      -8.2      2.281      4.737
  Name = 
  2 active torsions:
  status: ('A' for Active; 'I' for Inactive)
    1  A    between atoms: C_20  and  C_29
    2  A    between atoms: C_29  and  N_30
                            x       y       z     vdW  Elec       q    Type
                         _______ _______ _______ _____ _____    ______ ____

>  <TORSDO>
F 2

$$$$
=
 OpenBabel11122410493D

 32 37  0  0  1  0  0  0  0  0999 V2000
  189.7390  176.7740  147.1680 C   0  0  0  0  0  2  0  0  0  0  0  0
  186.1260  178.2480  143.4500 C   0  0  0  0  0  0  0  0  0  0  0  0
  187.6950  178.5590  138.7810 C   0  0  0  0  0  2  0  0  0  0  0  0
  186.4730  177.9360  138.4740 O   0  0  0  0  0  0  0  0  0  0  0  0
  183.6360  178.5370  143.8480 C   0  0  0  0  0  0  0  0  0  0  0  0
  182.3720  179.1320  143.2970 C   0  0  2  0  0  3  0  0  0  0  0  0
  187.6290  177.8300  145.3790 C   0  0  1  0  0  3  0  0  0  0  0  0
  188.6010  177.9430  143.0860 C   0  0  0  0  0  2  0  0  0  0  0  0
  180.8460  178.8500  141.3500 C   0  0  2  0  0  3  0  0  0  0  0  0
  190.1740  178.0910  145.0060 C   0  0  0  0  0  2  0  0  0  0  0  0
  188.1350  178.1630  140.1930 C   0  0  0  0  0  2  0  0  0  0  0  0
  187.2130  178.1880  142.5550 C   0  0  0  0  0  0  0  0  0  0  0  0
  186.9920  178.2980  141.1710 C   0  0  0  0  0  0  0  0  0  0  0  0
  184.6020  178.5540  141.5690 C   0  0  0  0  0  0  0  0  0  0  0  0
  179.8230  178.9850  142.8510 S   0  0  0  0  0  0  0  0  0  0  0  0
  189.0130  178.0690  147.5480 C   0  0  0  0  0  2  0  0  0  0  0  0
  188.7580  178.4350  144.5210 C   0  0  2  0  0  3  0  0  0  0  0  0
  181.1810  178.5880  143.9280 N   0  0  0  0  0  2  0  0  0  0  0  0
  187.6570  178.2390  146.8560 C   0  0  0  0  0  2  0  0  0  0  0  0
  190.2530  176.7340  145.7140 C   0  0  1  0  0  3  0  0  0  0  0  0
  185.4810  178.6250  139.1970 C   0  0  0  0  0  2  0  0  0  0  0  0
  185.6830  178.4610  140.6820 C   0  0  0  0  0  0  0  0  0  0  0  0
  183.2640  178.6810  141.0600 N   0  0  0  0  0  0  0  0  0  0  0  0
  186.3550  178.1570  144.8300 O   0  0  0  0  0  0  0  0  0  0  0  0
  183.7020  178.2090  145.0640 O   0  0  0  0  0  0  0  0  0  0  0  0
  180.5590  177.5200  140.6780 C   0  0  0  0  0  1  0  0  0  0  0  0
  184.8180  178.4380  142.9580 C   0  0  0  0  0  0  0  0  0  0  0  0
  182.2410  178.8900  141.8370 C   0  0  0  0  0  0  0  0  0  0  0  0
  191.6870  176.2320  145.6850 C   0  0  0  0  0  2  0  0  0  0  0  0
  191.9620  175.5550  144.4270 N   0  0  0  0  0  0  0  0  0  0  0  0
  190.6880  175.4030  143.7500 C   0  0  0  0  0  1  0  0  0  0  0  0
  192.4180  174.2160  144.7560 C   0  0  0  0  0  1  0  0  0  0  0  0
  1 16  1  0  0  0  0
  2 24  1  0  0  0  0
  3 11  1  0  0  0  0
  4  3  1  0  0  0  0
  4 21  1  0  0  0  0
  5 25  2  0  0  0  0
  6 28  1  6  0  0  0
  6  5  1  0  0  0  0
  6 18  1  0  0  0  0
  7 19  1  1  0  0  0
  9 26  1  1  0  0  0
  9 28  1  0  0  0  0
  9 15  1  0  0  0  0
 10 20  1  0  0  0  0
 11 13  1  0  0  0  0
 12  8  1  0  0  0  0
 12  2  2  0  0  0  0
 13 12  1  0  0  0  0
 14 27  2  0  0  0  0
 15 18  1  0  0  0  0
 17  8  1  6  0  0  0
 17 10  1  0  0  0  0
 17  7  1  0  0  0  0
 19 16  1  0  0  0  0
 20 29  1  1  0  0  0
 20  1  1  0  0  0  0
 21 22  1  0  0  0  0
 22 13  2  0  0  0  0
 22 14  1  0  0  0  0
 23 14  1  0  0  0  0
 23 28  2  0  0  0  0
 24  7  1  0  0  0  0
 27  2  1  0  0  0  0
 27  5  1  0  0  0  0
 30 32  1  0  0  0  0
 30 29  1  0  0  0  0
 31 30  1  0  0  0  0
M  END
>  <MODEL>
6

>  <REMARK>
 VINA RESULT:      -8.1      2.877      8.086
  Name = 
  2 active torsions:
  status: ('A' for Active; 'I' for Inactive)
    1  A    between atoms: C_20  and  C_29
    2  A    between atoms: C_29  and  N_30
                            x       y       z     vdW  Elec       q    Type
                         _______ _______ _______ _____ _____    ______ ____

>  <TORSDO>
F 2

$$$$
=
 OpenBabel11122410493D

 32 37  0  0  1  0  0  0  0  0999 V2000
  180.5680  180.1960  139.8190 C   0  0  0  0  0  2  0  0  0  0  0  0
  185.5330  178.4600  140.9940 C   0  0  0  0  0  0  0  0  0  0  0  0
  188.7100  178.0090  137.2450 C   0  0  0  0  0  2  0  0  0  0  0  0
  189.6320  178.5810  138.1380 O   0  0  0  0  0  0  0  0  0  0  0  0
  186.4560  178.1080  143.3320 C   0  0  0  0  0  0  0  0  0  0  0  0
  187.5470  177.4520  144.1290 C   0  0  2  0  0  3  0  0  0  0  0  0
  183.1290  179.0020  140.7010 C   0  0  1  0  0  3  0  0  0  0  0  0
  184.5890  178.8270  138.6860 C   0  0  0  0  0  2  0  0  0  0  0  0
  190.0130  177.6070  144.4370 C   0  0  2  0  0  3  0  0  0  0  0  0
  182.1290  178.8070  138.3260 C   0  0  0  0  0  2  0  0  0  0  0  0
  187.2950  178.4760  137.5970 C   0  0  0  0  0  2  0  0  0  0  0  0
  185.7440  178.5180  139.6020 C   0  0  0  0  0  0  0  0  0  0  0  0
  187.0370  178.3450  139.0790 C   0  0  0  0  0  0  0  0  0  0  0  0
  187.9110  178.0300  141.3310 C   0  0  0  0  0  0  0  0  0  0  0  0
  189.2460  177.5010  146.0860 S   0  0  0  0  0  0  0  0  0  0  0  0
  180.5490  178.8950  140.6290 C   0  0  0  0  0  2  0  0  0  0  0  0
  183.2540  178.3990  139.2880 C   0  0  2  0  0  3  0  0  0  0  0  0
  187.6460  177.9830  145.4790 N   0  0  0  0  0  2  0  0  0  0  0  0
  181.8300  178.6550  141.4340 C   0  0  0  0  0  2  0  0  0  0  0  0
  181.5510  180.1930  138.6310 C   0  0  1  0  0  3  0  0  0  0  0  0
  189.4880  177.8910  139.3570 C   0  0  0  0  0  2  0  0  0  0  0  0
  188.1200  178.1210  139.9480 C   0  0  0  0  0  0  0  0  0  0  0  0
  189.0280  177.8400  142.2160 N   0  0  0  0  0  0  0  0  0  0  0  0
  184.2380  178.6130  141.5090 O   0  0  0  0  0  0  0  0  0  0  0  0
  185.3980  178.4870  143.9040 O   0  0  0  0  0  0  0  0  0  0  0  0
  190.8040  178.8990  144.3460 C   0  0  0  0  0  1  0  0  0  0  0  0
  186.6160  178.2080  141.8610 C   0  0  0  0  0  0  0  0  0  0  0  0
  188.8780  177.6310  143.4920 C   0  0  0  0  0  0  0  0  0  0  0  0
  180.8650  180.7390  137.3890 C   0  0  0  0  0  2  0  0  0  0  0  0
  180.4570  179.6500  136.5150 N   0  0  0  0  0  0  0  0  0  0  0  0
  180.8000  180.0520  135.1640 C   0  0  0  0  0  1  0  0  0  0  0  0
  179.0070  179.5810  136.5710 C   0  0  0  0  0  1  0  0  0  0  0  0
  1 16  1  0  0  0  0
  2 24  1  0  0  0  0
  2 27  1  0  0  0  0
  3 11  1  0  0  0  0
  3  4  1  0  0  0  0
  4 21  1  0  0  0  0
  5 25  2  0  0  0  0
  6  5  1  6  0  0  0
  6 18  1  0  0  0  0
  7 19  1  1  0  0  0
  7 24  1  0  0  0  0
  8 17  1  0  0  0  0
  8 12  1  0  0  0  0
  9 26  1  1  0  0  0
  9 15  1  0  0  0  0
 10 20  1  0  0  0  0
 11 13  1  0  0  0  0
 12  2  2  0  0  0  0
 13 12  1  0  0  0  0
 13 22  2  0  0  0  0
 14 27  2  0  0  0  0
 14 23  1  0  0  0  0
 16 19  1  0  0  0  0
 17 10  1  6  0  0  0
 17  7  1  0  0  0  0
 18 15  1  0  0  0  0
 20 29  1  6  0  0  0
 20  1  1  0  0  0  0
 21 22  1  0  0  0  0
 22 14  1  0  0  0  0
 23 28  2  0  0  0  0
 27  5  1  0  0  0  0
 28  6  1  0  0  0  0
 28  9  1  0  0  0  0
 30 32  1  0  0  0  0
 30 29  1  0  0  0  0
 31 30  1  0  0  0  0
M  END
>  <MODEL>
7

>  <REMARK>
 VINA RESULT:      -8.0      1.581      2.295
  Name = 
  2 active torsions:
  status: ('A' for Active; 'I' for Inactive)
    1  A    between atoms: C_20  and  C_29
    2  A    between atoms: C_29  and  N_30
                            x       y       z     vdW  Elec       q    Type
                         _______ _______ _______ _____ _____    ______ ____

>  <TORSDO>
F 2

$$$$
=
 OpenBabel11122410493D

 32 37  0  0  1  0  0  0  0  0999 V2000
  191.3210  177.7660  140.7590 C   0  0  0  0  0  2  0  0  0  0  0  0
  185.9870  178.1880  141.4030 C   0  0  0  0  0  0  0  0  0  0  0  0
  184.2740  178.2530  146.0310 C   0  0  0  0  0  2  0  0  0  0  0  0
  183.4280  179.2710  145.5570 O   0  0  0  0  0  0  0  0  0  0  0  0
  184.3090  178.6220  139.5500 C   0  0  0  0  0  0  0  0  0  0  0  0
  182.8550  178.5610  139.1790 C   0  0  2  0  0  3  0  0  0  0  0  0
  188.3620  177.7610  140.8230 C   0  0  1  0  0  3  0  0  0  0  0  0
  187.6800  177.7670  143.2220 C   0  0  0  0  0  2  0  0  0  0  0  0
  180.7030  179.6510  139.7960 C   0  0  2  0  0  3  0  0  0  0  0  0
  189.8980  176.7920  142.6620 C   0  0  0  0  0  2  0  0  0  0  0  0
  185.5640  178.2300  145.2070 C   0  0  0  0  0  2  0  0  0  0  0  0
  186.2730  178.0670  142.7780 C   0  0  0  0  0  0  0  0  0  0  0  0
  185.2600  178.2840  143.7290 C   0  0  0  0  0  0  0  0  0  0  0  0
  183.6660  178.7170  141.9380 C   0  0  0  0  0  0  0  0  0  0  0  0
  180.7930  179.5730  137.9780 S   0  0  0  0  0  0  0  0  0  0  0  0
  190.5560  176.7150  139.9470 C   0  0  0  0  0  2  0  0  0  0  0  0
  188.4620  177.0000  142.1600 C   0  0  2  0  0  3  0  0  0  0  0  0
  182.5530  179.3250  137.9800 N   0  0  0  0  0  2  0  0  0  0  0  0
  189.1030  177.1040  139.6550 C   0  0  0  0  0  2  0  0  0  0  0  0
  190.8550  177.9050  142.2220 C   0  0  1  0  0  3  0  0  0  0  0  0
  182.8860  178.8060  144.3430 C   0  0  0  0  0  2  0  0  0  0  0  0
  183.9640  178.6280  143.3050 C   0  0  0  0  0  0  0  0  0  0  0  0
  182.3490  179.1080  141.5130 N   0  0  0  0  0  0  0  0  0  0  0  0
  186.9960  177.9520  140.4590 O   0  0  0  0  0  0  0  0  0  0  0  0
  185.1870  178.6880  138.6470 O   0  0  0  0  0  0  0  0  0  0  0  0
  180.5730  181.1030  140.2190 C   0  0  0  0  0  1  0  0  0  0  0  0
  184.6800  178.5070  140.9810 C   0  0  0  0  0  0  0  0  0  0  0  0
  181.9880  179.0920  140.2630 C   0  0  0  0  0  0  0  0  0  0  0  0
  192.0590  177.9320  143.1490 C   0  0  0  0  0  2  0  0  0  0  0  0
  191.7590  178.6990  144.3480 N   0  0  0  0  0  0  0  0  0  0  0  0
  191.0650  177.8020  145.2530 C   0  0  0  0  0  1  0  0  0  0  0  0
  190.8030  179.7250  143.9690 C   0  0  0  0  0  1  0  0  0  0  0  0
  1 20  1  0  0  0  0
  2 12  1  0  0  0  0
  4  3  1  0  0  0  0
  5 27  1  0  0  0  0
  6 18  1  6  0  0  0
  6  5  1  0  0  0  0
  6 28  1  0  0  0  0
  7 19  1  6  0  0  0
  7 17  1  0  0  0  0
  9 26  1  6  0  0  0
  9 28  1  0  0  0  0
 11  3  1  0  0  0  0
 12  8  1  0  0  0  0
 12 13  2  0  0  0  0
 13 11  1  0  0  0  0
 14 22  2  0  0  0  0
 15 18  1  0  0  0  0
 15  9  1  0  0  0  0
 16  1  1  0  0  0  0
 17 10  1  1  0  0  0
 17  8  1  0  0  0  0
 19 16  1  0  0  0  0
 20 10  1  0  0  0  0
 20 29  1  1  0  0  0
 21  4  1  0  0  0  0
 22 13  1  0  0  0  0
 22 21  1  0  0  0  0
 23 14  1  0  0  0  0
 24  7  1  0  0  0  0
 24  2  1  0  0  0  0
 25  5  2  0  0  0  0
 27  2  2  0  0  0  0
 27 14  1  0  0  0  0
 28 23  2  0  0  0  0
 29 30  1  0  0  0  0
 30 31  1  0  0  0  0
 32 30  1  0  0  0  0
M  END
>  <MODEL>
8

>  <REMARK>
 VINA RESULT:      -7.6      2.986      8.732
  Name = 
  2 active torsions:
  status: ('A' for Active; 'I' for Inactive)
    1  A    between atoms: C_20  and  C_29
    2  A    between atoms: C_29  and  N_30
                            x       y       z     vdW  Elec       q    Type
                         _______ _______ _______ _____ _____    ______ ____

>  <TORSDO>
F 2

$$$$
=
 OpenBabel11122410493D

 32 37  0  0  1  0  0  0  0  0999 V2000
  182.3320  178.7630  140.8580 C   0  0  0  0  0  2  0  0  0  0  0  0
  187.6040  177.9420  140.0900 C   0  0  0  0  0  0  0  0  0  0  0  0
  190.4660  177.7610  144.1060 C   0  0  0  0  0  2  0  0  0  0  0  0
  191.0810  176.6810  143.4500 O   0  0  0  0  0  0  0  0  0  0  0  0
  188.6990  177.3780  137.8710 C   0  0  0  0  0  0  0  0  0  0  0  0
  190.0050  177.3300  137.1310 C   0  0  2  0  0  3  0  0  0  0  0  0
  185.1970  178.5450  140.1440 C   0  0  1  0  0  3  0  0  0  0  0  0
  186.4840  178.4940  142.2790 C   0  0  0  0  0  2  0  0  0  0  0  0
  192.1590  176.0820  137.1860 C   0  0  2  0  0  3  0  0  0  0  0  0
  184.2730  179.6320  142.2990 C   0  0  0  0  0  2  0  0  0  0  0  0
  189.0090  177.8780  143.6490 C   0  0  0  0  0  2  0  0  0  0  0  0
  187.7000  178.0880  141.4890 C   0  0  0  0  0  0  0  0  0  0  0  0
  188.9090  177.7980  142.1450 C   0  0  0  0  0  0  0  0  0  0  0  0
  189.9390  177.2410  140.0090 C   0  0  0  0  0  0  0  0  0  0  0  0
  191.6000  176.1620  135.4540 S   0  0  0  0  0  0  0  0  0  0  0  0
  182.9310  179.7510  139.8510 C   0  0  0  0  0  2  0  0  0  0  0  0
  185.5070  179.3150  141.4430 C   0  0  2  0  0  3  0  0  0  0  0  0
  189.9240  176.5410  135.9120 N   0  0  0  0  0  2  0  0  0  0  0  0
  184.2230  179.2530  139.1960 C   0  0  0  0  0  2  0  0  0  0  0  0
  183.1560  178.5920  142.1500 C   0  0  1  0  0  3  0  0  0  0  0  0
  191.3170  177.1000  142.1270 C   0  0  0  0  0  2  0  0  0  0  0  0
  190.0190  177.3570  141.4030 C   0  0  0  0  0  0  0  0  0  0  0  0
  191.0660  176.7520  139.2620 N   0  0  0  0  0  0  0  0  0  0  0  0
  186.4010  178.2510  139.4390 O   0  0  0  0  0  0  0  0  0  0  0  0
  187.6120  177.3770  137.2330 O   0  0  0  0  0  0  0  0  0  0  0  0
  192.2910  174.6260  137.5920 C   0  0  0  0  0  1  0  0  0  0  0  0
  188.7270  177.5250  139.3470 C   0  0  0  0  0  0  0  0  0  0  0  0
  191.0860  176.7370  137.9610 C   0  0  0  0  0  0  0  0  0  0  0  0
  182.2410  178.6580  143.3610 C   0  0  0  0  0  2  0  0  0  0  0  0
  180.8500  178.7360  142.9430 N   0  0  0  0  0  0  0  0  0  0  0  0
  180.4230  180.1040  143.1730 C   0  0  0  0  0  1  0  0  0  0  0  0
  180.0840  177.9040  143.8550 C   0  0  0  0  0  1  0  0  0  0  0  0
  1 20  1  0  0  0  0
  2 12  1  0  0  0  0
  4  3  1  0  0  0  0
  5 27  1  0  0  0  0
  6 18  1  6  0  0  0
  6  5  1  0  0  0  0
  6 28  1  0  0  0  0
  7 19  1  6  0  0  0
  7 17  1  0  0  0  0
  9 26  1  1  0  0  0
  9 28  1  0  0  0  0
 11  3  1  0  0  0  0
 12 13  2  0  0  0  0
 12  8  1  0  0  0  0
 13 11  1  0  0  0  0
 14 22  2  0  0  0  0
 15 18  1  0  0  0  0
 15  9  1  0  0  0  0
 16  1  1  0  0  0  0
 17  8  1  1  0  0  0
 17 10  1  0  0  0  0
 19 16  1  0  0  0  0
 20 10  1  0  0  0  0
 20 29  1  1  0  0  0
 21  4  1  0  0  0  0
 22 21  1  0  0  0  0
 22 13  1  0  0  0  0
 23 14  1  0  0  0  0
 24  2  1  0  0  0  0
 24  7  1  0  0  0  0
 25  5  2  0  0  0  0
 27 14  1  0  0  0  0
 27  2  2  0  0  0  0
 28 23  2  0  0  0  0
 30 31  1  0  0  0  0
 30 29  1  0  0  0  0
 30 32  1  0  0  0  0
M  END
>  <MODEL>
9

>  <REMARK>
 VINA RESULT:      -7.3      3.519      5.958
  Name = 
  2 active torsions:
  status: ('A' for Active; 'I' for Inactive)
    1  A    between atoms: C_20  and  C_29
    2  A    between atoms: C_29  and  N_30
                            x       y       z     vdW  Elec       q    Type
                         _______ _______ _______ _____ _____    ______ ____

>  <TORSDO>
F 2

$$$$
