=
 OpenBabel11122410283D

 30 35  0  0  1  0  0  0  0  0999 V2000
  189.0650  177.4320  143.5110 C   0  0  0  0  0  0  0  0  0  0  0  0
  191.0580  176.4050  144.6680 C   0  0  0  0  0  0  0  0  0  0  0  0
  187.1810  178.1280  147.1950 N   0  0  0  0  0  2  0  0  0  0  0  0
  187.7740  178.0260  143.6150 C   0  0  0  0  0  0  0  0  0  0  0  0
  189.6120  177.2750  142.2760 N   0  0  0  0  0  0  0  0  0  0  0  0
  187.0690  178.6030  140.0200 O   0  0  0  0  0  1  0  0  0  0  0  0
  184.7030  178.1190  143.2270 C   0  0  1  0  0  3  0  0  0  0  0  0
  187.7140  178.2260  141.1940 C   0  0  0  0  0  0  0  0  0  0  0  0
  184.7740  178.1480  144.7070 N   0  0  2  0  0  0  0  0  0  0  0  0
  185.9370  178.7840  146.8120 C   0  0  1  0  0  3  0  0  0  0  0  0
  188.9840  177.6540  141.1310 C   0  0  0  0  0  0  0  0  0  0  0  0
  187.0930  178.4110  142.4370 C   0  0  0  0  0  0  0  0  0  0  0  0
  191.6750  176.0370  145.8680 C   0  0  0  0  0  3  0  0  0  0  0  0
  183.5510  178.8210  145.1370 C   0  0  0  0  0  2  0  0  0  0  0  0
  183.2880  178.4690  142.8040 C   0  0  0  0  0  2  0  0  0  0  0  0
  191.9840  176.0560  143.2110 Cl  0  0  0  0  0  0  0  0  0  0  0  0
  187.8900  177.8150  146.0130 C   0  0  0  0  0  0  0  0  0  0  0  0
  191.0520  176.2540  147.0930 C   0  0  0  0  0  3  0  0  0  0  0  0
  189.7670  177.0150  144.6870 C   0  0  0  0  0  0  0  0  0  0  0  0
  187.2190  178.1990  144.8910 C   0  0  0  0  0  0  0  0  0  0  0  0
  185.8990  180.1830  147.3960 C   0  0  0  0  0  1  0  0  0  0  0  0
  185.9310  178.8650  145.2650 C   0  0  1  0  0  3  0  0  0  0  0  0
  182.5050  178.5640  144.0840 C   0  0  0  0  0  2  0  0  0  0  0  0
  185.7100  180.3250  142.8860 O   0  0  0  0  0  1  0  0  0  0  0  0
  189.7950  176.8430  147.1370 C   0  0  0  0  0  3  0  0  0  0  0  0
  189.1490  177.2210  145.9550 C   0  0  0  0  0  0  0  0  0  0  0  0
  185.7080  178.9940  142.4570 C   0  0  2  0  0  3  0  0  0  0  0  0
  189.5970  177.4720  139.8910 O   0  0  0  0  0  0  0  0  0  0  0  0
  191.1800  176.3510  138.4840 C   0  0  0  0  0  1  0  0  0  0  0  0
  190.9680  177.1200  139.7710 C   0  0  0  0  0  2  0  0  0  0  0  0
  1  4  2  0  0  0  0
  1 19  1  0  0  0  0
  2 19  2  0  0  0  0
  2 13  1  0  0  0  0
  4 20  1  0  0  0  0
  5  1  1  0  0  0  0
  6  8  1  0  0  0  0
  7 15  1  1  0  0  0
  7  9  1  0  0  0  0
  8 12  2  0  0  0  0
  9 14  1  1  0  0  0
  9 22  1  0  0  0  0
 10  3  1  0  0  0  0
 10 21  1  1  0  0  0
 11  8  1  0  0  0  0
 11  5  2  0  0  0  0
 12 27  1  0  0  0  0
 12  4  1  0  0  0  0
 13 18  2  0  0  0  0
 15 23  1  0  0  0  0
 16  2  1  0  0  0  0
 17  3  1  0  0  0  0
 18 25  1  0  0  0  0
 19 26  1  0  0  0  0
 20 17  2  0  0  0  0
 22 20  1  6  0  0  0
 22 10  1  0  0  0  0
 23 14  1  0  0  0  0
 26 17  1  0  0  0  0
 26 25  2  0  0  0  0
 27 24  1  1  0  0  0
 27  7  1  0  0  0  0
 28 11  1  0  0  0  0
 29 30  1  0  0  0  0
 30 28  1  0  0  0  0
M  END
>  <MODEL>
1

>  <REMARK>
 VINA RESULT:      -9.4      0.000      0.000
  Name = 
  2 active torsions:
  status: ('A' for Active; 'I' for Inactive)
    1  A    between atoms: C_11  and  O_28
    2  A    between atoms: O_28  and  C_30
                            x       y       z     vdW  Elec       q    Type
                         _______ _______ _______ _____ _____    ______ ____

>  <TORSDO>
F 2

$$$$
=
 OpenBabel11122410283D

 30 35  0  0  1  0  0  0  0  0999 V2000
  187.9010  177.9090  142.3740 C   0  0  0  0  0  0  0  0  0  0  0  0
  189.2250  177.3910  144.4580 C   0  0  0  0  0  0  0  0  0  0  0  0
  184.3720  178.2940  144.6120 N   0  0  0  0  0  2  0  0  0  0  0  0
  186.6410  178.2060  141.7790 C   0  0  0  0  0  0  0  0  0  0  0  0
  188.9980  177.8360  141.5730 N   0  0  0  0  0  0  0  0  0  0  0  0
  187.6840  178.4890  138.2310 O   0  0  0  0  0  1  0  0  0  0  0  0
  184.1860  177.6010  139.9890 C   0  0  1  0  0  3  0  0  0  0  0  0
  187.7310  178.3040  139.6100 C   0  0  0  0  0  0  0  0  0  0  0  0
  183.5210  177.6950  141.3100 N   0  0  2  0  0  0  0  0  0  0  0  0
  183.3780  178.6450  143.6050 C   0  0  1  0  0  3  0  0  0  0  0  0
  188.9500  178.0270  140.2280 C   0  0  0  0  0  0  0  0  0  0  0  0
  186.5620  178.3890  140.3790 C   0  0  0  0  0  0  0  0  0  0  0  0
  189.2340  177.2100  145.8440 C   0  0  0  0  0  3  0  0  0  0  0  0
  182.1470  178.0940  141.0200 C   0  0  0  0  0  2  0  0  0  0  0  0
  183.1190  177.6130  138.9100 C   0  0  0  0  0  2  0  0  0  0  0  0
  190.7880  177.2070  143.6680 Cl  0  0  0  0  0  0  0  0  0  0  0  0
  185.6100  178.1070  143.9550 C   0  0  0  0  0  0  0  0  0  0  0  0
  188.0670  177.3240  146.5920 C   0  0  0  0  0  3  0  0  0  0  0  0
  188.0030  177.6990  143.7860 C   0  0  0  0  0  0  0  0  0  0  0  0
  185.5140  178.2940  142.6090 C   0  0  0  0  0  0  0  0  0  0  0  0
  182.8130  180.0190  143.9060 C   0  0  0  0  0  1  0  0  0  0  0  0
  184.1120  178.6700  142.2400 C   0  0  1  0  0  3  0  0  0  0  0  0
  181.8100  177.5760  139.6470 C   0  0  0  0  0  2  0  0  0  0  0  0
  184.8210  179.9630  139.8610 O   0  0  0  0  0  1  0  0  0  0  0  0
  186.8640  177.6210  145.9610 C   0  0  0  0  0  3  0  0  0  0  0  0
  186.8200  177.8050  144.5760 C   0  0  0  0  0  0  0  0  0  0  0  0
  185.2650  178.6510  139.6680 C   0  0  2  0  0  3  0  0  0  0  0  0
  190.1110  177.9440  139.4570 O   0  0  0  0  0  0  0  0  0  0  0  0
  192.3230  177.4950  140.2600 C   0  0  0  0  0  1  0  0  0  0  0  0
  191.0690  176.9120  139.6450 C   0  0  0  0  0  2  0  0  0  0  0  0
  1 19  1  0  0  0  0
  2 13  1  0  0  0  0
  4  1  2  0  0  0  0
  4 20  1  0  0  0  0
  5  1  1  0  0  0  0
  6  8  1  0  0  0  0
  7 15  1  6  0  0  0
  7  9  1  0  0  0  0
  8 11  1  0  0  0  0
  8 12  2  0  0  0  0
  9 14  1  6  0  0  0
  9 22  1  0  0  0  0
 10 21  1  1  0  0  0
 10  3  1  0  0  0  0
 11  5  2  0  0  0  0
 12  4  1  0  0  0  0
 13 18  2  0  0  0  0
 15 23  1  0  0  0  0
 16  2  1  0  0  0  0
 17 26  1  0  0  0  0
 17  3  1  0  0  0  0
 19  2  2  0  0  0  0
 19 26  1  0  0  0  0
 20 17  2  0  0  0  0
 22 20  1  1  0  0  0
 22 10  1  0  0  0  0
 23 14  1  0  0  0  0
 25 18  1  0  0  0  0
 26 25  2  0  0  0  0
 27 24  1  1  0  0  0
 27  7  1  0  0  0  0
 27 12  1  0  0  0  0
 28 30  1  0  0  0  0
 28 11  1  0  0  0  0
 30 29  1  0  0  0  0
M  END
>  <MODEL>
2

>  <REMARK>
 VINA RESULT:      -9.3      1.807      2.926
  Name = 
  2 active torsions:
  status: ('A' for Active; 'I' for Inactive)
    1  A    between atoms: C_11  and  O_28
    2  A    between atoms: O_28  and  C_30
                            x       y       z     vdW  Elec       q    Type
                         _______ _______ _______ _____ _____    ______ ____

>  <TORSDO>
F 2

$$$$
=
 OpenBabel11122410283D

 30 35  0  0  1  0  0  0  0  0999 V2000
  185.8810  178.4500  142.6070 C   0  0  0  0  0  0  0  0  0  0  0  0
  186.7410  178.2790  144.9730 C   0  0  0  0  0  0  0  0  0  0  0  0
  181.9260  178.7370  143.9770 N   0  0  0  0  0  2  0  0  0  0  0  0
  184.7680  178.5630  141.7250 C   0  0  0  0  0  0  0  0  0  0  0  0
  187.1320  178.3950  142.0740 N   0  0  0  0  0  0  0  0  0  0  0  0
  186.5540  178.5680  138.4740 O   0  0  0  0  0  1  0  0  0  0  0  0
  182.8210  177.5470  139.5410 C   0  0  1  0  0  3  0  0  0  0  0  0
  186.3050  178.5340  139.8440 C   0  0  0  0  0  0  0  0  0  0  0  0
  181.8740  177.7170  140.6690 N   0  0  2  0  0  0  0  0  0  0  0  0
  181.1590  178.8850  142.7460 C   0  0  1  0  0  3  0  0  0  0  0  0
  187.3720  178.4390  140.7370 C   0  0  0  0  0  0  0  0  0  0  0  0
  184.9910  178.5900  140.3290 C   0  0  0  0  0  0  0  0  0  0  0  0
  186.4540  178.2470  146.3410 C   0  0  0  0  0  3  0  0  0  0  0  0
  180.5740  177.9530  140.0460 C   0  0  0  0  0  2  0  0  0  0  0  0
  182.0230  177.3460  138.2670 C   0  0  0  0  0  2  0  0  0  0  0  0
  188.4490  178.1600  144.5640 Cl  0  0  0  0  0  0  0  0  0  0  0  0
  183.2880  178.5980  143.6270 C   0  0  0  0  0  0  0  0  0  0  0  0
  185.1440  178.3300  146.8030 C   0  0  0  0  0  3  0  0  0  0  0  0
  185.6810  178.4000  144.0240 C   0  0  0  0  0  0  0  0  0  0  0  0
  183.4810  178.6330  142.2790 C   0  0  0  0  0  0  0  0  0  0  0  0
  180.4490  180.2250  142.7480 C   0  0  0  0  0  1  0  0  0  0  0  0
  182.1750  178.8350  141.5770 C   0  0  1  0  0  3  0  0  0  0  0  0
  180.5880  177.2640  138.7070 C   0  0  0  0  0  2  0  0  0  0  0  0
  183.3060  179.9310  139.2620 O   0  0  0  0  0  1  0  0  0  0  0  0
  184.0950  178.4450  145.8990 C   0  0  0  0  0  3  0  0  0  0  0  0
  184.3480  178.4780  144.5240 C   0  0  0  0  0  0  0  0  0  0  0  0
  183.8700  178.6530  139.3310 C   0  0  2  0  0  3  0  0  0  0  0  0
  188.6780  178.3840  140.2470 O   0  0  0  0  0  0  0  0  0  0  0  0
  190.4380  177.1070  141.2530 C   0  0  0  0  0  1  0  0  0  0  0  0
  189.3980  177.1630  140.1550 C   0  0  0  0  0  2  0  0  0  0  0  0
  1 19  1  0  0  0  0
  2 13  1  0  0  0  0
  4 20  1  0  0  0  0
  4  1  2  0  0  0  0
  5  1  1  0  0  0  0
  6  8  1  0  0  0  0
  7 15  1  6  0  0  0
  7  9  1  0  0  0  0
  8 12  2  0  0  0  0
  8 11  1  0  0  0  0
  9 14  1  6  0  0  0
  9 22  1  0  0  0  0
 10 21  1  1  0  0  0
 10  3  1  0  0  0  0
 11  5  2  0  0  0  0
 12  4  1  0  0  0  0
 13 18  2  0  0  0  0
 15 23  1  0  0  0  0
 16  2  1  0  0  0  0
 17  3  1  0  0  0  0
 17 26  1  0  0  0  0
 19 26  1  0  0  0  0
 19  2  2  0  0  0  0
 20 17  2  0  0  0  0
 22 20  1  1  0  0  0
 22 10  1  0  0  0  0
 23 14  1  0  0  0  0
 25 18  1  0  0  0  0
 26 25  2  0  0  0  0
 27 24  1  1  0  0  0
 27  7  1  0  0  0  0
 27 12  1  0  0  0  0
 28 11  1  0  0  0  0
 30 28  1  0  0  0  0
 30 29  1  0  0  0  0
M  END
>  <MODEL>
3

>  <REMARK>
 VINA RESULT:      -9.1      2.678      4.592
  Name = 
  2 active torsions:
  status: ('A' for Active; 'I' for Inactive)
    1  A    between atoms: C_11  and  O_28
    2  A    between atoms: O_28  and  C_30
                            x       y       z     vdW  Elec       q    Type
                         _______ _______ _______ _____ _____    ______ ____

>  <TORSDO>
F 2

$$$$
=
 OpenBabel11122410283D

 30 35  0  0  1  0  0  0  0  0999 V2000
  187.6680  178.0430  142.6240 C   0  0  0  0  0  0  0  0  0  0  0  0
  186.5420  178.1480  144.8790 C   0  0  0  0  0  0  0  0  0  0  0  0
  184.0510  178.9160  140.6840 N   0  0  0  0  0  2  0  0  0  0  0  0
  187.5570  178.1300  141.2060 C   0  0  0  0  0  0  0  0  0  0  0  0
  188.8890  177.7880  143.1660 N   0  0  0  0  0  0  0  0  0  0  0  0
  191.0840  177.4730  140.2670 O   0  0  0  0  0  1  0  0  0  0  0  0
  187.6040  176.9910  138.3260 C   0  0  1  0  0  3  0  0  0  0  0  0
  189.9360  177.6700  141.0290 C   0  0  0  0  0  0  0  0  0  0  0  0
  186.1870  177.4200  138.4080 N   0  0  2  0  0  0  0  0  0  0  0  0
  184.4300  178.9510  139.2770 C   0  0  1  0  0  3  0  0  0  0  0  0
  190.0110  177.6070  142.4200 C   0  0  0  0  0  0  0  0  0  0  0  0
  188.7060  177.9260  140.4080 C   0  0  0  0  0  0  0  0  0  0  0  0
  185.3690  178.3490  145.6120 C   0  0  0  0  0  3  0  0  0  0  0  0
  185.7860  177.6850  137.0290 C   0  0  0  0  0  2  0  0  0  0  0  0
  187.9310  176.6800  136.8770 C   0  0  0  0  0  2  0  0  0  0  0  0
  187.9760  177.8030  145.8410 Cl  0  0  0  0  0  0  0  0  0  0  0  0
  185.2030  178.5940  141.4380 C   0  0  0  0  0  0  0  0  0  0  0  0
  184.1630  178.6280  144.9760 C   0  0  0  0  0  3  0  0  0  0  0  0
  186.5160  178.2260  143.4540 C   0  0  0  0  0  0  0  0  0  0  0  0
  186.2990  178.4070  140.6500 C   0  0  0  0  0  0  0  0  0  0  0  0
  184.1800  180.3390  138.7190 C   0  0  0  0  0  1  0  0  0  0  0  0
  185.9440  178.6280  139.2130 C   0  0  1  0  0  3  0  0  0  0  0  0
  186.6270  176.8050  136.1410 C   0  0  0  0  0  2  0  0  0  0  0  0
  188.5520  179.2480  138.4060 O   0  0  0  0  0  1  0  0  0  0  0  0
  184.1110  178.7070  143.5890 C   0  0  0  0  0  3  0  0  0  0  0  0
  185.2670  178.5080  142.8270 C   0  0  0  0  0  0  0  0  0  0  0  0
  188.6620  177.9460  138.9050 C   0  0  2  0  0  3  0  0  0  0  0  0
  191.2390  177.3520  143.0330 O   0  0  0  0  0  0  0  0  0  0  0  0
  191.6090  176.7550  145.3240 C   0  0  0  0  0  1  0  0  0  0  0  0
  191.5670  177.8790  144.3110 C   0  0  0  0  0  2  0  0  0  0  0  0
  1  5  1  0  0  0  0
  1 19  1  0  0  0  0
  2 13  1  0  0  0  0
  2 16  1  0  0  0  0
  3 17  1  0  0  0  0
  4  1  2  0  0  0  0
  6  8  1  0  0  0  0
  7 15  1  6  0  0  0
  7  9  1  0  0  0  0
  7 27  1  0  0  0  0
  8 11  1  0  0  0  0
  9 14  1  6  0  0  0
  9 22  1  0  0  0  0
 10 21  1  1  0  0  0
 10  3  1  0  0  0  0
 11 28  1  0  0  0  0
 11  5  2  0  0  0  0
 12  8  2  0  0  0  0
 12  4  1  0  0  0  0
 17 26  1  0  0  0  0
 18 13  2  0  0  0  0
 19  2  2  0  0  0  0
 20  4  1  0  0  0  0
 20 17  2  0  0  0  0
 22 10  1  0  0  0  0
 22 20  1  1  0  0  0
 23 15  1  0  0  0  0
 23 14  1  0  0  0  0
 25 18  1  0  0  0  0
 26 19  1  0  0  0  0
 26 25  2  0  0  0  0
 27 24  1  1  0  0  0
 27 12  1  0  0  0  0
 28 30  1  0  0  0  0
 30 29  1  0  0  0  0
M  END
>  <MODEL>
4

>  <REMARK>
 VINA RESULT:      -8.7      2.712      5.722
  Name = 
  2 active torsions:
  status: ('A' for Active; 'I' for Inactive)
    1  A    between atoms: C_11  and  O_28
    2  A    between atoms: O_28  and  C_30
                            x       y       z     vdW  Elec       q    Type
                         _______ _______ _______ _____ _____    ______ ____

>  <TORSDO>
F 2

$$$$
=
 OpenBabel11122410283D

 30 35  0  0  1  0  0  0  0  0999 V2000
  185.9490  178.3250  142.0350 C   0  0  0  0  0  0  0  0  0  0  0  0
  183.5170  178.8690  142.4310 C   0  0  0  0  0  0  0  0  0  0  0  0
  186.6490  178.0660  146.1640 N   0  0  0  0  0  2  0  0  0  0  0  0
  187.2340  178.0390  142.5810 C   0  0  0  0  0  0  0  0  0  0  0  0
  185.8090  178.3560  140.6830 N   0  0  0  0  0  0  0  0  0  0  0  0
  189.1660  177.6460  139.4400 O   0  0  0  0  0  1  0  0  0  0  0  0
  190.2100  178.6480  143.1850 C   0  0  1  0  0  3  0  0  0  0  0  0
  188.1120  177.8640  140.3230 C   0  0  0  0  0  0  0  0  0  0  0  0
  189.6730  178.6000  144.5660 N   0  0  2  0  0  0  0  0  0  0  0  0
  188.0610  177.7110  146.2390 C   0  0  1  0  0  3  0  0  0  0  0  0
  186.8380  178.1330  139.8230 C   0  0  0  0  0  0  0  0  0  0  0  0
  188.3240  177.8220  141.7080 C   0  0  0  0  0  0  0  0  0  0  0  0
  182.4830  179.0850  143.3470 C   0  0  0  0  0  3  0  0  0  0  0  0
  190.8080  178.2210  145.4050 C   0  0  0  0  0  2  0  0  0  0  0  0
  191.7250  178.6290  143.2550 C   0  0  0  0  0  2  0  0  0  0  0  0
  183.0580  179.0020  140.7360 Cl  0  0  0  0  0  0  0  0  0  0  0  0
  186.3090  178.2130  144.8000 C   0  0  0  0  0  0  0  0  0  0  0  0
  182.7090  179.0120  144.7180 C   0  0  0  0  0  3  0  0  0  0  0  0
  184.8330  178.5690  142.8980 C   0  0  0  0  0  0  0  0  0  0  0  0
  187.3720  177.9940  143.9760 C   0  0  0  0  0  0  0  0  0  0  0  0
  188.2090  176.3560  146.9030 C   0  0  0  0  0  1  0  0  0  0  0  0
  188.5820  177.6370  144.7820 C   0  0  1  0  0  3  0  0  0  0  0  0
  192.0560  178.7110  144.7190 C   0  0  0  0  0  2  0  0  0  0  0  0
  189.8670  176.2710  142.7030 O   0  0  0  0  0  1  0  0  0  0  0  0
  183.9810  178.7230  145.1970 C   0  0  0  0  0  3  0  0  0  0  0  0
  185.0390  178.5050  144.3080 C   0  0  0  0  0  0  0  0  0  0  0  0
  189.7200  177.5690  142.2030 C   0  0  2  0  0  3  0  0  0  0  0  0
  186.6330  178.1730  138.4430 O   0  0  0  0  0  0  0  0  0  0  0  0
  185.1140  176.8010  137.1980 C   0  0  0  0  0  1  0  0  0  0  0  0
  185.3330  178.1390  137.8720 C   0  0  0  0  0  2  0  0  0  0  0  0
  1  4  2  0  0  0  0
  1 19  1  0  0  0  0
  2 19  2  0  0  0  0
  2 13  1  0  0  0  0
  3 10  1  0  0  0  0
  4 20  1  0  0  0  0
  5  1  1  0  0  0  0
  6  8  1  0  0  0  0
  7 15  1  1  0  0  0
  7  9  1  0  0  0  0
  8 12  2  0  0  0  0
  9 22  1  0  0  0  0
  9 14  1  1  0  0  0
 10 21  1  6  0  0  0
 11  8  1  0  0  0  0
 11  5  2  0  0  0  0
 12 27  1  0  0  0  0
 12  4  1  0  0  0  0
 13 18  2  0  0  0  0
 15 23  1  0  0  0  0
 16  2  1  0  0  0  0
 17  3  1  0  0  0  0
 18 25  1  0  0  0  0
 19 26  1  0  0  0  0
 20 17  2  0  0  0  0
 22 20  1  6  0  0  0
 22 10  1  0  0  0  0
 23 14  1  0  0  0  0
 26 17  1  0  0  0  0
 26 25  2  0  0  0  0
 27 24  1  1  0  0  0
 27  7  1  0  0  0  0
 28 11  1  0  0  0  0
 29 30  1  0  0  0  0
 30 28  1  0  0  0  0
M  END
>  <MODEL>
5

>  <REMARK>
 VINA RESULT:      -8.1      2.648      5.587
  Name = 
  2 active torsions:
  status: ('A' for Active; 'I' for Inactive)
    1  A    between atoms: C_11  and  O_28
    2  A    between atoms: O_28  and  C_30
                            x       y       z     vdW  Elec       q    Type
                         _______ _______ _______ _____ _____    ______ ____

>  <TORSDO>
F 2

$$$$
=
 OpenBabel11122410283D

 30 35  0  0  1  0  0  0  0  0999 V2000
  187.3690  177.9460  144.7710 C   0  0  0  0  0  0  0  0  0  0  0  0
  186.8920  178.3690  147.2130 C   0  0  0  0  0  0  0  0  0  0  0  0
  191.2210  176.5540  145.6790 N   0  0  0  0  0  2  0  0  0  0  0  0
  188.2870  177.5150  143.7710 C   0  0  0  0  0  0  0  0  0  0  0  0
  186.1280  178.3500  144.3870 N   0  0  0  0  0  0  0  0  0  0  0  0
  186.1830  177.9970  140.7540 O   0  0  0  0  0  1  0  0  0  0  0  0
  190.1550  177.9210  141.3340 C   0  0  1  0  0  3  0  0  0  0  0  0
  186.5990  177.9680  142.0820 C   0  0  0  0  0  0  0  0  0  0  0  0
  191.1480  177.4960  142.3490 N   0  0  2  0  0  0  0  0  0  0  0  0
  191.7570  176.1850  144.3740 C   0  0  1  0  0  3  0  0  0  0  0  0
  185.7220  178.3680  143.0890 C   0  0  0  0  0  0  0  0  0  0  0  0
  187.8940  177.5430  142.4130 C   0  0  0  0  0  0  0  0  0  0  0  0
  187.3440  178.3270  148.5350 C   0  0  0  0  0  3  0  0  0  0  0  0
  192.2410  176.8960  141.5880 C   0  0  0  0  0  2  0  0  0  0  0  0
  190.8130  177.8780  139.9670 C   0  0  0  0  0  2  0  0  0  0  0  0
  185.2500  178.9670  147.0010 Cl  0  0  0  0  0  0  0  0  0  0  0  0
  189.9210  177.0730  145.4860 C   0  0  0  0  0  0  0  0  0  0  0  0
  188.6240  177.8780  148.8440 C   0  0  0  0  0  3  0  0  0  0  0  0
  187.7490  177.9460  146.1520 C   0  0  0  0  0  0  0  0  0  0  0  0
  189.5600  177.0860  144.1720 C   0  0  0  0  0  0  0  0  0  0  0  0
  192.0550  174.6990  144.3480 C   0  0  0  0  0  1  0  0  0  0  0  0
  190.6590  176.5150  143.3310 C   0  0  1  0  0  3  0  0  0  0  0  0
  192.2560  177.5510  140.2320 C   0  0  0  0  0  2  0  0  0  0  0  0
  188.9880  175.7710  141.2120 O   0  0  0  0  0  1  0  0  0  0  0  0
  189.4780  177.4630  147.8280 C   0  0  0  0  0  3  0  0  0  0  0  0
  189.0580  177.4950  146.4950 C   0  0  0  0  0  0  0  0  0  0  0  0
  188.8200  177.1570  141.2940 C   0  0  2  0  0  3  0  0  0  0  0  0
  184.4340  178.7890  142.7540 O   0  0  0  0  0  0  0  0  0  0  0  0
  182.0700  179.0030  143.0780 C   0  0  0  0  0  1  0  0  0  0  0  0
  183.4330  179.0090  143.7370 C   0  0  0  0  0  2  0  0  0  0  0  0
  1 19  1  0  0  0  0
  2 13  1  0  0  0  0
  4 20  1  0  0  0  0
  4  1  2  0  0  0  0
  5  1  1  0  0  0  0
  6  8  1  0  0  0  0
  7 15  1  6  0  0  0
  7  9  1  0  0  0  0
  8 12  2  0  0  0  0
  8 11  1  0  0  0  0
  9 14  1  6  0  0  0
  9 22  1  0  0  0  0
 10 21  1  1  0  0  0
 10  3  1  0  0  0  0
 11  5  2  0  0  0  0
 12  4  1  0  0  0  0
 13 18  2  0  0  0  0
 15 23  1  0  0  0  0
 16  2  1  0  0  0  0
 17  3  1  0  0  0  0
 17 26  1  0  0  0  0
 19 26  1  0  0  0  0
 19  2  2  0  0  0  0
 20 17  2  0  0  0  0
 22 20  1  1  0  0  0
 22 10  1  0  0  0  0
 23 14  1  0  0  0  0
 25 18  1  0  0  0  0
 26 25  2  0  0  0  0
 27 24  1  1  0  0  0
 27  7  1  0  0  0  0
 27 12  1  0  0  0  0
 28 11  1  0  0  0  0
 28 30  1  0  0  0  0
 29 30  1  0  0  0  0
M  END
>  <MODEL>
6

>  <REMARK>
 VINA RESULT:      -8.1      2.114      5.771
  Name = 
  2 active torsions:
  status: ('A' for Active; 'I' for Inactive)
    1  A    between atoms: C_11  and  O_28
    2  A    between atoms: O_28  and  C_30
                            x       y       z     vdW  Elec       q    Type
                         _______ _______ _______ _____ _____    ______ ____

>  <TORSDO>
F 2

$$$$
=
 OpenBabel11122410283D

 30 35  0  0  1  0  0  0  0  0999 V2000
  186.0630  178.3820  142.9150 C   0  0  0  0  0  0  0  0  0  0  0  0
  185.7140  178.4650  140.4170 C   0  0  0  0  0  0  0  0  0  0  0  0
  190.2010  177.9130  142.4050 N   0  0  0  0  0  2  0  0  0  0  0  0
  186.9620  178.2410  144.0110 C   0  0  0  0  0  0  0  0  0  0  0  0
  184.7400  178.5630  143.1770 N   0  0  0  0  0  0  0  0  0  0  0  0
  184.5560  178.4990  146.8210 O   0  0  0  0  0  1  0  0  0  0  0  0
  188.1680  176.7830  146.4640 C   0  0  1  0  0  3  0  0  0  0  0  0
  185.0810  178.4600  145.5330 C   0  0  0  0  0  0  0  0  0  0  0  0
  189.3490  176.7960  145.5680 N   0  0  2  0  0  0  0  0  0  0  0  0
  190.7000  177.8640  143.7730 C   0  0  1  0  0  3  0  0  0  0  0  0
  184.2320  178.6100  144.4370 C   0  0  0  0  0  0  0  0  0  0  0  0
  186.4540  178.2670  145.3300 C   0  0  0  0  0  0  0  0  0  0  0  0
  186.2760  178.4200  139.1380 C   0  0  0  0  0  3  0  0  0  0  0  0
  190.5050  176.7460  146.4590 C   0  0  0  0  0  2  0  0  0  0  0  0
  188.6210  176.3850  147.8560 C   0  0  0  0  0  2  0  0  0  0  0  0
  183.9660  178.6780  140.4610 Cl  0  0  0  0  0  0  0  0  0  0  0  0
  188.7940  178.0390  142.4580 C   0  0  0  0  0  0  0  0  0  0  0  0
  187.6460  178.2530  138.9600 C   0  0  0  0  0  3  0  0  0  0  0  0
  186.5490  178.3390  141.5690 C   0  0  0  0  0  0  0  0  0  0  0  0
  188.3270  178.0680  143.7380 C   0  0  0  0  0  0  0  0  0  0  0  0
  191.6350  179.0330  144.0150 C   0  0  0  0  0  1  0  0  0  0  0  0
  189.4670  177.9810  144.7040 C   0  0  1  0  0  3  0  0  0  0  0  0
  190.0750  176.0310  147.7130 C   0  0  0  0  0  2  0  0  0  0  0  0
  188.0950  179.2060  146.8150 O   0  0  0  0  0  1  0  0  0  0  0  0
  188.4790  178.1260  140.0650 C   0  0  0  0  0  3  0  0  0  0  0  0
  187.9480  178.1640  141.3580 C   0  0  0  0  0  0  0  0  0  0  0  0
  187.3270  178.0710  146.5380 C   0  0  2  0  0  3  0  0  0  0  0  0
  182.8650  178.8030  144.6440 O   0  0  0  0  0  0  0  0  0  0  0  0
  180.5730  178.6260  143.9680 C   0  0  0  0  0  1  0  0  0  0  0  0
  181.9690  179.0620  143.5740 C   0  0  0  0  0  2  0  0  0  0  0  0
  1  5  1  0  0  0  0
  1  4  1  0  0  0  0
  2 16  1  0  0  0  0
  2 19  1  0  0  0  0
  3 17  1  0  0  0  0
  3 10  1  0  0  0  0
  4 12  1  0  0  0  0
  5 11  2  0  0  0  0
  7 27  1  0  0  0  0
  7 15  1  1  0  0  0
  8  6  1  0  0  0  0
  9 14  1  1  0  0  0
  9  7  1  0  0  0  0
 10 21  1  1  0  0  0
 10 22  1  0  0  0  0
 11 28  1  0  0  0  0
 11  8  1  0  0  0  0
 12  8  2  0  0  0  0
 12 27  1  0  0  0  0
 13  2  2  0  0  0  0
 14 23  1  0  0  0  0
 17 20  1  0  0  0  0
 18 13  1  0  0  0  0
 18 25  2  0  0  0  0
 19  1  2  0  0  0  0
 20  4  2  0  0  0  0
 22 20  1  6  0  0  0
 22  9  1  0  0  0  0
 23 15  1  0  0  0  0
 25 26  1  0  0  0  0
 26 19  1  0  0  0  0
 26 17  2  0  0  0  0
 27 24  1  6  0  0  0
 30 29  1  0  0  0  0
 30 28  1  0  0  0  0
M  END
>  <MODEL>
7

>  <REMARK>
 VINA RESULT:      -7.9      2.884      6.547
  Name = 
  2 active torsions:
  status: ('A' for Active; 'I' for Inactive)
    1  A    between atoms: C_11  and  O_28
    2  A    between atoms: O_28  and  C_30
                            x       y       z     vdW  Elec       q    Type
                         _______ _______ _______ _____ _____    ______ ____

>  <TORSDO>
F 2

$$$$
=
 OpenBabel11122410283D

 30 35  0  0  1  0  0  0  0  0999 V2000
  188.0830  177.6870  142.5400 C   0  0  0  0  0  0  0  0  0  0  0  0
  185.8290  178.2530  143.5220 C   0  0  0  0  0  0  0  0  0  0  0  0
  186.7310  178.6280  138.6810 N   0  0  0  0  0  2  0  0  0  0  0  0
  188.9090  177.5670  141.3850 C   0  0  0  0  0  0  0  0  0  0  0  0
  188.6170  177.3910  143.7560 N   0  0  0  0  0  0  0  0  0  0  0  0
  192.0470  176.4070  142.9860 O   0  0  0  0  0  1  0  0  0  0  0  0
  190.5570  176.0020  139.2800 C   0  0  1  0  0  3  0  0  0  0  0  0
  190.7340  176.8380  142.8130 C   0  0  0  0  0  0  0  0  0  0  0  0
  189.5120  176.5850  138.4050 N   0  0  2  0  0  0  0  0  0  0  0  0
  187.9110  178.4070  137.8540 C   0  0  1  0  0  3  0  0  0  0  0  0
  189.9020  176.9800  143.9230 C   0  0  0  0  0  0  0  0  0  0  0  0
  190.2430  177.1230  141.5310 C   0  0  0  0  0  0  0  0  0  0  0  0
  184.5170  178.6860  143.3100 C   0  0  0  0  0  3  0  0  0  0  0  0
  190.1270  176.6760  137.0830 C   0  0  0  0  0  2  0  0  0  0  0  0
  191.6620  175.4400  138.4050 C   0  0  0  0  0  2  0  0  0  0  0  0
  186.2430  177.9100  145.1990 Cl  0  0  0  0  0  0  0  0  0  0  0  0
  187.0680  178.3050  140.0160 C   0  0  0  0  0  0  0  0  0  0  0  0
  184.0570  178.9890  142.0320 C   0  0  0  0  0  3  0  0  0  0  0  0
  186.7220  178.1150  142.4170 C   0  0  0  0  0  0  0  0  0  0  0  0
  188.3590  177.8860  140.1350 C   0  0  0  0  0  0  0  0  0  0  0  0
  188.3230  179.7110  137.1990 C   0  0  0  0  0  1  0  0  0  0  0  0
  189.0370  177.9200  138.8000 C   0  0  1  0  0  3  0  0  0  0  0  0
  191.1630  175.5870  136.9950 C   0  0  0  0  0  2  0  0  0  0  0  0
  191.6260  178.1330  139.8440 O   0  0  0  0  0  1  0  0  0  0  0  0
  184.9070  178.8610  140.9400 C   0  0  0  0  0  3  0  0  0  0  0  0
  186.2240  178.4270  141.1180 C   0  0  0  0  0  0  0  0  0  0  0  0
  191.1610  176.9180  140.3590 C   0  0  2  0  0  3  0  0  0  0  0  0
  190.3970  176.6950  145.1960 O   0  0  0  0  0  0  0  0  0  0  0  0
  189.2730  176.7540  147.3110 C   0  0  0  0  0  1  0  0  0  0  0  0
  190.1180  177.5220  146.3170 C   0  0  0  0  0  2  0  0  0  0  0  0
  1  5  1  0  0  0  0
  2 16  1  0  0  0  0
  3 17  1  0  0  0  0
  4 12  1  0  0  0  0
  4  1  2  0  0  0  0
  5 11  2  0  0  0  0
  7 15  1  6  0  0  0
  7 27  1  0  0  0  0
  8  6  1  0  0  0  0
  8 11  1  0  0  0  0
  9 14  1  6  0  0  0
  9 22  1  0  0  0  0
  9  7  1  0  0  0  0
 10 21  1  1  0  0  0
 10  3  1  0  0  0  0
 10 22  1  0  0  0  0
 11 28  1  0  0  0  0
 12  8  2  0  0  0  0
 13  2  1  0  0  0  0
 17 20  2  0  0  0  0
 17 26  1  0  0  0  0
 18 13  2  0  0  0  0
 19  1  1  0  0  0  0
 19  2  2  0  0  0  0
 20  4  1  0  0  0  0
 22 20  1  1  0  0  0
 23 14  1  0  0  0  0
 23 15  1  0  0  0  0
 25 26  2  0  0  0  0
 25 18  1  0  0  0  0
 26 19  1  0  0  0  0
 27 24  1  6  0  0  0
 27 12  1  0  0  0  0
 28 30  1  0  0  0  0
 30 29  1  0  0  0  0
M  END
>  <MODEL>
8

>  <REMARK>
 VINA RESULT:      -7.8      2.662      7.088
  Name = 
  2 active torsions:
  status: ('A' for Active; 'I' for Inactive)
    1  A    between atoms: C_11  and  O_28
    2  A    between atoms: O_28  and  C_30
                            x       y       z     vdW  Elec       q    Type
                         _______ _______ _______ _____ _____    ______ ____

>  <TORSDO>
F 2

$$$$
=
 OpenBabel11122410283D

 30 35  0  0  1  0  0  0  0  0999 V2000
  189.1220  177.5200  139.0110 C   0  0  0  0  0  0  0  0  0  0  0  0
  191.0140  176.7410  137.5340 C   0  0  0  0  0  0  0  0  0  0  0  0
  191.6530  177.5880  142.3570 N   0  0  0  0  0  2  0  0  0  0  0  0
  188.6680  177.8840  140.3110 C   0  0  0  0  0  0  0  0  0  0  0  0
  188.2380  177.5580  137.9780 N   0  0  0  0  0  0  0  0  0  0  0  0
  185.1200  178.6350  139.5390 O   0  0  0  0  0  1  0  0  0  0  0  0
  187.0060  177.5040  142.8980 C   0  0  1  0  0  3  0  0  0  0  0  0
  186.4550  178.2720  139.3880 C   0  0  0  0  0  0  0  0  0  0  0  0
  188.3760  177.4200  143.4590 N   0  0  2  0  0  0  0  0  0  0  0  0
  190.7790  178.0610  143.4240 C   0  0  1  0  0  3  0  0  0  0  0  0
  186.9370  177.9230  138.1270 C   0  0  0  0  0  0  0  0  0  0  0  0
  187.3150  178.2480  140.4950 C   0  0  0  0  0  0  0  0  0  0  0  0
  192.3600  176.3800  137.4200 C   0  0  0  0  0  3  0  0  0  0  0  0
  188.2460  177.8450  144.8500 C   0  0  0  0  0  2  0  0  0  0  0  0
  186.0220  177.6510  144.0430 C   0  0  0  0  0  2  0  0  0  0  0  0
  190.0900  176.6710  136.0360 Cl  0  0  0  0  0  0  0  0  0  0  0  0
  190.8850  177.4950  141.1740 C   0  0  0  0  0  0  0  0  0  0  0  0
  193.2030  176.3890  138.5270 C   0  0  0  0  0  3  0  0  0  0  0  0
  190.4830  177.1270  138.8020 C   0  0  0  0  0  0  0  0  0  0  0  0
  189.5860  177.8560  141.3720 C   0  0  0  0  0  0  0  0  0  0  0  0
  191.2990  179.3810  143.9590 C   0  0  0  0  0  1  0  0  0  0  0  0
  189.3780  178.2690  142.7960 C   0  0  1  0  0  3  0  0  0  0  0  0
  186.8450  177.5100  145.2930 C   0  0  0  0  0  2  0  0  0  0  0  0
  187.1410  179.8660  142.2650 O   0  0  0  0  0  1  0  0  0  0  0  0
  192.7100  176.7590  139.7730 C   0  0  0  0  0  3  0  0  0  0  0  0
  191.3670  177.1230  139.9210 C   0  0  0  0  0  0  0  0  0  0  0  0
  186.7440  178.5930  141.8420 C   0  0  2  0  0  3  0  0  0  0  0  0
  186.0760  177.9490  137.0290 O   0  0  0  0  0  0  0  0  0  0  0  0
  186.6350  177.9180  134.6990 C   0  0  0  0  0  1  0  0  0  0  0  0
  186.2550  177.0920  135.9100 C   0  0  0  0  0  2  0  0  0  0  0  0
  1  4  1  0  0  0  0
  2 19  1  0  0  0  0
  3 10  1  0  0  0  0
  4 12  1  0  0  0  0
  4 20  2  0  0  0  0
  5 11  2  0  0  0  0
  5  1  1  0  0  0  0
  7  9  1  0  0  0  0
  7 15  1  1  0  0  0
  8  6  1  0  0  0  0
  8 12  2  0  0  0  0
  9 14  1  1  0  0  0
 10 21  1  6  0  0  0
 11  8  1  0  0  0  0
 12 27  1  0  0  0  0
 13  2  2  0  0  0  0
 13 18  1  0  0  0  0
 14 23  1  0  0  0  0
 15 23  1  0  0  0  0
 16  2  1  0  0  0  0
 17 20  1  0  0  0  0
 17  3  1  0  0  0  0
 18 25  2  0  0  0  0
 19  1  2  0  0  0  0
 19 26  1  0  0  0  0
 22 20  1  6  0  0  0
 22 10  1  0  0  0  0
 22  9  1  0  0  0  0
 25 26  1  0  0  0  0
 26 17  2  0  0  0  0
 27 24  1  1  0  0  0
 27  7  1  0  0  0  0
 28 11  1  0  0  0  0
 29 30  1  0  0  0  0
 30 28  1  0  0  0  0
M  END
>  <MODEL>
9

>  <REMARK>
 VINA RESULT:      -7.5      2.729      5.287
  Name = 
  2 active torsions:
  status: ('A' for Active; 'I' for Inactive)
    1  A    between atoms: C_11  and  O_28
    2  A    between atoms: O_28  and  C_30
                            x       y       z     vdW  Elec       q    Type
                         _______ _______ _______ _____ _____    ______ ____

>  <TORSDO>
F 2

$$$$
