=
 OpenBabel11122411583D

 28 32  0  0  1  0  0  0  0  0999 V2000
  184.6300  177.7250  138.2780 C   0  0  0  0  0  0  0  0  0  0  0  0
  182.5250  180.0470  139.1730 O   0  0  0  0  0  0  0  0  0  0  0  0
  186.3040  178.2630  144.0420 O   0  0  0  0  0  0  0  0  0  0  0  0
  183.1640  175.4050  137.7000 C   0  0  0  0  0  3  0  0  0  0  0  0
  184.1500  179.2760  143.6600 C   0  0  1  0  0  3  0  0  0  0  0  0
  185.5690  178.8500  138.5440 C   0  0  0  0  0  2  0  0  0  0  0  0
  180.8170  178.3800  138.5880 O   0  0  0  0  0  0  0  0  0  0  0  0
  181.4530  179.1410  139.7160 S   0  0  0  0  0  0  0  0  0  0  0  0
  180.0930  180.0000  141.9050 C   0  0  0  0  0  0  0  0  0  0  0  0
  182.0930  178.0050  140.8890 N   0  0  2  0  0  0  0  0  0  0  0  0
  188.2160  177.2750  140.4540 O   0  0  0  0  0  0  0  0  0  0  0  0
  184.3080  178.9480  141.2030 C   0  0  1  0  0  3  0  0  0  0  0  0
  180.9070  179.3050  142.6410 N   0  0  0  0  0  0  0  0  0  0  0  0
  180.2600  180.0970  140.4960 N   0  0  0  0  0  2  0  0  0  0  0  0
  187.3290  178.1290  140.1980 C   0  0  0  0  0  0  0  0  0  0  0  0
  183.7910  177.1620  139.2720 C   0  0  0  0  0  0  0  0  0  0  0  0
  185.4000  178.6180  143.2360 C   0  0  0  0  0  0  0  0  0  0  0  0
  178.9300  180.6690  142.5430 C   0  0  0  0  0  1  0  0  0  0  0  0
  186.8240  179.0080  141.2890 C   0  0  0  0  0  2  0  0  0  0  0  0
  183.0740  175.9960  138.9600 C   0  0  0  0  0  3  0  0  0  0  0  0
  184.7130  177.1220  137.0170 C   0  0  0  0  0  3  0  0  0  0  0  0
  183.9790  175.9740  136.7240 C   0  0  0  0  0  3  0  0  0  0  0  0
  186.8720  178.2880  138.8570 N   0  0  0  0  0  2  0  0  0  0  0  0
  183.3930  179.4770  142.3260 C   0  0  1  0  0  3  0  0  0  0  0  0
  185.5580  178.5390  141.8320 N   0  0  0  0  0  0  0  0  0  0  0  0
  182.1350  178.6200  142.2140 C   0  0  2  0  0  3  0  0  0  0  0  0
  183.4260  178.4450  144.7150 C   0  0  0  0  0  1  0  0  0  0  0  0
  183.5180  177.7530  140.6460 C   0  0  2  0  0  3  0  0  0  0  0  0
  1  6  1  0  0  0  0
  1 16  1  0  0  0  0
  2  8  2  0  0  0  0
  4 20  1  0  0  0  0
  5 27  1  1  0  0  0
  6 23  1  0  0  0  0
  7  8  2  0  0  0  0
  8 14  1  0  0  0  0
  9 18  1  0  0  0  0
  9 13  2  0  0  0  0
 10  8  1  6  0  0  0
 10 26  1  0  0  0  0
 12 25  1  1  0  0  0
 12 24  1  0  0  0  0
 14  9  1  0  0  0  0
 15 11  2  0  0  0  0
 15 19  1  0  0  0  0
 16 28  1  0  0  0  0
 17  5  1  0  0  0  0
 17  3  2  0  0  0  0
 19 25  1  0  0  0  0
 20 16  2  0  0  0  0
 21  1  2  0  0  0  0
 22 21  1  0  0  0  0
 22  4  2  0  0  0  0
 23 15  1  0  0  0  0
 24  5  1  0  0  0  0
 25 17  1  0  0  0  0
 26 24  1  0  0  0  0
 26 13  1  0  0  0  0
 28 10  1  0  0  0  0
 28 12  1  0  0  0  0
M  END
>  <MODEL>
1

>  <REMARK>
 VINA RESULT:      -6.0      0.000      0.000
  Name = 
  0 active torsions:
  status: ('A' for Active; 'I' for Inactive)
                            x       y       z     vdW  Elec       q    Type
                         _______ _______ _______ _____ _____    ______ ____

>  <TORSDO>
F 0

$$$$
=
 OpenBabel11122411583D

 28 32  0  0  1  0  0  0  0  0999 V2000
  180.0250  179.5890  139.1110 C   0  0  0  0  0  0  0  0  0  0  0  0
  181.8120  177.0480  138.1240 O   0  0  0  0  0  0  0  0  0  0  0  0
  184.0080  179.4990  143.6320 O   0  0  0  0  0  0  0  0  0  0  0  0
  180.3940  181.6730  137.2710 C   0  0  0  0  0  3  0  0  0  0  0  0
  184.7860  178.1990  141.7570 C   0  0  1  0  0  3  0  0  0  0  0  0
  179.7130  178.6080  140.1870 C   0  0  0  0  0  2  0  0  0  0  0  0
  182.2790  178.4530  136.1630 O   0  0  0  0  0  0  0  0  0  0  0  0
  182.8720  177.8260  137.3930 S   0  0  0  0  0  0  0  0  0  0  0  0
  185.4160  176.8830  137.5220 C   0  0  0  0  0  0  0  0  0  0  0  0
  183.5700  179.0820  138.4000 N   0  0  2  0  0  0  0  0  0  0  0  0
  179.9910  180.5890  143.2090 O   0  0  0  0  0  0  0  0  0  0  0  0
  182.6310  178.4490  140.5480 C   0  0  1  0  0  3  0  0  0  0  0  0
  185.6360  177.7070  138.5020 N   0  0  0  0  0  0  0  0  0  0  0  0
  184.1300  176.7540  136.9310 N   0  0  0  0  0  2  0  0  0  0  0  0
  180.2110  179.6160  142.4430 C   0  0  0  0  0  0  0  0  0  0  0  0
  181.3320  180.0750  138.8580 C   0  0  0  0  0  0  0  0  0  0  0  0
  183.7900  178.9990  142.4950 C   0  0  0  0  0  0  0  0  0  0  0  0
  186.5480  176.0930  136.9730 C   0  0  0  0  0  1  0  0  0  0  0  0
  181.3710  178.7220  142.7120 C   0  0  0  0  0  2  0  0  0  0  0  0
  181.4890  181.1250  137.9390 C   0  0  0  0  0  3  0  0  0  0  0  0
  178.9330  180.1480  138.4350 C   0  0  0  0  0  3  0  0  0  0  0  0
  179.1150  181.1780  137.5130 C   0  0  0  0  0  3  0  0  0  0  0  0
  179.3100  179.3470  141.3710 N   0  0  0  0  0  2  0  0  0  0  0  0
  184.0470  177.8490  140.4440 C   0  0  1  0  0  3  0  0  0  0  0  0
  182.5190  179.0430  141.8750 N   0  0  0  0  0  0  0  0  0  0  0  0
  184.6490  178.5290  139.2160 C   0  0  2  0  0  3  0  0  0  0  0  0
  186.0940  178.9700  141.5980 C   0  0  0  0  0  1  0  0  0  0  0  0
  182.6200  179.5080  139.4330 C   0  0  2  0  0  3  0  0  0  0  0  0
  1  6  1  0  0  0  0
  4 22  2  0  0  0  0
  4 20  1  0  0  0  0
  5 27  1  6  0  0  0
  5 17  1  0  0  0  0
  6 23  1  0  0  0  0
  7  8  2  0  0  0  0
  8  2  2  0  0  0  0
  9 13  2  0  0  0  0
 10  8  1  6  0  0  0
 10 26  1  0  0  0  0
 10 28  1  0  0  0  0
 12 25  1  1  0  0  0
 13 26  1  0  0  0  0
 14  8  1  0  0  0  0
 14  9  1  0  0  0  0
 15 19  1  0  0  0  0
 15 11  2  0  0  0  0
 16  1  1  0  0  0  0
 16 28  1  0  0  0  0
 17  3  2  0  0  0  0
 18  9  1  0  0  0  0
 20 16  2  0  0  0  0
 21  1  2  0  0  0  0
 22 21  1  0  0  0  0
 23 15  1  0  0  0  0
 24 12  1  0  0  0  0
 24  5  1  0  0  0  0
 25 17  1  0  0  0  0
 25 19  1  0  0  0  0
 26 24  1  0  0  0  0
 28 12  1  0  0  0  0
M  END
>  <MODEL>
2

>  <REMARK>
 VINA RESULT:      -5.8      2.665      5.506
  Name = 
  0 active torsions:
  status: ('A' for Active; 'I' for Inactive)
                            x       y       z     vdW  Elec       q    Type
                         _______ _______ _______ _____ _____    ______ ____

>  <TORSDO>
F 0

$$$$
=
 OpenBabel11122411583D

 28 32  0  0  1  0  0  0  0  0999 V2000
  183.2430  178.7640  138.5890 C   0  0  0  0  0  0  0  0  0  0  0  0
  182.1550  175.8420  139.5400 O   0  0  0  0  0  0  0  0  0  0  0  0
  186.7270  175.3320  135.0680 O   0  0  0  0  0  0  0  0  0  0  0  0
  181.1550  180.0690  137.2470 C   0  0  0  0  0  3  0  0  0  0  0  0
  184.8750  174.0720  135.9580 C   0  0  1  0  0  3  0  0  0  0  0  0
  184.4600  178.2300  139.2600 C   0  0  0  0  0  2  0  0  0  0  0  0
  180.0000  176.6320  138.6630 O   0  0  0  0  0  0  0  0  0  0  0  0
  181.1240  175.6560  138.4600 S   0  0  0  0  0  0  0  0  0  0  0  0
  180.7740  173.1400  137.4980 C   0  0  0  0  0  0  0  0  0  0  0  0
  181.8060  175.8860  136.8610 N   0  0  2  0  0  0  0  0  0  0  0  0
  187.1110  179.0580  136.9310 O   0  0  0  0  0  0  0  0  0  0  0  0
  184.1660  175.9410  137.4300 C   0  0  1  0  0  3  0  0  0  0  0  0
  181.5840  173.4350  136.5270 N   0  0  0  0  0  0  0  0  0  0  0  0
  180.5060  174.0570  138.5510 N   0  0  0  0  0  2  0  0  0  0  0  0
  186.4230  178.3190  137.6810 C   0  0  0  0  0  0  0  0  0  0  0  0
  182.6500  178.1530  137.4560 C   0  0  0  0  0  0  0  0  0  0  0  0
  185.7300  175.2680  135.8370 C   0  0  0  0  0  0  0  0  0  0  0  0
  180.0690  171.8320  137.4820 C   0  0  0  0  0  1  0  0  0  0  0  0
  186.5170  176.8390  137.5350 C   0  0  0  0  0  2  0  0  0  0  0  0
  181.6120  178.8320  136.7960 C   0  0  0  0  0  3  0  0  0  0  0  0
  182.7750  180.0070  139.0310 C   0  0  0  0  0  3  0  0  0  0  0  0
  181.7310  180.6550  138.3720 C   0  0  0  0  0  3  0  0  0  0  0  0
  185.6190  178.9060  138.7010 N   0  0  0  0  0  2  0  0  0  0  0  0
  183.8080  174.5080  136.9900 C   0  0  1  0  0  3  0  0  0  0  0  0
  185.4120  176.2930  136.7600 N   0  0  0  0  0  0  0  0  0  0  0  0
  182.4110  174.6420  136.3890 C   0  0  2  0  0  3  0  0  0  0  0  0
  184.3430  173.6420  134.5940 C   0  0  0  0  0  1  0  0  0  0  0  0
  182.9760  176.7700  136.9160 C   0  0  2  0  0  3  0  0  0  0  0  0
  1 21  1  0  0  0  0
  1  6  1  0  0  0  0
  3 17  2  0  0  0  0
  4 22  1  0  0  0  0
  5 27  1  6  0  0  0
  5 24  1  0  0  0  0
  8 14  1  0  0  0  0
  8  7  2  0  0  0  0
  8  2  2  0  0  0  0
  9 14  1  0  0  0  0
 10 28  1  0  0  0  0
 10  8  1  1  0  0  0
 11 15  2  0  0  0  0
 12 25  1  6  0  0  0
 13  9  2  0  0  0  0
 15 23  1  0  0  0  0
 16  1  2  0  0  0  0
 17  5  1  0  0  0  0
 17 25  1  0  0  0  0
 18  9  1  0  0  0  0
 19 15  1  0  0  0  0
 20  4  2  0  0  0  0
 20 16  1  0  0  0  0
 22 21  2  0  0  0  0
 23  6  1  0  0  0  0
 24 12  1  0  0  0  0
 25 19  1  0  0  0  0
 26 13  1  0  0  0  0
 26 10  1  0  0  0  0
 26 24  1  0  0  0  0
 28 12  1  0  0  0  0
 28 16  1  0  0  0  0
M  END
>  <MODEL>
3

>  <REMARK>
 VINA RESULT:      -5.7      3.618      6.048
  Name = 
  0 active torsions:
  status: ('A' for Active; 'I' for Inactive)
                            x       y       z     vdW  Elec       q    Type
                         _______ _______ _______ _____ _____    ______ ____

>  <TORSDO>
F 0

$$$$
=
 OpenBabel11122411583D

 28 32  0  0  1  0  0  0  0  0999 V2000
  188.4760  175.8760  136.2080 C   0  0  0  0  0  0  0  0  0  0  0  0
  185.9770  177.6380  135.0790 O   0  0  0  0  0  0  0  0  0  0  0  0
  186.9860  178.6800  141.3290 O   0  0  0  0  0  0  0  0  0  0  0  0
  187.7440  173.1710  136.1030 C   0  0  0  0  0  3  0  0  0  0  0  0
  185.2180  178.8420  139.6990 C   0  0  1  0  0  3  0  0  0  0  0  0
  189.0350  177.2500  136.3420 C   0  0  0  0  0  2  0  0  0  0  0  0
  184.9720  175.4490  134.5940 O   0  0  0  0  0  0  0  0  0  0  0  0
  184.8780  176.6800  135.4500 S   0  0  0  0  0  0  0  0  0  0  0  0
  182.5270  177.7500  136.2890 C   0  0  0  0  0  0  0  0  0  0  0  0
  184.9620  176.2140  137.1390 N   0  0  2  0  0  0  0  0  0  0  0  0
  190.5230  177.2100  139.6470 O   0  0  0  0  0  0  0  0  0  0  0  0
  186.6130  177.8130  137.9200 C   0  0  1  0  0  3  0  0  0  0  0  0
  182.9320  177.5950  137.5130 N   0  0  0  0  0  0  0  0  0  0  0  0
  183.3630  177.4400  135.1820 N   0  0  0  0  0  2  0  0  0  0  0  0
  189.7990  177.6400  138.7130 C   0  0  0  0  0  0  0  0  0  0  0  0
  187.3170  175.4380  136.8950 C   0  0  0  0  0  0  0  0  0  0  0  0
  186.5740  178.4800  140.1540 C   0  0  0  0  0  0  0  0  0  0  0  0
  181.1390  178.2160  136.0390 C   0  0  0  0  0  1  0  0  0  0  0  0
  188.7290  178.6310  139.0140 C   0  0  0  0  0  2  0  0  0  0  0  0
  186.9770  174.0770  136.8340 C   0  0  0  0  0  3  0  0  0  0  0  0
  189.2390  174.9560  135.4780 C   0  0  0  0  0  3  0  0  0  0  0  0
  188.8730  173.6120  135.4160 C   0  0  0  0  0  3  0  0  0  0  0  0
  190.0580  177.2230  137.3740 N   0  0  0  0  0  2  0  0  0  0  0  0
  185.2110  178.3790  138.2230 C   0  0  1  0  0  3  0  0  0  0  0  0
  187.4180  178.0090  139.1210 N   0  0  0  0  0  0  0  0  0  0  0  0
  184.2730  177.2020  137.9670 C   0  0  2  0  0  3  0  0  0  0  0  0
  184.1550  178.2150  140.5970 C   0  0  0  0  0  1  0  0  0  0  0  0
  186.3360  176.3260  137.6430 C   0  0  2  0  0  3  0  0  0  0  0  0
  1  6  1  0  0  0  0
  1 16  1  0  0  0  0
  2  8  2  0  0  0  0
  4 20  1  0  0  0  0
  5 17  1  0  0  0  0
  5 27  1  1  0  0  0
  6 23  1  0  0  0  0
  7  8  2  0  0  0  0
  9 13  2  0  0  0  0
 10  8  1  6  0  0  0
 10 28  1  0  0  0  0
 10 26  1  0  0  0  0
 12 24  1  0  0  0  0
 12 25  1  1  0  0  0
 13 26  1  0  0  0  0
 14  8  1  0  0  0  0
 14  9  1  0  0  0  0
 15 19  1  0  0  0  0
 15 11  2  0  0  0  0
 16 28  1  0  0  0  0
 17  3  2  0  0  0  0
 18  9  1  0  0  0  0
 19 25  1  0  0  0  0
 20 16  2  0  0  0  0
 21  1  2  0  0  0  0
 22 21  1  0  0  0  0
 22  4  2  0  0  0  0
 23 15  1  0  0  0  0
 24  5  1  0  0  0  0
 25 17  1  0  0  0  0
 26 24  1  0  0  0  0
 28 12  1  0  0  0  0
M  END
>  <MODEL>
4

>  <REMARK>
 VINA RESULT:      -5.6      3.611      4.889
  Name = 
  0 active torsions:
  status: ('A' for Active; 'I' for Inactive)
                            x       y       z     vdW  Elec       q    Type
                         _______ _______ _______ _____ _____    ______ ____

>  <TORSDO>
F 0

$$$$
=
 OpenBabel11122411583D

 28 32  0  0  1  0  0  0  0  0999 V2000
  189.8030  177.3430  144.3850 C   0  0  0  0  0  0  0  0  0  0  0  0
  188.4090  179.3860  142.2610 O   0  0  0  0  0  0  0  0  0  0  0  0
  184.5990  178.2270  147.2920 O   0  0  0  0  0  0  0  0  0  0  0  0
  190.0380  174.8370  143.1470 C   0  0  0  0  0  3  0  0  0  0  0  0
  184.4470  178.9370  144.9940 C   0  0  1  0  0  3  0  0  0  0  0  0
  189.7580  178.5880  145.2010 C   0  0  0  0  0  2  0  0  0  0  0  0
  188.5870  177.4950  140.7020 O   0  0  0  0  0  0  0  0  0  0  0  0
  187.6360  178.3590  141.4810 S   0  0  0  0  0  0  0  0  0  0  0  0
  185.1770  179.0790  140.5770 C   0  0  0  0  0  0  0  0  0  0  0  0
  186.6610  177.3430  142.5260 N   0  0  2  0  0  0  0  0  0  0  0  0
  188.5490  177.4190  148.4120 O   0  0  0  0  0  0  0  0  0  0  0  0
  186.8730  178.5780  144.6060 C   0  0  1  0  0  3  0  0  0  0  0  0
  184.6630  178.5140  141.6270 N   0  0  0  0  0  0  0  0  0  0  0  0
  186.5840  179.1660  140.3900 N   0  0  0  0  0  2  0  0  0  0  0  0
  188.5780  178.1430  147.3840 C   0  0  0  0  0  0  0  0  0  0  0  0
  188.6440  176.6970  143.8880 C   0  0  0  0  0  0  0  0  0  0  0  0
  185.1630  178.4400  146.1840 C   0  0  0  0  0  0  0  0  0  0  0  0
  184.2740  179.6020  139.5200 C   0  0  0  0  0  1  0  0  0  0  0  0
  187.3890  178.9720  147.0400 C   0  0  0  0  0  2  0  0  0  0  0  0
  188.7870  175.4390  143.2810 C   0  0  0  0  0  3  0  0  0  0  0  0
  191.0540  176.7280  144.2460 C   0  0  0  0  0  3  0  0  0  0  0  0
  191.1750  175.4870  143.6230 C   0  0  0  0  0  3  0  0  0  0  0  0
  189.7700  178.2100  146.6040 N   0  0  0  0  0  2  0  0  0  0  0  0
  185.5600  179.0070  143.9220 C   0  0  1  0  0  3  0  0  0  0  0  0
  186.5650  178.3510  146.0130 N   0  0  0  0  0  0  0  0  0  0  0  0
  185.3780  177.9890  142.7990 C   0  0  2  0  0  3  0  0  0  0  0  0
  183.2580  178.0410  144.6590 C   0  0  0  0  0  1  0  0  0  0  0  0
  187.2390  177.2760  143.8740 C   0  0  2  0  0  3  0  0  0  0  0  0
  1  6  1  0  0  0  0
  4 20  2  0  0  0  0
  4 22  1  0  0  0  0
  5 27  1  6  0  0  0
  5 17  1  0  0  0  0
  6 23  1  0  0  0  0
  7  8  2  0  0  0  0
  8  2  2  0  0  0  0
  9 13  2  0  0  0  0
 10  8  1  6  0  0  0
 10 26  1  0  0  0  0
 10 28  1  0  0  0  0
 12 25  1  1  0  0  0
 13 26  1  0  0  0  0
 14  9  1  0  0  0  0
 14  8  1  0  0  0  0
 15 11  2  0  0  0  0
 16  1  2  0  0  0  0
 17  3  2  0  0  0  0
 18  9  1  0  0  0  0
 19 15  1  0  0  0  0
 20 16  1  0  0  0  0
 21  1  1  0  0  0  0
 22 21  2  0  0  0  0
 23 15  1  0  0  0  0
 24 12  1  0  0  0  0
 24  5  1  0  0  0  0
 25 17  1  0  0  0  0
 25 19  1  0  0  0  0
 26 24  1  0  0  0  0
 28 16  1  0  0  0  0
 28 12  1  0  0  0  0
M  END
>  <MODEL>
5

>  <REMARK>
 VINA RESULT:      -5.5      3.744      6.311
  Name = 
  0 active torsions:
  status: ('A' for Active; 'I' for Inactive)
                            x       y       z     vdW  Elec       q    Type
                         _______ _______ _______ _____ _____    ______ ____

>  <TORSDO>
F 0

$$$$
=
 OpenBabel11122411583D

 28 32  0  0  1  0  0  0  0  0999 V2000
  191.1130  174.8530  135.6180 C   0  0  0  0  0  0  0  0  0  0  0  0
  189.0130  177.3430  135.4700 O   0  0  0  0  0  0  0  0  0  0  0  0
  192.0470  177.1280  141.1190 O   0  0  0  0  0  0  0  0  0  0  0  0
  189.6330  172.4710  135.5760 C   0  0  0  0  0  3  0  0  0  0  0  0
  190.0080  177.9800  140.1570 C   0  0  1  0  0  3  0  0  0  0  0  0
  192.0580  176.0030  135.6560 C   0  0  0  0  0  2  0  0  0  0  0  0
  187.3240  175.5810  135.1890 O   0  0  0  0  0  0  0  0  0  0  0  0
  187.8420  176.6490  136.1100 S   0  0  0  0  0  0  0  0  0  0  0  0
  186.2480  178.1400  137.7270 C   0  0  0  0  0  0  0  0  0  0  0  0
  188.2730  175.9250  137.6470 N   0  0  2  0  0  0  0  0  0  0  0  0
  194.3620  175.0830  138.2980 O   0  0  0  0  0  0  0  0  0  0  0  0
  190.4680  176.9150  137.9610 C   0  0  1  0  0  3  0  0  0  0  0  0
  186.9280  177.7020  138.7430 N   0  0  0  0  0  0  0  0  0  0  0  0
  186.6010  177.8010  136.3920 N   0  0  0  0  0  2  0  0  0  0  0  0
  193.5550  175.8200  137.6750 C   0  0  0  0  0  0  0  0  0  0  0  0
  190.1270  174.6240  136.6100 C   0  0  0  0  0  0  0  0  0  0  0  0
  191.2720  177.2210  140.1280 C   0  0  0  0  0  0  0  0  0  0  0  0
  185.0430  178.9750  137.9670 C   0  0  0  0  0  1  0  0  0  0  0  0
  192.9520  176.9930  138.3690 C   0  0  0  0  0  2  0  0  0  0  0  0
  189.4060  173.4200  136.5720 C   0  0  0  0  0  3  0  0  0  0  0  0
  191.3320  173.8920  134.6230 C   0  0  0  0  0  3  0  0  0  0  0  0
  190.5910  172.7110  134.5940 C   0  0  0  0  0  3  0  0  0  0  0  0
  193.2830  175.5610  136.3000 N   0  0  0  0  0  2  0  0  0  0  0  0
  189.4400  177.7640  138.7340 C   0  0  1  0  0  3  0  0  0  0  0  0
  191.6070  176.7150  138.8500 N   0  0  0  0  0  0  0  0  0  0  0  0
  188.1700  176.9170  138.7160 C   0  0  2  0  0  3  0  0  0  0  0  0
  189.1170  177.5130  141.3050 C   0  0  0  0  0  1  0  0  0  0  0  0
  189.7050  175.6080  137.6900 C   0  0  2  0  0  3  0  0  0  0  0  0
  1  6  1  0  0  0  0
  1 16  1  0  0  0  0
  2  8  2  0  0  0  0
  4 20  1  0  0  0  0
  5 27  1  1  0  0  0
  6 23  1  0  0  0  0
  7  8  2  0  0  0  0
  8 14  1  0  0  0  0
  9 18  1  0  0  0  0
  9 13  2  0  0  0  0
 10  8  1  6  0  0  0
 10 28  1  0  0  0  0
 10 26  1  0  0  0  0
 12 24  1  0  0  0  0
 12 25  1  1  0  0  0
 14  9  1  0  0  0  0
 15 11  2  0  0  0  0
 15 19  1  0  0  0  0
 16 28  1  0  0  0  0
 17  5  1  0  0  0  0
 17  3  2  0  0  0  0
 19 25  1  0  0  0  0
 20 16  2  0  0  0  0
 21  1  2  0  0  0  0
 22 21  1  0  0  0  0
 22  4  2  0  0  0  0
 23 15  1  0  0  0  0
 24  5  1  0  0  0  0
 25 17  1  0  0  0  0
 26 24  1  0  0  0  0
 26 13  1  0  0  0  0
 28 12  1  0  0  0  0
M  END
>  <MODEL>
6

>  <REMARK>
 VINA RESULT:      -5.5      5.227      7.348
  Name = 
  0 active torsions:
  status: ('A' for Active; 'I' for Inactive)
                            x       y       z     vdW  Elec       q    Type
                         _______ _______ _______ _____ _____    ______ ____

>  <TORSDO>
F 0

$$$$
=
 OpenBabel11122411583D

 28 32  0  0  1  0  0  0  0  0999 V2000
  184.5240  174.3030  135.5160 C   0  0  0  0  0  0  0  0  0  0  0  0
  181.9270  176.1870  136.0930 O   0  0  0  0  0  0  0  0  0  0  0  0
  187.2580  178.6280  138.6990 O   0  0  0  0  0  0  0  0  0  0  0  0
  184.1640  171.8880  136.8960 C   0  0  0  0  0  3  0  0  0  0  0  0
  184.8660  178.7180  138.9790 C   0  0  1  0  0  3  0  0  0  0  0  0
  184.8880  175.5120  134.7260 C   0  0  0  0  0  2  0  0  0  0  0  0
  181.0660  174.2130  137.2760 O   0  0  0  0  0  0  0  0  0  0  0  0
  181.5690  175.6190  137.4400 S   0  0  0  0  0  0  0  0  0  0  0  0
  180.6130  177.3490  139.3030 C   0  0  0  0  0  0  0  0  0  0  0  0
  182.9400  175.6160  138.5320 N   0  0  2  0  0  0  0  0  0  0  0  0
  188.3650  176.0440  135.6000 O   0  0  0  0  0  0  0  0  0  0  0  0
  184.4860  176.9780  137.2480 C   0  0  1  0  0  3  0  0  0  0  0  0
  181.8170  177.4450  139.7810 N   0  0  0  0  0  0  0  0  0  0  0  0
  180.3330  176.5830  138.1380 N   0  0  0  0  0  2  0  0  0  0  0  0
  187.1570  176.3520  135.4350 C   0  0  0  0  0  0  0  0  0  0  0  0
  184.3300  174.3220  136.9190 C   0  0  0  0  0  0  0  0  0  0  0  0
  186.1120  178.2120  138.3740 C   0  0  0  0  0  0  0  0  0  0  0  0
  179.4940  178.0140  140.0180 C   0  0  0  0  0  1  0  0  0  0  0  0
  186.6250  177.5910  136.0670 C   0  0  0  0  0  2  0  0  0  0  0  0
  184.1610  173.0990  137.5880 C   0  0  0  0  0  3  0  0  0  0  0  0
  184.5260  173.0810  134.8320 C   0  0  0  0  0  3  0  0  0  0  0  0
  184.3390  171.8800  135.5140 C   0  0  0  0  0  3  0  0  0  0  0  0
  186.3350  175.5470  134.5940 N   0  0  0  0  0  2  0  0  0  0  0  0
  183.7720  177.8880  138.2660 C   0  0  1  0  0  3  0  0  0  0  0  0
  185.9040  177.3130  137.3010 N   0  0  0  0  0  0  0  0  0  0  0  0
  183.0560  176.9130  139.1970 C   0  0  2  0  0  3  0  0  0  0  0  0
  184.9070  178.5950  140.4990 C   0  0  0  0  0  1  0  0  0  0  0  0
  184.2020  175.5660  137.7840 C   0  0  2  0  0  3  0  0  0  0  0  0
  1 16  1  0  0  0  0
  2  8  2  0  0  0  0
  4 20  1  0  0  0  0
  5 27  1  1  0  0  0
  6  1  1  0  0  0  0
  7  8  2  0  0  0  0
  8 14  1  0  0  0  0
  9 13  2  0  0  0  0
  9 18  1  0  0  0  0
 10  8  1  6  0  0  0
 10 26  1  0  0  0  0
 12 25  1  1  0  0  0
 12 28  1  0  0  0  0
 12 24  1  0  0  0  0
 14  9  1  0  0  0  0
 15 11  2  0  0  0  0
 15 19  1  0  0  0  0
 16 20  2  0  0  0  0
 16 28  1  0  0  0  0
 17  3  2  0  0  0  0
 17  5  1  0  0  0  0
 19 25  1  0  0  0  0
 21 22  1  0  0  0  0
 21  1  2  0  0  0  0
 22  4  2  0  0  0  0
 23  6  1  0  0  0  0
 23 15  1  0  0  0  0
 24  5  1  0  0  0  0
 24 26  1  0  0  0  0
 25 17  1  0  0  0  0
 26 13  1  0  0  0  0
 28 10  1  0  0  0  0
M  END
>  <MODEL>
7

>  <REMARK>
 VINA RESULT:      -5.4      2.895      4.416
  Name = 
  0 active torsions:
  status: ('A' for Active; 'I' for Inactive)
                            x       y       z     vdW  Elec       q    Type
                         _______ _______ _______ _____ _____    ______ ____

>  <TORSDO>
F 0

$$$$
=
 OpenBabel11122411583D

 28 32  0  0  1  0  0  0  0  0999 V2000
  187.5190  174.7230  135.5350 C   0  0  0  0  0  0  0  0  0  0  0  0
  184.4030  174.8990  134.5940 O   0  0  0  0  0  0  0  0  0  0  0  0
  185.6800  179.0030  139.3580 O   0  0  0  0  0  0  0  0  0  0  0  0
  187.9270  172.2080  136.7070 C   0  0  0  0  0  3  0  0  0  0  0  0
  183.8080  177.8380  138.3860 C   0  0  1  0  0  3  0  0  0  0  0  0
  187.4910  176.0950  134.9560 C   0  0  0  0  0  2  0  0  0  0  0  0
  184.3090  172.5520  135.3130 O   0  0  0  0  0  0  0  0  0  0  0  0
  183.8370  173.9460  135.6110 S   0  0  0  0  0  0  0  0  0  0  0  0
  181.3780  174.5170  136.6150 C   0  0  0  0  0  0  0  0  0  0  0  0
  184.3100  174.3780  137.2440 N   0  0  2  0  0  0  0  0  0  0  0  0
  189.2700  178.0630  137.4250 O   0  0  0  0  0  0  0  0  0  0  0  0
  185.2640  176.5710  136.8240 C   0  0  1  0  0  3  0  0  0  0  0  0
  181.9610  175.0860  137.6270 N   0  0  0  0  0  0  0  0  0  0  0  0
  182.1240  173.9930  135.5230 N   0  0  0  0  0  2  0  0  0  0  0  0
  188.3240  177.7620  136.6530 C   0  0  0  0  0  0  0  0  0  0  0  0
  186.7280  174.3320  136.6440 C   0  0  0  0  0  0  0  0  0  0  0  0
  185.2400  178.1610  138.5290 C   0  0  0  0  0  0  0  0  0  0  0  0
  179.9010  174.3660  136.6210 C   0  0  0  0  0  1  0  0  0  0  0  0
  186.9930  178.4030  136.8440 C   0  0  0  0  0  2  0  0  0  0  0  0
  186.9580  173.0710  137.2180 C   0  0  0  0  0  3  0  0  0  0  0  0
  188.4890  173.8480  135.0310 C   0  0  0  0  0  3  0  0  0  0  0  0
  188.6880  172.5930  135.6060 C   0  0  0  0  0  3  0  0  0  0  0  0
  188.5590  176.8660  135.5690 N   0  0  0  0  0  2  0  0  0  0  0  0
  183.8030  176.7580  137.2780 C   0  0  1  0  0  3  0  0  0  0  0  0
  186.0660  177.5400  137.5620 N   0  0  0  0  0  0  0  0  0  0  0  0
  183.3920  175.3780  137.7850 C   0  0  2  0  0  3  0  0  0  0  0  0
  183.2070  177.4170  139.7250 C   0  0  0  0  0  1  0  0  0  0  0  0
  185.5750  175.1230  137.2390 C   0  0  2  0  0  3  0  0  0  0  0  0
  1 16  1  0  0  0  0
  2  8  2  0  0  0  0
  4 20  1  0  0  0  0
  5 17  1  0  0  0  0
  5 27  1  1  0  0  0
  6  1  1  0  0  0  0
  6 23  1  0  0  0  0
  7  8  2  0  0  0  0
  9 18  1  0  0  0  0
  9 13  2  0  0  0  0
 10  8  1  6  0  0  0
 10 26  1  0  0  0  0
 12 28  1  0  0  0  0
 12 24  1  0  0  0  0
 12 25  1  1  0  0  0
 13 26  1  0  0  0  0
 14  8  1  0  0  0  0
 14  9  1  0  0  0  0
 15 19  1  0  0  0  0
 15 11  2  0  0  0  0
 16 20  2  0  0  0  0
 16 28  1  0  0  0  0
 17  3  2  0  0  0  0
 19 25  1  0  0  0  0
 21  1  2  0  0  0  0
 21 22  1  0  0  0  0
 22  4  2  0  0  0  0
 23 15  1  0  0  0  0
 24 26  1  0  0  0  0
 24  5  1  0  0  0  0
 25 17  1  0  0  0  0
 28 10  1  0  0  0  0
M  END
>  <MODEL>
8

>  <REMARK>
 VINA RESULT:      -5.4      4.085      5.748
  Name = 
  0 active torsions:
  status: ('A' for Active; 'I' for Inactive)
                            x       y       z     vdW  Elec       q    Type
                         _______ _______ _______ _____ _____    ______ ____

>  <TORSDO>
F 0

$$$$
=
 OpenBabel11122411583D

 28 32  0  0  1  0  0  0  0  0999 V2000
  182.2830  176.8460  137.9450 C   0  0  0  0  0  0  0  0  0  0  0  0
  184.0620  174.1180  137.8030 O   0  0  0  0  0  0  0  0  0  0  0  0
  187.6800  179.3570  137.0150 O   0  0  0  0  0  0  0  0  0  0  0  0
  180.5790  176.8830  135.7170 C   0  0  0  0  0  3  0  0  0  0  0  0
  187.7100  177.0050  136.4920 C   0  0  1  0  0  3  0  0  0  0  0  0
  183.1090  177.0010  139.1740 C   0  0  0  0  0  2  0  0  0  0  0  0
  182.6520  173.5920  135.8610 O   0  0  0  0  0  0  0  0  0  0  0  0
  184.0410  173.9480  136.3090 S   0  0  0  0  0  0  0  0  0  0  0  0
  186.2920  172.9780  135.1380 C   0  0  0  0  0  0  0  0  0  0  0  0
  184.5570  175.4040  135.4790 N   0  0  2  0  0  0  0  0  0  0  0  0
  184.1740  180.4610  139.0130 O   0  0  0  0  0  0  0  0  0  0  0  0
  185.4120  176.6670  137.3690 C   0  0  1  0  0  3  0  0  0  0  0  0
  186.6480  174.2010  134.8880 N   0  0  0  0  0  0  0  0  0  0  0  0
  185.1150  172.6800  135.8790 N   0  0  0  0  0  2  0  0  0  0  0  0
  184.3100  179.2170  139.1290 C   0  0  0  0  0  0  0  0  0  0  0  0
  182.8340  176.7780  136.6410 C   0  0  0  0  0  0  0  0  0  0  0  0
  187.0940  178.2410  137.0100 C   0  0  0  0  0  0  0  0  0  0  0  0
  187.1060  171.8610  134.5940 C   0  0  0  0  0  1  0  0  0  0  0  0
  185.6590  178.6090  138.9530 C   0  0  0  0  0  2  0  0  0  0  0  0
  181.9600  176.8070  135.5420 C   0  0  0  0  0  3  0  0  0  0  0  0
  180.8930  176.9230  138.1070 C   0  0  0  0  0  3  0  0  0  0  0  0
  180.0440  176.9320  137.0020 C   0  0  0  0  0  3  0  0  0  0  0  0
  183.1870  178.4170  139.4900 N   0  0  0  0  0  2  0  0  0  0  0  0
  186.5970  175.9500  136.6910 C   0  0  1  0  0  3  0  0  0  0  0  0
  185.8360  178.0380  137.6260 N   0  0  0  0  0  0  0  0  0  0  0  0
  186.0150  175.4340  135.3770 C   0  0  2  0  0  3  0  0  0  0  0  0
  188.1930  177.1970  135.0570 C   0  0  0  0  0  1  0  0  0  0  0  0
  184.3050  176.5910  136.3050 C   0  0  2  0  0  3  0  0  0  0  0  0
  1 21  1  0  0  0  0
  1  6  1  0  0  0  0
  4 22  1  0  0  0  0
  5 27  1  6  0  0  0
  5 24  1  0  0  0  0
  5 17  1  0  0  0  0
  6 23  1  0  0  0  0
  7  8  2  0  0  0  0
  8  2  2  0  0  0  0
  9 14  1  0  0  0  0
 10 28  1  0  0  0  0
 10  8  1  1  0  0  0
 11 15  2  0  0  0  0
 12 25  1  6  0  0  0
 13  9  2  0  0  0  0
 13 26  1  0  0  0  0
 14  8  1  0  0  0  0
 15 23  1  0  0  0  0
 16  1  2  0  0  0  0
 17  3  2  0  0  0  0
 17 25  1  0  0  0  0
 18  9  1  0  0  0  0
 19 15  1  0  0  0  0
 20  4  2  0  0  0  0
 20 16  1  0  0  0  0
 22 21  2  0  0  0  0
 24 12  1  0  0  0  0
 25 19  1  0  0  0  0
 26 10  1  0  0  0  0
 26 24  1  0  0  0  0
 28 16  1  0  0  0  0
 28 12  1  0  0  0  0
M  END
>  <MODEL>
9

>  <REMARK>
 VINA RESULT:      -5.3      3.639      6.897
  Name = 
  0 active torsions:
  status: ('A' for Active; 'I' for Inactive)
                            x       y       z     vdW  Elec       q    Type
                         _______ _______ _______ _____ _____    ______ ____

>  <TORSDO>
F 0

$$$$
