=
 OpenBabel11122410233D

 30 35  0  0  1  0  0  0  0  0999 V2000
  189.5540  177.1220  143.5890 C   0  0  1  0  0  3  0  0  0  0  0  0
  191.4060  176.1060  145.0380 C   0  0  0  0  0  0  0  0  0  0  0  0
  187.3760  178.2070  147.1930 C   0  0  0  0  0  2  0  0  0  0  0  0
  188.3290  178.0700  143.6320 C   0  0  1  0  0  3  0  0  0  0  0  0
  190.4990  177.6430  142.5200 C   0  0  0  0  0  2  0  0  0  0  0  0
  187.8470  177.8590  140.0050 O   0  0  0  0  0  0  0  0  0  0  0  0
  185.2160  177.7880  142.7900 C   0  0  1  0  0  3  0  0  0  0  0  0
  188.4110  177.8490  141.1340 C   0  0  0  0  0  0  0  0  0  0  0  0
  185.0020  177.9640  144.2910 C   0  0  2  0  0  3  0  0  0  0  0  0
  186.1390  178.5630  146.4560 C   0  0  0  0  0  0  0  0  0  0  0  0
  189.8270  177.5960  141.2260 N   0  0  0  0  0  0  0  0  0  0  0  0
  187.6360  178.0640  142.3320 N   0  0  0  0  0  0  0  0  0  0  0  0
  191.9590  175.8170  146.2900 C   0  0  0  0  0  3  0  0  0  0  0  0
  183.9040  178.9990  144.4140 C   0  0  0  0  0  2  0  0  0  0  0  0
  183.8800  178.1230  142.1460 C   0  0  0  0  0  2  0  0  0  0  0  0
  192.0360  175.6170  143.9000 O   0  0  0  0  0  1  0  0  0  0  0  0
  188.3290  178.0880  146.0270 C   0  0  2  0  0  3  0  0  0  0  0  0
  191.3360  176.2590  147.4580 C   0  0  0  0  0  3  0  0  0  0  0  0
  190.2240  176.8700  144.9430 C   0  0  0  0  0  0  0  0  0  0  0  0
  187.4870  177.6590  144.8400 C   0  0  1  0  0  3  0  0  0  0  0  0
  185.1020  178.9800  147.0360 O   0  0  0  0  0  0  0  0  0  0  0  0
  186.2080  178.3310  145.0440 N   0  0  0  0  0  0  0  0  0  0  0  0
  183.0100  178.7640  143.2160 C   0  0  0  0  0  2  0  0  0  0  0  0
  186.2920  180.1330  142.5640 C   0  0  0  0  0  1  0  0  0  0  0  0
  190.1440  176.9790  147.3850 C   0  0  0  0  0  3  0  0  0  0  0  0
  189.5680  177.2570  146.1390 C   0  0  0  0  0  0  0  0  0  0  0  0
  186.3110  178.6590  142.1690 C   0  0  2  0  0  3  0  0  0  0  0  0
  190.5930  177.1560  140.0690 C   0  0  0  0  0  2  0  0  0  0  0  0
  192.8000  176.9160  139.2170 O   0  0  0  0  0  1  0  0  0  0  0  0
  192.0670  177.4570  140.2720 C   0  0  0  0  0  2  0  0  0  0  0  0
  1  5  1  6  0  0  0
  1  4  1  0  0  0  0
  1 19  1  0  0  0  0
  2 13  1  0  0  0  0
  4 12  1  6  0  0  0
  4 20  1  0  0  0  0
  6  8  2  0  0  0  0
  7 15  1  6  0  0  0
  7  9  1  0  0  0  0
  8 11  1  0  0  0  0
  8 12  1  0  0  0  0
  9 14  1  6  0  0  0
  9 22  1  0  0  0  0
 10 21  2  0  0  0  0
 10  3  1  0  0  0  0
 11  5  1  0  0  0  0
 13 18  2  0  0  0  0
 15 23  1  0  0  0  0
 16  2  1  0  0  0  0
 17 26  1  0  0  0  0
 17  3  1  1  0  0  0
 19  2  2  0  0  0  0
 19 26  1  0  0  0  0
 20 22  1  6  0  0  0
 20 17  1  0  0  0  0
 22 10  1  0  0  0  0
 23 14  1  0  0  0  0
 25 18  1  0  0  0  0
 26 25  2  0  0  0  0
 27 12  1  0  0  0  0
 27 24  1  1  0  0  0
 27  7  1  0  0  0  0
 28 30  1  0  0  0  0
 28 11  1  0  0  0  0
 29 30  1  0  0  0  0
M  END
>  <MODEL>
1

>  <REMARK>
 VINA RESULT:     -10.0      0.000      0.000
  Name = 
  2 active torsions:
  status: ('A' for Active; 'I' for Inactive)
    1  A    between atoms: N_11  and  C_28
    2  A    between atoms: C_28  and  C_30
                            x       y       z     vdW  Elec       q    Type
                         _______ _______ _______ _____ _____    ______ ____

>  <TORSDO>
F 2

$$$$
=
 OpenBabel11122410233D

 30 35  0  0  1  0  0  0  0  0999 V2000
  186.6390  178.0640  142.0330 C   0  0  1  0  0  3  0  0  0  0  0  0
  187.7070  177.6550  144.3250 C   0  0  0  0  0  0  0  0  0  0  0  0
  182.8550  178.9400  143.9890 C   0  0  0  0  0  2  0  0  0  0  0  0
  185.4070  178.6960  141.3360 C   0  0  1  0  0  3  0  0  0  0  0  0
  187.8810  178.6900  141.4230 C   0  0  0  0  0  2  0  0  0  0  0  0
  186.7660  178.0360  137.9970 O   0  0  0  0  0  0  0  0  0  0  0  0
  183.1730  177.6100  139.2600 C   0  0  1  0  0  3  0  0  0  0  0  0
  186.7120  178.2660  139.2370 C   0  0  0  0  0  0  0  0  0  0  0  0
  182.2400  177.8710  140.4390 C   0  0  2  0  0  3  0  0  0  0  0  0
  182.0840  178.9230  142.7220 C   0  0  0  0  0  0  0  0  0  0  0  0
  187.9300  178.3630  140.0010 N   0  0  0  0  0  0  0  0  0  0  0  0
  185.4340  178.4040  139.8930 N   0  0  0  0  0  0  0  0  0  0  0  0
  187.6300  177.6240  145.7210 C   0  0  0  0  0  3  0  0  0  0  0  0
  181.0650  178.6250  139.8530 C   0  0  0  0  0  2  0  0  0  0  0  0
  182.2760  177.5580  138.0340 C   0  0  0  0  0  2  0  0  0  0  0  0
  188.8750  177.2230  143.7100 O   0  0  0  0  0  1  0  0  0  0  0  0
  184.2560  178.9390  143.4220 C   0  0  2  0  0  3  0  0  0  0  0  0
  186.4600  178.0140  146.3750 C   0  0  0  0  0  3  0  0  0  0  0  0
  186.6080  178.1060  143.5640 C   0  0  0  0  0  0  0  0  0  0  0  0
  184.1690  178.2140  142.0920 C   0  0  1  0  0  3  0  0  0  0  0  0
  180.8440  179.1360  142.6820 O   0  0  0  0  0  0  0  0  0  0  0  0
  182.8590  178.5820  141.5660 N   0  0  0  0  0  0  0  0  0  0  0  0
  180.9080  178.0740  138.4530 C   0  0  0  0  0  2  0  0  0  0  0  0
  183.8260  180.1100  139.0890 C   0  0  0  0  0  1  0  0  0  0  0  0
  185.3500  178.4230  145.6360 C   0  0  0  0  0  3  0  0  0  0  0  0
  185.4060  178.4390  144.2370 C   0  0  0  0  0  0  0  0  0  0  0  0
  184.2730  178.6520  139.0410 C   0  0  2  0  0  3  0  0  0  0  0  0
  189.2180  178.0100  139.4220 C   0  0  0  0  0  2  0  0  0  0  0  0
  190.5970  176.0790  139.5740 O   0  0  0  0  0  1  0  0  0  0  0  0
  189.9610  177.0560  140.3380 C   0  0  0  0  0  2  0  0  0  0  0  0
  1  5  1  6  0  0  0
  1 19  1  0  0  0  0
  2 13  1  0  0  0  0
  4 12  1  6  0  0  0
  4  1  1  0  0  0  0
  4 20  1  0  0  0  0
  6  8  2  0  0  0  0
  7 15  1  6  0  0  0
  7  9  1  0  0  0  0
  8 12  1  0  0  0  0
  8 11  1  0  0  0  0
  9 14  1  6  0  0  0
  9 22  1  0  0  0  0
 10  3  1  0  0  0  0
 11  5  1  0  0  0  0
 13 18  2  0  0  0  0
 15 23  1  0  0  0  0
 16  2  1  0  0  0  0
 17  3  1  1  0  0  0
 17 26  1  0  0  0  0
 19 26  1  0  0  0  0
 19  2  2  0  0  0  0
 20 22  1  6  0  0  0
 20 17  1  0  0  0  0
 21 10  2  0  0  0  0
 22 10  1  0  0  0  0
 23 14  1  0  0  0  0
 25 18  1  0  0  0  0
 26 25  2  0  0  0  0
 27 24  1  1  0  0  0
 27  7  1  0  0  0  0
 27 12  1  0  0  0  0
 28 11  1  0  0  0  0
 28 30  1  0  0  0  0
 29 30  1  0  0  0  0
M  END
>  <MODEL>
2

>  <REMARK>
 VINA RESULT:      -9.7      2.684      4.228
  Name = 
  2 active torsions:
  status: ('A' for Active; 'I' for Inactive)
    1  A    between atoms: N_11  and  C_28
    2  A    between atoms: C_28  and  C_30
                            x       y       z     vdW  Elec       q    Type
                         _______ _______ _______ _____ _____    ______ ____

>  <TORSDO>
F 2

$$$$
=
 OpenBabel11122410233D

 30 35  0  0  1  0  0  0  0  0999 V2000
  187.2640  178.1830  140.4710 C   0  0  1  0  0  3  0  0  0  0  0  0
  184.9740  178.9970  139.6630 C   0  0  0  0  0  0  0  0  0  0  0  0
  185.6750  177.8170  144.5020 C   0  0  0  0  0  2  0  0  0  0  0  0
  187.9800  177.4650  141.6440 C   0  0  1  0  0  3  0  0  0  0  0  0
  187.5820  177.4130  139.2010 C   0  0  0  0  0  2  0  0  0  0  0  0
  191.1840  177.4230  139.8650 O   0  0  0  0  0  0  0  0  0  0  0  0
  190.4900  178.1940  143.5540 C   0  0  1  0  0  3  0  0  0  0  0  0
  189.9390  177.4400  140.0770 C   0  0  0  0  0  0  0  0  0  0  0  0
  189.4100  178.1950  144.6330 C   0  0  2  0  0  3  0  0  0  0  0  0
  187.0090  177.6100  145.1150 C   0  0  0  0  0  0  0  0  0  0  0  0
  189.0220  177.4560  138.9660 N   0  0  0  0  0  0  0  0  0  0  0  0
  189.4370  177.4700  141.4300 N   0  0  0  0  0  0  0  0  0  0  0  0
  183.6300  179.3000  139.9030 C   0  0  0  0  0  3  0  0  0  0  0  0
  189.9880  177.3760  145.7690 C   0  0  0  0  0  2  0  0  0  0  0  0
  191.8080  178.0340  144.2950 C   0  0  0  0  0  2  0  0  0  0  0  0
  185.5060  179.2660  138.4080 O   0  0  0  0  0  1  0  0  0  0  0  0
  186.0490  177.6650  143.0460 C   0  0  2  0  0  3  0  0  0  0  0  0
  183.0680  179.0790  141.1620 C   0  0  0  0  0  3  0  0  0  0  0  0
  185.7700  178.4390  140.6860 C   0  0  0  0  0  0  0  0  0  0  0  0
  187.4910  178.1210  142.9350 C   0  0  1  0  0  3  0  0  0  0  0  0
  187.1660  177.4310  146.3520 O   0  0  0  0  0  0  0  0  0  0  0  0
  188.1010  177.6970  144.1910 N   0  0  0  0  0  0  0  0  0  0  0  0
  191.4760  177.6500  145.7280 C   0  0  0  0  0  2  0  0  0  0  0  0
  190.1010  175.6900  143.0210 C   0  0  0  0  0  1  0  0  0  0  0  0
  183.8510  178.5680  142.1960 C   0  0  0  0  0  3  0  0  0  0  0  0
  185.2040  178.2800  141.9760 C   0  0  0  0  0  0  0  0  0  0  0  0
  190.3670  177.0970  142.4930 C   0  0  2  0  0  3  0  0  0  0  0  0
  189.4900  177.6520  137.6010 C   0  0  0  0  0  2  0  0  0  0  0  0
  188.9570  179.9660  137.4890 O   0  0  0  0  0  1  0  0  0  0  0  0
  188.6700  178.7290  136.9160 C   0  0  0  0  0  2  0  0  0  0  0  0
  1  5  1  6  0  0  0
  1 19  1  0  0  0  0
  1  4  1  0  0  0  0
  2 13  2  0  0  0  0
  2 19  1  0  0  0  0
  3 10  1  0  0  0  0
  4 12  1  6  0  0  0
  4 20  1  0  0  0  0
  6  8  2  0  0  0  0
  7 15  1  1  0  0  0
  7  9  1  0  0  0  0
  8 12  1  0  0  0  0
  9 14  1  1  0  0  0
 10 21  2  0  0  0  0
 11  5  1  0  0  0  0
 11  8  1  0  0  0  0
 12 27  1  0  0  0  0
 13 18  1  0  0  0  0
 15 23  1  0  0  0  0
 16  2  1  0  0  0  0
 17  3  1  1  0  0  0
 18 25  2  0  0  0  0
 19 26  2  0  0  0  0
 20 17  1  0  0  0  0
 20 22  1  1  0  0  0
 22  9  1  0  0  0  0
 22 10  1  0  0  0  0
 23 14  1  0  0  0  0
 26 25  1  0  0  0  0
 26 17  1  0  0  0  0
 27 24  1  1  0  0  0
 27  7  1  0  0  0  0
 28 11  1  0  0  0  0
 30 29  1  0  0  0  0
 30 28  1  0  0  0  0
M  END
>  <MODEL>
3

>  <REMARK>
 VINA RESULT:      -9.2      1.924      5.796
  Name = 
  2 active torsions:
  status: ('A' for Active; 'I' for Inactive)
    1  A    between atoms: N_11  and  C_28
    2  A    between atoms: C_28  and  C_30
                            x       y       z     vdW  Elec       q    Type
                         _______ _______ _______ _____ _____    ______ ____

>  <TORSDO>
F 2

$$$$
=
 OpenBabel11122410233D

 30 35  0  0  1  0  0  0  0  0999 V2000
  188.1760  177.7200  142.2810 C   0  0  1  0  0  3  0  0  0  0  0  0
  187.0250  177.7710  144.5690 C   0  0  0  0  0  0  0  0  0  0  0  0
  184.4820  179.0710  140.4290 C   0  0  0  0  0  2  0  0  0  0  0  0
  188.0500  178.2220  140.8200 C   0  0  1  0  0  3  0  0  0  0  0  0
  189.5260  178.1770  142.8070 C   0  0  0  0  0  2  0  0  0  0  0  0
  191.3230  176.8510  139.9040 O   0  0  0  0  0  0  0  0  0  0  0  0
  188.0450  176.7810  137.9210 C   0  0  1  0  0  3  0  0  0  0  0  0
  190.3860  177.3350  140.5980 C   0  0  0  0  0  0  0  0  0  0  0  0
  186.6110  177.3030  137.8880 C   0  0  2  0  0  3  0  0  0  0  0  0
  184.9620  178.8100  139.0500 C   0  0  0  0  0  0  0  0  0  0  0  0
  190.5810  177.5610  142.0080 N   0  0  0  0  0  0  0  0  0  0  0  0
  189.1140  177.6360  139.9870 N   0  0  0  0  0  0  0  0  0  0  0  0
  185.9090  178.0320  145.3700 C   0  0  0  0  0  3  0  0  0  0  0  0
  186.4570  177.9460  136.5250 C   0  0  0  0  0  2  0  0  0  0  0  0
  188.4090  176.4960  136.4730 C   0  0  0  0  0  2  0  0  0  0  0  0
  188.1460  177.1940  145.1520 O   0  0  0  0  0  1  0  0  0  0  0  0
  185.7870  178.9200  141.1740 C   0  0  2  0  0  3  0  0  0  0  0  0
  184.7500  178.5780  144.8140 C   0  0  0  0  0  3  0  0  0  0  0  0
  186.9990  178.0800  143.1920 C   0  0  0  0  0  0  0  0  0  0  0  0
  186.6170  177.9370  140.3710 C   0  0  1  0  0  3  0  0  0  0  0  0
  184.2560  179.0390  138.0320 O   0  0  0  0  0  0  0  0  0  0  0  0
  186.2650  178.2180  138.9830 N   0  0  0  0  0  0  0  0  0  0  0  0
  187.3280  177.1200  135.6040 C   0  0  0  0  0  2  0  0  0  0  0  0
  189.0230  179.1750  138.0470 C   0  0  0  0  0  1  0  0  0  0  0  0
  184.6920  178.8500  143.4470 C   0  0  0  0  0  3  0  0  0  0  0  0
  185.7950  178.5730  142.6300 C   0  0  0  0  0  0  0  0  0  0  0  0
  189.0820  177.7290  138.5290 C   0  0  2  0  0  3  0  0  0  0  0  0
  191.7630  177.0640  142.6980 C   0  0  0  0  0  2  0  0  0  0  0  0
  191.7470  176.3940  144.9780 O   0  0  0  0  0  1  0  0  0  0  0  0
  191.3750  175.9910  143.6970 C   0  0  0  0  0  2  0  0  0  0  0  0
  1  5  1  1  0  0  0
  1 19  1  0  0  0  0
  2 16  1  0  0  0  0
  2 13  1  0  0  0  0
  4 12  1  6  0  0  0
  4  1  1  0  0  0  0
  6  8  2  0  0  0  0
  7 15  1  6  0  0  0
  7 27  1  0  0  0  0
  8 11  1  0  0  0  0
  9 14  1  6  0  0  0
  9  7  1  0  0  0  0
  9 22  1  0  0  0  0
 10  3  1  0  0  0  0
 11 28  1  0  0  0  0
 11  5  1  0  0  0  0
 12  8  1  0  0  0  0
 17  3  1  6  0  0  0
 17 26  1  0  0  0  0
 18 13  2  0  0  0  0
 19  2  2  0  0  0  0
 20 22  1  6  0  0  0
 20  4  1  0  0  0  0
 20 17  1  0  0  0  0
 21 10  2  0  0  0  0
 22 10  1  0  0  0  0
 23 15  1  0  0  0  0
 23 14  1  0  0  0  0
 25 18  1  0  0  0  0
 26 19  1  0  0  0  0
 26 25  2  0  0  0  0
 27 24  1  1  0  0  0
 27 12  1  0  0  0  0
 28 30  1  0  0  0  0
 30 29  1  0  0  0  0
M  END
>  <MODEL>
4

>  <REMARK>
 VINA RESULT:      -8.9      2.608      5.602
  Name = 
  2 active torsions:
  status: ('A' for Active; 'I' for Inactive)
    1  A    between atoms: N_11  and  C_28
    2  A    between atoms: C_28  and  C_30
                            x       y       z     vdW  Elec       q    Type
                         _______ _______ _______ _____ _____    ______ ____

>  <TORSDO>
F 2

$$$$
=
 OpenBabel11122410233D

 30 35  0  0  1  0  0  0  0  0999 V2000
  186.3670  177.9530  141.4740 C   0  0  1  0  0  3  0  0  0  0  0  0
  187.6850  177.4930  143.6210 C   0  0  0  0  0  0  0  0  0  0  0  0
  182.9280  179.1070  143.8700 C   0  0  0  0  0  2  0  0  0  0  0  0
  185.1030  178.6620  140.9250 C   0  0  1  0  0  3  0  0  0  0  0  0
  187.5630  178.4860  140.7020 C   0  0  0  0  0  2  0  0  0  0  0  0
  185.9830  177.8780  137.4550 O   0  0  0  0  0  0  0  0  0  0  0  0
  182.5580  177.7130  139.1640 C   0  0  1  0  0  3  0  0  0  0  0  0
  186.1020  178.1230  138.6870 C   0  0  0  0  0  0  0  0  0  0  0  0
  181.8000  178.0500  140.4460 C   0  0  2  0  0  3  0  0  0  0  0  0
  182.0040  179.1320  142.7100 C   0  0  0  0  0  0  0  0  0  0  0  0
  187.4100  178.1430  139.2920 N   0  0  0  0  0  0  0  0  0  0  0  0
  184.9290  178.3550  139.4950 N   0  0  0  0  0  0  0  0  0  0  0  0
  187.7830  177.4800  145.0170 C   0  0  0  0  0  3  0  0  0  0  0  0
  180.6140  178.8780  139.9970 C   0  0  0  0  0  2  0  0  0  0  0  0
  181.5120  177.7120  138.0600 C   0  0  0  0  0  2  0  0  0  0  0  0
  188.7350  176.9750  142.8730 O   0  0  0  0  0  1  0  0  0  0  0  0
  184.2420  179.0040  143.1330 C   0  0  2  0  0  3  0  0  0  0  0  0
  186.7330  177.9570  145.8040 C   0  0  0  0  0  3  0  0  0  0  0  0
  186.5320  178.0110  142.9950 C   0  0  0  0  0  0  0  0  0  0  0  0
  183.9410  178.2740  141.8380 C   0  0  1  0  0  3  0  0  0  0  0  0
  180.7860  179.4300  142.8210 O   0  0  0  0  0  0  0  0  0  0  0  0
  182.6020  178.7270  141.4730 N   0  0  0  0  0  0  0  0  0  0  0  0
  180.2460  178.3250  138.6380 C   0  0  0  0  0  2  0  0  0  0  0  0
  183.3510  180.1610  138.8680 C   0  0  0  0  0  1  0  0  0  0  0  0
  185.5690  178.4340  145.2030 C   0  0  0  0  0  3  0  0  0  0  0  0
  185.4490  178.4330  143.8070 C   0  0  0  0  0  0  0  0  0  0  0  0
  183.6890  178.6750  138.7900 C   0  0  2  0  0  3  0  0  0  0  0  0
  188.5880  177.6960  138.5620 C   0  0  0  0  0  2  0  0  0  0  0  0
  189.0730  179.9300  137.9100 O   0  0  0  0  0  1  0  0  0  0  0  0
  188.8830  178.6420  137.4130 C   0  0  0  0  0  2  0  0  0  0  0  0
  1  5  1  6  0  0  0
  1 19  1  0  0  0  0
  2 13  1  0  0  0  0
  4 12  1  6  0  0  0
  4  1  1  0  0  0  0
  4 20  1  0  0  0  0
  6  8  2  0  0  0  0
  7 15  1  6  0  0  0
  7  9  1  0  0  0  0
  8 11  1  0  0  0  0
  8 12  1  0  0  0  0
  9 14  1  6  0  0  0
  9 22  1  0  0  0  0
 10 21  2  0  0  0  0
 10  3  1  0  0  0  0
 11  5  1  0  0  0  0
 13 18  2  0  0  0  0
 15 23  1  0  0  0  0
 16  2  1  0  0  0  0
 17 26  1  0  0  0  0
 17  3  1  1  0  0  0
 19  2  2  0  0  0  0
 19 26  1  0  0  0  0
 20 22  1  6  0  0  0
 20 17  1  0  0  0  0
 22 10  1  0  0  0  0
 23 14  1  0  0  0  0
 25 18  1  0  0  0  0
 26 25  2  0  0  0  0
 27 24  1  1  0  0  0
 27  7  1  0  0  0  0
 27 12  1  0  0  0  0
 28 11  1  0  0  0  0
 30 29  1  0  0  0  0
 30 28  1  0  0  0  0
M  END
>  <MODEL>
5

>  <REMARK>
 VINA RESULT:      -8.7      3.001      4.601
  Name = 
  2 active torsions:
  status: ('A' for Active; 'I' for Inactive)
    1  A    between atoms: N_11  and  C_28
    2  A    between atoms: C_28  and  C_30
                            x       y       z     vdW  Elec       q    Type
                         _______ _______ _______ _____ _____    ______ ____

>  <TORSDO>
F 2

$$$$
=
 OpenBabel11122410233D

 30 35  0  0  1  0  0  0  0  0999 V2000
  185.1870  178.6870  141.9390 C   0  0  1  0  0  3  0  0  0  0  0  0
  184.8940  179.0010  144.4650 C   0  0  0  0  0  0  0  0  0  0  0  0
  189.1560  177.0540  142.6350 C   0  0  0  0  0  2  0  0  0  0  0  0
  186.0440  177.9580  140.8730 C   0  0  1  0  0  3  0  0  0  0  0  0
  183.7340  178.3210  141.6870 C   0  0  0  0  0  2  0  0  0  0  0  0
  183.9360  179.1680  138.1300 O   0  0  0  0  0  0  0  0  0  0  0  0
  187.7560  178.9180  138.2990 C   0  0  1  0  0  3  0  0  0  0  0  0
  184.2960  178.8000  139.2830 C   0  0  0  0  0  0  0  0  0  0  0  0
  188.9240  178.3960  139.1330 C   0  0  2  0  0  3  0  0  0  0  0  0
  189.5310  177.0930  141.2000 C   0  0  0  0  0  0  0  0  0  0  0  0
  183.3450  178.8020  140.3650 N   0  0  0  0  0  0  0  0  0  0  0  0
  185.6630  178.4040  139.5220 N   0  0  0  0  0  0  0  0  0  0  0  0
  185.3650  178.8690  145.7750 C   0  0  0  0  0  3  0  0  0  0  0  0
  189.7370  177.5440  138.1820 C   0  0  0  0  0  2  0  0  0  0  0  0
  188.2670  178.9680  136.8680 C   0  0  0  0  0  2  0  0  0  0  0  0
  183.6930  179.6640  144.2490 O   0  0  0  0  0  1  0  0  0  0  0  0
  187.6750  177.3230  142.5070 C   0  0  2  0  0  3  0  0  0  0  0  0
  186.5860  178.2420  146.0300 C   0  0  0  0  0  3  0  0  0  0  0  0
  185.6390  178.4760  143.3870 C   0  0  0  0  0  0  0  0  0  0  0  0
  187.5090  178.1670  141.2580 C   0  0  1  0  0  3  0  0  0  0  0  0
  190.6530  176.7040  140.7830 O   0  0  0  0  0  0  0  0  0  0  0  0
  188.5330  177.6680  140.3470 N   0  0  0  0  0  0  0  0  0  0  0  0
  189.5870  178.2130  136.8330 C   0  0  0  0  0  2  0  0  0  0  0  0
  186.6590  176.5750  138.1790 C   0  0  0  0  0  1  0  0  0  0  0  0
  187.3550  177.7550  144.9730 C   0  0  0  0  0  3  0  0  0  0  0  0
  186.9060  177.8980  143.6540 C   0  0  0  0  0  0  0  0  0  0  0  0
  186.4760  178.0800  138.3520 C   0  0  2  0  0  3  0  0  0  0  0  0
  182.0270  179.4030  140.2140 C   0  0  0  0  0  2  0  0  0  0  0  0
  180.4930  180.2150  141.8380 O   0  0  0  0  0  1  0  0  0  0  0  0
  181.1570  179.0670  141.4100 C   0  0  0  0  0  2  0  0  0  0  0  0
  1  5  1  1  0  0  0
  1 19  1  0  0  0  0
  2 13  1  0  0  0  0
  4 12  1  6  0  0  0
  4 20  1  0  0  0  0
  4  1  1  0  0  0  0
  6  8  2  0  0  0  0
  7 15  1  6  0  0  0
  7 27  1  0  0  0  0
  7  9  1  0  0  0  0
  8 12  1  0  0  0  0
  8 11  1  0  0  0  0
  9 14  1  6  0  0  0
  9 22  1  0  0  0  0
 10  3  1  0  0  0  0
 11  5  1  0  0  0  0
 13 18  2  0  0  0  0
 16  2  1  0  0  0  0
 17  3  1  1  0  0  0
 17 26  1  0  0  0  0
 19 26  1  0  0  0  0
 19  2  2  0  0  0  0
 20 22  1  6  0  0  0
 20 17  1  0  0  0  0
 21 10  2  0  0  0  0
 22 10  1  0  0  0  0
 23 15  1  0  0  0  0
 23 14  1  0  0  0  0
 25 18  1  0  0  0  0
 26 25  2  0  0  0  0
 27 24  1  1  0  0  0
 27 12  1  0  0  0  0
 28 11  1  0  0  0  0
 28 30  1  0  0  0  0
 30 29  1  0  0  0  0
M  END
>  <MODEL>
6

>  <REMARK>
 VINA RESULT:      -7.4      2.827      6.697
  Name = 
  2 active torsions:
  status: ('A' for Active; 'I' for Inactive)
    1  A    between atoms: N_11  and  C_28
    2  A    between atoms: C_28  and  C_30
                            x       y       z     vdW  Elec       q    Type
                         _______ _______ _______ _____ _____    ______ ____

>  <TORSDO>
F 2

$$$$
=
 OpenBabel11122410233D

 30 35  0  0  1  0  0  0  0  0999 V2000
  186.0710  178.2120  141.7370 C   0  0  1  0  0  3  0  0  0  0  0  0
  184.5560  178.3430  139.6760 C   0  0  0  0  0  0  0  0  0  0  0  0
  189.5260  177.7880  139.1300 C   0  0  0  0  0  2  0  0  0  0  0  0
  187.5470  178.3210  142.1970 C   0  0  1  0  0  3  0  0  0  0  0  0
  185.2620  179.2050  142.5540 C   0  0  0  0  0  2  0  0  0  0  0  0
  186.6280  178.0000  145.7310 O   0  0  0  0  0  0  0  0  0  0  0  0
  189.5530  176.3910  143.8500 C   0  0  1  0  0  3  0  0  0  0  0  0
  186.5510  178.2660  144.4990 C   0  0  0  0  0  0  0  0  0  0  0  0
  190.3030  176.3680  142.5210 C   0  0  2  0  0  3  0  0  0  0  0  0
  190.4410  177.4240  140.2390 C   0  0  0  0  0  0  0  0  0  0  0  0
  185.3400  178.8360  143.9640 N   0  0  0  0  0  0  0  0  0  0  0  0
  187.6610  177.9750  143.6250 N   0  0  0  0  0  0  0  0  0  0  0  0
  184.3790  178.3670  138.2880 C   0  0  0  0  0  3  0  0  0  0  0  0
  191.7530  176.6170  142.8820 C   0  0  0  0  0  2  0  0  0  0  0  0
  190.5640  175.9510  144.8970 C   0  0  0  0  0  2  0  0  0  0  0  0
  183.4330  178.3230  140.4930 O   0  0  0  0  0  1  0  0  0  0  0  0
  188.3380  178.2550  139.9380 C   0  0  2  0  0  3  0  0  0  0  0  0
  185.4820  178.3500  137.4330 C   0  0  0  0  0  3  0  0  0  0  0  0
  185.8560  178.3280  140.2250 C   0  0  0  0  0  0  0  0  0  0  0  0
  188.3790  177.4720  141.2360 C   0  0  1  0  0  3  0  0  0  0  0  0
  191.6620  177.1770  140.0560 O   0  0  0  0  0  0  0  0  0  0  0  0
  189.8030  177.3160  141.5180 N   0  0  0  0  0  0  0  0  0  0  0  0
  191.9340  175.9670  144.2360 C   0  0  0  0  0  2  0  0  0  0  0  0
  189.8890  178.9450  144.1140 C   0  0  0  0  0  1  0  0  0  0  0  0
  186.7730  178.2920  137.9590 C   0  0  0  0  0  3  0  0  0  0  0  0
  186.9640  178.2460  139.3450 C   0  0  0  0  0  0  0  0  0  0  0  0
  188.9590  177.7430  144.2540 C   0  0  2  0  0  3  0  0  0  0  0  0
  184.1300  178.9340  144.7670 C   0  0  0  0  0  2  0  0  0  0  0  0
  181.8320  178.5920  144.2610 O   0  0  0  0  0  1  0  0  0  0  0  0
  182.9530  179.3340  143.8950 C   0  0  0  0  0  2  0  0  0  0  0  0
  1  4  1  0  0  0  0
  1  5  1  1  0  0  0
  2 19  1  0  0  0  0
  2 16  1  0  0  0  0
  3 10  1  0  0  0  0
  4 12  1  1  0  0  0
  5 11  1  0  0  0  0
  7 27  1  0  0  0  0
  7 15  1  1  0  0  0
  8  6  2  0  0  0  0
  9 14  1  1  0  0  0
  9  7  1  0  0  0  0
 10 22  1  0  0  0  0
 11  8  1  0  0  0  0
 11 28  1  0  0  0  0
 12 27  1  0  0  0  0
 12  8  1  0  0  0  0
 13  2  2  0  0  0  0
 14 23  1  0  0  0  0
 17  3  1  6  0  0  0
 17 20  1  0  0  0  0
 18 25  2  0  0  0  0
 18 13  1  0  0  0  0
 19  1  1  0  0  0  0
 20 22  1  1  0  0  0
 20  4  1  0  0  0  0
 21 10  2  0  0  0  0
 22  9  1  0  0  0  0
 23 15  1  0  0  0  0
 25 26  1  0  0  0  0
 26 17  1  0  0  0  0
 26 19  2  0  0  0  0
 27 24  1  6  0  0  0
 30 29  1  0  0  0  0
 30 28  1  0  0  0  0
M  END
>  <MODEL>
7

>  <REMARK>
 VINA RESULT:      -7.3      2.142      7.495
  Name = 
  2 active torsions:
  status: ('A' for Active; 'I' for Inactive)
    1  A    between atoms: N_11  and  C_28
    2  A    between atoms: C_28  and  C_30
                            x       y       z     vdW  Elec       q    Type
                         _______ _______ _______ _____ _____    ______ ____

>  <TORSDO>
F 2

$$$$
=
 OpenBabel11122410233D

 30 35  0  0  1  0  0  0  0  0999 V2000
  190.4720  177.0530  140.7650 C   0  0  1  0  0  3  0  0  0  0  0  0
  190.8160  176.7760  143.2880 C   0  0  0  0  0  0  0  0  0  0  0  0
  186.5470  178.7640  141.5210 C   0  0  0  0  0  2  0  0  0  0  0  0
  189.6030  177.7780  139.7060 C   0  0  1  0  0  3  0  0  0  0  0  0
  191.9240  177.3900  140.4730 C   0  0  0  0  0  2  0  0  0  0  0  0
  191.6270  176.4870  136.9370 O   0  0  0  0  0  0  0  0  0  0  0  0
  187.8160  176.8050  137.1880 C   0  0  1  0  0  3  0  0  0  0  0  0
  191.3000  176.8800  138.0910 C   0  0  0  0  0  0  0  0  0  0  0  0
  186.6770  177.3610  138.0380 C   0  0  2  0  0  3  0  0  0  0  0  0
  186.1390  178.7080  140.0960 C   0  0  0  0  0  0  0  0  0  0  0  0
  192.2750  176.8800  139.1520 N   0  0  0  0  0  0  0  0  0  0  0  0
  189.9450  177.3030  138.3540 N   0  0  0  0  0  0  0  0  0  0  0  0
  190.3780  176.9370  144.6060 C   0  0  0  0  0  3  0  0  0  0  0  0
  185.8560  178.2110  137.0910 C   0  0  0  0  0  2  0  0  0  0  0  0
  187.2720  176.7390  135.7690 C   0  0  0  0  0  2  0  0  0  0  0  0
  192.0010  176.0890  143.0560 O   0  0  0  0  0  1  0  0  0  0  0  0
  188.0200  178.4680  141.3650 C   0  0  2  0  0  3  0  0  0  0  0  0
  189.1740  177.5900  144.8770 C   0  0  0  0  0  3  0  0  0  0  0  0
  190.0560  177.2960  142.2180 C   0  0  0  0  0  0  0  0  0  0  0  0
  188.1440  177.6010  140.1270 C   0  0  1  0  0  3  0  0  0  0  0  0
  185.0140  179.1090  139.6980 O   0  0  0  0  0  0  0  0  0  0  0  0
  187.1070  178.1020  139.2310 N   0  0  0  0  0  0  0  0  0  0  0  0
  185.9650  177.5160  135.7510 C   0  0  0  0  0  2  0  0  0  0  0  0
  188.9490  179.1260  137.0030 C   0  0  0  0  0  1  0  0  0  0  0  0
  188.3890  178.0720  143.8300 C   0  0  0  0  0  3  0  0  0  0  0  0
  188.8050  177.8990  142.5040 C   0  0  0  0  0  0  0  0  0  0  0  0
  189.1110  177.6220  137.1980 C   0  0  2  0  0  3  0  0  0  0  0  0
  193.5780  176.2540  138.9810 C   0  0  0  0  0  2  0  0  0  0  0  0
  195.5770  175.7260  140.1540 O   0  0  0  0  0  1  0  0  0  0  0  0
  194.4740  176.5770  140.1630 C   0  0  0  0  0  2  0  0  0  0  0  0
  1  5  1  1  0  0  0
  1 19  1  0  0  0  0
  2 13  1  0  0  0  0
  4 12  1  6  0  0  0
  4 20  1  0  0  0  0
  4  1  1  0  0  0  0
  6  8  2  0  0  0  0
  7 15  1  6  0  0  0
  7 27  1  0  0  0  0
  7  9  1  0  0  0  0
  8 12  1  0  0  0  0
  8 11  1  0  0  0  0
  9 14  1  6  0  0  0
  9 22  1  0  0  0  0
 10  3  1  0  0  0  0
 11  5  1  0  0  0  0
 13 18  2  0  0  0  0
 16  2  1  0  0  0  0
 17  3  1  1  0  0  0
 17 26  1  0  0  0  0
 19 26  1  0  0  0  0
 19  2  2  0  0  0  0
 20 22  1  6  0  0  0
 20 17  1  0  0  0  0
 21 10  2  0  0  0  0
 22 10  1  0  0  0  0
 23 15  1  0  0  0  0
 23 14  1  0  0  0  0
 25 18  1  0  0  0  0
 26 25  2  0  0  0  0
 27 24  1  1  0  0  0
 27 12  1  0  0  0  0
 28 11  1  0  0  0  0
 28 30  1  0  0  0  0
 29 30  1  0  0  0  0
M  END
>  <MODEL>
8

>  <REMARK>
 VINA RESULT:      -7.2      2.816      4.962
  Name = 
  2 active torsions:
  status: ('A' for Active; 'I' for Inactive)
    1  A    between atoms: N_11  and  C_28
    2  A    between atoms: C_28  and  C_30
                            x       y       z     vdW  Elec       q    Type
                         _______ _______ _______ _____ _____    ______ ____

>  <TORSDO>
F 2

$$$$
=
 OpenBabel11122410233D

 30 35  0  0  1  0  0  0  0  0999 V2000
  183.8590  178.1640  140.7220 C   0  0  1  0  0  3  0  0  0  0  0  0
  183.7880  177.6740  138.2090 C   0  0  0  0  0  0  0  0  0  0  0  0
  188.1990  178.3340  140.5340 C   0  0  0  0  0  2  0  0  0  0  0  0
  184.7740  178.6940  141.8550 C   0  0  1  0  0  3  0  0  0  0  0  0
  182.5940  179.0060  140.7240 C   0  0  0  0  0  2  0  0  0  0  0  0
  182.0650  178.5530  144.3190 O   0  0  0  0  0  0  0  0  0  0  0  0
  185.7370  177.5340  144.7200 C   0  0  1  0  0  3  0  0  0  0  0  0
  182.6650  178.6500  143.2130 C   0  0  0  0  0  0  0  0  0  0  0  0
  187.1040  177.5510  144.0420 C   0  0  2  0  0  3  0  0  0  0  0  0
  188.3610  178.3410  142.0080 C   0  0  0  0  0  0  0  0  0  0  0  0
  181.9080  178.8310  142.0000 N   0  0  0  0  0  0  0  0  0  0  0  0
  184.1040  178.5520  143.1590 N   0  0  0  0  0  0  0  0  0  0  0  0
  184.4310  177.4950  136.9800 C   0  0  0  0  0  3  0  0  0  0  0  0
  188.0340  178.1970  145.0460 C   0  0  0  0  0  2  0  0  0  0  0  0
  186.0230  177.4850  146.2130 C   0  0  0  0  0  2  0  0  0  0  0  0
  182.4170  177.4630  138.2830 O   0  0  0  0  0  1  0  0  0  0  0  0
  186.7100  178.5750  140.4510 C   0  0  2  0  0  3  0  0  0  0  0  0
  185.8130  177.6600  136.8740 C   0  0  0  0  0  3  0  0  0  0  0  0
  184.5290  178.0490  139.3500 C   0  0  0  0  0  0  0  0  0  0  0  0
  186.1190  177.9790  141.7150 C   0  0  1  0  0  3  0  0  0  0  0  0
  189.4900  178.3920  142.5650 O   0  0  0  0  0  0  0  0  0  0  0  0
  187.1330  178.2220  142.7360 N   0  0  0  0  0  0  0  0  0  0  0  0
  187.5050  177.7720  146.3980 C   0  0  0  0  0  2  0  0  0  0  0  0
  185.4860  180.1020  144.5120 C   0  0  0  0  0  1  0  0  0  0  0  0
  186.5670  177.9900  138.0000 C   0  0  0  0  0  3  0  0  0  0  0  0
  185.9380  178.1520  139.2410 C   0  0  0  0  0  0  0  0  0  0  0  0
  184.8290  178.7280  144.4150 C   0  0  2  0  0  3  0  0  0  0  0  0
  180.4570  178.7100  141.9890 C   0  0  0  0  0  2  0  0  0  0  0  0
  180.0000  180.8800  142.8440 O   0  0  0  0  0  1  0  0  0  0  0  0
  179.8200  180.0630  141.7300 C   0  0  0  0  0  2  0  0  0  0  0  0
  1  5  1  6  0  0  0
  1  4  1  0  0  0  0
  2 16  1  0  0  0  0
  2 19  1  0  0  0  0
  3 10  1  0  0  0  0
  4 12  1  1  0  0  0
  5 11  1  0  0  0  0
  7 15  1  1  0  0  0
  8  6  2  0  0  0  0
  9  7  1  0  0  0  0
  9 14  1  1  0  0  0
 10 21  2  0  0  0  0
 10 22  1  0  0  0  0
 11  8  1  0  0  0  0
 12  8  1  0  0  0  0
 12 27  1  0  0  0  0
 13  2  2  0  0  0  0
 14 23  1  0  0  0  0
 15 23  1  0  0  0  0
 17  3  1  6  0  0  0
 17 20  1  0  0  0  0
 18 13  1  0  0  0  0
 18 25  2  0  0  0  0
 19  1  1  0  0  0  0
 20  4  1  0  0  0  0
 20 22  1  1  0  0  0
 22  9  1  0  0  0  0
 25 26  1  0  0  0  0
 26 19  2  0  0  0  0
 26 17  1  0  0  0  0
 27 24  1  6  0  0  0
 27  7  1  0  0  0  0
 28 11  1  0  0  0  0
 30 28  1  0  0  0  0
 30 29  1  0  0  0  0
M  END
>  <MODEL>
9

>  <REMARK>
 VINA RESULT:      -7.2      3.084      7.662
  Name = 
  2 active torsions:
  status: ('A' for Active; 'I' for Inactive)
    1  A    between atoms: N_11  and  C_28
    2  A    between atoms: C_28  and  C_30
                            x       y       z     vdW  Elec       q    Type
                         _______ _______ _______ _____ _____    ______ ____

>  <TORSDO>
F 2

$$$$
