=
 OpenBabel11122411123D

 31 35  0  0  1  0  0  0  0  0999 V2000
  192.1910  175.0840  135.8320 C   0  0  0  0  0  0  0  0  0  0  0  0
  189.4670  177.2940  137.1740 C   0  0  2  0  0  3  0  0  0  0  0  0
  188.3410  176.2910  136.9710 C   0  0  0  0  0  0  0  0  0  0  0  0
  187.4390  174.2320  136.0430 C   0  0  0  0  0  0  0  0  0  0  0  0
  190.8930  176.7170  137.1870 C   0  0  2  0  0  3  0  0  0  0  0  0
  192.7130  174.4120  137.0780 C   0  0  0  0  0  2  0  0  0  0  0  0
  188.5220  175.0840  136.2800 C   0  0  0  0  0  3  0  0  0  0  0  0
  189.5340  177.2330  139.7220 C   0  0  2  0  0  3  0  0  0  0  0  0
  192.5720  174.5870  134.5940 O   0  0  0  0  0  1  0  0  0  0  0  0
  186.8420  177.9230  138.0940 C   0  0  0  0  0  3  0  0  0  0  0  0
  187.6330  173.0340  135.3710 O   0  0  0  0  0  1  0  0  0  0  0  0
  190.9470  176.6430  139.6650 C   0  0  0  0  0  2  0  0  0  0  0  0
  189.2360  178.0950  138.4790 C   0  0  2  0  0  3  0  0  0  0  0  0
  191.3210  176.0990  135.8850 C   0  0  0  0  0  3  0  0  0  0  0  0
  186.1600  174.5910  136.4750 C   0  0  0  0  0  3  0  0  0  0  0  0
  191.1280  175.8160  138.4000 C   0  0  2  0  0  3  0  0  0  0  0  0
  192.5460  175.2670  138.3360 C   0  0  0  0  0  2  0  0  0  0  0  0
  187.8590  178.5990  138.5440 N   0  0  0  0  0  0  0  0  0  0  0  0
  187.0460  176.6450  137.3970 C   0  0  0  0  0  0  0  0  0  0  0  0
  185.9620  175.7990  137.1480 C   0  0  0  0  0  3  0  0  0  0  0  0
  189.7520  176.2660  142.4020 O   0  0  0  0  0  0  0  0  0  0  0  0
  189.5230  177.4950  142.2420 C   0  0  0  0  0  0  0  0  0  0  0  0
  189.3900  178.0390  140.9250 N   0  0  0  0  0  2  0  0  0  0  0  0
  190.6700  177.3180  145.7500 C   0  0  1  0  0  3  0  0  0  0  0  0
  190.7230  178.9640  143.8720 C   0  0  0  0  0  2  0  0  0  0  0  0
  187.3680  177.0820  144.3070 C   0  0  0  0  0  1  0  0  0  0  0  0
  191.4880  176.3200  146.5410 C   0  0  0  0  0  1  0  0  0  0  0  0
  191.5470  177.9500  144.6680 C   0  0  0  0  0  2  0  0  0  0  0  0
  188.7270  177.6640  144.6530 C   0  0  2  0  0  3  0  0  0  0  0  0
  189.3740  178.3750  143.4490 C   0  0  2  0  0  3  0  0  0  0  0  0
  189.5750  176.6600  145.1590 O   0  0  0  0  0  0  0  0  0  0  0  0
  1 14  2  0  0  0  0
  1  6  1  0  0  0  0
  2  3  1  1  0  0  0
  2  5  1  0  0  0  0
  2 13  1  0  0  0  0
  3 19  1  0  0  0  0
  4  7  1  0  0  0  0
  4 15  2  0  0  0  0
  5 14  1  6  0  0  0
  5 16  1  0  0  0  0
  6 17  1  0  0  0  0
  7  3  2  0  0  0  0
  8 23  1  1  0  0  0
  9  1  1  0  0  0  0
 10 18  2  0  0  0  0
 11  4  1  0  0  0  0
 12  8  1  0  0  0  0
 13 18  1  1  0  0  0
 13  8  1  0  0  0  0
 15 20  1  0  0  0  0
 16 17  1  6  0  0  0
 16 12  1  0  0  0  0
 19 10  1  0  0  0  0
 20 19  2  0  0  0  0
 22 21  2  0  0  0  0
 23 22  1  0  0  0  0
 24 27  1  6  0  0  0
 25 28  1  0  0  0  0
 28 24  1  0  0  0  0
 29 26  1  6  0  0  0
 29 31  1  0  0  0  0
 30 22  1  6  0  0  0
 30 25  1  0  0  0  0
 30 29  1  0  0  0  0
 31 24  1  0  0  0  0
M  END
>  <MODEL>
1

>  <REMARK>
 VINA RESULT:      -8.5      0.000      0.000
  Name = 
  2 active torsions:
  status: ('A' for Active; 'I' for Inactive)
    1  A    between atoms: C_5  and  C_30
    2  A    between atoms: C_10  and  N_16
                            x       y       z     vdW  Elec       q    Type
                         _______ _______ _______ _____ _____    ______ ____

>  <TORSDO>
F 2

$$$$
=
 OpenBabel11122411123D

 31 35  0  0  1  0  0  0  0  0999 V2000
  191.0890  176.6750  145.2370 C   0  0  0  0  0  0  0  0  0  0  0  0
  187.6480  176.9160  143.7530 C   0  0  2  0  0  3  0  0  0  0  0  0
  187.0530  177.7490  144.8790 C   0  0  0  0  0  0  0  0  0  0  0  0
  187.1270  178.7100  147.1120 C   0  0  0  0  0  0  0  0  0  0  0  0
  189.1830  176.9080  143.6560 C   0  0  2  0  0  3  0  0  0  0  0  0
  191.8040  177.8420  144.6030 C   0  0  0  0  0  2  0  0  0  0  0  0
  187.7460  178.0110  146.0700 C   0  0  0  0  0  3  0  0  0  0  0  0
  187.6510  178.7170  141.9500 C   0  0  2  0  0  3  0  0  0  0  0  0
  191.6840  176.0310  146.3140 O   0  0  0  0  0  1  0  0  0  0  0  0
  184.9720  177.8770  143.5280 C   0  0  0  0  0  3  0  0  0  0  0  0
  187.8280  178.9760  148.2800 O   0  0  0  0  0  1  0  0  0  0  0  0
  189.1820  178.6720  141.9140 C   0  0  0  0  0  2  0  0  0  0  0  0
  187.0600  177.3640  142.3920 C   0  0  2  0  0  3  0  0  0  0  0  0
  189.8740  176.2860  144.8390 C   0  0  0  0  0  3  0  0  0  0  0  0
  185.8020  179.1320  146.9810 C   0  0  0  0  0  3  0  0  0  0  0  0
  189.7340  178.2830  143.2780 C   0  0  2  0  0  3  0  0  0  0  0  0
  191.2530  178.2040  143.2220 C   0  0  0  0  0  2  0  0  0  0  0  0
  185.5970  177.4620  142.4650 N   0  0  0  0  0  0  0  0  0  0  0  0
  185.7150  178.1750  144.7600 C   0  0  0  0  0  0  0  0  0  0  0  0
  185.0940  178.8610  145.8070 C   0  0  0  0  0  3  0  0  0  0  0  0
  188.0990  177.2300  139.5510 O   0  0  0  0  0  0  0  0  0  0  0  0
  187.3930  178.2710  139.4690 C   0  0  0  0  0  0  0  0  0  0  0  0
  187.1430  179.0670  140.6310 N   0  0  0  0  0  2  0  0  0  0  0  0
  186.8620  176.5490  136.2430 C   0  0  1  0  0  3  0  0  0  0  0  0
  185.5280  177.9340  137.8370 C   0  0  0  0  0  2  0  0  0  0  0  0
  189.1300  179.1960  137.1860 C   0  0  0  0  0  1  0  0  0  0  0  0
  187.1190  175.1420  135.7450 C   0  0  0  0  0  1  0  0  0  0  0  0
  185.7950  176.5120  137.3370 C   0  0  0  0  0  2  0  0  0  0  0  0
  187.8200  178.4610  136.9670 C   0  0  2  0  0  3  0  0  0  0  0  0
  186.8360  178.6740  138.1340 C   0  0  2  0  0  3  0  0  0  0  0  0
  188.0570  177.0900  136.7530 O   0  0  0  0  0  0  0  0  0  0  0  0
  1  9  1  0  0  0  0
  2  3  1  1  0  0  0
  3  7  1  0  0  0  0
  4 11  1  0  0  0  0
  5  2  1  0  0  0  0
  5 14  1  1  0  0  0
  6  1  1  0  0  0  0
  7  4  2  0  0  0  0
  8 23  1  6  0  0  0
  8 13  1  0  0  0  0
 10 19  1  0  0  0  0
 12  8  1  0  0  0  0
 13 18  1  1  0  0  0
 13  2  1  0  0  0  0
 14  1  2  0  0  0  0
 15  4  1  0  0  0  0
 16 12  1  6  0  0  0
 16  5  1  0  0  0  0
 17 16  1  0  0  0  0
 17  6  1  0  0  0  0
 18 10  2  0  0  0  0
 19  3  2  0  0  0  0
 19 20  1  0  0  0  0
 20 15  2  0  0  0  0
 22 21  2  0  0  0  0
 22 23  1  0  0  0  0
 24 27  1  1  0  0  0
 24 31  1  0  0  0  0
 24 28  1  0  0  0  0
 25 30  1  0  0  0  0
 28 25  1  0  0  0  0
 29 26  1  1  0  0  0
 29 30  1  0  0  0  0
 30 22  1  1  0  0  0
 31 29  1  0  0  0  0
M  END
>  <MODEL>
2

>  <REMARK>
 VINA RESULT:      -7.9      2.852      8.199
  Name = 
  2 active torsions:
  status: ('A' for Active; 'I' for Inactive)
    1  A    between atoms: C_5  and  C_30
    2  A    between atoms: C_10  and  N_16
                            x       y       z     vdW  Elec       q    Type
                         _______ _______ _______ _____ _____    ______ ____

>  <TORSDO>
F 2

$$$$
=
 OpenBabel11122411123D

 31 35  0  0  1  0  0  0  0  0999 V2000
  191.0500  176.1460  143.6040 C   0  0  0  0  0  0  0  0  0  0  0  0
  187.3540  176.8110  143.5660 C   0  0  2  0  0  3  0  0  0  0  0  0
  187.3180  177.5600  144.8900 C   0  0  0  0  0  0  0  0  0  0  0  0
  188.3270  178.2630  146.9890 C   0  0  0  0  0  0  0  0  0  0  0  0
  188.7310  176.6950  142.8900 C   0  0  2  0  0  3  0  0  0  0  0  0
  191.6030  177.3170  142.8310 C   0  0  0  0  0  2  0  0  0  0  0  0
  188.4300  177.6360  145.7430 C   0  0  0  0  0  3  0  0  0  0  0  0
  186.8880  178.7920  142.0320 C   0  0  2  0  0  3  0  0  0  0  0  0
  191.9260  175.3450  144.3230 O   0  0  0  0  0  1  0  0  0  0  0  0
  184.9130  177.9940  144.4470 C   0  0  0  0  0  3  0  0  0  0  0  0
  189.4370  178.3450  147.8170 O   0  0  0  0  0  1  0  0  0  0  0  0
  188.2790  178.6340  141.4120 C   0  0  0  0  0  2  0  0  0  0  0  0
  186.3560  177.4490  142.5680 C   0  0  2  0  0  3  0  0  0  0  0  0
  189.7380  175.8970  143.6730 C   0  0  0  0  0  3  0  0  0  0  0  0
  187.1050  178.7970  147.4040 C   0  0  0  0  0  3  0  0  0  0  0  0
  189.2530  178.0570  142.4310 C   0  0  2  0  0  3  0  0  0  0  0  0
  190.6220  177.8680  141.7940 C   0  0  0  0  0  2  0  0  0  0  0  0
  185.0460  177.6500  143.1990 N   0  0  0  0  0  0  0  0  0  0  0  0
  186.0900  178.0970  145.3210 C   0  0  0  0  0  0  0  0  0  0  0  0
  185.9840  178.7110  146.5720 C   0  0  0  0  0  3  0  0  0  0  0  0
  186.3770  177.6400  139.4670 O   0  0  0  0  0  0  0  0  0  0  0  0
  185.7470  178.6880  139.7710 C   0  0  0  0  0  0  0  0  0  0  0  0
  185.9680  179.3210  141.0350 N   0  0  0  0  0  2  0  0  0  0  0  0
  182.2630  177.9450  138.7920 C   0  0  1  0  0  3  0  0  0  0  0  0
  183.5960  179.9350  139.4980 C   0  0  0  0  0  2  0  0  0  0  0  0
  185.3730  177.5750  136.9960 C   0  0  0  0  0  1  0  0  0  0  0  0
  181.2380  176.9230  139.2380 C   0  0  0  0  0  1  0  0  0  0  0  0
  182.5670  178.8970  139.9500 C   0  0  0  0  0  2  0  0  0  0  0  0
  184.2480  178.2480  137.7620 C   0  0  2  0  0  3  0  0  0  0  0  0
  184.7790  179.2730  138.7840 C   0  0  2  0  0  3  0  0  0  0  0  0
  183.4380  177.2840  138.3900 O   0  0  0  0  0  0  0  0  0  0  0  0
  1 14  2  0  0  0  0
  1  9  1  0  0  0  0
  2  3  1  1  0  0  0
  3 19  2  0  0  0  0
  3  7  1  0  0  0  0
  4 15  1  0  0  0  0
  4 11  1  0  0  0  0
  5  2  1  0  0  0  0
  5 14  1  1  0  0  0
  6  1  1  0  0  0  0
  7  4  2  0  0  0  0
  8 23  1  6  0  0  0
  8 13  1  0  0  0  0
 10 19  1  0  0  0  0
 12  8  1  0  0  0  0
 13 18  1  1  0  0  0
 13  2  1  0  0  0  0
 16 12  1  6  0  0  0
 16  5  1  0  0  0  0
 17 16  1  0  0  0  0
 17  6  1  0  0  0  0
 18 10  2  0  0  0  0
 19 20  1  0  0  0  0
 20 15  2  0  0  0  0
 21 22  2  0  0  0  0
 22 23  1  0  0  0  0
 24 27  1  1  0  0  0
 24 28  1  0  0  0  0
 25 28  1  0  0  0  0
 29 26  1  1  0  0  0
 29 31  1  0  0  0  0
 29 30  1  0  0  0  0
 30 25  1  0  0  0  0
 30 22  1  1  0  0  0
 31 24  1  0  0  0  0
M  END
>  <MODEL>
3

>  <REMARK>
 VINA RESULT:      -7.4      3.870      8.176
  Name = 
  2 active torsions:
  status: ('A' for Active; 'I' for Inactive)
    1  A    between atoms: C_5  and  C_30
    2  A    between atoms: C_10  and  N_16
                            x       y       z     vdW  Elec       q    Type
                         _______ _______ _______ _____ _____    ______ ____

>  <TORSDO>
F 2

$$$$
=
 OpenBabel11122411123D

 31 35  0  0  1  0  0  0  0  0999 V2000
  186.4280  178.1020  138.0720 C   0  0  0  0  0  0  0  0  0  0  0  0
  190.0400  177.8390  139.0660 C   0  0  2  0  0  3  0  0  0  0  0  0
  189.7730  177.4700  140.5190 C   0  0  0  0  0  0  0  0  0  0  0  0
  188.3020  177.2390  142.4410 C   0  0  0  0  0  0  0  0  0  0  0  0
  188.8710  177.6300  138.0890 C   0  0  2  0  0  3  0  0  0  0  0  0
  186.1280  176.7180  137.5500 C   0  0  0  0  0  2  0  0  0  0  0  0
  188.4890  177.5040  141.0810 C   0  0  0  0  0  3  0  0  0  0  0  0
  190.9470  175.5860  138.2940 C   0  0  2  0  0  3  0  0  0  0  0  0
  185.3710  178.9670  138.3190 O   0  0  0  0  0  1  0  0  0  0  0  0
  192.2280  177.1890  140.7760 C   0  0  0  0  0  3  0  0  0  0  0  0
  187.0250  177.2600  142.9830 O   0  0  0  0  0  1  0  0  0  0  0  0
  189.7480  175.4310  137.3540 C   0  0  0  0  0  2  0  0  0  0  0  0
  191.2780  177.0710  138.5410 C   0  0  2  0  0  3  0  0  0  0  0  0
  187.6710  178.4960  138.3660 C   0  0  0  0  0  3  0  0  0  0  0  0
  189.4020  176.9620  143.2570 C   0  0  0  0  0  3  0  0  0  0  0  0
  188.5310  176.1490  137.9210 C   0  0  2  0  0  3  0  0  0  0  0  0
  187.3570  176.0210  136.9610 C   0  0  0  0  0  2  0  0  0  0  0  0
  192.3960  177.1790  139.4860 N   0  0  0  0  0  0  0  0  0  0  0  0
  190.8760  177.1950  141.3510 C   0  0  0  0  0  0  0  0  0  0  0  0
  190.6900  176.9440  142.7130 C   0  0  0  0  0  3  0  0  0  0  0  0
  191.9670  175.9930  135.6560 O   0  0  0  0  0  0  0  0  0  0  0  0
  192.5730  175.1720  136.3960 C   0  0  0  0  0  0  0  0  0  0  0  0
  192.1050  174.9130  137.7230 N   0  0  0  0  0  2  0  0  0  0  0  0
  195.8480  174.1860  137.7950 C   0  0  1  0  0  3  0  0  0  0  0  0
  193.9710  173.1040  136.5530 C   0  0  0  0  0  2  0  0  0  0  0  0
  194.9680  176.6200  135.2770 C   0  0  0  0  0  1  0  0  0  0  0  0
  196.5040  174.3430  139.1500 C   0  0  0  0  0  1  0  0  0  0  0  0
  194.6310  173.2690  137.9230 C   0  0  0  0  0  2  0  0  0  0  0  0
  195.0810  175.2750  135.9730 C   0  0  2  0  0  3  0  0  0  0  0  0
  193.7790  174.4570  135.8600 C   0  0  2  0  0  3  0  0  0  0  0  0
  195.4510  175.4500  137.3190 O   0  0  0  0  0  0  0  0  0  0  0  0
  1  9  1  0  0  0  0
  1 14  2  0  0  0  0
  2  3  1  1  0  0  0
  3  7  2  0  0  0  0
  3 19  1  0  0  0  0
  4 11  1  0  0  0  0
  4 15  2  0  0  0  0
  5 14  1  1  0  0  0
  5  2  1  0  0  0  0
  6  1  1  0  0  0  0
  7  4  1  0  0  0  0
  8 23  1  6  0  0  0
  8 13  1  0  0  0  0
 10 19  1  0  0  0  0
 12 16  1  0  0  0  0
 12  8  1  0  0  0  0
 13  2  1  0  0  0  0
 13 18  1  1  0  0  0
 16 17  1  6  0  0  0
 16  5  1  0  0  0  0
 17  6  1  0  0  0  0
 18 10  2  0  0  0  0
 19 20  2  0  0  0  0
 20 15  1  0  0  0  0
 21 22  2  0  0  0  0
 22 23  1  0  0  0  0
 24 28  1  0  0  0  0
 24 27  1  1  0  0  0
 25 28  1  0  0  0  0
 29 26  1  1  0  0  0
 29 31  1  0  0  0  0
 30 29  1  0  0  0  0
 30 22  1  1  0  0  0
 30 25  1  0  0  0  0
 31 24  1  0  0  0  0
M  END
>  <MODEL>
4

>  <REMARK>
 VINA RESULT:      -7.1      2.493      7.159
  Name = 
  2 active torsions:
  status: ('A' for Active; 'I' for Inactive)
    1  A    between atoms: C_5  and  C_30
    2  A    between atoms: C_10  and  N_16
                            x       y       z     vdW  Elec       q    Type
                         _______ _______ _______ _____ _____    ______ ____

>  <TORSDO>
F 2

$$$$
=
 OpenBabel11122411123D

 31 35  0  0  1  0  0  0  0  0999 V2000
  189.9300  177.9560  143.4740 C   0  0  0  0  0  0  0  0  0  0  0  0
  187.2780  179.0440  141.0490 C   0  0  2  0  0  3  0  0  0  0  0  0
  187.6860  178.0890  139.9360 C   0  0  0  0  0  0  0  0  0  0  0  0
  189.2330  176.5160  138.9140 C   0  0  0  0  0  0  0  0  0  0  0  0
  187.7830  178.6960  142.4590 C   0  0  2  0  0  3  0  0  0  0  0  0
  189.2250  176.8930  144.2790 C   0  0  0  0  0  2  0  0  0  0  0  0
  188.8550  177.3160  139.9970 C   0  0  0  0  0  3  0  0  0  0  0  0
  185.0750  177.9270  141.6780 C   0  0  2  0  0  3  0  0  0  0  0  0
  191.3080  178.0760  143.5870 O   0  0  0  0  0  1  0  0  0  0  0  0
  185.7060  178.9000  138.6730 C   0  0  0  0  0  3  0  0  0  0  0  0
  190.3840  175.7450  138.9920 O   0  0  0  0  0  1  0  0  0  0  0  0
  185.6440  177.5950  143.0610 C   0  0  0  0  0  2  0  0  0  0  0  0
  185.7370  179.1880  141.0870 C   0  0  2  0  0  3  0  0  0  0  0  0
  189.2800  178.7390  142.6080 C   0  0  0  0  0  3  0  0  0  0  0  0
  188.4590  176.5000  137.7520 C   0  0  0  0  0  3  0  0  0  0  0  0
  187.1530  177.4050  142.9840 C   0  0  2  0  0  3  0  0  0  0  0  0
  187.7120  177.1130  144.3680 C   0  0  0  0  0  2  0  0  0  0  0  0
  185.2040  179.4440  139.7430 N   0  0  0  0  0  0  0  0  0  0  0  0
  186.9150  178.0690  138.7570 C   0  0  0  0  0  0  0  0  0  0  0  0
  187.3020  177.2790  137.6710 C   0  0  0  0  0  3  0  0  0  0  0  0
  183.1130  176.7770  139.9470 O   0  0  0  0  0  0  0  0  0  0  0  0
  182.7040  177.5130  140.8860 C   0  0  0  0  0  0  0  0  0  0  0  0
  183.6370  178.1290  141.7790 N   0  0  0  0  0  2  0  0  0  0  0  0
  180.3710  180.1810  139.8440 C   0  0  1  0  0  3  0  0  0  0  0  0
  180.5160  177.6930  139.6880 C   0  0  0  0  0  2  0  0  0  0  0  0
  181.5440  179.1840  143.1090 C   0  0  0  0  0  1  0  0  0  0  0  0
  180.5280  181.4790  139.0780 C   0  0  0  0  0  1  0  0  0  0  0  0
  180.6820  179.0050  138.9180 C   0  0  0  0  0  2  0  0  0  0  0  0
  180.8900  179.0780  141.7430 C   0  0  2  0  0  3  0  0  0  0  0  0
  181.2300  177.7480  141.0420 C   0  0  2  0  0  3  0  0  0  0  0  0
  181.2520  180.1770  140.9410 O   0  0  0  0  0  0  0  0  0  0  0  0
  1  9  1  0  0  0  0
  1  6  1  0  0  0  0
  2  3  1  6  0  0  0
  2 13  1  0  0  0  0
  2  5  1  0  0  0  0
  3  7  1  0  0  0  0
  4 11  1  0  0  0  0
  4  7  2  0  0  0  0
  5 14  1  6  0  0  0
  5 16  1  0  0  0  0
  6 17  1  0  0  0  0
  8 23  1  1  0  0  0
  8 12  1  0  0  0  0
 10 19  1  0  0  0  0
 10 18  2  0  0  0  0
 13 18  1  6  0  0  0
 13  8  1  0  0  0  0
 14  1  2  0  0  0  0
 15  4  1  0  0  0  0
 16 12  1  1  0  0  0
 16 17  1  0  0  0  0
 19  3  2  0  0  0  0
 20 15  2  0  0  0  0
 20 19  1  0  0  0  0
 21 22  2  0  0  0  0
 22 23  1  0  0  0  0
 24 27  1  6  0  0  0
 24 31  1  0  0  0  0
 25 30  1  0  0  0  0
 28 25  1  0  0  0  0
 28 24  1  0  0  0  0
 29 26  1  1  0  0  0
 30 22  1  6  0  0  0
 30 29  1  0  0  0  0
 31 29  1  0  0  0  0
M  END
>  <MODEL>
5

>  <REMARK>
 VINA RESULT:      -6.8      4.369      7.393
  Name = 
  2 active torsions:
  status: ('A' for Active; 'I' for Inactive)
    1  A    between atoms: C_5  and  C_30
    2  A    between atoms: C_10  and  N_16
                            x       y       z     vdW  Elec       q    Type
                         _______ _______ _______ _____ _____    ______ ____

>  <TORSDO>
F 2

$$$$
=
 OpenBabel11122411123D

 31 35  0  0  1  0  0  0  0  0999 V2000
  179.7330  179.2450  141.5640 C   0  0  0  0  0  0  0  0  0  0  0  0
  183.1260  179.2620  139.9550 C   0  0  2  0  0  3  0  0  0  0  0  0
  183.8950  178.8760  141.2110 C   0  0  0  0  0  0  0  0  0  0  0  0
  184.0510  178.5340  143.6140 C   0  0  0  0  0  0  0  0  0  0  0  0
  181.6180  178.9630  139.9650 C   0  0  2  0  0  3  0  0  0  0  0  0
  179.2480  177.8420  141.2950 C   0  0  0  0  0  2  0  0  0  0  0  0
  183.2890  178.8110  142.4750 C   0  0  0  0  0  3  0  0  0  0  0  0
  183.4410  177.0840  138.6690 C   0  0  2  0  0  3  0  0  0  0  0  0
  179.0450  180.0270  142.4810 O   0  0  0  0  0  1  0  0  0  0  0  0
  185.9340  178.7840  139.7960 C   0  0  0  0  0  3  0  0  0  0  0  0
  183.4390  178.4580  144.8560 O   0  0  0  0  0  1  0  0  0  0  0  0
  181.9310  176.8360  138.7290 C   0  0  0  0  0  2  0  0  0  0  0  0
  183.7650  178.5900  138.7140 C   0  0  2  0  0  3  0  0  0  0  0  0
  180.8420  179.7340  140.9980 C   0  0  0  0  0  3  0  0  0  0  0  0
  185.4310  178.3430  143.5020 C   0  0  0  0  0  3  0  0  0  0  0  0
  181.3390  177.4590  139.9850 C   0  0  2  0  0  3  0  0  0  0  0  0
  179.8340  177.2400  140.0150 C   0  0  0  0  0  2  0  0  0  0  0  0
  185.2200  178.7860  138.7080 N   0  0  0  0  0  0  0  0  0  0  0  0
  185.2870  178.6870  141.1110 C   0  0  0  0  0  0  0  0  0  0  0  0
  186.0500  178.4240  142.2520 C   0  0  0  0  0  3  0  0  0  0  0  0
  183.8700  174.2960  138.2090 O   0  0  0  0  0  0  0  0  0  0  0  0
  184.1620  175.0930  137.2770 C   0  0  0  0  0  0  0  0  0  0  0  0
  183.9830  176.5020  137.4500 N   0  0  0  0  0  2  0  0  0  0  0  0
  184.2590  171.7540  135.6970 C   0  0  1  0  0  3  0  0  0  0  0  0
  183.5940  174.0760  135.0640 C   0  0  0  0  0  2  0  0  0  0  0  0
  186.8820  173.8080  137.0900 C   0  0  0  0  0  1  0  0  0  0  0  0
  183.7440  170.3860  136.0930 C   0  0  0  0  0  1  0  0  0  0  0  0
  183.0750  172.6950  135.4710 C   0  0  0  0  0  2  0  0  0  0  0  0
  185.7230  173.3970  136.1980 C   0  0  2  0  0  3  0  0  0  0  0  0
  184.7160  174.5460  135.9940 C   0  0  2  0  0  3  0  0  0  0  0  0
  185.0850  172.2560  136.7200 O   0  0  0  0  0  0  0  0  0  0  0  0
  1  9  1  0  0  0  0
  2  5  1  0  0  0  0
  2  3  1  1  0  0  0
  3  7  1  0  0  0  0
  4 11  1  0  0  0  0
  5 16  1  0  0  0  0
  5 14  1  1  0  0  0
  6  1  1  0  0  0  0
  7  4  2  0  0  0  0
  8 23  1  6  0  0  0
  8 13  1  0  0  0  0
  8 12  1  0  0  0  0
 10 19  1  0  0  0  0
 13 18  1  1  0  0  0
 13  2  1  0  0  0  0
 14  1  2  0  0  0  0
 15  4  1  0  0  0  0
 16 12  1  6  0  0  0
 16 17  1  0  0  0  0
 17  6  1  0  0  0  0
 18 10  2  0  0  0  0
 19  3  2  0  0  0  0
 19 20  1  0  0  0  0
 20 15  2  0  0  0  0
 22 23  1  0  0  0  0
 22 21  2  0  0  0  0
 24 27  1  1  0  0  0
 24 31  1  0  0  0  0
 25 28  1  0  0  0  0
 25 30  1  0  0  0  0
 28 24  1  0  0  0  0
 29 31  1  0  0  0  0
 29 26  1  1  0  0  0
 30 29  1  0  0  0  0
 30 22  1  1  0  0  0
M  END
>  <MODEL>
6

>  <REMARK>
 VINA RESULT:      -6.8      4.867     10.041
  Name = 
  2 active torsions:
  status: ('A' for Active; 'I' for Inactive)
    1  A    between atoms: C_5  and  C_30
    2  A    between atoms: C_10  and  N_16
                            x       y       z     vdW  Elec       q    Type
                         _______ _______ _______ _____ _____    ______ ____

>  <TORSDO>
F 2

$$$$
=
 OpenBabel11122411123D

 31 35  0  0  1  0  0  0  0  0999 V2000
  191.3850  177.3560  140.1560 C   0  0  0  0  0  0  0  0  0  0  0  0
  188.8750  178.0070  137.4390 C   0  0  2  0  0  3  0  0  0  0  0  0
  188.8170  176.5720  136.9350 C   0  0  0  0  0  0  0  0  0  0  0  0
  189.6620  174.2940  136.8380 C   0  0  0  0  0  0  0  0  0  0  0  0
  189.4410  178.2050  138.8550 C   0  0  2  0  0  3  0  0  0  0  0  0
  190.5100  177.0870  141.3550 C   0  0  0  0  0  2  0  0  0  0  0  0
  189.6960  175.5780  137.3910 C   0  0  0  0  0  3  0  0  0  0  0  0
  186.5470  178.1070  138.4730 C   0  0  2  0  0  3  0  0  0  0  0  0
  192.7370  177.0520  140.2310 O   0  0  0  0  0  1  0  0  0  0  0  0
  187.0190  177.3100  135.3890 C   0  0  0  0  0  3  0  0  0  0  0  0
  190.5260  173.3140  137.3070 O   0  0  0  0  0  1  0  0  0  0  0  0
  187.1750  178.2850  139.8590 C   0  0  0  0  0  2  0  0  0  0  0  0
  187.4690  178.6530  137.3650 C   0  0  2  0  0  3  0  0  0  0  0  0
  190.8870  177.8150  139.0020 C   0  0  0  0  0  3  0  0  0  0  0  0
  188.7660  173.9990  135.8080 C   0  0  0  0  0  3  0  0  0  0  0  0
  188.5300  177.5940  139.9210 C   0  0  2  0  0  3  0  0  0  0  0  0
  189.1620  177.8090  141.2880 C   0  0  0  0  0  2  0  0  0  0  0  0
  186.8580  178.4180  136.0510 N   0  0  0  0  0  0  0  0  0  0  0  0
  187.9210  176.2650  135.8930 C   0  0  0  0  0  0  0  0  0  0  0  0
  187.8980  174.9850  135.3320 C   0  0  0  0  0  3  0  0  0  0  0  0
  183.9880  176.8410  138.3550 O   0  0  0  0  0  0  0  0  0  0  0  0
  184.0140  178.1010  138.3820 C   0  0  0  0  0  0  0  0  0  0  0  0
  185.2650  178.7950  138.4280 N   0  0  0  0  0  2  0  0  0  0  0  0
  180.5150  177.3260  139.2770 C   0  0  1  0  0  3  0  0  0  0  0  0
  182.1900  179.1130  139.7600 C   0  0  0  0  0  2  0  0  0  0  0  0
  182.0800  177.9230  136.0780 C   0  0  0  0  0  1  0  0  0  0  0  0
  179.8160  176.1040  139.8350 C   0  0  0  0  0  1  0  0  0  0  0  0
  181.4880  177.8740  140.3200 C   0  0  0  0  0  2  0  0  0  0  0  0
  181.6260  178.1740  137.5050 C   0  0  2  0  0  3  0  0  0  0  0  0
  182.7210  178.8610  138.3460 C   0  0  2  0  0  3  0  0  0  0  0  0
  181.2110  176.9710  138.1060 O   0  0  0  0  0  0  0  0  0  0  0  0
  1  9  1  0  0  0  0
  1  6  1  0  0  0  0
  2  3  1  1  0  0  0
  2  5  1  0  0  0  0
  3  7  1  0  0  0  0
  4 11  1  0  0  0  0
  4  7  2  0  0  0  0
  5 14  1  6  0  0  0
  5 16  1  0  0  0  0
  8 23  1  1  0  0  0
  8 12  1  0  0  0  0
 10 19  1  0  0  0  0
 10 18  2  0  0  0  0
 13 18  1  6  0  0  0
 13  2  1  0  0  0  0
 13  8  1  0  0  0  0
 14  1  2  0  0  0  0
 15  4  1  0  0  0  0
 16 12  1  1  0  0  0
 16 17  1  0  0  0  0
 17  6  1  0  0  0  0
 19  3  2  0  0  0  0
 20 15  2  0  0  0  0
 20 19  1  0  0  0  0
 21 22  2  0  0  0  0
 22 23  1  0  0  0  0
 24 27  1  1  0  0  0
 24 28  1  0  0  0  0
 25 28  1  0  0  0  0
 29 26  1  6  0  0  0
 29 31  1  0  0  0  0
 29 30  1  0  0  0  0
 30 22  1  1  0  0  0
 30 25  1  0  0  0  0
 31 24  1  0  0  0  0
M  END
>  <MODEL>
7

>  <REMARK>
 VINA RESULT:      -6.5      3.504      6.435
  Name = 
  2 active torsions:
  status: ('A' for Active; 'I' for Inactive)
    1  A    between atoms: C_5  and  C_30
    2  A    between atoms: C_10  and  N_16
                            x       y       z     vdW  Elec       q    Type
                         _______ _______ _______ _____ _____    ______ ____

>  <TORSDO>
F 2

$$$$
=
 OpenBabel11122411123D

 31 35  0  0  1  0  0  0  0  0999 V2000
  185.1000  179.4650  145.6080 C   0  0  0  0  0  0  0  0  0  0  0  0
  186.0540  179.3660  141.9770 C   0  0  2  0  0  3  0  0  0  0  0  0
  187.1050  178.2740  142.1240 C   0  0  0  0  0  0  0  0  0  0  0  0
  188.5550  176.8540  143.4640 C   0  0  0  0  0  0  0  0  0  0  0  0
  185.0330  179.4800  143.1210 C   0  0  2  0  0  3  0  0  0  0  0  0
  183.9370  178.5060  145.6690 C   0  0  0  0  0  2  0  0  0  0  0  0
  187.5260  177.7970  143.3740 C   0  0  0  0  0  3  0  0  0  0  0  0
  184.3140  178.0060  140.7040 C   0  0  2  0  0  3  0  0  0  0  0  0
  185.6810  179.8900  146.7950 O   0  0  0  0  0  1  0  0  0  0  0  0
  187.3410  178.3310  139.6510 C   0  0  0  0  0  3  0  0  0  0  0  0
  188.9520  176.3780  144.7050 O   0  0  0  0  0  1  0  0  0  0  0  0
  183.3500  178.1420  141.8860 C   0  0  0  0  0  2  0  0  0  0  0  0
  185.2940  179.1940  140.6390 C   0  0  2  0  0  3  0  0  0  0  0  0
  185.6300  179.8650  144.4470 C   0  0  0  0  0  3  0  0  0  0  0  0
  189.1890  176.3980  142.3050 C   0  0  0  0  0  3  0  0  0  0  0  0
  184.1220  178.2530  143.1930 C   0  0  2  0  0  3  0  0  0  0  0  0
  183.1560  178.4260  144.3550 C   0  0  0  0  0  2  0  0  0  0  0  0
  186.2340  179.0030  139.5270 N   0  0  0  0  0  0  0  0  0  0  0  0
  187.7550  177.8120  140.9630 C   0  0  0  0  0  0  0  0  0  0  0  0
  188.7920  176.8800  141.0550 C   0  0  0  0  0  3  0  0  0  0  0  0
  182.6880  175.8000  139.8920 O   0  0  0  0  0  0  0  0  0  0  0  0
  182.7500  176.7950  139.1200 C   0  0  0  0  0  0  0  0  0  0  0  0
  183.5570  177.9260  139.4630 N   0  0  0  0  0  2  0  0  0  0  0  0
  180.7770  174.2450  137.3160 C   0  0  1  0  0  3  0  0  0  0  0  0
  180.4810  176.6020  138.0860 C   0  0  0  0  0  2  0  0  0  0  0  0
  183.9360  175.8080  136.5320 C   0  0  0  0  0  1  0  0  0  0  0  0
  180.4180  172.8000  137.5930 C   0  0  0  0  0  1  0  0  0  0  0  0
  180.1250  175.1410  138.3690 C   0  0  0  0  0  2  0  0  0  0  0  0
  182.4570  175.6780  136.8520 C   0  0  2  0  0  3  0  0  0  0  0  0
  181.9820  176.7700  137.8310 C   0  0  2  0  0  3  0  0  0  0  0  0
  182.1760  174.3940  137.3550 O   0  0  0  0  0  0  0  0  0  0  0  0
  1  6  1  0  0  0  0
  1  9  1  0  0  0  0
  2  3  1  1  0  0  0
  2  5  1  0  0  0  0
  3  7  1  0  0  0  0
  4 11  1  0  0  0  0
  5 16  1  0  0  0  0
  5 14  1  1  0  0  0
  7  4  2  0  0  0  0
  8 23  1  6  0  0  0
  8 12  1  0  0  0  0
 10 19  1  0  0  0  0
 13 18  1  6  0  0  0
 13  8  1  0  0  0  0
 13  2  1  0  0  0  0
 14  1  2  0  0  0  0
 15  4  1  0  0  0  0
 16 12  1  6  0  0  0
 16 17  1  0  0  0  0
 17  6  1  0  0  0  0
 18 10  2  0  0  0  0
 19 20  1  0  0  0  0
 19  3  2  0  0  0  0
 20 15  2  0  0  0  0
 22 23  1  0  0  0  0
 22 21  2  0  0  0  0
 24 31  1  0  0  0  0
 24 27  1  1  0  0  0
 24 28  1  0  0  0  0
 25 28  1  0  0  0  0
 29 26  1  1  0  0  0
 29 31  1  0  0  0  0
 29 30  1  0  0  0  0
 30 25  1  0  0  0  0
 30 22  1  1  0  0  0
M  END
>  <MODEL>
8

>  <REMARK>
 VINA RESULT:      -6.4      4.009      9.364
  Name = 
  2 active torsions:
  status: ('A' for Active; 'I' for Inactive)
    1  A    between atoms: C_5  and  C_30
    2  A    between atoms: C_10  and  N_16
                            x       y       z     vdW  Elec       q    Type
                         _______ _______ _______ _____ _____    ______ ____

>  <TORSDO>
F 2

$$$$
=
 OpenBabel11122411123D

 31 35  0  0  1  0  0  0  0  0999 V2000
  183.0770  178.8530  142.9050 C   0  0  0  0  0  0  0  0  0  0  0  0
  183.0650  177.5420  139.3860 C   0  0  2  0  0  3  0  0  0  0  0  0
  182.2550  178.6890  138.7970 C   0  0  0  0  0  0  0  0  0  0  0  0
  180.8480  180.6600  139.0170 C   0  0  0  0  0  0  0  0  0  0  0  0
  183.7360  177.8140  140.7430 C   0  0  2  0  0  3  0  0  0  0  0  0
  184.3620  179.6410  142.9590 C   0  0  0  0  0  2  0  0  0  0  0  0
  181.6530  179.6730  139.5950 C   0  0  0  0  0  3  0  0  0  0  0  0
  185.3000  178.0950  138.2920 C   0  0  2  0  0  3  0  0  0  0  0  0
  182.1540  179.0070  143.9300 O   0  0  0  0  0  1  0  0  0  0  0  0
  182.6150  177.6460  136.5710 C   0  0  0  0  0  3  0  0  0  0  0  0
  180.2690  181.6370  139.8140 O   0  0  0  0  0  1  0  0  0  0  0  0
  185.9030  178.3680  139.6730 C   0  0  0  0  0  2  0  0  0  0  0  0
  184.1430  177.0800  138.3750 C   0  0  2  0  0  3  0  0  0  0  0  0
  182.7710  178.0630  141.8700 C   0  0  0  0  0  3  0  0  0  0  0  0
  180.6180  180.6570  137.6390 C   0  0  0  0  0  3  0  0  0  0  0  0
  184.8330  178.8740  140.6310 C   0  0  2  0  0  3  0  0  0  0  0  0
  185.4350  179.1040  142.0090 C   0  0  0  0  0  2  0  0  0  0  0  0
  183.5580  176.8840  137.0430 N   0  0  0  0  0  0  0  0  0  0  0  0
  182.0130  178.6920  137.4100 C   0  0  0  0  0  0  0  0  0  0  0  0
  181.1970  179.6710  136.8350 C   0  0  0  0  0  3  0  0  0  0  0  0
  187.1710  179.6990  136.8440 O   0  0  0  0  0  0  0  0  0  0  0  0
  187.2500  178.4480  136.7120 C   0  0  0  0  0  0  0  0  0  0  0  0
  186.3330  177.5900  137.3990 N   0  0  0  0  0  2  0  0  0  0  0  0
  188.2360  175.0290  135.7170 C   0  0  1  0  0  3  0  0  0  0  0  0
  187.6730  177.1870  134.5940 C   0  0  0  0  0  2  0  0  0  0  0  0
  189.9280  177.5090  137.7230 C   0  0  0  0  0  1  0  0  0  0  0  0
  187.7280  173.6440  136.0590 C   0  0  0  0  0  1  0  0  0  0  0  0
  187.1570  175.7900  134.9460 C   0  0  0  0  0  2  0  0  0  0  0  0
  189.2460  176.8810  136.5210 C   0  0  2  0  0  3  0  0  0  0  0  0
  188.3030  177.8720  135.8100 C   0  0  2  0  0  3  0  0  0  0  0  0
  188.5560  175.7150  136.9030 O   0  0  0  0  0  0  0  0  0  0  0  0
  1  6  1  0  0  0  0
  1  9  1  0  0  0  0
  2  3  1  6  0  0  0
  2  5  1  0  0  0  0
  3  7  1  0  0  0  0
  4  7  2  0  0  0  0
  4 11  1  0  0  0  0
  5 14  1  1  0  0  0
  8 23  1  6  0  0  0
  8 13  1  0  0  0  0
  8 12  1  0  0  0  0
 10 18  2  0  0  0  0
 10 19  1  0  0  0  0
 13 18  1  6  0  0  0
 13  2  1  0  0  0  0
 14  1  2  0  0  0  0
 15  4  1  0  0  0  0
 16 12  1  6  0  0  0
 16  5  1  0  0  0  0
 16 17  1  0  0  0  0
 17  6  1  0  0  0  0
 19  3  2  0  0  0  0
 20 19  1  0  0  0  0
 20 15  2  0  0  0  0
 22 21  2  0  0  0  0
 22 23  1  0  0  0  0
 24 27  1  1  0  0  0
 24 31  1  0  0  0  0
 25 28  1  0  0  0  0
 25 30  1  0  0  0  0
 28 24  1  0  0  0  0
 29 31  1  0  0  0  0
 29 26  1  1  0  0  0
 30 29  1  0  0  0  0
 30 22  1  1  0  0  0
M  END
>  <MODEL>
9

>  <REMARK>
 VINA RESULT:      -6.4      4.582      8.593
  Name = 
  2 active torsions:
  status: ('A' for Active; 'I' for Inactive)
    1  A    between atoms: C_5  and  C_30
    2  A    between atoms: C_10  and  N_16
                            x       y       z     vdW  Elec       q    Type
                         _______ _______ _______ _____ _____    ______ ____

>  <TORSDO>
F 2

$$$$
