=
 OpenBabel11122412143D

 34 41  0  0  1  0  0  0  0  0999 V2000
  186.8650  177.9780  140.6610 C   0  0  2  0  0  3  0  0  0  0  0  0
  185.1350  178.6950  139.1180 C   0  0  0  0  0  2  0  0  0  0  0  0
  189.3030  177.1200  146.9520 C   0  0  0  0  0  0  0  0  0  0  0  0
  188.5370  177.2630  142.4080 C   0  0  1  0  0  3  0  0  0  0  0  0
  187.9420  177.5760  144.8760 C   0  0  1  0  0  3  0  0  0  0  0  0
  187.3480  178.0550  147.2700 C   0  0  0  0  0  2  0  0  0  0  0  0
  188.2100  177.0800  147.9950 C   0  0  0  0  0  2  0  0  0  0  0  0
  191.3850  176.9830  145.2500 S   0  0  0  0  0  0  0  0  0  0  0  0
  184.6830  178.4870  141.3200 C   0  0  1  0  0  3  0  0  0  0  0  0
  181.7010  178.8510  142.6340 C   0  0  0  0  0  2  0  0  0  0  0  0
  186.8100  178.4770  144.3670 C   0  0  0  0  0  2  0  0  0  0  0  0
  190.0710  176.3770  144.1500 C   0  0  0  0  0  2  0  0  0  0  0  0
  185.0770  178.7600  142.7750 C   0  0  2  0  0  3  0  0  0  0  0  0
  183.6600  179.0550  139.2820 C   0  0  0  0  0  2  0  0  0  0  0  0
  189.0850  177.5020  143.8240 C   0  0  1  0  0  3  0  0  0  0  0  0
  190.4640  176.5210  146.7130 C   0  0  0  0  0  3  0  0  0  0  0  0
  182.1980  178.3830  141.2580 C   0  0  2  0  0  3  0  0  0  0  0  0
  187.3540  178.1930  142.1100 C   0  0  2  0  0  3  0  0  0  0  0  0
  188.4240  178.1250  146.2320 C   0  0  1  0  0  3  0  0  0  0  0  0
  186.2840  177.9750  143.1000 N   0  0  1  0  0  0  0  0  0  0  0  0
  189.3720  178.4350  140.2830 C   0  0  0  0  0  2  0  0  0  0  0  0
  182.7810  179.3270  143.6080 C   0  0  0  0  0  2  0  0  0  0  0  0
  189.6520  177.3740  141.3480 C   0  0  0  0  0  2  0  0  0  0  0  0
  183.9380  178.3450  143.7110 C   0  0  0  0  0  2  0  0  0  0  0  0
  183.4370  179.1540  140.7860 C   0  0  1  0  0  3  0  0  0  0  0  0
  187.9980  178.2200  139.6400 C   0  0  0  0  0  2  0  0  0  0  0  0
  185.7480  178.8880  140.4250 N   0  0  1  0  0  0  0  0  0  0  0  0
  181.1510  178.4980  140.3410 O   0  0  0  0  0  0  0  0  0  0  0  0
  180.4520  179.6430  140.7370 C   0  0  0  0  0  2  0  0  0  0  0  0
  181.2330  181.4150  138.1230 O   0  0  0  0  0  0  0  0  0  0  0  0
  179.9880  179.4200  138.3190 C   0  0  0  0  0  2  0  0  0  0  0  0
  179.7370  180.2520  139.5440 C   0  0  2  0  0  3  0  0  0  0  0  0
  180.6790  180.3690  137.3720 C   0  0  0  0  0  2  0  0  0  0  0  0
  180.3630  181.5860  139.2100 C   0  0  0  0  0  2  0  0  0  0  0  0
  1 26  1  6  0  0  0
  1 18  1  0  0  0  0
  2 14  1  0  0  0  0
  2 27  1  0  0  0  0
  3  7  1  0  0  0  0
  4 23  1  6  0  0  0
  4 15  1  0  0  0  0
  5 11  1  6  0  0  0
  5 19  1  0  0  0  0
  6  7  1  0  0  0  0
  8 16  1  0  0  0  0
  9 13  1  0  0  0  0
 10 22  1  0  0  0  0
 12  8  1  0  0  0  0
 13 20  1  0  0  0  0
 13 24  1  0  0  0  0
 14 25  1  0  0  0  0
 15 12  1  0  0  0  0
 15  5  1  0  0  0  0
 16  3  2  0  0  0  0
 17 10  1  0  0  0  0
 18  4  1  0  0  0  0
 18 20  1  0  0  0  0
 19  3  1  0  0  0  0
 19  6  1  0  0  0  0
 20 11  1  0  0  0  0
 21 23  1  0  0  0  0
 22 24  1  0  0  0  0
 25 17  1  0  0  0  0
 25  9  1  0  0  0  0
 26 21  1  0  0  0  0
 27  1  1  0  0  0  0
 27  9  1  0  0  0  0
 28 29  1  0  0  0  0
 28 17  1  0  0  0  0
 30 34  1  0  0  0  0
 31 32  1  0  0  0  0
 32 29  1  0  0  0  0
 33 30  1  0  0  0  0
 33 31  1  0  0  0  0
 34 32  1  0  0  0  0
M  END
>  <MODEL>
1

>  <REMARK>
 VINA RESULT:      -9.3      0.000      0.000
  Name = 
  3 active torsions:
  status: ('A' for Active; 'I' for Inactive)
    1  A    between atoms: C_17  and  O_28
    2  A    between atoms: O_28  and  C_29
    3  A    between atoms: C_29  and  C_32
                            x       y       z     vdW  Elec       q    Type
                         _______ _______ _______ _____ _____    ______ ____

>  <TORSDO>
F 3

$$$$
=
 OpenBabel11122412143D

 34 41  0  0  1  0  0  0  0  0999 V2000
  190.6600  177.2470  142.3630 C   0  0  2  0  0  3  0  0  0  0  0  0
  192.6070  177.0230  140.9330 C   0  0  0  0  0  2  0  0  0  0  0  0
  184.0860  178.6800  143.3560 C   0  0  0  0  0  0  0  0  0  0  0  0
  188.5310  177.5030  143.6900 C   0  0  1  0  0  3  0  0  0  0  0  0
  186.3970  178.1990  142.4630 C   0  0  1  0  0  3  0  0  0  0  0  0
  184.3820  179.0320  141.2150 C   0  0  0  0  0  2  0  0  0  0  0  0
  183.2710  178.5620  142.0880 C   0  0  0  0  0  2  0  0  0  0  0  0
  185.3070  178.7750  145.7540 S   0  0  0  0  0  0  0  0  0  0  0  0
  190.5470  177.2170  140.0310 C   0  0  1  0  0  3  0  0  0  0  0  0
  189.9050  176.9700  136.8250 C   0  0  0  0  0  2  0  0  0  0  0  0
  187.3280  178.5710  141.3020 C   0  0  0  0  0  2  0  0  0  0  0  0
  186.3790  177.5590  144.9310 C   0  0  0  0  0  2  0  0  0  0  0  0
  189.1930  177.9340  139.9870 C   0  0  2  0  0  3  0  0  0  0  0  0
  192.8010  176.9520  139.4200 C   0  0  0  0  0  2  0  0  0  0  0  0
  187.1790  178.2240  143.8070 C   0  0  1  0  0  3  0  0  0  0  0  0
  183.9440  178.4190  144.6500 C   0  0  0  0  0  3  0  0  0  0  0  0
  190.9800  176.3600  137.7370 C   0  0  2  0  0  3  0  0  0  0  0  0
  189.2800  177.9360  142.4230 C   0  0  2  0  0  3  0  0  0  0  0  0
  185.2040  179.1740  142.4570 C   0  0  1  0  0  3  0  0  0  0  0  0
  188.4580  177.6480  141.2340 N   0  0  1  0  0  0  0  0  0  0  0  0
  190.7400  178.3320  144.6990 C   0  0  0  0  0  2  0  0  0  0  0  0
  188.9520  177.9660  137.4910 C   0  0  0  0  0  2  0  0  0  0  0  0
  189.3790  177.6890  144.9650 C   0  0  0  0  0  2  0  0  0  0  0  0
  188.3760  177.4300  138.7920 C   0  0  0  0  0  2  0  0  0  0  0  0
  191.4500  177.3330  138.8260 C   0  0  1  0  0  3  0  0  0  0  0  0
  191.5070  177.5680  143.6140 C   0  0  0  0  0  2  0  0  0  0  0  0
  191.3330  177.6950  141.1490 N   0  0  1  0  0  0  0  0  0  0  0  0
  192.0500  175.9350  136.9440 O   0  0  0  0  0  0  0  0  0  0  0  0
  192.0920  174.5480  137.1130 C   0  0  0  0  0  2  0  0  0  0  0  0
  195.1780  175.5710  137.0600 O   0  0  0  0  0  0  0  0  0  0  0  0
  194.2320  173.5630  137.8590 C   0  0  0  0  0  2  0  0  0  0  0  0
  193.4400  174.0120  136.6660 C   0  0  2  0  0  3  0  0  0  0  0  0
  195.4650  174.4320  137.8240 C   0  0  0  0  0  2  0  0  0  0  0  0
  194.2620  175.1410  136.0890 C   0  0  0  0  0  2  0  0  0  0  0  0
  1 18  1  0  0  0  0
  1 26  1  1  0  0  0
  2 27  1  0  0  0  0
  3 16  2  0  0  0  0
  4 15  1  0  0  0  0
  4 23  1  1  0  0  0
  5 11  1  6  0  0  0
  5 15  1  0  0  0  0
  6  7  1  0  0  0  0
  6 19  1  0  0  0  0
  7  3  1  0  0  0  0
  9 27  1  0  0  0  0
 10 22  1  0  0  0  0
 10 17  1  0  0  0  0
 12  8  1  0  0  0  0
 13  9  1  0  0  0  0
 13 20  1  0  0  0  0
 14  2  1  0  0  0  0
 15 12  1  0  0  0  0
 16  8  1  0  0  0  0
 17 25  1  0  0  0  0
 18  4  1  0  0  0  0
 19  5  1  0  0  0  0
 19  3  1  0  0  0  0
 20 11  1  0  0  0  0
 20 18  1  0  0  0  0
 21 23  1  0  0  0  0
 22 24  1  0  0  0  0
 24 13  1  0  0  0  0
 25 14  1  0  0  0  0
 25  9  1  0  0  0  0
 26 21  1  0  0  0  0
 27  1  1  0  0  0  0
 28 29  1  0  0  0  0
 28 17  1  0  0  0  0
 30 33  1  0  0  0  0
 32 29  1  0  0  0  0
 32 31  1  0  0  0  0
 33 31  1  0  0  0  0
 34 32  1  0  0  0  0
 34 30  1  0  0  0  0
M  END
>  <MODEL>
2

>  <REMARK>
 VINA RESULT:      -9.2      4.705      8.660
  Name = 
  3 active torsions:
  status: ('A' for Active; 'I' for Inactive)
    1  A    between atoms: C_17  and  O_28
    2  A    between atoms: O_28  and  C_29
    3  A    between atoms: C_29  and  C_32
                            x       y       z     vdW  Elec       q    Type
                         _______ _______ _______ _____ _____    ______ ____

>  <TORSDO>
F 3

$$$$
=
 OpenBabel11122412143D

 34 41  0  0  1  0  0  0  0  0999 V2000
  186.7270  178.0280  140.8100 C   0  0  2  0  0  3  0  0  0  0  0  0
  184.9580  178.7710  139.3260 C   0  0  0  0  0  2  0  0  0  0  0  0
  189.3620  177.1320  147.0160 C   0  0  0  0  0  0  0  0  0  0  0  0
  188.4460  177.2880  142.5000 C   0  0  1  0  0  3  0  0  0  0  0  0
  187.9390  177.6090  144.9870 C   0  0  1  0  0  3  0  0  0  0  0  0
  187.4340  178.0970  147.3990 C   0  0  0  0  0  2  0  0  0  0  0  0
  188.3040  177.1080  148.0950 C   0  0  0  0  0  2  0  0  0  0  0  0
  191.3840  176.9640  145.2450 S   0  0  0  0  0  0  0  0  0  0  0  0
  184.5770  178.5690  141.5410 C   0  0  1  0  0  3  0  0  0  0  0  0
  181.6460  178.9790  142.9550 C   0  0  0  0  0  2  0  0  0  0  0  0
  186.8040  178.5270  144.5150 C   0  0  0  0  0  2  0  0  0  0  0  0
  190.0250  176.3780  144.1890 C   0  0  0  0  0  2  0  0  0  0  0  0
  185.0240  178.8370  142.9820 C   0  0  2  0  0  3  0  0  0  0  0  0
  183.4940  179.1540  139.5380 C   0  0  0  0  0  2  0  0  0  0  0  0
  189.0450  177.5180  143.8970 C   0  0  1  0  0  3  0  0  0  0  0  0
  190.5050  176.5160  146.7380 C   0  0  0  0  0  3  0  0  0  0  0  0
  182.0900  178.5030  141.5630 C   0  0  2  0  0  3  0  0  0  0  0  0
  187.2680  178.2360  142.2410 C   0  0  2  0  0  3  0  0  0  0  0  0
  188.4750  178.1510  146.3260 C   0  0  1  0  0  3  0  0  0  0  0  0
  186.2290  178.0330  143.2670 N   0  0  1  0  0  0  0  0  0  0  0  0
  189.2280  178.4470  140.3480 C   0  0  0  0  0  2  0  0  0  0  0  0
  182.7660  179.4390  143.8920 C   0  0  0  0  0  2  0  0  0  0  0  0
  189.5270  177.3820  141.4030 C   0  0  0  0  0  2  0  0  0  0  0  0
  183.9100  178.4390  143.9570 C   0  0  0  0  0  2  0  0  0  0  0  0
  183.3240  179.2560  141.0490 C   0  0  1  0  0  3  0  0  0  0  0  0
  187.8300  178.2530  139.7510 C   0  0  0  0  0  2  0  0  0  0  0  0
  185.6170  178.9550  140.6110 N   0  0  1  0  0  0  0  0  0  0  0  0
  181.0140  178.6350  140.6810 O   0  0  0  0  0  0  0  0  0  0  0  0
  180.0020  177.8410  141.2290 C   0  0  0  0  0  2  0  0  0  0  0  0
  181.0160  175.5330  139.1740 O   0  0  0  0  0  0  0  0  0  0  0  0
  179.2030  175.5670  140.6840 C   0  0  0  0  0  2  0  0  0  0  0  0
  179.3970  176.9580  140.1530 C   0  0  2  0  0  3  0  0  0  0  0  0
  180.0560  174.7110  139.7800 C   0  0  0  0  0  2  0  0  0  0  0  0
  180.3930  176.7810  139.0300 C   0  0  0  0  0  2  0  0  0  0  0  0
  1 26  1  6  0  0  0
  1 18  1  0  0  0  0
  2 14  1  0  0  0  0
  2 27  1  0  0  0  0
  3  7  1  0  0  0  0
  4 23  1  6  0  0  0
  4 15  1  0  0  0  0
  5 11  1  6  0  0  0
  5 19  1  0  0  0  0
  6  7  1  0  0  0  0
  8 16  1  0  0  0  0
  9 13  1  0  0  0  0
 10 22  1  0  0  0  0
 12  8  1  0  0  0  0
 13 20  1  0  0  0  0
 13 24  1  0  0  0  0
 14 25  1  0  0  0  0
 15 12  1  0  0  0  0
 15  5  1  0  0  0  0
 16  3  2  0  0  0  0
 17 10  1  0  0  0  0
 18  4  1  0  0  0  0
 18 20  1  0  0  0  0
 19  3  1  0  0  0  0
 19  6  1  0  0  0  0
 20 11  1  0  0  0  0
 21 23  1  0  0  0  0
 22 24  1  0  0  0  0
 25  9  1  0  0  0  0
 25 17  1  0  0  0  0
 26 21  1  0  0  0  0
 27  1  1  0  0  0  0
 27  9  1  0  0  0  0
 28 29  1  0  0  0  0
 28 17  1  0  0  0  0
 30 33  1  0  0  0  0
 32 31  1  0  0  0  0
 32 29  1  0  0  0  0
 33 31  1  0  0  0  0
 34 30  1  0  0  0  0
 34 32  1  0  0  0  0
M  END
>  <MODEL>
3

>  <REMARK>
 VINA RESULT:      -9.1      1.424      1.989
  Name = 
  3 active torsions:
  status: ('A' for Active; 'I' for Inactive)
    1  A    between atoms: C_17  and  O_28
    2  A    between atoms: O_28  and  C_29
    3  A    between atoms: C_29  and  C_32
                            x       y       z     vdW  Elec       q    Type
                         _______ _______ _______ _____ _____    ______ ____

>  <TORSDO>
F 3

$$$$
=
 OpenBabel11122412143D

 34 41  0  0  1  0  0  0  0  0999 V2000
  190.0510  177.0510  141.7790 C   0  0  2  0  0  3  0  0  0  0  0  0
  191.3560  176.8990  139.7390 C   0  0  0  0  0  2  0  0  0  0  0  0
  184.3960  178.7290  145.1640 C   0  0  0  0  0  0  0  0  0  0  0  0
  188.5440  177.2580  143.7900 C   0  0  1  0  0  3  0  0  0  0  0  0
  186.2000  178.2330  143.4700 C   0  0  1  0  0  3  0  0  0  0  0  0
  183.9740  179.3390  143.1040 C   0  0  0  0  0  2  0  0  0  0  0  0
  183.1890  178.8260  144.2610 C   0  0  0  0  0  2  0  0  0  0  0  0
  186.3690  178.4400  146.9750 S   0  0  0  0  0  0  0  0  0  0  0  0
  189.1430  177.3310  139.6460 C   0  0  1  0  0  3  0  0  0  0  0  0
  187.4190  177.5410  136.8650 C   0  0  0  0  0  2  0  0  0  0  0  0
  186.7090  178.6960  142.1000 C   0  0  0  0  0  2  0  0  0  0  0  0
  186.9650  177.2800  145.7080 C   0  0  0  0  0  2  0  0  0  0  0  0
  187.9360  178.1270  140.1540 C   0  0  2  0  0  3  0  0  0  0  0  0
  191.0110  177.0140  138.2560 C   0  0  0  0  0  2  0  0  0  0  0  0
  187.3940  178.0370  144.4480 C   0  0  1  0  0  3  0  0  0  0  0  0
  184.6820  178.3110  146.3920 C   0  0  0  0  0  3  0  0  0  0  0  0
  188.6740  176.7550  137.2720 C   0  0  2  0  0  3  0  0  0  0  0  0
  188.8520  177.8070  142.3910 C   0  0  2  0  0  3  0  0  0  0  0  0
  185.1820  179.2690  143.9840 C   0  0  1  0  0  3  0  0  0  0  0  0
  187.6480  177.7250  141.5450 N   0  0  1  0  0  0  0  0  0  0  0  0
  191.0370  177.8170  144.0330 C   0  0  0  0  0  2  0  0  0  0  0  0
  186.8580  178.4970  137.9210 C   0  0  0  0  0  2  0  0  0  0  0  0
  189.7920  177.2260  144.6960 C   0  0  0  0  0  2  0  0  0  0  0  0
  186.7120  177.8320  139.2800 C   0  0  0  0  0  2  0  0  0  0  0  0
  189.5850  177.5490  138.2180 C   0  0  1  0  0  3  0  0  0  0  0  0
  191.3040  177.1560  142.6770 C   0  0  0  0  0  2  0  0  0  0  0  0
  190.3090  177.6130  140.4570 N   0  0  1  0  0  0  0  0  0  0  0  0
  189.3580  176.3740  136.1150 O   0  0  0  0  0  0  0  0  0  0  0  0
  188.4070  175.7020  135.3410 C   0  0  0  0  0  2  0  0  0  0  0  0
  189.5580  173.3680  137.2920 O   0  0  0  0  0  0  0  0  0  0  0  0
  187.6920  173.3910  135.8470 C   0  0  0  0  0  2  0  0  0  0  0  0
  188.7720  174.2330  135.2320 C   0  0  2  0  0  3  0  0  0  0  0  0
  188.3960  172.6580  136.9630 C   0  0  0  0  0  2  0  0  0  0  0  0
  189.9840  173.9510  136.0890 C   0  0  0  0  0  2  0  0  0  0  0  0
  1 18  1  0  0  0  0
  1 26  1  1  0  0  0
  2 27  1  0  0  0  0
  3 16  2  0  0  0  0
  4 15  1  0  0  0  0
  4 23  1  1  0  0  0
  5 11  1  6  0  0  0
  5 19  1  0  0  0  0
  5 15  1  0  0  0  0
  6 19  1  0  0  0  0
  6  7  1  0  0  0  0
  7  3  1  0  0  0  0
  9 13  1  0  0  0  0
  9 27  1  0  0  0  0
 10 17  1  0  0  0  0
 10 22  1  0  0  0  0
 12  8  1  0  0  0  0
 13 20  1  0  0  0  0
 14  2  1  0  0  0  0
 15 12  1  0  0  0  0
 16  8  1  0  0  0  0
 17 25  1  0  0  0  0
 18  4  1  0  0  0  0
 19  3  1  0  0  0  0
 20 11  1  0  0  0  0
 20 18  1  0  0  0  0
 21 23  1  0  0  0  0
 22 24  1  0  0  0  0
 24 13  1  0  0  0  0
 25 14  1  0  0  0  0
 25  9  1  0  0  0  0
 26 21  1  0  0  0  0
 27  1  1  0  0  0  0
 28 17  1  0  0  0  0
 29 28  1  0  0  0  0
 31 33  1  0  0  0  0
 32 29  1  0  0  0  0
 32 31  1  0  0  0  0
 32 34  1  0  0  0  0
 33 30  1  0  0  0  0
 34 30  1  0  0  0  0
M  END
>  <MODEL>
4

>  <REMARK>
 VINA RESULT:      -9.0      3.824      6.753
  Name = 
  3 active torsions:
  status: ('A' for Active; 'I' for Inactive)
    1  A    between atoms: C_17  and  O_28
    2  A    between atoms: O_28  and  C_29
    3  A    between atoms: C_29  and  C_32
                            x       y       z     vdW  Elec       q    Type
                         _______ _______ _______ _____ _____    ______ ____

>  <TORSDO>
F 3

$$$$
=
 OpenBabel11122412143D

 34 41  0  0  1  0  0  0  0  0999 V2000
  189.6930  177.3480  141.2280 C   0  0  2  0  0  3  0  0  0  0  0  0
  189.8250  177.5590  138.8140 C   0  0  0  0  0  2  0  0  0  0  0  0
  186.4300  178.1350  147.1430 C   0  0  0  0  0  0  0  0  0  0  0  0
  189.3710  177.1790  143.7230 C   0  0  1  0  0  3  0  0  0  0  0  0
  187.1680  178.0010  144.7330 C   0  0  1  0  0  3  0  0  0  0  0  0
  185.0450  178.9670  145.6650 C   0  0  0  0  0  2  0  0  0  0  0  0
  184.9330  178.2510  146.9660 C   0  0  0  0  0  2  0  0  0  0  0  0
  189.0400  177.7730  147.6990 S   0  0  0  0  0  0  0  0  0  0  0  0
  187.8500  177.8250  139.8750 C   0  0  1  0  0  3  0  0  0  0  0  0
  184.9790  178.2510  138.3500 C   0  0  0  0  0  2  0  0  0  0  0  0
  186.9330  178.6730  143.3740 C   0  0  0  0  0  2  0  0  0  0  0  0
  188.9420  176.8330  146.1460 C   0  0  0  0  0  2  0  0  0  0  0  0
  187.0460  178.4520  141.0180 C   0  0  2  0  0  3  0  0  0  0  0  0
  188.7930  177.8340  137.7220 C   0  0  0  0  0  2  0  0  0  0  0  0
  188.6900  177.7760  144.9650 C   0  0  1  0  0  3  0  0  0  0  0  0
  187.2860  177.5880  147.9990 C   0  0  0  0  0  3  0  0  0  0  0  0
  186.2770  177.5200  137.9730 C   0  0  2  0  0  3  0  0  0  0  0  0
  188.9470  177.9240  142.4500 C   0  0  2  0  0  3  0  0  0  0  0  0
  186.5300  178.8800  145.8250 C   0  0  1  0  0  3  0  0  0  0  0  0
  187.4820  177.8560  142.2950 N   0  0  1  0  0  0  0  0  0  0  0  0
  191.6570  177.8960  142.8030 C   0  0  0  0  0  2  0  0  0  0  0  0
  185.0050  179.0180  139.6750 C   0  0  0  0  0  2  0  0  0  0  0  0
  190.9030  177.1300  143.8910 C   0  0  0  0  0  2  0  0  0  0  0  0
  185.5520  178.1760  140.8170 C   0  0  0  0  0  2  0  0  0  0  0  0
  187.5300  178.2560  138.4630 C   0  0  1  0  0  3  0  0  0  0  0  0
  191.2250  177.4360  141.4070 C   0  0  0  0  0  2  0  0  0  0  0  0
  189.2630  178.0910  140.0480 N   0  0  1  0  0  0  0  0  0  0  0  0
  186.3040  177.3440  136.5870 O   0  0  0  0  0  0  0  0  0  0  0  0
  185.6800  176.1110  136.3700 C   0  0  0  0  0  2  0  0  0  0  0  0
  185.9420  172.8750  136.1660 O   0  0  0  0  0  0  0  0  0  0  0  0
  187.5940  174.5600  136.1770 C   0  0  0  0  0  2  0  0  0  0  0  0
  186.4630  175.0070  137.0570 C   0  0  2  0  0  3  0  0  0  0  0  0
  187.3050  173.1000  135.9270 C   0  0  0  0  0  2  0  0  0  0  0  0
  185.5940  173.7770  137.1830 C   0  0  0  0  0  2  0  0  0  0  0  0
  1 26  1  1  0  0  0
  1 18  1  0  0  0  0
  2 27  1  0  0  0  0
  3 16  2  0  0  0  0
  4 23  1  1  0  0  0
  4 15  1  0  0  0  0
  5 11  1  6  0  0  0
  5 15  1  0  0  0  0
  5 19  1  0  0  0  0
  6 19  1  0  0  0  0
  6  7  1  0  0  0  0
  7  3  1  0  0  0  0
  8 16  1  0  0  0  0
  9 27  1  0  0  0  0
  9 13  1  0  0  0  0
 10 22  1  0  0  0  0
 12  8  1  0  0  0  0
 13 20  1  0  0  0  0
 14 25  1  0  0  0  0
 14  2  1  0  0  0  0
 15 12  1  0  0  0  0
 17 10  1  0  0  0  0
 17 25  1  0  0  0  0
 18  4  1  0  0  0  0
 19  3  1  0  0  0  0
 20 18  1  0  0  0  0
 20 11  1  0  0  0  0
 21 23  1  0  0  0  0
 22 24  1  0  0  0  0
 24 13  1  0  0  0  0
 25  9  1  0  0  0  0
 26 21  1  0  0  0  0
 27  1  1  0  0  0  0
 28 17  1  0  0  0  0
 29 28  1  0  0  0  0
 29 32  1  0  0  0  0
 30 34  1  0  0  0  0
 31 32  1  0  0  0  0
 32 34  1  0  0  0  0
 33 30  1  0  0  0  0
 33 31  1  0  0  0  0
M  END
>  <MODEL>
5

>  <REMARK>
 VINA RESULT:      -8.5      3.042      5.070
  Name = 
  3 active torsions:
  status: ('A' for Active; 'I' for Inactive)
    1  A    between atoms: C_17  and  O_28
    2  A    between atoms: O_28  and  C_29
    3  A    between atoms: C_29  and  C_32
                            x       y       z     vdW  Elec       q    Type
                         _______ _______ _______ _____ _____    ______ ____

>  <TORSDO>
F 3

$$$$
=
 OpenBabel11122412143D

 34 41  0  0  1  0  0  0  0  0999 V2000
  184.5200  178.8940  144.2830 C   0  0  2  0  0  3  0  0  0  0  0  0
  182.4300  179.2730  143.1100 C   0  0  0  0  0  2  0  0  0  0  0  0
  191.0040  176.8510  144.4650 C   0  0  0  0  0  0  0  0  0  0  0  0
  186.7730  178.4630  145.3310 C   0  0  1  0  0  3  0  0  0  0  0  0
  188.6500  177.5330  143.8630 C   0  0  1  0  0  3  0  0  0  0  0  0
  190.3950  176.4780  142.3940 C   0  0  0  0  0  2  0  0  0  0  0  0
  191.6510  176.8580  143.0980 C   0  0  0  0  0  2  0  0  0  0  0  0
  190.1090  176.9320  147.0030 S   0  0  0  0  0  0  0  0  0  0  0  0
  184.3240  178.8570  141.9560 C   0  0  1  0  0  3  0  0  0  0  0  0
  184.5550  178.9630  138.6870 C   0  0  0  0  0  2  0  0  0  0  0  0
  187.5430  177.2260  142.8470 C   0  0  0  0  0  2  0  0  0  0  0  0
  189.0560  178.2270  146.2820 C   0  0  0  0  0  2  0  0  0  0  0  0
  185.5870  178.0110  141.7620 C   0  0  2  0  0  3  0  0  0  0  0  0
  182.0440  179.3270  141.6330 C   0  0  0  0  0  2  0  0  0  0  0  0
  188.0550  177.6160  145.2970 C   0  0  1  0  0  3  0  0  0  0  0  0
  191.3400  177.1280  145.7190 C   0  0  0  0  0  3  0  0  0  0  0  0
  183.6720  179.6970  139.7080 C   0  0  2  0  0  3  0  0  0  0  0  0
  185.8250  178.0750  144.1880 C   0  0  2  0  0  3  0  0  0  0  0  0
  189.7360  176.4470  143.7380 C   0  0  1  0  0  3  0  0  0  0  0  0
  186.5050  178.2530  142.8920 N   0  0  1  0  0  0  0  0  0  0  0  0
  184.6490  177.8780  146.6470 C   0  0  0  0  0  2  0  0  0  0  0  0
  185.4910  177.8960  139.2590 C   0  0  0  0  0  2  0  0  0  0  0  0
  186.0880  178.3910  146.7110 C   0  0  0  0  0  2  0  0  0  0  0  0
  186.2820  178.4030  140.4540 C   0  0  0  0  0  2  0  0  0  0  0  0
  183.2620  178.8010  140.8840 C   0  0  1  0  0  3  0  0  0  0  0  0
  183.8200  178.6870  145.6440 C   0  0  0  0  0  2  0  0  0  0  0  0
  183.6520  178.4850  143.1830 N   0  0  1  0  0  0  0  0  0  0  0  0
  182.5520  180.2060  139.0460 O   0  0  0  0  0  0  0  0  0  0  0  0
  182.2470  179.2510  138.0700 C   0  0  0  0  0  2  0  0  0  0  0  0
  180.8050  181.7420  136.5550 O   0  0  0  0  0  0  0  0  0  0  0  0
  180.9800  179.4660  135.9590 C   0  0  0  0  0  2  0  0  0  0  0  0
  180.8930  179.5530  137.4550 C   0  0  2  0  0  3  0  0  0  0  0  0
  180.6050  180.8510  135.4920 C   0  0  0  0  0  2  0  0  0  0  0  0
  180.5340  180.9990  137.7140 C   0  0  0  0  0  2  0  0  0  0  0  0
  1 26  1  1  0  0  0
  2 27  1  0  0  0  0
  3 16  2  0  0  0  0
  4 23  1  1  0  0  0
  5 11  1  6  0  0  0
  5 15  1  0  0  0  0
  6  7  1  0  0  0  0
  6 19  1  0  0  0  0
  7  3  1  0  0  0  0
  9 27  1  0  0  0  0
 10 22  1  0  0  0  0
 10 17  1  0  0  0  0
 11 20  1  0  0  0  0
 12  8  1  0  0  0  0
 13  9  1  0  0  0  0
 13 20  1  0  0  0  0
 14  2  1  0  0  0  0
 15  4  1  0  0  0  0
 15 12  1  0  0  0  0
 16  8  1  0  0  0  0
 17 25  1  0  0  0  0
 18  1  1  0  0  0  0
 18  4  1  0  0  0  0
 19  5  1  0  0  0  0
 19  3  1  0  0  0  0
 20 18  1  0  0  0  0
 21 23  1  0  0  0  0
 22 24  1  0  0  0  0
 24 13  1  0  0  0  0
 25 14  1  0  0  0  0
 25  9  1  0  0  0  0
 26 21  1  0  0  0  0
 27  1  1  0  0  0  0
 28 17  1  0  0  0  0
 29 28  1  0  0  0  0
 30 34  1  0  0  0  0
 31 32  1  0  0  0  0
 32 34  1  0  0  0  0
 32 29  1  0  0  0  0
 33 31  1  0  0  0  0
 33 30  1  0  0  0  0
M  END
>  <MODEL>
6

>  <REMARK>
 VINA RESULT:      -8.4      1.456      3.738
  Name = 
  3 active torsions:
  status: ('A' for Active; 'I' for Inactive)
    1  A    between atoms: C_17  and  O_28
    2  A    between atoms: O_28  and  C_29
    3  A    between atoms: C_29  and  C_32
                            x       y       z     vdW  Elec       q    Type
                         _______ _______ _______ _____ _____    ______ ____

>  <TORSDO>
F 3

$$$$
=
 OpenBabel11122412143D

 34 41  0  0  1  0  0  0  0  0999 V2000
  188.3060  177.1420  138.6240 C   0  0  2  0  0  3  0  0  0  0  0  0
  186.9400  178.4060  140.1790 C   0  0  0  0  0  2  0  0  0  0  0  0
  194.1520  174.1630  136.8330 C   0  0  0  0  0  0  0  0  0  0  0  0
  189.8590  175.8160  137.1450 C   0  0  1  0  0  3  0  0  0  0  0  0
  192.2310  175.3370  137.9750 C   0  0  1  0  0  3  0  0  0  0  0  0
  194.5880  175.0400  138.7920 C   0  0  0  0  0  2  0  0  0  0  0  0
  195.0250  173.8400  138.0250 C   0  0  0  0  0  2  0  0  0  0  0  0
  192.6880  174.4850  134.5960 S   0  0  0  0  0  0  0  0  0  0  0  0
  188.9020  177.5160  140.8500 C   0  0  1  0  0  3  0  0  0  0  0  0
  189.9980  177.5800  143.9400 C   0  0  0  0  0  2  0  0  0  0  0  0
  191.9500  176.4100  139.0340 C   0  0  0  0  0  2  0  0  0  0  0  0
  191.3390  174.3360  135.8060 C   0  0  0  0  0  2  0  0  0  0  0  0
  190.3950  177.2810  140.5960 C   0  0  2  0  0  3  0  0  0  0  0  0
  187.0830  178.7670  141.6570 C   0  0  0  0  0  2  0  0  0  0  0  0
  191.3170  175.5530  136.7350 C   0  0  1  0  0  3  0  0  0  0  0  0
  193.8310  173.6180  135.6650 C   0  0  0  0  0  3  0  0  0  0  0  0
  188.5940  177.5610  143.3180 C   0  0  2  0  0  3  0  0  0  0  0  0
  189.7810  176.8500  138.2760 C   0  0  2  0  0  3  0  0  0  0  0  0
  193.7290  175.3910  137.6180 C   0  0  1  0  0  3  0  0  0  0  0  0
  190.5480  176.3740  139.4420 N   0  0  1  0  0  0  0  0  0  0  0  0
  188.3190  177.5720  136.0830 C   0  0  0  0  0  2  0  0  0  0  0  0
  191.1650  177.6600  142.9520 C   0  0  0  0  0  2  0  0  0  0  0  0
  188.9960  176.2100  135.9290 C   0  0  0  0  0  2  0  0  0  0  0  0
  191.0400  176.6410  141.8300 C   0  0  0  0  0  2  0  0  0  0  0  0
  188.5110  178.3820  142.0250 C   0  0  1  0  0  3  0  0  0  0  0  0
  187.5240  177.6470  137.3910 C   0  0  0  0  0  2  0  0  0  0  0  0
  188.2850  178.1330  139.6950 N   0  0  1  0  0  0  0  0  0  0  0  0
  187.6780  178.0210  144.2680 O   0  0  0  0  0  0  0  0  0  0  0  0
  188.2560  177.7120  145.5030 C   0  0  0  0  0  2  0  0  0  0  0  0
  186.0090  179.3330  147.2060 O   0  0  0  0  0  0  0  0  0  0  0  0
  185.8270  177.4120  145.8490 C   0  0  0  0  0  2  0  0  0  0  0  0
  187.1720  177.3890  146.5150 C   0  0  2  0  0  3  0  0  0  0  0  0
  185.0750  178.4920  146.5860 C   0  0  0  0  0  2  0  0  0  0  0  0
  187.0890  178.5010  147.5350 C   0  0  0  0  0  2  0  0  0  0  0  0
  1 26  1  6  0  0  0
  1 27  1  0  0  0  0
  2 14  1  0  0  0  0
  3 19  1  0  0  0  0
  3  7  1  0  0  0  0
  4 23  1  6  0  0  0
  4 18  1  0  0  0  0
  5 11  1  1  0  0  0
  7  6  1  0  0  0  0
  8 16  1  0  0  0  0
  8 12  1  0  0  0  0
  9 25  1  0  0  0  0
 11 20  1  0  0  0  0
 12 15  1  0  0  0  0
 13  9  1  0  0  0  0
 13 24  1  0  0  0  0
 14 25  1  0  0  0  0
 15  4  1  0  0  0  0
 15  5  1  0  0  0  0
 16  3  2  0  0  0  0
 17 10  1  0  0  0  0
 17 28  1  0  0  0  0
 18  1  1  0  0  0  0
 18 20  1  0  0  0  0
 19  5  1  0  0  0  0
 19  6  1  0  0  0  0
 20 13  1  0  0  0  0
 21 26  1  0  0  0  0
 22 10  1  0  0  0  0
 23 21  1  0  0  0  0
 24 22  1  0  0  0  0
 25 17  1  0  0  0  0
 27  2  1  0  0  0  0
 27  9  1  0  0  0  0
 28 29  1  0  0  0  0
 29 32  1  0  0  0  0
 30 34  1  0  0  0  0
 31 32  1  0  0  0  0
 31 33  1  0  0  0  0
 32 34  1  0  0  0  0
 33 30  1  0  0  0  0
M  END
>  <MODEL>
7

>  <REMARK>
 VINA RESULT:      -8.4      4.579      8.166
  Name = 
  3 active torsions:
  status: ('A' for Active; 'I' for Inactive)
    1  A    between atoms: C_17  and  O_28
    2  A    between atoms: O_28  and  C_29
    3  A    between atoms: C_29  and  C_32
                            x       y       z     vdW  Elec       q    Type
                         _______ _______ _______ _____ _____    ______ ____

>  <TORSDO>
F 3

$$$$
=
 OpenBabel11122412143D

 34 41  0  0  1  0  0  0  0  0999 V2000
  184.3610  178.8910  144.3650 C   0  0  2  0  0  3  0  0  0  0  0  0
  182.1540  179.2090  143.4090 C   0  0  0  0  0  2  0  0  0  0  0  0
  190.9050  177.1080  143.8700 C   0  0  0  0  0  0  0  0  0  0  0  0
  186.7200  178.5300  145.1790 C   0  0  1  0  0  3  0  0  0  0  0  0
  188.4790  177.7060  143.5150 C   0  0  1  0  0  3  0  0  0  0  0  0
  190.1120  176.7530  141.8600 C   0  0  0  0  0  2  0  0  0  0  0  0
  191.4150  177.1690  142.4480 C   0  0  0  0  0  2  0  0  0  0  0  0
  190.2590  177.1010  146.4840 S   0  0  0  0  0  0  0  0  0  0  0  0
  183.9410  178.8940  142.0680 C   0  0  1  0  0  3  0  0  0  0  0  0
  183.8490  179.0760  138.7950 C   0  0  0  0  0  2  0  0  0  0  0  0
  187.2910  177.3760  142.6030 C   0  0  0  0  0  2  0  0  0  0  0  0
  189.0920  178.3670  145.9010 C   0  0  0  0  0  2  0  0  0  0  0  0
  185.2100  178.1030  141.7320 C   0  0  2  0  0  3  0  0  0  0  0  0
  181.6240  179.2780  141.9780 C   0  0  0  0  0  2  0  0  0  0  0  0
  188.0240  177.7360  145.0020 C   0  0  1  0  0  3  0  0  0  0  0  0
  191.3510  177.3720  145.0930 C   0  0  0  0  0  3  0  0  0  0  0  0
  183.0420  179.7530  139.9140 C   0  0  2  0  0  3  0  0  0  0  0  0
  185.6810  178.1270  144.1250 C   0  0  2  0  0  3  0  0  0  0  0  0
  189.5880  176.6680  143.2590 C   0  0  1  0  0  3  0  0  0  0  0  0
  186.2240  178.3590  142.7740 N   0  0  1  0  0  0  0  0  0  0  0  0
  184.7580  177.8320  146.6800 C   0  0  0  0  0  2  0  0  0  0  0  0
  184.8750  178.0360  139.2480 C   0  0  0  0  0  2  0  0  0  0  0  0
  186.1760  178.4020  146.6170 C   0  0  0  0  0  2  0  0  0  0  0  0
  185.7600  178.5500  140.3730 C   0  0  0  0  0  2  0  0  0  0  0  0
  182.7830  178.8180  141.1020 C   0  0  1  0  0  3  0  0  0  0  0  0
  183.8050  178.6280  145.7820 C   0  0  0  0  0  2  0  0  0  0  0  0
  183.4060  178.4700  143.3440 N   0  0  1  0  0  0  0  0  0  0  0  0
  181.8430  180.2300  139.3750 O   0  0  0  0  0  0  0  0  0  0  0  0
  182.2000  181.3870  138.6770 C   0  0  0  0  0  2  0  0  0  0  0  0
  179.2210  182.6870  138.8230 O   0  0  0  0  0  0  0  0  0  0  0  0
  181.0890  183.2530  137.4960 C   0  0  0  0  0  2  0  0  0  0  0  0
  181.0960  181.7660  137.7060 C   0  0  2  0  0  3  0  0  0  0  0  0
  179.7200  183.6790  137.9680 C   0  0  0  0  0  2  0  0  0  0  0  0
  179.7520  181.4830  138.3370 C   0  0  0  0  0  2  0  0  0  0  0  0
  1 26  1  1  0  0  0
  3 16  2  0  0  0  0
  4 23  1  1  0  0  0
  5 11  1  6  0  0  0
  5 15  1  0  0  0  0
  6  7  1  0  0  0  0
  6 19  1  0  0  0  0
  7  3  1  0  0  0  0
  9 27  1  0  0  0  0
 10 22  1  0  0  0  0
 10 17  1  0  0  0  0
 11 20  1  0  0  0  0
 12  8  1  0  0  0  0
 13  9  1  0  0  0  0
 13 20  1  0  0  0  0
 14  2  1  0  0  0  0
 15  4  1  0  0  0  0
 15 12  1  0  0  0  0
 16  8  1  0  0  0  0
 17 25  1  0  0  0  0
 18  1  1  0  0  0  0
 18  4  1  0  0  0  0
 19  5  1  0  0  0  0
 19  3  1  0  0  0  0
 20 18  1  0  0  0  0
 22 24  1  0  0  0  0
 23 21  1  0  0  0  0
 24 13  1  0  0  0  0
 25 14  1  0  0  0  0
 25  9  1  0  0  0  0
 26 21  1  0  0  0  0
 27  2  1  0  0  0  0
 27  1  1  0  0  0  0
 28 17  1  0  0  0  0
 29 28  1  0  0  0  0
 31 32  1  0  0  0  0
 31 33  1  0  0  0  0
 32 34  1  0  0  0  0
 32 29  1  0  0  0  0
 33 30  1  0  0  0  0
 34 30  1  0  0  0  0
M  END
>  <MODEL>
8

>  <REMARK>
 VINA RESULT:      -8.3      1.511      3.858
  Name = 
  3 active torsions:
  status: ('A' for Active; 'I' for Inactive)
    1  A    between atoms: C_17  and  O_28
    2  A    between atoms: O_28  and  C_29
    3  A    between atoms: C_29  and  C_32
                            x       y       z     vdW  Elec       q    Type
                         _______ _______ _______ _____ _____    ______ ____

>  <TORSDO>
F 3

$$$$
=
 OpenBabel11122412143D

 34 41  0  0  1  0  0  0  0  0999 V2000
  188.3630  177.5030  140.5440 C   0  0  2  0  0  3  0  0  0  0  0  0
  187.0570  178.1410  138.6010 C   0  0  0  0  0  2  0  0  0  0  0  0
  189.2720  177.0560  147.2690 C   0  0  0  0  0  0  0  0  0  0  0  0
  189.5660  176.8830  142.6720 C   0  0  1  0  0  3  0  0  0  0  0  0
  188.4370  177.3880  144.9110 C   0  0  1  0  0  3  0  0  0  0  0  0
  187.3330  178.0530  147.0670 C   0  0  0  0  0  2  0  0  0  0  0  0
  187.9690  177.1150  148.0340 C   0  0  0  0  0  2  0  0  0  0  0  0
  191.6810  176.7510  146.1040 S   0  0  0  0  0  0  0  0  0  0  0  0
  186.1090  178.1040  140.6480 C   0  0  1  0  0  3  0  0  0  0  0  0
  182.9220  178.6270  141.2160 C   0  0  0  0  0  2  0  0  0  0  0  0
  187.4850  178.2730  144.0960 C   0  0  0  0  0  2  0  0  0  0  0  0
  190.6300  176.0940  144.7740 C   0  0  0  0  0  2  0  0  0  0  0  0
  186.1720  178.4750  142.1340 C   0  0  2  0  0  3  0  0  0  0  0  0
  185.5980  178.5440  138.3970 C   0  0  0  0  0  2  0  0  0  0  0  0
  189.7860  177.2130  144.1560 C   0  0  1  0  0  3  0  0  0  0  0  0
  190.4340  176.4170  147.3430 C   0  0  0  0  0  3  0  0  0  0  0  0
  183.7010  178.0490  140.0250 C   0  0  2  0  0  3  0  0  0  0  0  0
  188.5170  177.8130  142.0480 C   0  0  2  0  0  3  0  0  0  0  0  0
  188.6180  178.0240  146.3020 C   0  0  1  0  0  3  0  0  0  0  0  0
  187.2430  177.6910  142.7790 N   0  0  1  0  0  0  0  0  0  0  0  0
  190.9060  177.8780  140.7220 C   0  0  0  0  0  2  0  0  0  0  0  0
  183.7690  179.1500  142.3780 C   0  0  0  0  0  2  0  0  0  0  0  0
  190.8960  176.8920  141.8910 C   0  0  0  0  0  2  0  0  0  0  0  0
  184.8340  178.1540  142.8090 C   0  0  0  0  0  2  0  0  0  0  0  0
  185.0430  178.7570  139.8000 C   0  0  1  0  0  3  0  0  0  0  0  0
  189.7070  177.6450  139.7970 C   0  0  0  0  0  2  0  0  0  0  0  0
  187.3640  178.4160  139.9980 N   0  0  1  0  0  0  0  0  0  0  0  0
  182.8950  178.1190  138.8860 O   0  0  0  0  0  0  0  0  0  0  0  0
  182.3990  176.8230  138.7180 C   0  0  0  0  0  2  0  0  0  0  0  0
  183.1300  173.9200  137.4460 O   0  0  0  0  0  0  0  0  0  0  0  0
  181.6800  175.6180  136.6830 C   0  0  0  0  0  2  0  0  0  0  0  0
  182.8420  176.2700  137.3750 C   0  0  2  0  0  3  0  0  0  0  0  0
  182.1160  174.1830  136.5140 C   0  0  0  0  0  2  0  0  0  0  0  0
  183.8150  175.1350  137.5960 C   0  0  0  0  0  2  0  0  0  0  0  0
  1 26  1  6  0  0  0
  1 18  1  0  0  0  0
  2 27  1  0  0  0  0
  3 16  2  0  0  0  0
  3  7  1  0  0  0  0
  4 23  1  6  0  0  0
  4 15  1  0  0  0  0
  5 11  1  6  0  0  0
  5 19  1  0  0  0  0
  6  7  1  0  0  0  0
  8 16  1  0  0  0  0
  9 13  1  0  0  0  0
 10 22  1  0  0  0  0
 12  8  1  0  0  0  0
 13 20  1  0  0  0  0
 13 24  1  0  0  0  0
 14  2  1  0  0  0  0
 14 25  1  0  0  0  0
 15 12  1  0  0  0  0
 15  5  1  0  0  0  0
 17 10  1  0  0  0  0
 18  4  1  0  0  0  0
 18 20  1  0  0  0  0
 19  6  1  0  0  0  0
 19  3  1  0  0  0  0
 20 11  1  0  0  0  0
 21 23  1  0  0  0  0
 22 24  1  0  0  0  0
 25 17  1  0  0  0  0
 25  9  1  0  0  0  0
 26 21  1  0  0  0  0
 27  1  1  0  0  0  0
 27  9  1  0  0  0  0
 28 17  1  0  0  0  0
 29 28  1  0  0  0  0
 30 34  1  0  0  0  0
 31 32  1  0  0  0  0
 32 34  1  0  0  0  0
 32 29  1  0  0  0  0
 33 31  1  0  0  0  0
 33 30  1  0  0  0  0
M  END
>  <MODEL>
9

>  <REMARK>
 VINA RESULT:      -8.2      2.130      2.864
  Name = 
  3 active torsions:
  status: ('A' for Active; 'I' for Inactive)
    1  A    between atoms: C_17  and  O_28
    2  A    between atoms: O_28  and  C_29
    3  A    between atoms: C_29  and  C_32
                            x       y       z     vdW  Elec       q    Type
                         _______ _______ _______ _____ _____    ______ ____

>  <TORSDO>
F 3

$$$$
