=
 OpenBabel11122412233D

 34 40  0  0  1  0  0  0  0  0999 V2000
  187.7600  178.2050  141.5880 C   0  0  1  0  0  3  0  0  0  0  0  0
  186.0340  178.5190  139.9230 C   0  0  0  0  0  2  0  0  0  0  0  0
  189.4390  176.3400  147.5990 C   0  0  0  0  0  0  0  0  0  0  0  0
  189.4580  177.9700  143.3820 C   0  0  2  0  0  3  0  0  0  0  0  0
  188.7360  177.8550  145.7600 C   0  0  0  0  0  0  0  0  0  0  0  0
  187.7720  178.1450  148.1220 C   0  0  0  0  0  1  0  0  0  0  0  0
  188.6790  175.4730  148.1080 O   0  0  0  0  0  0  0  0  0  0  0  0
  191.6030  176.9970  146.5980 C   0  0  0  0  0  2  0  0  0  0  0  0
  185.6250  178.9470  142.1110 C   0  0  2  0  0  3  0  0  0  0  0  0
  182.6050  178.8710  143.3520 C   0  0  0  0  0  2  0  0  0  0  0  0
  187.3700  178.2210  145.2930 C   0  0  0  0  0  3  0  0  0  0  0  0
  191.1480  177.1600  145.1500 C   0  0  0  0  0  2  0  0  0  0  0  0
  185.5980  178.4390  143.5570 C   0  0  1  0  0  3  0  0  0  0  0  0
  184.5830  178.9750  139.9730 C   0  0  0  0  0  2  0  0  0  0  0  0
  189.7350  177.6550  144.8440 C   0  0  0  0  0  0  0  0  0  0  0  0
  190.7840  176.0080  147.2790 N   0  0  0  0  0  2  0  0  0  0  0  0
  183.1670  178.3810  142.0040 C   0  0  2  0  0  3  0  0  0  0  0  0
  188.0110  177.6650  143.0010 C   0  0  1  0  0  3  0  0  0  0  0  0
  188.9480  177.7090  147.2520 C   0  0  1  0  0  3  0  0  0  0  0  0
  187.0290  178.2170  144.0020 C   0  0  0  0  0  0  0  0  0  0  0  0
  190.1470  177.7130  141.1010 C   0  0  0  0  0  2  0  0  0  0  0  0
  183.5340  179.6220  144.2840 C   0  0  0  0  0  3  0  0  0  0  0  0
  190.3460  177.2330  142.4750 N   0  0  0  0  0  2  0  0  0  0  0  0
  184.8530  179.4210  144.4090 C   0  0  0  0  0  3  0  0  0  0  0  0
  184.2930  179.2650  141.4420 C   0  0  1  0  0  3  0  0  0  0  0  0
  188.7050  177.4710  140.6370 C   0  0  0  0  0  2  0  0  0  0  0  0
  186.3480  178.0210  141.2530 N   0  0  2  0  0  0  0  0  0  0  0  0
  182.0690  178.2630  141.0550 N   0  0  0  0  0  2  0  0  0  0  0  0
  180.9210  178.3510  141.7700 O   0  0  0  0  0  0  0  0  0  0  0  0
  179.4410  181.4310  140.9750 N   0  0  0  0  0  2  0  0  0  0  0  0
  180.8400  179.8060  139.8990 C   0  0  0  0  0  2  0  0  0  0  0  0
  180.0590  179.1000  140.9680 C   0  0  2  0  0  3  0  0  0  0  0  0
  180.1040  181.1100  139.7170 C   0  0  0  0  0  2  0  0  0  0  0  0
  179.4300  180.2120  141.7780 C   0  0  0  0  0  2  0  0  0  0  0  0
  1 26  1  6  0  0  0
  1 18  1  0  0  0  0
  2 14  1  0  0  0  0
  2 27  1  0  0  0  0
  3  7  2  0  0  0  0
  4 23  1  6  0  0  0
  4 15  1  0  0  0  0
  5 19  1  0  0  0  0
  8 16  1  0  0  0  0
  9 13  1  0  0  0  0
 10 22  1  0  0  0  0
 11  5  1  0  0  0  0
 12  8  1  0  0  0  0
 13 20  1  0  0  0  0
 13 24  1  0  0  0  0
 14 25  1  0  0  0  0
 15 12  1  0  0  0  0
 15  5  2  0  0  0  0
 16  3  1  0  0  0  0
 17 10  1  0  0  0  0
 18  4  1  0  0  0  0
 18 20  1  0  0  0  0
 19  3  1  0  0  0  0
 19  6  1  0  0  0  0
 20 11  2  0  0  0  0
 21 23  1  0  0  0  0
 22 24  2  0  0  0  0
 25 17  1  0  0  0  0
 25  9  1  0  0  0  0
 26 21  1  0  0  0  0
 27  1  1  0  0  0  0
 27  9  1  0  0  0  0
 28 29  1  0  0  0  0
 28 17  1  0  0  0  0
 30 34  1  0  0  0  0
 31 32  1  0  0  0  0
 32 29  1  0  0  0  0
 32 34  1  0  0  0  0
 33 31  1  0  0  0  0
 33 30  1  0  0  0  0
M  END
>  <MODEL>
1

>  <REMARK>
 VINA RESULT:      -9.3      0.000      0.000
  Name = 
  3 active torsions:
  status: ('A' for Active; 'I' for Inactive)
    1  A    between atoms: C_17  and  N_28
    2  A    between atoms: N_28  and  O_29
    3  A    between atoms: O_29  and  C_32
                            x       y       z     vdW  Elec       q    Type
                         _______ _______ _______ _____ _____    ______ ____

>  <TORSDO>
F 3

$$$$
=
 OpenBabel11122412233D

 34 40  0  0  1  0  0  0  0  0999 V2000
  182.1190  178.9880  143.2300 C   0  0  1  0  0  3  0  0  0  0  0  0
  183.4580  179.0550  145.2440 C   0  0  0  0  0  2  0  0  0  0  0  0
  181.2150  176.6770  137.2080 C   0  0  0  0  0  0  0  0  0  0  0  0
  180.8600  178.9620  141.0930 C   0  0  2  0  0  3  0  0  0  0  0  0
  181.9850  178.2110  139.0050 C   0  0  0  0  0  0  0  0  0  0  0  0
  183.4640  177.7670  136.9540 C   0  0  0  0  0  1  0  0  0  0  0  0
  181.7280  175.5450  137.0010 O   0  0  0  0  0  0  0  0  0  0  0  0
  179.2410  178.1270  137.5470 C   0  0  0  0  0  2  0  0  0  0  0  0
  184.4380  178.9410  143.2040 C   0  0  2  0  0  3  0  0  0  0  0  0
  187.4450  177.7320  142.7960 C   0  0  0  0  0  2  0  0  0  0  0  0
  183.2620  178.2220  139.7690 C   0  0  0  0  0  3  0  0  0  0  0  0
  179.4080  178.4010  139.0400 C   0  0  0  0  0  2  0  0  0  0  0  0
  184.5960  178.1990  141.8720 C   0  0  1  0  0  3  0  0  0  0  0  0
  184.9530  179.0330  145.5240 C   0  0  0  0  0  2  0  0  0  0  0  0
  180.8070  178.4890  139.6470 C   0  0  0  0  0  0  0  0  0  0  0  0
  179.8020  176.8310  137.2020 N   0  0  0  0  0  2  0  0  0  0  0  0
  186.4800  177.6850  143.9960 C   0  0  2  0  0  3  0  0  0  0  0  0
  182.0040  178.3060  141.8620 C   0  0  1  0  0  3  0  0  0  0  0  0
  182.0550  177.8710  137.5300 C   0  0  1  0  0  3  0  0  0  0  0  0
  183.3030  178.3460  141.0980 C   0  0  0  0  0  0  0  0  0  0  0  0
  179.6600  179.3370  143.1340 C   0  0  0  0  0  2  0  0  0  0  0  0
  187.0420  178.5510  141.5860 C   0  0  0  0  0  3  0  0  0  0  0  0
  179.6050  178.7030  141.8100 N   0  0  0  0  0  2  0  0  0  0  0  0
  185.7900  178.7400  141.1460 C   0  0  0  0  0  3  0  0  0  0  0  0
  185.6270  178.9540  144.1580 C   0  0  1  0  0  3  0  0  0  0  0  0
  180.8040  178.7570  143.9750 C   0  0  0  0  0  2  0  0  0  0  0  0
  183.2820  178.4460  143.9350 N   0  0  2  0  0  0  0  0  0  0  0  0
  187.2480  177.4110  145.2020 N   0  0  0  0  0  2  0  0  0  0  0  0
  188.4840  177.9290  145.0070 O   0  0  0  0  0  0  0  0  0  0  0  0
  191.6750  177.0750  146.1880 N   0  0  0  0  0  2  0  0  0  0  0  0
  189.4270  177.1130  147.0240 C   0  0  0  0  0  2  0  0  0  0  0  0
  189.3570  176.9750  145.5320 C   0  0  2  0  0  3  0  0  0  0  0  0
  190.8560  176.7590  147.3520 C   0  0  0  0  0  2  0  0  0  0  0  0
  190.7680  177.2450  145.0580 C   0  0  0  0  0  2  0  0  0  0  0  0
  1 27  1  0  0  0  0
  1 26  1  1  0  0  0
  2 14  1  0  0  0  0
  3 19  1  0  0  0  0
  4 15  1  6  0  0  0
  4 23  1  0  0  0  0
  4 18  1  0  0  0  0
  5 15  2  0  0  0  0
  5 11  1  0  0  0  0
  6 19  1  0  0  0  0
  7  3  2  0  0  0  0
  8 12  1  0  0  0  0
  9 27  1  0  0  0  0
  9 25  1  0  0  0  0
 10 17  1  0  0  0  0
 11 20  2  0  0  0  0
 12 15  1  0  0  0  0
 13  9  1  0  0  0  0
 16  3  1  0  0  0  0
 16  8  1  0  0  0  0
 17 25  1  0  0  0  0
 17 28  1  0  0  0  0
 18  1  1  0  0  0  0
 19  5  1  0  0  0  0
 20 18  1  0  0  0  0
 20 13  1  0  0  0  0
 21 26  1  0  0  0  0
 22 10  1  0  0  0  0
 23 21  1  0  0  0  0
 24 22  2  0  0  0  0
 24 13  1  0  0  0  0
 25 14  1  0  0  0  0
 27  2  1  0  0  0  0
 29 28  1  0  0  0  0
 29 32  1  0  0  0  0
 30 33  1  0  0  0  0
 31 33  1  0  0  0  0
 32 31  1  0  0  0  0
 34 32  1  0  0  0  0
 34 30  1  0  0  0  0
M  END
>  <MODEL>
2

>  <REMARK>
 VINA RESULT:      -9.2      2.372      9.494
  Name = 
  3 active torsions:
  status: ('A' for Active; 'I' for Inactive)
    1  A    between atoms: C_17  and  N_28
    2  A    between atoms: N_28  and  O_29
    3  A    between atoms: O_29  and  C_32
                            x       y       z     vdW  Elec       q    Type
                         _______ _______ _______ _____ _____    ______ ____

>  <TORSDO>
F 3

$$$$
=
 OpenBabel11122412233D

 34 40  0  0  1  0  0  0  0  0999 V2000
  188.2170  178.0610  141.4350 C   0  0  1  0  0  3  0  0  0  0  0  0
  186.6480  178.3050  139.6110 C   0  0  0  0  0  2  0  0  0  0  0  0
  189.3590  176.3770  147.6220 C   0  0  0  0  0  0  0  0  0  0  0  0
  189.7450  177.8990  143.3830 C   0  0  2  0  0  3  0  0  0  0  0  0
  188.8080  177.8330  145.6870 C   0  0  0  0  0  0  0  0  0  0  0  0
  187.6250  178.1660  147.9420 C   0  0  0  0  0  1  0  0  0  0  0  0
  188.5670  175.5110  148.0820 O   0  0  0  0  0  0  0  0  0  0  0  0
  191.5960  177.0430  146.8080 C   0  0  0  0  0  2  0  0  0  0  0  0
  186.0320  178.7820  141.7390 C   0  0  2  0  0  3  0  0  0  0  0  0
  182.9120  178.6880  142.6990 C   0  0  0  0  0  2  0  0  0  0  0  0
  187.4860  178.1640  145.0860 C   0  0  0  0  0  3  0  0  0  0  0  0
  191.2750  177.1620  145.3200 C   0  0  0  0  0  2  0  0  0  0  0  0
  185.8790  178.3100  143.1900 C   0  0  1  0  0  3  0  0  0  0  0  0
  185.1920  178.7380  139.5150 C   0  0  0  0  0  2  0  0  0  0  0  0
  189.8890  177.6260  144.8730 C   0  0  0  0  0  0  0  0  0  0  0  0
  190.7320  176.0580  147.4370 N   0  0  0  0  0  2  0  0  0  0  0  0
  183.6030  178.1730  141.4210 C   0  0  2  0  0  3  0  0  0  0  0  0
  188.3440  177.5620  142.8790 C   0  0  1  0  0  3  0  0  0  0  0  0
  188.8830  177.7280  147.1960 C   0  0  1  0  0  3  0  0  0  0  0  0
  187.2650  178.1220  143.7700 C   0  0  0  0  0  0  0  0  0  0  0  0
  190.6450  177.5950  141.1830 C   0  0  0  0  0  2  0  0  0  0  0  0
  183.7410  179.4780  143.6920 C   0  0  0  0  0  3  0  0  0  0  0  0
  190.7230  177.1540  142.5820 N   0  0  0  0  0  2  0  0  0  0  0  0
  185.0450  179.3000  143.9440 C   0  0  0  0  0  3  0  0  0  0  0  0
  184.7640  179.0610  140.9420 C   0  0  1  0  0  3  0  0  0  0  0  0
  189.2550  177.3190  140.5950 C   0  0  0  0  0  2  0  0  0  0  0  0
  186.8440  177.8450  140.9770 N   0  0  2  0  0  0  0  0  0  0  0  0
  182.5990  178.0130  140.3800 N   0  0  0  0  0  2  0  0  0  0  0  0
  181.3940  178.2410  140.9570 O   0  0  0  0  0  0  0  0  0  0  0  0
  180.2270  175.1110  139.8850 N   0  0  0  0  0  2  0  0  0  0  0  0
  179.3740  177.0070  141.0830 C   0  0  0  0  0  2  0  0  0  0  0  0
  180.4920  177.4870  140.2060 C   0  0  2  0  0  3  0  0  0  0  0  0
  179.0300  175.6510  140.5190 C   0  0  0  0  0  2  0  0  0  0  0  0
  181.1580  176.2220  139.7110 C   0  0  0  0  0  2  0  0  0  0  0  0
  1 26  1  6  0  0  0
  1 18  1  0  0  0  0
  2 27  1  0  0  0  0
  3  7  2  0  0  0  0
  4 23  1  6  0  0  0
  4 15  1  0  0  0  0
  5 19  1  0  0  0  0
  8 16  1  0  0  0  0
  9 13  1  0  0  0  0
 10 22  1  0  0  0  0
 11  5  1  0  0  0  0
 12  8  1  0  0  0  0
 13 20  1  0  0  0  0
 13 24  1  0  0  0  0
 14  2  1  0  0  0  0
 14 25  1  0  0  0  0
 15 12  1  0  0  0  0
 15  5  2  0  0  0  0
 16  3  1  0  0  0  0
 17 10  1  0  0  0  0
 18  4  1  0  0  0  0
 18 20  1  0  0  0  0
 19  3  1  0  0  0  0
 19  6  1  0  0  0  0
 20 11  2  0  0  0  0
 21 23  1  0  0  0  0
 22 24  2  0  0  0  0
 25 17  1  0  0  0  0
 25  9  1  0  0  0  0
 26 21  1  0  0  0  0
 27  1  1  0  0  0  0
 27  9  1  0  0  0  0
 28 29  1  0  0  0  0
 28 17  1  0  0  0  0
 30 33  1  0  0  0  0
 32 29  1  0  0  0  0
 32 31  1  0  0  0  0
 33 31  1  0  0  0  0
 34 30  1  0  0  0  0
 34 32  1  0  0  0  0
M  END
>  <MODEL>
3

>  <REMARK>
 VINA RESULT:      -8.9      1.361      1.871
  Name = 
  3 active torsions:
  status: ('A' for Active; 'I' for Inactive)
    1  A    between atoms: C_17  and  N_28
    2  A    between atoms: N_28  and  O_29
    3  A    between atoms: O_29  and  C_32
                            x       y       z     vdW  Elec       q    Type
                         _______ _______ _______ _____ _____    ______ ____

>  <TORSDO>
F 3

$$$$
=
 OpenBabel11122412233D

 34 40  0  0  1  0  0  0  0  0999 V2000
  188.2710  177.7020  143.0840 C   0  0  1  0  0  3  0  0  0  0  0  0
  190.5370  176.9500  142.7000 C   0  0  0  0  0  2  0  0  0  0  0  0
  182.1600  178.3270  140.9190 C   0  0  0  0  0  0  0  0  0  0  0  0
  185.9570  178.5540  143.3610 C   0  0  2  0  0  3  0  0  0  0  0  0
  184.5300  178.9290  141.3580 C   0  0  0  0  0  0  0  0  0  0  0  0
  183.4120  179.5870  139.1420 C   0  0  0  0  0  1  0  0  0  0  0  0
  181.8130  177.4580  140.0750 O   0  0  0  0  0  0  0  0  0  0  0  0
  182.0460  179.3020  143.1890 C   0  0  0  0  0  2  0  0  0  0  0  0
  189.3170  177.8560  141.0190 C   0  0  2  0  0  3  0  0  0  0  0  0
  189.9480  177.2080  137.8800 C   0  0  0  0  0  2  0  0  0  0  0  0
  185.7450  178.6910  140.5310 C   0  0  0  0  0  3  0  0  0  0  0  0
  183.4230  178.8770  143.6920 C   0  0  0  0  0  2  0  0  0  0  0  0
  188.0470  177.8180  140.1610 C   0  0  1  0  0  3  0  0  0  0  0  0
  191.4540  176.9210  141.4850 C   0  0  0  0  0  2  0  0  0  0  0  0
  184.5980  178.7900  142.7190 C   0  0  0  0  0  0  0  0  0  0  0  0
  181.5510  178.3550  142.2030 N   0  0  0  0  0  2  0  0  0  0  0  0
  190.4420  176.5430  139.1800 C   0  0  2  0  0  3  0  0  0  0  0  0
  186.8660  177.7120  142.4690 C   0  0  1  0  0  3  0  0  0  0  0  0
  183.2540  179.3050  140.6340 C   0  0  1  0  0  3  0  0  0  0  0  0
  186.8760  178.1980  141.0420 C   0  0  0  0  0  0  0  0  0  0  0  0
  187.1730  177.8620  145.3080 C   0  0  0  0  0  2  0  0  0  0  0  0
  189.0920  178.4540  137.9950 C   0  0  0  0  0  3  0  0  0  0  0  0
  185.8500  177.8980  144.6700 N   0  0  0  0  0  2  0  0  0  0  0  0
  188.2240  178.7230  138.9800 C   0  0  0  0  0  3  0  0  0  0  0  0
  190.6430  177.5270  140.3440 C   0  0  1  0  0  3  0  0  0  0  0  0
  188.1680  177.0540  144.4640 C   0  0  0  0  0  2  0  0  0  0  0  0
  189.1790  176.9930  142.1810 N   0  0  2  0  0  0  0  0  0  0  0  0
  191.6670  175.8110  138.8920 N   0  0  0  0  0  2  0  0  0  0  0  0
  191.3130  174.7210  138.1690 O   0  0  0  0  0  0  0  0  0  0  0  0
  193.2940  175.4940  135.3790 N   0  0  0  0  0  2  0  0  0  0  0  0
  193.5640  175.3430  137.7580 C   0  0  0  0  0  2  0  0  0  0  0  0
  192.4240  174.4480  137.3700 C   0  0  2  0  0  3  0  0  0  0  0  0
  194.2720  175.6100  136.4530 C   0  0  0  0  0  2  0  0  0  0  0  0
  192.1300  174.8090  135.9310 C   0  0  0  0  0  2  0  0  0  0  0  0
  1 26  1  1  0  0  0
  3 16  1  0  0  0  0
  4 15  1  6  0  0  0
  4 23  1  0  0  0  0
  5 15  2  0  0  0  0
  6 19  1  0  0  0  0
  7  3  2  0  0  0  0
  8 12  1  0  0  0  0
  9 27  1  0  0  0  0
 10 22  1  0  0  0  0
 10 17  1  0  0  0  0
 11 20  2  0  0  0  0
 11  5  1  0  0  0  0
 13  9  1  0  0  0  0
 13 20  1  0  0  0  0
 14  2  1  0  0  0  0
 15 12  1  0  0  0  0
 16  8  1  0  0  0  0
 17 25  1  0  0  0  0
 18  1  1  0  0  0  0
 18  4  1  0  0  0  0
 19  3  1  0  0  0  0
 19  5  1  0  0  0  0
 20 18  1  0  0  0  0
 22 24  2  0  0  0  0
 23 21  1  0  0  0  0
 24 13  1  0  0  0  0
 25  9  1  0  0  0  0
 25 14  1  0  0  0  0
 26 21  1  0  0  0  0
 27  2  1  0  0  0  0
 27  1  1  0  0  0  0
 28 17  1  0  0  0  0
 29 28  1  0  0  0  0
 30 34  1  0  0  0  0
 30 33  1  0  0  0  0
 32 31  1  0  0  0  0
 32 29  1  0  0  0  0
 33 31  1  0  0  0  0
 34 32  1  0  0  0  0
M  END
>  <MODEL>
4

>  <REMARK>
 VINA RESULT:      -8.6      3.407      8.826
  Name = 
  3 active torsions:
  status: ('A' for Active; 'I' for Inactive)
    1  A    between atoms: C_17  and  N_28
    2  A    between atoms: N_28  and  O_29
    3  A    between atoms: O_29  and  C_32
                            x       y       z     vdW  Elec       q    Type
                         _______ _______ _______ _____ _____    ______ ____

>  <TORSDO>
F 3

$$$$
=
 OpenBabel11122412233D

 34 40  0  0  1  0  0  0  0  0999 V2000
  183.8440  178.4890  143.9860 C   0  0  1  0  0  3  0  0  0  0  0  0
  181.7600  179.1610  142.9590 C   0  0  0  0  0  2  0  0  0  0  0  0
  190.3550  178.3830  143.8390 C   0  0  0  0  0  0  0  0  0  0  0  0
  186.0150  177.7300  144.9200 C   0  0  2  0  0  3  0  0  0  0  0  0
  188.0220  177.6250  143.4530 C   0  0  0  0  0  0  0  0  0  0  0  0
  189.8240  177.2420  141.6650 C   0  0  0  0  0  1  0  0  0  0  0  0
  190.8790  179.3470  143.2190 O   0  0  0  0  0  0  0  0  0  0  0  0
  189.8300  177.1990  145.9450 C   0  0  0  0  0  2  0  0  0  0  0  0
  183.5120  178.4850  141.6900 C   0  0  2  0  0  3  0  0  0  0  0  0
  183.8450  179.4040  138.5740 C   0  0  0  0  0  2  0  0  0  0  0  0
  187.1110  177.8810  142.3030 C   0  0  0  0  0  3  0  0  0  0  0  0
  188.3350  177.5030  146.0150 C   0  0  0  0  0  2  0  0  0  0  0  0
  184.9790  178.6700  141.2870 C   0  0  1  0  0  3  0  0  0  0  0  0
  181.2710  179.2630  141.5220 C   0  0  0  0  0  2  0  0  0  0  0  0
  187.5200  177.6260  144.7280 C   0  0  0  0  0  0  0  0  0  0  0  0
  190.5320  178.2610  145.2440 N   0  0  0  0  0  2  0  0  0  0  0  0
  182.9190  179.9140  139.6950 C   0  0  2  0  0  3  0  0  0  0  0  0
  185.3670  178.6080  143.8520 C   0  0  1  0  0  3  0  0  0  0  0  0
  189.4850  177.3850  143.1460 C   0  0  1  0  0  3  0  0  0  0  0  0
  185.8420  178.2640  142.4640 C   0  0  0  0  0  0  0  0  0  0  0  0
  184.2010  178.1670  146.4250 C   0  0  0  0  0  2  0  0  0  0  0  0
  184.7170  178.1980  138.8590 C   0  0  0  0  0  3  0  0  0  0  0  0
  185.6560  178.2590  146.2410 N   0  0  0  0  0  2  0  0  0  0  0  0
  185.2520  177.8780  140.0450 C   0  0  0  0  0  3  0  0  0  0  0  0
  182.4420  178.8120  140.6560 C   0  0  1  0  0  3  0  0  0  0  0  0
  183.4600  179.0030  145.3730 C   0  0  0  0  0  2  0  0  0  0  0  0
  183.2110  179.2360  142.8990 N   0  0  2  0  0  0  0  0  0  0  0  0
  181.7920  180.6090  139.0900 N   0  0  0  0  0  2  0  0  0  0  0  0
  182.2710  181.7750  138.5940 O   0  0  0  0  0  0  0  0  0  0  0  0
  180.9920  183.9090  136.1200 N   0  0  0  0  0  2  0  0  0  0  0  0
  180.8050  181.5990  136.7370 C   0  0  0  0  0  2  0  0  0  0  0  0
  181.1740  182.3720  137.9690 C   0  0  2  0  0  3  0  0  0  0  0  0
  180.3270  182.6580  135.7770 C   0  0  0  0  0  2  0  0  0  0  0  0
  181.5520  183.7440  137.4570 C   0  0  0  0  0  2  0  0  0  0  0  0
  1 26  1  1  0  0  0
  3 16  1  0  0  0  0
  4 15  1  6  0  0  0
  4 23  1  0  0  0  0
  5 15  2  0  0  0  0
  6 19  1  0  0  0  0
  7  3  2  0  0  0  0
  8 12  1  0  0  0  0
  9 27  1  0  0  0  0
 10 22  1  0  0  0  0
 10 17  1  0  0  0  0
 11 20  2  0  0  0  0
 11  5  1  0  0  0  0
 13  9  1  0  0  0  0
 13 20  1  0  0  0  0
 14  2  1  0  0  0  0
 15 12  1  0  0  0  0
 16  8  1  0  0  0  0
 17 25  1  0  0  0  0
 18  1  1  0  0  0  0
 18  4  1  0  0  0  0
 19  5  1  0  0  0  0
 19  3  1  0  0  0  0
 20 18  1  0  0  0  0
 22 24  2  0  0  0  0
 23 21  1  0  0  0  0
 24 13  1  0  0  0  0
 25 14  1  0  0  0  0
 25  9  1  0  0  0  0
 26 21  1  0  0  0  0
 27  2  1  0  0  0  0
 27  1  1  0  0  0  0
 28 17  1  0  0  0  0
 29 28  1  0  0  0  0
 30 34  1  0  0  0  0
 31 32  1  0  0  0  0
 32 29  1  0  0  0  0
 33 30  1  0  0  0  0
 33 31  1  0  0  0  0
 34 32  1  0  0  0  0
M  END
>  <MODEL>
5

>  <REMARK>
 VINA RESULT:      -8.6      2.601      4.471
  Name = 
  3 active torsions:
  status: ('A' for Active; 'I' for Inactive)
    1  A    between atoms: C_17  and  N_28
    2  A    between atoms: N_28  and  O_29
    3  A    between atoms: O_29  and  C_32
                            x       y       z     vdW  Elec       q    Type
                         _______ _______ _______ _____ _____    ______ ____

>  <TORSDO>
F 3

$$$$
=
 OpenBabel11122412233D

 34 40  0  0  1  0  0  0  0  0999 V2000
  188.4520  178.0070  141.3140 C   0  0  1  0  0  3  0  0  0  0  0  0
  186.9810  178.2120  139.4050 C   0  0  0  0  0  2  0  0  0  0  0  0
  189.2730  176.4230  147.5790 C   0  0  0  0  0  0  0  0  0  0  0  0
  189.8750  177.8850  143.3440 C   0  0  2  0  0  3  0  0  0  0  0  0
  188.8160  177.8470  145.5950 C   0  0  0  0  0  0  0  0  0  0  0  0
  187.5130  178.2050  147.7780 C   0  0  0  0  0  1  0  0  0  0  0  0
  188.4630  175.5590  148.0090 O   0  0  0  0  0  0  0  0  0  0  0  0
  191.5460  177.0930  146.8740 C   0  0  0  0  0  2  0  0  0  0  0  0
  186.2500  178.7170  141.4900 C   0  0  2  0  0  3  0  0  0  0  0  0
  183.0840  178.6150  142.2840 C   0  0  0  0  0  2  0  0  0  0  0  0
  187.5270  178.1590  144.9190 C   0  0  0  0  0  3  0  0  0  0  0  0
  191.3040  177.1880  145.3700 C   0  0  0  0  0  2  0  0  0  0  0  0
  186.0220  178.2650  142.9380 C   0  0  1  0  0  3  0  0  0  0  0  0
  185.5300  178.6340  139.2250 C   0  0  0  0  0  2  0  0  0  0  0  0
  189.9410  177.6350  144.8430 C   0  0  0  0  0  0  0  0  0  0  0  0
  190.6550  176.1110  147.4720 N   0  0  0  0  0  2  0  0  0  0  0  0
  183.8450  178.0860  141.0530 C   0  0  2  0  0  3  0  0  0  0  0  0
  188.5050  177.5300  142.7700 C   0  0  1  0  0  3  0  0  0  0  0  0
  188.8110  177.7640  147.1070 C   0  0  1  0  0  3  0  0  0  0  0  0
  187.3770  178.0970  143.5940 C   0  0  0  0  0  0  0  0  0  0  0  0
  190.8940  177.5550  141.1990 C   0  0  0  0  0  2  0  0  0  0  0  0
  183.8530  179.4250  143.3070 C   0  0  0  0  0  3  0  0  0  0  0  0
  190.8990  177.1350  142.6060 N   0  0  0  0  0  2  0  0  0  0  0  0
  185.1430  179.2610  143.6310 C   0  0  0  0  0  3  0  0  0  0  0  0
  185.0240  178.9750  140.6230 C   0  0  1  0  0  3  0  0  0  0  0  0
  189.5390  177.2600  140.5420 C   0  0  0  0  0  2  0  0  0  0  0  0
  187.1070  177.7750  140.7870 N   0  0  2  0  0  0  0  0  0  0  0  0
  182.8990  177.9040  139.9620 N   0  0  0  0  0  2  0  0  0  0  0  0
  181.9820  177.0000  140.3840 O   0  0  0  0  0  0  0  0  0  0  0  0
  179.7140  179.0520  138.6650 N   0  0  0  0  0  2  0  0  0  0  0  0
  181.4330  177.4680  138.1250 C   0  0  0  0  0  2  0  0  0  0  0  0
  180.9160  177.1320  139.4930 C   0  0  2  0  0  3  0  0  0  0  0  0
  180.3750  178.3780  137.5540 C   0  0  0  0  0  2  0  0  0  0  0  0
  180.0610  178.3190  139.8780 C   0  0  0  0  0  2  0  0  0  0  0  0
  1 26  1  6  0  0  0
  1 18  1  0  0  0  0
  2 27  1  0  0  0  0
  3  7  2  0  0  0  0
  4 23  1  6  0  0  0
  4 15  1  0  0  0  0
  5 19  1  0  0  0  0
  8 16  1  0  0  0  0
  9 13  1  0  0  0  0
 10 22  1  0  0  0  0
 11  5  1  0  0  0  0
 12  8  1  0  0  0  0
 13 20  1  0  0  0  0
 13 24  1  0  0  0  0
 14  2  1  0  0  0  0
 14 25  1  0  0  0  0
 15 12  1  0  0  0  0
 15  5  2  0  0  0  0
 16  3  1  0  0  0  0
 17 10  1  0  0  0  0
 18  4  1  0  0  0  0
 18 20  1  0  0  0  0
 19  3  1  0  0  0  0
 19  6  1  0  0  0  0
 20 11  2  0  0  0  0
 21 23  1  0  0  0  0
 22 24  2  0  0  0  0
 25 17  1  0  0  0  0
 25  9  1  0  0  0  0
 26 21  1  0  0  0  0
 27  1  1  0  0  0  0
 27  9  1  0  0  0  0
 28 29  1  0  0  0  0
 28 17  1  0  0  0  0
 30 34  1  0  0  0  0
 31 32  1  0  0  0  0
 32 34  1  0  0  0  0
 32 29  1  0  0  0  0
 33 31  1  0  0  0  0
 33 30  1  0  0  0  0
M  END
>  <MODEL>
6

>  <REMARK>
 VINA RESULT:      -8.4      1.277      1.419
  Name = 
  3 active torsions:
  status: ('A' for Active; 'I' for Inactive)
    1  A    between atoms: C_17  and  N_28
    2  A    between atoms: N_28  and  O_29
    3  A    between atoms: O_29  and  C_32
                            x       y       z     vdW  Elec       q    Type
                         _______ _______ _______ _____ _____    ______ ____

>  <TORSDO>
F 3

$$$$
=
 OpenBabel11122412233D

 34 40  0  0  1  0  0  0  0  0999 V2000
  188.8940  177.4990  138.0360 C   0  0  1  0  0  3  0  0  0  0  0  0
  187.2360  178.2780  139.6150 C   0  0  0  0  0  2  0  0  0  0  0  0
  194.0520  173.7280  136.7700 C   0  0  0  0  0  0  0  0  0  0  0  0
  190.6950  176.7440  136.5060 C   0  0  2  0  0  3  0  0  0  0  0  0
  192.7760  175.7520  137.4400 C   0  0  0  0  0  0  0  0  0  0  0  0
  194.9520  175.1270  138.6530 C   0  0  0  0  0  1  0  0  0  0  0  0
  194.1310  172.6940  137.4860 O   0  0  0  0  0  0  0  0  0  0  0  0
  193.6210  174.8250  134.5970 C   0  0  0  0  0  2  0  0  0  0  0  0
  189.3670  177.8780  140.2760 C   0  0  2  0  0  3  0  0  0  0  0  0
  190.1140  177.1870  143.3790 C   0  0  0  0  0  2  0  0  0  0  0  0
  192.2950  176.1770  138.7840 C   0  0  0  0  0  3  0  0  0  0  0  0
  192.2730  175.4630  134.9220 C   0  0  0  0  0  2  0  0  0  0  0  0
  190.5330  176.8900  140.3920 C   0  0  1  0  0  3  0  0  0  0  0  0
  187.2570  178.5990  141.1030 C   0  0  0  0  0  2  0  0  0  0  0  0
  191.9820  175.9490  136.3420 C   0  0  0  0  0  0  0  0  0  0  0  0
  193.8100  173.6120  135.3750 N   0  0  0  0  0  2  0  0  0  0  0  0
  188.7610  177.2410  142.6420 C   0  0  2  0  0  3  0  0  0  0  0  0
  190.0530  176.5090  137.8710 C   0  0  1  0  0  3  0  0  0  0  0  0
  194.1400  175.0990  137.3610 C   0  0  1  0  0  3  0  0  0  0  0  0
  191.0500  176.6110  138.9960 C   0  0  0  0  0  0  0  0  0  0  0  0
  188.5720  177.3540  135.5760 C   0  0  0  0  0  2  0  0  0  0  0  0
  191.3570  177.6130  142.6250 C   0  0  0  0  0  3  0  0  0  0  0  0
  189.7090  176.4310  135.4640 N   0  0  0  0  0  2  0  0  0  0  0  0
  191.5700  177.4590  141.3100 C   0  0  0  0  0  3  0  0  0  0  0  0
  188.6860  178.3320  141.5610 C   0  0  1  0  0  3  0  0  0  0  0  0
  187.8750  177.2070  136.9350 C   0  0  0  0  0  2  0  0  0  0  0  0
  188.3400  177.3610  139.3840 N   0  0  2  0  0  0  0  0  0  0  0  0
  187.7000  177.4010  143.6260 N   0  0  0  0  0  2  0  0  0  0  0  0
  188.2210  177.0490  144.8260 O   0  0  0  0  0  0  0  0  0  0  0  0
  186.4730  178.7900  147.3210 N   0  0  0  0  0  2  0  0  0  0  0  0
  186.0440  177.9450  145.1160 C   0  0  0  0  0  2  0  0  0  0  0  0
  187.1470  177.1220  145.7140 C   0  0  2  0  0  3  0  0  0  0  0  0
  185.4380  178.6510  146.3030 C   0  0  0  0  0  2  0  0  0  0  0  0
  187.5540  177.8780  146.9600 C   0  0  0  0  0  2  0  0  0  0  0  0
  1 26  1  6  0  0  0
  1 27  1  0  0  0  0
  2 14  1  0  0  0  0
  3 19  1  0  0  0  0
  3  7  2  0  0  0  0
  4 23  1  6  0  0  0
  4 18  1  0  0  0  0
  5 11  1  0  0  0  0
  8 12  1  0  0  0  0
  8 16  1  0  0  0  0
  9 13  1  0  0  0  0
  9 25  1  0  0  0  0
 11 20  2  0  0  0  0
 12 15  1  0  0  0  0
 13 24  1  0  0  0  0
 14 25  1  0  0  0  0
 15  4  1  0  0  0  0
 15  5  2  0  0  0  0
 16  3  1  0  0  0  0
 17 10  1  0  0  0  0
 17 28  1  0  0  0  0
 18  1  1  0  0  0  0
 18 20  1  0  0  0  0
 19  5  1  0  0  0  0
 19  6  1  0  0  0  0
 20 13  1  0  0  0  0
 21 26  1  0  0  0  0
 22 10  1  0  0  0  0
 23 21  1  0  0  0  0
 24 22  2  0  0  0  0
 25 17  1  0  0  0  0
 27  2  1  0  0  0  0
 27  9  1  0  0  0  0
 28 29  1  0  0  0  0
 29 32  1  0  0  0  0
 31 32  1  0  0  0  0
 31 33  1  0  0  0  0
 32 34  1  0  0  0  0
 33 30  1  0  0  0  0
 34 30  1  0  0  0  0
M  END
>  <MODEL>
7

>  <REMARK>
 VINA RESULT:      -8.3      4.647      8.221
  Name = 
  3 active torsions:
  status: ('A' for Active; 'I' for Inactive)
    1  A    between atoms: C_17  and  N_28
    2  A    between atoms: N_28  and  O_29
    3  A    between atoms: O_29  and  C_32
                            x       y       z     vdW  Elec       q    Type
                         _______ _______ _______ _____ _____    ______ ____

>  <TORSDO>
F 3

$$$$
=
 OpenBabel11122412233D

 34 40  0  0  1  0  0  0  0  0999 V2000
  185.7960  178.3910  142.8850 C   0  0  1  0  0  3  0  0  0  0  0  0
  185.5470  178.8240  140.5180 C   0  0  0  0  0  2  0  0  0  0  0  0
  189.6710  177.9870  148.1040 C   0  0  0  0  0  0  0  0  0  0  0  0
  186.1440  177.8450  145.2800 C   0  0  2  0  0  3  0  0  0  0  0  0
  188.4180  177.2440  146.0920 C   0  0  0  0  0  0  0  0  0  0  0  0
  190.7500  176.2930  146.5940 C   0  0  0  0  0  1  0  0  0  0  0  0
  190.7010  178.7110  148.0470 O   0  0  0  0  0  0  0  0  0  0  0  0
  187.4370  177.4760  149.0320 C   0  0  0  0  0  2  0  0  0  0  0  0
  187.3740  177.7440  141.3120 C   0  0  2  0  0  3  0  0  0  0  0  0
  190.2090  177.7190  139.6910 C   0  0  0  0  0  2  0  0  0  0  0  0
  188.8410  177.1960  144.6660 C   0  0  0  0  0  3  0  0  0  0  0  0
  186.5910  177.8470  147.8170 C   0  0  0  0  0  2  0  0  0  0  0  0
  188.5870  177.7470  142.2510 C   0  0  1  0  0  3  0  0  0  0  0  0
  186.3980  178.5300  139.2910 C   0  0  0  0  0  2  0  0  0  0  0  0
  187.1420  177.6300  146.4080 C   0  0  0  0  0  0  0  0  0  0  0  0
  188.6580  178.2650  149.0610 N   0  0  0  0  0  2  0  0  0  0  0  0
  188.9340  178.5650  139.5060 C   0  0  2  0  0  3  0  0  0  0  0  0
  186.8160  178.4060  144.0290 C   0  0  1  0  0  3  0  0  0  0  0  0
  189.4450  176.8670  147.1400 C   0  0  1  0  0  3  0  0  0  0  0  0
  188.0770  177.6600  143.6740 C   0  0  0  0  0  0  0  0  0  0  0  0
  184.0380  178.7670  144.6020 C   0  0  0  0  0  2  0  0  0  0  0  0
  190.1880  176.6100  140.7240 C   0  0  0  0  0  3  0  0  0  0  0  0
  185.0500  178.7440  145.6660 N   0  0  0  0  0  2  0  0  0  0  0  0
  189.5020  176.6220  141.8750 C   0  0  0  0  0  3  0  0  0  0  0  0
  187.6340  177.8040  139.8120 C   0  0  1  0  0  3  0  0  0  0  0  0
  184.6320  179.2950  143.2890 C   0  0  0  0  0  2  0  0  0  0  0  0
  186.4580  178.8210  141.6520 N   0  0  2  0  0  0  0  0  0  0  0  0
  188.9230  179.1020  138.1530 N   0  0  0  0  0  2  0  0  0  0  0  0
  189.7630  178.3330  137.4180 O   0  0  0  0  0  0  0  0  0  0  0  0
  187.1410  176.5110  135.9650 N   0  0  0  0  0  2  0  0  0  0  0  0
  187.7770  178.8110  136.2130 C   0  0  0  0  0  2  0  0  0  0  0  0
  189.0250  177.9820  136.2870 C   0  0  2  0  0  3  0  0  0  0  0  0
  186.7570  177.8740  135.6170 C   0  0  0  0  0  2  0  0  0  0  0  0
  188.5290  176.5580  136.4130 C   0  0  0  0  0  2  0  0  0  0  0  0
  1 26  1  1  0  0  0
  1 18  1  0  0  0  0
  2 27  1  0  0  0  0
  3 16  1  0  0  0  0
  4 23  1  1  0  0  0
  4 15  1  0  0  0  0
  5 15  2  0  0  0  0
  5 19  1  0  0  0  0
  6 19  1  0  0  0  0
  7  3  2  0  0  0  0
  8 16  1  0  0  0  0
  9 27  1  0  0  0  0
  9 13  1  0  0  0  0
 10 22  1  0  0  0  0
 11  5  1  0  0  0  0
 12  8  1  0  0  0  0
 13 20  1  0  0  0  0
 14 25  1  0  0  0  0
 14  2  1  0  0  0  0
 15 12  1  0  0  0  0
 17 10  1  0  0  0  0
 17 25  1  0  0  0  0
 18  4  1  0  0  0  0
 19  3  1  0  0  0  0
 20 18  1  0  0  0  0
 20 11  2  0  0  0  0
 21 23  1  0  0  0  0
 22 24  2  0  0  0  0
 24 13  1  0  0  0  0
 25  9  1  0  0  0  0
 26 21  1  0  0  0  0
 27  1  1  0  0  0  0
 28 17  1  0  0  0  0
 29 28  1  0  0  0  0
 30 34  1  0  0  0  0
 31 32  1  0  0  0  0
 32 34  1  0  0  0  0
 32 29  1  0  0  0  0
 33 30  1  0  0  0  0
 33 31  1  0  0  0  0
M  END
>  <MODEL>
8

>  <REMARK>
 VINA RESULT:      -8.1      3.293      5.766
  Name = 
  3 active torsions:
  status: ('A' for Active; 'I' for Inactive)
    1  A    between atoms: C_17  and  N_28
    2  A    between atoms: N_28  and  O_29
    3  A    between atoms: O_29  and  C_32
                            x       y       z     vdW  Elec       q    Type
                         _______ _______ _______ _____ _____    ______ ____

>  <TORSDO>
F 3

$$$$
=
 OpenBabel11122412233D

 34 40  0  0  1  0  0  0  0  0999 V2000
  186.0520  178.5550  143.0040 C   0  0  1  0  0  3  0  0  0  0  0  0
  188.3960  178.2010  142.5260 C   0  0  0  0  0  2  0  0  0  0  0  0
  179.8200  177.5980  141.3700 C   0  0  0  0  0  0  0  0  0  0  0  0
  183.6340  178.9770  143.3660 C   0  0  2  0  0  3  0  0  0  0  0  0
  182.0360  178.7140  141.4770 C   0  0  0  0  0  0  0  0  0  0  0  0
  180.6690  178.7470  139.3040 C   0  0  0  0  0  1  0  0  0  0  0  0
  179.6090  176.5440  140.7110 O   0  0  0  0  0  0  0  0  0  0  0  0
  179.6500  178.9120  143.4580 C   0  0  0  0  0  2  0  0  0  0  0  0
  186.9120  178.5470  140.8490 C   0  0  2  0  0  3  0  0  0  0  0  0
  187.4640  177.4970  137.8060 C   0  0  0  0  0  2  0  0  0  0  0  0
  183.2200  178.5760  140.5840 C   0  0  0  0  0  3  0  0  0  0  0  0
  181.1140  178.8560  143.8860 C   0  0  0  0  0  2  0  0  0  0  0  0
  185.6250  178.1150  140.1350 C   0  0  1  0  0  3  0  0  0  0  0  0
  189.2200  178.1390  141.2470 C   0  0  0  0  0  2  0  0  0  0  0  0
  182.2180  178.8300  142.8300 C   0  0  0  0  0  0  0  0  0  0  0  0
  179.3010  177.7300  142.6860 N   0  0  0  0  0  2  0  0  0  0  0  0
  188.1660  177.1770  139.1400 C   0  0  2  0  0  3  0  0  0  0  0  0
  184.6400  178.1860  142.5340 C   0  0  1  0  0  3  0  0  0  0  0  0
  180.6670  178.7040  140.8300 C   0  0  1  0  0  3  0  0  0  0  0  0
  184.4580  178.4080  141.0550 C   0  0  0  0  0  0  0  0  0  0  0  0
  185.0870  178.8830  145.2710 C   0  0  0  0  0  2  0  0  0  0  0  0
  186.3780  178.5540  137.8050 C   0  0  0  0  0  3  0  0  0  0  0  0
  183.7470  178.5520  144.7670 N   0  0  0  0  0  2  0  0  0  0  0  0
  185.5360  178.8170  138.8140 C   0  0  0  0  0  3  0  0  0  0  0  0
  188.2320  178.3690  140.1090 C   0  0  1  0  0  3  0  0  0  0  0  0
  186.1720  178.1500  144.4720 C   0  0  0  0  0  2  0  0  0  0  0  0
  187.0290  177.8890  142.1410 N   0  0  2  0  0  0  0  0  0  0  0  0
  189.4960  176.6570  138.8550 N   0  0  0  0  0  2  0  0  0  0  0  0
  189.3650  175.7870  137.8240 O   0  0  0  0  0  0  0  0  0  0  0  0
  192.3950  176.0160  136.0710 N   0  0  0  0  0  2  0  0  0  0  0  0
  191.6490  176.1480  138.3480 C   0  0  0  0  0  2  0  0  0  0  0  0
  190.6570  175.3160  137.5900 C   0  0  2  0  0  3  0  0  0  0  0  0
  192.8560  176.1810  137.4440 C   0  0  0  0  0  2  0  0  0  0  0  0
  191.0260  175.5140  136.1360 C   0  0  0  0  0  2  0  0  0  0  0  0
  1 26  1  1  0  0  0
  3 16  1  0  0  0  0
  4 15  1  6  0  0  0
  4 23  1  0  0  0  0
  5 15  2  0  0  0  0
  6 19  1  0  0  0  0
  7  3  2  0  0  0  0
  8 12  1  0  0  0  0
  9 27  1  0  0  0  0
 10 17  1  0  0  0  0
 11 20  2  0  0  0  0
 11  5  1  0  0  0  0
 13  9  1  0  0  0  0
 13 20  1  0  0  0  0
 14  2  1  0  0  0  0
 15 12  1  0  0  0  0
 16  8  1  0  0  0  0
 17 25  1  0  0  0  0
 18  1  1  0  0  0  0
 18  4  1  0  0  0  0
 19  3  1  0  0  0  0
 19  5  1  0  0  0  0
 20 18  1  0  0  0  0
 22 10  1  0  0  0  0
 22 24  2  0  0  0  0
 23 21  1  0  0  0  0
 24 13  1  0  0  0  0
 25  9  1  0  0  0  0
 25 14  1  0  0  0  0
 26 21  1  0  0  0  0
 27  2  1  0  0  0  0
 27  1  1  0  0  0  0
 28 17  1  0  0  0  0
 29 28  1  0  0  0  0
 30 34  1  0  0  0  0
 30 33  1  0  0  0  0
 32 29  1  0  0  0  0
 32 31  1  0  0  0  0
 33 31  1  0  0  0  0
 34 32  1  0  0  0  0
M  END
>  <MODEL>
9

>  <REMARK>
 VINA RESULT:      -8.1      3.172      8.661
  Name = 
  3 active torsions:
  status: ('A' for Active; 'I' for Inactive)
    1  A    between atoms: C_17  and  N_28
    2  A    between atoms: N_28  and  O_29
    3  A    between atoms: O_29  and  C_32
                            x       y       z     vdW  Elec       q    Type
                         _______ _______ _______ _____ _____    ______ ____

>  <TORSDO>
F 3

$$$$
