=
 OpenBabel11122411493D

 28 32  0  0  1  0  0  0  0  0999 V2000
  185.4570  178.8830  144.2920 C   0  0  0  0  0  0  0  0  0  0  0  0
  189.0690  179.1910  142.0210 O   0  0  0  0  0  0  0  0  0  0  0  0
  181.8190  176.8310  139.9780 O   0  0  0  0  0  0  0  0  0  0  0  0
  187.2250  176.8310  145.0150 C   0  0  0  0  0  3  0  0  0  0  0  0
  183.8050  177.8280  139.1720 N   0  0  0  0  0  0  0  0  0  0  0  0
  184.5100  179.9950  143.9710 C   0  0  0  0  0  2  0  0  0  0  0  0
  188.9390  176.7900  141.4440 O   0  0  0  0  0  0  0  0  0  0  0  0
  188.5560  178.1820  141.0330 S   0  0  0  0  0  0  0  0  0  0  0  0
  188.3310  178.5350  138.3230 C   0  0  0  0  0  0  0  0  0  0  0  0
  186.8420  178.3220  140.8780 N   0  0  0  0  0  0  0  0  0  0  0  0
  181.1540  178.5450  143.9710 O   0  0  0  0  0  0  0  0  0  0  0  0
  184.6510  178.4850  141.2190 C   0  0  0  0  0  0  0  0  0  0  0  0
  186.9260  177.9960  138.3860 C   0  0  0  0  0  2  0  0  0  0  0  0
  189.1950  178.5220  139.4660 N   0  0  0  0  0  2  0  0  0  0  0  0
  182.2040  179.0530  143.5000 C   0  0  0  0  0  0  0  0  0  0  0  0
  186.1080  178.1320  143.2860 C   0  0  0  0  0  0  0  0  0  0  0  0
  182.8750  177.4810  140.2010 C   0  0  0  0  0  0  0  0  0  0  0  0
  188.9610  178.8970  136.8630 S   0  0  0  0  0  0  0  0  0  0  0  0
  182.4020  179.0660  142.0200 C   0  0  0  0  0  2  0  0  0  0  0  0
  186.9840  177.1060  143.6680 C   0  0  0  0  0  3  0  0  0  0  0  0
  185.7110  178.6040  145.6410 C   0  0  0  0  0  3  0  0  0  0  0  0
  186.5890  177.5820  146.0030 C   0  0  0  0  0  3  0  0  0  0  0  0
  183.1650  179.6260  144.3870 N   0  0  0  0  0  2  0  0  0  0  0  0
  184.8730  178.4340  139.8780 C   0  0  0  0  0  0  0  0  0  0  0  0
  183.3080  177.9300  141.5750 C   0  0  2  0  0  3  0  0  0  0  0  0
  186.2330  178.3390  139.6750 C   0  0  0  0  0  0  0  0  0  0  0  0
  183.8940  177.1740  137.8770 C   0  0  0  0  0  1  0  0  0  0  0  0
  185.8870  178.3850  141.8430 C   0  0  0  0  0  0  0  0  0  0  0  0
  1 21  1  0  0  0  0
  3 17  2  0  0  0  0
  4 22  1  0  0  0  0
  5 24  1  0  0  0  0
  5 17  1  0  0  0  0
  6  1  1  0  0  0  0
  6 23  1  0  0  0  0
  8  7  2  0  0  0  0
  8  2  2  0  0  0  0
  9 13  1  0  0  0  0
  9 14  1  0  0  0  0
 10  8  1  0  0  0  0
 10 28  1  0  0  0  0
 12 25  1  0  0  0  0
 12 28  2  0  0  0  0
 13 26  1  0  0  0  0
 14  8  1  0  0  0  0
 15 11  2  0  0  0  0
 15 23  1  0  0  0  0
 16 20  1  0  0  0  0
 16  1  2  0  0  0  0
 17 25  1  0  0  0  0
 18  9  2  0  0  0  0
 19 15  1  0  0  0  0
 20  4  2  0  0  0  0
 21 22  2  0  0  0  0
 24 12  1  0  0  0  0
 25 19  1  6  0  0  0
 26 24  2  0  0  0  0
 26 10  1  0  0  0  0
 27  5  1  0  0  0  0
 28 16  1  0  0  0  0
M  END
>  <MODEL>
1

>  <REMARK>
 VINA RESULT:      -8.5      0.000      0.000
  Name = 
  0 active torsions:
  status: ('A' for Active; 'I' for Inactive)
                            x       y       z     vdW  Elec       q    Type
                         _______ _______ _______ _____ _____    ______ ____

>  <TORSDO>
F 0

$$$$
=
 OpenBabel11122411493D

 28 32  0  0  1  0  0  0  0  0999 V2000
  184.5120  177.6720  138.5420 C   0  0  0  0  0  0  0  0  0  0  0  0
  180.3920  178.4650  139.3800 O   0  0  0  0  0  0  0  0  0  0  0  0
  186.6240  177.6890  144.1630 O   0  0  0  0  0  0  0  0  0  0  0  0
  182.9910  175.3470  138.1700 C   0  0  0  0  0  3  0  0  0  0  0  0
  184.5140  178.7270  143.9210 N   0  0  0  0  0  0  0  0  0  0  0  0
  185.3480  178.9060  138.6780 C   0  0  0  0  0  2  0  0  0  0  0  0
  180.2790  176.4650  140.8310 O   0  0  0  0  0  0  0  0  0  0  0  0
  180.5570  177.9400  140.7780 S   0  0  0  0  0  0  0  0  0  0  0  0
  179.9630  179.2830  143.0930 C   0  0  0  0  0  0  0  0  0  0  0  0
  182.1470  178.2820  141.3570 N   0  0  0  0  0  0  0  0  0  0  0  0
  188.5080  177.8680  140.1950 O   0  0  0  0  0  0  0  0  0  0  0  0
  184.3430  178.5070  141.6280 C   0  0  0  0  0  0  0  0  0  0  0  0
  181.3070  178.8880  143.6470 C   0  0  0  0  0  2  0  0  0  0  0  0
  179.4840  178.7730  141.8440 N   0  0  0  0  0  2  0  0  0  0  0  0
  187.3780  178.4160  140.1150 C   0  0  0  0  0  0  0  0  0  0  0  0
  183.5680  177.2880  139.5220 C   0  0  0  0  0  0  0  0  0  0  0  0
  185.7010  178.1120  143.4160 C   0  0  0  0  0  0  0  0  0  0  0  0
  178.9320  180.0980  144.0600 S   0  0  0  0  0  0  0  0  0  0  0  0
  186.7430  178.9540  141.3540 C   0  0  0  0  0  2  0  0  0  0  0  0
  182.8220  176.1180  139.3200 C   0  0  0  0  0  3  0  0  0  0  0  0
  184.6700  176.8950  137.3870 C   0  0  0  0  0  3  0  0  0  0  0  0
  183.9160  175.7370  137.2010 C   0  0  0  0  0  3  0  0  0  0  0  0
  186.7450  178.5330  138.8410 N   0  0  0  0  0  2  0  0  0  0  0  0
  183.7250  178.9320  142.7640 C   0  0  0  0  0  0  0  0  0  0  0  0
  185.7160  177.9840  141.9130 C   0  0  2  0  0  3  0  0  0  0  0  0
  182.3650  178.7950  142.5850 C   0  0  0  0  0  0  0  0  0  0  0  0
  184.0210  178.5900  145.2820 C   0  0  0  0  0  1  0  0  0  0  0  0
  183.3500  178.0720  140.7600 C   0  0  0  0  0  0  0  0  0  0  0  0
  1  6  1  0  0  0  0
  1 16  1  0  0  0  0
  2  8  2  0  0  0  0
  4 20  1  0  0  0  0
  5 27  1  0  0  0  0
  6 23  1  0  0  0  0
  8  7  2  0  0  0  0
  8 10  1  0  0  0  0
  8 14  1  0  0  0  0
  9 13  1  0  0  0  0
  9 18  2  0  0  0  0
 10 26  1  0  0  0  0
 12 25  1  0  0  0  0
 12 24  1  0  0  0  0
 14  9  1  0  0  0  0
 15 11  2  0  0  0  0
 15 19  1  0  0  0  0
 16 28  1  0  0  0  0
 17  5  1  0  0  0  0
 17  3  2  0  0  0  0
 20 16  2  0  0  0  0
 21  1  2  0  0  0  0
 22 21  1  0  0  0  0
 22  4  2  0  0  0  0
 23 15  1  0  0  0  0
 24  5  1  0  0  0  0
 25 19  1  6  0  0  0
 25 17  1  0  0  0  0
 26 24  2  0  0  0  0
 26 13  1  0  0  0  0
 28 10  1  0  0  0  0
 28 12  2  0  0  0  0
M  END
>  <MODEL>
2

>  <REMARK>
 VINA RESULT:      -7.2      3.043      6.976
  Name = 
  0 active torsions:
  status: ('A' for Active; 'I' for Inactive)
                            x       y       z     vdW  Elec       q    Type
                         _______ _______ _______ _____ _____    ______ ____

>  <TORSDO>
F 0

$$$$
=
 OpenBabel11122411493D

 28 32  0  0  1  0  0  0  0  0999 V2000
  180.2360  178.8680  140.5000 C   0  0  0  0  0  0  0  0  0  0  0  0
  183.6310  178.5290  137.9180 O   0  0  0  0  0  0  0  0  0  0  0  0
  183.1090  179.4350  145.7420 O   0  0  0  0  0  0  0  0  0  0  0  0
  180.5740  181.2370  139.0400 C   0  0  0  0  0  3  0  0  0  0  0  0
  184.4410  178.5470  144.0030 N   0  0  0  0  0  0  0  0  0  0  0  0
  179.9930  177.6000  141.2570 C   0  0  0  0  0  2  0  0  0  0  0  0
  184.4860  180.7070  138.7180 O   0  0  0  0  0  0  0  0  0  0  0  0
  184.4950  179.2210  138.9330 S   0  0  0  0  0  0  0  0  0  0  0  0
  186.8230  178.2530  140.0100 C   0  0  0  0  0  0  0  0  0  0  0  0
  183.9630  178.8330  140.5300 N   0  0  0  0  0  0  0  0  0  0  0  0
  178.9460  178.5750  144.6210 O   0  0  0  0  0  0  0  0  0  0  0  0
  182.7930  178.4710  142.3850 C   0  0  0  0  0  0  0  0  0  0  0  0
  186.3170  178.6090  141.3830 C   0  0  0  0  0  2  0  0  0  0  0  0
  186.1120  178.6280  138.8250 N   0  0  0  0  0  2  0  0  0  0  0  0
  179.6950  178.1140  143.7220 C   0  0  0  0  0  0  0  0  0  0  0  0
  181.5190  179.4540  140.4030 C   0  0  0  0  0  0  0  0  0  0  0  0
  183.2040  178.9910  144.5670 C   0  0  0  0  0  0  0  0  0  0  0  0
  188.3370  177.6610  139.8680 S   0  0  0  0  0  0  0  0  0  0  0  0
  181.1160  177.8000  144.0510 C   0  0  0  0  0  2  0  0  0  0  0  0
  181.6660  180.6430  139.6740 C   0  0  0  0  0  3  0  0  0  0  0  0
  179.1470  179.4680  139.8550 C   0  0  0  0  0  3  0  0  0  0  0  0
  179.3130  180.6480  139.1290 C   0  0  0  0  0  3  0  0  0  0  0  0
  179.1620  177.8780  142.4180 N   0  0  0  0  0  2  0  0  0  0  0  0
  184.1080  178.2530  142.6590 C   0  0  0  0  0  0  0  0  0  0  0  0
  182.0460  178.9150  143.6040 C   0  0  2  0  0  3  0  0  0  0  0  0
  184.8250  178.4730  141.5020 C   0  0  0  0  0  0  0  0  0  0  0  0
  185.7590  178.9040  144.5020 C   0  0  0  0  0  1  0  0  0  0  0  0
  182.7100  178.8640  141.0560 C   0  0  0  0  0  0  0  0  0  0  0  0
  1  6  1  0  0  0  0
  2  8  2  0  0  0  0
  4 22  2  0  0  0  0
  4 20  1  0  0  0  0
  5 27  1  0  0  0  0
  5 17  1  0  0  0  0
  6 23  1  0  0  0  0
  7  8  2  0  0  0  0
  8 10  1  0  0  0  0
  9 13  1  0  0  0  0
 10 28  1  0  0  0  0
 10 26  1  0  0  0  0
 12 24  1  0  0  0  0
 12 25  1  0  0  0  0
 13 26  1  0  0  0  0
 14  8  1  0  0  0  0
 14  9  1  0  0  0  0
 15 19  1  0  0  0  0
 15 11  2  0  0  0  0
 16  1  1  0  0  0  0
 16 28  1  0  0  0  0
 17  3  2  0  0  0  0
 18  9  2  0  0  0  0
 20 16  2  0  0  0  0
 21  1  2  0  0  0  0
 22 21  1  0  0  0  0
 23 15  1  0  0  0  0
 24  5  1  0  0  0  0
 25 19  1  1  0  0  0
 25 17  1  0  0  0  0
 26 24  2  0  0  0  0
 28 12  2  0  0  0  0
M  END
>  <MODEL>
3

>  <REMARK>
 VINA RESULT:      -6.5      2.687      5.418
  Name = 
  0 active torsions:
  status: ('A' for Active; 'I' for Inactive)
                            x       y       z     vdW  Elec       q    Type
                         _______ _______ _______ _____ _____    ______ ____

>  <TORSDO>
F 0

$$$$
=
 OpenBabel11122411493D

 28 32  0  0  1  0  0  0  0  0999 V2000
  186.9750  177.8210  142.5310 C   0  0  0  0  0  0  0  0  0  0  0  0
  190.7140  175.8690  143.2500 O   0  0  0  0  0  0  0  0  0  0  0  0
  186.0550  180.1120  148.0040 O   0  0  0  0  0  0  0  0  0  0  0  0
  189.0560  179.2480  141.3070 C   0  0  0  0  0  3  0  0  0  0  0  0
  187.6450  178.3640  147.9450 N   0  0  0  0  0  0  0  0  0  0  0  0
  185.8340  177.0580  143.1240 C   0  0  0  0  0  2  0  0  0  0  0  0
  191.7220  178.0120  143.9630 O   0  0  0  0  0  0  0  0  0  0  0  0
  190.9880  176.7810  144.4120 S   0  0  0  0  0  0  0  0  0  0  0  0
  191.5490  176.0100  146.9820 C   0  0  0  0  0  0  0  0  0  0  0  0
  189.5080  177.2060  145.1950 N   0  0  0  0  0  0  0  0  0  0  0  0
  183.5050  179.5340  144.4700 O   0  0  0  0  0  0  0  0  0  0  0  0
  187.4460  177.8670  145.6970 C   0  0  0  0  0  0  0  0  0  0  0  0
  190.5260  176.9960  147.4840 C   0  0  0  0  0  2  0  0  0  0  0  0
  191.9210  175.9490  145.6010 N   0  0  0  0  0  2  0  0  0  0  0  0
  184.3680  178.6180  144.4820 C   0  0  0  0  0  0  0  0  0  0  0  0
  188.1580  178.0960  143.2560 C   0  0  0  0  0  0  0  0  0  0  0  0
  186.6400  179.1990  147.3640 C   0  0  0  0  0  0  0  0  0  0  0  0
  192.4310  175.1800  148.0750 S   0  0  0  0  0  0  0  0  0  0  0  0
  185.0210  178.2520  145.7740 C   0  0  0  0  0  2  0  0  0  0  0  0
  189.1840  178.8160  142.6280 C   0  0  0  0  0  3  0  0  0  0  0  0
  186.8580  178.2530  141.2030 C   0  0  0  0  0  3  0  0  0  0  0  0
  187.8920  178.9640  140.5930 C   0  0  0  0  0  3  0  0  0  0  0  0
  184.6830  177.9350  143.2680 N   0  0  0  0  0  2  0  0  0  0  0  0
  188.0980  177.5790  146.8570 C   0  0  0  0  0  0  0  0  0  0  0  0
  186.3870  178.9030  145.9060 C   0  0  2  0  0  3  0  0  0  0  0  0
  189.3730  177.1650  146.5360 C   0  0  0  0  0  0  0  0  0  0  0  0
  188.4010  178.6840  149.1450 C   0  0  0  0  0  1  0  0  0  0  0  0
  188.3440  177.6590  144.6590 C   0  0  0  0  0  0  0  0  0  0  0  0
  1  6  1  0  0  0  0
  1 16  1  0  0  0  0
  2  8  2  0  0  0  0
  4 20  1  0  0  0  0
  5 27  1  0  0  0  0
  6 23  1  0  0  0  0
  7  8  2  0  0  0  0
  8 10  1  0  0  0  0
  8 14  1  0  0  0  0
  9 13  1  0  0  0  0
  9 18  2  0  0  0  0
 10 26  1  0  0  0  0
 11 15  2  0  0  0  0
 12 25  1  0  0  0  0
 12 24  1  0  0  0  0
 14  9  1  0  0  0  0
 15 19  1  0  0  0  0
 16 28  1  0  0  0  0
 17  5  1  0  0  0  0
 17  3  2  0  0  0  0
 20 16  2  0  0  0  0
 21  1  2  0  0  0  0
 22 21  1  0  0  0  0
 22  4  2  0  0  0  0
 23 15  1  0  0  0  0
 24  5  1  0  0  0  0
 25 19  1  1  0  0  0
 25 17  1  0  0  0  0
 26 24  2  0  0  0  0
 26 13  1  0  0  0  0
 28 10  1  0  0  0  0
 28 12  2  0  0  0  0
M  END
>  <MODEL>
4

>  <REMARK>
 VINA RESULT:      -6.5      3.708      6.574
  Name = 
  0 active torsions:
  status: ('A' for Active; 'I' for Inactive)
                            x       y       z     vdW  Elec       q    Type
                         _______ _______ _______ _____ _____    ______ ____

>  <TORSDO>
F 0

$$$$
=
 OpenBabel11122411493D

 28 32  0  0  1  0  0  0  0  0999 V2000
  190.6890  177.1100  139.4410 C   0  0  0  0  0  0  0  0  0  0  0  0
  187.6100  178.7060  136.9350 O   0  0  0  0  0  0  0  0  0  0  0  0
  187.5450  176.5380  144.5250 O   0  0  0  0  0  0  0  0  0  0  0  0
  189.8150  175.1570  137.6300 C   0  0  0  0  0  3  0  0  0  0  0  0
  186.5620  177.9920  142.9410 N   0  0  0  0  0  0  0  0  0  0  0  0
  191.2180  178.1430  140.3860 C   0  0  0  0  0  2  0  0  0  0  0  0
  186.1890  176.7320  137.3850 O   0  0  0  0  0  0  0  0  0  0  0  0
  186.5540  178.1200  137.8280 S   0  0  0  0  0  0  0  0  0  0  0  0
  184.5090  179.4910  139.0360 C   0  0  0  0  0  0  0  0  0  0  0  0
  187.0990  178.1130  139.4670 N   0  0  0  0  0  0  0  0  0  0  0  0
  191.8330  176.4380  143.5610 O   0  0  0  0  0  0  0  0  0  0  0  0
  188.2420  177.8760  141.3590 C   0  0  0  0  0  0  0  0  0  0  0  0
  184.8480  178.8140  140.3390 C   0  0  0  0  0  2  0  0  0  0  0  0
  185.1500  179.1240  137.8090 N   0  0  0  0  0  2  0  0  0  0  0  0
  191.2670  177.2080  142.7420 C   0  0  0  0  0  0  0  0  0  0  0  0
  189.3030  176.9010  139.2510 C   0  0  0  0  0  0  0  0  0  0  0  0
  187.6170  177.1620  143.4320 C   0  0  0  0  0  0  0  0  0  0  0  0
  183.2080  180.4720  138.9850 S   0  0  0  0  0  0  0  0  0  0  0  0
  189.9620  177.8300  143.1130 C   0  0  0  0  0  2  0  0  0  0  0  0
  188.8860  175.9140  138.3460 C   0  0  0  0  0  3  0  0  0  0  0  0
  191.6130  176.3500  138.7140 C   0  0  0  0  0  3  0  0  0  0  0  0
  191.1800  175.3760  137.8130 C   0  0  0  0  0  3  0  0  0  0  0  0
  191.8990  177.4880  141.4920 N   0  0  0  0  0  2  0  0  0  0  0  0
  187.0170  178.3870  141.6600 C   0  0  0  0  0  0  0  0  0  0  0  0
  188.7970  177.0760  142.4960 C   0  0  2  0  0  3  0  0  0  0  0  0
  186.3180  178.5360  140.4810 C   0  0  0  0  0  0  0  0  0  0  0  0
  185.1770  177.9220  143.3760 C   0  0  0  0  0  1  0  0  0  0  0  0
  188.2780  177.6780  139.9850 C   0  0  0  0  0  0  0  0  0  0  0  0
  1  6  1  0  0  0  0
  2  8  2  0  0  0  0
  4 22  2  0  0  0  0
  4 20  1  0  0  0  0
  5 27  1  0  0  0  0
  5 17  1  0  0  0  0
  6 23  1  0  0  0  0
  7  8  2  0  0  0  0
  8 10  1  0  0  0  0
  9 13  1  0  0  0  0
 10 28  1  0  0  0  0
 10 26  1  0  0  0  0
 12 24  1  0  0  0  0
 12 25  1  0  0  0  0
 13 26  1  0  0  0  0
 14  8  1  0  0  0  0
 14  9  1  0  0  0  0
 15 19  1  0  0  0  0
 15 11  2  0  0  0  0
 16  1  1  0  0  0  0
 16 28  1  0  0  0  0
 17  3  2  0  0  0  0
 18  9  2  0  0  0  0
 20 16  2  0  0  0  0
 21  1  2  0  0  0  0
 22 21  1  0  0  0  0
 23 15  1  0  0  0  0
 24  5  1  0  0  0  0
 25 19  1  1  0  0  0
 25 17  1  0  0  0  0
 26 24  2  0  0  0  0
 28 12  2  0  0  0  0
M  END
>  <MODEL>
5

>  <REMARK>
 VINA RESULT:      -6.5      3.129      6.360
  Name = 
  0 active torsions:
  status: ('A' for Active; 'I' for Inactive)
                            x       y       z     vdW  Elec       q    Type
                         _______ _______ _______ _____ _____    ______ ____

>  <TORSDO>
F 0

$$$$
=
 OpenBabel11122411493D

 28 32  0  0  1  0  0  0  0  0999 V2000
  187.3990  178.2290  137.0300 C   0  0  0  0  0  0  0  0  0  0  0  0
  184.0460  179.7840  139.1850 O   0  0  0  0  0  0  0  0  0  0  0  0
  190.3870  175.7610  141.6170 O   0  0  0  0  0  0  0  0  0  0  0  0
  185.1220  176.6780  136.5140 C   0  0  0  0  0  3  0  0  0  0  0  0
  188.7650  177.3540  142.2670 N   0  0  0  0  0  0  0  0  0  0  0  0
  188.6220  179.0650  137.2400 C   0  0  0  0  0  2  0  0  0  0  0  0
  183.5140  177.5220  140.0340 O   0  0  0  0  0  0  0  0  0  0  0  0
  184.2730  178.7930  140.2910 S   0  0  0  0  0  0  0  0  0  0  0  0
  184.6250  179.3780  142.9460 C   0  0  0  0  0  0  0  0  0  0  0  0
  185.9610  178.4690  140.4600 N   0  0  0  0  0  0  0  0  0  0  0  0
  191.4440  176.7530  137.4670 O   0  0  0  0  0  0  0  0  0  0  0  0
  188.1060  177.9800  140.1430 C   0  0  0  0  0  0  0  0  0  0  0  0
  185.8250  178.4680  142.9710 C   0  0  0  0  0  2  0  0  0  0  0  0
  183.7760  179.4730  141.7970 N   0  0  0  0  0  2  0  0  0  0  0  0
  190.5830  177.5820  137.8580 C   0  0  0  0  0  0  0  0  0  0  0  0
  186.5800  177.8090  138.1040 C   0  0  0  0  0  0  0  0  0  0  0  0
  189.5480  176.6470  141.3020 C   0  0  0  0  0  0  0  0  0  0  0  0
  184.1410  180.0660  144.3440 S   0  0  0  0  0  0  0  0  0  0  0  0
  190.4160  177.8200  139.3220 C   0  0  0  0  0  2  0  0  0  0  0  0
  185.4480  177.0280  137.8250 C   0  0  0  0  0  3  0  0  0  0  0  0
  187.0590  177.8780  135.7180 C   0  0  0  0  0  3  0  0  0  0  0  0
  185.9270  177.1050  135.4590 C   0  0  0  0  0  3  0  0  0  0  0  0
  189.8060  178.2930  136.8940 N   0  0  0  0  0  2  0  0  0  0  0  0
  187.8980  178.1460  141.4770 C   0  0  0  0  0  0  0  0  0  0  0  0
  189.2380  177.0380  139.8780 C   0  0  2  0  0  3  0  0  0  0  0  0
  186.5680  178.4550  141.6640 C   0  0  0  0  0  0  0  0  0  0  0  0
  188.5170  176.9040  143.6270 C   0  0  0  0  0  1  0  0  0  0  0  0
  186.8820  178.1540  139.5120 C   0  0  0  0  0  0  0  0  0  0  0  0
  1  6  1  0  0  0  0
  1 16  1  0  0  0  0
  2  8  2  0  0  0  0
  4 20  1  0  0  0  0
  5 27  1  0  0  0  0
  7  8  2  0  0  0  0
  8 10  1  0  0  0  0
  8 14  1  0  0  0  0
  9 13  1  0  0  0  0
  9 18  2  0  0  0  0
 10 26  1  0  0  0  0
 11 15  2  0  0  0  0
 12 24  1  0  0  0  0
 14  9  1  0  0  0  0
 15 19  1  0  0  0  0
 16 28  1  0  0  0  0
 17  3  2  0  0  0  0
 17  5  1  0  0  0  0
 20 16  2  0  0  0  0
 21  1  2  0  0  0  0
 22 21  1  0  0  0  0
 22  4  2  0  0  0  0
 23  6  1  0  0  0  0
 23 15  1  0  0  0  0
 24 26  2  0  0  0  0
 24  5  1  0  0  0  0
 25 19  1  1  0  0  0
 25 12  1  0  0  0  0
 25 17  1  0  0  0  0
 26 13  1  0  0  0  0
 28 12  2  0  0  0  0
 28 10  1  0  0  0  0
M  END
>  <MODEL>
6

>  <REMARK>
 VINA RESULT:      -6.3      2.591      7.199
  Name = 
  0 active torsions:
  status: ('A' for Active; 'I' for Inactive)
                            x       y       z     vdW  Elec       q    Type
                         _______ _______ _______ _____ _____    ______ ____

>  <TORSDO>
F 0

$$$$
=
 OpenBabel11122411493D

 28 32  0  0  1  0  0  0  0  0999 V2000
  186.5550  177.5310  142.9050 C   0  0  0  0  0  0  0  0  0  0  0  0
  186.5440  176.6460  138.7190 O   0  0  0  0  0  0  0  0  0  0  0  0
  192.4180  178.6230  143.6080 O   0  0  0  0  0  0  0  0  0  0  0  0
  185.4190  179.6580  141.4760 C   0  0  0  0  0  3  0  0  0  0  0  0
  191.8880  177.4320  141.6360 N   0  0  0  0  0  0  0  0  0  0  0  0
  187.1060  176.3930  143.7060 C   0  0  0  0  0  2  0  0  0  0  0  0
  187.5370  178.8570  138.2260 O   0  0  0  0  0  0  0  0  0  0  0  0
  187.8210  177.4150  138.5340 S   0  0  0  0  0  0  0  0  0  0  0  0
  190.1410  176.4630  137.4270 C   0  0  0  0  0  0  0  0  0  0  0  0
  188.8060  177.2770  139.9460 N   0  0  0  0  0  0  0  0  0  0  0  0
  189.0990  177.8710  146.3910 O   0  0  0  0  0  0  0  0  0  0  0  0
  189.6170  177.2380  142.0160 C   0  0  0  0  0  0  0  0  0  0  0  0
  190.9100  177.0290  138.5920 C   0  0  0  0  0  2  0  0  0  0  0  0
  188.7430  176.7170  137.2530 N   0  0  0  0  0  2  0  0  0  0  0  0
  188.8600  177.2490  145.3230 C   0  0  0  0  0  0  0  0  0  0  0  0
  187.2020  178.0210  141.7470 C   0  0  0  0  0  0  0  0  0  0  0  0
  191.5680  178.0210  142.8990 C   0  0  0  0  0  0  0  0  0  0  0  0
  190.9740  175.7670  136.2090 S   0  0  0  0  0  0  0  0  0  0  0  0
  189.9950  176.8980  144.4190 C   0  0  0  0  0  2  0  0  0  0  0  0
  186.6210  179.0900  141.0500 C   0  0  0  0  0  3  0  0  0  0  0  0
  185.3470  178.1030  143.3210 C   0  0  0  0  0  3  0  0  0  0  0  0
  184.7800  179.1630  142.6120 C   0  0  0  0  0  3  0  0  0  0  0  0
  187.5180  176.8730  145.0160 N   0  0  0  0  0  2  0  0  0  0  0  0
  190.6360  176.9800  141.1520 C   0  0  0  0  0  0  0  0  0  0  0  0
  190.1120  177.8850  143.2710 C   0  0  2  0  0  3  0  0  0  0  0  0
  190.1240  177.0000  139.8720 C   0  0  0  0  0  0  0  0  0  0  0  0
  193.0480  177.7730  140.8290 C   0  0  0  0  0  1  0  0  0  0  0  0
  188.4770  177.4530  141.2530 C   0  0  0  0  0  0  0  0  0  0  0  0
  1 21  1  0  0  0  0
  1  6  1  0  0  0  0
  4 22  1  0  0  0  0
  5 17  1  0  0  0  0
  6 23  1  0  0  0  0
  7  8  2  0  0  0  0
  8  2  2  0  0  0  0
  8 10  1  0  0  0  0
  9 13  1  0  0  0  0
 10 28  1  0  0  0  0
 12 25  1  0  0  0  0
 13 26  1  0  0  0  0
 14  9  1  0  0  0  0
 14  8  1  0  0  0  0
 15 11  2  0  0  0  0
 16  1  2  0  0  0  0
 17 25  1  0  0  0  0
 17  3  2  0  0  0  0
 18  9  2  0  0  0  0
 19 15  1  0  0  0  0
 20  4  2  0  0  0  0
 20 16  1  0  0  0  0
 22 21  2  0  0  0  0
 23 15  1  0  0  0  0
 24  5  1  0  0  0  0
 24 12  1  0  0  0  0
 25 19  1  1  0  0  0
 26 10  1  0  0  0  0
 26 24  2  0  0  0  0
 27  5  1  0  0  0  0
 28 16  1  0  0  0  0
 28 12  2  0  0  0  0
M  END
>  <MODEL>
7

>  <REMARK>
 VINA RESULT:      -6.3      3.179      5.723
  Name = 
  0 active torsions:
  status: ('A' for Active; 'I' for Inactive)
                            x       y       z     vdW  Elec       q    Type
                         _______ _______ _______ _____ _____    ______ ____

>  <TORSDO>
F 0

$$$$
=
 OpenBabel11122411493D

 28 32  0  0  1  0  0  0  0  0999 V2000
  188.5300  175.5610  135.7760 C   0  0  0  0  0  0  0  0  0  0  0  0
  184.4510  176.7690  135.3210 O   0  0  0  0  0  0  0  0  0  0  0  0
  189.4410  177.4580  141.3990 O   0  0  0  0  0  0  0  0  0  0  0  0
  186.8490  173.3190  135.8540 C   0  0  0  0  0  3  0  0  0  0  0  0
  187.5640  178.4330  140.3440 N   0  0  0  0  0  0  0  0  0  0  0  0
  189.4620  176.7280  135.6840 C   0  0  0  0  0  2  0  0  0  0  0  0
  183.8070  175.4120  137.2860 O   0  0  0  0  0  0  0  0  0  0  0  0
  184.2640  176.7620  136.8120 S   0  0  0  0  0  0  0  0  0  0  0  0
  183.3760  178.8540  138.3450 C   0  0  0  0  0  0  0  0  0  0  0  0
  185.7330  177.2180  137.5970 N   0  0  0  0  0  0  0  0  0  0  0  0
  192.1000  176.1560  138.1500 O   0  0  0  0  0  0  0  0  0  0  0  0
  187.8380  177.4310  138.2800 C   0  0  0  0  0  0  0  0  0  0  0  0
  184.5230  178.6230  139.2950 C   0  0  0  0  0  2  0  0  0  0  0  0
  183.1050  177.9590  137.2610 N   0  0  0  0  0  2  0  0  0  0  0  0
  191.0840  176.6880  137.6320 C   0  0  0  0  0  0  0  0  0  0  0  0
  187.3680  175.5850  136.5800 C   0  0  0  0  0  0  0  0  0  0  0  0
  188.7470  177.6310  140.3620 C   0  0  0  0  0  0  0  0  0  0  0  0
  182.2760  179.9990  138.7180 S   0  0  0  0  0  0  0  0  0  0  0  0
  190.2790  177.6520  138.4390 C   0  0  0  0  0  2  0  0  0  0  0  0
  186.5430  174.4510  136.6110 C   0  0  0  0  0  3  0  0  0  0  0  0
  188.8260  174.4230  135.0150 C   0  0  0  0  0  3  0  0  0  0  0  0
  187.9910  173.3060  135.0540 C   0  0  0  0  0  3  0  0  0  0  0  0
  190.7420  176.3780  136.2810 N   0  0  0  0  0  2  0  0  0  0  0  0
  187.0580  178.2530  139.0340 C   0  0  0  0  0  0  0  0  0  0  0  0
  189.0520  176.9840  139.0330 C   0  0  2  0  0  3  0  0  0  0  0  0
  185.7560  178.1190  138.6000 C   0  0  0  0  0  0  0  0  0  0  0  0
  186.7910  178.8030  141.5190 C   0  0  0  0  0  1  0  0  0  0  0  0
  186.9980  176.7620  137.4000 C   0  0  0  0  0  0  0  0  0  0  0  0
  1 16  1  0  0  0  0
  2  8  2  0  0  0  0
  4 20  1  0  0  0  0
  5 17  1  0  0  0  0
  5 27  1  0  0  0  0
  6  1  1  0  0  0  0
  6 23  1  0  0  0  0
  8 14  1  0  0  0  0
  8  7  2  0  0  0  0
  8 10  1  0  0  0  0
  9 18  2  0  0  0  0
  9 13  1  0  0  0  0
 10 26  1  0  0  0  0
 12 25  1  0  0  0  0
 12 24  1  0  0  0  0
 14  9  1  0  0  0  0
 15 11  2  0  0  0  0
 15 19  1  0  0  0  0
 16 20  2  0  0  0  0
 16 28  1  0  0  0  0
 17  3  2  0  0  0  0
 21 22  1  0  0  0  0
 21  1  2  0  0  0  0
 22  4  2  0  0  0  0
 23 15  1  0  0  0  0
 24  5  1  0  0  0  0
 25 19  1  6  0  0  0
 25 17  1  0  0  0  0
 26 24  2  0  0  0  0
 26 13  1  0  0  0  0
 28 10  1  0  0  0  0
 28 12  2  0  0  0  0
M  END
>  <MODEL>
8

>  <REMARK>
 VINA RESULT:      -6.2      3.505      7.771
  Name = 
  0 active torsions:
  status: ('A' for Active; 'I' for Inactive)
                            x       y       z     vdW  Elec       q    Type
                         _______ _______ _______ _____ _____    ______ ____

>  <TORSDO>
F 0

$$$$
=
 OpenBabel11122411493D

 28 32  0  0  1  0  0  0  0  0999 V2000
  183.2870  178.1210  137.3230 C   0  0  0  0  0  0  0  0  0  0  0  0
  187.3100  179.4960  136.8440 O   0  0  0  0  0  0  0  0  0  0  0  0
  184.3670  172.2340  137.7970 O   0  0  0  0  0  0  0  0  0  0  0  0
  184.1600  179.3780  139.6720 C   0  0  0  0  0  3  0  0  0  0  0  0
  186.1480  173.4680  136.8520 N   0  0  0  0  0  0  0  0  0  0  0  0
  182.7680  177.4920  136.0680 C   0  0  0  0  0  2  0  0  0  0  0  0
  187.9490  178.4460  138.9900 O   0  0  0  0  0  0  0  0  0  0  0  0
  187.8330  178.2530  137.5050 S   0  0  0  0  0  0  0  0  0  0  0  0
  189.6610  176.5020  136.4520 C   0  0  0  0  0  0  0  0  0  0  0  0
  186.8080  176.9110  137.1440 N   0  0  0  0  0  0  0  0  0  0  0  0
  180.7460  174.6250  137.0940 O   0  0  0  0  0  0  0  0  0  0  0  0
  185.0970  175.5260  136.8340 C   0  0  0  0  0  0  0  0  0  0  0  0
  188.7590  175.3570  136.8320 C   0  0  0  0  0  2  0  0  0  0  0  0
  189.3780  177.8480  136.8500 N   0  0  0  0  0  2  0  0  0  0  0  0
  181.7230  175.2450  136.6010 C   0  0  0  0  0  0  0  0  0  0  0  0
  184.5560  177.8010  137.8590 C   0  0  0  0  0  0  0  0  0  0  0  0
  184.8140  173.3220  137.3450 C   0  0  0  0  0  0  0  0  0  0  0  0
  191.1180  176.1610  135.8010 S   0  0  0  0  0  0  0  0  0  0  0  0
  182.9540  174.4840  136.2330 C   0  0  0  0  0  2  0  0  0  0  0  0
  184.9710  178.4350  139.0380 C   0  0  0  0  0  3  0  0  0  0  0  0
  182.4820  179.0730  137.9620 C   0  0  0  0  0  3  0  0  0  0  0  0
  182.9140  179.6980  139.1320 C   0  0  0  0  0  3  0  0  0  0  0  0
  181.6230  176.6520  136.3820 N   0  0  0  0  0  2  0  0  0  0  0  0
  186.2480  174.8510  136.5650 C   0  0  0  0  0  0  0  0  0  0  0  0
  184.0190  174.6030  137.3100 C   0  0  2  0  0  3  0  0  0  0  0  0
  187.3020  175.7190  136.7540 C   0  0  0  0  0  0  0  0  0  0  0  0
  187.2520  172.5740  137.1590 C   0  0  0  0  0  1  0  0  0  0  0  0
  185.4550  176.8090  137.2240 C   0  0  0  0  0  0  0  0  0  0  0  0
  1 16  2  0  0  0  0
  1 21  1  0  0  0  0
  2  8  2  0  0  0  0
  5 27  1  0  0  0  0
  5 17  1  0  0  0  0
  6 23  1  0  0  0  0
  6  1  1  0  0  0  0
  8  7  2  0  0  0  0
  9 13  1  0  0  0  0
  9 14  1  0  0  0  0
 10 28  1  0  0  0  0
 10  8  1  0  0  0  0
 12 28  2  0  0  0  0
 12 25  1  0  0  0  0
 14  8  1  0  0  0  0
 15 11  2  0  0  0  0
 16 20  1  0  0  0  0
 17  3  2  0  0  0  0
 18  9  2  0  0  0  0
 19 15  1  0  0  0  0
 20  4  2  0  0  0  0
 21 22  2  0  0  0  0
 22  4  1  0  0  0  0
 23 15  1  0  0  0  0
 24 26  2  0  0  0  0
 24 12  1  0  0  0  0
 24  5  1  0  0  0  0
 25 19  1  6  0  0  0
 25 17  1  0  0  0  0
 26 13  1  0  0  0  0
 26 10  1  0  0  0  0
 28 16  1  0  0  0  0
M  END
>  <MODEL>
9

>  <REMARK>
 VINA RESULT:      -6.1      4.273      5.914
  Name = 
  0 active torsions:
  status: ('A' for Active; 'I' for Inactive)
                            x       y       z     vdW  Elec       q    Type
                         _______ _______ _______ _____ _____    ______ ____

>  <TORSDO>
F 0

$$$$
