=
 OpenBabel11122410513D

 32 37  0  0  1  0  0  0  0  0999 V2000
  191.0830  178.9630  145.0870 C   0  0  0  0  0  2  0  0  0  0  0  0
  189.2930  176.7130  140.9260 C   0  0  2  0  0  3  0  0  0  0  0  0
  184.9490  178.4160  142.4270 C   0  0  0  0  0  2  0  0  0  0  0  0
  185.0160  179.4180  141.4400 O   0  0  0  0  0  0  0  0  0  0  0  0
  189.9020  177.0280  138.4460 C   0  0  1  0  0  3  0  0  0  0  0  0
  189.5280  177.7390  137.1350 C   0  0  1  0  0  3  0  0  0  0  0  0
  191.1170  176.6300  142.7500 C   0  0  2  0  0  3  0  0  0  0  0  0
  188.5990  176.2830  143.1540 C   0  0  0  0  0  2  0  0  0  0  0  0
  187.1580  177.1990  136.6750 C   0  0  2  0  0  3  0  0  0  0  0  0
  190.1390  176.5960  145.1620 C   0  0  0  0  0  2  0  0  0  0  0  0
  186.3560  178.0620  142.9150 C   0  0  0  0  0  2  0  0  0  0  0  0
  188.5710  177.2870  142.0860 N   0  0  2  0  0  0  0  0  0  0  0  0
  187.1690  177.5300  141.7270 C   0  0  2  0  0  3  0  0  0  0  0  0
  187.7970  177.9970  139.3690 C   0  0  1  0  0  3  0  0  0  0  0  0
  187.8330  176.4960  135.5180 C   0  0  0  0  0  2  0  0  0  0  0  0
  192.0560  178.3850  144.1590 N   0  0  0  0  0  2  0  0  0  0  0  0
  190.0190  176.1190  143.7100 C   0  0  2  0  0  3  0  0  0  0  0  0
  189.6410  176.5450  135.7620 S   0  0  0  0  0  0  0  0  0  0  0  0
  191.4100  178.1250  142.8810 C   0  0  0  0  0  2  0  0  0  0  0  0
  189.8390  178.0900  145.2920 C   0  0  1  0  0  3  0  0  0  0  0  0
  185.6160  178.8420  140.3050 C   0  0  0  0  0  2  0  0  0  0  0  0
  187.0920  178.5540  140.5940 C   0  0  1  0  0  3  0  0  0  0  0  0
  187.7400  178.9330  138.3220 O   0  0  0  0  0  0  0  0  0  0  0  0
  190.7400  176.3110  141.3020 C   0  0  0  0  0  2  0  0  0  0  0  0
  191.4180  177.0430  138.5480 C   0  0  0  0  0  1  0  0  0  0  0  0
  185.9520  177.7550  136.2510 O   0  0  0  0  0  1  0  0  0  0  0  0
  189.2580  177.6630  139.6990 C   0  0  1  0  0  3  0  0  0  0  0  0
  188.1080  178.2940  137.1190 C   0  0  1  0  0  3  0  0  0  0  0  0
  189.2630  178.3750  146.5980 N   0  0  0  0  0  2  0  0  0  0  0  0
  187.9390  177.9780  146.9610 C   0  0  0  0  0  0  0  0  0  0  0  0
  187.4480  178.2750  148.2620 N   0  0  0  0  0  1  0  0  0  0  0  0
  187.2010  177.3740  146.1380 O   0  0  0  0  0  0  0  0  0  0  0  0
  1 20  1  0  0  0  0
  2 24  1  1  0  0  0
  2 12  1  0  0  0  0
  3 11  1  0  0  0  0
  4  3  1  0  0  0  0
  5 25  1  1  0  0  0
  5 27  1  0  0  0  0
  6 18  1  6  0  0  0
  6  5  1  0  0  0  0
  7 24  1  6  0  0  0
  7 19  1  0  0  0  0
  7 17  1  0  0  0  0
  9 26  1  6  0  0  0
  9 28  1  0  0  0  0
 10 20  1  0  0  0  0
 12  8  1  1  0  0  0
 13 12  1  0  0  0  0
 13 11  1  1  0  0  0
 14 23  1  6  0  0  0
 14 27  1  0  0  0  0
 14 22  1  0  0  0  0
 15 18  1  0  0  0  0
 15  9  1  0  0  0  0
 16  1  1  0  0  0  0
 17  8  1  6  0  0  0
 17 10  1  0  0  0  0
 19 16  1  0  0  0  0
 20 29  1  1  0  0  0
 21  4  1  0  0  0  0
 22 21  1  6  0  0  0
 22 13  1  0  0  0  0
 27  2  1  0  0  0  0
 28  6  1  0  0  0  0
 28 23  1  0  0  0  0
 29 30  1  0  0  0  0
 30 31  1  0  0  0  0
 32 30  2  0  0  0  0
M  END
>  <MODEL>
1

>  <REMARK>
 VINA RESULT:      -8.0      0.000      0.000
  Name = 
  1 active torsions:
  status: ('A' for Active; 'I' for Inactive)
    1  A    between atoms: C_20  and  N_29
                            x       y       z     vdW  Elec       q    Type
                         _______ _______ _______ _____ _____    ______ ____

>  <TORSDO>
F 1

$$$$
=
 OpenBabel11122410513D

 32 37  0  0  1  0  0  0  0  0999 V2000
  189.4550  175.6660  138.1300 C   0  0  0  0  0  2  0  0  0  0  0  0
  188.8740  178.2390  142.4460 C   0  0  2  0  0  3  0  0  0  0  0  0
  184.3060  179.0030  140.8420 C   0  0  0  0  0  2  0  0  0  0  0  0
  183.8380  178.0380  141.7560 O   0  0  0  0  0  0  0  0  0  0  0  0
  189.1680  177.5090  144.8950 C   0  0  1  0  0  3  0  0  0  0  0  0
  188.4510  176.9940  146.1540 C   0  0  1  0  0  3  0  0  0  0  0  0
  190.5600  177.5240  140.6260 C   0  0  2  0  0  3  0  0  0  0  0  0
  188.5540  179.0950  140.2560 C   0  0  0  0  0  2  0  0  0  0  0  0
  186.6420  178.6040  146.6590 C   0  0  2  0  0  3  0  0  0  0  0  0
  189.8040  178.1900  138.2260 C   0  0  0  0  0  2  0  0  0  0  0  0
  185.7190  178.6450  140.3760 C   0  0  0  0  0  2  0  0  0  0  0  0
  188.0010  178.1710  141.2500 N   0  0  2  0  0  0  0  0  0  0  0  0
  186.6500  178.6300  141.5970 C   0  0  2  0  0  3  0  0  0  0  0  0
  186.8910  177.7660  143.9130 C   0  0  1  0  0  3  0  0  0  0  0  0
  187.5380  178.8080  147.8610 C   0  0  0  0  0  2  0  0  0  0  0  0
  190.5550  175.6280  139.0930 N   0  0  0  0  0  2  0  0  0  0  0  0
  189.8880  178.5710  139.7090 C   0  0  2  0  0  3  0  0  0  0  0  0
  189.0940  177.8870  147.6080 S   0  0  0  0  0  0  0  0  0  0  0  0
  190.0810  176.0920  140.3890 C   0  0  0  0  0  2  0  0  0  0  0  0
  188.8100  177.0510  137.9920 C   0  0  1  0  0  3  0  0  0  0  0  0
  184.6080  178.1690  142.9270 C   0  0  0  0  0  2  0  0  0  0  0  0
  186.0420  177.7090  142.6540 C   0  0  1  0  0  3  0  0  0  0  0  0
  186.3460  176.9160  144.8910 O   0  0  0  0  0  0  0  0  0  0  0  0
  190.3430  177.8960  142.0940 C   0  0  0  0  0  2  0  0  0  0  0  0
  190.4830  176.7530  144.7880 C   0  0  0  0  0  1  0  0  0  0  0  0
  185.3050  178.6900  147.0460 O   0  0  0  0  0  1  0  0  0  0  0  0
  188.3360  177.3550  143.6030 C   0  0  1  0  0  3  0  0  0  0  0  0
  186.9420  177.2130  146.1360 C   0  0  1  0  0  3  0  0  0  0  0  0
  188.2110  177.1700  136.6710 N   0  0  0  0  0  2  0  0  0  0  0  0
  187.2510  178.1790  136.3470 C   0  0  0  0  0  0  0  0  0  0  0  0
  186.7210  178.2470  135.0290 N   0  0  0  0  0  1  0  0  0  0  0  0
  186.8660  179.0030  137.2190 O   0  0  0  0  0  0  0  0  0  0  0  0
  1 16  1  0  0  0  0
  2 24  1  6  0  0  0
  2 27  1  0  0  0  0
  3  4  1  0  0  0  0
  4 21  1  0  0  0  0
  5 25  1  6  0  0  0
  5  6  1  0  0  0  0
  6 18  1  1  0  0  0
  7 19  1  1  0  0  0
  7 24  1  0  0  0  0
  9 26  1  1  0  0  0
  9 15  1  0  0  0  0
 11  3  1  0  0  0  0
 12  8  1  6  0  0  0
 12 13  1  0  0  0  0
 12  2  1  0  0  0  0
 13 11  1  6  0  0  0
 13 22  1  0  0  0  0
 14 23  1  1  0  0  0
 16 19  1  0  0  0  0
 17 10  1  6  0  0  0
 17  8  1  0  0  0  0
 17  7  1  0  0  0  0
 18 15  1  0  0  0  0
 20 29  1  6  0  0  0
 20  1  1  0  0  0  0
 20 10  1  0  0  0  0
 22 21  1  1  0  0  0
 22 14  1  0  0  0  0
 23 28  1  0  0  0  0
 27 14  1  0  0  0  0
 27  5  1  0  0  0  0
 28  6  1  0  0  0  0
 28  9  1  0  0  0  0
 30 29  1  0  0  0  0
 30 32  2  0  0  0  0
 31 30  1  0  0  0  0
M  END
>  <MODEL>
2

>  <REMARK>
 VINA RESULT:      -7.6      3.057      7.132
  Name = 
  1 active torsions:
  status: ('A' for Active; 'I' for Inactive)
    1  A    between atoms: C_20  and  N_29
                            x       y       z     vdW  Elec       q    Type
                         _______ _______ _______ _____ _____    ______ ____

>  <TORSDO>
F 1

$$$$
=
 OpenBabel11122410513D

 32 37  0  0  1  0  0  0  0  0999 V2000
  192.0560  178.5740  143.9420 C   0  0  0  0  0  2  0  0  0  0  0  0
  187.5840  177.1280  142.0710 C   0  0  2  0  0  3  0  0  0  0  0  0
  185.9550  177.8560  146.6360 C   0  0  0  0  0  2  0  0  0  0  0  0
  185.3540  179.0600  146.2160 O   0  0  0  0  0  0  0  0  0  0  0  0
  186.1780  178.0840  140.1400 C   0  0  1  0  0  3  0  0  0  0  0  0
  185.0190  179.0230  139.7660 C   0  0  1  0  0  3  0  0  0  0  0  0
  190.1440  176.8670  141.8600 C   0  0  2  0  0  3  0  0  0  0  0  0
  188.7370  176.1100  143.8780 C   0  0  0  0  0  2  0  0  0  0  0  0
  183.0550  178.2990  141.0830 C   0  0  2  0  0  3  0  0  0  0  0  0
  191.2770  176.1500  144.0890 C   0  0  0  0  0  2  0  0  0  0  0  0
  187.2220  177.5870  145.8210 C   0  0  0  0  0  2  0  0  0  0  0  0
  188.0140  177.3200  143.4770 N   0  0  2  0  0  0  0  0  0  0  0  0
  186.8350  177.4540  144.3410 C   0  0  2  0  0  3  0  0  0  0  0  0
  185.5460  178.5300  142.5110 C   0  0  1  0  0  3  0  0  0  0  0  0
  182.5840  177.9750  139.6820 C   0  0  0  0  0  2  0  0  0  0  0  0
  191.9650  178.3580  142.4980 N   0  0  0  0  0  2  0  0  0  0  0  0
  190.0800  176.0090  143.1430 C   0  0  2  0  0  3  0  0  0  0  0  0
  183.9730  178.2030  138.5190 S   0  0  0  0  0  0  0  0  0  0  0  0
  190.5650  178.3170  142.1020 C   0  0  0  0  0  2  0  0  0  0  0  0
  191.3040  177.5210  144.7670 C   0  0  1  0  0  3  0  0  0  0  0  0
  184.8620  178.8440  144.9150 C   0  0  0  0  0  2  0  0  0  0  0  0
  186.0330  178.6920  143.9410 C   0  0  1  0  0  3  0  0  0  0  0  0
  184.8130  179.6670  142.1280 O   0  0  0  0  0  0  0  0  0  0  0  0
  188.7910  176.8440  141.1440 C   0  0  0  0  0  2  0  0  0  0  0  0
  187.2640  178.2740  139.0930 C   0  0  0  0  0  1  0  0  0  0  0  0
  181.9860  178.7750  141.8410 O   0  0  0  0  0  1  0  0  0  0  0  0
  186.7340  178.3230  141.5620 C   0  0  1  0  0  3  0  0  0  0  0  0
  184.1110  179.3760  140.9380 C   0  0  1  0  0  3  0  0  0  0  0  0
  191.9140  177.4200  146.0840 N   0  0  0  0  0  2  0  0  0  0  0  0
  191.2480  176.8220  147.1990 C   0  0  0  0  0  0  0  0  0  0  0  0
  191.9130  176.7410  148.4540 N   0  0  0  0  0  1  0  0  0  0  0  0
  190.0770  176.3730  147.0820 O   0  0  0  0  0  0  0  0  0  0  0  0
  1 20  1  0  0  0  0
  2 24  1  6  0  0  0
  2 12  1  0  0  0  0
  4  3  1  0  0  0  0
  5 25  1  6  0  0  0
  5 27  1  0  0  0  0
  6 18  1  6  0  0  0
  6  5  1  0  0  0  0
  6 28  1  0  0  0  0
  7 24  1  1  0  0  0
  7 19  1  0  0  0  0
  7 17  1  0  0  0  0
  9 26  1  1  0  0  0
 10 20  1  0  0  0  0
 11  3  1  0  0  0  0
 12  8  1  1  0  0  0
 12 13  1  0  0  0  0
 13 11  1  1  0  0  0
 14 23  1  6  0  0  0
 14 22  1  0  0  0  0
 15  9  1  0  0  0  0
 16  1  1  0  0  0  0
 17  8  1  1  0  0  0
 17 10  1  0  0  0  0
 18 15  1  0  0  0  0
 19 16  1  0  0  0  0
 20 29  1  1  0  0  0
 21  4  1  0  0  0  0
 22 13  1  0  0  0  0
 22 21  1  1  0  0  0
 27  2  1  0  0  0  0
 27 14  1  0  0  0  0
 28  9  1  0  0  0  0
 28 23  1  0  0  0  0
 29 30  1  0  0  0  0
 30 31  1  0  0  0  0
 32 30  2  0  0  0  0
M  END
>  <MODEL>
3

>  <REMARK>
 VINA RESULT:      -7.3      2.668      3.924
  Name = 
  1 active torsions:
  status: ('A' for Active; 'I' for Inactive)
    1  A    between atoms: C_20  and  N_29
                            x       y       z     vdW  Elec       q    Type
                         _______ _______ _______ _____ _____    ______ ____

>  <TORSDO>
F 1

$$$$
=
 OpenBabel11122410513D

 32 37  0  0  1  0  0  0  0  0999 V2000
  188.3490  175.8200  137.0650 C   0  0  0  0  0  2  0  0  0  0  0  0
  189.2220  178.0130  141.5380 C   0  0  2  0  0  3  0  0  0  0  0  0
  184.4590  179.1610  141.3900 C   0  0  0  0  0  2  0  0  0  0  0  0
  184.1980  178.1420  142.3280 O   0  0  0  0  0  0  0  0  0  0  0  0
  190.1440  177.0450  143.7370 C   0  0  1  0  0  3  0  0  0  0  0  0
  189.7780  176.4560  145.1090 C   0  0  1  0  0  3  0  0  0  0  0  0
  190.2590  177.3800  139.2610 C   0  0  2  0  0  3  0  0  0  0  0  0
  188.3590  179.0820  139.6040 C   0  0  0  0  0  2  0  0  0  0  0  0
  188.3170  178.1060  146.2330 C   0  0  2  0  0  3  0  0  0  0  0  0
  188.9040  178.3020  137.2390 C   0  0  0  0  0  2  0  0  0  0  0  0
  185.6490  178.7730  140.5090 C   0  0  0  0  0  2  0  0  0  0  0  0
  188.0420  178.1010  140.6460 N   0  0  2  0  0  0  0  0  0  0  0  0
  186.8850  178.5970  141.4020 C   0  0  2  0  0  3  0  0  0  0  0  0
  187.7080  177.5120  143.4790 C   0  0  1  0  0  3  0  0  0  0  0  0
  189.5310  178.1500  147.1340 C   0  0  0  0  0  2  0  0  0  0  0  0
  189.6720  175.6350  137.6610 N   0  0  0  0  0  2  0  0  0  0  0  0
  189.4370  178.5410  138.6560 C   0  0  2  0  0  3  0  0  0  0  0  0
  190.8750  177.1760  146.3740 S   0  0  0  0  0  0  0  0  0  0  0  0
  189.6230  176.0030  139.0690 C   0  0  0  0  0  2  0  0  0  0  0  0
  187.8000  177.2440  137.2210 C   0  0  1  0  0  3  0  0  0  0  0  0
  185.2770  178.1250  143.2310 C   0  0  0  0  0  2  0  0  0  0  0  0
  186.5340  177.6160  142.5210 C   0  0  1  0  0  3  0  0  0  0  0  0
  187.4000  176.6060  144.5090 O   0  0  0  0  0  0  0  0  0  0  0  0
  190.4980  177.6260  140.7520 C   0  0  0  0  0  2  0  0  0  0  0  0
  191.3110  176.2340  143.1980 C   0  0  0  0  0  1  0  0  0  0  0  0
  187.1570  178.2270  146.9970 O   0  0  0  0  0  1  0  0  0  0  0  0
  188.9690  177.0550  142.7340 C   0  0  1  0  0  3  0  0  0  0  0  0
  188.3480  176.7550  145.5450 C   0  0  1  0  0  3  0  0  0  0  0  0
  186.8610  177.5160  136.1430 N   0  0  0  0  0  2  0  0  0  0  0  0
  185.4880  177.1210  136.1970 C   0  0  0  0  0  0  0  0  0  0  0  0
  184.6220  177.4360  135.1140 N   0  0  0  0  0  1  0  0  0  0  0  0
  185.0400  176.4920  137.1920 O   0  0  0  0  0  0  0  0  0  0  0  0
  1 20  1  0  0  0  0
  1 16  1  0  0  0  0
  2 24  1  6  0  0  0
  2 27  1  0  0  0  0
  3  4  1  0  0  0  0
  4 21  1  0  0  0  0
  5 25  1  6  0  0  0
  5  6  1  0  0  0  0
  6 28  1  0  0  0  0
  6 18  1  1  0  0  0
  7 19  1  1  0  0  0
  7 24  1  0  0  0  0
  9 26  1  1  0  0  0
  9 15  1  0  0  0  0
 11  3  1  0  0  0  0
 12  8  1  6  0  0  0
 12 13  1  0  0  0  0
 12  2  1  0  0  0  0
 13 11  1  6  0  0  0
 13 22  1  0  0  0  0
 14 23  1  1  0  0  0
 16 19  1  0  0  0  0
 17 10  1  6  0  0  0
 17  7  1  0  0  0  0
 17  8  1  0  0  0  0
 18 15  1  0  0  0  0
 20 29  1  6  0  0  0
 20 10  1  0  0  0  0
 22 21  1  1  0  0  0
 22 14  1  0  0  0  0
 23 28  1  0  0  0  0
 27 14  1  0  0  0  0
 27  5  1  0  0  0  0
 28  9  1  0  0  0  0
 29 30  1  0  0  0  0
 30 32  2  0  0  0  0
 31 30  1  0  0  0  0
M  END
>  <MODEL>
4

>  <REMARK>
 VINA RESULT:      -7.1      3.049      7.132
  Name = 
  1 active torsions:
  status: ('A' for Active; 'I' for Inactive)
    1  A    between atoms: C_20  and  N_29
                            x       y       z     vdW  Elec       q    Type
                         _______ _______ _______ _____ _____    ______ ____

>  <TORSDO>
F 1

$$$$
=
 OpenBabel11122410513D

 32 37  0  0  1  0  0  0  0  0999 V2000
  182.3370  176.7100  138.7020 C   0  0  0  0  0  2  0  0  0  0  0  0
  186.6400  178.5850  140.5850 C   0  0  2  0  0  3  0  0  0  0  0  0
  184.0480  179.1710  144.7030 C   0  0  0  0  0  2  0  0  0  0  0  0
  184.6970  178.0490  145.2560 O   0  0  0  0  0  0  0  0  0  0  0  0
  188.9830  177.5420  140.7920 C   0  0  1  0  0  3  0  0  0  0  0  0
  189.9550  176.7940  141.7210 C   0  0  1  0  0  3  0  0  0  0  0  0
  185.2280  178.2840  138.4450 C   0  0  2  0  0  3  0  0  0  0  0  0
  184.5550  179.7120  140.4780 C   0  0  0  0  0  2  0  0  0  0  0  0
  190.1760  178.1530  143.7750 C   0  0  2  0  0  3  0  0  0  0  0  0
  182.8100  179.2150  138.6870 C   0  0  0  0  0  2  0  0  0  0  0  0
  183.9100  179.0060  143.1870 C   0  0  0  0  0  2  0  0  0  0  0  0
  185.2650  178.6120  141.1370 N   0  0  2  0  0  0  0  0  0  0  0  0
  185.3140  178.8990  142.5760 C   0  0  2  0  0  3  0  0  0  0  0  0
  187.5000  177.7390  142.7880 C   0  0  1  0  0  3  0  0  0  0  0  0
  191.5780  178.2610  143.2180 C   0  0  0  0  0  2  0  0  0  0  0  0
  183.5330  176.6310  137.8630 N   0  0  0  0  0  2  0  0  0  0  0  0
  184.3000  179.3880  139.0000 C   0  0  2  0  0  3  0  0  0  0  0  0
  191.6160  177.5240  141.5490 S   0  0  0  0  0  0  0  0  0  0  0  0
  184.7140  176.8640  138.6810 C   0  0  0  0  0  2  0  0  0  0  0  0
  182.2040  178.0400  139.4550 C   0  0  1  0  0  3  0  0  0  0  0  0
  186.0300  178.0790  144.8050 C   0  0  0  0  0  2  0  0  0  0  0  0
  186.0720  177.7880  143.3030 C   0  0  1  0  0  3  0  0  0  0  0  0
  188.2060  176.7150  143.4440 O   0  0  0  0  0  0  0  0  0  0  0  0
  186.6290  178.4230  139.0450 C   0  0  0  0  0  2  0  0  0  0  0  0
  189.1200  176.9260  139.4100 C   0  0  0  0  0  1  0  0  0  0  0  0
  190.2250  178.0680  145.1660 O   0  0  0  0  0  1  0  0  0  0  0  0
  187.5150  177.5020  141.2720 C   0  0  1  0  0  3  0  0  0  0  0  0
  189.5860  176.8820  143.1970 C   0  0  1  0  0  3  0  0  0  0  0  0
  180.7990  178.2930  139.7350 N   0  0  0  0  0  2  0  0  0  0  0  0
  180.3560  178.9700  140.9140 C   0  0  0  0  0  0  0  0  0  0  0  0
  178.9670  179.1990  141.1140 N   0  0  0  0  0  1  0  0  0  0  0  0
  181.1840  179.3600  141.7790 O   0  0  0  0  0  0  0  0  0  0  0  0
  1 20  1  0  0  0  0
  2 24  1  6  0  0  0
  2 12  1  0  0  0  0
  2 27  1  0  0  0  0
  3  4  1  0  0  0  0
  5 25  1  6  0  0  0
  5 27  1  0  0  0  0
  5  6  1  0  0  0  0
  6 18  1  1  0  0  0
  6 28  1  0  0  0  0
  7 19  1  1  0  0  0
  7 17  1  0  0  0  0
  7 24  1  0  0  0  0
  9 26  1  1  0  0  0
 10 20  1  0  0  0  0
 11  3  1  0  0  0  0
 12  8  1  6  0  0  0
 12 13  1  0  0  0  0
 13 11  1  1  0  0  0
 13 22  1  0  0  0  0
 14 22  1  0  0  0  0
 14 23  1  1  0  0  0
 15  9  1  0  0  0  0
 16 19  1  0  0  0  0
 16  1  1  0  0  0  0
 17 10  1  1  0  0  0
 17  8  1  0  0  0  0
 18 15  1  0  0  0  0
 20 29  1  6  0  0  0
 21  4  1  0  0  0  0
 22 21  1  1  0  0  0
 27 14  1  0  0  0  0
 28 23  1  0  0  0  0
 28  9  1  0  0  0  0
 29 30  1  0  0  0  0
 30 31  1  0  0  0  0
 30 32  2  0  0  0  0
M  END
>  <MODEL>
5

>  <REMARK>
 VINA RESULT:      -6.8      3.560      6.993
  Name = 
  1 active torsions:
  status: ('A' for Active; 'I' for Inactive)
    1  A    between atoms: C_20  and  N_29
                            x       y       z     vdW  Elec       q    Type
                         _______ _______ _______ _____ _____    ______ ____

>  <TORSDO>
F 1

$$$$
=
 OpenBabel11122410513D

 32 37  0  0  1  0  0  0  0  0999 V2000
  188.8430  175.8060  142.8640 C   0  0  0  0  0  2  0  0  0  0  0  0
  185.0610  179.0480  141.9900 C   0  0  2  0  0  3  0  0  0  0  0  0
  185.8920  178.0330  137.2670 C   0  0  0  0  0  2  0  0  0  0  0  0
  184.7410  177.2200  137.2530 O   0  0  0  0  0  0  0  0  0  0  0  0
  182.6180  179.0420  142.7950 C   0  0  1  0  0  3  0  0  0  0  0  0
  181.1720  178.6560  142.4410 C   0  0  1  0  0  3  0  0  0  0  0  0
  186.9970  178.4460  143.5880 C   0  0  2  0  0  3  0  0  0  0  0  0
  187.2730  179.2240  141.1500 C   0  0  0  0  0  2  0  0  0  0  0  0
  180.6500  179.7360  140.2780 C   0  0  2  0  0  3  0  0  0  0  0  0
  189.2930  178.2680  142.3760 C   0  0  0  0  0  2  0  0  0  0  0  0
  186.5390  178.0040  138.6540 C   0  0  0  0  0  2  0  0  0  0  0  0
  186.0360  178.4430  141.0520 N   0  0  2  0  0  0  0  0  0  0  0  0
  185.5350  178.5550  139.6760 C   0  0  2  0  0  3  0  0  0  0  0  0
  183.1850  178.3790  140.4590 C   0  0  1  0  0  3  0  0  0  0  0  0
  179.6980  180.4750  141.1940 C   0  0  0  0  0  2  0  0  0  0  0  0
  188.1150  176.3230  144.0230 N   0  0  0  0  0  2  0  0  0  0  0  0
  187.9530  178.9990  142.5060 C   0  0  2  0  0  3  0  0  0  0  0  0
  180.0600  180.0180  142.9240 S   0  0  0  0  0  0  0  0  0  0  0  0
  186.8640  176.9230  143.5800 C   0  0  0  0  0  2  0  0  0  0  0  0
  189.1170  176.8660  141.7900 C   0  0  1  0  0  3  0  0  0  0  0  0
  183.7820  177.8470  138.0700 C   0  0  0  0  0  2  0  0  0  0  0  0
  184.2270  177.7760  139.5330 C   0  0  1  0  0  3  0  0  0  0  0  0
  181.9780  177.6650  140.3430 O   0  0  0  0  0  0  0  0  0  0  0  0
  185.6110  179.0770  143.4370 C   0  0  0  0  0  2  0  0  0  0  0  0
  182.8250  178.7020  144.2620 C   0  0  0  0  0  1  0  0  0  0  0  0
  180.0410  179.5170  139.0430 O   0  0  0  0  0  1  0  0  0  0  0  0
  183.6780  178.3480  141.9120 C   0  0  1  0  0  3  0  0  0  0  0  0
  180.9470  178.4120  140.9530 C   0  0  1  0  0  3  0  0  0  0  0  0
  190.3000  176.4860  141.0330 N   0  0  0  0  0  2  0  0  0  0  0  0
  190.5970  177.0250  139.7430 C   0  0  0  0  0  0  0  0  0  0  0  0
  191.7820  176.6210  139.0670 N   0  0  0  0  0  1  0  0  0  0  0  0
  189.8170  177.8500  139.1960 O   0  0  0  0  0  0  0  0  0  0  0  0
  1 16  1  0  0  0  0
  2 24  1  1  0  0  0
  3 11  1  0  0  0  0
  4  3  1  0  0  0  0
  4 21  1  0  0  0  0
  5 25  1  1  0  0  0
  6  5  1  0  0  0  0
  6 18  1  6  0  0  0
  7 24  1  6  0  0  0
  9 26  1  6  0  0  0
  9 28  1  0  0  0  0
  9 15  1  0  0  0  0
 10 17  1  0  0  0  0
 12  8  1  6  0  0  0
 12  2  1  0  0  0  0
 13 11  1  6  0  0  0
 13 12  1  0  0  0  0
 14 23  1  1  0  0  0
 14 27  1  0  0  0  0
 15 18  1  0  0  0  0
 17  8  1  6  0  0  0
 17  7  1  0  0  0  0
 19  7  1  0  0  0  0
 19 16  1  0  0  0  0
 20 29  1  1  0  0  0
 20 10  1  0  0  0  0
 20  1  1  0  0  0  0
 22 21  1  6  0  0  0
 22 13  1  0  0  0  0
 22 14  1  0  0  0  0
 23 28  1  0  0  0  0
 27  2  1  0  0  0  0
 27  5  1  0  0  0  0
 28  6  1  0  0  0  0
 30 29  1  0  0  0  0
 31 30  1  0  0  0  0
 32 30  2  0  0  0  0
M  END
>  <MODEL>
6

>  <REMARK>
 VINA RESULT:      -6.7      3.513      6.583
  Name = 
  1 active torsions:
  status: ('A' for Active; 'I' for Inactive)
    1  A    between atoms: C_20  and  N_29
                            x       y       z     vdW  Elec       q    Type
                         _______ _______ _______ _____ _____    ______ ____

>  <TORSDO>
F 1

$$$$
=
 OpenBabel11122410513D

 32 37  0  0  1  0  0  0  0  0999 V2000
  179.1930  181.1400  139.2610 C   0  0  0  0  0  2  0  0  0  0  0  0
  182.4460  178.1720  141.7480 C   0  0  2  0  0  3  0  0  0  0  0  0
  184.7400  177.8430  137.4290 C   0  0  0  0  0  2  0  0  0  0  0  0
  185.7260  178.7330  137.8990 O   0  0  0  0  0  0  0  0  0  0  0  0
  183.8890  178.6280  143.8290 C   0  0  1  0  0  3  0  0  0  0  0  0
  185.2790  179.0500  144.3350 C   0  0  1  0  0  3  0  0  0  0  0  0
  179.9960  178.9730  141.6190 C   0  0  2  0  0  3  0  0  0  0  0  0
  181.1940  177.5670  139.8260 C   0  0  0  0  0  2  0  0  0  0  0  0
  186.9160  177.5040  143.3110 C   0  0  2  0  0  3  0  0  0  0  0  0
  178.9310  178.6030  139.2740 C   0  0  0  0  0  2  0  0  0  0  0  0
  183.3890  178.1650  138.0720 C   0  0  0  0  0  2  0  0  0  0  0  0
  182.2950  178.4140  140.2940 N   0  0  2  0  0  0  0  0  0  0  0  0
  183.5170  178.0000  139.5930 C   0  0  2  0  0  3  0  0  0  0  0  0
  184.9140  178.6040  141.5550 C   0  0  1  0  0  3  0  0  0  0  0  0
  187.0510  177.1260  144.7700 C   0  0  0  0  0  2  0  0  0  0  0  0
  179.0230  181.0140  140.7080 N   0  0  0  0  0  2  0  0  0  0  0  0
  179.8510  178.0670  140.3750 C   0  0  2  0  0  3  0  0  0  0  0  0
  185.7520  177.9760  145.7300 S   0  0  0  0  0  0  0  0  0  0  0  0
  180.2310  180.4470  141.2900 C   0  0  0  0  0  2  0  0  0  0  0  0
  179.5410  179.8160  138.5690 C   0  0  1  0  0  3  0  0  0  0  0  0
  185.9360  178.4380  139.2590 C   0  0  0  0  0  2  0  0  0  0  0  0
  184.7010  178.8400  140.0700 C   0  0  1  0  0  3  0  0  0  0  0  0
  185.9960  179.3790  142.0080 O   0  0  0  0  0  0  0  0  0  0  0  0
  181.1310  178.4640  142.5110 C   0  0  0  0  0  2  0  0  0  0  0  0
  182.8630  179.3130  144.7160 C   0  0  0  0  0  1  0  0  0  0  0  0
  188.1650  177.4550  142.6930 O   0  0  0  0  0  1  0  0  0  0  0  0
  183.6450  178.9620  142.3410 C   0  0  1  0  0  3  0  0  0  0  0  0
  186.3800  178.9220  143.2880 C   0  0  1  0  0  3  0  0  0  0  0  0
  179.0970  179.8680  137.1840 N   0  0  0  0  0  2  0  0  0  0  0  0
  179.9630  180.2390  136.1090 C   0  0  0  0  0  0  0  0  0  0  0  0
  179.4660  180.2510  134.7770 N   0  0  0  0  0  1  0  0  0  0  0  0
  181.1610  180.5610  136.3310 O   0  0  0  0  0  0  0  0  0  0  0  0
  1 16  1  0  0  0  0
  2 27  1  0  0  0  0
  2 24  1  1  0  0  0
  3  4  1  0  0  0  0
  3 11  1  0  0  0  0
  4 21  1  0  0  0  0
  5  6  1  0  0  0  0
  5 25  1  1  0  0  0
  6 18  1  1  0  0  0
  7 19  1  6  0  0  0
  7 24  1  0  0  0  0
  8 17  1  0  0  0  0
  9 26  1  1  0  0  0
  9 15  1  0  0  0  0
 12  8  1  6  0  0  0
 12  2  1  0  0  0  0
 13 11  1  6  0  0  0
 13 22  1  0  0  0  0
 13 12  1  0  0  0  0
 14 23  1  1  0  0  0
 14 27  1  0  0  0  0
 15 18  1  0  0  0  0
 16 19  1  0  0  0  0
 17 10  1  6  0  0  0
 17  7  1  0  0  0  0
 20 29  1  6  0  0  0
 20  1  1  0  0  0  0
 20 10  1  0  0  0  0
 22 21  1  6  0  0  0
 22 14  1  0  0  0  0
 23 28  1  0  0  0  0
 27  5  1  0  0  0  0
 28  9  1  0  0  0  0
 28  6  1  0  0  0  0
 30 32  2  0  0  0  0
 30 29  1  0  0  0  0
 31 30  1  0  0  0  0
M  END
>  <MODEL>
7

>  <REMARK>
 VINA RESULT:      -6.5      5.437      9.453
  Name = 
  1 active torsions:
  status: ('A' for Active; 'I' for Inactive)
    1  A    between atoms: C_20  and  N_29
                            x       y       z     vdW  Elec       q    Type
                         _______ _______ _______ _____ _____    ______ ____

>  <TORSDO>
F 1

$$$$
=
 OpenBabel11122410513D

 32 37  0  0  1  0  0  0  0  0999 V2000
  188.9640  177.9610  139.6720 C   0  0  0  0  0  2  0  0  0  0  0  0
  185.4730  176.1480  136.4920 C   0  0  2  0  0  3  0  0  0  0  0  0
  188.7340  172.5820  135.6700 C   0  0  0  0  0  2  0  0  0  0  0  0
  187.9640  171.7120  136.4660 O   0  0  0  0  0  0  0  0  0  0  0  0
  183.0280  175.4540  136.8920 C   0  0  1  0  0  3  0  0  0  0  0  0
  182.0800  174.2780  137.1800 C   0  0  1  0  0  3  0  0  0  0  0  0
  186.4480  178.2870  137.5590 C   0  0  2  0  0  3  0  0  0  0  0  0
  187.7020  176.7380  135.9300 C   0  0  0  0  0  2  0  0  0  0  0  0
  182.4590  172.5990  135.4050 C   0  0  2  0  0  3  0  0  0  0  0  0
  189.0120  178.5280  137.1860 C   0  0  0  0  0  2  0  0  0  0  0  0
  188.6000  174.0200  136.1780 C   0  0  0  0  0  2  0  0  0  0  0  0
  186.8940  175.7640  136.6700 N   0  0  2  0  0  0  0  0  0  0  0  0
  187.1260  174.4390  136.0820 C   0  0  2  0  0  3  0  0  0  0  0  0
  184.8100  173.7290  136.6290 C   0  0  1  0  0  3  0  0  0  0  0  0
  181.0390  173.0170  135.0930 C   0  0  0  0  0  2  0  0  0  0  0  0
  187.6620  178.6280  139.6450 N   0  0  0  0  0  2  0  0  0  0  0  0
  187.6540  178.1120  136.6090 C   0  0  2  0  0  3  0  0  0  0  0  0
  180.5950  174.4470  136.1370 S   0  0  0  0  0  0  0  0  0  0  0  0
  186.6930  177.7710  138.9760 C   0  0  0  0  0  2  0  0  0  0  0  0
  189.4780  177.5670  138.2810 C   0  0  1  0  0  3  0  0  0  0  0  0
  186.6120  172.0160  136.2230 C   0  0  0  0  0  2  0  0  0  0  0  0
  186.2800  173.3920  136.8070 C   0  0  1  0  0  3  0  0  0  0  0  0
  184.0210  172.7770  137.2990 O   0  0  0  0  0  0  0  0  0  0  0  0
  185.2140  177.5960  136.9730 C   0  0  0  0  0  2  0  0  0  0  0  0
  182.5570  176.6260  137.7380 C   0  0  0  0  0  1  0  0  0  0  0  0
  182.6090  171.2310  135.1800 O   0  0  0  0  0  1  0  0  0  0  0  0
  184.5130  175.1340  137.1710 C   0  0  1  0  0  3  0  0  0  0  0  0
  182.6820  172.9120  136.8710 C   0  0  1  0  0  3  0  0  0  0  0  0
  190.9320  177.5030  138.3090 N   0  0  0  0  0  2  0  0  0  0  0  0
  191.6490  176.2670  138.3280 C   0  0  0  0  0  0  0  0  0  0  0  0
  193.0720  176.2800  138.3360 N   0  0  0  0  0  1  0  0  0  0  0  0
  191.0350  175.1670  138.3440 O   0  0  0  0  0  0  0  0  0  0  0  0
  2 12  1  0  0  0  0
  2 24  1  1  0  0  0
  2 27  1  0  0  0  0
  3 11  1  0  0  0  0
  3  4  1  0  0  0  0
  5 27  1  0  0  0  0
  5  6  1  0  0  0  0
  5 25  1  1  0  0  0
  6 18  1  6  0  0  0
  7 24  1  6  0  0  0
  7 19  1  0  0  0  0
  9 26  1  1  0  0  0
  9 28  1  0  0  0  0
 10 20  1  0  0  0  0
 12  8  1  6  0  0  0
 13 11  1  1  0  0  0
 13 12  1  0  0  0  0
 13 22  1  0  0  0  0
 14 22  1  0  0  0  0
 14 27  1  0  0  0  0
 14 23  1  1  0  0  0
 15  9  1  0  0  0  0
 15 18  1  0  0  0  0
 16  1  1  0  0  0  0
 17  8  1  1  0  0  0
 17 10  1  0  0  0  0
 17  7  1  0  0  0  0
 19 16  1  0  0  0  0
 20 29  1  1  0  0  0
 20  1  1  0  0  0  0
 21  4  1  0  0  0  0
 22 21  1  6  0  0  0
 28  6  1  0  0  0  0
 28 23  1  0  0  0  0
 29 30  1  0  0  0  0
 30 31  1  0  0  0  0
 30 32  2  0  0  0  0
M  END
>  <MODEL>
8

>  <REMARK>
 VINA RESULT:      -6.2      4.809      7.743
  Name = 
  1 active torsions:
  status: ('A' for Active; 'I' for Inactive)
    1  A    between atoms: C_20  and  N_29
                            x       y       z     vdW  Elec       q    Type
                         _______ _______ _______ _____ _____    ______ ____

>  <TORSDO>
F 1

$$$$
=
 OpenBabel11122410513D

 32 37  0  0  1  0  0  0  0  0999 V2000
  190.2960  176.3790  139.3820 C   0  0  0  0  0  2  0  0  0  0  0  0
  185.8420  177.2420  137.1470 C   0  0  2  0  0  3  0  0  0  0  0  0
  185.9580  172.4560  136.0960 C   0  0  0  0  0  2  0  0  0  0  0  0
  185.0130  172.2230  137.1150 O   0  0  0  0  0  0  0  0  0  0  0  0
  183.6460  178.2010  138.0830 C   0  0  1  0  0  3  0  0  0  0  0  0
  182.2670  177.8580  138.6720 C   0  0  1  0  0  3  0  0  0  0  0  0
  188.1240  178.2740  137.7710 C   0  0  2  0  0  3  0  0  0  0  0  0
  187.7750  176.3420  136.1060 C   0  0  0  0  0  2  0  0  0  0  0  0
  181.1410  176.3730  137.0460 C   0  0  2  0  0  3  0  0  0  0  0  0
  190.1400  176.8850  136.8880 C   0  0  0  0  0  2  0  0  0  0  0  0
  186.8470  173.6470  136.4650 C   0  0  0  0  0  2  0  0  0  0  0  0
  186.7250  176.0540  137.0880 N   0  0  2  0  0  0  0  0  0  0  0  0
  185.9630  174.8930  136.6110 C   0  0  2  0  0  3  0  0  0  0  0  0
  183.8860  175.7540  137.6670 C   0  0  1  0  0  3  0  0  0  0  0  0
  180.2500  177.5930  136.9720 C   0  0  0  0  0  2  0  0  0  0  0  0
  189.7090  177.7100  139.5370 N   0  0  0  0  0  2  0  0  0  0  0  0
  188.7280  177.4230  136.6310 C   0  0  2  0  0  3  0  0  0  0  0  0
  181.0150  178.9500  137.9230 S   0  0  0  0  0  0  0  0  0  0  0  0
  188.3030  177.6650  139.1620 C   0  0  0  0  0  2  0  0  0  0  0  0
  190.1440  175.8030  137.9690 C   0  0  1  0  0  3  0  0  0  0  0  0
  184.1190  173.3090  137.1050 C   0  0  0  0  0  2  0  0  0  0  0  0
  184.8360  174.5710  137.5920 C   0  0  1  0  0  3  0  0  0  0  0  0
  182.8490  175.4730  138.5740 O   0  0  0  0  0  0  0  0  0  0  0  0
  186.6360  178.5200  137.5120 C   0  0  0  0  0  2  0  0  0  0  0  0
  184.1890  179.3800  138.8740 C   0  0  0  0  0  1  0  0  0  0  0  0
  180.3680  175.2160  136.9440 O   0  0  0  0  0  1  0  0  0  0  0  0
  184.6390  177.0180  138.1030 C   0  0  1  0  0  3  0  0  0  0  0  0
  181.8210  176.4260  138.4000 C   0  0  1  0  0  3  0  0  0  0  0  0
  191.2150  174.8500  137.7220 N   0  0  0  0  0  2  0  0  0  0  0  0
  191.1680  173.8920  136.6620 C   0  0  0  0  0  0  0  0  0  0  0  0
  192.2610  173.0030  136.4680 N   0  0  0  0  0  1  0  0  0  0  0  0
  190.1660  173.8250  135.9010 O   0  0  0  0  0  0  0  0  0  0  0  0
  1 16  1  0  0  0  0
  2 24  1  1  0  0  0
  2 27  1  0  0  0  0
  3 11  1  0  0  0  0
  3  4  1  0  0  0  0
  5 27  1  0  0  0  0
  5  6  1  0  0  0  0
  5 25  1  1  0  0  0
  6 18  1  6  0  0  0
  7 24  1  6  0  0  0
  7 19  1  0  0  0  0
  9 26  1  1  0  0  0
  9 28  1  0  0  0  0
 10 20  1  0  0  0  0
 12  8  1  6  0  0  0
 12  2  1  0  0  0  0
 13 11  1  1  0  0  0
 13 12  1  0  0  0  0
 13 22  1  0  0  0  0
 14 27  1  0  0  0  0
 14 23  1  1  0  0  0
 15  9  1  0  0  0  0
 15 18  1  0  0  0  0
 17  8  1  1  0  0  0
 17 10  1  0  0  0  0
 17  7  1  0  0  0  0
 19 16  1  0  0  0  0
 20 29  1  6  0  0  0
 20  1  1  0  0  0  0
 21  4  1  0  0  0  0
 22 21  1  6  0  0  0
 22 14  1  0  0  0  0
 28 23  1  0  0  0  0
 28  6  1  0  0  0  0
 30 29  1  0  0  0  0
 31 30  1  0  0  0  0
 32 30  2  0  0  0  0
M  END
>  <MODEL>
9

>  <REMARK>
 VINA RESULT:      -6.1      4.739      7.530
  Name = 
  1 active torsions:
  status: ('A' for Active; 'I' for Inactive)
    1  A    between atoms: C_20  and  N_29
                            x       y       z     vdW  Elec       q    Type
                         _______ _______ _______ _____ _____    ______ ____

>  <TORSDO>
F 1

$$$$
