=
 OpenBabel11122410433D

 32 37  0  0  1  0  0  0  0  0999 V2000
  188.1870  176.9720  148.1230 C   0  0  0  0  0  2  0  0  0  0  0  0
  185.7770  178.3470  143.6580 C   0  0  1  0  0  3  0  0  0  0  0  0
  188.3970  178.3950  139.4990 C   0  0  0  0  0  2  0  0  0  0  0  0
  187.1590  178.0100  138.8360 N   0  0  0  0  0  2  0  0  0  0  0  0
  183.1930  178.6770  143.4880 C   0  0  0  0  0  0  0  0  0  0  0  0
  182.0350  178.8760  142.6270 C   0  0  0  0  0  0  0  0  0  0  0  0
  186.9550  178.2490  145.8280 C   0  0  0  0  0  0  0  0  0  0  0  0
  188.2820  177.7170  143.7820 C   0  0  0  0  0  3  0  0  0  0  0  0
  180.8560  179.1320  140.7550 N   0  0  0  0  0  0  0  0  0  0  0  0
  189.4050  177.8320  146.0670 C   0  0  0  0  0  2  0  0  0  0  0  0
  188.4110  177.8400  140.9170 C   0  0  0  0  0  2  0  0  0  0  0  0
  187.0660  178.1040  142.9750 C   0  0  0  0  0  0  0  0  0  0  0  0
  187.1290  178.1730  141.6370 C   0  0  0  0  0  0  0  0  0  0  0  0
  184.6490  178.6120  141.4940 C   0  0  0  0  0  0  0  0  0  0  0  0
  179.9100  179.2360  141.8610 C   0  0  0  0  0  2  0  0  0  0  0  0
  187.7950  178.3180  148.1070 O   0  0  0  0  0  0  0  0  0  0  0  0
  188.1470  177.9570  145.2610 C   0  0  0  0  0  0  0  0  0  0  0  0
  180.7150  179.0360  143.0250 O   0  0  0  0  0  0  0  0  0  0  0  0
  186.7870  178.3940  147.2180 O   0  0  0  0  0  0  0  0  0  0  0  0
  189.3180  176.7260  147.1230 C   0  0  1  0  0  3  0  0  0  0  0  0
  186.0850  178.7900  139.4400 C   0  0  0  0  0  2  0  0  0  0  0  0
  185.9440  178.4720  140.8660 N   0  0  0  0  0  0  0  0  0  0  0  0
  183.4370  178.8330  140.5900 C   0  0  0  0  0  2  0  0  0  0  0  0
  185.7530  178.4100  144.9930 C   0  0  0  0  0  3  0  0  0  0  0  0
  183.0320  178.6110  144.7360 O   0  0  0  0  0  0  0  0  0  0  0  0
  180.5940  179.5610  139.3940 C   0  0  0  0  0  1  0  0  0  0  0  0
  184.5390  178.5470  142.8490 C   0  0  0  0  0  0  0  0  0  0  0  0
  182.1370  178.9370  141.3280 C   0  0  0  0  0  0  0  0  0  0  0  0
  190.5810  176.6320  147.8410 N   0  0  0  0  0  2  0  0  0  0  0  0
  191.7340  175.9930  147.2910 C   0  0  0  0  0  0  0  0  0  0  0  0
  191.6910  175.4570  146.1520 O   0  0  0  0  0  0  0  0  0  0  0  0
  192.9970  175.9580  148.0730 C   0  0  0  0  0  1  0  0  0  0  0  0
  2 24  1  6  0  0  0
  3 11  1  0  0  0  0
  4 21  1  0  0  0  0
  4  3  1  0  0  0  0
  5 25  2  0  0  0  0
  6 18  1  0  0  0  0
  6  5  1  0  0  0  0
  7 19  1  0  0  0  0
  8 17  2  0  0  0  0
  9 28  1  0  0  0  0
  9 15  1  0  0  0  0
 10 20  1  0  0  0  0
 11 13  1  0  0  0  0
 12  2  1  0  0  0  0
 12  8  1  0  0  0  0
 13 12  2  0  0  0  0
 14 27  2  0  0  0  0
 15 18  1  0  0  0  0
 16  1  1  0  0  0  0
 17  7  1  0  0  0  0
 17 10  1  0  0  0  0
 19 16  1  0  0  0  0
 20 29  1  1  0  0  0
 20  1  1  0  0  0  0
 21 22  1  0  0  0  0
 22 14  1  0  0  0  0
 22 13  1  0  0  0  0
 23 28  1  0  0  0  0
 23 14  1  0  0  0  0
 24  7  2  0  0  0  0
 26  9  1  0  0  0  0
 27  5  1  0  0  0  0
 27  2  1  0  0  0  0
 28  6  2  0  0  0  0
 30 29  1  0  0  0  0
 30 32  1  0  0  0  0
 31 30  2  0  0  0  0
M  END
>  <MODEL>
1

>  <REMARK>
 VINA RESULT:     -10.5      0.000      0.000
  Name = 
  1 active torsions:
  status: ('A' for Active; 'I' for Inactive)
    1  A    between atoms: C_20  and  N_29
                            x       y       z     vdW  Elec       q    Type
                         _______ _______ _______ _____ _____    ______ ____

>  <TORSDO>
F 1

$$$$
=
 OpenBabel11122410433D

 32 37  0  0  1  0  0  0  0  0999 V2000
  181.5210  179.9100  140.3760 C   0  0  0  0  0  2  0  0  0  0  0  0
  185.9970  178.1760  142.5200 C   0  0  0  0  0  0  0  0  0  0  0  0
  189.8510  177.3790  139.5760 C   0  0  0  0  0  2  0  0  0  0  0  0
  190.6700  177.7760  140.7120 N   0  0  0  0  0  2  0  0  0  0  0  0
  186.3700  178.0420  145.1000 C   0  0  0  0  0  0  0  0  0  0  0  0
  187.3080  177.8300  146.1950 C   0  0  0  0  0  0  0  0  0  0  0  0
  183.7520  178.4550  141.5250 C   0  0  0  0  0  0  0  0  0  0  0  0
  185.7120  178.6080  139.9860 C   0  0  0  0  0  2  0  0  0  0  0  0
  189.2380  177.4340  147.2320 N   0  0  0  0  0  0  0  0  0  0  0  0
  183.3330  178.6950  139.0760 C   0  0  0  0  0  2  0  0  0  0  0  0
  188.5160  178.1080  139.6290 C   0  0  0  0  0  2  0  0  0  0  0  0
  186.5780  178.2220  141.1610 C   0  0  0  0  0  0  0  0  0  0  0  0
  187.8860  177.9770  140.9930 C   0  0  0  0  0  0  0  0  0  0  0  0
  188.2110  177.7290  143.4820 C   0  0  0  0  0  0  0  0  0  0  0  0
  188.2230  177.5520  148.2730 C   0  0  0  0  0  2  0  0  0  0  0  0
  181.4120  178.6100  140.8890 O   0  0  0  0  0  0  0  0  0  0  0  0
  184.2340  178.5720  140.2670 C   0  0  0  0  0  0  0  0  0  0  0  0
  187.0200  177.8320  147.5530 O   0  0  0  0  0  0  0  0  0  0  0  0
  182.3770  178.5040  141.8220 O   0  0  0  0  0  0  0  0  0  0  0  0
  182.4310  179.9310  139.1470 C   0  0  1  0  0  3  0  0  0  0  0  0
  190.0820  177.1710  141.9020 C   0  0  0  0  0  2  0  0  0  0  0  0
  188.7250  177.6800  142.1310 N   0  0  0  0  0  0  0  0  0  0  0  0
  189.1920  177.4950  144.6290 C   0  0  0  0  0  2  0  0  0  0  0  0
  184.6720  178.2870  142.6620 C   0  0  0  0  0  3  0  0  0  0  0  0
  185.1610  178.2800  145.3580 O   0  0  0  0  0  0  0  0  0  0  0  0
  190.5570  176.8560  147.4170 C   0  0  0  0  0  1  0  0  0  0  0  0
  186.8900  177.9770  143.6990 C   0  0  0  0  0  0  0  0  0  0  0  0
  188.5740  177.5940  145.9900 C   0  0  0  0  0  0  0  0  0  0  0  0
  181.6130  180.0120  137.9450 N   0  0  0  0  0  2  0  0  0  0  0  0
  181.1520  181.2530  137.4090 C   0  0  0  0  0  0  0  0  0  0  0  0
  181.4230  182.3420  137.9810 O   0  0  0  0  0  0  0  0  0  0  0  0
  180.3420  181.2580  136.1630 C   0  0  0  0  0  1  0  0  0  0  0  0
  1 16  1  0  0  0  0
  2 24  2  0  0  0  0
  2 27  1  0  0  0  0
  3 11  1  0  0  0  0
  3  4  1  0  0  0  0
  4 21  1  0  0  0  0
  5 25  2  0  0  0  0
  5  6  1  0  0  0  0
  6 18  1  0  0  0  0
  7 19  1  0  0  0  0
  7 24  1  0  0  0  0
  8 17  1  0  0  0  0
  8 12  1  0  0  0  0
  9 26  1  0  0  0  0
  9 15  1  0  0  0  0
 10 20  1  0  0  0  0
 10 17  1  0  0  0  0
 11 13  1  0  0  0  0
 12  2  1  0  0  0  0
 13 12  2  0  0  0  0
 13 22  1  0  0  0  0
 14 27  2  0  0  0  0
 14 23  1  0  0  0  0
 16 19  1  0  0  0  0
 17  7  2  0  0  0  0
 18 15  1  0  0  0  0
 20 29  1  6  0  0  0
 20  1  1  0  0  0  0
 21 22  1  0  0  0  0
 22 14  1  0  0  0  0
 23 28  1  0  0  0  0
 27  5  1  0  0  0  0
 28  6  2  0  0  0  0
 28  9  1  0  0  0  0
 30 29  1  0  0  0  0
 30 31  2  0  0  0  0
 32 30  1  0  0  0  0
M  END
>  <MODEL>
2

>  <REMARK>
 VINA RESULT:     -10.0      2.063      8.402
  Name = 
  1 active torsions:
  status: ('A' for Active; 'I' for Inactive)
    1  A    between atoms: C_20  and  N_29
                            x       y       z     vdW  Elec       q    Type
                         _______ _______ _______ _____ _____    ______ ____

>  <TORSDO>
F 1

$$$$
=
 OpenBabel11122410433D

 32 37  0  0  1  0  0  0  0  0999 V2000
  185.8180  177.5930  137.3340 C   0  0  0  0  0  2  0  0  0  0  0  0
  187.1310  177.9680  142.4110 C   0  0  0  0  0  0  0  0  0  0  0  0
  183.6350  179.1580  145.6550 C   0  0  0  0  0  2  0  0  0  0  0  0
  184.3650  178.3190  146.5940 N   0  0  0  0  0  2  0  0  0  0  0  0
  189.4600  177.2270  143.3280 C   0  0  0  0  0  0  0  0  0  0  0  0
  190.2910  176.9580  144.4940 C   0  0  0  0  0  0  0  0  0  0  0  0
  186.7110  178.3100  140.0000 C   0  0  0  0  0  0  0  0  0  0  0  0
  184.7390  178.4030  141.5290 C   0  0  0  0  0  2  0  0  0  0  0  0
  190.8630  176.7540  146.6370 N   0  0  0  0  0  0  0  0  0  0  0  0
  184.4850  178.9150  139.0450 C   0  0  0  0  0  2  0  0  0  0  0  0
  183.8260  178.6270  144.2410 C   0  0  0  0  0  2  0  0  0  0  0  0
  185.7110  178.2810  142.6780 C   0  0  0  0  0  0  0  0  0  0  0  0
  185.2860  178.3970  143.9450 C   0  0  0  0  0  0  0  0  0  0  0  0
  187.5750  177.7990  144.8190 C   0  0  0  0  0  0  0  0  0  0  0  0
  192.0550  176.4430  145.8560 C   0  0  0  0  0  2  0  0  0  0  0  0
  186.6820  178.6650  137.5960 O   0  0  0  0  0  0  0  0  0  0  0  0
  185.3900  178.5370  140.1790 C   0  0  0  0  0  0  0  0  0  0  0  0
  191.6210  176.5620  144.4990 O   0  0  0  0  0  0  0  0  0  0  0  0
  187.3260  178.3450  138.7350 O   0  0  0  0  0  0  0  0  0  0  0  0
  184.4400  177.8470  137.9480 C   0  0  1  0  0  3  0  0  0  0  0  0
  185.7860  178.5850  146.3970 C   0  0  0  0  0  2  0  0  0  0  0  0
  186.2070  178.2080  145.0430 N   0  0  0  0  0  0  0  0  0  0  0  0
  188.4490  177.5290  146.0430 C   0  0  0  0  0  2  0  0  0  0  0  0
  187.5730  177.9880  141.1500 C   0  0  0  0  0  3  0  0  0  0  0  0
  189.9450  177.0760  142.1750 O   0  0  0  0  0  0  0  0  0  0  0  0
  190.8560  177.0690  148.0540 C   0  0  0  0  0  1  0  0  0  0  0  0
  188.0480  177.6660  143.5490 C   0  0  0  0  0  0  0  0  0  0  0  0
  189.8410  177.0820  145.7120 C   0  0  0  0  0  0  0  0  0  0  0  0
  183.5160  178.2570  136.9010 N   0  0  0  0  0  2  0  0  0  0  0  0
  182.1430  177.8630  136.8860 C   0  0  0  0  0  0  0  0  0  0  0  0
  181.6800  177.1120  137.7850 O   0  0  0  0  0  0  0  0  0  0  0  0
  181.2540  178.3420  135.7970 C   0  0  0  0  0  1  0  0  0  0  0  0
  1 16  1  0  0  0  0
  1 20  1  0  0  0  0
  2 12  1  0  0  0  0
  2 27  1  0  0  0  0
  3  4  1  0  0  0  0
  5 27  1  0  0  0  0
  5  6  1  0  0  0  0
  6 18  1  0  0  0  0
  6 28  2  0  0  0  0
  7 17  2  0  0  0  0
  7 24  1  0  0  0  0
  8 12  1  0  0  0  0
  9 26  1  0  0  0  0
 10 17  1  0  0  0  0
 11  3  1  0  0  0  0
 12 13  2  0  0  0  0
 13 11  1  0  0  0  0
 13 22  1  0  0  0  0
 14 22  1  0  0  0  0
 14 23  1  0  0  0  0
 15  9  1  0  0  0  0
 16 19  1  0  0  0  0
 17  8  1  0  0  0  0
 18 15  1  0  0  0  0
 19  7  1  0  0  0  0
 20 29  1  6  0  0  0
 20 10  1  0  0  0  0
 21  4  1  0  0  0  0
 22 21  1  0  0  0  0
 24  2  2  0  0  0  0
 25  5  2  0  0  0  0
 27 14  2  0  0  0  0
 28 23  1  0  0  0  0
 28  9  1  0  0  0  0
 30 29  1  0  0  0  0
 30 31  2  0  0  0  0
 32 30  1  0  0  0  0
M  END
>  <MODEL>
3

>  <REMARK>
 VINA RESULT:      -9.6      3.133      9.102
  Name = 
  1 active torsions:
  status: ('A' for Active; 'I' for Inactive)
    1  A    between atoms: C_20  and  N_29
                            x       y       z     vdW  Elec       q    Type
                         _______ _______ _______ _____ _____    ______ ____

>  <TORSDO>
F 1

$$$$
=
 OpenBabel11122410433D

 32 37  0  0  1  0  0  0  0  0999 V2000
  182.2020  178.7520  141.3430 C   0  0  0  0  0  2  0  0  0  0  0  0
  187.4060  178.0080  141.2600 C   0  0  1  0  0  3  0  0  0  0  0  0
  189.8000  177.7150  145.5430 C   0  0  0  0  0  2  0  0  0  0  0  0
  190.6980  176.7940  144.8600 N   0  0  0  0  0  2  0  0  0  0  0  0
  188.7210  177.4540  139.0740 C   0  0  0  0  0  0  0  0  0  0  0  0
  189.9800  177.0340  138.4720 C   0  0  0  0  0  0  0  0  0  0  0  0
  185.0980  178.8900  141.2230 C   0  0  0  0  0  0  0  0  0  0  0  0
  186.0430  178.2530  143.4440 C   0  0  0  0  0  3  0  0  0  0  0  0
  192.1040  176.3780  138.3390 N   0  0  0  0  0  0  0  0  0  0  0  0
  183.7460  179.3430  143.2720 C   0  0  0  0  0  2  0  0  0  0  0  0
  188.4060  177.6090  144.9410 C   0  0  0  0  0  2  0  0  0  0  0  0
  187.3530  178.0000  142.7380 C   0  0  0  0  0  0  0  0  0  0  0  0
  188.4600  177.7110  143.4380 C   0  0  0  0  0  0  0  0  0  0  0  0
  189.7540  177.2960  141.3130 C   0  0  0  0  0  0  0  0  0  0  0  0
  191.6130  176.4840  136.9690 C   0  0  0  0  0  2  0  0  0  0  0  0
  182.9020  179.8480  140.8180 O   0  0  0  0  0  0  0  0  0  0  0  0
  184.9690  178.8400  142.5680 C   0  0  0  0  0  0  0  0  0  0  0  0
  190.2480  176.8780  137.1190 O   0  0  0  0  0  0  0  0  0  0  0  0
  184.0740  179.3550  140.3760 O   0  0  0  0  0  0  0  0  0  0  0  0
  182.4740  178.6050  142.8410 C   0  0  1  0  0  3  0  0  0  0  0  0
  190.9400  177.3350  143.5270 C   0  0  0  0  0  2  0  0  0  0  0  0
  189.6940  177.3990  142.7540 N   0  0  0  0  0  0  0  0  0  0  0  0
  191.0780  176.8670  140.6820 C   0  0  0  0  0  2  0  0  0  0  0  0
  186.3380  178.4290  140.5760 C   0  0  0  0  0  3  0  0  0  0  0  0
  187.7300  177.6910  138.3340 O   0  0  0  0  0  0  0  0  0  0  0  0
  193.5030  176.3080  138.7180 C   0  0  0  0  0  1  0  0  0  0  0  0
  188.6540  177.5790  140.5630 C   0  0  0  0  0  0  0  0  0  0  0  0
  191.0350  176.7600  139.1880 C   0  0  0  0  0  0  0  0  0  0  0  0
  181.3330  179.1130  143.5880 N   0  0  0  0  0  2  0  0  0  0  0  0
  180.0420  178.5040  143.5320 C   0  0  0  0  0  0  0  0  0  0  0  0
  179.8350  177.5000  142.8010 O   0  0  0  0  0  0  0  0  0  0  0  0
  178.9310  179.0650  144.3440 C   0  0  0  0  0  1  0  0  0  0  0  0
  1 20  1  0  0  0  0
  2 24  1  1  0  0  0
  2 12  1  0  0  0  0
  4  3  1  0  0  0  0
  5 27  1  0  0  0  0
  6  5  1  0  0  0  0
  6 28  2  0  0  0  0
  7 17  1  0  0  0  0
  9 26  1  0  0  0  0
  9 28  1  0  0  0  0
 11  3  1  0  0  0  0
 12 13  2  0  0  0  0
 12  8  1  0  0  0  0
 13 11  1  0  0  0  0
 14 22  1  0  0  0  0
 15 18  1  0  0  0  0
 15  9  1  0  0  0  0
 16  1  1  0  0  0  0
 17 10  1  0  0  0  0
 17  8  2  0  0  0  0
 18  6  1  0  0  0  0
 19 16  1  0  0  0  0
 19  7  1  0  0  0  0
 20 10  1  0  0  0  0
 20 29  1  1  0  0  0
 21  4  1  0  0  0  0
 22 13  1  0  0  0  0
 22 21  1  0  0  0  0
 23 14  1  0  0  0  0
 24  7  2  0  0  0  0
 25  5  2  0  0  0  0
 27  2  1  0  0  0  0
 27 14  2  0  0  0  0
 28 23  1  0  0  0  0
 30 29  1  0  0  0  0
 30 32  1  0  0  0  0
 31 30  2  0  0  0  0
M  END
>  <MODEL>
4

>  <REMARK>
 VINA RESULT:      -8.8      3.333      8.368
  Name = 
  1 active torsions:
  status: ('A' for Active; 'I' for Inactive)
    1  A    between atoms: C_20  and  N_29
                            x       y       z     vdW  Elec       q    Type
                         _______ _______ _______ _____ _____    ______ ____

>  <TORSDO>
F 1

$$$$
=
 OpenBabel11122410433D

 32 37  0  0  1  0  0  0  0  0999 V2000
  193.0860  176.0280  134.9340 C   0  0  0  0  0  2  0  0  0  0  0  0
  189.8000  177.1090  138.8930 C   0  0  1  0  0  3  0  0  0  0  0  0
  191.6440  177.4770  143.4350 C   0  0  0  0  0  2  0  0  0  0  0  0
  190.6010  178.4660  143.6670 N   0  0  0  0  0  2  0  0  0  0  0  0
  187.3080  177.7890  138.5180 C   0  0  0  0  0  0  0  0  0  0  0  0
  186.0740  178.3000  139.1000 C   0  0  0  0  0  0  0  0  0  0  0  0
  191.1690  176.0800  137.1120 C   0  0  0  0  0  0  0  0  0  0  0  0
  192.3390  176.7350  139.2180 C   0  0  0  0  0  3  0  0  0  0  0  0
  184.6750  179.0950  140.6400 N   0  0  0  0  0  0  0  0  0  0  0  0
  193.5840  175.5020  137.3690 C   0  0  0  0  0  2  0  0  0  0  0  0
  192.0560  177.5030  141.9700 C   0  0  0  0  0  2  0  0  0  0  0  0
  190.9820  177.0860  139.7810 C   0  0  0  0  0  0  0  0  0  0  0  0
  190.8480  177.4330  141.0700 C   0  0  0  0  0  0  0  0  0  0  0  0
  188.4080  177.9710  140.7220 C   0  0  0  0  0  0  0  0  0  0  0  0
  183.9120  178.9830  139.4010 C   0  0  0  0  0  2  0  0  0  0  0  0
  192.1790  174.9900  135.1890 O   0  0  0  0  0  0  0  0  0  0  0  0
  192.2980  176.0970  137.8560 C   0  0  0  0  0  0  0  0  0  0  0  0
  184.8640  178.4990  138.4510 O   0  0  0  0  0  0  0  0  0  0  0  0
  191.1280  175.5660  135.8020 O   0  0  0  0  0  0  0  0  0  0  0  0
  194.0870  176.1650  136.0820 C   0  0  1  0  0  3  0  0  0  0  0  0
  189.3840  177.9670  143.0370 C   0  0  0  0  0  2  0  0  0  0  0  0
  189.5600  177.8370  141.5860 N   0  0  0  0  0  0  0  0  0  0  0  0
  187.1120  178.4970  141.3360 C   0  0  0  0  0  2  0  0  0  0  0  0
  189.9150  176.6320  137.6490 C   0  0  0  0  0  3  0  0  0  0  0  0
  187.3410  177.5020  137.2920 O   0  0  0  0  0  0  0  0  0  0  0  0
  184.0970  179.2480  141.9620 C   0  0  0  0  0  1  0  0  0  0  0  0
  188.5000  177.6320  139.4070 C   0  0  0  0  0  0  0  0  0  0  0  0
  185.9840  178.6280  140.3590 C   0  0  0  0  0  0  0  0  0  0  0  0
  195.3550  175.5690  135.6860 N   0  0  0  0  0  2  0  0  0  0  0  0
  196.4990  176.3520  135.3410 C   0  0  0  0  0  0  0  0  0  0  0  0
  196.4430  177.6100  135.3430 O   0  0  0  0  0  0  0  0  0  0  0  0
  197.7680  175.6730  134.9700 C   0  0  0  0  0  1  0  0  0  0  0  0
  1 16  1  0  0  0  0
  1 20  1  0  0  0  0
  2 24  1  1  0  0  0
  2 27  1  0  0  0  0
  2 12  1  0  0  0  0
  3  4  1  0  0  0  0
  5  6  1  0  0  0  0
  5 27  1  0  0  0  0
  6 28  2  0  0  0  0
  7 24  2  0  0  0  0
  7 17  1  0  0  0  0
  8 12  1  0  0  0  0
  9 26  1  0  0  0  0
 10 17  1  0  0  0  0
 11  3  1  0  0  0  0
 12 13  2  0  0  0  0
 13 22  1  0  0  0  0
 13 11  1  0  0  0  0
 14 23  1  0  0  0  0
 14 22  1  0  0  0  0
 15  9  1  0  0  0  0
 16 19  1  0  0  0  0
 17  8  2  0  0  0  0
 18  6  1  0  0  0  0
 18 15  1  0  0  0  0
 19  7  1  0  0  0  0
 20 29  1  6  0  0  0
 20 10  1  0  0  0  0
 21  4  1  0  0  0  0
 22 21  1  0  0  0  0
 25  5  2  0  0  0  0
 27 14  2  0  0  0  0
 28  9  1  0  0  0  0
 28 23  1  0  0  0  0
 30 31  2  0  0  0  0
 30 29  1  0  0  0  0
 32 30  1  0  0  0  0
M  END
>  <MODEL>
5

>  <REMARK>
 VINA RESULT:      -8.3      5.777      8.423
  Name = 
  1 active torsions:
  status: ('A' for Active; 'I' for Inactive)
    1  A    between atoms: C_20  and  N_29
                            x       y       z     vdW  Elec       q    Type
                         _______ _______ _______ _____ _____    ______ ____

>  <TORSDO>
F 1

$$$$
=
 OpenBabel11122410433D

 32 37  0  0  1  0  0  0  0  0999 V2000
  183.0370  178.6320  140.4680 C   0  0  0  0  0  2  0  0  0  0  0  0
  188.2020  177.8260  139.9130 C   0  0  1  0  0  3  0  0  0  0  0  0
  191.0090  177.7470  143.9480 C   0  0  0  0  0  2  0  0  0  0  0  0
  191.8290  176.7800  143.2340 N   0  0  0  0  0  2  0  0  0  0  0  0
  189.2910  177.1340  137.6430 C   0  0  0  0  0  0  0  0  0  0  0  0
  190.4810  176.6670  136.9450 C   0  0  0  0  0  0  0  0  0  0  0  0
  185.9070  178.7300  140.0540 C   0  0  0  0  0  0  0  0  0  0  0  0
  187.0640  178.2090  142.2040 C   0  0  0  0  0  3  0  0  0  0  0  0
  192.5770  175.9820  136.6400 N   0  0  0  0  0  0  0  0  0  0  0  0
  184.7680  179.3130  142.1980 C   0  0  0  0  0  2  0  0  0  0  0  0
  189.5610  177.6240  143.4940 C   0  0  0  0  0  2  0  0  0  0  0  0
  188.2960  177.9020  141.3870 C   0  0  0  0  0  0  0  0  0  0  0  0
  189.4660  177.6400  141.9900 C   0  0  0  0  0  0  0  0  0  0  0  0
  190.5400  177.0910  139.7740 C   0  0  0  0  0  0  0  0  0  0  0  0
  191.9540  176.0160  135.3210 C   0  0  0  0  0  2  0  0  0  0  0  0
  183.6860  179.6880  139.8150 O   0  0  0  0  0  0  0  0  0  0  0  0
  185.9120  178.7570  141.4070 C   0  0  0  0  0  0  0  0  0  0  0  0
  190.6120  176.4320  135.5830 O   0  0  0  0  0  0  0  0  0  0  0  0
  184.8070  179.1580  139.2880 O   0  0  0  0  0  0  0  0  0  0  0  0
  183.4560  178.5650  141.9370 C   0  0  1  0  0  3  0  0  0  0  0  0
  191.9400  177.2420  141.8540 C   0  0  0  0  0  2  0  0  0  0  0  0
  190.6240  177.2760  141.2060 N   0  0  0  0  0  0  0  0  0  0  0  0
  191.7930  176.6130  139.0410 C   0  0  0  0  0  2  0  0  0  0  0  0
  187.0740  178.2200  139.3150 C   0  0  0  0  0  3  0  0  0  0  0  0
  188.2320  177.3410  136.9930 O   0  0  0  0  0  0  0  0  0  0  0  0
  194.0070  175.9180  136.8820 C   0  0  0  0  0  1  0  0  0  0  0  0
  189.3720  177.3440  139.1220 C   0  0  0  0  0  0  0  0  0  0  0  0
  191.6000  176.4230  137.5670 C   0  0  0  0  0  0  0  0  0  0  0  0
  182.3980  179.1280  142.7640 N   0  0  0  0  0  2  0  0  0  0  0  0
  181.0230  178.7740  142.6020 C   0  0  0  0  0  0  0  0  0  0  0  0
  180.6680  177.9650  141.7050 O   0  0  0  0  0  0  0  0  0  0  0  0
  180.0010  179.3720  143.5000 C   0  0  0  0  0  1  0  0  0  0  0  0
  1 20  1  0  0  0  0
  2 24  1  6  0  0  0
  2 12  1  0  0  0  0
  4  3  1  0  0  0  0
  5 27  1  0  0  0  0
  6 28  2  0  0  0  0
  6  5  1  0  0  0  0
  7 17  1  0  0  0  0
  9 26  1  0  0  0  0
  9 28  1  0  0  0  0
 11  3  1  0  0  0  0
 12 13  2  0  0  0  0
 12  8  1  0  0  0  0
 13 11  1  0  0  0  0
 14 22  1  0  0  0  0
 15 18  1  0  0  0  0
 15  9  1  0  0  0  0
 16  1  1  0  0  0  0
 17 10  1  0  0  0  0
 17  8  2  0  0  0  0
 18  6  1  0  0  0  0
 19 16  1  0  0  0  0
 19  7  1  0  0  0  0
 20 10  1  0  0  0  0
 20 29  1  1  0  0  0
 21  4  1  0  0  0  0
 22 21  1  0  0  0  0
 22 13  1  0  0  0  0
 23 14  1  0  0  0  0
 24  7  2  0  0  0  0
 25  5  2  0  0  0  0
 27 14  2  0  0  0  0
 27  2  1  0  0  0  0
 28 23  1  0  0  0  0
 30 29  1  0  0  0  0
 30 32  1  0  0  0  0
 31 30  2  0  0  0  0
M  END
>  <MODEL>
6

>  <REMARK>
 VINA RESULT:      -8.3      4.025      8.776
  Name = 
  1 active torsions:
  status: ('A' for Active; 'I' for Inactive)
    1  A    between atoms: C_20  and  N_29
                            x       y       z     vdW  Elec       q    Type
                         _______ _______ _______ _____ _____    ______ ____

>  <TORSDO>
F 1

$$$$
=
 OpenBabel11122410433D

 32 37  0  0  1  0  0  0  0  0999 V2000
  184.4320  178.0170  146.4010 C   0  0  0  0  0  2  0  0  0  0  0  0
  184.2950  178.3100  141.1540 C   0  0  1  0  0  3  0  0  0  0  0  0
  188.5510  178.5860  138.7110 C   0  0  0  0  0  2  0  0  0  0  0  0
  187.8750  177.8450  137.6550 N   0  0  0  0  0  2  0  0  0  0  0  0
  182.1030  177.9780  139.7750 C   0  0  0  0  0  0  0  0  0  0  0  0
  181.4930  177.8010  138.4640 C   0  0  0  0  0  0  0  0  0  0  0  0
  184.2710  178.7190  143.5910 C   0  0  0  0  0  0  0  0  0  0  0  0
  186.4920  178.3280  142.5190 C   0  0  0  0  0  3  0  0  0  0  0  0
  181.3450  177.5740  136.2540 N   0  0  0  0  0  0  0  0  0  0  0  0
  186.3280  178.9410  144.9870 C   0  0  0  0  0  2  0  0  0  0  0  0
  187.9700  178.1950  140.0620 C   0  0  0  0  0  2  0  0  0  0  0  0
  185.7730  178.3230  141.1910 C   0  0  0  0  0  0  0  0  0  0  0  0
  186.4640  178.2720  140.0420 C   0  0  0  0  0  0  0  0  0  0  0  0
  184.3310  178.0750  138.7110 C   0  0  0  0  0  0  0  0  0  0  0  0
  179.9790  177.5520  136.7680 C   0  0  0  0  0  2  0  0  0  0  0  0
  183.8760  179.2170  145.9370 O   0  0  0  0  0  0  0  0  0  0  0  0
  185.6190  178.6730  143.6950 C   0  0  0  0  0  0  0  0  0  0  0  0
  180.1400  177.6720  138.1830 O   0  0  0  0  0  0  0  0  0  0  0  0
  183.4290  178.9550  144.6940 O   0  0  0  0  0  0  0  0  0  0  0  0
  185.9280  177.9570  146.0920 C   0  0  1  0  0  3  0  0  0  0  0  0
  186.5280  178.3950  137.5370 C   0  0  0  0  0  2  0  0  0  0  0  0
  185.7700  178.1950  138.7770 N   0  0  0  0  0  0  0  0  0  0  0  0
  183.6910  177.9010  137.3340 C   0  0  0  0  0  2  0  0  0  0  0  0
  183.6170  178.4970  142.2910 C   0  0  0  0  0  3  0  0  0  0  0  0
  181.3720  177.9990  140.8000 O   0  0  0  0  0  0  0  0  0  0  0  0
  181.7070  177.7890  134.8650 C   0  0  0  0  0  1  0  0  0  0  0  0
  183.5900  178.1190  139.8530 C   0  0  0  0  0  0  0  0  0  0  0  0
  182.2000  177.7560  137.3690 C   0  0  0  0  0  0  0  0  0  0  0  0
  186.6810  178.2470  147.3040 N   0  0  0  0  0  2  0  0  0  0  0  0
  188.0090  177.7690  147.5190 C   0  0  0  0  0  0  0  0  0  0  0  0
  188.5800  177.0450  146.6600 O   0  0  0  0  0  0  0  0  0  0  0  0
  188.7250  178.1270  148.7710 C   0  0  0  0  0  1  0  0  0  0  0  0
  2 12  1  0  0  0  0
  2 24  1  6  0  0  0
  3 11  1  0  0  0  0
  4  3  1  0  0  0  0
  5 27  1  0  0  0  0
  5 25  2  0  0  0  0
  6  5  1  0  0  0  0
  7 17  1  0  0  0  0
  7 19  1  0  0  0  0
  8 17  2  0  0  0  0
  9 15  1  0  0  0  0
  9 28  1  0  0  0  0
 10 20  1  0  0  0  0
 12  8  1  0  0  0  0
 13 11  1  0  0  0  0
 13 12  2  0  0  0  0
 14 22  1  0  0  0  0
 14 27  2  0  0  0  0
 15 18  1  0  0  0  0
 16  1  1  0  0  0  0
 17 10  1  0  0  0  0
 18  6  1  0  0  0  0
 19 16  1  0  0  0  0
 20  1  1  0  0  0  0
 20 29  1  1  0  0  0
 21  4  1  0  0  0  0
 21 22  1  0  0  0  0
 22 13  1  0  0  0  0
 23 28  1  0  0  0  0
 23 14  1  0  0  0  0
 24  7  2  0  0  0  0
 26  9  1  0  0  0  0
 27  2  1  0  0  0  0
 28  6  2  0  0  0  0
 29 30  1  0  0  0  0
 30 32  1  0  0  0  0
 31 30  2  0  0  0  0
M  END
>  <MODEL>
7

>  <REMARK>
 VINA RESULT:      -8.3      2.328      3.637
  Name = 
  1 active torsions:
  status: ('A' for Active; 'I' for Inactive)
    1  A    between atoms: C_20  and  N_29
                            x       y       z     vdW  Elec       q    Type
                         _______ _______ _______ _____ _____    ______ ____

>  <TORSDO>
F 1

$$$$
=
 OpenBabel11122410433D

 32 37  0  0  1  0  0  0  0  0999 V2000
  193.5520  175.8300  138.9380 C   0  0  0  0  0  2  0  0  0  0  0  0
  189.3680  177.5670  141.6050 C   0  0  0  0  0  0  0  0  0  0  0  0
  185.3490  178.8510  139.0830 C   0  0  0  0  0  2  0  0  0  0  0  0
  184.5990  178.3850  140.2410 N   0  0  0  0  0  2  0  0  0  0  0  0
  189.2060  177.4620  144.2090 C   0  0  0  0  0  0  0  0  0  0  0  0
  188.3710  177.6110  145.3930 C   0  0  0  0  0  0  0  0  0  0  0  0
  191.5070  177.2760  140.4040 C   0  0  0  0  0  0  0  0  0  0  0  0
  189.4280  177.3770  139.0260 C   0  0  0  0  0  2  0  0  0  0  0  0
  186.5540  178.0000  146.6210 N   0  0  0  0  0  0  0  0  0  0  0  0
  191.7180  177.2600  137.9160 C   0  0  0  0  0  2  0  0  0  0  0  0
  186.6390  178.0530  138.9550 C   0  0  0  0  0  2  0  0  0  0  0  0
  188.6800  177.6870  140.3010 C   0  0  0  0  0  0  0  0  0  0  0  0
  187.3800  178.0140  140.2670 C   0  0  0  0  0  0  0  0  0  0  0  0
  187.2660  178.0280  142.7870 C   0  0  0  0  0  0  0  0  0  0  0  0
  187.6390  177.7270  147.5570 C   0  0  0  0  0  2  0  0  0  0  0  0
  193.7780  177.0650  139.5630 O   0  0  0  0  0  0  0  0  0  0  0  0
  190.9220  177.3090  139.1850 C   0  0  0  0  0  0  0  0  0  0  0  0
  188.7630  177.4590  146.7160 O   0  0  0  0  0  0  0  0  0  0  0  0
  192.8960  177.1260  140.5790 O   0  0  0  0  0  0  0  0  0  0  0  0
  192.5490  175.9790  137.7930 C   0  0  1  0  0  3  0  0  0  0  0  0
  185.3140  178.8370  141.4300 C   0  0  0  0  0  2  0  0  0  0  0  0
  186.6520  178.2390  141.4950 N   0  0  0  0  0  0  0  0  0  0  0  0
  186.3930  178.1970  144.0300 C   0  0  0  0  0  2  0  0  0  0  0  0
  190.6910  177.3750  141.6250 C   0  0  0  0  0  3  0  0  0  0  0  0
  190.4160  177.1380  144.3410 O   0  0  0  0  0  0  0  0  0  0  0  0
  185.2910  178.6230  146.9700 C   0  0  0  0  0  1  0  0  0  0  0  0
  188.5830  177.6930  142.8680 C   0  0  0  0  0  0  0  0  0  0  0  0
  187.1090  177.9310  145.3180 C   0  0  0  0  0  0  0  0  0  0  0  0
  193.2640  175.9770  136.5250 N   0  0  0  0  0  2  0  0  0  0  0  0
  193.7270  174.7770  135.9030 C   0  0  0  0  0  0  0  0  0  0  0  0
  193.5500  173.6570  136.4530 O   0  0  0  0  0  0  0  0  0  0  0  0
  194.4280  174.8510  134.5950 C   0  0  0  0  0  1  0  0  0  0  0  0
  1 16  1  0  0  0  0
  2 24  2  0  0  0  0
  2 27  1  0  0  0  0
  3  4  1  0  0  0  0
  4 21  1  0  0  0  0
  5 25  2  0  0  0  0
  5  6  1  0  0  0  0
  6 18  1  0  0  0  0
  7 19  1  0  0  0  0
  7 24  1  0  0  0  0
  8 17  1  0  0  0  0
  8 12  1  0  0  0  0
  9 26  1  0  0  0  0
  9 15  1  0  0  0  0
 10 17  1  0  0  0  0
 11  3  1  0  0  0  0
 11 13  1  0  0  0  0
 12  2  1  0  0  0  0
 13 12  2  0  0  0  0
 13 22  1  0  0  0  0
 14 27  2  0  0  0  0
 14 23  1  0  0  0  0
 16 19  1  0  0  0  0
 17  7  2  0  0  0  0
 18 15  1  0  0  0  0
 20 29  1  6  0  0  0
 20 10  1  0  0  0  0
 20  1  1  0  0  0  0
 21 22  1  0  0  0  0
 22 14  1  0  0  0  0
 23 28  1  0  0  0  0
 27  5  1  0  0  0  0
 28  6  2  0  0  0  0
 28  9  1  0  0  0  0
 30 31  2  0  0  0  0
 30 29  1  0  0  0  0
 32 30  1  0  0  0  0
M  END
>  <MODEL>
8

>  <REMARK>
 VINA RESULT:      -8.1      3.989      7.518
  Name = 
  1 active torsions:
  status: ('A' for Active; 'I' for Inactive)
    1  A    between atoms: C_20  and  N_29
                            x       y       z     vdW  Elec       q    Type
                         _______ _______ _______ _____ _____    ______ ____

>  <TORSDO>
F 1

$$$$
=
 OpenBabel11122410433D

 32 37  0  0  1  0  0  0  0  0999 V2000
  180.7260  179.9410  140.6030 C   0  0  0  0  0  2  0  0  0  0  0  0
  185.6880  178.2960  141.1600 C   0  0  0  0  0  0  0  0  0  0  0  0
  188.4310  177.7130  137.1230 C   0  0  0  0  0  2  0  0  0  0  0  0
  189.5580  178.1040  137.9580 N   0  0  0  0  0  2  0  0  0  0  0  0
  186.8610  178.0990  143.4850 C   0  0  0  0  0  0  0  0  0  0  0  0
  188.1000  177.8860  144.2190 C   0  0  0  0  0  0  0  0  0  0  0  0
  183.2380  178.5280  140.9350 C   0  0  0  0  0  0  0  0  0  0  0  0
  184.6070  178.7910  138.8640 C   0  0  0  0  0  2  0  0  0  0  0  0
  190.2680  177.5240  144.5790 N   0  0  0  0  0  0  0  0  0  0  0  0
  182.0620  178.8260  138.7530 C   0  0  0  0  0  2  0  0  0  0  0  0
  187.1650  178.3950  137.6230 C   0  0  0  0  0  2  0  0  0  0  0  0
  185.8090  178.4010  139.6910 C   0  0  0  0  0  0  0  0  0  0  0  0
  187.0020  178.2040  139.1090 C   0  0  0  0  0  0  0  0  0  0  0  0
  188.1020  177.8950  141.3580 C   0  0  0  0  0  0  0  0  0  0  0  0
  189.6310  177.5780  145.8910 C   0  0  0  0  0  2  0  0  0  0  0  0
  180.8140  178.6240  141.0750 O   0  0  0  0  0  0  0  0  0  0  0  0
  183.2950  178.6980  139.5940 C   0  0  0  0  0  0  0  0  0  0  0  0
  188.2570  177.8390  145.5980 O   0  0  0  0  0  0  0  0  0  0  0  0
  182.0270  178.5230  141.6510 O   0  0  0  0  0  0  0  0  0  0  0  0
  181.2000  180.0280  139.1520 C   0  0  1  0  0  3  0  0  0  0  0  0
  189.3900  177.4460  139.2490 C   0  0  0  0  0  2  0  0  0  0  0  0
  188.1630  177.9020  139.9140 N   0  0  0  0  0  0  0  0  0  0  0  0
  189.4010  177.6600  142.1280 C   0  0  0  0  0  2  0  0  0  0  0  0
  184.4740  178.3580  141.7170 C   0  0  0  0  0  3  0  0  0  0  0  0
  185.7900  178.2890  144.1190 O   0  0  0  0  0  0  0  0  0  0  0  0
  191.5900  176.9860  144.3180 C   0  0  0  0  0  1  0  0  0  0  0  0
  186.9120  178.0920  141.9900 C   0  0  0  0  0  0  0  0  0  0  0  0
  189.2420  177.6990  143.6170 C   0  0  0  0  0  0  0  0  0  0  0  0
  180.0430  180.1170  138.2730 N   0  0  0  0  0  2  0  0  0  0  0  0
  180.1590  180.3430  136.8670 C   0  0  0  0  0  0  0  0  0  0  0  0
  181.2880  180.5000  136.3310 O   0  0  0  0  0  0  0  0  0  0  0  0
  178.9330  180.3960  136.0290 C   0  0  0  0  0  1  0  0  0  0  0  0
  1 16  1  0  0  0  0
  2 24  2  0  0  0  0
  2 27  1  0  0  0  0
  3 11  1  0  0  0  0
  3  4  1  0  0  0  0
  4 21  1  0  0  0  0
  5 25  2  0  0  0  0
  5  6  1  0  0  0  0
  6 18  1  0  0  0  0
  7 19  1  0  0  0  0
  7 24  1  0  0  0  0
  8 17  1  0  0  0  0
  8 12  1  0  0  0  0
  9 15  1  0  0  0  0
 10 20  1  0  0  0  0
 10 17  1  0  0  0  0
 11 13  1  0  0  0  0
 12  2  1  0  0  0  0
 13 12  2  0  0  0  0
 13 22  1  0  0  0  0
 14 27  2  0  0  0  0
 14 23  1  0  0  0  0
 16 19  1  0  0  0  0
 17  7  2  0  0  0  0
 18 15  1  0  0  0  0
 20 29  1  6  0  0  0
 20  1  1  0  0  0  0
 21 22  1  0  0  0  0
 22 14  1  0  0  0  0
 23 28  1  0  0  0  0
 26  9  1  0  0  0  0
 27  5  1  0  0  0  0
 28  6  2  0  0  0  0
 28  9  1  0  0  0  0
 30 29  1  0  0  0  0
 31 30  2  0  0  0  0
 32 30  1  0  0  0  0
M  END
>  <MODEL>
9

>  <REMARK>
 VINA RESULT:      -7.6      2.210      8.695
  Name = 
  1 active torsions:
  status: ('A' for Active; 'I' for Inactive)
    1  A    between atoms: C_20  and  N_29
                            x       y       z     vdW  Elec       q    Type
                         _______ _______ _______ _____ _____    ______ ____

>  <TORSDO>
F 1

$$$$
