=
 OpenBabel11122411463D

 37 41  0  0  1  0  0  0  0  0999 V2000
  186.5460  177.4370  144.6980 C   0  0  1  0  0  3  0  0  0  0  0  0
  185.1410  177.9660  141.3060 O   0  0  0  0  0  0  0  0  0  0  0  0
  188.8620  177.1950  145.7300 C   0  0  2  0  0  3  0  0  0  0  0  0
  186.6230  177.8920  143.2890 C   0  0  2  0  0  3  0  0  0  0  0  0
  187.7930  176.5860  144.8100 C   0  0  2  0  0  3  0  0  0  0  0  0
  185.1940  177.8890  142.7150 C   0  0  1  0  0  3  0  0  0  0  0  0
  188.2580  177.6190  147.0760 C   0  0  0  0  0  2  0  0  0  0  0  0
  188.3170  176.3470  143.5230 O   0  0  0  0  0  0  0  0  0  0  0  0
  185.1770  179.1440  145.6410 C   0  0  0  0  0  2  0  0  0  0  0  0
  186.8180  178.1310  146.9550 C   0  0  0  0  0  2  0  0  0  0  0  0
  186.9160  179.4860  141.0710 O   0  0  0  0  0  0  0  0  0  0  0  0
  185.5430  179.2490  140.8660 C   0  0  0  0  0  2  0  0  0  0  0  0
  186.5340  178.5990  145.6000 N   0  0  1  0  0  0  0  0  0  0  0  0
  187.5040  176.9510  142.5930 N   0  0  2  0  0  0  0  0  0  0  0  0
  184.2870  178.8570  143.3670 N   0  0  0  0  0  0  0  0  0  0  0  0
  187.6140  178.3890  140.5520 C   0  0  0  0  0  2  0  0  0  0  0  0
  188.3930  177.6860  141.6690 C   0  0  2  0  0  3  0  0  0  0  0  0
  184.8120  179.8360  144.3270 C   0  0  0  0  0  2  0  0  0  0  0  0
  181.9930  178.6820  144.2850 C   0  0  0  0  0  3  0  0  0  0  0  0
  182.8610  178.7480  143.1800 C   0  0  0  0  0  0  0  0  0  0  0  0
  182.3090  178.7060  141.8880 C   0  0  0  0  0  3  0  0  0  0  0  0
  180.4100  178.5610  140.4530 F   0  0  0  0  0  0  0  0  0  0  0  0
  180.0790  178.5370  142.8130 C   0  0  0  0  0  3  0  0  0  0  0  0
  180.9270  178.6000  141.7050 C   0  0  0  0  0  0  0  0  0  0  0  0
  180.6120  178.5770  144.1030 C   0  0  0  0  0  3  0  0  0  0  0  0
  189.3970  176.7120  141.0230 C   0  0  0  0  0  2  0  0  0  0  0  0
  190.4380  177.3500  140.2020 N   0  0  0  0  0  0  0  0  0  0  0  0
  192.8640  177.4130  140.0090 C   0  0  0  0  0  1  0  0  0  0  0  0
  191.6800  177.4680  140.9550 C   0  0  0  0  0  2  0  0  0  0  0  0
  190.7010  176.5570  139.0080 C   0  0  0  0  0  2  0  0  0  0  0  0
  189.8930  177.0910  137.8380 C   0  0  0  0  0  2  0  0  0  0  0  0
  189.6880  178.4500  137.9870 F   0  0  0  0  0  0  0  0  0  0  0  0
  189.4700  178.3040  145.1140 O   0  0  0  0  0  0  0  0  0  0  0  0
  190.8260  177.9920  144.8860 C   0  0  0  0  0  0  0  0  0  0  0  0
  190.9440  176.8830  144.0610 F   0  0  0  0  0  0  0  0  0  0  0  0
  191.4940  179.0680  144.3220 F   0  0  0  0  0  0  0  0  0  0  0  0
  191.4190  177.6940  146.0970 F   0  0  0  0  0  0  0  0  0  0  0  0
  1  5  1  0  0  0  0
  1 13  1  0  0  0  0
  2  6  1  0  0  0  0
  3  7  1  0  0  0  0
  4  1  1  0  0  0  0
  5  3  1  0  0  0  0
  6  4  1  0  0  0  0
  6 15  1  0  0  0  0
  8  5  1  0  0  0  0
 10  7  1  0  0  0  0
 12 11  1  0  0  0  0
 12  2  1  0  0  0  0
 13  9  1  0  0  0  0
 13 10  1  0  0  0  0
 14  4  1  0  0  0  0
 14  8  1  0  0  0  0
 15 18  1  0  0  0  0
 16 11  1  0  0  0  0
 16 17  1  0  0  0  0
 17 14  1  0  0  0  0
 18  9  1  0  0  0  0
 20 15  1  0  0  0  0
 20 19  2  0  0  0  0
 21 20  1  0  0  0  0
 22 24  1  0  0  0  0
 23 25  2  0  0  0  0
 24 21  2  0  0  0  0
 24 23  1  0  0  0  0
 25 19  1  0  0  0  0
 26 17  1  0  0  0  0
 27 29  1  0  0  0  0
 27 26  1  0  0  0  0
 28 29  1  0  0  0  0
 30 27  1  0  0  0  0
 31 32  1  0  0  0  0
 31 30  1  0  0  0  0
 33  3  1  0  0  0  0
 34 33  1  0  0  0  0
 34 37  1  0  0  0  0
 35 34  1  0  0  0  0
 36 34  1  0  0  0  0
M  END
>  <MODEL>
1

>  <REMARK>
 VINA RESULT:      -8.3      0.000      0.000
  Name = 
  8 active torsions:
  status: ('A' for Active; 'I' for Inactive)
    1  A    between atoms: C_1  and  N_4
    2  A    between atoms: C_1  and  C_27
    3  A    between atoms: C_2  and  O_22
    4  A    between atoms: N_4  and  C_12
    5  A    between atoms: N_4  and  C_37
    6  A    between atoms: C_6  and  O_22
    7  A    between atoms: C_8  and  C_12
    8  A    between atoms: N_23  and  C_30
                            x       y       z     vdW  Elec       q    Type
                         _______ _______ _______ _____ _____    ______ ____

>  <TORSDO>
F 8

$$$$
=
 OpenBabel11122411463D

 37 41  0  0  1  0  0  0  0  0999 V2000
  186.4550  177.4590  144.6410 C   0  0  1  0  0  3  0  0  0  0  0  0
  185.1810  177.9500  141.1920 O   0  0  0  0  0  0  0  0  0  0  0  0
  188.7300  177.2250  145.7630 C   0  0  2  0  0  3  0  0  0  0  0  0
  186.5880  177.8970  143.2300 C   0  0  2  0  0  3  0  0  0  0  0  0
  187.6950  176.6070  144.8100 C   0  0  2  0  0  3  0  0  0  0  0  0
  185.1810  177.8900  142.6030 C   0  0  1  0  0  3  0  0  0  0  0  0
  188.0770  177.6660  147.0800 C   0  0  0  0  0  2  0  0  0  0  0  0
  188.2670  176.3520  143.5470 O   0  0  0  0  0  0  0  0  0  0  0  0
  185.0560  179.1800  145.5110 C   0  0  0  0  0  2  0  0  0  0  0  0
  186.6430  178.1800  146.8980 C   0  0  0  0  0  2  0  0  0  0  0  0
  186.9680  179.4640  141.0070 O   0  0  0  0  0  0  0  0  0  0  0  0
  185.6030  179.2270  140.7530 C   0  0  0  0  0  2  0  0  0  0  0  0
  186.4120  178.6320  145.5280 N   0  0  1  0  0  0  0  0  0  0  0  0
  187.4910  176.9460  142.5800 N   0  0  2  0  0  0  0  0  0  0  0  0
  184.2520  178.8680  143.2080 N   0  0  0  0  0  0  0  0  0  0  0  0
  187.6830  178.3590  140.5270 C   0  0  0  0  0  2  0  0  0  0  0  0
  188.4160  177.6690  141.6810 C   0  0  2  0  0  3  0  0  0  0  0  0
  184.7420  179.8570  144.1760 C   0  0  0  0  0  2  0  0  0  0  0  0
  182.3310  178.6460  141.6610 C   0  0  0  0  0  3  0  0  0  0  0  0
  182.8330  178.7590  142.9690 C   0  0  0  0  0  0  0  0  0  0  0  0
  181.9240  178.7630  144.0420 C   0  0  0  0  0  3  0  0  0  0  0  0
  179.6860  178.6630  144.8560 F   0  0  0  0  0  0  0  0  0  0  0  0
  180.0660  178.5450  142.5070 C   0  0  0  0  0  3  0  0  0  0  0  0
  180.5490  178.6580  143.8120 C   0  0  0  0  0  0  0  0  0  0  0  0
  180.9560  178.5410  141.4310 C   0  0  0  0  0  3  0  0  0  0  0  0
  189.4420  176.6840  141.0850 C   0  0  0  0  0  2  0  0  0  0  0  0
  190.4680  177.3020  140.2300 N   0  0  0  0  0  0  0  0  0  0  0  0
  192.8930  177.3920  140.0400 C   0  0  0  0  0  1  0  0  0  0  0  0
  191.7040  177.4970  140.9760 C   0  0  0  0  0  2  0  0  0  0  0  0
  190.7540  176.4490  139.0830 C   0  0  0  0  0  2  0  0  0  0  0  0
  189.8280  176.7950  137.9310 C   0  0  0  0  0  2  0  0  0  0  0  0
  189.7950  178.1640  137.7450 F   0  0  0  0  0  0  0  0  0  0  0  0
  189.3640  178.3260  145.1570 O   0  0  0  0  0  0  0  0  0  0  0  0
  190.7280  178.0110  144.9910 C   0  0  0  0  0  0  0  0  0  0  0  0
  191.4240  179.0920  144.4720 F   0  0  0  0  0  0  0  0  0  0  0  0
  191.2970  177.6230  146.1940 F   0  0  0  0  0  0  0  0  0  0  0  0
  190.8310  176.9610  144.1000 F   0  0  0  0  0  0  0  0  0  0  0  0
  1  5  1  0  0  0  0
  1 13  1  0  0  0  0
  2  6  1  0  0  0  0
  3  7  1  0  0  0  0
  4  1  1  0  0  0  0
  5  3  1  0  0  0  0
  6 15  1  0  0  0  0
  6  4  1  0  0  0  0
  8  5  1  0  0  0  0
  9 13  1  0  0  0  0
 10  7  1  0  0  0  0
 12 11  1  0  0  0  0
 12  2  1  0  0  0  0
 13 10  1  0  0  0  0
 14  4  1  0  0  0  0
 14  8  1  0  0  0  0
 15 18  1  0  0  0  0
 16 11  1  0  0  0  0
 16 17  1  0  0  0  0
 17 14  1  0  0  0  0
 18  9  1  0  0  0  0
 19 20  1  0  0  0  0
 20 15  1  0  0  0  0
 20 21  2  0  0  0  0
 23 24  2  0  0  0  0
 24 21  1  0  0  0  0
 24 22  1  0  0  0  0
 25 19  2  0  0  0  0
 25 23  1  0  0  0  0
 26 17  1  0  0  0  0
 27 29  1  0  0  0  0
 27 26  1  0  0  0  0
 28 29  1  0  0  0  0
 30 27  1  0  0  0  0
 31 30  1  0  0  0  0
 32 31  1  0  0  0  0
 33  3  1  0  0  0  0
 34 33  1  0  0  0  0
 34 36  1  0  0  0  0
 35 34  1  0  0  0  0
 37 34  1  0  0  0  0
M  END
>  <MODEL>
2

>  <REMARK>
 VINA RESULT:      -8.2      0.754      1.274
  Name = 
  8 active torsions:
  status: ('A' for Active; 'I' for Inactive)
    1  A    between atoms: C_1  and  N_4
    2  A    between atoms: C_1  and  C_27
    3  A    between atoms: C_2  and  O_22
    4  A    between atoms: N_4  and  C_12
    5  A    between atoms: N_4  and  C_37
    6  A    between atoms: C_6  and  O_22
    7  A    between atoms: C_8  and  C_12
    8  A    between atoms: N_23  and  C_30
                            x       y       z     vdW  Elec       q    Type
                         _______ _______ _______ _____ _____    ______ ____

>  <TORSDO>
F 8

$$$$
=
 OpenBabel11122411463D

 37 41  0  0  1  0  0  0  0  0999 V2000
  187.2930  177.3090  143.1380 C   0  0  1  0  0  3  0  0  0  0  0  0
  190.9210  177.1860  142.3700 O   0  0  0  0  0  0  0  0  0  0  0  0
  185.8450  177.7240  145.1910 C   0  0  2  0  0  3  0  0  0  0  0  0
  188.7140  177.6450  143.3980 C   0  0  2  0  0  3  0  0  0  0  0  0
  186.8510  176.7970  144.4920 C   0  0  2  0  0  3  0  0  0  0  0  0
  189.5270  177.2480  142.1510 C   0  0  1  0  0  3  0  0  0  0  0  0
  184.6950  178.1050  144.2480 C   0  0  0  0  0  2  0  0  0  0  0  0
  187.9820  176.5810  145.3060 O   0  0  0  0  0  0  0  0  0  0  0  0
  186.8410  178.7110  141.2650 C   0  0  0  0  0  2  0  0  0  0  0  0
  185.1360  178.2420  142.7860 C   0  0  0  0  0  2  0  0  0  0  0  0
  191.0360  179.0640  143.7770 O   0  0  0  0  0  0  0  0  0  0  0  0
  191.4480  178.4850  142.5600 C   0  0  0  0  0  2  0  0  0  0  0  0
  186.5690  178.5080  142.6880 N   0  0  1  0  0  0  0  0  0  0  0  0
  189.1130  176.8880  144.5860 N   0  0  2  0  0  0  0  0  0  0  0  0
  189.1790  178.0210  140.9410 N   0  0  0  0  0  0  0  0  0  0  0  0
  191.2740  178.1260  144.7900 C   0  0  0  0  0  2  0  0  0  0  0  0
  189.9540  177.7320  145.4600 C   0  0  2  0  0  3  0  0  0  0  0  0
  188.2790  179.1770  141.0310 C   0  0  0  0  0  2  0  0  0  0  0  0
  189.1870  178.2160  138.4710 C   0  0  0  0  0  3  0  0  0  0  0  0
  189.5990  177.5550  139.6410 C   0  0  0  0  0  0  0  0  0  0  0  0
  190.4320  176.4280  139.5200 C   0  0  0  0  0  3  0  0  0  0  0  0
  191.6440  174.8890  138.1610 F   0  0  0  0  0  0  0  0  0  0  0  0
  190.4220  176.6440  137.1090 C   0  0  0  0  0  3  0  0  0  0  0  0
  190.8410  175.9760  138.2620 C   0  0  0  0  0  0  0  0  0  0  0  0
  189.5940  177.7640  137.2140 C   0  0  0  0  0  3  0  0  0  0  0  0
  190.2770  176.9760  146.7640 C   0  0  0  0  0  2  0  0  0  0  0  0
  191.7000  176.6500  146.9540 N   0  0  0  0  0  0  0  0  0  0  0  0
  193.0520  175.8860  148.8270 C   0  0  0  0  0  1  0  0  0  0  0  0
  192.1190  176.9650  148.3130 C   0  0  0  0  0  2  0  0  0  0  0  0
  191.9310  175.2300  146.7200 C   0  0  0  0  0  2  0  0  0  0  0  0
  192.1690  174.9760  145.2420 C   0  0  0  0  0  2  0  0  0  0  0  0
  192.7160  173.7190  145.0600 F   0  0  0  0  0  0  0  0  0  0  0  0
  186.4840  178.8890  145.6530 O   0  0  0  0  0  0  0  0  0  0  0  0
  186.2650  178.9900  147.0420 C   0  0  0  0  0  0  0  0  0  0  0  0
  187.3070  178.4090  147.7490 F   0  0  0  0  0  0  0  0  0  0  0  0
  186.1220  180.3150  147.4260 F   0  0  0  0  0  0  0  0  0  0  0  0
  185.1010  178.3160  147.3540 F   0  0  0  0  0  0  0  0  0  0  0  0
  1  4  1  0  0  0  0
  1  5  1  0  0  0  0
  2 12  1  0  0  0  0
  3 33  1  0  0  0  0
  4 14  1  0  0  0  0
  5  3  1  0  0  0  0
  5  8  1  0  0  0  0
  6  2  1  0  0  0  0
  6  4  1  0  0  0  0
  7  3  1  0  0  0  0
  9 13  1  0  0  0  0
 10  7  1  0  0  0  0
 11 16  1  0  0  0  0
 12 11  1  0  0  0  0
 13 10  1  0  0  0  0
 13  1  1  0  0  0  0
 14  8  1  0  0  0  0
 14 17  1  0  0  0  0
 15 18  1  0  0  0  0
 15  6  1  0  0  0  0
 16 17  1  0  0  0  0
 17 26  1  0  0  0  0
 18  9  1  0  0  0  0
 19 20  1  0  0  0  0
 20 15  1  0  0  0  0
 21 20  2  0  0  0  0
 22 24  1  0  0  0  0
 23 25  1  0  0  0  0
 23 24  2  0  0  0  0
 24 21  1  0  0  0  0
 25 19  2  0  0  0  0
 26 27  1  0  0  0  0
 27 29  1  0  0  0  0
 29 28  1  0  0  0  0
 30 27  1  0  0  0  0
 31 30  1  0  0  0  0
 32 31  1  0  0  0  0
 33 34  1  0  0  0  0
 34 37  1  0  0  0  0
 34 36  1  0  0  0  0
 34 35  1  0  0  0  0
M  END
>  <MODEL>
3

>  <REMARK>
 VINA RESULT:      -7.7      3.011      6.672
  Name = 
  8 active torsions:
  status: ('A' for Active; 'I' for Inactive)
    1  A    between atoms: C_1  and  N_4
    2  A    between atoms: C_1  and  C_27
    3  A    between atoms: C_2  and  O_22
    4  A    between atoms: N_4  and  C_12
    5  A    between atoms: N_4  and  C_37
    6  A    between atoms: C_6  and  O_22
    7  A    between atoms: C_8  and  C_12
    8  A    between atoms: N_23  and  C_30
                            x       y       z     vdW  Elec       q    Type
                         _______ _______ _______ _____ _____    ______ ____

>  <TORSDO>
F 8

$$$$
=
 OpenBabel11122411463D

 37 41  0  0  1  0  0  0  0  0999 V2000
  185.0370  177.5240  137.1220 C   0  0  1  0  0  3  0  0  0  0  0  0
  185.0730  179.7830  140.0650 O   0  0  0  0  0  0  0  0  0  0  0  0
  186.6220  175.8370  136.0590 C   0  0  2  0  0  3  0  0  0  0  0  0
  185.5120  177.9450  138.4630 C   0  0  2  0  0  3  0  0  0  0  0  0
  186.3460  177.3120  136.3920 C   0  0  2  0  0  3  0  0  0  0  0  0
  184.5640  179.0480  138.9710 C   0  0  1  0  0  3  0  0  0  0  0  0
  185.4060  175.1830  135.3880 C   0  0  0  0  0  2  0  0  0  0  0  0
  187.4020  177.8610  137.1480 O   0  0  0  0  0  0  0  0  0  0  0  0
  182.8690  176.6940  137.6590 C   0  0  0  0  0  2  0  0  0  0  0  0
  184.0690  175.7240  135.9100 C   0  0  0  0  0  2  0  0  0  0  0  0
  186.0670  177.9540  141.1530 O   0  0  0  0  0  0  0  0  0  0  0  0
  185.1030  178.9780  141.2280 C   0  0  0  0  0  2  0  0  0  0  0  0
  184.2160  176.3080  137.2400 N   0  0  1  0  0  0  0  0  0  0  0  0
  186.8830  178.4260  138.2890 N   0  0  2  0  0  0  0  0  0  0  0  0
  183.1780  178.5880  139.1960 N   0  0  0  0  0  0  0  0  0  0  0  0
  187.2750  178.5420  140.7550 C   0  0  0  0  0  2  0  0  0  0  0  0
  187.7240  177.9580  139.4120 C   0  0  2  0  0  3  0  0  0  0  0  0
  182.8470  177.1600  139.1150 C   0  0  0  0  0  2  0  0  0  0  0  0
  181.1360  179.3920  140.3440 C   0  0  0  0  0  3  0  0  0  0  0  0
  182.1140  179.5500  139.3470 C   0  0  0  0  0  0  0  0  0  0  0  0
  182.0340  180.6680  138.4970 C   0  0  0  0  0  3  0  0  0  0  0  0
  180.9410  182.6740  137.8160 F   0  0  0  0  0  0  0  0  0  0  0  0
  180.0410  181.4300  139.6380 C   0  0  0  0  0  3  0  0  0  0  0  0
  181.0040  181.6020  138.6420 C   0  0  0  0  0  0  0  0  0  0  0  0
  180.1050  180.3250  140.4890 C   0  0  0  0  0  3  0  0  0  0  0  0
  189.1910  178.3660  139.1710 C   0  0  0  0  0  2  0  0  0  0  0  0
  190.1510  177.2500  139.1680 N   0  0  0  0  0  0  0  0  0  0  0  0
  192.0400  176.3230  137.9440 C   0  0  0  0  0  1  0  0  0  0  0  0
  190.7280  177.0780  137.8410 C   0  0  0  0  0  2  0  0  0  0  0  0
  191.2330  177.5080  140.1090 C   0  0  0  0  0  2  0  0  0  0  0  0
  190.7490  177.2990  141.5330 C   0  0  0  0  0  2  0  0  0  0  0  0
  190.2240  176.0270  141.6720 F   0  0  0  0  0  0  0  0  0  0  0  0
  186.9620  175.1230  137.2220 O   0  0  0  0  0  0  0  0  0  0  0  0
  187.9410  174.1670  136.8810 C   0  0  0  0  0  0  0  0  0  0  0  0
  189.1030  174.3700  137.6100 F   0  0  0  0  0  0  0  0  0  0  0  0
  187.4730  172.8800  137.0970 F   0  0  0  0  0  0  0  0  0  0  0  0
  188.2410  174.3050  135.5400 F   0  0  0  0  0  0  0  0  0  0  0  0
  1 13  1  0  0  0  0
  1  4  1  0  0  0  0
  2 12  1  0  0  0  0
  3  5  1  0  0  0  0
  3 33  1  0  0  0  0
  4  6  1  0  0  0  0
  5  1  1  0  0  0  0
  5  8  1  0  0  0  0
  6 15  1  0  0  0  0
  6  2  1  0  0  0  0
  7 10  1  0  0  0  0
  7  3  1  0  0  0  0
  8 14  1  0  0  0  0
  9 18  1  0  0  0  0
 10 13  1  0  0  0  0
 11 12  1  0  0  0  0
 13  9  1  0  0  0  0
 14  4  1  0  0  0  0
 14 17  1  0  0  0  0
 15 20  1  0  0  0  0
 16 11  1  0  0  0  0
 17 16  1  0  0  0  0
 18 15  1  0  0  0  0
 19 25  1  0  0  0  0
 20 19  2  0  0  0  0
 21 24  2  0  0  0  0
 21 20  1  0  0  0  0
 22 24  1  0  0  0  0
 23 25  2  0  0  0  0
 24 23  1  0  0  0  0
 26 17  1  0  0  0  0
 27 26  1  0  0  0  0
 27 30  1  0  0  0  0
 29 28  1  0  0  0  0
 29 27  1  0  0  0  0
 30 31  1  0  0  0  0
 31 32  1  0  0  0  0
 34 36  1  0  0  0  0
 34 33  1  0  0  0  0
 34 35  1  0  0  0  0
 37 34  1  0  0  0  0
M  END
>  <MODEL>
4

>  <REMARK>
 VINA RESULT:      -6.7      3.628      6.355
  Name = 
  8 active torsions:
  status: ('A' for Active; 'I' for Inactive)
    1  A    between atoms: C_1  and  N_4
    2  A    between atoms: C_1  and  C_27
    3  A    between atoms: C_2  and  O_22
    4  A    between atoms: N_4  and  C_12
    5  A    between atoms: N_4  and  C_37
    6  A    between atoms: C_6  and  O_22
    7  A    between atoms: C_8  and  C_12
    8  A    between atoms: N_23  and  C_30
                            x       y       z     vdW  Elec       q    Type
                         _______ _______ _______ _____ _____    ______ ____

>  <TORSDO>
F 8

$$$$
=
 OpenBabel11122411463D

 37 41  0  0  1  0  0  0  0  0999 V2000
  187.0860  177.3200  142.6310 C   0  0  1  0  0  3  0  0  0  0  0  0
  190.7240  176.7020  142.2420 O   0  0  0  0  0  0  0  0  0  0  0  0
  185.4870  177.8380  144.5450 C   0  0  2  0  0  3  0  0  0  0  0  0
  188.5020  177.4290  143.0620 C   0  0  2  0  0  3  0  0  0  0  0  0
  186.4250  176.8100  143.8940 C   0  0  2  0  0  3  0  0  0  0  0  0
  189.3860  176.9810  141.8830 C   0  0  1  0  0  3  0  0  0  0  0  0
  184.5170  178.4340  143.5150 C   0  0  0  0  0  2  0  0  0  0  0  0
  187.4140  176.3870  144.8050 O   0  0  0  0  0  0  0  0  0  0  0  0
  187.0530  178.8690  140.8210 C   0  0  0  0  0  2  0  0  0  0  0  0
  185.1370  178.5790  142.1200 C   0  0  0  0  0  2  0  0  0  0  0  0
  190.9420  178.4670  143.7770 O   0  0  0  0  0  0  0  0  0  0  0  0
  191.4040  177.8980  142.5740 C   0  0  0  0  0  2  0  0  0  0  0  0
  186.5950  178.6360  142.1900 N   0  0  1  0  0  0  0  0  0  0  0  0
  188.6510  176.5600  144.2310 N   0  0  2  0  0  0  0  0  0  0  0  0
  189.2910  177.8590  140.6980 N   0  0  0  0  0  0  0  0  0  0  0  0
  190.9290  177.4530  144.7440 C   0  0  0  0  0  2  0  0  0  0  0  0
  189.4980  177.2250  145.2430 C   0  0  2  0  0  3  0  0  0  0  0  0
  188.5590  179.1290  140.7710 C   0  0  0  0  0  2  0  0  0  0  0  0
  190.7580  176.3900  139.3450 C   0  0  0  0  0  3  0  0  0  0  0  0
  189.7870  177.4040  139.4210 C   0  0  0  0  0  0  0  0  0  0  0  0
  189.3060  177.9660  138.2250 C   0  0  0  0  0  3  0  0  0  0  0  0
  189.3110  178.0770  135.8440 F   0  0  0  0  0  0  0  0  0  0  0  0
  190.7490  176.5180  136.9300 C   0  0  0  0  0  3  0  0  0  0  0  0
  189.7840  177.5260  136.9880 C   0  0  0  0  0  0  0  0  0  0  0  0
  191.2370  175.9510  138.1080 C   0  0  0  0  0  3  0  0  0  0  0  0
  189.5620  176.3620  146.5200 C   0  0  0  0  0  2  0  0  0  0  0  0
  190.0390  177.0680  147.7200 N   0  0  0  0  0  0  0  0  0  0  0  0
  192.0680  175.7240  147.7130 C   0  0  0  0  0  1  0  0  0  0  0  0
  191.4940  177.1280  147.7310 C   0  0  0  0  0  2  0  0  0  0  0  0
  189.5230  178.4300  147.7470 C   0  0  0  0  0  2  0  0  0  0  0  0
  188.6350  178.6290  148.9630 C   0  0  0  0  0  2  0  0  0  0  0  0
  187.9310  177.4690  149.2290 F   0  0  0  0  0  0  0  0  0  0  0  0
  186.2280  178.8710  145.1490 O   0  0  0  0  0  0  0  0  0  0  0  0
  185.8170  178.9780  146.4930 C   0  0  0  0  0  0  0  0  0  0  0  0
  186.3400  180.1210  147.0790 F   0  0  0  0  0  0  0  0  0  0  0  0
  184.4340  178.9940  146.5890 F   0  0  0  0  0  0  0  0  0  0  0  0
  186.2910  177.8810  147.1870 F   0  0  0  0  0  0  0  0  0  0  0  0
  1  4  1  0  0  0  0
  1  5  1  0  0  0  0
  2 12  1  0  0  0  0
  3 33  1  0  0  0  0
  4 14  1  0  0  0  0
  5  3  1  0  0  0  0
  5  8  1  0  0  0  0
  6  2  1  0  0  0  0
  6  4  1  0  0  0  0
  7  3  1  0  0  0  0
  9 13  1  0  0  0  0
 10 13  1  0  0  0  0
 10  7  1  0  0  0  0
 11 16  1  0  0  0  0
 12 11  1  0  0  0  0
 13  1  1  0  0  0  0
 14  8  1  0  0  0  0
 14 17  1  0  0  0  0
 15 18  1  0  0  0  0
 15  6  1  0  0  0  0
 16 17  1  0  0  0  0
 17 26  1  0  0  0  0
 18  9  1  0  0  0  0
 19 20  1  0  0  0  0
 20 15  1  0  0  0  0
 21 20  2  0  0  0  0
 22 24  1  0  0  0  0
 23 24  2  0  0  0  0
 23 25  1  0  0  0  0
 24 21  1  0  0  0  0
 25 19  2  0  0  0  0
 26 27  1  0  0  0  0
 27 29  1  0  0  0  0
 27 30  1  0  0  0  0
 28 29  1  0  0  0  0
 30 31  1  0  0  0  0
 31 32  1  0  0  0  0
 33 34  1  0  0  0  0
 34 36  1  0  0  0  0
 34 35  1  0  0  0  0
 34 37  1  0  0  0  0
M  END
>  <MODEL>
5

>  <REMARK>
 VINA RESULT:      -6.6      2.904      6.947
  Name = 
  8 active torsions:
  status: ('A' for Active; 'I' for Inactive)
    1  A    between atoms: C_1  and  N_4
    2  A    between atoms: C_1  and  C_27
    3  A    between atoms: C_2  and  O_22
    4  A    between atoms: N_4  and  C_12
    5  A    between atoms: N_4  and  C_37
    6  A    between atoms: C_6  and  O_22
    7  A    between atoms: C_8  and  C_12
    8  A    between atoms: N_23  and  C_30
                            x       y       z     vdW  Elec       q    Type
                         _______ _______ _______ _____ _____    ______ ____

>  <TORSDO>
F 8

$$$$
=
 OpenBabel11122411463D

 37 41  0  0  1  0  0  0  0  0999 V2000
  186.4490  178.7800  142.7270 C   0  0  1  0  0  3  0  0  0  0  0  0
  189.8940  177.5940  143.4280 O   0  0  0  0  0  0  0  0  0  0  0  0
  184.9510  179.0220  140.6810 C   0  0  2  0  0  3  0  0  0  0  0  0
  187.6670  177.9910  142.4180 C   0  0  2  0  0  3  0  0  0  0  0  0
  186.2140  179.4980  141.4150 C   0  0  2  0  0  3  0  0  0  0  0  0
  188.5640  178.0030  143.6700 C   0  0  1  0  0  3  0  0  0  0  0  0
  183.7380  179.0020  141.6220 C   0  0  0  0  0  2  0  0  0  0  0  0
  187.3520  179.3630  140.5930 O   0  0  0  0  0  0  0  0  0  0  0  0
  185.5370  177.5030  144.5200 C   0  0  0  0  0  2  0  0  0  0  0  0
  184.1020  178.6280  143.0640 C   0  0  0  0  0  2  0  0  0  0  0  0
  189.3560  175.8860  141.9070 O   0  0  0  0  0  0  0  0  0  0  0  0
  189.9390  176.2070  143.1480 C   0  0  0  0  0  2  0  0  0  0  0  0
  185.3540  177.8780  143.1170 N   0  0  1  0  0  0  0  0  0  0  0  0
  188.3050  178.6390  141.2700 N   0  0  2  0  0  0  0  0  0  0  0  0
  187.9680  177.3210  144.8380 N   0  0  0  0  0  0  0  0  0  0  0  0
  189.9050  176.7460  140.9480 C   0  0  0  0  0  2  0  0  0  0  0  0
  188.8040  177.6140  140.3300 C   0  0  2  0  0  3  0  0  0  0  0  0
  186.7240  176.5550  144.6960 C   0  0  0  0  0  2  0  0  0  0  0  0
  187.7380  178.0770  147.1860 C   0  0  0  0  0  3  0  0  0  0  0  0
  188.5210  177.5290  146.1540 C   0  0  0  0  0  0  0  0  0  0  0  0
  189.8560  177.1880  146.4320 C   0  0  0  0  0  3  0  0  0  0  0  0
  191.6810  177.0530  147.9600 F   0  0  0  0  0  0  0  0  0  0  0  0
  189.6020  177.9320  148.7210 C   0  0  0  0  0  3  0  0  0  0  0  0
  190.3930  177.3880  147.7080 C   0  0  0  0  0  0  0  0  0  0  0  0
  188.2740  178.2780  148.4600 C   0  0  0  0  0  3  0  0  0  0  0  0
  189.3720  178.2930  139.0680 C   0  0  0  0  0  2  0  0  0  0  0  0
  188.8990  177.7280  137.7940 N   0  0  0  0  0  0  0  0  0  0  0  0
  187.5970  178.2530  135.8060 C   0  0  0  0  0  1  0  0  0  0  0  0
  188.5380  178.7920  136.8670 C   0  0  0  0  0  2  0  0  0  0  0  0
  189.9430  176.9190  137.1790 C   0  0  0  0  0  2  0  0  0  0  0  0
  189.5460  175.4540  137.1940 C   0  0  0  0  0  2  0  0  0  0  0  0
  188.2280  175.3250  137.5920 F   0  0  0  0  0  0  0  0  0  0  0  0
  185.1490  177.7400  140.1370 O   0  0  0  0  0  0  0  0  0  0  0  0
  184.7950  177.7820  138.7730 C   0  0  0  0  0  0  0  0  0  0  0  0
  184.7750  179.0880  138.3090 F   0  0  0  0  0  0  0  0  0  0  0  0
  185.6730  177.0280  138.0100 F   0  0  0  0  0  0  0  0  0  0  0  0
  183.5270  177.2530  138.6310 F   0  0  0  0  0  0  0  0  0  0  0  0
  1 13  1  0  0  0  0
  2  6  1  0  0  0  0
  3  5  1  0  0  0  0
  3  7  1  0  0  0  0
  4  1  1  0  0  0  0
  4  6  1  0  0  0  0
  5  1  1  0  0  0  0
  6 15  1  0  0  0  0
  7 10  1  0  0  0  0
  8 14  1  0  0  0  0
  8  5  1  0  0  0  0
  9 18  1  0  0  0  0
 10 13  1  0  0  0  0
 11 12  1  0  0  0  0
 12  2  1  0  0  0  0
 13  9  1  0  0  0  0
 14  4  1  0  0  0  0
 15 20  1  0  0  0  0
 16 11  1  0  0  0  0
 17 16  1  0  0  0  0
 17 14  1  0  0  0  0
 18 15  1  0  0  0  0
 19 25  1  0  0  0  0
 20 21  1  0  0  0  0
 20 19  2  0  0  0  0
 21 24  2  0  0  0  0
 24 22  1  0  0  0  0
 24 23  1  0  0  0  0
 25 23  2  0  0  0  0
 26 17  1  0  0  0  0
 27 26  1  0  0  0  0
 28 29  1  0  0  0  0
 29 27  1  0  0  0  0
 30 31  1  0  0  0  0
 30 27  1  0  0  0  0
 31 32  1  0  0  0  0
 33  3  1  0  0  0  0
 34 33  1  0  0  0  0
 35 34  1  0  0  0  0
 36 34  1  0  0  0  0
 37 34  1  0  0  0  0
M  END
>  <MODEL>
6

>  <REMARK>
 VINA RESULT:      -6.5      2.198      6.366
  Name = 
  8 active torsions:
  status: ('A' for Active; 'I' for Inactive)
    1  A    between atoms: C_1  and  N_4
    2  A    between atoms: C_1  and  C_27
    3  A    between atoms: C_2  and  O_22
    4  A    between atoms: N_4  and  C_12
    5  A    between atoms: N_4  and  C_37
    6  A    between atoms: C_6  and  O_22
    7  A    between atoms: C_8  and  C_12
    8  A    between atoms: N_23  and  C_30
                            x       y       z     vdW  Elec       q    Type
                         _______ _______ _______ _____ _____    ______ ____

>  <TORSDO>
F 8

$$$$
=
 OpenBabel11122411463D

 37 41  0  0  1  0  0  0  0  0999 V2000
  186.7390  178.6300  142.7380 C   0  0  1  0  0  3  0  0  0  0  0  0
  190.2980  177.5900  142.5870 O   0  0  0  0  0  0  0  0  0  0  0  0
  184.8460  179.0110  141.0770 C   0  0  2  0  0  3  0  0  0  0  0  0
  187.8980  177.9600  142.0970 C   0  0  2  0  0  3  0  0  0  0  0  0
  186.2140  179.4780  141.5990 C   0  0  2  0  0  3  0  0  0  0  0  0
  189.0310  177.8850  143.1380 C   0  0  1  0  0  3  0  0  0  0  0  0
  183.8530  178.8060  142.2300 C   0  0  0  0  0  2  0  0  0  0  0  0
  187.1640  179.5090  140.5580 O   0  0  0  0  0  0  0  0  0  0  0  0
  186.2620  177.1010  144.5020 C   0  0  0  0  0  2  0  0  0  0  0  0
  184.5180  178.2930  143.5120 C   0  0  0  0  0  2  0  0  0  0  0  0
  189.5260  176.0380  141.0020 O   0  0  0  0  0  0  0  0  0  0  0  0
  190.3380  176.2510  142.1330 C   0  0  0  0  0  2  0  0  0  0  0  0
  185.7830  177.6220  143.2220 N   0  0  1  0  0  0  0  0  0  0  0  0
  188.2620  178.7740  140.9360 N   0  0  2  0  0  0  0  0  0  0  0  0
  188.7130  177.0370  144.3060 N   0  0  0  0  0  0  0  0  0  0  0  0
  189.8340  177.0350  140.0690 C   0  0  0  0  0  2  0  0  0  0  0  0
  188.5970  177.8970  139.7950 C   0  0  2  0  0  3  0  0  0  0  0  0
  187.4960  176.2160  144.3190 C   0  0  0  0  0  2  0  0  0  0  0  0
  190.8380  176.6530  145.5200 C   0  0  0  0  0  3  0  0  0  0  0  0
  189.5150  177.1270  145.5020 C   0  0  0  0  0  0  0  0  0  0  0  0
  188.9870  177.6930  146.6770 C   0  0  0  0  0  3  0  0  0  0  0  0
  189.2410  178.3300  148.9600 F   0  0  0  0  0  0  0  0  0  0  0  0
  191.0760  177.3060  147.8370 C   0  0  0  0  0  3  0  0  0  0  0  0
  189.7630  177.7810  147.8370 C   0  0  0  0  0  0  0  0  0  0  0  0
  191.6130  176.7400  146.6790 C   0  0  0  0  0  3  0  0  0  0  0  0
  188.8690  178.7510  138.5400 C   0  0  0  0  0  2  0  0  0  0  0  0
  188.3830  178.1700  137.2790 N   0  0  0  0  0  0  0  0  0  0  0  0
  189.4570  177.5590  135.1820 C   0  0  0  0  0  1  0  0  0  0  0  0
  189.4070  177.3250  136.6790 C   0  0  0  0  0  2  0  0  0  0  0  0
  187.1980  177.3560  137.5170 C   0  0  0  0  0  2  0  0  0  0  0  0
  186.1410  177.6520  136.4680 C   0  0  0  0  0  2  0  0  0  0  0  0
  186.2200  176.7260  135.4430 F   0  0  0  0  0  0  0  0  0  0  0  0
  184.9780  177.8150  140.3480 O   0  0  0  0  0  0  0  0  0  0  0  0
  183.8310  177.6620  139.5430 C   0  0  0  0  0  0  0  0  0  0  0  0
  183.3730  178.8920  139.0980 F   0  0  0  0  0  0  0  0  0  0  0  0
  184.0920  176.8390  138.4580 F   0  0  0  0  0  0  0  0  0  0  0  0
  182.8350  177.0800  140.3030 F   0  0  0  0  0  0  0  0  0  0  0  0
  1 13  1  0  0  0  0
  2  6  1  0  0  0  0
  3  5  1  0  0  0  0
  3  7  1  0  0  0  0
  4  1  1  0  0  0  0
  4  6  1  0  0  0  0
  5  1  1  0  0  0  0
  6 15  1  0  0  0  0
  7 10  1  0  0  0  0
  8 14  1  0  0  0  0
  8  5  1  0  0  0  0
 11 12  1  0  0  0  0
 12  2  1  0  0  0  0
 13 10  1  0  0  0  0
 13  9  1  0  0  0  0
 14  4  1  0  0  0  0
 15 18  1  0  0  0  0
 15 20  1  0  0  0  0
 16 11  1  0  0  0  0
 17 16  1  0  0  0  0
 17 14  1  0  0  0  0
 18  9  1  0  0  0  0
 19 25  1  0  0  0  0
 20 19  2  0  0  0  0
 20 21  1  0  0  0  0
 21 24  2  0  0  0  0
 24 23  1  0  0  0  0
 24 22  1  0  0  0  0
 25 23  2  0  0  0  0
 26 17  1  0  0  0  0
 27 30  1  0  0  0  0
 27 26  1  0  0  0  0
 28 29  1  0  0  0  0
 29 27  1  0  0  0  0
 31 30  1  0  0  0  0
 32 31  1  0  0  0  0
 33  3  1  0  0  0  0
 34 37  1  0  0  0  0
 34 33  1  0  0  0  0
 35 34  1  0  0  0  0
 36 34  1  0  0  0  0
M  END
>  <MODEL>
7

>  <REMARK>
 VINA RESULT:      -6.0      2.477      6.611
  Name = 
  8 active torsions:
  status: ('A' for Active; 'I' for Inactive)
    1  A    between atoms: C_1  and  N_4
    2  A    between atoms: C_1  and  C_27
    3  A    between atoms: C_2  and  O_22
    4  A    between atoms: N_4  and  C_12
    5  A    between atoms: N_4  and  C_37
    6  A    between atoms: C_6  and  O_22
    7  A    between atoms: C_8  and  C_12
    8  A    between atoms: N_23  and  C_30
                            x       y       z     vdW  Elec       q    Type
                         _______ _______ _______ _____ _____    ______ ____

>  <TORSDO>
F 8

$$$$
=
 OpenBabel11122411463D

 37 41  0  0  1  0  0  0  0  0999 V2000
  187.6020  177.2130  142.3500 C   0  0  1  0  0  3  0  0  0  0  0  0
  187.2480  177.6950  138.6890 O   0  0  0  0  0  0  0  0  0  0  0  0
  189.5130  177.1160  144.0320 C   0  0  2  0  0  3  0  0  0  0  0  0
  188.0680  177.6930  141.0260 C   0  0  2  0  0  3  0  0  0  0  0  0
  188.8140  176.4480  142.8370 C   0  0  2  0  0  3  0  0  0  0  0  0
  186.8810  177.6020  140.0500 C   0  0  1  0  0  3  0  0  0  0  0  0
  188.5040  177.4780  145.1320 C   0  0  0  0  0  2  0  0  0  0  0  0
  189.7160  176.2650  141.7690 O   0  0  0  0  0  0  0  0  0  0  0  0
  185.8980  178.8090  142.8270 C   0  0  0  0  0  2  0  0  0  0  0  0
  187.1350  177.8920  144.5790 C   0  0  0  0  0  2  0  0  0  0  0  0
  188.9010  179.3370  138.9890 O   0  0  0  0  0  0  0  0  0  0  0  0
  187.6730  179.0090  138.3820 C   0  0  0  0  0  2  0  0  0  0  0  0
  187.2400  178.3590  143.1990 N   0  0  1  0  0  0  0  0  0  0  0  0
  189.1800  176.8260  140.6340 N   0  0  2  0  0  0  0  0  0  0  0  0
  185.7550  178.4960  140.3920 N   0  0  0  0  0  0  0  0  0  0  0  0
  189.7980  178.2970  138.7100 C   0  0  0  0  0  2  0  0  0  0  0  0
  190.2520  177.6330  140.0150 C   0  0  2  0  0  3  0  0  0  0  0  0
  185.8970  179.4940  141.4590 C   0  0  0  0  0  2  0  0  0  0  0  0
  183.9180  179.2480  138.9100 C   0  0  0  0  0  3  0  0  0  0  0  0
  184.4610  178.2920  139.7860 C   0  0  0  0  0  0  0  0  0  0  0  0
  183.7170  177.1310  140.0610 C   0  0  0  0  0  3  0  0  0  0  0  0
  181.7590  175.8070  139.7480 F   0  0  0  0  0  0  0  0  0  0  0  0
  181.9390  177.8910  138.6050 C   0  0  0  0  0  3  0  0  0  0  0  0
  182.4640  176.9320  139.4740 C   0  0  0  0  0  0  0  0  0  0  0  0
  182.6650  179.0500  138.3240 C   0  0  0  0  0  3  0  0  0  0  0  0
  191.4690  176.7390  139.7060 C   0  0  0  0  0  2  0  0  0  0  0  0
  191.6900  176.4650  138.2780 N   0  0  0  0  0  0  0  0  0  0  0  0
  193.7950  175.2850  137.9640 C   0  0  0  0  0  1  0  0  0  0  0  0
  193.0960  176.6310  137.9380 C   0  0  0  0  0  2  0  0  0  0  0  0
  191.2990  175.0980  137.9560 C   0  0  0  0  0  2  0  0  0  0  0  0
  190.1880  175.1010  136.9210 C   0  0  0  0  0  2  0  0  0  0  0  0
  188.9650  175.2760  137.5410 F   0  0  0  0  0  0  0  0  0  0  0  0
  190.1990  178.2730  143.6200 O   0  0  0  0  0  0  0  0  0  0  0  0
  191.5580  178.1220  143.9620 C   0  0  0  0  0  0  0  0  0  0  0  0
  192.1120  179.3390  144.3310 F   0  0  0  0  0  0  0  0  0  0  0  0
  191.7120  177.2070  144.9920 F   0  0  0  0  0  0  0  0  0  0  0  0
  192.2410  177.6550  142.8560 F   0  0  0  0  0  0  0  0  0  0  0  0
  1  5  1  0  0  0  0
  1 13  1  0  0  0  0
  2  6  1  0  0  0  0
  3  7  1  0  0  0  0
  4  1  1  0  0  0  0
  5  3  1  0  0  0  0
  6 15  1  0  0  0  0
  6  4  1  0  0  0  0
  8  5  1  0  0  0  0
  9 13  1  0  0  0  0
 10  7  1  0  0  0  0
 12  2  1  0  0  0  0
 12 11  1  0  0  0  0
 13 10  1  0  0  0  0
 14  4  1  0  0  0  0
 14  8  1  0  0  0  0
 15 18  1  0  0  0  0
 16 11  1  0  0  0  0
 16 17  1  0  0  0  0
 17 14  1  0  0  0  0
 18  9  1  0  0  0  0
 19 20  1  0  0  0  0
 20 21  2  0  0  0  0
 20 15  1  0  0  0  0
 23 24  2  0  0  0  0
 24 22  1  0  0  0  0
 24 21  1  0  0  0  0
 25 23  1  0  0  0  0
 25 19  2  0  0  0  0
 26 17  1  0  0  0  0
 27 26  1  0  0  0  0
 29 28  1  0  0  0  0
 29 27  1  0  0  0  0
 30 27  1  0  0  0  0
 31 32  1  0  0  0  0
 31 30  1  0  0  0  0
 33 34  1  0  0  0  0
 33  3  1  0  0  0  0
 34 35  1  0  0  0  0
 34 36  1  0  0  0  0
 37 34  1  0  0  0  0
M  END
>  <MODEL>
8

>  <REMARK>
 VINA RESULT:      -6.0      2.344      3.066
  Name = 
  8 active torsions:
  status: ('A' for Active; 'I' for Inactive)
    1  A    between atoms: C_1  and  N_4
    2  A    between atoms: C_1  and  C_27
    3  A    between atoms: C_2  and  O_22
    4  A    between atoms: N_4  and  C_12
    5  A    between atoms: N_4  and  C_37
    6  A    between atoms: C_6  and  O_22
    7  A    between atoms: C_8  and  C_12
    8  A    between atoms: N_23  and  C_30
                            x       y       z     vdW  Elec       q    Type
                         _______ _______ _______ _____ _____    ______ ____

>  <TORSDO>
F 8

$$$$
=
 OpenBabel11122411463D

 37 41  0  0  1  0  0  0  0  0999 V2000
  186.0900  178.7670  141.5290 C   0  0  1  0  0  3  0  0  0  0  0  0
  189.4870  177.9920  140.2570 O   0  0  0  0  0  0  0  0  0  0  0  0
  183.7090  178.6880  140.6290 C   0  0  2  0  0  3  0  0  0  0  0  0
  187.0380  178.0810  140.6190 C   0  0  2  0  0  3  0  0  0  0  0  0
  185.0940  179.3470  140.5470 C   0  0  2  0  0  3  0  0  0  0  0  0
  188.4580  178.2860  141.1790 C   0  0  1  0  0  3  0  0  0  0  0  0
  183.2090  178.6260  142.0790 C   0  0  0  0  0  2  0  0  0  0  0  0
  185.6160  179.2570  139.2400 O   0  0  0  0  0  0  0  0  0  0  0  0
  186.4620  177.5610  143.5500 C   0  0  0  0  0  2  0  0  0  0  0  0
  184.3380  178.4120  143.0950 C   0  0  0  0  0  2  0  0  0  0  0  0
  188.4390  176.1180  139.3030 O   0  0  0  0  0  0  0  0  0  0  0  0
  189.5530  176.5990  140.0190 C   0  0  0  0  0  2  0  0  0  0  0  0
  185.5050  177.7970  142.4690 N   0  0  1  0  0  0  0  0  0  0  0  0
  186.8670  178.6900  139.2990 N   0  0  2  0  0  0  0  0  0  0  0  0
  188.6800  177.6490  142.4930 N   0  0  0  0  0  0  0  0  0  0  0  0
  188.2690  176.9460  138.1860 C   0  0  0  0  0  2  0  0  0  0  0  0
  186.9070  177.6450  138.2550 C   0  0  2  0  0  3  0  0  0  0  0  0
  187.6670  176.7530  143.0650 C   0  0  0  0  0  2  0  0  0  0  0  0
  190.3820  179.3060  143.1950 C   0  0  0  0  0  3  0  0  0  0  0  0
  189.8230  178.0200  143.2920 C   0  0  0  0  0  0  0  0  0  0  0  0
  190.4020  177.1000  144.1840 C   0  0  0  0  0  3  0  0  0  0  0  0
  192.0550  176.5620  145.8150 F   0  0  0  0  0  0  0  0  0  0  0  0
  192.0520  178.7410  144.8510 C   0  0  0  0  0  3  0  0  0  0  0  0
  191.5090  177.4580  144.9590 C   0  0  0  0  0  0  0  0  0  0  0  0
  191.4890  179.6650  143.9680 C   0  0  0  0  0  3  0  0  0  0  0  0
  186.6120  178.2700  136.8770 C   0  0  0  0  0  2  0  0  0  0  0  0
  185.5720  177.5820  136.0950 N   0  0  0  0  0  0  0  0  0  0  0  0
  187.4850  177.5060  134.5940 C   0  0  0  0  0  1  0  0  0  0  0  0
  185.9730  177.4710  134.6990 C   0  0  0  0  0  2  0  0  0  0  0  0
  185.3490  176.2390  136.6170 C   0  0  0  0  0  2  0  0  0  0  0  0
  184.3970  175.4780  135.7110 C   0  0  0  0  0  2  0  0  0  0  0  0
  183.1170  175.9850  135.8390 F   0  0  0  0  0  0  0  0  0  0  0  0
  183.7450  177.3910  140.0850 O   0  0  0  0  0  0  0  0  0  0  0  0
  182.7180  177.2870  139.1260 C   0  0  0  0  0  0  0  0  0  0  0  0
  181.4930  177.6390  139.6740 F   0  0  0  0  0  0  0  0  0  0  0  0
  182.9840  178.0880  138.0260 F   0  0  0  0  0  0  0  0  0  0  0  0
  182.6410  175.9750  138.7030 F   0  0  0  0  0  0  0  0  0  0  0  0
  1 13  1  0  0  0  0
  2  6  1  0  0  0  0
  3  7  1  0  0  0  0
  4  6  1  0  0  0  0
  4  1  1  0  0  0  0
  5  3  1  0  0  0  0
  5  1  1  0  0  0  0
  6 15  1  0  0  0  0
  7 10  1  0  0  0  0
  8 14  1  0  0  0  0
  8  5  1  0  0  0  0
 11 12  1  0  0  0  0
 12  2  1  0  0  0  0
 13 10  1  0  0  0  0
 13  9  1  0  0  0  0
 14  4  1  0  0  0  0
 15 18  1  0  0  0  0
 15 20  1  0  0  0  0
 16 17  1  0  0  0  0
 16 11  1  0  0  0  0
 17 14  1  0  0  0  0
 18  9  1  0  0  0  0
 19 20  2  0  0  0  0
 19 25  1  0  0  0  0
 20 21  1  0  0  0  0
 21 24  2  0  0  0  0
 23 24  1  0  0  0  0
 24 22  1  0  0  0  0
 25 23  2  0  0  0  0
 26 17  1  0  0  0  0
 27 30  1  0  0  0  0
 27 26  1  0  0  0  0
 28 29  1  0  0  0  0
 29 27  1  0  0  0  0
 31 32  1  0  0  0  0
 31 30  1  0  0  0  0
 33  3  1  0  0  0  0
 34 35  1  0  0  0  0
 34 33  1  0  0  0  0
 36 34  1  0  0  0  0
 37 34  1  0  0  0  0
M  END
>  <MODEL>
9

>  <REMARK>
 VINA RESULT:      -5.9      2.963      7.310
  Name = 
  8 active torsions:
  status: ('A' for Active; 'I' for Inactive)
    1  A    between atoms: C_1  and  N_4
    2  A    between atoms: C_1  and  C_27
    3  A    between atoms: C_2  and  O_22
    4  A    between atoms: N_4  and  C_12
    5  A    between atoms: N_4  and  C_37
    6  A    between atoms: C_6  and  O_22
    7  A    between atoms: C_8  and  C_12
    8  A    between atoms: N_23  and  C_30
                            x       y       z     vdW  Elec       q    Type
                         _______ _______ _______ _____ _____    ______ ____

>  <TORSDO>
F 8

$$$$
