=
 OpenBabel11122412093D

 34 42  0  0  1  0  0  0  0  0999 V2000
  189.6590  177.6950  138.9070 C   0  0  0  0  0  0  0  0  0  0  0  0
  188.8250  178.2020  136.6010 C   0  0  0  0  0  2  0  0  0  0  0  0
  190.3680  178.5750  144.5650 C   0  0  2  0  0  0  0  0  0  0  0  0
  190.1060  176.6030  141.0070 C   0  0  0  0  0  0  0  0  0  0  0  0
  188.6990  177.2000  143.0630 C   0  0  1  0  0  3  0  0  0  0  0  0
  190.6720  178.8940  143.1040 C   0  0  2  0  0  3  0  0  0  0  0  0
  191.4150  179.6100  144.2130 C   0  0  0  0  0  2  0  0  0  0  0  0
  191.6680  176.4020  143.9250 C   0  0  0  0  0  2  0  0  0  0  0  0
  187.4550  178.9000  138.4950 N   0  0  2  0  0  0  0  0  0  0  0  0
  184.4690  177.6220  138.3070 C   0  0  0  0  0  2  0  0  0  0  0  0
  187.5570  177.4430  142.0780 C   0  0  0  0  0  2  0  0  0  0  0  0
  190.6620  175.4740  143.2740 C   0  0  0  0  0  2  0  0  0  0  0  0
  186.9920  178.1690  139.7010 C   0  0  1  0  0  3  0  0  0  0  0  0
  187.4870  178.6490  136.0820 C   0  0  0  0  0  2  0  0  0  0  0  0
  189.6570  176.2040  142.3860 C   0  0  2  0  0  3  0  0  0  0  0  0
  190.9800  177.2290  145.0060 C   0  0  0  0  0  2  0  0  0  0  0  0
  185.6650  177.4540  137.3510 C   0  0  1  0  0  3  0  0  0  0  0  0
  189.2850  177.4390  140.2270 C   0  0  0  0  0  0  0  0  0  0  0  0
  189.2470  178.5780  143.5290 C   0  0  2  0  0  3  0  0  0  0  0  0
  188.0660  178.1220  140.7880 C   0  0  2  0  0  3  0  0  0  0  0  0
  191.5810  176.3350  139.1790 C   0  0  0  0  0  3  0  0  0  0  0  0
  184.5580  178.8550  139.2130 C   0  0  0  0  0  2  0  0  0  0  0  0
  191.2220  176.0550  140.4580 N   0  0  0  0  0  0  0  0  0  0  0  0
  185.6830  178.7620  140.2470 C   0  0  0  0  0  2  0  0  0  0  0  0
  186.5970  178.6940  137.3040 C   0  0  1  0  0  3  0  0  0  0  0  0
  190.8080  177.1520  138.4180 N   0  0  0  0  0  0  0  0  0  0  0  0
  188.8490  178.6420  138.0530 C   0  0  1  0  0  3  0  0  0  0  0  0
  186.3740  176.2930  137.6800 O   0  0  0  0  0  0  0  0  0  0  0  0
  185.9480  175.3210  136.7720 C   0  0  0  0  0  2  0  0  0  0  0  0
  188.8020  172.9430  136.5530 C   0  0  0  0  0  3  0  0  0  0  0  0
  186.5720  173.0010  137.1830 N   0  0  0  0  0  0  0  0  0  0  0  0
  186.9020  174.1790  136.7900 C   0  0  0  0  0  0  0  0  0  0  0  0
  187.6850  172.1680  137.0720 N   0  0  0  0  0  0  0  0  0  0  0  0
  188.2580  174.2830  136.3790 N   0  0  0  0  0  2  0  0  0  0  0  0
  1 18  1  0  0  0  0
  2 27  1  0  0  0  0
  3  7  1  1  0  0  0
  3 16  1  0  0  0  0
  4 15  1  0  0  0  0
  5 11  1  6  0  0  0
  5 19  1  0  0  0  0
  6 19  1  0  0  0  0
  6  7  1  1  0  0  0
  6  3  1  0  0  0  0
  8 16  1  0  0  0  0
  9 13  1  0  0  0  0
 10 22  1  0  0  0  0
 12  8  1  0  0  0  0
 13 24  1  0  0  0  0
 13 20  1  0  0  0  0
 14  2  1  0  0  0  0
 14 25  1  0  0  0  0
 15  5  1  0  0  0  0
 15 12  1  0  0  0  0
 17 28  1  0  0  0  0
 17 10  1  0  0  0  0
 18 20  1  0  0  0  0
 18  4  2  0  0  0  0
 19  3  1  0  0  0  0
 20 11  1  0  0  0  0
 21 23  2  0  0  0  0
 22 24  1  0  0  0  0
 23  4  1  0  0  0  0
 25 17  1  0  0  0  0
 25  9  1  0  0  0  0
 26  1  2  0  0  0  0
 26 21  1  0  0  0  0
 27  9  1  0  0  0  0
 27  1  1  0  0  0  0
 29 32  1  0  0  0  0
 29 28  1  0  0  0  0
 30 33  2  0  0  0  0
 32 31  2  0  0  0  0
 33 31  1  0  0  0  0
 34 30  1  0  0  0  0
 34 32  1  0  0  0  0
M  END
>  <MODEL>
1

>  <REMARK>
 VINA RESULT:      -7.5      0.000      0.000
  Name = 
  3 active torsions:
  status: ('A' for Active; 'I' for Inactive)
    1  A    between atoms: C_17  and  O_28
    2  A    between atoms: O_28  and  C_29
    3  A    between atoms: C_29  and  C_32
                            x       y       z     vdW  Elec       q    Type
                         _______ _______ _______ _____ _____    ______ ____

>  <TORSDO>
F 3

$$$$
=
 OpenBabel11122412093D

 34 42  0  0  1  0  0  0  0  0999 V2000
  187.0380  178.4150  140.2640 C   0  0  0  0  0  0  0  0  0  0  0  0
  185.1700  179.2790  138.8380 C   0  0  0  0  0  2  0  0  0  0  0  0
  190.4710  178.2140  144.8970 C   0  0  2  0  0  0  0  0  0  0  0  0
  188.4650  176.9800  141.5690 C   0  0  0  0  0  0  0  0  0  0  0  0
  188.2700  176.9940  144.1240 C   0  0  1  0  0  3  0  0  0  0  0  0
  190.0090  178.8510  143.5900 C   0  0  2  0  0  3  0  0  0  0  0  0
  191.2090  179.4080  144.3290 C   0  0  0  0  0  2  0  0  0  0  0  0
  191.2710  176.3700  143.2290 C   0  0  0  0  0  2  0  0  0  0  0  0
  184.9270  179.4290  141.2610 N   0  0  2  0  0  0  0  0  0  0  0  0
  182.2370  177.8930  142.2570 C   0  0  0  0  0  2  0  0  0  0  0  0
  186.7900  177.3020  143.9020 C   0  0  0  0  0  2  0  0  0  0  0  0
  190.0700  175.4860  142.9550 C   0  0  0  0  0  2  0  0  0  0  0  0
  185.1210  178.4230  142.3360 C   0  0  1  0  0  3  0  0  0  0  0  0
  183.7540  179.6720  139.1510 C   0  0  0  0  0  2  0  0  0  0  0  0
  188.7600  176.2650  142.8600 C   0  0  2  0  0  3  0  0  0  0  0  0
  191.2150  176.8830  144.6640 C   0  0  0  0  0  2  0  0  0  0  0  0
  182.7980  178.0530  140.8330 C   0  0  1  0  0  3  0  0  0  0  0  0
  187.3690  177.8600  141.5000 C   0  0  0  0  0  0  0  0  0  0  0  0
  188.9830  178.3010  144.5670 C   0  0  2  0  0  3  0  0  0  0  0  0
  186.5940  178.2780  142.7220 C   0  0  2  0  0  3  0  0  0  0  0  0
  188.8350  177.2480  139.2500 C   0  0  0  0  0  3  0  0  0  0  0  0
  182.7700  178.9210  143.2610 C   0  0  0  0  0  2  0  0  0  0  0  0
  189.1580  176.6790  140.4400 N   0  0  0  0  0  0  0  0  0  0  0  0
  184.2600  178.7470  143.5680 C   0  0  0  0  0  2  0  0  0  0  0  0
  183.5890  179.3720  140.6240 C   0  0  1  0  0  3  0  0  0  0  0  0
  187.7900  178.1110  139.1700 N   0  0  0  0  0  0  0  0  0  0  0  0
  185.9150  179.4190  140.1530 C   0  0  1  0  0  3  0  0  0  0  0  0
  183.5720  176.9350  140.5000 O   0  0  0  0  0  0  0  0  0  0  0  0
  182.7370  176.1100  139.7430 C   0  0  0  0  0  2  0  0  0  0  0  0
  182.7540  176.9540  136.1180 C   0  0  0  0  0  3  0  0  0  0  0  0
  184.1030  175.9730  137.7290 N   0  0  0  0  0  0  0  0  0  0  0  0
  183.0070  176.3320  138.2960 C   0  0  0  0  0  0  0  0  0  0  0  0
  184.0360  176.3180  136.3780 N   0  0  0  0  0  2  0  0  0  0  0  0
  182.0870  176.9600  137.4140 N   0  0  0  0  0  0  0  0  0  0  0  0
  1 18  1  0  0  0  0
  2 14  1  0  0  0  0
  2 27  1  0  0  0  0
  3  7  1  1  0  0  0
  4 15  1  0  0  0  0
  5 11  1  6  0  0  0
  5 19  1  0  0  0  0
  6  7  1  1  0  0  0
  6 19  1  0  0  0  0
  6  3  1  0  0  0  0
  8 16  1  0  0  0  0
  9 13  1  0  0  0  0
 10 22  1  0  0  0  0
 12  8  1  0  0  0  0
 13 20  1  0  0  0  0
 13 24  1  0  0  0  0
 14 25  1  0  0  0  0
 15 12  1  0  0  0  0
 15  5  1  0  0  0  0
 16  3  1  0  0  0  0
 17 10  1  0  0  0  0
 18  4  2  0  0  0  0
 18 20  1  0  0  0  0
 19  3  1  0  0  0  0
 20 11  1  0  0  0  0
 21 23  2  0  0  0  0
 22 24  1  0  0  0  0
 23  4  1  0  0  0  0
 25 17  1  0  0  0  0
 25  9  1  0  0  0  0
 26 21  1  0  0  0  0
 26  1  2  0  0  0  0
 27  1  1  0  0  0  0
 27  9  1  0  0  0  0
 28 17  1  0  0  0  0
 29 28  1  0  0  0  0
 30 33  1  0  0  0  0
 30 34  2  0  0  0  0
 31 32  2  0  0  0  0
 32 29  1  0  0  0  0
 33 31  1  0  0  0  0
 34 32  1  0  0  0  0
M  END
>  <MODEL>
2

>  <REMARK>
 VINA RESULT:      -7.1      2.495      3.588
  Name = 
  3 active torsions:
  status: ('A' for Active; 'I' for Inactive)
    1  A    between atoms: C_17  and  O_28
    2  A    between atoms: O_28  and  C_29
    3  A    between atoms: C_29  and  C_32
                            x       y       z     vdW  Elec       q    Type
                         _______ _______ _______ _____ _____    ______ ____

>  <TORSDO>
F 3

$$$$
=
 OpenBabel11122412093D

 34 42  0  0  1  0  0  0  0  0999 V2000
  186.0080  176.1430  135.3120 C   0  0  0  0  0  0  0  0  0  0  0  0
  187.9510  177.5470  134.5940 C   0  0  0  0  0  2  0  0  0  0  0  0
  183.0320  171.2580  136.0680 C   0  0  2  0  0  0  0  0  0  0  0  0
  184.2830  175.0970  136.6290 C   0  0  0  0  0  0  0  0  0  0  0  0
  184.6500  172.7280  137.5340 C   0  0  1  0  0  3  0  0  0  0  0  0
  183.5850  172.3750  135.1880 C   0  0  2  0  0  3  0  0  0  0  0  0
  182.6890  171.3080  134.5940 C   0  0  0  0  0  2  0  0  0  0  0  0
  181.5560  173.2340  136.9270 C   0  0  0  0  0  2  0  0  0  0  0  0
  188.3990  175.2710  135.3470 N   0  0  2  0  0  0  0  0  0  0  0  0
  190.4980  175.2590  137.8330 C   0  0  0  0  0  2  0  0  0  0  0  0
  186.1290  173.1010  137.6080 C   0  0  0  0  0  2  0  0  0  0  0  0
  182.3770  173.9620  137.9730 C   0  0  0  0  0  2  0  0  0  0  0  0
  187.9600  174.5270  136.5550 C   0  0  1  0  0  3  0  0  0  0  0  0
  189.4360  177.3830  134.7550 C   0  0  0  0  0  2  0  0  0  0  0  0
  183.8610  174.0470  137.6200 C   0  0  2  0  0  3  0  0  0  0  0  0
  181.8770  171.7430  136.9680 C   0  0  0  0  0  2  0  0  0  0  0  0
  189.9220  176.4510  137.0480 C   0  0  1  0  0  3  0  0  0  0  0  0
  185.6000  175.0890  136.1310 C   0  0  0  0  0  0  0  0  0  0  0  0
  184.4390  171.8000  136.3060 C   0  0  2  0  0  3  0  0  0  0  0  0
  186.5530  173.9530  136.3920 C   0  0  2  0  0  3  0  0  0  0  0  0
  183.8610  177.1300  135.4990 C   0  0  0  0  0  3  0  0  0  0  0  0
  190.4030  173.9180  137.0970 C   0  0  0  0  0  2  0  0  0  0  0  0
  183.4520  176.1260  136.3170 N   0  0  0  0  0  0  0  0  0  0  0  0
  188.9640  173.4240  136.9280 C   0  0  0  0  0  2  0  0  0  0  0  0
  189.5950  176.1170  135.5680 C   0  0  1  0  0  3  0  0  0  0  0  0
  185.1230  177.1300  134.9990 N   0  0  0  0  0  0  0  0  0  0  0  0
  187.3870  176.1430  134.6980 C   0  0  1  0  0  3  0  0  0  0  0  0
  188.8020  176.9630  137.7160 O   0  0  0  0  0  0  0  0  0  0  0  0
  189.2610  178.0750  138.4240 C   0  0  0  0  0  2  0  0  0  0  0  0
  188.6750  177.3750  142.0320 C   0  0  0  0  0  3  0  0  0  0  0  0
  187.7910  178.6240  140.2900 N   0  0  0  0  0  0  0  0  0  0  0  0
  188.8070  177.9790  139.8390 C   0  0  0  0  0  0  0  0  0  0  0  0
  187.6330  178.3120  141.6400 N   0  0  0  0  0  0  0  0  0  0  0  0
  189.4510  177.1730  140.8150 N   0  0  0  0  0  2  0  0  0  0  0  0
  1 18  1  0  0  0  0
  2 27  1  0  0  0  0
  2 14  1  0  0  0  0
  3  7  1  6  0  0  0
  3 19  1  0  0  0  0
  3 16  1  0  0  0  0
  4 15  1  0  0  0  0
  5 11  1  6  0  0  0
  5 15  1  0  0  0  0
  6  7  1  6  0  0  0
  6  3  1  0  0  0  0
  6 19  1  0  0  0  0
  8 16  1  0  0  0  0
  8 12  1  0  0  0  0
  9 25  1  0  0  0  0
  9 13  1  0  0  0  0
 13 24  1  0  0  0  0
 14 25  1  0  0  0  0
 15 12  1  0  0  0  0
 17 28  1  0  0  0  0
 17 10  1  0  0  0  0
 18 20  1  0  0  0  0
 18  4  2  0  0  0  0
 19  5  1  0  0  0  0
 20 13  1  0  0  0  0
 20 11  1  0  0  0  0
 21 23  2  0  0  0  0
 22 10  1  0  0  0  0
 23  4  1  0  0  0  0
 24 22  1  0  0  0  0
 25 17  1  0  0  0  0
 26  1  2  0  0  0  0
 26 21  1  0  0  0  0
 27  1  1  0  0  0  0
 27  9  1  0  0  0  0
 28 29  1  0  0  0  0
 29 32  1  0  0  0  0
 31 33  1  0  0  0  0
 32 31  2  0  0  0  0
 32 34  1  0  0  0  0
 33 30  2  0  0  0  0
 34 30  1  0  0  0  0
M  END
>  <MODEL>
3

>  <REMARK>
 VINA RESULT:      -6.4      2.906      7.977
  Name = 
  3 active torsions:
  status: ('A' for Active; 'I' for Inactive)
    1  A    between atoms: C_17  and  O_28
    2  A    between atoms: O_28  and  C_29
    3  A    between atoms: C_29  and  C_32
                            x       y       z     vdW  Elec       q    Type
                         _______ _______ _______ _____ _____    ______ ____

>  <TORSDO>
F 3

$$$$
=
 OpenBabel11122412093D

 34 42  0  0  1  0  0  0  0  0999 V2000
  185.6610  178.0840  137.4960 C   0  0  0  0  0  0  0  0  0  0  0  0
  187.9400  179.0180  137.0500 C   0  0  0  0  0  2  0  0  0  0  0  0
  180.8660  175.1020  136.3120 C   0  0  2  0  0  0  0  0  0  0  0  0
  183.8060  176.9060  138.4830 C   0  0  0  0  0  0  0  0  0  0  0  0
  183.1320  174.6140  137.5580 C   0  0  1  0  0  3  0  0  0  0  0  0
  181.7710  176.3180  136.1420 C   0  0  2  0  0  3  0  0  0  0  0  0
  180.4230  176.2670  135.4520 C   0  0  0  0  0  2  0  0  0  0  0  0
  180.5790  176.1690  138.6780 C   0  0  0  0  0  2  0  0  0  0  0  0
  187.3630  176.8740  136.0420 N   0  0  2  0  0  0  0  0  0  0  0  0
  189.4800  174.5650  136.9240 C   0  0  0  0  0  2  0  0  0  0  0  0
  184.6150  174.4270  137.2380 C   0  0  0  0  0  2  0  0  0  0  0  0
  181.7550  175.6960  139.5100 C   0  0  0  0  0  2  0  0  0  0  0  0
  186.7680  175.6400  136.6170 C   0  0  1  0  0  3  0  0  0  0  0  0
  189.1870  178.4150  136.4690 C   0  0  0  0  0  2  0  0  0  0  0  0
  183.0590  175.6220  138.7190 C   0  0  2  0  0  3  0  0  0  0  0  0
  180.1750  175.0790  137.6920 C   0  0  0  0  0  2  0  0  0  0  0  0
  189.4380  176.0530  137.3170 C   0  0  1  0  0  3  0  0  0  0  0  0
  184.9050  176.9160  137.6040 C   0  0  0  0  0  0  0  0  0  0  0  0
  182.3800  174.9280  136.2360 C   0  0  2  0  0  3  0  0  0  0  0  0
  185.2460  175.7400  136.7270 C   0  0  2  0  0  3  0  0  0  0  0  0
  184.2510  179.1510  139.0750 C   0  0  0  0  0  3  0  0  0  0  0  0
  188.6940  174.2300  135.6520 C   0  0  0  0  0  2  0  0  0  0  0  0
  183.5180  178.0170  139.2120 N   0  0  0  0  0  0  0  0  0  0  0  0
  187.1800  174.3940  135.8180 C   0  0  0  0  0  2  0  0  0  0  0  0
  188.8320  176.9660  136.2190 C   0  0  1  0  0  3  0  0  0  0  0  0
  185.3050  179.1820  138.2190 N   0  0  0  0  0  0  0  0  0  0  0  0
  186.8060  178.1660  136.5140 C   0  0  1  0  0  3  0  0  0  0  0  0
  188.7650  176.2030  138.5360 O   0  0  0  0  0  0  0  0  0  0  0  0
  189.6990  176.7530  139.4170 C   0  0  0  0  0  2  0  0  0  0  0  0
  188.3280  177.8770  142.6890 C   0  0  0  0  0  3  0  0  0  0  0  0
  188.0620  178.2570  140.4180 N   0  0  0  0  0  0  0  0  0  0  0  0
  188.9840  177.3740  140.5660 C   0  0  0  0  0  0  0  0  0  0  0  0
  187.5970  178.6280  141.6800 N   0  0  0  0  0  2  0  0  0  0  0  0
  189.2540  177.0520  141.9230 N   0  0  0  0  0  0  0  0  0  0  0  0
  1 18  2  0  0  0  0
  1 26  1  0  0  0  0
  3  7  1  6  0  0  0
  3 16  1  0  0  0  0
  4 15  1  0  0  0  0
  4 23  2  0  0  0  0
  5 11  1  6  0  0  0
  5 15  1  0  0  0  0
  6  7  1  6  0  0  0
  6 19  1  0  0  0  0
  6  3  1  0  0  0  0
  8 12  1  0  0  0  0
  9 25  1  0  0  0  0
  9 27  1  0  0  0  0
  9 13  1  0  0  0  0
 10 17  1  0  0  0  0
 13 20  1  0  0  0  0
 14  2  1  0  0  0  0
 15 12  1  0  0  0  0
 16  8  1  0  0  0  0
 17 28  1  0  0  0  0
 18  4  1  0  0  0  0
 19  3  1  0  0  0  0
 19  5  1  0  0  0  0
 20 11  1  0  0  0  0
 20 18  1  0  0  0  0
 21 23  1  0  0  0  0
 22 24  1  0  0  0  0
 22 10  1  0  0  0  0
 24 13  1  0  0  0  0
 25 14  1  0  0  0  0
 25 17  1  0  0  0  0
 26 21  2  0  0  0  0
 27  2  1  0  0  0  0
 27  1  1  0  0  0  0
 28 29  1  0  0  0  0
 29 32  1  0  0  0  0
 31 32  2  0  0  0  0
 31 33  1  0  0  0  0
 32 34  1  0  0  0  0
 33 30  1  0  0  0  0
 34 30  2  0  0  0  0
M  END
>  <MODEL>
4

>  <REMARK>
 VINA RESULT:      -6.2      2.597      7.571
  Name = 
  3 active torsions:
  status: ('A' for Active; 'I' for Inactive)
    1  A    between atoms: C_17  and  O_28
    2  A    between atoms: O_28  and  C_29
    3  A    between atoms: C_29  and  C_32
                            x       y       z     vdW  Elec       q    Type
                         _______ _______ _______ _____ _____    ______ ____

>  <TORSDO>
F 3

$$$$
=
 OpenBabel11122412093D

 34 42  0  0  1  0  0  0  0  0999 V2000
  183.7000  178.0050  139.3360 C   0  0  0  0  0  0  0  0  0  0  0  0
  181.6160  178.6550  140.5610 C   0  0  0  0  0  2  0  0  0  0  0  0
  186.9660  174.7840  135.8360 C   0  0  2  0  0  0  0  0  0  0  0  0
  185.6320  178.0380  137.8980 C   0  0  0  0  0  0  0  0  0  0  0  0
  185.4980  176.9540  135.5800 C   0  0  1  0  0  3  0  0  0  0  0  0
  186.2500  175.0310  137.1600 C   0  0  2  0  0  3  0  0  0  0  0  0
  187.1030  173.7930  136.9730 C   0  0  0  0  0  2  0  0  0  0  0  0
  188.4550  176.7200  136.7610 C   0  0  0  0  0  2  0  0  0  0  0  0
  181.3770  177.5400  138.4050 N   0  0  2  0  0  0  0  0  0  0  0  0
  179.6370  179.3560  136.3410 C   0  0  0  0  0  2  0  0  0  0  0  0
  184.0270  177.3660  135.5910 C   0  0  0  0  0  2  0  0  0  0  0  0
  187.7510  178.0140  136.4030 C   0  0  0  0  0  2  0  0  0  0  0  0
  182.0080  177.7960  137.0850 C   0  0  1  0  0  3  0  0  0  0  0  0
  180.1750  178.7350  140.1410 C   0  0  0  0  0  2  0  0  0  0  0  0
  186.2310  177.9250  136.5230 C   0  0  2  0  0  3  0  0  0  0  0  0
  188.2100  175.6830  135.6710 C   0  0  0  0  0  2  0  0  0  0  0  0
  180.0480  179.6530  137.7950 C   0  0  1  0  0  3  0  0  0  0  0  0
  184.2620  177.7730  138.0800 C   0  0  0  0  0  0  0  0  0  0  0  0
  185.5820  175.4270  135.8540 C   0  0  2  0  0  3  0  0  0  0  0  0
  183.4050  177.1820  136.9910 C   0  0  2  0  0  3  0  0  0  0  0  0
  185.8060  178.7220  140.1540 C   0  0  0  0  0  3  0  0  0  0  0  0
  179.6910  177.8710  135.9640 C   0  0  0  0  0  2  0  0  0  0  0  0
  186.3660  178.5250  138.9330 N   0  0  0  0  0  0  0  0  0  0  0  0
  181.1150  177.3090  135.9340 C   0  0  0  0  0  2  0  0  0  0  0  0
  180.1850  178.3790  138.6710 C   0  0  1  0  0  3  0  0  0  0  0  0
  184.4890  178.4560  140.3500 N   0  0  0  0  0  0  0  0  0  0  0  0
  182.2510  177.6700  139.5980 C   0  0  1  0  0  3  0  0  0  0  0  0
  181.2230  180.4130  137.8100 O   0  0  0  0  0  0  0  0  0  0  0  0
  180.8830  181.6210  138.4240 C   0  0  0  0  0  2  0  0  0  0  0  0
  180.8170  183.9570  135.5280 C   0  0  0  0  0  3  0  0  0  0  0  0
  181.6560  183.8110  137.6850 N   0  0  0  0  0  0  0  0  0  0  0  0
  181.0110  182.7270  137.4370 C   0  0  0  0  0  0  0  0  0  0  0  0
  181.5890  184.6330  136.5590 N   0  0  0  0  0  0  0  0  0  0  0  0
  180.4360  182.6900  136.1380 N   0  0  0  0  0  2  0  0  0  0  0  0
  1 27  1  0  0  0  0
  1 26  1  0  0  0  0
  3 16  1  6  0  0  0
  3 19  1  0  0  0  0
  3  7  1  0  0  0  0
  3  6  1  0  0  0  0
  4 18  1  0  0  0  0
  4 23  2  0  0  0  0
  5 11  1  1  0  0  0
  5 19  1  0  0  0  0
  5 15  1  0  0  0  0
  6  7  1  6  0  0  0
  9 25  1  0  0  0  0
  9 27  1  0  0  0  0
 10 17  1  0  0  0  0
 11 20  1  0  0  0  0
 12 15  1  0  0  0  0
 12  8  1  0  0  0  0
 13  9  1  0  0  0  0
 14  2  1  0  0  0  0
 15  4  1  0  0  0  0
 16  8  1  0  0  0  0
 17 28  1  0  0  0  0
 17 25  1  0  0  0  0
 18  1  2  0  0  0  0
 19  6  1  0  0  0  0
 20 13  1  0  0  0  0
 20 18  1  0  0  0  0
 21 26  2  0  0  0  0
 22 10  1  0  0  0  0
 23 21  1  0  0  0  0
 24 22  1  0  0  0  0
 24 13  1  0  0  0  0
 25 14  1  0  0  0  0
 27  2  1  0  0  0  0
 28 29  1  0  0  0  0
 30 34  1  0  0  0  0
 30 33  2  0  0  0  0
 32 31  2  0  0  0  0
 32 29  1  0  0  0  0
 33 31  1  0  0  0  0
 34 32  1  0  0  0  0
M  END
>  <MODEL>
5

>  <REMARK>
 VINA RESULT:      -5.8      4.317      8.253
  Name = 
  3 active torsions:
  status: ('A' for Active; 'I' for Inactive)
    1  A    between atoms: C_17  and  O_28
    2  A    between atoms: O_28  and  C_29
    3  A    between atoms: C_29  and  C_32
                            x       y       z     vdW  Elec       q    Type
                         _______ _______ _______ _____ _____    ______ ____

>  <TORSDO>
F 3

$$$$
=
 OpenBabel11122412093D

 34 42  0  0  1  0  0  0  0  0999 V2000
  183.7560  177.3360  138.7980 C   0  0  0  0  0  0  0  0  0  0  0  0
  181.3710  177.1860  139.5430 C   0  0  0  0  0  2  0  0  0  0  0  0
  188.5460  175.6130  136.0820 C   0  0  2  0  0  0  0  0  0  0  0  0
  185.8200  178.0980  137.8160 C   0  0  0  0  0  0  0  0  0  0  0  0
  186.5280  177.2070  135.5210 C   0  0  1  0  0  3  0  0  0  0  0  0
  187.5340  175.5150  137.2190 C   0  0  2  0  0  3  0  0  0  0  0  0
  188.7680  174.6360  137.2170 C   0  0  0  0  0  2  0  0  0  0  0  0
  189.0880  177.8500  137.3160 C   0  0  0  0  0  2  0  0  0  0  0  0
  181.9600  176.2190  137.3830 N   0  0  2  0  0  0  0  0  0  0  0  0
  180.1780  177.5280  134.9960 C   0  0  0  0  0  2  0  0  0  0  0  0
  185.0340  177.1220  135.2120 C   0  0  0  0  0  2  0  0  0  0  0  0
  188.0850  178.8710  136.8180 C   0  0  0  0  0  2  0  0  0  0  0  0
  182.7260  176.7640  136.2330 C   0  0  1  0  0  3  0  0  0  0  0  0
  180.1030  176.8290  138.8190 C   0  0  0  0  0  2  0  0  0  0  0  0
  186.6900  178.2880  136.6040 C   0  0  2  0  0  3  0  0  0  0  0  0
  189.4280  176.8740  136.1950 C   0  0  0  0  0  2  0  0  0  0  0  0
  180.1610  177.8310  136.5050 C   0  0  1  0  0  3  0  0  0  0  0  0
  184.6080  177.3930  137.6940 C   0  0  0  0  0  0  0  0  0  0  0  0
  187.0550  175.7730  135.8000 C   0  0  2  0  0  3  0  0  0  0  0  0
  184.2360  176.6410  136.4430 C   0  0  2  0  0  3  0  0  0  0  0  0
  185.2920  178.6290  140.0590 C   0  0  0  0  0  3  0  0  0  0  0  0
  180.7960  176.1730  134.6340 C   0  0  0  0  0  2  0  0  0  0  0  0
  186.1230  178.7160  138.9880 N   0  0  0  0  0  0  0  0  0  0  0  0
  182.3000  176.1030  134.9120 C   0  0  0  0  0  2  0  0  0  0  0  0
  180.5300  176.6070  137.3850 C   0  0  1  0  0  3  0  0  0  0  0  0
  184.1270  177.9390  139.9620 N   0  0  0  0  0  0  0  0  0  0  0  0
  182.4790  176.5330  138.7380 C   0  0  1  0  0  3  0  0  0  0  0  0
  180.9890  178.9250  136.7790 O   0  0  0  0  0  0  0  0  0  0  0  0
  180.8350  179.7950  135.6970 C   0  0  0  0  0  2  0  0  0  0  0  0
  180.7480  182.9970  137.5910 C   0  0  0  0  0  3  0  0  0  0  0  0
  180.7870  182.2150  135.4090 N   0  0  0  0  0  0  0  0  0  0  0  0
  180.8030  181.1980  136.1940 C   0  0  0  0  0  0  0  0  0  0  0  0
  180.7530  183.3730  136.1860 N   0  0  0  0  0  2  0  0  0  0  0  0
  180.7890  181.5410  137.5730 N   0  0  0  0  0  0  0  0  0  0  0  0
  1 26  1  0  0  0  0
  3 16  1  6  0  0  0
  3  7  1  0  0  0  0
  3  6  1  0  0  0  0
  4 23  2  0  0  0  0
  5 11  1  1  0  0  0
  5 19  1  0  0  0  0
  5 15  1  0  0  0  0
  6  7  1  6  0  0  0
  9 25  1  0  0  0  0
  9 27  1  0  0  0  0
 10 17  1  0  0  0  0
 11 20  1  0  0  0  0
 12  8  1  0  0  0  0
 13 20  1  0  0  0  0
 13  9  1  0  0  0  0
 14  2  1  0  0  0  0
 15 12  1  0  0  0  0
 15  4  1  0  0  0  0
 16  8  1  0  0  0  0
 17 28  1  0  0  0  0
 17 25  1  0  0  0  0
 18  4  1  0  0  0  0
 18  1  2  0  0  0  0
 19  3  1  0  0  0  0
 19  6  1  0  0  0  0
 20 18  1  0  0  0  0
 22 24  1  0  0  0  0
 22 10  1  0  0  0  0
 23 21  1  0  0  0  0
 24 13  1  0  0  0  0
 25 14  1  0  0  0  0
 26 21  2  0  0  0  0
 27  1  1  0  0  0  0
 27  2  1  0  0  0  0
 29 32  1  0  0  0  0
 29 28  1  0  0  0  0
 31 33  1  0  0  0  0
 31 32  2  0  0  0  0
 32 34  1  0  0  0  0
 33 30  1  0  0  0  0
 34 30  2  0  0  0  0
M  END
>  <MODEL>
6

>  <REMARK>
 VINA RESULT:      -5.4      4.395      7.835
  Name = 
  3 active torsions:
  status: ('A' for Active; 'I' for Inactive)
    1  A    between atoms: C_17  and  O_28
    2  A    between atoms: O_28  and  C_29
    3  A    between atoms: C_29  and  C_32
                            x       y       z     vdW  Elec       q    Type
                         _______ _______ _______ _____ _____    ______ ____

>  <TORSDO>
F 3

$$$$
=
 OpenBabel11122412093D

 34 42  0  0  1  0  0  0  0  0999 V2000
  181.3600  178.4090  136.7600 C   0  0  0  0  0  0  0  0  0  0  0  0
  180.3700  180.5270  137.6560 C   0  0  0  0  0  2  0  0  0  0  0  0
  185.4760  174.4490  135.9470 C   0  0  2  0  0  0  0  0  0  0  0  0
  181.7560  176.0910  136.2410 C   0  0  0  0  0  0  0  0  0  0  0  0
  183.4650  174.7660  137.6150 C   0  0  1  0  0  3  0  0  0  0  0  0
  184.8520  175.8160  135.6830 C   0  0  2  0  0  3  0  0  0  0  0  0
  186.0960  175.3860  134.9320 C   0  0  0  0  0  2  0  0  0  0  0  0
  183.3630  173.6920  134.6100 C   0  0  0  0  0  2  0  0  0  0  0  0
  182.0620  179.3940  139.0000 N   0  0  2  0  0  0  0  0  0  0  0  0
  180.9120  178.6790  141.9580 C   0  0  0  0  0  2  0  0  0  0  0  0
  183.0590  175.6620  138.7850 C   0  0  0  0  0  2  0  0  0  0  0  0
  182.2250  173.6200  135.6080 C   0  0  0  0  0  2  0  0  0  0  0  0
  182.2020  177.9760  139.4190 C   0  0  1  0  0  3  0  0  0  0  0  0
  180.4070  181.1680  139.0150 C   0  0  0  0  0  2  0  0  0  0  0  0
  182.2670  174.7370  136.6500 C   0  0  2  0  0  3  0  0  0  0  0  0
  184.6710  173.3060  135.2930 C   0  0  0  0  0  2  0  0  0  0  0  0
  180.2090  179.3780  140.7810 C   0  0  1  0  0  3  0  0  0  0  0  0
  181.9490  177.1910  137.0980 C   0  0  0  0  0  0  0  0  0  0  0  0
  184.8480  175.2410  137.0900 C   0  0  2  0  0  3  0  0  0  0  0  0
  182.8260  177.1150  138.3200 C   0  0  2  0  0  3  0  0  0  0  0  0
  180.4490  177.4340  134.8000 C   0  0  0  0  0  3  0  0  0  0  0  0
  182.4420  178.7020  141.8780 C   0  0  0  0  0  2  0  0  0  0  0  0
  180.9950  176.2340  135.1250 N   0  0  0  0  0  0  0  0  0  0  0  0
  182.9980  177.8560  140.7290 C   0  0  0  0  0  2  0  0  0  0  0  0
  181.1740  180.1920  139.8790 C   0  0  1  0  0  3  0  0  0  0  0  0
  180.6390  178.5090  135.6090 N   0  0  0  0  0  0  0  0  0  0  0  0
  181.5960  179.6350  137.6110 C   0  0  1  0  0  3  0  0  0  0  0  0
  179.4840  178.4390  140.0370 O   0  0  0  0  0  0  0  0  0  0  0  0
  178.9420  177.5550  140.9720 C   0  0  0  0  0  2  0  0  0  0  0  0
  179.4590  174.3760  139.1070 C   0  0  0  0  0  3  0  0  0  0  0  0
  179.0090  175.1340  141.2520 N   0  0  0  0  0  0  0  0  0  0  0  0
  179.1080  176.1590  140.4820 C   0  0  0  0  0  0  0  0  0  0  0  0
  179.2120  173.9850  140.4870 N   0  0  0  0  0  0  0  0  0  0  0  0
  179.3920  175.8310  139.1290 N   0  0  0  0  0  2  0  0  0  0  0  0
  1 18  1  0  0  0  0
  1 27  1  0  0  0  0
  2 14  1  0  0  0  0
  3  7  1  6  0  0  0
  3 19  1  0  0  0  0
  4 15  1  0  0  0  0
  4 18  2  0  0  0  0
  5 11  1  1  0  0  0
  6  7  1  1  0  0  0
  6  3  1  0  0  0  0
  6 19  1  0  0  0  0
  8 16  1  0  0  0  0
  8 12  1  0  0  0  0
  9 13  1  0  0  0  0
  9 25  1  0  0  0  0
 12 15  1  0  0  0  0
 13 24  1  0  0  0  0
 14 25  1  0  0  0  0
 15  5  1  0  0  0  0
 16  3  1  0  0  0  0
 17 10  1  0  0  0  0
 18 20  1  0  0  0  0
 19  5  1  0  0  0  0
 20 11  1  0  0  0  0
 20 13  1  0  0  0  0
 21 23  2  0  0  0  0
 21 26  1  0  0  0  0
 22 10  1  0  0  0  0
 23  4  1  0  0  0  0
 24 22  1  0  0  0  0
 25 17  1  0  0  0  0
 26  1  2  0  0  0  0
 27  2  1  0  0  0  0
 27  9  1  0  0  0  0
 28 17  1  0  0  0  0
 28 29  1  0  0  0  0
 30 34  1  0  0  0  0
 30 33  2  0  0  0  0
 32 29  1  0  0  0  0
 32 31  2  0  0  0  0
 33 31  1  0  0  0  0
 34 32  1  0  0  0  0
M  END
>  <MODEL>
7

>  <REMARK>
 VINA RESULT:      -5.1      6.356      8.817
  Name = 
  3 active torsions:
  status: ('A' for Active; 'I' for Inactive)
    1  A    between atoms: C_17  and  O_28
    2  A    between atoms: O_28  and  C_29
    3  A    between atoms: C_29  and  C_32
                            x       y       z     vdW  Elec       q    Type
                         _______ _______ _______ _____ _____    ______ ____

>  <TORSDO>
F 3

$$$$
=
 OpenBabel11122412093D

 34 42  0  0  1  0  0  0  0  0999 V2000
  184.4520  177.7560  138.6840 C   0  0  0  0  0  0  0  0  0  0  0  0
  183.0510  179.0760  140.2840 C   0  0  0  0  0  2  0  0  0  0  0  0
  186.1930  173.0350  135.8610 C   0  0  2  0  0  0  0  0  0  0  0  0
  185.5550  176.9750  136.6900 C   0  0  0  0  0  0  0  0  0  0  0  0
  184.5420  175.0250  135.3710 C   0  0  1  0  0  3  0  0  0  0  0  0
  186.1010  173.8950  137.1180 C   0  0  2  0  0  3  0  0  0  0  0  0
  186.9120  172.6150  137.1260 C   0  0  0  0  0  2  0  0  0  0  0  0
  187.7250  175.0170  135.1240 C   0  0  0  0  0  2  0  0  0  0  0  0
  182.0180  177.1780  139.1530 N   0  0  2  0  0  0  0  0  0  0  0  0
  179.3760  178.1070  137.4960 C   0  0  0  0  0  2  0  0  0  0  0  0
  183.1870  175.5510  135.8420 C   0  0  0  0  0  2  0  0  0  0  0  0
  186.8050  176.0990  134.5940 C   0  0  0  0  0  2  0  0  0  0  0  0
  181.9840  176.7810  137.7220 C   0  0  1  0  0  3  0  0  0  0  0  0
  181.5710  179.1150  140.5420 C   0  0  0  0  0  2  0  0  0  0  0  0
  185.5060  176.2250  135.3870 C   0  0  2  0  0  3  0  0  0  0  0  0
  187.1410  173.6450  134.8070 C   0  0  0  0  0  2  0  0  0  0  0  0
  180.3430  178.9520  138.3450 C   0  0  1  0  0  3  0  0  0  0  0  0
  184.4340  176.9540  137.5420 C   0  0  0  0  0  0  0  0  0  0  0  0
  184.8950  173.7610  136.2020 C   0  0  2  0  0  3  0  0  0  0  0  0
  183.2570  176.0460  137.3030 C   0  0  2  0  0  3  0  0  0  0  0  0
  186.6170  178.5340  138.1140 C   0  0  0  0  0  3  0  0  0  0  0  0
  179.4160  176.6060  137.8060 C   0  0  0  0  0  2  0  0  0  0  0  0
  186.6090  177.7790  136.9860 N   0  0  0  0  0  0  0  0  0  0  0  0
  180.7360  175.9420  137.4030 C   0  0  0  0  0  2  0  0  0  0  0  0
  180.9780  178.1670  139.5230 C   0  0  1  0  0  3  0  0  0  0  0  0
  185.5510  178.5130  138.9540 N   0  0  0  0  0  0  0  0  0  0  0  0
  183.3040  177.7140  139.6650 C   0  0  1  0  0  3  0  0  0  0  0  0
  181.3220  179.5210  137.5220 O   0  0  0  0  0  0  0  0  0  0  0  0
  180.6340  180.0610  136.4340 C   0  0  0  0  0  2  0  0  0  0  0  0
  181.1220  183.6750  137.1730 C   0  0  0  0  0  3  0  0  0  0  0  0
  180.5990  182.2700  135.4040 N   0  0  0  0  0  0  0  0  0  0  0  0
  180.7720  181.5430  136.4500 C   0  0  0  0  0  0  0  0  0  0  0  0
  180.7960  183.6060  135.7570 N   0  0  0  0  0  2  0  0  0  0  0  0
  181.1080  182.2860  137.6130 N   0  0  0  0  0  0  0  0  0  0  0  0
  1 26  1  0  0  0  0
  1 27  1  0  0  0  0
  2 14  1  0  0  0  0
  3 16  1  6  0  0  0
  3 19  1  0  0  0  0
  3  6  1  0  0  0  0
  3  7  1  0  0  0  0
  4 23  2  0  0  0  0
  4 18  1  0  0  0  0
  5 15  1  0  0  0  0
  5 11  1  1  0  0  0
  5 19  1  0  0  0  0
  6  7  1  1  0  0  0
  9 25  1  0  0  0  0
  9 27  1  0  0  0  0
 10 22  1  0  0  0  0
 10 17  1  0  0  0  0
 11 20  1  0  0  0  0
 12  8  1  0  0  0  0
 12 15  1  0  0  0  0
 13  9  1  0  0  0  0
 15  4  1  0  0  0  0
 16  8  1  0  0  0  0
 17 25  1  0  0  0  0
 18  1  2  0  0  0  0
 19  6  1  0  0  0  0
 20 18  1  0  0  0  0
 20 13  1  0  0  0  0
 21 26  2  0  0  0  0
 23 21  1  0  0  0  0
 24 13  1  0  0  0  0
 24 22  1  0  0  0  0
 25 14  1  0  0  0  0
 27  2  1  0  0  0  0
 28 17  1  0  0  0  0
 29 32  1  0  0  0  0
 29 28  1  0  0  0  0
 30 34  2  0  0  0  0
 31 33  1  0  0  0  0
 31 32  2  0  0  0  0
 32 34  1  0  0  0  0
 33 30  1  0  0  0  0
M  END
>  <MODEL>
8

>  <REMARK>
 VINA RESULT:      -5.1      4.697      8.270
  Name = 
  3 active torsions:
  status: ('A' for Active; 'I' for Inactive)
    1  A    between atoms: C_17  and  O_28
    2  A    between atoms: O_28  and  C_29
    3  A    between atoms: C_29  and  C_32
                            x       y       z     vdW  Elec       q    Type
                         _______ _______ _______ _____ _____    ______ ____

>  <TORSDO>
F 3

$$$$
=
 OpenBabel11122412093D

 34 42  0  0  1  0  0  0  0  0999 V2000
  185.6490  178.3150  139.5480 C   0  0  0  0  0  0  0  0  0  0  0  0
  188.1160  178.0010  139.2690 C   0  0  0  0  0  2  0  0  0  0  0  0
  180.3960  180.2640  138.1700 C   0  0  2  0  0  0  0  0  0  0  0  0
  183.2890  177.9060  139.8090 C   0  0  0  0  0  0  0  0  0  0  0  0
  181.7520  178.0450  137.7640 C   0  0  1  0  0  3  0  0  0  0  0  0
  181.8100  180.4680  138.7060 C   0  0  2  0  0  3  0  0  0  0  0  0
  180.8170  181.6120  138.7170 C   0  0  0  0  0  2  0  0  0  0  0  0
  180.1920  178.9290  140.4060 C   0  0  0  0  0  2  0  0  0  0  0  0
  186.7540  178.2210  137.2580 N   0  0  2  0  0  0  0  0  0  0  0  0
  187.1270  175.6410  135.3110 C   0  0  0  0  0  2  0  0  0  0  0  0
  182.9550  177.5520  136.9610 C   0  0  0  0  0  2  0  0  0  0  0  0
  180.7410  177.5440  140.1320 C   0  0  0  0  0  2  0  0  0  0  0  0
  185.5000  177.5460  136.8360 C   0  0  1  0  0  3  0  0  0  0  0  0
  188.9670  177.6590  138.0780 C   0  0  0  0  0  2  0  0  0  0  0  0
  181.9580  177.5510  139.2070 C   0  0  2  0  0  3  0  0  0  0  0  0
  179.5110  179.4690  139.1530 C   0  0  0  0  0  2  0  0  0  0  0  0
  187.7730  175.9340  136.6770 C   0  0  1  0  0  3  0  0  0  0  0  0
  184.3970  178.1110  138.9660 C   0  0  0  0  0  0  0  0  0  0  0  0
  181.5790  179.5670  137.5040 C   0  0  2  0  0  3  0  0  0  0  0  0
  184.2650  178.1900  137.4670 C   0  0  2  0  0  3  0  0  0  0  0  0
  184.6850  178.1190  141.7060 C   0  0  0  0  0  3  0  0  0  0  0  0
  186.5810  176.8810  134.5960 C   0  0  0  0  0  2  0  0  0  0  0  0
  183.4630  177.8950  141.1570 N   0  0  0  0  0  0  0  0  0  0  0  0
  185.3740  177.5030  135.3050 C   0  0  0  0  0  2  0  0  0  0  0  0
  187.9810  177.4480  136.9510 C   0  0  1  0  0  3  0  0  0  0  0  0
  185.7610  178.3330  140.9050 N   0  0  0  0  0  0  0  0  0  0  0  0
  186.8540  178.6090  138.6870 C   0  0  1  0  0  3  0  0  0  0  0  0
  187.0270  175.3280  137.6940 O   0  0  0  0  0  0  0  0  0  0  0  0
  186.9240  173.9820  137.3360 C   0  0  0  0  0  2  0  0  0  0  0  0
  183.5910  172.3390  137.1280 C   0  0  0  0  0  3  0  0  0  0  0  0
  184.5370  174.4030  137.5980 N   0  0  0  0  0  0  0  0  0  0  0  0
  185.4900  173.5830  137.3280 C   0  0  0  0  0  0  0  0  0  0  0  0
  183.3240  173.7200  137.4990 N   0  0  0  0  0  0  0  0  0  0  0  0
  185.0430  172.2690  137.0270 N   0  0  0  0  0  2  0  0  0  0  0  0
  1 26  1  0  0  0  0
  3  6  1  0  0  0  0
  3  7  1  6  0  0  0
  3 16  1  0  0  0  0
  4 23  2  0  0  0  0
  5 11  1  6  0  0  0
  5 15  1  0  0  0  0
  6  7  1  6  0  0  0
  9 27  1  0  0  0  0
 10 17  1  0  0  0  0
 11 20  1  0  0  0  0
 12  8  1  0  0  0  0
 13  9  1  0  0  0  0
 13 20  1  0  0  0  0
 14  2  1  0  0  0  0
 15  4  1  0  0  0  0
 15 12  1  0  0  0  0
 16  8  1  0  0  0  0
 17 25  1  0  0  0  0
 17 28  1  0  0  0  0
 18  1  2  0  0  0  0
 18  4  1  0  0  0  0
 19  5  1  0  0  0  0
 19  3  1  0  0  0  0
 19  6  1  0  0  0  0
 20 18  1  0  0  0  0
 22 24  1  0  0  0  0
 22 10  1  0  0  0  0
 23 21  1  0  0  0  0
 24 13  1  0  0  0  0
 25  9  1  0  0  0  0
 25 14  1  0  0  0  0
 26 21  2  0  0  0  0
 27  2  1  0  0  0  0
 27  1  1  0  0  0  0
 29 28  1  0  0  0  0
 30 33  2  0  0  0  0
 32 29  1  0  0  0  0
 32 31  2  0  0  0  0
 33 31  1  0  0  0  0
 34 30  1  0  0  0  0
 34 32  1  0  0  0  0
M  END
>  <MODEL>
9

>  <REMARK>
 VINA RESULT:      -5.0      3.369      6.826
  Name = 
  3 active torsions:
  status: ('A' for Active; 'I' for Inactive)
    1  A    between atoms: C_17  and  O_28
    2  A    between atoms: O_28  and  C_29
    3  A    between atoms: C_29  and  C_32
                            x       y       z     vdW  Elec       q    Type
                         _______ _______ _______ _____ _____    ______ ____

>  <TORSDO>
F 3

$$$$
