=
 OpenBabel11122410503D

 32 36  0  0  1  0  0  0  0  0999 V2000
  190.6120  176.7980  139.0000 C   0  0  1  0  0  3  0  0  0  0  0  0
  186.4390  178.2110  136.7700 C   0  0  0  0  0  3  0  0  0  0  0  0
  185.8310  178.3440  138.0190 C   0  0  0  0  0  3  0  0  0  0  0  0
  190.9920  177.2440  141.4840 C   0  0  2  0  0  3  0  0  0  0  0  0
  190.1290  177.1550  142.7540 C   0  0  2  0  0  3  0  0  0  0  0  0
  192.3430  175.7350  137.5590 C   0  0  2  0  0  3  0  0  0  0  0  0
  190.4120  176.8650  136.4900 O   0  0  0  0  0  0  0  0  0  0  0  0
  187.9680  177.4440  143.7080 N   0  0  0  0  0  0  0  0  0  0  0  0
  187.7980  177.9040  136.6830 C   0  0  0  0  0  3  0  0  0  0  0  0
  190.0420  177.4590  137.7360 C   0  0  1  0  0  3  0  0  0  0  0  0
  188.5610  177.7190  137.8450 C   0  0  0  0  0  0  0  0  0  0  0  0
  188.7280  177.6360  140.3910 C   0  0  2  0  0  3  0  0  0  0  0  0
  188.0800  176.0320  143.3650 C   0  0  0  0  0  2  0  0  0  0  0  0
  191.1110  175.6350  136.6300 C   0  0  2  0  0  3  0  0  0  0  0  0
  189.5060  175.7830  142.9020 C   0  0  0  0  0  2  0  0  0  0  0  0
  186.5840  178.1840  139.1840 C   0  0  0  0  0  3  0  0  0  0  0  0
  187.9580  177.9040  139.1140 C   0  0  0  0  0  0  0  0  0  0  0  0
  188.3970  178.6170  141.5040 C   0  0  0  0  0  2  0  0  0  0  0  0
  192.1030  176.6320  138.7800 C   0  0  0  0  0  2  0  0  0  0  0  0
  192.0560  178.1190  141.7040 O   0  0  0  0  0  1  0  0  0  0  0  0
  186.5930  177.8750  143.4780 C   0  0  0  0  0  1  0  0  0  0  0  0
  190.2480  177.6610  140.2020 C   0  0  2  0  0  3  0  0  0  0  0  0
  188.9560  178.1390  142.8710 C   0  0  2  0  0  3  0  0  0  0  0  0
  189.0440  174.3840  135.9910 C   0  0  0  0  0  1  0  0  0  0  0  0
  190.1630  174.4900  137.0120 C   0  0  1  0  0  3  0  0  0  0  0  0
  190.8560  173.2770  137.0670 O   0  0  0  0  0  0  0  0  0  0  0  0
  191.0670  172.9220  135.7310 C   0  0  0  0  0  2  0  0  0  0  0  0
  192.3530  172.1820  135.5980 C   0  0  0  0  0  0  0  0  0  0  0  0
  192.4790  171.2890  134.7200 O   0  0  0  0  0  0  0  0  0  0  0  0
  193.4190  172.4900  136.4310 O   0  0  0  0  0  1  0  0  0  0  0  0
  193.4260  175.8230  135.3160 C   0  0  0  0  0  1  0  0  0  0  0  0
  193.5430  176.2320  136.7710 C   0  0  0  0  0  2  0  0  0  0  0  0
  1 19  1  6  0  0  0
  1 22  1  0  0  0  0
  2  3  1  0  0  0  0
  3 16  2  0  0  0  0
  4 20  1  1  0  0  0
  4  5  1  0  0  0  0
  5 23  1  0  0  0  0
  5 15  1  6  0  0  0
  6 32  1  6  0  0  0
  6 19  1  0  0  0  0
  7 14  1  0  0  0  0
  9  2  2  0  0  0  0
  9 11  1  0  0  0  0
 10  7  1  6  0  0  0
 10 11  1  0  0  0  0
 10  1  1  0  0  0  0
 11 17  2  0  0  0  0
 12 18  1  1  0  0  0
 13  8  1  0  0  0  0
 14 25  1  1  0  0  0
 14  6  1  0  0  0  0
 15 13  1  0  0  0  0
 17 16  1  0  0  0  0
 17 12  1  0  0  0  0
 18 23  1  0  0  0  0
 21  8  1  0  0  0  0
 22 12  1  0  0  0  0
 22  4  1  0  0  0  0
 23  8  1  0  0  0  0
 24 25  1  0  0  0  0
 25 26  1  0  0  0  0
 27 26  1  0  0  0  0
 28 27  1  0  0  0  0
 28 30  1  0  0  0  0
 29 28  2  0  0  0  0
 31 32  1  0  0  0  0
M  END
>  <MODEL>
1

>  <REMARK>
 VINA RESULT:      -6.4      0.000      0.000
  Name = 
  5 active torsions:
  status: ('A' for Active; 'I' for Inactive)
    1  A    between atoms: C_7  and  C_19
    2  A    between atoms: C_10  and  C_17
    3  A    between atoms: C_10  and  O_20
    4  A    between atoms: O_20  and  C_29
    5  A    between atoms: C_29  and  C_30
                            x       y       z     vdW  Elec       q    Type
                         _______ _______ _______ _____ _____    ______ ____

>  <TORSDO>
F 5

$$$$
=
 OpenBabel11122410503D

 32 36  0  0  1  0  0  0  0  0999 V2000
  190.0530  176.7370  138.7970 C   0  0  1  0  0  3  0  0  0  0  0  0
  185.6170  178.5190  137.5590 C   0  0  0  0  0  3  0  0  0  0  0  0
  185.3060  178.6530  138.9130 C   0  0  0  0  0  3  0  0  0  0  0  0
  190.9960  177.0710  141.1450 C   0  0  2  0  0  3  0  0  0  0  0  0
  190.4240  177.0010  142.5710 C   0  0  2  0  0  3  0  0  0  0  0  0
  191.3420  175.6020  136.9940 C   0  0  2  0  0  3  0  0  0  0  0  0
  189.3190  176.9030  136.3940 O   0  0  0  0  0  0  0  0  0  0  0  0
  188.5500  177.4110  143.9800 N   0  0  0  0  0  0  0  0  0  0  0  0
  186.8970  178.1200  137.1720 C   0  0  0  0  0  3  0  0  0  0  0  0
  189.2740  177.4790  137.7000 C   0  0  1  0  0  3  0  0  0  0  0  0
  187.8770  177.8410  138.1350 C   0  0  0  0  0  0  0  0  0  0  0  0
  188.5860  177.6600  140.5800 C   0  0  2  0  0  3  0  0  0  0  0  0
  188.4760  176.0070  143.5960 C   0  0  0  0  0  2  0  0  0  0  0  0
  189.9340  175.6220  136.3560 C   0  0  2  0  0  3  0  0  0  0  0  0
  189.7440  175.6730  142.8280 C   0  0  0  0  0  2  0  0  0  0  0  0
  186.2800  178.4010  139.8820 C   0  0  0  0  0  3  0  0  0  0  0  0
  187.5800  178.0250  139.5080 C   0  0  0  0  0  0  0  0  0  0  0  0
  188.5800  178.6240  141.7560 C   0  0  0  0  0  2  0  0  0  0  0  0
  191.4430  176.4720  138.2530 C   0  0  0  0  0  2  0  0  0  0  0  0
  192.1460  177.8590  141.1420 O   0  0  0  0  0  1  0  0  0  0  0  0
  187.1960  177.9480  144.0640 C   0  0  0  0  0  1  0  0  0  0  0  0
  190.0260  177.5820  140.0640 C   0  0  2  0  0  3  0  0  0  0  0  0
  189.3850  178.0620  142.9590 C   0  0  2  0  0  3  0  0  0  0  0  0
  187.7370  174.4610  136.0840 C   0  0  0  0  0  1  0  0  0  0  0  0
  189.0060  174.5350  136.9160 C   0  0  1  0  0  3  0  0  0  0  0  0
  189.6430  173.2900  136.9010 O   0  0  0  0  0  0  0  0  0  0  0  0
  189.1630  172.6550  135.7510 C   0  0  0  0  0  2  0  0  0  0  0  0
  190.3020  172.1330  134.9460 C   0  0  0  0  0  0  0  0  0  0  0  0
  191.2350  172.9030  134.5990 O   0  0  0  0  0  1  0  0  0  0  0  0
  190.3440  170.7910  134.5950 O   0  0  0  0  0  0  0  0  0  0  0  0
  193.7030  176.3250  136.6490 C   0  0  0  0  0  1  0  0  0  0  0  0
  192.3770  176.0380  135.9710 C   0  0  0  0  0  2  0  0  0  0  0  0
  1 19  1  6  0  0  0
  1 22  1  0  0  0  0
  2  3  1  0  0  0  0
  3 16  2  0  0  0  0
  4 20  1  1  0  0  0
  4  5  1  0  0  0  0
  5 15  1  6  0  0  0
  5 23  1  0  0  0  0
  6 32  1  6  0  0  0
  6 19  1  0  0  0  0
  8 21  1  0  0  0  0
  9  2  2  0  0  0  0
  9 11  1  0  0  0  0
 10  7  1  6  0  0  0
 10 11  1  0  0  0  0
 10  1  1  0  0  0  0
 11 17  2  0  0  0  0
 12 18  1  1  0  0  0
 13  8  1  0  0  0  0
 14  7  1  0  0  0  0
 14 25  1  1  0  0  0
 14  6  1  0  0  0  0
 15 13  1  0  0  0  0
 17 16  1  0  0  0  0
 17 12  1  0  0  0  0
 18 23  1  0  0  0  0
 22 12  1  0  0  0  0
 22  4  1  0  0  0  0
 23  8  1  0  0  0  0
 24 25  1  0  0  0  0
 26 25  1  0  0  0  0
 27 26  1  0  0  0  0
 28 27  1  0  0  0  0
 29 28  1  0  0  0  0
 30 28  2  0  0  0  0
 32 31  1  0  0  0  0
M  END
>  <MODEL>
2

>  <REMARK>
 VINA RESULT:      -6.0      1.038      1.254
  Name = 
  5 active torsions:
  status: ('A' for Active; 'I' for Inactive)
    1  A    between atoms: C_7  and  C_19
    2  A    between atoms: C_10  and  C_17
    3  A    between atoms: C_10  and  O_20
    4  A    between atoms: O_20  and  C_29
    5  A    between atoms: C_29  and  C_30
                            x       y       z     vdW  Elec       q    Type
                         _______ _______ _______ _____ _____    ______ ____

>  <TORSDO>
F 5

$$$$
=
 OpenBabel11122410503D

 32 36  0  0  1  0  0  0  0  0999 V2000
  189.2520  176.9140  138.7700 C   0  0  1  0  0  3  0  0  0  0  0  0
  184.7450  178.9270  138.9180 C   0  0  0  0  0  3  0  0  0  0  0  0
  184.8470  179.0210  140.3070 C   0  0  0  0  0  3  0  0  0  0  0  0
  190.8490  177.1170  140.7490 C   0  0  2  0  0  3  0  0  0  0  0  0
  190.7120  177.0170  142.2780 C   0  0  2  0  0  3  0  0  0  0  0  0
  189.9050  175.7960  136.6420 C   0  0  2  0  0  3  0  0  0  0  0  0
  187.8640  177.2020  136.6880 O   0  0  0  0  0  0  0  0  0  0  0  0
  189.3490  177.4500  144.1810 N   0  0  0  0  0  0  0  0  0  0  0  0
  185.8360  178.4890  138.1660 C   0  0  0  0  0  3  0  0  0  0  0  0
  188.2290  177.7290  137.9650 C   0  0  1  0  0  3  0  0  0  0  0  0
  187.0370  178.1330  138.7960 C   0  0  0  0  0  0  0  0  0  0  0  0
  188.4120  177.8280  140.9240 C   0  0  2  0  0  3  0  0  0  0  0  0
  189.0950  176.0660  143.8000 C   0  0  0  0  0  2  0  0  0  0  0  0
  188.3750  175.8990  136.4410 C   0  0  2  0  0  3  0  0  0  0  0  0
  190.0680  175.7090  142.6880 C   0  0  0  0  0  2  0  0  0  0  0  0
  186.0440  178.6910  140.9450 C   0  0  0  0  0  3  0  0  0  0  0  0
  187.1590  178.2760  140.2000 C   0  0  0  0  0  0  0  0  0  0  0  0
  188.7970  178.7450  142.0740 C   0  0  0  0  0  2  0  0  0  0  0  0
  190.4090  176.6120  137.8390 C   0  0  0  0  0  2  0  0  0  0  0  0
  191.9880  177.8560  140.4310 O   0  0  0  0  0  1  0  0  0  0  0  0
  188.1060  178.0400  144.6680 C   0  0  0  0  0  1  0  0  0  0  0  0
  189.6350  177.7100  140.0100 C   0  0  2  0  0  3  0  0  0  0  0  0
  189.8840  178.1040  142.9770 C   0  0  2  0  0  3  0  0  0  0  0  0
  186.1260  174.8820  136.8340 C   0  0  0  0  0  1  0  0  0  0  0  0
  187.5950  174.8310  137.2200 C   0  0  1  0  0  3  0  0  0  0  0  0
  188.1010  173.5570  136.9480 O   0  0  0  0  0  0  0  0  0  0  0  0
  186.9900  172.8070  136.5480 C   0  0  0  0  0  2  0  0  0  0  0  0
  187.4310  171.6400  135.7350 C   0  0  0  0  0  0  0  0  0  0  0  0
  188.6450  171.5020  135.4350 O   0  0  0  0  0  1  0  0  0  0  0  0
  186.5030  170.6910  135.3260 O   0  0  0  0  0  0  0  0  0  0  0  0
  191.8990  175.4330  135.1920 C   0  0  0  0  0  1  0  0  0  0  0  0
  190.6210  176.2270  135.3740 C   0  0  0  0  0  2  0  0  0  0  0  0
  1 19  1  6  0  0  0
  1 22  1  0  0  0  0
  2  3  1  0  0  0  0
  3 16  2  0  0  0  0
  4 20  1  1  0  0  0
  4  5  1  0  0  0  0
  5 15  1  6  0  0  0
  5 23  1  0  0  0  0
  6 32  1  6  0  0  0
  6 19  1  0  0  0  0
  8 21  1  0  0  0  0
  9 11  1  0  0  0  0
  9  2  2  0  0  0  0
 10  7  1  6  0  0  0
 10  1  1  0  0  0  0
 10 11  1  0  0  0  0
 11 17  2  0  0  0  0
 12 18  1  1  0  0  0
 13  8  1  0  0  0  0
 14  6  1  0  0  0  0
 14  7  1  0  0  0  0
 14 25  1  1  0  0  0
 15 13  1  0  0  0  0
 17 12  1  0  0  0  0
 17 16  1  0  0  0  0
 18 23  1  0  0  0  0
 22  4  1  0  0  0  0
 22 12  1  0  0  0  0
 23  8  1  0  0  0  0
 24 25  1  0  0  0  0
 26 25  1  0  0  0  0
 27 26  1  0  0  0  0
 28 27  1  0  0  0  0
 29 28  1  0  0  0  0
 30 28  2  0  0  0  0
 31 32  1  0  0  0  0
M  END
>  <MODEL>
3

>  <REMARK>
 VINA RESULT:      -6.0      1.947      2.616
  Name = 
  5 active torsions:
  status: ('A' for Active; 'I' for Inactive)
    1  A    between atoms: C_7  and  C_19
    2  A    between atoms: C_10  and  C_17
    3  A    between atoms: C_10  and  O_20
    4  A    between atoms: O_20  and  C_29
    5  A    between atoms: C_29  and  C_30
                            x       y       z     vdW  Elec       q    Type
                         _______ _______ _______ _____ _____    ______ ____

>  <TORSDO>
F 5

$$$$
=
 OpenBabel11122410503D

 32 36  0  0  1  0  0  0  0  0999 V2000
  184.2660  177.4190  137.8640 C   0  0  1  0  0  3  0  0  0  0  0  0
  189.1660  177.7780  138.3600 C   0  0  0  0  0  3  0  0  0  0  0  0
  189.3000  176.4860  137.8490 C   0  0  0  0  0  3  0  0  0  0  0  0
  183.2230  175.6340  136.3690 C   0  0  2  0  0  3  0  0  0  0  0  0
  183.4910  174.1440  136.0980 C   0  0  2  0  0  3  0  0  0  0  0  0
  182.8960  179.1230  139.0570 C   0  0  2  0  0  3  0  0  0  0  0  0
  185.3460  179.4560  138.8780 O   0  0  0  0  0  0  0  0  0  0  0  0
  185.1280  172.4290  135.8810 N   0  0  0  0  0  0  0  0  0  0  0  0
  187.9120  178.3890  138.3960 C   0  0  0  0  0  3  0  0  0  0  0  0
  185.4410  178.4080  137.9110 C   0  0  1  0  0  3  0  0  0  0  0  0
  186.7770  177.7100  137.9300 C   0  0  0  0  0  0  0  0  0  0  0  0
  185.7060  175.6230  136.9230 C   0  0  2  0  0  3  0  0  0  0  0  0
  184.6470  172.3660  137.2550 C   0  0  0  0  0  2  0  0  0  0  0  0
  184.2540  179.3080  139.7740 C   0  0  2  0  0  3  0  0  0  0  0  0
  183.4880  173.3400  137.3820 C   0  0  0  0  0  2  0  0  0  0  0  0
  188.1820  175.8080  137.3610 C   0  0  0  0  0  3  0  0  0  0  0  0
  186.9180  176.4180  137.3640 C   0  0  0  0  0  0  0  0  0  0  0  0
  185.9510  174.8150  135.6590 C   0  0  0  0  0  2  0  0  0  0  0  0
  182.9950  178.2420  137.8050 C   0  0  0  0  0  2  0  0  0  0  0  0
  182.5380  176.1880  135.2880 O   0  0  0  0  0  1  0  0  0  0  0  0
  186.5530  172.1140  135.8660 C   0  0  0  0  0  1  0  0  0  0  0  0
  184.4670  176.4880  136.6750 C   0  0  2  0  0  3  0  0  0  0  0  0
  184.8160  173.7870  135.4090 C   0  0  2  0  0  3  0  0  0  0  0  0
  185.8610  178.4920  141.5050 C   0  0  0  0  0  1  0  0  0  0  0  0
  184.5290  178.2240  140.8250 C   0  0  1  0  0  3  0  0  0  0  0  0
  183.5150  178.2020  141.7860 O   0  0  0  0  0  0  0  0  0  0  0  0
  184.1230  178.6540  142.9610 C   0  0  0  0  0  2  0  0  0  0  0  0
  183.0880  178.9310  143.9960 C   0  0  0  0  0  0  0  0  0  0  0  0
  181.8740  178.9960  143.6730 O   0  0  0  0  0  0  0  0  0  0  0  0
  183.4620  179.0980  145.3220 O   0  0  0  0  0  1  0  0  0  0  0  0
  181.2720  180.3370  137.6070 C   0  0  0  0  0  1  0  0  0  0  0  0
  182.3130  180.4790  138.7000 C   0  0  0  0  0  2  0  0  0  0  0  0
  1 19  1  6  0  0  0
  1 10  1  0  0  0  0
  2  9  1  0  0  0  0
  3  2  2  0  0  0  0
  4 20  1  6  0  0  0
  4 22  1  0  0  0  0
  5  4  1  0  0  0  0
  5 15  1  1  0  0  0
  6 32  1  6  0  0  0
  6 14  1  0  0  0  0
  7 14  1  0  0  0  0
  8 13  1  0  0  0  0
 10 11  1  1  0  0  0
 10  7  1  0  0  0  0
 11  9  2  0  0  0  0
 12 18  1  6  0  0  0
 12 17  1  0  0  0  0
 13 15  1  0  0  0  0
 14 25  1  1  0  0  0
 16 17  2  0  0  0  0
 16  3  1  0  0  0  0
 17 11  1  0  0  0  0
 19  6  1  0  0  0  0
 21  8  1  0  0  0  0
 22 12  1  0  0  0  0
 22  1  1  0  0  0  0
 23 18  1  0  0  0  0
 23  8  1  0  0  0  0
 23  5  1  0  0  0  0
 25 24  1  0  0  0  0
 25 26  1  0  0  0  0
 26 27  1  0  0  0  0
 27 28  1  0  0  0  0
 28 30  1  0  0  0  0
 29 28  2  0  0  0  0
 31 32  1  0  0  0  0
M  END
>  <MODEL>
4

>  <REMARK>
 VINA RESULT:      -5.9      4.830      9.052
  Name = 
  5 active torsions:
  status: ('A' for Active; 'I' for Inactive)
    1  A    between atoms: C_7  and  C_19
    2  A    between atoms: C_10  and  C_17
    3  A    between atoms: C_10  and  O_20
    4  A    between atoms: O_20  and  C_29
    5  A    between atoms: C_29  and  C_30
                            x       y       z     vdW  Elec       q    Type
                         _______ _______ _______ _____ _____    ______ ____

>  <TORSDO>
F 5

$$$$
=
 OpenBabel11122410503D

 32 36  0  0  1  0  0  0  0  0999 V2000
  185.7370  177.3230  136.9730 C   0  0  1  0  0  3  0  0  0  0  0  0
  185.6490  179.0450  141.6010 C   0  0  0  0  0  3  0  0  0  0  0  0
  187.0100  178.7580  141.7200 C   0  0  0  0  0  3  0  0  0  0  0  0
  187.9400  177.0360  135.7180 C   0  0  2  0  0  3  0  0  0  0  0  0
  189.3410  176.5140  136.0780 C   0  0  2  0  0  3  0  0  0  0  0  0
  183.5310  176.8580  135.9140 C   0  0  2  0  0  3  0  0  0  0  0  0
  183.6020  178.1190  138.0470 O   0  0  0  0  0  0  0  0  0  0  0  0
  191.0320  176.3560  137.7460 N   0  0  0  0  0  0  0  0  0  0  0  0
  185.0040  178.8720  140.3750 C   0  0  0  0  0  3  0  0  0  0  0  0
  185.0160  178.2890  137.9260 C   0  0  1  0  0  3  0  0  0  0  0  0
  185.7100  178.4030  139.2590 C   0  0  0  0  0  0  0  0  0  0  0  0
  187.8830  177.5780  138.2030 C   0  0  2  0  0  3  0  0  0  0  0  0
  190.2620  175.1220  137.8230 C   0  0  0  0  0  2  0  0  0  0  0  0
  183.1100  176.9540  137.3980 C   0  0  2  0  0  3  0  0  0  0  0  0
  189.2760  175.1200  136.6670 C   0  0  0  0  0  2  0  0  0  0  0  0
  187.7300  178.3110  140.6100 C   0  0  0  0  0  3  0  0  0  0  0  0
  187.1020  178.1600  139.3640 C   0  0  0  0  0  0  0  0  0  0  0  0
  189.2820  178.1580  138.0760 C   0  0  0  0  0  2  0  0  0  0  0  0
  184.9690  177.3330  135.6660 C   0  0  0  0  0  2  0  0  0  0  0  0
  188.0260  177.8760  134.6090 O   0  0  0  0  0  1  0  0  0  0  0  0
  191.4410  176.7410  139.0920 C   0  0  0  0  0  1  0  0  0  0  0  0
  187.1900  177.7620  136.8500 C   0  0  2  0  0  3  0  0  0  0  0  0
  190.1530  177.3360  137.0890 C   0  0  2  0  0  3  0  0  0  0  0  0
  182.5680  175.6240  139.4430 C   0  0  0  0  0  1  0  0  0  0  0  0
  183.4340  175.6850  138.1970 C   0  0  1  0  0  3  0  0  0  0  0  0
  183.2090  174.5450  137.4210 O   0  0  0  0  0  0  0  0  0  0  0  0
  184.3530  173.7600  137.5930 C   0  0  0  0  0  2  0  0  0  0  0  0
  184.1410  172.4130  136.9950 C   0  0  0  0  0  0  0  0  0  0  0  0
  185.0470  171.8790  136.3040 O   0  0  0  0  0  0  0  0  0  0  0  0
  182.9500  171.7350  137.2190 O   0  0  0  0  0  1  0  0  0  0  0  0
  181.2010  177.7210  135.7150 C   0  0  0  0  0  1  0  0  0  0  0  0
  182.5620  177.6480  135.0510 C   0  0  0  0  0  2  0  0  0  0  0  0
  1 19  1  6  0  0  0
  1 10  1  0  0  0  0
  2  3  1  0  0  0  0
  4 20  1  6  0  0  0
  4  5  1  0  0  0  0
  4 22  1  0  0  0  0
  5 15  1  1  0  0  0
  5 23  1  0  0  0  0
  6 32  1  6  0  0  0
  6 14  1  0  0  0  0
  8 13  1  0  0  0  0
  8 21  1  0  0  0  0
  9  2  2  0  0  0  0
 10  7  1  1  0  0  0
 10 11  1  0  0  0  0
 11 17  2  0  0  0  0
 11  9  1  0  0  0  0
 12 18  1  6  0  0  0
 12 17  1  0  0  0  0
 14  7  1  0  0  0  0
 14 25  1  1  0  0  0
 15 13  1  0  0  0  0
 16  3  2  0  0  0  0
 17 16  1  0  0  0  0
 19  6  1  0  0  0  0
 22  1  1  0  0  0  0
 22 12  1  0  0  0  0
 23  8  1  0  0  0  0
 23 18  1  0  0  0  0
 25 24  1  0  0  0  0
 26 27  1  0  0  0  0
 26 25  1  0  0  0  0
 28 30  1  0  0  0  0
 28 27  1  0  0  0  0
 29 28  2  0  0  0  0
 32 31  1  0  0  0  0
M  END
>  <MODEL>
5

>  <REMARK>
 VINA RESULT:      -5.6      3.746      6.882
  Name = 
  5 active torsions:
  status: ('A' for Active; 'I' for Inactive)
    1  A    between atoms: C_7  and  C_19
    2  A    between atoms: C_10  and  C_17
    3  A    between atoms: C_10  and  O_20
    4  A    between atoms: O_20  and  C_29
    5  A    between atoms: C_29  and  C_30
                            x       y       z     vdW  Elec       q    Type
                         _______ _______ _______ _____ _____    ______ ____

>  <TORSDO>
F 5

$$$$
=
 OpenBabel11122410503D

 32 36  0  0  1  0  0  0  0  0999 V2000
  188.5950  177.0780  139.3810 C   0  0  1  0  0  3  0  0  0  0  0  0
  193.5260  176.9690  139.6170 C   0  0  0  0  0  3  0  0  0  0  0  0
  193.5460  176.0770  138.5440 C   0  0  0  0  0  3  0  0  0  0  0  0
  187.3590  176.2710  137.3000 C   0  0  2  0  0  3  0  0  0  0  0  0
  187.5100  175.0850  136.3320 C   0  0  2  0  0  3  0  0  0  0  0  0
  187.4060  178.0520  141.3410 C   0  0  2  0  0  3  0  0  0  0  0  0
  189.8610  178.3360  141.1580 O   0  0  0  0  0  0  0  0  0  0  0  0
  189.0120  173.6240  135.2010 N   0  0  0  0  0  0  0  0  0  0  0  0
  192.3210  177.5340  140.0340 C   0  0  0  0  0  3  0  0  0  0  0  0
  189.8360  177.8780  139.8050 C   0  0  1  0  0  3  0  0  0  0  0  0
  191.1200  177.2060  139.3890 C   0  0  0  0  0  0  0  0  0  0  0  0
  189.8600  175.9010  137.5930 C   0  0  2  0  0  3  0  0  0  0  0  0
  188.5940  172.9280  136.4120 C   0  0  0  0  0  2  0  0  0  0  0  0
  188.8050  177.8180  141.9560 C   0  0  2  0  0  3  0  0  0  0  0  0
  187.5120  173.7650  137.0740 C   0  0  0  0  0  2  0  0  0  0  0  0
  192.3600  175.7590  137.8780 C   0  0  0  0  0  3  0  0  0  0  0  0
  191.1440  176.3400  138.2670 C   0  0  0  0  0  0  0  0  0  0  0  0
  189.9870  175.7900  136.0820 C   0  0  0  0  0  2  0  0  0  0  0  0
  187.3830  177.8770  139.8180 C   0  0  0  0  0  2  0  0  0  0  0  0
  186.6640  177.3010  136.6680 O   0  0  0  0  0  1  0  0  0  0  0  0
  190.4090  173.3000  134.9310 C   0  0  0  0  0  1  0  0  0  0  0  0
  188.6730  176.8250  137.8810 C   0  0  2  0  0  3  0  0  0  0  0  0
  188.7730  175.0520  135.4590 C   0  0  2  0  0  3  0  0  0  0  0  0
  190.5160  176.1590  142.7080 C   0  0  0  0  0  1  0  0  0  0  0  0
  189.0550  176.3530  142.3390 C   0  0  1  0  0  3  0  0  0  0  0  0
  188.2510  175.9840  143.4210 O   0  0  0  0  0  0  0  0  0  0  0  0
  188.7150  176.7530  144.4920 C   0  0  0  0  0  2  0  0  0  0  0  0
  187.5630  177.3240  145.2440 C   0  0  0  0  0  0  0  0  0  0  0  0
  186.4100  177.3080  144.7410 O   0  0  0  0  0  0  0  0  0  0  0  0
  187.7600  177.8570  146.5110 O   0  0  0  0  0  1  0  0  0  0  0  0
  185.4340  179.3780  142.0940 C   0  0  0  0  0  1  0  0  0  0  0  0
  186.9020  179.4340  141.7180 C   0  0  0  0  0  2  0  0  0  0  0  0
  1 10  1  0  0  0  0
  1 19  1  6  0  0  0
  2  9  1  0  0  0  0
  3  2  2  0  0  0  0
  4 20  1  6  0  0  0
  4 22  1  0  0  0  0
  5 15  1  1  0  0  0
  5  4  1  0  0  0  0
  6 32  1  6  0  0  0
  6 14  1  0  0  0  0
  7 14  1  0  0  0  0
  8 23  1  0  0  0  0
  8 13  1  0  0  0  0
 10 11  1  1  0  0  0
 10  7  1  0  0  0  0
 11  9  2  0  0  0  0
 12 18  1  6  0  0  0
 12 22  1  0  0  0  0
 12 17  1  0  0  0  0
 13 15  1  0  0  0  0
 14 25  1  6  0  0  0
 16 17  2  0  0  0  0
 16  3  1  0  0  0  0
 17 11  1  0  0  0  0
 19  6  1  0  0  0  0
 21  8  1  0  0  0  0
 22  1  1  0  0  0  0
 23 18  1  0  0  0  0
 23  5  1  0  0  0  0
 25 24  1  0  0  0  0
 25 26  1  0  0  0  0
 26 27  1  0  0  0  0
 27 28  1  0  0  0  0
 28 30  1  0  0  0  0
 29 28  2  0  0  0  0
 32 31  1  0  0  0  0
M  END
>  <MODEL>
6

>  <REMARK>
 VINA RESULT:      -5.5      3.270      7.575
  Name = 
  5 active torsions:
  status: ('A' for Active; 'I' for Inactive)
    1  A    between atoms: C_7  and  C_19
    2  A    between atoms: C_10  and  C_17
    3  A    between atoms: C_10  and  O_20
    4  A    between atoms: O_20  and  C_29
    5  A    between atoms: C_29  and  C_30
                            x       y       z     vdW  Elec       q    Type
                         _______ _______ _______ _____ _____    ______ ____

>  <TORSDO>
F 5

$$$$
=
 OpenBabel11122410503D

 32 36  0  0  1  0  0  0  0  0999 V2000
  181.8840  179.3150  138.5630 C   0  0  1  0  0  3  0  0  0  0  0  0
  179.7650  179.4760  143.0210 C   0  0  0  0  0  3  0  0  0  0  0  0
  179.2450  180.7340  142.7150 C   0  0  0  0  0  3  0  0  0  0  0  0
  181.1290  180.8770  136.6910 C   0  0  2  0  0  3  0  0  0  0  0  0
  180.7420  182.3630  136.5990 C   0  0  2  0  0  3  0  0  0  0  0  0
  183.6320  177.5760  138.2210 C   0  0  2  0  0  3  0  0  0  0  0  0
  182.2100  177.4730  140.2480 O   0  0  0  0  0  0  0  0  0  0  0  0
  179.6870  184.2100  137.6680 N   0  0  0  0  0  0  0  0  0  0  0  0
  180.4550  178.7490  142.0490 C   0  0  0  0  0  3  0  0  0  0  0  0
  181.3240  178.4520  139.7040 C   0  0  1  0  0  3  0  0  0  0  0  0
  180.6390  179.2780  140.7630 C   0  0  0  0  0  0  0  0  0  0  0  0
  180.3120  181.1710  139.0830 C   0  0  2  0  0  3  0  0  0  0  0  0
  181.1110  184.3240  137.9600 C   0  0  0  0  0  2  0  0  0  0  0  0
  183.5430  177.5770  139.7640 C   0  0  2  0  0  3  0  0  0  0  0  0
  181.8320  183.2520  137.1590 C   0  0  0  0  0  2  0  0  0  0  0  0
  179.4020  181.2620  141.4320 C   0  0  0  0  0  3  0  0  0  0  0  0
  180.0680  180.5330  140.4350 C   0  0  0  0  0  0  0  0  0  0  0  0
  179.0960  181.9070  138.5430 C   0  0  0  0  0  2  0  0  0  0  0  0
  182.5020  178.3690  137.5530 C   0  0  0  0  0  2  0  0  0  0  0  0
  180.5670  180.1820  135.6210 O   0  0  0  0  0  1  0  0  0  0  0  0
  178.9310  184.6620  138.8320 C   0  0  0  0  0  1  0  0  0  0  0  0
  180.7530  180.1730  138.0090 C   0  0  2  0  0  3  0  0  0  0  0  0
  179.4610  182.7970  137.3260 C   0  0  2  0  0  3  0  0  0  0  0  0
  184.2850  178.6020  141.9190 C   0  0  0  0  0  1  0  0  0  0  0  0
  184.2850  178.7560  140.4080 C   0  0  1  0  0  3  0  0  0  0  0  0
  185.6040  178.8150  139.9480 O   0  0  0  0  0  0  0  0  0  0  0  0
  186.3910  178.6690  141.0940 C   0  0  0  0  0  2  0  0  0  0  0  0
  187.8270  178.5550  140.7150 C   0  0  0  0  0  0  0  0  0  0  0  0
  188.1700  178.6540  139.5080 O   0  0  0  0  0  0  0  0  0  0  0  0
  188.7890  178.3610  141.6960 O   0  0  0  0  0  1  0  0  0  0  0  0
  185.0130  175.7950  137.1550 C   0  0  0  0  0  1  0  0  0  0  0  0
  183.6450  176.1470  137.7070 C   0  0  0  0  0  2  0  0  0  0  0  0
  1 19  1  6  0  0  0
  1 10  1  0  0  0  0
  3  2  1  0  0  0  0
  4 20  1  6  0  0  0
  4 22  1  0  0  0  0
  5  4  1  0  0  0  0
  5 15  1  1  0  0  0
  5 23  1  0  0  0  0
  6 32  1  6  0  0  0
  6 14  1  0  0  0  0
  8 13  1  0  0  0  0
  8 21  1  0  0  0  0
  9  2  2  0  0  0  0
 10  7  1  1  0  0  0
 10 11  1  0  0  0  0
 11  9  1  0  0  0  0
 12 18  1  6  0  0  0
 12 17  1  0  0  0  0
 14  7  1  0  0  0  0
 14 25  1  6  0  0  0
 15 13  1  0  0  0  0
 16  3  2  0  0  0  0
 17 11  2  0  0  0  0
 17 16  1  0  0  0  0
 19  6  1  0  0  0  0
 22  1  1  0  0  0  0
 22 12  1  0  0  0  0
 23  8  1  0  0  0  0
 23 18  1  0  0  0  0
 25 24  1  0  0  0  0
 26 25  1  0  0  0  0
 26 27  1  0  0  0  0
 28 27  1  0  0  0  0
 28 30  1  0  0  0  0
 29 28  2  0  0  0  0
 31 32  1  0  0  0  0
M  END
>  <MODEL>
7

>  <REMARK>
 VINA RESULT:      -5.4      6.261      9.904
  Name = 
  5 active torsions:
  status: ('A' for Active; 'I' for Inactive)
    1  A    between atoms: C_7  and  C_19
    2  A    between atoms: C_10  and  C_17
    3  A    between atoms: C_10  and  O_20
    4  A    between atoms: O_20  and  C_29
    5  A    between atoms: C_29  and  C_30
                            x       y       z     vdW  Elec       q    Type
                         _______ _______ _______ _____ _____    ______ ____

>  <TORSDO>
F 5

$$$$
=
 OpenBabel11122410503D

 32 36  0  0  1  0  0  0  0  0999 V2000
  185.5230  177.4490  137.0130 C   0  0  1  0  0  3  0  0  0  0  0  0
  185.6050  179.0060  141.6990 C   0  0  0  0  0  3  0  0  0  0  0  0
  186.9670  178.7060  141.7620 C   0  0  0  0  0  3  0  0  0  0  0  0
  187.6800  177.1900  135.6750 C   0  0  2  0  0  3  0  0  0  0  0  0
  189.0880  176.6460  135.9690 C   0  0  2  0  0  3  0  0  0  0  0  0
  183.2790  177.0390  136.0130 C   0  0  2  0  0  3  0  0  0  0  0  0
  183.4320  178.2220  138.1860 O   0  0  0  0  0  0  0  0  0  0  0  0
  190.8330  176.4160  137.5720 N   0  0  0  0  0  0  0  0  0  0  0  0
  184.9170  178.8820  140.4910 C   0  0  0  0  0  3  0  0  0  0  0  0
  184.8430  178.3860  138.0230 C   0  0  1  0  0  3  0  0  0  0  0  0
  185.5820  178.4480  139.3350 C   0  0  0  0  0  0  0  0  0  0  0  0
  187.7110  177.6440  138.1780 C   0  0  2  0  0  3  0  0  0  0  0  0
  190.0550  175.1860  137.6320 C   0  0  0  0  0  2  0  0  0  0  0  0
  182.9080  177.0850  137.5140 C   0  0  2  0  0  3  0  0  0  0  0  0
  189.0310  175.2330  136.5100 C   0  0  0  0  0  2  0  0  0  0  0  0
  187.6450  178.2930  140.6140 C   0  0  0  0  0  3  0  0  0  0  0  0
  186.9750  178.1910  139.3850 C   0  0  0  0  0  0  0  0  0  0  0  0
  189.1110  178.2180  138.0240 C   0  0  0  0  0  2  0  0  0  0  0  0
  184.7110  177.5110  135.7340 C   0  0  0  0  0  2  0  0  0  0  0  0
  187.7370  178.0690  134.5940 O   0  0  0  0  0  1  0  0  0  0  0  0
  191.2900  176.7510  138.9170 C   0  0  0  0  0  1  0  0  0  0  0  0
  186.9750  177.8820  136.8570 C   0  0  2  0  0  3  0  0  0  0  0  0
  189.9410  177.4250  136.9800 C   0  0  2  0  0  3  0  0  0  0  0  0
  182.3460  175.6330  139.4690 C   0  0  0  0  0  1  0  0  0  0  0  0
  183.2490  175.7860  138.2560 C   0  0  1  0  0  3  0  0  0  0  0  0
  183.0840  174.6820  137.4150 O   0  0  0  0  0  0  0  0  0  0  0  0
  181.7750  174.2490  137.6410 C   0  0  0  0  0  2  0  0  0  0  0  0
  181.1930  173.7060  136.3820 C   0  0  0  0  0  0  0  0  0  0  0  0
  181.7030  172.6940  135.8360 O   0  0  0  0  0  1  0  0  0  0  0  0
  180.0740  174.3070  135.8210 O   0  0  0  0  0  0  0  0  0  0  0  0
  180.9090  177.7910  135.8370 C   0  0  0  0  0  1  0  0  0  0  0  0
  182.2890  177.8660  135.2120 C   0  0  0  0  0  2  0  0  0  0  0  0
  1 19  1  6  0  0  0
  1 10  1  0  0  0  0
  2  3  1  0  0  0  0
  4 20  1  6  0  0  0
  4  5  1  0  0  0  0
  4 22  1  0  0  0  0
  5 15  1  1  0  0  0
  5 23  1  0  0  0  0
  6 32  1  6  0  0  0
  6 14  1  0  0  0  0
  8 13  1  0  0  0  0
  8 21  1  0  0  0  0
  9  2  2  0  0  0  0
 10  7  1  1  0  0  0
 10 11  1  0  0  0  0
 11 17  2  0  0  0  0
 11  9  1  0  0  0  0
 12 18  1  6  0  0  0
 12 17  1  0  0  0  0
 14  7  1  0  0  0  0
 14 25  1  1  0  0  0
 15 13  1  0  0  0  0
 16  3  2  0  0  0  0
 17 16  1  0  0  0  0
 19  6  1  0  0  0  0
 22  1  1  0  0  0  0
 22 12  1  0  0  0  0
 23  8  1  0  0  0  0
 23 18  1  0  0  0  0
 25 24  1  0  0  0  0
 26 27  1  0  0  0  0
 26 25  1  0  0  0  0
 28 27  1  0  0  0  0
 29 28  1  0  0  0  0
 30 28  2  0  0  0  0
 32 31  1  0  0  0  0
M  END
>  <MODEL>
8

>  <REMARK>
 VINA RESULT:      -5.2      4.290      7.514
  Name = 
  5 active torsions:
  status: ('A' for Active; 'I' for Inactive)
    1  A    between atoms: C_7  and  C_19
    2  A    between atoms: C_10  and  C_17
    3  A    between atoms: C_10  and  O_20
    4  A    between atoms: O_20  and  C_29
    5  A    between atoms: C_29  and  C_30
                            x       y       z     vdW  Elec       q    Type
                         _______ _______ _______ _____ _____    ______ ____

>  <TORSDO>
F 5

$$$$
=
 OpenBabel11122410503D

 32 36  0  0  1  0  0  0  0  0999 V2000
  186.0850  177.7510  138.8760 C   0  0  1  0  0  3  0  0  0  0  0  0
  182.1500  178.7280  141.6960 C   0  0  0  0  0  3  0  0  0  0  0  0
  182.9680  178.6940  142.8270 C   0  0  0  0  0  3  0  0  0  0  0  0
  188.4540  178.0790  139.7640 C   0  0  2  0  0  3  0  0  0  0  0  0
  189.1710  177.7890  141.0940 C   0  0  2  0  0  3  0  0  0  0  0  0
  185.6290  177.0320  136.5350 C   0  0  2  0  0  3  0  0  0  0  0  0
  183.7740  177.9570  137.8950 O   0  0  0  0  0  0  0  0  0  0  0  0
  188.9990  177.7170  143.4670 N   0  0  0  0  0  0  0  0  0  0  0  0
  182.7130  178.6160  140.4240 C   0  0  0  0  0  3  0  0  0  0  0  0
  184.6970  178.4110  138.8870 C   0  0  1  0  0  3  0  0  0  0  0  0
  184.0970  178.4600  140.2690 C   0  0  0  0  0  0  0  0  0  0  0  0
  186.4250  178.2310  141.2920 C   0  0  2  0  0  3  0  0  0  0  0  0
  188.7560  176.3590  142.9950 C   0  0  0  0  0  2  0  0  0  0  0  0
  184.2310  176.8270  137.1650 C   0  0  2  0  0  3  0  0  0  0  0  0
  189.0170  176.3380  141.4990 C   0  0  0  0  0  2  0  0  0  0  0  0
  184.3510  178.5610  142.6860 C   0  0  0  0  0  3  0  0  0  0  0  0
  184.9350  178.4760  141.4130 C   0  0  0  0  0  0  0  0  0  0  0  0
  187.2480  179.0810  142.2470 C   0  0  0  0  0  2  0  0  0  0  0  0
  186.5900  177.8040  137.4470 C   0  0  0  0  0  2  0  0  0  0  0  0
  189.1430  179.0740  139.0710 O   0  0  0  0  0  1  0  0  0  0  0  0
  188.1490  177.9720  144.6250 C   0  0  0  0  0  1  0  0  0  0  0  0
  186.9700  178.4750  139.8820 C   0  0  2  0  0  3  0  0  0  0  0  0
  188.7200  178.5950  142.3200 C   0  0  2  0  0  3  0  0  0  0  0  0
  182.6890  175.3110  138.4170 C   0  0  0  0  0  1  0  0  0  0  0  0
  184.1300  175.5400  137.9950 C   0  0  1  0  0  3  0  0  0  0  0  0
  184.5770  174.4410  137.2560 O   0  0  0  0  0  0  0  0  0  0  0  0
  183.4770  173.5810  137.1900 C   0  0  0  0  0  2  0  0  0  0  0  0
  183.9270  172.2050  136.8430 C   0  0  0  0  0  0  0  0  0  0  0  0
  183.2260  171.2110  137.1660 O   0  0  0  0  0  1  0  0  0  0  0  0
  185.1130  172.0190  136.1450 O   0  0  0  0  0  0  0  0  0  0  0  0
  186.8590  177.9950  134.5940 C   0  0  0  0  0  1  0  0  0  0  0  0
  185.4930  177.7380  135.1980 C   0  0  0  0  0  2  0  0  0  0  0  0
  1 19  1  6  0  0  0
  1 10  1  0  0  0  0
  1 22  1  0  0  0  0
  2  3  1  0  0  0  0
  4 20  1  1  0  0  0
  4 22  1  0  0  0  0
  4  5  1  0  0  0  0
  5 15  1  1  0  0  0
  5 23  1  0  0  0  0
  6 32  1  6  0  0  0
  6 14  1  0  0  0  0
  6 19  1  0  0  0  0
  8 21  1  0  0  0  0
  9  2  2  0  0  0  0
 10  7  1  6  0  0  0
 10 11  1  0  0  0  0
 11  9  1  0  0  0  0
 11 17  2  0  0  0  0
 12 17  1  0  0  0  0
 12 18  1  1  0  0  0
 13  8  1  0  0  0  0
 14  7  1  0  0  0  0
 14 25  1  1  0  0  0
 15 13  1  0  0  0  0
 16  3  2  0  0  0  0
 17 16  1  0  0  0  0
 18 23  1  0  0  0  0
 22 12  1  0  0  0  0
 23  8  1  0  0  0  0
 25 24  1  0  0  0  0
 26 25  1  0  0  0  0
 27 26  1  0  0  0  0
 28 29  1  0  0  0  0
 28 27  1  0  0  0  0
 30 28  2  0  0  0  0
 31 32  1  0  0  0  0
M  END
>  <MODEL>
9

>  <REMARK>
 VINA RESULT:      -5.0      4.071      5.591
  Name = 
  5 active torsions:
  status: ('A' for Active; 'I' for Inactive)
    1  A    between atoms: C_7  and  C_19
    2  A    between atoms: C_10  and  C_17
    3  A    between atoms: C_10  and  O_20
    4  A    between atoms: O_20  and  C_29
    5  A    between atoms: C_29  and  C_30
                            x       y       z     vdW  Elec       q    Type
                         _______ _______ _______ _____ _____    ______ ____

>  <TORSDO>
F 5

$$$$
