=
 OpenBabel11122411063D

 31 35  0  0  1  0  0  0  0  0999 V2000
  184.4520  178.6280  144.7640 C   0  0  0  0  0  0  0  0  0  0  0  0
  188.0450  177.8340  143.9630 C   0  0  0  0  0  0  0  0  0  0  0  0
  188.7140  177.6030  145.2000 C   0  0  0  0  0  0  0  0  0  0  0  0
  187.3690  178.3080  138.7520 O   0  0  0  0  0  0  0  0  0  0  0  0
  188.5690  178.0140  138.9910 C   0  0  0  0  0  0  0  0  0  0  0  0
  188.7650  177.4440  147.6360 C   0  0  0  0  0  0  0  0  0  0  0  0
  186.6620  178.1660  143.8320 C   0  0  0  0  0  0  0  0  0  0  0  0
  183.9400  178.8250  143.4820 C   0  0  0  0  0  3  0  0  0  0  0  0
  188.0700  177.6780  146.4490 C   0  0  0  0  0  3  0  0  0  0  0  0
  188.2270  177.9390  141.5230 C   0  0  0  0  0  0  0  0  0  0  0  0
  183.6440  178.7530  145.8440 F   0  0  0  0  0  0  0  0  0  0  0  0
  190.7520  177.1970  144.0050 N   0  0  0  0  0  0  0  0  0  0  0  0
  187.9300  177.5470  149.1710 Cl  0  0  0  0  0  0  0  0  0  0  0  0
  186.9100  178.2530  141.4410 N   0  0  0  0  0  0  0  0  0  0  0  0
  188.8150  177.7250  142.7760 C   0  0  0  0  0  0  0  0  0  0  0  0
  189.0250  177.8240  140.3370 N   0  0  0  0  0  2  0  0  0  0  0  0
  185.7990  178.3020  144.9340 C   0  0  0  0  0  3  0  0  0  0  0  0
  190.1220  177.1280  147.6000 C   0  0  0  0  0  3  0  0  0  0  0  0
  186.1240  178.3700  142.5380 C   0  0  0  0  0  0  0  0  0  0  0  0
  184.7740  178.6970  142.3720 C   0  0  0  0  0  3  0  0  0  0  0  0
  190.1370  177.4110  142.8460 N   0  0  0  0  0  0  0  0  0  0  0  0
  190.0920  177.2810  145.1830 C   0  0  0  0  0  0  0  0  0  0  0  0
  190.7850  177.0470  146.3740 C   0  0  0  0  0  3  0  0  0  0  0  0
  188.3120  176.4280  135.6240 C   0  0  1  0  0  3  0  0  0  0  0  0
  189.0560  178.6230  136.5860 C   0  0  0  0  0  2  0  0  0  0  0  0
  190.2180  175.8280  138.6530 O   0  0  0  0  0  1  0  0  0  0  0  0
  187.2270  175.7440  135.0800 O   0  0  0  0  0  1  0  0  0  0  0  0
  187.9190  177.8780  135.8870 C   0  0  0  0  0  2  0  0  0  0  0  0
  189.8730  176.4710  137.5100 N   0  0  0  0  0  0  0  0  0  0  0  0
  189.5260  177.8680  137.8350 C   0  0  2  0  0  3  0  0  0  0  0  0
  188.7280  175.7650  136.9330 C   0  0  0  0  0  2  0  0  0  0  0  0
  1 17  1  0  0  0  0
  1 11  1  0  0  0  0
  2  3  1  0  0  0  0
  3  9  1  0  0  0  0
  4  5  2  0  0  0  0
  5 16  1  0  0  0  0
  6 13  1  0  0  0  0
  7  2  1  0  0  0  0
  7 17  2  0  0  0  0
  8  1  2  0  0  0  0
  9  6  2  0  0  0  0
 10 15  1  0  0  0  0
 12 22  1  0  0  0  0
 14 10  2  0  0  0  0
 14 19  1  0  0  0  0
 15 21  1  0  0  0  0
 15  2  2  0  0  0  0
 16 10  1  0  0  0  0
 18  6  1  0  0  0  0
 19  7  1  0  0  0  0
 20 19  2  0  0  0  0
 20  8  1  0  0  0  0
 21 12  2  0  0  0  0
 22  3  2  0  0  0  0
 22 23  1  0  0  0  0
 23 18  2  0  0  0  0
 24 27  1  1  0  0  0
 24 28  1  0  0  0  0
 24 31  1  0  0  0  0
 25 30  1  0  0  0  0
 28 25  1  0  0  0  0
 29 30  1  0  0  0  0
 29 26  1  0  0  0  0
 30  5  1  1  0  0  0
 31 29  1  0  0  0  0
M  END
>  <MODEL>
1

>  <REMARK>
 VINA RESULT:     -12.0      0.000      0.000
  Name = 
  1 active torsions:
  status: ('A' for Active; 'I' for Inactive)
    1  A    between atoms: C_5  and  C_30
                            x       y       z     vdW  Elec       q    Type
                         _______ _______ _______ _____ _____    ______ ____

>  <TORSDO>
F 1

$$$$
=
 OpenBabel11122411063D

 31 35  0  0  1  0  0  0  0  0999 V2000
  184.0530  178.8290  144.9470 C   0  0  0  0  0  0  0  0  0  0  0  0
  187.3890  177.9340  143.4470 C   0  0  0  0  0  0  0  0  0  0  0  0
  188.2760  177.6480  144.5260 C   0  0  0  0  0  0  0  0  0  0  0  0
  185.7350  178.5660  138.4780 O   0  0  0  0  0  0  0  0  0  0  0  0
  186.9470  178.2240  138.4730 C   0  0  0  0  0  0  0  0  0  0  0  0
  188.7920  177.4250  146.9020 C   0  0  0  0  0  0  0  0  0  0  0  0
  186.0210  178.3160  143.5950 C   0  0  0  0  0  0  0  0  0  0  0  0
  183.3100  179.0770  143.7930 C   0  0  0  0  0  3  0  0  0  0  0  0
  187.8900  177.7130  145.8770 C   0  0  0  0  0  3  0  0  0  0  0  0
  187.1000  178.0960  141.0210 C   0  0  0  0  0  0  0  0  0  0  0  0
  183.4750  178.9530  146.1650 F   0  0  0  0  0  0  0  0  0  0  0  0
  190.0270  177.2040  142.9500 N   0  0  0  0  0  0  0  0  0  0  0  0
  188.2760  177.5160  148.5720 Cl  0  0  0  0  0  0  0  0  0  0  0  0
  185.8040  178.4560  141.2020 N   0  0  0  0  0  0  0  0  0  0  0  0
  187.9110  177.8290  142.1310 C   0  0  0  0  0  0  0  0  0  0  0  0
  187.6470  177.9840  139.7010 N   0  0  0  0  0  2  0  0  0  0  0  0
  185.3940  178.4530  144.8460 C   0  0  0  0  0  3  0  0  0  0  0  0
  190.1040  177.0630  146.5970 C   0  0  0  0  0  3  0  0  0  0  0  0
  185.2510  178.5720  142.4330 C   0  0  0  0  0  0  0  0  0  0  0  0
  183.9080  178.9490  142.5400 C   0  0  0  0  0  3  0  0  0  0  0  0
  189.2070  177.4690  141.9360 N   0  0  0  0  0  0  0  0  0  0  0  0
  189.6110  177.2800  144.2350 C   0  0  0  0  0  0  0  0  0  0  0  0
  190.5130  176.9910  145.2640 C   0  0  0  0  0  3  0  0  0  0  0  0
  189.8790  176.2160  137.3380 C   0  0  1  0  0  3  0  0  0  0  0  0
  187.5310  176.6610  136.5740 C   0  0  0  0  0  2  0  0  0  0  0  0
  189.1310  179.7440  137.7440 O   0  0  0  0  0  1  0  0  0  0  0  0
  190.6760  175.3610  138.0960 O   0  0  0  0  0  1  0  0  0  0  0  0
  188.4510  175.6840  137.3060 C   0  0  0  0  0  2  0  0  0  0  0  0
  189.0630  178.5190  137.1660 N   0  0  0  0  0  0  0  0  0  0  0  0
  187.6550  178.0760  137.1500 C   0  0  2  0  0  3  0  0  0  0  0  0
  189.8920  177.6100  137.9590 C   0  0  0  0  0  2  0  0  0  0  0  0
  1 11  1  0  0  0  0
  2  7  1  0  0  0  0
  2  3  1  0  0  0  0
  3  9  1  0  0  0  0
  5  4  2  0  0  0  0
  5 16  1  0  0  0  0
  6 13  1  0  0  0  0
  7 17  2  0  0  0  0
  8  1  2  0  0  0  0
  9  6  2  0  0  0  0
 10 14  2  0  0  0  0
 10 15  1  0  0  0  0
 12 22  1  0  0  0  0
 14 19  1  0  0  0  0
 15  2  2  0  0  0  0
 16 10  1  0  0  0  0
 17  1  1  0  0  0  0
 18  6  1  0  0  0  0
 19 20  2  0  0  0  0
 19  7  1  0  0  0  0
 20  8  1  0  0  0  0
 21 15  1  0  0  0  0
 21 12  2  0  0  0  0
 22  3  2  0  0  0  0
 22 23  1  0  0  0  0
 23 18  2  0  0  0  0
 24 31  1  0  0  0  0
 24 27  1  1  0  0  0
 25 30  1  0  0  0  0
 25 28  1  0  0  0  0
 28 24  1  0  0  0  0
 29 26  1  0  0  0  0
 29 31  1  0  0  0  0
 30 29  1  0  0  0  0
 30  5  1  1  0  0  0
M  END
>  <MODEL>
2

>  <REMARK>
 VINA RESULT:     -11.9      1.306      1.769
  Name = 
  1 active torsions:
  status: ('A' for Active; 'I' for Inactive)
    1  A    between atoms: C_5  and  C_30
                            x       y       z     vdW  Elec       q    Type
                         _______ _______ _______ _____ _____    ______ ____

>  <TORSDO>
F 1

$$$$
=
 OpenBabel11122411063D

 31 35  0  0  1  0  0  0  0  0999 V2000
  190.4250  176.8410  145.8270 C   0  0  0  0  0  0  0  0  0  0  0  0
  187.8820  177.8220  143.2270 C   0  0  0  0  0  0  0  0  0  0  0  0
  186.6980  178.2110  143.9180 C   0  0  0  0  0  0  0  0  0  0  0  0
  191.1100  176.8370  139.1720 O   0  0  0  0  0  0  0  0  0  0  0  0
  190.0010  177.2390  138.7330 C   0  0  0  0  0  0  0  0  0  0  0  0
  185.4070  178.5890  145.9560 C   0  0  0  0  0  0  0  0  0  0  0  0
  189.0860  177.3800  143.8560 C   0  0  0  0  0  0  0  0  0  0  0  0
  191.5030  176.4930  145.0140 C   0  0  0  0  0  3  0  0  0  0  0  0
  186.5870  178.2000  145.3210 C   0  0  0  0  0  3  0  0  0  0  0  0
  188.9830  177.5140  141.0620 C   0  0  0  0  0  0  0  0  0  0  0  0
  190.5350  176.7540  147.1740 F   0  0  0  0  0  0  0  0  0  0  0  0
  185.6350  178.6570  141.8170 N   0  0  0  0  0  0  0  0  0  0  0  0
  185.3060  178.5630  147.7030 Cl  0  0  0  0  0  0  0  0  0  0  0  0
  190.1090  177.0980  141.6960 N   0  0  0  0  0  0  0  0  0  0  0  0
  187.8570  177.8810  141.8100 C   0  0  0  0  0  0  0  0  0  0  0  0
  188.9360  177.5810  139.6310 N   0  0  0  0  0  2  0  0  0  0  0  0
  189.2300  177.2790  145.2510 C   0  0  0  0  0  3  0  0  0  0  0  0
  184.3100  179.0000  145.2000 C   0  0  0  0  0  3  0  0  0  0  0  0
  190.1920  177.0210  143.0460 C   0  0  0  0  0  0  0  0  0  0  0  0
  191.3870  176.5830  143.6270 C   0  0  0  0  0  3  0  0  0  0  0  0
  186.7360  178.2960  141.1620 N   0  0  0  0  0  0  0  0  0  0  0  0
  185.5740  178.6300  143.1680 C   0  0  0  0  0  0  0  0  0  0  0  0
  184.3930  179.0200  143.8070 C   0  0  0  0  0  3  0  0  0  0  0  0
  186.9920  177.2360  136.5270 C   0  0  1  0  0  3  0  0  0  0  0  0
  189.0550  178.6280  136.8440 C   0  0  0  0  0  2  0  0  0  0  0  0
  189.8430  175.0540  137.0560 O   0  0  0  0  0  1  0  0  0  0  0  0
  185.6570  177.0960  136.9000 O   0  0  0  0  0  1  0  0  0  0  0  0
  187.5620  178.5080  137.1450 C   0  0  0  0  0  2  0  0  0  0  0  0
  189.1900  176.1610  136.6230 N   0  0  0  0  0  0  0  0  0  0  0  0
  189.8050  177.3510  137.2420 C   0  0  2  0  0  3  0  0  0  0  0  0
  187.7870  176.0290  137.0160 C   0  0  0  0  0  2  0  0  0  0  0  0
  1 11  1  0  0  0  0
  2  7  1  0  0  0  0
  2  3  1  0  0  0  0
  3  9  1  0  0  0  0
  5  4  2  0  0  0  0
  5 16  1  0  0  0  0
  6 13  1  0  0  0  0
  7 17  2  0  0  0  0
  8  1  2  0  0  0  0
  9  6  2  0  0  0  0
 10 14  2  0  0  0  0
 10 15  1  0  0  0  0
 12 22  1  0  0  0  0
 14 19  1  0  0  0  0
 15  2  2  0  0  0  0
 16 10  1  0  0  0  0
 17  1  1  0  0  0  0
 18  6  1  0  0  0  0
 19 20  2  0  0  0  0
 19  7  1  0  0  0  0
 20  8  1  0  0  0  0
 21 15  1  0  0  0  0
 21 12  2  0  0  0  0
 22 23  1  0  0  0  0
 22  3  2  0  0  0  0
 23 18  2  0  0  0  0
 24 27  1  1  0  0  0
 24 31  1  0  0  0  0
 24 28  1  0  0  0  0
 25 28  1  0  0  0  0
 25 30  1  0  0  0  0
 29 31  1  0  0  0  0
 29 26  1  0  0  0  0
 29 30  1  0  0  0  0
 30  5  1  1  0  0  0
M  END
>  <MODEL>
3

>  <REMARK>
 VINA RESULT:     -11.0      1.949      4.033
  Name = 
  1 active torsions:
  status: ('A' for Active; 'I' for Inactive)
    1  A    between atoms: C_5  and  C_30
                            x       y       z     vdW  Elec       q    Type
                         _______ _______ _______ _____ _____    ______ ____

>  <TORSDO>
F 1

$$$$
=
 OpenBabel11122411063D

 31 35  0  0  1  0  0  0  0  0999 V2000
  186.6900  178.0900  147.3730 C   0  0  0  0  0  0  0  0  0  0  0  0
  187.5660  177.7260  143.7280 C   0  0  0  0  0  0  0  0  0  0  0  0
  188.9370  177.3440  143.6570 C   0  0  0  0  0  0  0  0  0  0  0  0
  182.7280  179.0120  142.0620 O   0  0  0  0  0  0  0  0  0  0  0  0
  183.4620  178.7770  141.0670 C   0  0  0  0  0  0  0  0  0  0  0  0
  191.0830  176.7840  144.6800 C   0  0  0  0  0  0  0  0  0  0  0  0
  186.8460  177.9650  144.9380 C   0  0  0  0  0  0  0  0  0  0  0  0
  185.3490  178.4580  147.2800 C   0  0  0  0  0  3  0  0  0  0  0  0
  189.7430  177.1580  144.7950 C   0  0  0  0  0  3  0  0  0  0  0  0
  185.5190  178.2520  142.4910 C   0  0  0  0  0  0  0  0  0  0  0  0
  187.2780  177.9680  148.5870 F   0  0  0  0  0  0  0  0  0  0  0  0
  188.7880  177.3050  141.2650 N   0  0  0  0  0  0  0  0  0  0  0  0
  192.0550  176.5620  146.1180 Cl  0  0  0  0  0  0  0  0  0  0  0  0
  184.8700  178.4710  143.6620 N   0  0  0  0  0  0  0  0  0  0  0  0
  186.8690  177.8780  142.5010 C   0  0  0  0  0  0  0  0  0  0  0  0
  184.8350  178.4000  141.2390 N   0  0  0  0  0  2  0  0  0  0  0  0
  187.4290  177.8470  146.2120 C   0  0  0  0  0  3  0  0  0  0  0  0
  191.6460  176.5860  143.4190 C   0  0  0  0  0  3  0  0  0  0  0  0
  185.4820  178.3410  144.8640 C   0  0  0  0  0  0  0  0  0  0  0  0
  184.7460  178.5830  146.0280 C   0  0  0  0  0  3  0  0  0  0  0  0
  187.5080  177.6620  141.3200 N   0  0  0  0  0  0  0  0  0  0  0  0
  189.5260  177.1390  142.3870 C   0  0  0  0  0  0  0  0  0  0  0  0
  190.8680  176.7630  142.2740 C   0  0  0  0  0  3  0  0  0  0  0  0
  184.0640  176.9920  137.8470 C   0  0  1  0  0  3  0  0  0  0  0  0
  182.0980  177.6500  139.2610 C   0  0  0  0  0  2  0  0  0  0  0  0
  184.5550  180.3640  139.0940 O   0  0  0  0  0  1  0  0  0  0  0  0
  184.9790  175.9730  137.5900 O   0  0  0  0  0  1  0  0  0  0  0  0
  183.0480  176.5140  138.8790 C   0  0  0  0  0  2  0  0  0  0  0  0
  183.8490  179.2960  138.6470 N   0  0  0  0  0  0  0  0  0  0  0  0
  182.8750  178.9020  139.6840 C   0  0  2  0  0  3  0  0  0  0  0  0
  184.8000  178.2160  138.3820 C   0  0  0  0  0  2  0  0  0  0  0  0
  1 11  1  0  0  0  0
  2  7  1  0  0  0  0
  3  2  1  0  0  0  0
  3  9  1  0  0  0  0
  5 16  1  0  0  0  0
  5  4  2  0  0  0  0
  6  9  2  0  0  0  0
  6 13  1  0  0  0  0
  7 17  1  0  0  0  0
  8  1  1  0  0  0  0
 10 15  1  0  0  0  0
 10 14  2  0  0  0  0
 12 21  2  0  0  0  0
 12 22  1  0  0  0  0
 14 19  1  0  0  0  0
 15  2  2  0  0  0  0
 16 10  1  0  0  0  0
 17  1  2  0  0  0  0
 18  6  1  0  0  0  0
 19  7  2  0  0  0  0
 19 20  1  0  0  0  0
 20  8  2  0  0  0  0
 21 15  1  0  0  0  0
 22  3  2  0  0  0  0
 23 22  1  0  0  0  0
 23 18  2  0  0  0  0
 24 27  1  1  0  0  0
 24 31  1  0  0  0  0
 24 28  1  0  0  0  0
 25 30  1  0  0  0  0
 28 25  1  0  0  0  0
 29 26  1  0  0  0  0
 29 30  1  0  0  0  0
 30  5  1  1  0  0  0
 31 29  1  0  0  0  0
M  END
>  <MODEL>
4

>  <REMARK>
 VINA RESULT:     -10.9      3.014      4.369
  Name = 
  1 active torsions:
  status: ('A' for Active; 'I' for Inactive)
    1  A    between atoms: C_5  and  C_30
                            x       y       z     vdW  Elec       q    Type
                         _______ _______ _______ _____ _____    ______ ____

>  <TORSDO>
F 1

$$$$
=
 OpenBabel11122411063D

 31 35  0  0  1  0  0  0  0  0999 V2000
  190.2490  176.9720  146.6660 C   0  0  0  0  0  0  0  0  0  0  0  0
  188.2590  177.6740  143.5470 C   0  0  0  0  0  0  0  0  0  0  0  0
  186.9300  177.9880  143.9540 C   0  0  0  0  0  0  0  0  0  0  0  0
  192.3410  176.8280  140.3130 O   0  0  0  0  0  0  0  0  0  0  0  0
  191.3260  177.1290  139.6320 C   0  0  0  0  0  0  0  0  0  0  0  0
  185.2090  178.3230  145.6540 C   0  0  0  0  0  0  0  0  0  0  0  0
  189.3280  177.3460  144.4350 C   0  0  0  0  0  0  0  0  0  0  0  0
  191.4980  176.6860  146.1160 C   0  0  0  0  0  3  0  0  0  0  0  0
  186.5220  178.0100  145.3000 C   0  0  0  0  0  3  0  0  0  0  0  0
  189.8170  177.3900  141.6790 C   0  0  0  0  0  0  0  0  0  0  0  0
  190.0750  176.9330  148.0080 F   0  0  0  0  0  0  0  0  0  0  0  0
  186.3130  178.2880  141.6570 N   0  0  0  0  0  0  0  0  0  0  0  0
  184.7380  178.3400  147.3390 Cl  0  0  0  0  0  0  0  0  0  0  0  0
  190.8070  177.0830  142.5540 N   0  0  0  0  0  0  0  0  0  0  0  0
  188.5340  177.6900  142.1550 C   0  0  0  0  0  0  0  0  0  0  0  0
  190.0720  177.4120  140.2680 N   0  0  0  0  0  2  0  0  0  0  0  0
  189.1770  177.2980  145.8320 C   0  0  0  0  0  3  0  0  0  0  0  0
  184.2730  178.6240  144.6650 C   0  0  0  0  0  3  0  0  0  0  0  0
  190.6050  177.0520  143.8940 C   0  0  0  0  0  0  0  0  0  0  0  0
  191.6750  176.7270  144.7330 C   0  0  0  0  0  3  0  0  0  0  0  0
  187.5500  177.9960  141.2670 N   0  0  0  0  0  0  0  0  0  0  0  0
  185.9660  178.2960  142.9640 C   0  0  0  0  0  0  0  0  0  0  0  0
  184.6510  178.6100  143.3220 C   0  0  0  0  0  3  0  0  0  0  0  0
  190.6030  174.6850  136.9080 C   0  0  1  0  0  3  0  0  0  0  0  0
  190.0860  177.0840  137.4290 C   0  0  0  0  0  2  0  0  0  0  0  0
  193.5650  176.2850  138.2600 O   0  0  0  0  0  1  0  0  0  0  0  0
  190.1370  173.3770  137.0310 O   0  0  0  0  0  1  0  0  0  0  0  0
  189.5560  175.6510  137.4510 C   0  0  0  0  0  2  0  0  0  0  0  0
  192.4030  176.2090  137.5670 N   0  0  0  0  0  0  0  0  0  0  0  0
  191.4470  177.1810  138.1300 C   0  0  2  0  0  3  0  0  0  0  0  0
  191.9000  174.8400  137.6960 C   0  0  0  0  0  2  0  0  0  0  0  0
  1 11  1  0  0  0  0
  2  3  1  0  0  0  0
  2  7  1  0  0  0  0
  3  9  1  0  0  0  0
  5 16  1  0  0  0  0
  5  4  2  0  0  0  0
  6 13  1  0  0  0  0
  7 17  1  0  0  0  0
  8  1  1  0  0  0  0
  9  6  2  0  0  0  0
 10 15  1  0  0  0  0
 10 14  2  0  0  0  0
 12 22  1  0  0  0  0
 14 19  1  0  0  0  0
 15  2  2  0  0  0  0
 16 10  1  0  0  0  0
 17  1  2  0  0  0  0
 18  6  1  0  0  0  0
 19  7  2  0  0  0  0
 19 20  1  0  0  0  0
 20  8  2  0  0  0  0
 21 12  2  0  0  0  0
 21 15  1  0  0  0  0
 22 23  1  0  0  0  0
 22  3  2  0  0  0  0
 23 18  2  0  0  0  0
 24 27  1  1  0  0  0
 24 28  1  0  0  0  0
 24 31  1  0  0  0  0
 25 28  1  0  0  0  0
 25 30  1  0  0  0  0
 29 31  1  0  0  0  0
 29 30  1  0  0  0  0
 29 26  1  0  0  0  0
 30  5  1  1  0  0  0
M  END
>  <MODEL>
5

>  <REMARK>
 VINA RESULT:     -10.8      2.322      4.364
  Name = 
  1 active torsions:
  status: ('A' for Active; 'I' for Inactive)
    1  A    between atoms: C_5  and  C_30
                            x       y       z     vdW  Elec       q    Type
                         _______ _______ _______ _____ _____    ______ ____

>  <TORSDO>
F 1

$$$$
=
 OpenBabel11122411063D

 31 35  0  0  1  0  0  0  0  0999 V2000
  191.4150  176.3900  145.1790 C   0  0  0  0  0  0  0  0  0  0  0  0
  188.0890  177.6730  143.9650 C   0  0  0  0  0  0  0  0  0  0  0  0
  187.3060  177.9770  145.1160 C   0  0  0  0  0  0  0  0  0  0  0  0
  189.3470  177.1760  138.8660 O   0  0  0  0  0  0  0  0  0  0  0  0
  188.1760  177.6270  138.9630 C   0  0  0  0  0  0  0  0  0  0  0  0
  186.9700  178.1110  147.5310 C   0  0  0  0  0  0  0  0  0  0  0  0
  189.4210  177.1590  143.9960 C   0  0  0  0  0  0  0  0  0  0  0  0
  192.0540  176.1410  143.9650 C   0  0  0  0  0  3  0  0  0  0  0  0
  187.7710  177.8000  146.4320 C   0  0  0  0  0  3  0  0  0  0  0  0
  188.2030  177.6240  141.5190 C   0  0  0  0  0  0  0  0  0  0  0  0
  192.0570  176.1440  146.3460 F   0  0  0  0  0  0  0  0  0  0  0  0
  185.5060  178.6700  143.6920 N   0  0  0  0  0  0  0  0  0  0  0  0
  187.5830  177.8780  149.1540 Cl  0  0  0  0  0  0  0  0  0  0  0  0
  189.4670  177.1360  141.5900 N   0  0  0  0  0  0  0  0  0  0  0  0
  187.4950  177.9000  142.6960 C   0  0  0  0  0  0  0  0  0  0  0  0
  187.5830  177.8600  140.2480 N   0  0  0  0  0  2  0  0  0  0  0  0
  190.1120  176.8930  145.1910 C   0  0  0  0  0  3  0  0  0  0  0  0
  185.6820  178.6090  147.3380 C   0  0  0  0  0  3  0  0  0  0  0  0
  190.0860  176.8990  142.7720 C   0  0  0  0  0  0  0  0  0  0  0  0
  191.3900  176.3950  142.7640 C   0  0  0  0  0  3  0  0  0  0  0  0
  186.2290  178.3890  142.6110 N   0  0  0  0  0  0  0  0  0  0  0  0
  185.9960  178.4830  144.9390 C   0  0  0  0  0  0  0  0  0  0  0  0
  185.1950  178.7940  146.0420 C   0  0  0  0  0  3  0  0  0  0  0  0
  188.6320  176.6670  135.3870 C   0  0  1  0  0  3  0  0  0  0  0  0
  186.7890  176.6500  137.0890 C   0  0  0  0  0  2  0  0  0  0  0  0
  188.7280  179.7530  137.2940 O   0  0  0  0  0  1  0  0  0  0  0  0
  189.6590  175.9090  134.8280 O   0  0  0  0  0  1  0  0  0  0  0  0
  187.8520  175.8110  136.3790 C   0  0  0  0  0  2  0  0  0  0  0  0
  188.1520  178.6830  136.6920 N   0  0  0  0  0  0  0  0  0  0  0  0
  187.4000  177.9150  137.7030 C   0  0  2  0  0  3  0  0  0  0  0  0
  189.2230  177.8750  136.1070 C   0  0  0  0  0  2  0  0  0  0  0  0
  1 17  1  0  0  0  0
  1 11  1  0  0  0  0
  2  7  1  0  0  0  0
  2  3  1  0  0  0  0
  3  9  1  0  0  0  0
  4  5  2  0  0  0  0
  5 16  1  0  0  0  0
  6 13  1  0  0  0  0
  7 17  2  0  0  0  0
  8  1  2  0  0  0  0
  9  6  2  0  0  0  0
 10 14  2  0  0  0  0
 10 15  1  0  0  0  0
 12 22  1  0  0  0  0
 14 19  1  0  0  0  0
 15  2  2  0  0  0  0
 16 10  1  0  0  0  0
 18  6  1  0  0  0  0
 19  7  1  0  0  0  0
 20 19  2  0  0  0  0
 20  8  1  0  0  0  0
 21 15  1  0  0  0  0
 21 12  2  0  0  0  0
 22  3  2  0  0  0  0
 22 23  1  0  0  0  0
 23 18  2  0  0  0  0
 24 27  1  1  0  0  0
 24 31  1  0  0  0  0
 24 28  1  0  0  0  0
 25 30  1  0  0  0  0
 28 25  1  0  0  0  0
 29 26  1  0  0  0  0
 29 30  1  0  0  0  0
 30  5  1  1  0  0  0
 31 29  1  0  0  0  0
M  END
>  <MODEL>
6

>  <REMARK>
 VINA RESULT:     -10.7      2.271      4.030
  Name = 
  1 active torsions:
  status: ('A' for Active; 'I' for Inactive)
    1  A    between atoms: C_5  and  C_30
                            x       y       z     vdW  Elec       q    Type
                         _______ _______ _______ _____ _____    ______ ____

>  <TORSDO>
F 1

$$$$
=
 OpenBabel11122411063D

 31 35  0  0  1  0  0  0  0  0999 V2000
  191.1620  177.2390  141.9790 C   0  0  0  0  0  0  0  0  0  0  0  0
  187.9740  177.8000  143.9030 C   0  0  0  0  0  0  0  0  0  0  0  0
  188.2770  177.6310  145.2850 C   0  0  0  0  0  0  0  0  0  0  0  0
  185.1030  178.7510  139.5800 O   0  0  0  0  0  0  0  0  0  0  0  0
  184.3660  178.8380  140.5970 C   0  0  0  0  0  0  0  0  0  0  0  0
  189.8170  177.1560  147.1210 C   0  0  0  0  0  0  0  0  0  0  0  0
  188.9170  177.6710  142.8390 C   0  0  0  0  0  0  0  0  0  0  0  0
  190.7130  177.4340  140.6730 C   0  0  0  0  0  3  0  0  0  0  0  0
  189.5640  177.3130  145.7570 C   0  0  0  0  0  3  0  0  0  0  0  0
  186.2590  178.3020  142.2290 C   0  0  0  0  0  0  0  0  0  0  0  0
  192.4610  176.9340  142.2110 F   0  0  0  0  0  0  0  0  0  0  0  0
  185.9900  178.0960  145.8300 N   0  0  0  0  0  0  0  0  0  0  0  0
  191.4300  176.7600  147.6710 Cl  0  0  0  0  0  0  0  0  0  0  0  0
  187.1850  178.1700  141.2450 N   0  0  0  0  0  0  0  0  0  0  0  0
  186.6330  178.1210  143.5660 C   0  0  0  0  0  0  0  0  0  0  0  0
  184.8990  178.6250  141.9110 N   0  0  0  0  0  2  0  0  0  0  0  0
  190.2710  177.3560  143.0480 C   0  0  0  0  0  3  0  0  0  0  0  0
  188.7850  177.3160  148.0450 C   0  0  0  0  0  3  0  0  0  0  0  0
  188.4790  177.8660  141.5050 C   0  0  0  0  0  0  0  0  0  0  0  0
  189.3740  177.7470  140.4380 C   0  0  0  0  0  3  0  0  0  0  0  0
  185.6960  178.2560  144.5430 N   0  0  0  0  0  0  0  0  0  0  0  0
  187.2430  177.7890  146.2380 C   0  0  0  0  0  0  0  0  0  0  0  0
  187.4990  177.6320  147.6030 C   0  0  0  0  0  3  0  0  0  0  0  0
  181.7320  177.6010  138.2620 C   0  0  1  0  0  3  0  0  0  0  0  0
  181.9940  177.9730  140.7290 C   0  0  0  0  0  2  0  0  0  0  0  0
  183.4520  180.7460  138.8260 O   0  0  0  0  0  1  0  0  0  0  0  0
  181.8640  176.6600  137.2430 O   0  0  0  0  0  1  0  0  0  0  0  0
  182.0230  176.9390  139.6050 C   0  0  0  0  0  2  0  0  0  0  0  0
  182.5790  179.7430  139.0930 N   0  0  0  0  0  0  0  0  0  0  0  0
  182.9060  179.1640  140.4110 C   0  0  2  0  0  3  0  0  0  0  0  0
  182.7150  178.7450  138.0310 C   0  0  0  0  0  2  0  0  0  0  0  0
  1 11  1  0  0  0  0
  1 17  1  0  0  0  0
  2  3  1  0  0  0  0
  3  9  2  0  0  0  0
  3 22  1  0  0  0  0
  4  5  2  0  0  0  0
  5 16  1  0  0  0  0
  6 13  1  0  0  0  0
  6 18  2  0  0  0  0
  7 17  2  0  0  0  0
  7  2  1  0  0  0  0
  8  1  2  0  0  0  0
  9  6  1  0  0  0  0
 10 15  1  0  0  0  0
 12 22  1  0  0  0  0
 14 19  1  0  0  0  0
 14 10  2  0  0  0  0
 15  2  2  0  0  0  0
 15 21  1  0  0  0  0
 16 10  1  0  0  0  0
 19  7  1  0  0  0  0
 20  8  1  0  0  0  0
 20 19  2  0  0  0  0
 21 12  2  0  0  0  0
 22 23  2  0  0  0  0
 23 18  1  0  0  0  0
 24 27  1  6  0  0  0
 24 28  1  0  0  0  0
 26 29  1  0  0  0  0
 28 25  1  0  0  0  0
 29 30  1  0  0  0  0
 30  5  1  6  0  0  0
 30 25  1  0  0  0  0
 31 24  1  0  0  0  0
 31 29  1  0  0  0  0
M  END
>  <MODEL>
7

>  <REMARK>
 VINA RESULT:     -10.7      3.407      5.258
  Name = 
  1 active torsions:
  status: ('A' for Active; 'I' for Inactive)
    1  A    between atoms: C_5  and  C_30
                            x       y       z     vdW  Elec       q    Type
                         _______ _______ _______ _____ _____    ______ ____

>  <TORSDO>
F 1

$$$$
=
 OpenBabel11122411063D

 31 35  0  0  1  0  0  0  0  0999 V2000
  186.3100  178.0860  146.9410 C   0  0  0  0  0  0  0  0  0  0  0  0
  187.5780  177.8740  143.4020 C   0  0  0  0  0  0  0  0  0  0  0  0
  188.9540  177.5040  143.4660 C   0  0  0  0  0  0  0  0  0  0  0  0
  182.9360  179.1930  141.2720 O   0  0  0  0  0  0  0  0  0  0  0  0
  183.7760  179.0030  140.3540 C   0  0  0  0  0  0  0  0  0  0  0  0
  190.9820  176.9180  144.6930 C   0  0  0  0  0  0  0  0  0  0  0  0
  186.7300  178.0600  144.5350 C   0  0  0  0  0  0  0  0  0  0  0  0
  184.9820  178.4490  146.7180 C   0  0  0  0  0  3  0  0  0  0  0  0
  189.6340  177.2780  144.6770 C   0  0  0  0  0  3  0  0  0  0  0  0
  185.6730  178.4350  141.9710 C   0  0  0  0  0  0  0  0  0  0  0  0
  186.7630  177.9200  148.2070 F   0  0  0  0  0  0  0  0  0  0  0  0
  189.0650  177.5600  141.0720 N   0  0  0  0  0  0  0  0  0  0  0  0
  191.7960  176.6450  146.2180 Cl  0  0  0  0  0  0  0  0  0  0  0  0
  184.8980  178.6030  143.0730 N   0  0  0  0  0  0  0  0  0  0  0  0
  187.0170  178.0700  142.1140 C   0  0  0  0  0  0  0  0  0  0  0  0
  185.1260  178.6290  140.6600 N   0  0  0  0  0  2  0  0  0  0  0  0
  187.1720  177.8940  145.8600 C   0  0  0  0  0  3  0  0  0  0  0  0
  191.6810  176.7740  143.4940 C   0  0  0  0  0  3  0  0  0  0  0  0
  185.3770  178.4290  144.3280 C   0  0  0  0  0  0  0  0  0  0  0  0
  184.5180  178.6200  145.4140 C   0  0  0  0  0  3  0  0  0  0  0  0
  187.7830  177.9050  141.0020 N   0  0  0  0  0  0  0  0  0  0  0  0
  189.6790  177.3540  142.2600 C   0  0  0  0  0  0  0  0  0  0  0  0
  191.0290  176.9920  142.2790 C   0  0  0  0  0  3  0  0  0  0  0  0
  180.4560  178.9770  138.6540 C   0  0  1  0  0  3  0  0  0  0  0  0
  182.4920  180.4410  138.7180 C   0  0  0  0  0  2  0  0  0  0  0  0
  183.4300  176.9000  138.6020 O   0  0  0  0  0  1  0  0  0  0  0  0
  179.2030  178.7600  139.2240 O   0  0  0  0  0  1  0  0  0  0  0  0
  181.0710  180.2400  139.2450 C   0  0  0  0  0  2  0  0  0  0  0  0
  182.6770  177.9970  138.3400 N   0  0  0  0  0  0  0  0  0  0  0  0
  183.3410  179.1800  138.9210 C   0  0  2  0  0  3  0  0  0  0  0  0
  181.3610  177.7830  138.9420 C   0  0  0  0  0  2  0  0  0  0  0  0
  1 11  1  0  0  0  0
  2  3  1  0  0  0  0
  2  7  1  0  0  0  0
  3  9  1  0  0  0  0
  5 16  1  0  0  0  0
  5  4  2  0  0  0  0
  6 13  1  0  0  0  0
  7 17  1  0  0  0  0
  8  1  1  0  0  0  0
  9  6  2  0  0  0  0
 10 15  1  0  0  0  0
 10 14  2  0  0  0  0
 12 22  1  0  0  0  0
 14 19  1  0  0  0  0
 15  2  2  0  0  0  0
 16 10  1  0  0  0  0
 17  1  2  0  0  0  0
 18  6  1  0  0  0  0
 19  7  2  0  0  0  0
 19 20  1  0  0  0  0
 20  8  2  0  0  0  0
 21 12  2  0  0  0  0
 21 15  1  0  0  0  0
 22 23  1  0  0  0  0
 22  3  2  0  0  0  0
 23 18  2  0  0  0  0
 24 31  1  0  0  0  0
 24 27  1  1  0  0  0
 24 28  1  0  0  0  0
 25 30  1  0  0  0  0
 25 28  1  0  0  0  0
 29 26  1  0  0  0  0
 29 30  1  0  0  0  0
 29 31  1  0  0  0  0
 30  5  1  1  0  0  0
M  END
>  <MODEL>
8

>  <REMARK>
 VINA RESULT:     -10.5      3.445      4.888
  Name = 
  1 active torsions:
  status: ('A' for Active; 'I' for Inactive)
    1  A    between atoms: C_5  and  C_30
                            x       y       z     vdW  Elec       q    Type
                         _______ _______ _______ _____ _____    ______ ____

>  <TORSDO>
F 1

$$$$
=
 OpenBabel11122411063D

 31 35  0  0  1  0  0  0  0  0999 V2000
  185.2500  178.2380  146.0150 C   0  0  0  0  0  0  0  0  0  0  0  0
  184.6370  178.6090  142.3170 C   0  0  0  0  0  0  0  0  0  0  0  0
  183.2400  178.8290  142.1390 C   0  0  0  0  0  0  0  0  0  0  0  0
  189.7140  177.9520  141.0400 O   0  0  0  0  0  0  0  0  0  0  0  0
  189.0400  178.1300  139.9920 C   0  0  0  0  0  0  0  0  0  0  0  0
  180.9670  179.1010  142.9880 C   0  0  0  0  0  0  0  0  0  0  0  0
  185.2790  178.4190  143.5790 C   0  0  0  0  0  0  0  0  0  0  0  0
  186.6290  178.0320  146.0280 C   0  0  0  0  0  3  0  0  0  0  0  0
  182.3280  178.8840  143.2080 C   0  0  0  0  0  3  0  0  0  0  0  0
  186.8260  178.3650  141.2470 C   0  0  0  0  0  0  0  0  0  0  0  0
  184.5560  178.2520  147.1770 F   0  0  0  0  0  0  0  0  0  0  0  0
  183.5780  178.9590  139.7690 N   0  0  0  0  0  0  0  0  0  0  0  0
  179.8610  179.1630  144.3430 Cl  0  0  0  0  0  0  0  0  0  0  0  0
  187.3990  178.1880  142.4640 N   0  0  0  0  0  0  0  0  0  0  0  0
  185.4450  178.5780  141.1510 C   0  0  0  0  0  0  0  0  0  0  0  0
  187.6230  178.3370  140.0550 N   0  0  0  0  0  2  0  0  0  0  0  0
  184.5850  178.4280  144.8020 C   0  0  0  0  0  3  0  0  0  0  0  0
  180.4890  179.2710  141.6890 C   0  0  0  0  0  3  0  0  0  0  0  0
  186.6800  178.2080  143.6120 C   0  0  0  0  0  0  0  0  0  0  0  0
  187.3420  178.0180  144.8290 C   0  0  0  0  0  3  0  0  0  0  0  0
  184.8830  178.7540  139.9250 N   0  0  0  0  0  0  0  0  0  0  0  0
  182.7370  179.0030  140.8280 C   0  0  0  0  0  0  0  0  0  0  0  0
  181.3730  179.2210  140.6100 C   0  0  0  0  0  3  0  0  0  0  0  0
  188.0980  176.9250  136.5890 C   0  0  1  0  0  3  0  0  0  0  0  0
  189.0560  179.0030  137.6190 C   0  0  0  0  0  2  0  0  0  0  0  0
  190.5500  176.0010  139.0980 O   0  0  0  0  0  1  0  0  0  0  0  0
  186.9140  176.3020  136.1990 O   0  0  0  0  0  1  0  0  0  0  0  0
  187.7900  178.3350  137.0810 C   0  0  0  0  0  2  0  0  0  0  0  0
  189.9990  176.7650  138.1230 N   0  0  0  0  0  0  0  0  0  0  0  0
  189.7490  178.1170  138.6610 C   0  0  2  0  0  3  0  0  0  0  0  0
  188.7510  176.1230  137.7100 C   0  0  0  0  0  2  0  0  0  0  0  0
  1  8  1  0  0  0  0
  1 11  1  0  0  0  0
  2  7  1  0  0  0  0
  3  2  1  0  0  0  0
  3  9  1  0  0  0  0
  5 16  1  0  0  0  0
  5  4  2  0  0  0  0
  6  9  2  0  0  0  0
  6 13  1  0  0  0  0
  7 19  2  0  0  0  0
  7 17  1  0  0  0  0
 10 14  2  0  0  0  0
 12 21  2  0  0  0  0
 12 22  1  0  0  0  0
 14 19  1  0  0  0  0
 15 10  1  0  0  0  0
 15  2  2  0  0  0  0
 16 10  1  0  0  0  0
 17  1  2  0  0  0  0
 18  6  1  0  0  0  0
 19 20  1  0  0  0  0
 20  8  2  0  0  0  0
 21 15  1  0  0  0  0
 22  3  2  0  0  0  0
 23 22  1  0  0  0  0
 23 18  2  0  0  0  0
 24 27  1  1  0  0  0
 24 28  1  0  0  0  0
 24 31  1  0  0  0  0
 25 30  1  0  0  0  0
 28 25  1  0  0  0  0
 29 30  1  0  0  0  0
 29 26  1  0  0  0  0
 30  5  1  1  0  0  0
 31 29  1  0  0  0  0
M  END
>  <MODEL>
9

>  <REMARK>
 VINA RESULT:     -10.5      2.573      5.082
  Name = 
  1 active torsions:
  status: ('A' for Active; 'I' for Inactive)
    1  A    between atoms: C_5  and  C_30
                            x       y       z     vdW  Elec       q    Type
                         _______ _______ _______ _____ _____    ______ ____

>  <TORSDO>
F 1

$$$$
