=
 OpenBabel11122411593D

 28 32  0  0  1  0  0  0  0  0999 V2000
  188.0010  175.9920  136.5660 C   0  0  0  0  0  0  0  0  0  0  0  0
  189.9670  175.6280  139.2100 O   0  0  0  0  0  0  0  0  0  0  0  0
  183.4630  179.8790  139.0930 C   0  0  0  0  0  1  0  0  0  0  0  0
  189.4170  177.8850  135.0590 C   0  0  0  0  0  3  0  0  0  0  0  0
  185.0920  178.7270  140.4960 N   0  0  0  0  0  0  0  0  0  0  0  0
  187.1810  174.9710  137.2970 C   0  0  0  0  0  2  0  0  0  0  0  0
  190.9630  177.8790  139.0780 O   0  0  0  0  0  0  0  0  0  0  0  0
  189.9160  177.0300  139.7450 S   0  0  0  0  0  0  0  0  0  0  0  0
  189.4540  178.1850  142.1560 C   0  0  2  0  0  3  0  0  0  0  0  0
  188.3490  177.7160  139.4960 N   0  0  0  0  0  0  0  0  0  0  0  0
  184.8550  176.7180  135.5900 O   0  0  0  0  0  0  0  0  0  0  0  0
  186.3930  178.3420  138.6350 C   0  0  0  0  0  0  0  0  0  0  0  0
  187.9400  178.1010  141.9450 C   0  0  0  0  0  2  0  0  0  0  0  0
  190.1820  177.0080  141.5070 C   0  0  0  0  0  2  0  0  0  0  0  0
  185.0780  176.1090  136.6700 C   0  0  0  0  0  0  0  0  0  0  0  0
  188.1260  177.3190  137.0360 C   0  0  0  0  0  0  0  0  0  0  0  0
  184.1520  178.5580  139.3820 C   0  0  2  0  0  3  0  0  0  0  0  0
  189.7520  178.1990  143.6400 C   0  0  0  0  0  1  0  0  0  0  0  0
  184.7700  176.7170  137.9200 N   0  0  0  0  0  2  0  0  0  0  0  0
  188.8420  178.2520  136.2770 C   0  0  0  0  0  3  0  0  0  0  0  0
  188.5810  175.6340  135.3430 C   0  0  0  0  0  3  0  0  0  0  0  0
  189.2890  176.5760  134.5940 C   0  0  0  0  0  3  0  0  0  0  0  0
  185.8030  174.8080  136.6550 C   0  0  0  0  0  2  0  0  0  0  0  0
  186.3900  178.6280  139.9490 C   0  0  0  0  0  0  0  0  0  0  0  0
  184.9940  178.1340  138.1470 C   0  0  2  0  0  3  0  0  0  0  0  0
  187.5900  178.2210  140.4920 C   0  0  0  0  0  0  0  0  0  0  0  0
  184.7600  178.3240  141.8520 C   0  0  0  0  0  1  0  0  0  0  0  0
  187.6200  177.7490  138.3540 C   0  0  0  0  0  0  0  0  0  0  0  0
  1 16  1  0  0  0  0
  1  6  1  0  0  0  0
  2  8  2  0  0  0  0
  4 20  1  0  0  0  0
  5 27  1  0  0  0  0
  7  8  2  0  0  0  0
  8 14  1  0  0  0  0
  9 18  1  1  0  0  0
 10  8  1  0  0  0  0
 10 26  1  0  0  0  0
 11 15  2  0  0  0  0
 12 24  1  0  0  0  0
 13  9  1  0  0  0  0
 14  9  1  0  0  0  0
 15 19  1  0  0  0  0
 16 28  1  0  0  0  0
 17  3  1  6  0  0  0
 17  5  1  0  0  0  0
 20 16  2  0  0  0  0
 21  1  2  0  0  0  0
 22  4  2  0  0  0  0
 22 21  1  0  0  0  0
 23 15  1  0  0  0  0
 23  6  1  0  0  0  0
 24 26  2  0  0  0  0
 24  5  1  0  0  0  0
 25 19  1  1  0  0  0
 25 12  1  0  0  0  0
 25 17  1  0  0  0  0
 26 13  1  0  0  0  0
 28 12  2  0  0  0  0
 28 10  1  0  0  0  0
M  END
>  <MODEL>
1

>  <REMARK>
 VINA RESULT:      -6.4      0.000      0.000
  Name = 
  0 active torsions:
  status: ('A' for Active; 'I' for Inactive)
                            x       y       z     vdW  Elec       q    Type
                         _______ _______ _______ _____ _____    ______ ____

>  <TORSDO>
F 0

$$$$
=
 OpenBabel11122411593D

 28 32  0  0  1  0  0  0  0  0999 V2000
  182.4810  177.5430  138.4490 C   0  0  0  0  0  0  0  0  0  0  0  0
  182.5500  174.2690  137.9350 O   0  0  0  0  0  0  0  0  0  0  0  0
  188.6140  179.0270  136.9440 C   0  0  0  0  0  1  0  0  0  0  0  0
  181.2180  178.4590  136.1200 C   0  0  0  0  0  3  0  0  0  0  0  0
  187.8970  176.7200  137.2790 N   0  0  0  0  0  0  0  0  0  0  0  0
  183.1510  177.1450  139.7300 C   0  0  0  0  0  2  0  0  0  0  0  0
  182.5470  174.4150  135.4740 O   0  0  0  0  0  0  0  0  0  0  0  0
  183.4010  174.2360  136.6980 S   0  0  0  0  0  0  0  0  0  0  0  0
  185.5960  172.8710  135.8740 C   0  0  2  0  0  3  0  0  0  0  0  0
  184.6100  175.4700  136.7630 N   0  0  0  0  0  0  0  0  0  0  0  0
  184.3910  180.2300  139.1610 O   0  0  0  0  0  0  0  0  0  0  0  0
  185.7050  177.3880  137.0470 C   0  0  0  0  0  0  0  0  0  0  0  0
  186.5200  173.8460  136.6080 C   0  0  0  0  0  2  0  0  0  0  0  0
  184.2700  172.6830  136.6120 C   0  0  0  0  0  2  0  0  0  0  0  0
  184.6730  179.0910  139.6190 C   0  0  0  0  0  0  0  0  0  0  0  0
  183.1410  177.4460  137.2030 C   0  0  0  0  0  0  0  0  0  0  0  0
  187.8340  178.0760  137.8330 C   0  0  2  0  0  3  0  0  0  0  0  0
  186.2870  171.5310  135.7400 C   0  0  0  0  0  1  0  0  0  0  0  0
  185.8620  178.4230  139.2130 N   0  0  0  0  0  2  0  0  0  0  0  0
  182.4960  177.9010  136.0470 C   0  0  0  0  0  3  0  0  0  0  0  0
  181.2000  178.1060  138.5120 C   0  0  0  0  0  3  0  0  0  0  0  0
  180.5690  178.5590  137.3510 C   0  0  0  0  0  3  0  0  0  0  0  0
  183.6900  178.3680  140.4730 C   0  0  0  0  0  2  0  0  0  0  0  0
  186.6030  176.4190  136.7990 C   0  0  0  0  0  0  0  0  0  0  0  0
  186.3360  178.4880  137.8420 C   0  0  2  0  0  3  0  0  0  0  0  0
  185.9320  175.2250  136.6450 C   0  0  0  0  0  0  0  0  0  0  0  0
  188.8150  175.7180  137.7940 C   0  0  0  0  0  1  0  0  0  0  0  0
  184.4500  176.7860  137.0440 C   0  0  0  0  0  0  0  0  0  0  0  0
  1 21  1  0  0  0  0
  1  6  1  0  0  0  0
  4 22  1  0  0  0  0
  5 27  1  0  0  0  0
  5 17  1  0  0  0  0
  6 23  1  0  0  0  0
  7  8  2  0  0  0  0
  8 10  1  0  0  0  0
  8  2  2  0  0  0  0
  9 18  1  1  0  0  0
  9 13  1  0  0  0  0
  9 14  1  0  0  0  0
 10 28  1  0  0  0  0
 11 15  2  0  0  0  0
 13 26  1  0  0  0  0
 14  8  1  0  0  0  0
 15 23  1  0  0  0  0
 16  1  2  0  0  0  0
 17  3  1  6  0  0  0
 17 25  1  0  0  0  0
 19 15  1  0  0  0  0
 20  4  2  0  0  0  0
 20 16  1  0  0  0  0
 22 21  2  0  0  0  0
 24 12  1  0  0  0  0
 24  5  1  0  0  0  0
 25 12  1  6  0  0  0
 25 19  1  0  0  0  0
 26 10  1  0  0  0  0
 26 24  2  0  0  0  0
 28 12  2  0  0  0  0
 28 16  1  0  0  0  0
M  END
>  <MODEL>
2

>  <REMARK>
 VINA RESULT:      -6.2      3.410      6.476
  Name = 
  0 active torsions:
  status: ('A' for Active; 'I' for Inactive)
                            x       y       z     vdW  Elec       q    Type
                         _______ _______ _______ _____ _____    ______ ____

>  <TORSDO>
F 0

$$$$
=
 OpenBabel11122411593D

 28 32  0  0  1  0  0  0  0  0999 V2000
  181.8050  178.2210  139.0010 C   0  0  0  0  0  0  0  0  0  0  0  0
  180.9560  175.0380  138.6320 O   0  0  0  0  0  0  0  0  0  0  0  0
  187.6810  178.1210  136.2530 C   0  0  0  0  0  1  0  0  0  0  0  0
  180.3660  179.4400  136.9270 C   0  0  0  0  0  3  0  0  0  0  0  0
  186.4970  176.0670  136.8260 N   0  0  0  0  0  0  0  0  0  0  0  0
  182.6010  177.6590  140.1410 C   0  0  0  0  0  2  0  0  0  0  0  0
  180.4920  175.1950  136.2150 O   0  0  0  0  0  0  0  0  0  0  0  0
  181.5040  174.7990  137.2540 S   0  0  0  0  0  0  0  0  0  0  0  0
  183.0790  172.9310  136.0760 C   0  0  2  0  0  3  0  0  0  0  0  0
  182.9680  175.6880  137.0240 N   0  0  0  0  0  0  0  0  0  0  0  0
  184.4250  180.3360  139.2020 O   0  0  0  0  0  0  0  0  0  0  0  0
  184.5390  177.2670  137.0010 C   0  0  0  0  0  0  0  0  0  0  0  0
  184.3450  173.6370  136.5690 C   0  0  0  0  0  2  0  0  0  0  0  0
  181.9260  173.0780  137.0690 C   0  0  0  0  0  2  0  0  0  0  0  0
  184.5020  179.1590  139.6460 C   0  0  0  0  0  0  0  0  0  0  0  0
  182.1550  177.9680  137.6550 C   0  0  0  0  0  0  0  0  0  0  0  0
  186.8860  177.3920  137.3200 C   0  0  2  0  0  3  0  0  0  0  0  0
  183.3750  171.4610  135.8690 C   0  0  0  0  0  1  0  0  0  0  0  0
  185.3820  178.2160  139.0440 N   0  0  0  0  0  2  0  0  0  0  0  0
  181.4240  178.5780  136.6300 C   0  0  0  0  0  3  0  0  0  0  0  0
  180.7440  179.0870  139.2900 C   0  0  0  0  0  3  0  0  0  0  0  0
  180.0250  179.6920  138.2570 C   0  0  0  0  0  3  0  0  0  0  0  0
  183.5650  178.7020  140.7090 C   0  0  0  0  0  2  0  0  0  0  0  0
  185.0990  176.1050  136.6240 C   0  0  0  0  0  0  0  0  0  0  0  0
  185.5700  178.1680  137.6050 C   0  0  2  0  0  3  0  0  0  0  0  0
  184.1370  175.1190  136.6590 C   0  0  0  0  0  0  0  0  0  0  0  0
  187.2230  174.8630  137.1940 C   0  0  0  0  0  1  0  0  0  0  0  0
  183.2010  177.0010  137.2720 C   0  0  0  0  0  0  0  0  0  0  0  0
  1 21  1  0  0  0  0
  1  6  1  0  0  0  0
  4 22  1  0  0  0  0
  5 27  1  0  0  0  0
  5 17  1  0  0  0  0
  6 23  1  0  0  0  0
  7  8  2  0  0  0  0
  8  2  2  0  0  0  0
  9 18  1  1  0  0  0
  9 13  1  0  0  0  0
  9 14  1  0  0  0  0
 10  8  1  0  0  0  0
 10 28  1  0  0  0  0
 11 15  2  0  0  0  0
 12 28  2  0  0  0  0
 13 26  1  0  0  0  0
 14  8  1  0  0  0  0
 15 23  1  0  0  0  0
 16  1  2  0  0  0  0
 17  3  1  6  0  0  0
 17 25  1  0  0  0  0
 19 15  1  0  0  0  0
 20  4  2  0  0  0  0
 20 16  1  0  0  0  0
 22 21  2  0  0  0  0
 24 26  2  0  0  0  0
 24  5  1  0  0  0  0
 24 12  1  0  0  0  0
 25 12  1  6  0  0  0
 25 19  1  0  0  0  0
 26 10  1  0  0  0  0
 28 16  1  0  0  0  0
M  END
>  <MODEL>
3

>  <REMARK>
 VINA RESULT:      -5.8      3.745      7.275
  Name = 
  0 active torsions:
  status: ('A' for Active; 'I' for Inactive)
                            x       y       z     vdW  Elec       q    Type
                         _______ _______ _______ _____ _____    ______ ____

>  <TORSDO>
F 0

$$$$
=
 OpenBabel11122411593D

 28 32  0  0  1  0  0  0  0  0999 V2000
  188.0480  175.8400  136.7140 C   0  0  0  0  0  0  0  0  0  0  0  0
  188.6640  176.8500  139.8100 O   0  0  0  0  0  0  0  0  0  0  0  0
  181.8310  177.6190  136.1900 C   0  0  0  0  0  1  0  0  0  0  0  0
  189.2240  177.8860  135.2010 C   0  0  0  0  0  3  0  0  0  0  0  0
  182.9780  177.5800  138.3430 N   0  0  0  0  0  0  0  0  0  0  0  0
  187.4030  174.6970  137.4390 C   0  0  0  0  0  2  0  0  0  0  0  0
  188.7710  179.2510  139.2600 O   0  0  0  0  0  0  0  0  0  0  0  0
  187.9050  178.1470  139.7980 S   0  0  0  0  0  0  0  0  0  0  0  0
  186.0770  179.3530  141.3970 C   0  0  2  0  0  3  0  0  0  0  0  0
  186.4720  177.9980  138.8430 N   0  0  0  0  0  0  0  0  0  0  0  0
  185.6010  174.8920  134.5940 O   0  0  0  0  0  0  0  0  0  0  0  0
  185.0000  177.5180  137.2420 C   0  0  0  0  0  0  0  0  0  0  0  0
  184.9380  178.5600  140.7510 C   0  0  0  0  0  2  0  0  0  0  0  0
  187.3720  178.5410  141.4510 C   0  0  0  0  0  2  0  0  0  0  0  0
  185.5300  174.6390  135.8260 C   0  0  0  0  0  0  0  0  0  0  0  0
  187.4880  177.1380  136.7260 C   0  0  0  0  0  0  0  0  0  0  0  0
  182.7370  176.8220  137.1100 C   0  0  2  0  0  3  0  0  0  0  0  0
  185.6780  179.7480  142.8030 C   0  0  0  0  0  1  0  0  0  0  0  0
  184.5220  175.2420  136.6310 N   0  0  0  0  0  2  0  0  0  0  0  0
  188.0900  178.1520  135.9710 C   0  0  0  0  0  3  0  0  0  0  0  0
  189.1840  175.5830  135.9370 C   0  0  0  0  0  3  0  0  0  0  0  0
  189.7720  176.6030  135.1850 C   0  0  0  0  0  3  0  0  0  0  0  0
  186.5900  173.8240  136.4810 C   0  0  0  0  0  2  0  0  0  0  0  0
  184.3300  177.9880  138.3090 C   0  0  0  0  0  0  0  0  0  0  0  0
  184.1190  176.6230  136.4290 C   0  0  2  0  0  3  0  0  0  0  0  0
  185.2340  178.2640  139.3120 C   0  0  0  0  0  0  0  0  0  0  0  0
  182.2530  177.3040  139.5720 C   0  0  0  0  0  1  0  0  0  0  0  0
  186.3480  177.5060  137.5860 C   0  0  0  0  0  0  0  0  0  0  0  0
  1 16  1  0  0  0  0
  1  6  1  0  0  0  0
  4 20  1  0  0  0  0
  5 27  1  0  0  0  0
  7  8  2  0  0  0  0
  8  2  2  0  0  0  0
  8 14  1  0  0  0  0
  9 14  1  0  0  0  0
  9 18  1  1  0  0  0
 10 26  1  0  0  0  0
 10  8  1  0  0  0  0
 11 15  2  0  0  0  0
 12 28  2  0  0  0  0
 12 24  1  0  0  0  0
 13  9  1  0  0  0  0
 15 23  1  0  0  0  0
 15 19  1  0  0  0  0
 16 28  1  0  0  0  0
 17  3  1  6  0  0  0
 17  5  1  0  0  0  0
 20 16  2  0  0  0  0
 21  1  2  0  0  0  0
 22  4  2  0  0  0  0
 22 21  1  0  0  0  0
 23  6  1  0  0  0  0
 24  5  1  0  0  0  0
 24 26  2  0  0  0  0
 25 19  1  1  0  0  0
 25 17  1  0  0  0  0
 25 12  1  0  0  0  0
 26 13  1  0  0  0  0
 28 10  1  0  0  0  0
M  END
>  <MODEL>
4

>  <REMARK>
 VINA RESULT:      -5.0      1.689      2.437
  Name = 
  0 active torsions:
  status: ('A' for Active; 'I' for Inactive)
                            x       y       z     vdW  Elec       q    Type
                         _______ _______ _______ _____ _____    ______ ____

>  <TORSDO>
F 0

$$$$
=
 OpenBabel11122411593D

 28 32  0  0  1  0  0  0  0  0999 V2000
  186.0570  174.1030  135.5760 C   0  0  0  0  0  0  0  0  0  0  0  0
  183.6070  172.0980  134.5940 O   0  0  0  0  0  0  0  0  0  0  0  0
  182.8420  177.7590  139.8620 C   0  0  0  0  0  1  0  0  0  0  0  0
  187.4610  172.4580  137.3600 C   0  0  0  0  0  3  0  0  0  0  0  0
  181.6790  176.2860  138.3040 N   0  0  0  0  0  0  0  0  0  0  0  0
  185.3790  175.0490  134.6310 C   0  0  0  0  0  2  0  0  0  0  0  0
  183.5800  170.7330  136.6470 O   0  0  0  0  0  0  0  0  0  0  0  0
  182.9310  171.8760  135.9170 S   0  0  0  0  0  0  0  0  0  0  0  0
  180.3900  172.0050  136.8570 C   0  0  2  0  0  3  0  0  0  0  0  0
  183.0000  173.3100  136.8790 N   0  0  0  0  0  0  0  0  0  0  0  0
  186.7340  177.1200  136.9230 O   0  0  0  0  0  0  0  0  0  0  0  0
  183.6550  175.1690  137.9160 C   0  0  0  0  0  0  0  0  0  0  0  0
  180.5030  173.5200  137.0520 C   0  0  0  0  0  2  0  0  0  0  0  0
  181.2030  171.5280  135.6540 C   0  0  0  0  0  2  0  0  0  0  0  0
  185.7390  176.9520  136.1680 C   0  0  0  0  0  0  0  0  0  0  0  0
  185.4660  173.7250  136.8020 C   0  0  0  0  0  0  0  0  0  0  0  0
  182.7360  177.2960  138.4210 C   0  0  2  0  0  3  0  0  0  0  0  0
  178.9370  171.6340  136.6550 C   0  0  0  0  0  1  0  0  0  0  0  0
  184.4160  177.0850  136.6760 N   0  0  0  0  0  2  0  0  0  0  0  0
  186.1750  172.8970  137.6800 C   0  0  0  0  0  3  0  0  0  0  0  0
  187.3480  173.6580  135.2630 C   0  0  0  0  0  3  0  0  0  0  0  0
  188.0460  172.8360  136.1510 C   0  0  0  0  0  3  0  0  0  0  0  0
  185.9370  176.4660  134.7740 C   0  0  0  0  0  2  0  0  0  0  0  0
  182.3230  175.0540  138.0500 C   0  0  0  0  0  0  0  0  0  0  0  0
  184.0630  176.6060  138.0010 C   0  0  2  0  0  3  0  0  0  0  0  0
  181.9090  173.9170  137.3900 C   0  0  0  0  0  0  0  0  0  0  0  0
  180.3500  176.6130  137.8140 C   0  0  0  0  0  1  0  0  0  0  0  0
  184.0790  174.0800  137.1610 C   0  0  0  0  0  0  0  0  0  0  0  0
  1 16  1  0  0  0  0
  2  8  2  0  0  0  0
  4 20  1  0  0  0  0
  5 17  1  0  0  0  0
  6 23  1  0  0  0  0
  6  1  1  0  0  0  0
  8  7  2  0  0  0  0
  8 10  1  0  0  0  0
  9 18  1  6  0  0  0
  9 13  1  0  0  0  0
 10 28  1  0  0  0  0
 10 26  1  0  0  0  0
 12 25  1  0  0  0  0
 12 24  1  0  0  0  0
 13 26  1  0  0  0  0
 14  8  1  0  0  0  0
 14  9  1  0  0  0  0
 15 19  1  0  0  0  0
 15 11  2  0  0  0  0
 16 28  1  0  0  0  0
 16 20  2  0  0  0  0
 17  3  1  1  0  0  0
 21  1  2  0  0  0  0
 21 22  1  0  0  0  0
 22  4  2  0  0  0  0
 23 15  1  0  0  0  0
 24  5  1  0  0  0  0
 25 19  1  6  0  0  0
 25 17  1  0  0  0  0
 26 24  2  0  0  0  0
 27  5  1  0  0  0  0
 28 12  2  0  0  0  0
M  END
>  <MODEL>
5

>  <REMARK>
 VINA RESULT:      -4.6      4.227      6.813
  Name = 
  0 active torsions:
  status: ('A' for Active; 'I' for Inactive)
                            x       y       z     vdW  Elec       q    Type
                         _______ _______ _______ _____ _____    ______ ____

>  <TORSDO>
F 0

$$$$
=
 OpenBabel11122411593D

 28 32  0  0  1  0  0  0  0  0999 V2000
  186.3030  175.8140  135.4740 C   0  0  0  0  0  0  0  0  0  0  0  0
  183.1750  175.1600  134.5950 O   0  0  0  0  0  0  0  0  0  0  0  0
  185.2410  179.1370  140.9430 C   0  0  0  0  0  1  0  0  0  0  0  0
  187.1060  173.3700  136.5880 C   0  0  0  0  0  3  0  0  0  0  0  0
  183.4430  178.6430  139.3720 N   0  0  0  0  0  0  0  0  0  0  0  0
  185.9670  177.1520  134.8870 C   0  0  0  0  0  2  0  0  0  0  0  0
  182.8100  173.4140  136.2980 O   0  0  0  0  0  0  0  0  0  0  0  0
  182.6000  174.8610  135.9510 S   0  0  0  0  0  0  0  0  0  0  0  0
  180.4250  175.6520  137.3650 C   0  0  2  0  0  3  0  0  0  0  0  0
  183.3270  175.8710  137.1510 N   0  0  0  0  0  0  0  0  0  0  0  0
  188.2510  177.9210  137.2470 O   0  0  0  0  0  0  0  0  0  0  0  0
  184.7640  177.0290  138.3960 C   0  0  0  0  0  0  0  0  0  0  0  0
  181.1480  176.9170  137.8360 C   0  0  0  0  0  2  0  0  0  0  0  0
  180.8590  175.2430  135.9580 C   0  0  0  0  0  2  0  0  0  0  0  0
  187.2020  178.3260  136.6790 C   0  0  0  0  0  0  0  0  0  0  0  0
  185.7340  175.3710  136.6890 C   0  0  0  0  0  0  0  0  0  0  0  0
  184.8200  179.1350  139.4860 C   0  0  2  0  0  3  0  0  0  0  0  0
  178.9310  175.8970  137.3740 C   0  0  0  0  0  1  0  0  0  0  0  0
  186.0980  178.7910  137.4460 N   0  0  0  0  0  2  0  0  0  0  0  0
  186.1380  174.1450  137.2310 C   0  0  0  0  0  3  0  0  0  0  0  0
  187.2740  175.0300  134.8380 C   0  0  0  0  0  3  0  0  0  0  0  0
  187.6720  173.8110  135.3910 C   0  0  0  0  0  3  0  0  0  0  0  0
  187.0530  178.1820  135.2040 C   0  0  0  0  0  2  0  0  0  0  0  0
  183.5160  177.3740  138.7570 C   0  0  0  0  0  0  0  0  0  0  0  0
  185.7160  178.1460  138.6900 C   0  0  2  0  0  3  0  0  0  0  0  0
  182.6220  176.6770  137.9730 C   0  0  0  0  0  0  0  0  0  0  0  0
  182.3120  179.5440  139.2210 C   0  0  0  0  0  1  0  0  0  0  0  0
  184.6450  176.0970  137.3700 C   0  0  0  0  0  0  0  0  0  0  0  0
  1 16  1  0  0  0  0
  2  8  2  0  0  0  0
  4 20  1  0  0  0  0
  5 17  1  0  0  0  0
  6 23  1  0  0  0  0
  6  1  1  0  0  0  0
  8 14  1  0  0  0  0
  8  7  2  0  0  0  0
  8 10  1  0  0  0  0
  9 18  1  6  0  0  0
  9 13  1  0  0  0  0
 10 28  1  0  0  0  0
 10 26  1  0  0  0  0
 12 25  1  0  0  0  0
 12 24  1  0  0  0  0
 13 26  1  0  0  0  0
 14  9  1  0  0  0  0
 15 11  2  0  0  0  0
 15 19  1  0  0  0  0
 16 20  2  0  0  0  0
 16 28  1  0  0  0  0
 17  3  1  1  0  0  0
 21 22  1  0  0  0  0
 21  1  2  0  0  0  0
 22  4  2  0  0  0  0
 23 15  1  0  0  0  0
 24  5  1  0  0  0  0
 25 19  1  6  0  0  0
 25 17  1  0  0  0  0
 26 24  2  0  0  0  0
 27  5  1  0  0  0  0
 28 12  2  0  0  0  0
M  END
>  <MODEL>
6

>  <REMARK>
 VINA RESULT:      -4.4      3.012      5.836
  Name = 
  0 active torsions:
  status: ('A' for Active; 'I' for Inactive)
                            x       y       z     vdW  Elec       q    Type
                         _______ _______ _______ _____ _____    ______ ____

>  <TORSDO>
F 0

$$$$
=
 OpenBabel11122411593D

 28 32  0  0  1  0  0  0  0  0999 V2000
  187.7810  176.8440  137.5730 C   0  0  0  0  0  0  0  0  0  0  0  0
  188.7270  176.2470  140.6930 O   0  0  0  0  0  0  0  0  0  0  0  0
  182.2460  180.0380  138.6910 C   0  0  0  0  0  1  0  0  0  0  0  0
  189.4150  179.0160  136.8860 C   0  0  0  0  0  3  0  0  0  0  0  0
  183.4000  178.8120  140.4560 N   0  0  0  0  0  0  0  0  0  0  0  0
  186.8760  175.6800  137.8470 C   0  0  0  0  0  2  0  0  0  0  0  0
  189.4510  178.5560  141.1670 O   0  0  0  0  0  0  0  0  0  0  0  0
  188.3390  177.5560  141.3190 S   0  0  0  0  0  0  0  0  0  0  0  0
  186.9390  178.3340  143.5090 C   0  0  2  0  0  3  0  0  0  0  0  0
  186.8920  178.1650  140.5960 N   0  0  0  0  0  0  0  0  0  0  0  0
  185.1140  177.4900  135.6110 O   0  0  0  0  0  0  0  0  0  0  0  0
  185.3020  178.7740  139.1600 C   0  0  0  0  0  0  0  0  0  0  0  0
  185.6140  178.1810  142.7590 C   0  0  0  0  0  2  0  0  0  0  0  0
  187.9740  177.3080  143.0450 C   0  0  0  0  0  2  0  0  0  0  0  0
  185.0120  176.7530  136.6280 C   0  0  0  0  0  0  0  0  0  0  0  0
  187.5860  178.0990  138.1940 C   0  0  0  0  0  0  0  0  0  0  0  0
  182.9330  178.7380  139.0680 C   0  0  2  0  0  3  0  0  0  0  0  0
  186.6980  178.1620  144.9930 C   0  0  0  0  0  1  0  0  0  0  0  0
  184.2220  177.1610  137.7400 N   0  0  0  0  0  2  0  0  0  0  0  0
  188.4140  179.1730  137.8470 C   0  0  0  0  0  3  0  0  0  0  0  0
  188.7870  176.6970  136.6100 C   0  0  0  0  0  3  0  0  0  0  0  0
  189.6040  177.7780  136.2700 C   0  0  0  0  0  3  0  0  0  0  0  0
  185.8350  175.5170  136.7380 C   0  0  0  0  0  2  0  0  0  0  0  0
  184.8100  178.8750  140.4060 C   0  0  0  0  0  0  0  0  0  0  0  0
  184.1940  178.5440  138.1810 C   0  0  2  0  0  3  0  0  0  0  0  0
  185.7820  178.4770  141.2990 C   0  0  0  0  0  0  0  0  0  0  0  0
  182.6620  178.2050  141.5510 C   0  0  0  0  0  1  0  0  0  0  0  0
  186.6080  178.3080  139.2780 C   0  0  0  0  0  0  0  0  0  0  0  0
  1  6  1  0  0  0  0
  1 16  1  0  0  0  0
  2  8  2  0  0  0  0
  4 20  1  0  0  0  0
  5 27  1  0  0  0  0
  7  8  2  0  0  0  0
  8 14  1  0  0  0  0
  9 18  1  1  0  0  0
 10 26  1  0  0  0  0
 10  8  1  0  0  0  0
 11 15  2  0  0  0  0
 12 28  2  0  0  0  0
 12 24  1  0  0  0  0
 13  9  1  0  0  0  0
 14  9  1  0  0  0  0
 15 23  1  0  0  0  0
 15 19  1  0  0  0  0
 16 28  1  0  0  0  0
 17  3  1  6  0  0  0
 17  5  1  0  0  0  0
 20 16  2  0  0  0  0
 21  1  2  0  0  0  0
 22 21  1  0  0  0  0
 22  4  2  0  0  0  0
 23  6  1  0  0  0  0
 24  5  1  0  0  0  0
 24 26  2  0  0  0  0
 25 19  1  1  0  0  0
 25 17  1  0  0  0  0
 25 12  1  0  0  0  0
 26 13  1  0  0  0  0
 28 10  1  0  0  0  0
M  END
>  <MODEL>
7

>  <REMARK>
 VINA RESULT:      -4.1      1.510      1.862
  Name = 
  0 active torsions:
  status: ('A' for Active; 'I' for Inactive)
                            x       y       z     vdW  Elec       q    Type
                         _______ _______ _______ _____ _____    ______ ____

>  <TORSDO>
F 0

$$$$
=
 OpenBabel11122411593D

 28 32  0  0  1  0  0  0  0  0999 V2000
  190.4210  178.3880  142.4450 C   0  0  0  0  0  0  0  0  0  0  0  0
  187.6080  179.7220  141.3070 O   0  0  0  0  0  0  0  0  0  0  0  0
  188.3050  176.0000  148.0930 C   0  0  0  0  0  1  0  0  0  0  0  0
  190.5560  176.0030  140.9770 C   0  0  0  0  0  3  0  0  0  0  0  0
  186.9720  177.5660  146.7820 N   0  0  0  0  0  0  0  0  0  0  0  0
  190.4390  179.6430  143.2640 C   0  0  0  0  0  2  0  0  0  0  0  0
  186.5570  177.5770  140.6970 O   0  0  0  0  0  0  0  0  0  0  0  0
  186.6420  178.6560  141.7400 S   0  0  0  0  0  0  0  0  0  0  0  0
  184.2780  178.5860  143.0700 C   0  0  2  0  0  3  0  0  0  0  0  0
  187.1270  177.9800  143.2550 N   0  0  0  0  0  0  0  0  0  0  0  0
  192.0480  177.4340  145.2410 O   0  0  0  0  0  0  0  0  0  0  0  0
  188.2940  177.1250  144.9480 C   0  0  0  0  0  0  0  0  0  0  0  0
  184.9970  178.6280  144.4200 C   0  0  0  0  0  2  0  0  0  0  0  0
  185.0330  179.3780  142.0010 C   0  0  0  0  0  2  0  0  0  0  0  0
  191.2630  178.4190  145.2480 C   0  0  0  0  0  0  0  0  0  0  0  0
  189.4810  177.3590  142.6810 C   0  0  0  0  0  0  0  0  0  0  0  0
  188.3130  177.3020  147.3130 C   0  0  2  0  0  3  0  0  0  0  0  0
  182.8870  179.1610  143.2250 C   0  0  0  0  0  1  0  0  0  0  0  0
  190.0570  178.3770  146.0030 N   0  0  0  0  0  2  0  0  0  0  0  0
  189.5550  176.1770  141.9360 C   0  0  0  0  0  3  0  0  0  0  0  0
  191.4210  178.2040  141.4820 C   0  0  0  0  0  3  0  0  0  0  0  0
  191.4860  177.0170  140.7480 C   0  0  0  0  0  3  0  0  0  0  0  0
  191.5160  179.5790  144.3490 C   0  0  0  0  0  2  0  0  0  0  0  0
  187.0500  177.3930  145.3820 C   0  0  0  0  0  0  0  0  0  0  0  0
  189.2610  177.1650  146.0890 C   0  0  2  0  0  3  0  0  0  0  0  0
  186.3300  177.9440  144.3440 C   0  0  0  0  0  0  0  0  0  0  0  0
  186.0560  178.4920  147.4260 C   0  0  0  0  0  1  0  0  0  0  0  0
  188.3480  177.5140  143.6130 C   0  0  0  0  0  0  0  0  0  0  0  0
  1 16  1  0  0  0  0
  1  6  1  0  0  0  0
  2  8  2  0  0  0  0
  4 20  1  0  0  0  0
  5 17  1  0  0  0  0
  5 27  1  0  0  0  0
  6 23  1  0  0  0  0
  7  8  2  0  0  0  0
  8 14  1  0  0  0  0
  8 10  1  0  0  0  0
  9 18  1  1  0  0  0
  9 13  1  0  0  0  0
 10 28  1  0  0  0  0
 10 26  1  0  0  0  0
 11 15  2  0  0  0  0
 12 24  1  0  0  0  0
 14  9  1  0  0  0  0
 15 19  1  0  0  0  0
 16 28  1  0  0  0  0
 17  3  1  6  0  0  0
 19 25  1  0  0  0  0
 20 16  2  0  0  0  0
 21  1  2  0  0  0  0
 22  4  2  0  0  0  0
 22 21  1  0  0  0  0
 23 15  1  0  0  0  0
 24  5  1  0  0  0  0
 25 12  1  6  0  0  0
 25 17  1  0  0  0  0
 26 13  1  0  0  0  0
 26 24  2  0  0  0  0
 28 12  2  0  0  0  0
M  END
>  <MODEL>
8

>  <REMARK>
 VINA RESULT:      -4.1      4.400      7.271
  Name = 
  0 active torsions:
  status: ('A' for Active; 'I' for Inactive)
                            x       y       z     vdW  Elec       q    Type
                         _______ _______ _______ _____ _____    ______ ____

>  <TORSDO>
F 0

$$$$
=
 OpenBabel11122411593D

 28 32  0  0  1  0  0  0  0  0999 V2000
  189.2060  173.7960  135.2440 C   0  0  0  0  0  0  0  0  0  0  0  0
  186.3390  175.3440  134.6370 O   0  0  0  0  0  0  0  0  0  0  0  0
  191.1060  177.0270  140.5390 C   0  0  0  0  0  1  0  0  0  0  0  0
  188.3300  171.4280  136.4600 C   0  0  0  0  0  3  0  0  0  0  0  0
  189.2760  177.8240  139.1370 N   0  0  0  0  0  0  0  0  0  0  0  0
  189.7660  175.0260  134.5940 C   0  0  0  0  0  2  0  0  0  0  0  0
  185.0950  174.2700  136.4750 O   0  0  0  0  0  0  0  0  0  0  0  0
  185.8450  175.5010  136.0470 S   0  0  0  0  0  0  0  0  0  0  0  0
  184.8600  177.5280  137.5570 C   0  0  2  0  0  3  0  0  0  0  0  0
  187.1670  175.7940  137.1210 N   0  0  0  0  0  0  0  0  0  0  0  0
  192.2180  174.1230  136.7280 O   0  0  0  0  0  0  0  0  0  0  0  0
  189.1250  175.7350  138.1800 C   0  0  0  0  0  0  0  0  0  0  0  0
  186.2740  178.0130  137.8890 C   0  0  0  0  0  2  0  0  0  0  0  0
  184.7830  176.9280  136.1530 C   0  0  0  0  0  2  0  0  0  0  0  0
  191.6360  175.1130  136.2090 C   0  0  0  0  0  0  0  0  0  0  0  0
  188.6080  173.8390  136.5240 C   0  0  0  0  0  0  0  0  0  0  0  0
  190.6440  177.2960  139.1190 C   0  0  2  0  0  3  0  0  0  0  0  0
  183.8960  178.6900  137.6560 C   0  0  0  0  0  1  0  0  0  0  0  0
  191.1820  176.1910  137.0200 N   0  0  0  0  0  2  0  0  0  0  0  0
  188.1690  172.6500  137.1160 C   0  0  0  0  0  3  0  0  0  0  0  0
  189.3640  172.5660  134.5940 C   0  0  0  0  0  3  0  0  0  0  0  0
  188.9250  171.3860  135.1980 C   0  0  0  0  0  3  0  0  0  0  0  0
  191.2850  175.0960  134.7620 C   0  0  0  0  0  2  0  0  0  0  0  0
  188.4450  176.8130  138.6050 C   0  0  0  0  0  0  0  0  0  0  0  0
  190.5970  175.9580  138.3290 C   0  0  2  0  0  3  0  0  0  0  0  0
  187.2410  176.8680  137.9350 C   0  0  0  0  0  0  0  0  0  0  0  0
  188.9960  179.2440  139.0070 C   0  0  0  0  0  1  0  0  0  0  0  0
  188.3280  175.1030  137.2300 C   0  0  0  0  0  0  0  0  0  0  0  0
  1 16  1  0  0  0  0
  2  8  2  0  0  0  0
  4 20  1  0  0  0  0
  6 23  1  0  0  0  0
  6  1  1  0  0  0  0
  8 14  1  0  0  0  0
  8  7  2  0  0  0  0
  8 10  1  0  0  0  0
  9 18  1  6  0  0  0
  9 13  1  0  0  0  0
 10 28  1  0  0  0  0
 10 26  1  0  0  0  0
 12 25  1  0  0  0  0
 12 24  1  0  0  0  0
 13 26  1  0  0  0  0
 14  9  1  0  0  0  0
 15 11  2  0  0  0  0
 15 19  1  0  0  0  0
 16 20  2  0  0  0  0
 16 28  1  0  0  0  0
 17  5  1  0  0  0  0
 17  3  1  1  0  0  0
 21 22  1  0  0  0  0
 21  1  2  0  0  0  0
 22  4  2  0  0  0  0
 23 15  1  0  0  0  0
 24  5  1  0  0  0  0
 25 19  1  6  0  0  0
 25 17  1  0  0  0  0
 26 24  2  0  0  0  0
 27  5  1  0  0  0  0
 28 12  2  0  0  0  0
M  END
>  <MODEL>
9

>  <REMARK>
 VINA RESULT:      -3.7      2.687      5.641
  Name = 
  0 active torsions:
  status: ('A' for Active; 'I' for Inactive)
                            x       y       z     vdW  Elec       q    Type
                         _______ _______ _______ _____ _____    ______ ____

>  <TORSDO>
F 0

$$$$
