=
 OpenBabel11122411593D

 28 33  0  0  1  0  0  0  0  0999 V2000
  191.2190  174.6040  137.4660 C   0  0  0  0  0  0  0  0  0  0  0  0
  190.8370  175.8910  141.3110 O   0  0  0  0  0  0  0  0  0  0  0  0
  185.7990  176.7270  137.5940 O   0  0  0  0  0  1  0  0  0  0  0  0
  193.6770  175.6930  138.2490 C   0  0  0  0  0  3  0  0  0  0  0  0
  187.2700  178.5570  137.2000 C   0  0  1  0  0  3  0  0  0  0  0  0
  189.9020  174.0750  136.9780 C   0  0  1  0  0  3  0  0  0  0  0  0
  191.1900  178.2530  141.8600 O   0  0  0  0  0  0  0  0  0  0  0  0
  190.2710  177.2780  141.1810 S   0  0  0  0  0  0  0  0  0  0  0  0
  187.8590  178.4370  141.3150 C   0  0  2  0  0  3  0  0  0  0  0  0
  190.1070  177.7400  139.4550 C   0  0  2  0  0  3  0  0  0  0  0  0
  190.5580  175.5810  135.0870 O   0  0  0  0  0  1  0  0  0  0  0  0
  189.1880  177.0880  137.2980 C   0  0  2  0  0  3  0  0  0  0  0  0
  187.7070  178.1440  139.8970 N   0  0  0  0  0  2  0  0  0  0  0  0
  188.6770  177.3400  141.9640 C   0  0  0  0  0  2  0  0  0  0  0  0
  189.5480  174.8140  135.6820 C   0  0  2  0  0  0  0  0  0  0  0  0
  191.2470  175.8420  138.1530 C   0  0  0  0  0  0  0  0  0  0  0  0
  186.8780  177.1420  136.8130 C   0  0  1  0  0  3  0  0  0  0  0  0
  186.4940  178.4920  141.9640 C   0  0  0  0  0  1  0  0  0  0  0  0
  188.1700  175.4630  135.7920 C   0  0  0  0  0  2  0  0  0  0  0  0
  192.4910  176.3780  138.5280 C   0  0  0  0  0  3  0  0  0  0  0  0
  192.4110  173.9180  137.2000 C   0  0  0  0  0  3  0  0  0  0  0  0
  193.6360  174.4620  137.5930 C   0  0  0  0  0  3  0  0  0  0  0  0
  189.8190  173.3300  135.6480 C   0  0  0  0  0  2  0  0  0  0  0  0
  188.7070  178.4770  137.6650 C   0  0  2  0  0  3  0  0  0  0  0  0
  188.0110  176.2460  137.0310 N   0  0  1  0  0  0  0  0  0  0  0  0
  188.8930  178.6280  139.1790 C   0  0  2  0  0  3  0  0  0  0  0  0
  187.1800  179.4540  135.9820 C   0  0  0  0  0  1  0  0  0  0  0  0
  189.9490  176.5510  138.5170 C   0  0  1  0  0  3  0  0  0  0  0  0
  1 16  1  0  0  0  0
  4 20  1  0  0  0  0
  5 27  1  6  0  0  0
  5 24  1  0  0  0  0
  6 23  1  6  0  0  0
  6  1  1  0  0  0  0
  8  2  2  0  0  0  0
  8  7  2  0  0  0  0
  8 14  1  0  0  0  0
  9 18  1  1  0  0  0
  9 14  1  0  0  0  0
 10  8  1  1  0  0  0
 11 15  1  0  0  0  0
 12 24  1  0  0  0  0
 12 28  1  0  0  0  0
 13  9  1  0  0  0  0
 15 19  1  0  0  0  0
 15  6  1  0  0  0  0
 16 28  1  0  0  0  0
 16 20  2  0  0  0  0
 17 25  1  0  0  0  0
 17  5  1  0  0  0  0
 17  3  1  0  0  0  0
 19 25  1  0  0  0  0
 21  1  2  0  0  0  0
 21 22  1  0  0  0  0
 22  4  2  0  0  0  0
 23 15  1  0  0  0  0
 24 26  1  0  0  0  0
 25 12  1  0  0  0  0
 26 10  1  0  0  0  0
 26 13  1  0  0  0  0
 28 10  1  0  0  0  0
M  END
>  <MODEL>
1

>  <REMARK>
 VINA RESULT:      -6.6      0.000      0.000
  Name = 
  0 active torsions:
  status: ('A' for Active; 'I' for Inactive)
                            x       y       z     vdW  Elec       q    Type
                         _______ _______ _______ _____ _____    ______ ____

>  <TORSDO>
F 0

$$$$
=
 OpenBabel11122411593D

 28 33  0  0  1  0  0  0  0  0999 V2000
  186.6560  177.7390  143.1180 C   0  0  0  0  0  0  0  0  0  0  0  0
  183.2010  177.1000  141.0600 O   0  0  0  0  0  0  0  0  0  0  0  0
  188.5550  175.9110  137.9260 O   0  0  0  0  0  1  0  0  0  0  0  0
  184.8440  179.7430  143.8510 C   0  0  0  0  0  3  0  0  0  0  0  0
  188.1460  178.2500  137.7510 C   0  0  1  0  0  3  0  0  0  0  0  0
  187.6850  176.7270  142.7040 C   0  0  1  0  0  3  0  0  0  0  0  0
  182.3430  178.8130  139.5320 O   0  0  0  0  0  0  0  0  0  0  0  0
  183.4230  177.7910  139.7440 S   0  0  0  0  0  0  0  0  0  0  0  0
  184.1790  177.1050  137.2660 C   0  0  2  0  0  3  0  0  0  0  0  0
  185.0160  178.6170  139.7180 C   0  0  2  0  0  3  0  0  0  0  0  0
  188.9980  178.8550  142.5510 O   0  0  0  0  0  1  0  0  0  0  0  0
  187.4100  178.3340  140.0520 C   0  0  2  0  0  3  0  0  0  0  0  0
  185.5560  177.2920  137.6990 N   0  0  0  0  0  2  0  0  0  0  0  0
  183.3550  176.5950  138.4310 C   0  0  0  0  0  2  0  0  0  0  0  0
  188.9390  177.4860  142.2550 C   0  0  2  0  0  0  0  0  0  0  0  0
  185.9080  178.4040  142.1170 C   0  0  0  0  0  0  0  0  0  0  0  0
  188.7870  177.1340  138.5570 C   0  0  1  0  0  3  0  0  0  0  0  0
  184.1390  176.0890  136.1450 C   0  0  0  0  0  1  0  0  0  0  0  0
  189.3410  177.0740  140.8410 C   0  0  0  0  0  2  0  0  0  0  0  0
  185.0120  179.4140  142.5040 C   0  0  0  0  0  3  0  0  0  0  0  0
  186.4750  178.0660  144.4690 C   0  0  0  0  0  3  0  0  0  0  0  0
  185.5690  179.0650  144.8320 C   0  0  0  0  0  3  0  0  0  0  0  0
  188.9960  176.6030  143.4780 C   0  0  0  0  0  2  0  0  0  0  0  0
  187.1460  178.9080  138.6750 C   0  0  2  0  0  3  0  0  0  0  0  0
  188.2090  177.1090  139.8980 N   0  0  1  0  0  0  0  0  0  0  0  0
  185.6800  178.6070  138.3410 C   0  0  2  0  0  3  0  0  0  0  0  0
  189.2070  179.2570  137.3540 C   0  0  0  0  0  1  0  0  0  0  0  0
  186.0410  177.9940  140.6560 C   0  0  1  0  0  3  0  0  0  0  0  0
  1 21  1  0  0  0  0
  3 17  1  0  0  0  0
  4 22  1  0  0  0  0
  5 27  1  1  0  0  0
  5 17  1  0  0  0  0
  5 24  1  0  0  0  0
  6  1  1  0  0  0  0
  6 23  1  1  0  0  0
  7  8  2  0  0  0  0
  8  2  2  0  0  0  0
  9 18  1  6  0  0  0
  9 13  1  0  0  0  0
  9 14  1  0  0  0  0
 10  8  1  6  0  0  0
 10 28  1  0  0  0  0
 12 28  1  0  0  0  0
 13 26  1  0  0  0  0
 14  8  1  0  0  0  0
 15 11  1  0  0  0  0
 15  6  1  0  0  0  0
 15 23  1  0  0  0  0
 16 20  1  0  0  0  0
 16  1  2  0  0  0  0
 17 25  1  0  0  0  0
 19 15  1  0  0  0  0
 20  4  2  0  0  0  0
 21 22  2  0  0  0  0
 24 12  1  0  0  0  0
 25 12  1  0  0  0  0
 25 19  1  0  0  0  0
 26 24  1  0  0  0  0
 26 10  1  0  0  0  0
 28 16  1  0  0  0  0
M  END
>  <MODEL>
2

>  <REMARK>
 VINA RESULT:      -5.9      3.278      6.705
  Name = 
  0 active torsions:
  status: ('A' for Active; 'I' for Inactive)
                            x       y       z     vdW  Elec       q    Type
                         _______ _______ _______ _____ _____    ______ ____

>  <TORSDO>
F 0

$$$$
=
 OpenBabel11122411593D

 28 33  0  0  1  0  0  0  0  0999 V2000
  182.9850  177.7660  138.8620 C   0  0  0  0  0  0  0  0  0  0  0  0
  183.7750  174.3130  136.8540 O   0  0  0  0  0  0  0  0  0  0  0  0
  188.6770  176.9870  139.8060 O   0  0  0  0  0  1  0  0  0  0  0  0
  181.4590  177.7760  136.5150 C   0  0  0  0  0  3  0  0  0  0  0  0
  188.4480  178.0770  137.7020 C   0  0  1  0  0  3  0  0  0  0  0  0
  183.8360  177.8380  140.0970 C   0  0  1  0  0  3  0  0  0  0  0  0
  184.7180  174.3910  134.5940 O   0  0  0  0  0  0  0  0  0  0  0  0
  185.0050  174.6280  136.0490 S   0  0  0  0  0  0  0  0  0  0  0  0
  187.6500  174.2560  136.2710 C   0  0  2  0  0  3  0  0  0  0  0  0
  185.4920  176.3400  136.2730 C   0  0  2  0  0  3  0  0  0  0  0  0
  184.2050  180.1110  139.1120 O   0  0  0  0  0  1  0  0  0  0  0  0
  186.0390  178.0570  137.9090 C   0  0  2  0  0  3  0  0  0  0  0  0
  187.7020  175.5090  137.0110 N   0  0  0  0  0  2  0  0  0  0  0  0
  186.3330  173.5640  136.5590 C   0  0  0  0  0  2  0  0  0  0  0  0
  184.6060  179.1620  140.0620 C   0  0  2  0  0  0  0  0  0  0  0  0
  183.5880  177.3940  137.6360 C   0  0  0  0  0  0  0  0  0  0  0  0
  188.0390  178.0480  139.1640 C   0  0  1  0  0  3  0  0  0  0  0  0
  188.7890  173.3650  136.7130 C   0  0  0  0  0  1  0  0  0  0  0  0
  186.1080  178.9160  140.1890 C   0  0  0  0  0  2  0  0  0  0  0  0
  182.8090  177.4170  136.4670 C   0  0  0  0  0  3  0  0  0  0  0  0
  181.6280  178.1150  138.9040 C   0  0  0  0  0  3  0  0  0  0  0  0
  180.8690  178.1170  137.7330 C   0  0  0  0  0  3  0  0  0  0  0  0
  183.5820  178.9210  141.1430 C   0  0  0  0  0  2  0  0  0  0  0  0
  187.1700  177.9170  136.9100 C   0  0  2  0  0  3  0  0  0  0  0  0
  186.5910  177.8770  139.2610 N   0  0  1  0  0  0  0  0  0  0  0  0
  187.0060  176.5480  136.2400 C   0  0  2  0  0  3  0  0  0  0  0  0
  189.0770  179.4190  137.3830 C   0  0  0  0  0  1  0  0  0  0  0  0
  185.0400  176.9350  137.5990 C   0  0  1  0  0  3  0  0  0  0  0  0
  1 21  1  0  0  0  0
  1  6  1  0  0  0  0
  4 22  1  0  0  0  0
  5 27  1  6  0  0  0
  5 17  1  0  0  0  0
  6 23  1  1  0  0  0
  7  8  2  0  0  0  0
  8 14  1  0  0  0  0
  8  2  2  0  0  0  0
  9 14  1  0  0  0  0
  9 18  1  1  0  0  0
  9 13  1  0  0  0  0
 10  8  1  1  0  0  0
 10 28  1  0  0  0  0
 11 15  1  0  0  0  0
 12 25  1  0  0  0  0
 15  6  1  0  0  0  0
 15 19  1  0  0  0  0
 15 23  1  0  0  0  0
 16  1  2  0  0  0  0
 17 25  1  0  0  0  0
 17  3  1  0  0  0  0
 20  4  2  0  0  0  0
 20 16  1  0  0  0  0
 22 21  2  0  0  0  0
 24  5  1  0  0  0  0
 24 12  1  0  0  0  0
 25 19  1  0  0  0  0
 26 10  1  0  0  0  0
 26 24  1  0  0  0  0
 26 13  1  0  0  0  0
 28 16  1  0  0  0  0
 28 12  1  0  0  0  0
M  END
>  <MODEL>
3

>  <REMARK>
 VINA RESULT:      -5.8      3.371      7.519
  Name = 
  0 active torsions:
  status: ('A' for Active; 'I' for Inactive)
                            x       y       z     vdW  Elec       q    Type
                         _______ _______ _______ _____ _____    ______ ____

>  <TORSDO>
F 0

$$$$
=
 OpenBabel11122411593D

 28 33  0  0  1  0  0  0  0  0999 V2000
  187.1040  174.3390  136.3720 C   0  0  0  0  0  0  0  0  0  0  0  0
  188.9130  176.8080  139.0570 O   0  0  0  0  0  0  0  0  0  0  0  0
  182.6880  176.0140  139.7770 O   0  0  0  0  0  1  0  0  0  0  0  0
  189.0710  175.7880  135.0070 C   0  0  0  0  0  3  0  0  0  0  0  0
  182.9920  177.7010  138.1260 C   0  0  1  0  0  3  0  0  0  0  0  0
  185.9910  173.5890  137.0460 C   0  0  1  0  0  3  0  0  0  0  0  0
  188.8610  179.2350  138.7280 O   0  0  0  0  0  0  0  0  0  0  0  0
  188.0380  178.0300  139.0820 S   0  0  0  0  0  0  0  0  0  0  0  0
  186.0620  179.0040  140.6090 C   0  0  2  0  0  3  0  0  0  0  0  0
  186.6950  177.8770  137.9010 C   0  0  2  0  0  3  0  0  0  0  0  0
  184.8460  174.4180  134.9770 O   0  0  0  0  0  1  0  0  0  0  0  0
  184.8440  176.4810  137.1630 C   0  0  2  0  0  3  0  0  0  0  0  0
  185.1340  178.2440  139.7840 N   0  0  0  0  0  2  0  0  0  0  0  0
  187.3690  178.2440  140.7140 C   0  0  0  0  0  2  0  0  0  0  0  0
  184.7080  173.8280  136.2410 C   0  0  2  0  0  0  0  0  0  0  0  0
  187.2170  175.7340  136.5850 C   0  0  0  0  0  0  0  0  0  0  0  0
  182.8560  176.2150  138.4080 C   0  0  1  0  0  3  0  0  0  0  0  0
  185.4750  179.1810  141.9920 C   0  0  0  0  0  1  0  0  0  0  0  0
  183.6040  174.3820  137.1380 C   0  0  0  0  0  2  0  0  0  0  0  0
  188.2030  176.4460  135.8820 C   0  0  0  0  0  3  0  0  0  0  0  0
  187.9850  173.6840  135.5010 C   0  0  0  0  0  3  0  0  0  0  0  0
  188.9670  174.4090  134.8220 C   0  0  0  0  0  3  0  0  0  0  0  0
  185.2930  172.4390  136.3240 C   0  0  0  0  0  2  0  0  0  0  0  0
  184.3450  177.8780  137.4740 C   0  0  2  0  0  3  0  0  0  0  0  0
  184.0590  175.5220  137.9550 N   0  0  1  0  0  0  0  0  0  0  0  0
  185.3990  178.5380  138.3700 C   0  0  2  0  0  3  0  0  0  0  0  0
  181.9050  178.1310  137.1610 C   0  0  0  0  0  1  0  0  0  0  0  0
  186.3160  176.4350  137.5940 C   0  0  1  0  0  3  0  0  0  0  0  0
  1 16  1  0  0  0  0
  1  6  1  0  0  0  0
  2  8  2  0  0  0  0
  4 20  1  0  0  0  0
  5 27  1  6  0  0  0
  5 17  1  0  0  0  0
  6 23  1  6  0  0  0
  7  8  2  0  0  0  0
  8 14  1  0  0  0  0
  9 14  1  0  0  0  0
  9 18  1  1  0  0  0
 10 26  1  0  0  0  0
 10  8  1  1  0  0  0
 11 15  1  0  0  0  0
 12 24  1  0  0  0  0
 12 28  1  0  0  0  0
 12 25  1  0  0  0  0
 13  9  1  0  0  0  0
 15 23  1  0  0  0  0
 15  6  1  0  0  0  0
 15 19  1  0  0  0  0
 16 28  1  0  0  0  0
 17  3  1  0  0  0  0
 19 25  1  0  0  0  0
 20 16  2  0  0  0  0
 21  1  2  0  0  0  0
 22  4  2  0  0  0  0
 22 21  1  0  0  0  0
 24  5  1  0  0  0  0
 24 26  1  0  0  0  0
 25 17  1  0  0  0  0
 26 13  1  0  0  0  0
 28 10  1  0  0  0  0
M  END
>  <MODEL>
4

>  <REMARK>
 VINA RESULT:      -5.7      3.150      4.226
  Name = 
  0 active torsions:
  status: ('A' for Active; 'I' for Inactive)
                            x       y       z     vdW  Elec       q    Type
                         _______ _______ _______ _____ _____    ______ ____

>  <TORSDO>
F 0

$$$$
=
 OpenBabel11122411593D

 28 33  0  0  1  0  0  0  0  0999 V2000
  187.6480  176.2320  137.0530 C   0  0  0  0  0  0  0  0  0  0  0  0
  185.8440  178.6100  139.8220 O   0  0  0  0  0  0  0  0  0  0  0  0
  182.3650  173.8400  137.5760 O   0  0  0  0  0  1  0  0  0  0  0  0
  188.4740  178.8650  136.5840 C   0  0  0  0  0  3  0  0  0  0  0  0
  182.1830  175.6320  136.0200 C   0  0  1  0  0  3  0  0  0  0  0  0
  187.1790  174.8150  137.2220 C   0  0  1  0  0  3  0  0  0  0  0  0
  184.3530  180.4190  139.1090 O   0  0  0  0  0  0  0  0  0  0  0  0
  184.5050  178.9290  139.2180 S   0  0  0  0  0  0  0  0  0  0  0  0
  181.9910  178.0210  139.4170 C   0  0  2  0  0  3  0  0  0  0  0  0
  184.3560  178.2080  137.5810 C   0  0  2  0  0  3  0  0  0  0  0  0
  186.9030  175.1350  134.7520 O   0  0  0  0  0  1  0  0  0  0  0  0
  184.5280  176.1550  136.2870 C   0  0  2  0  0  3  0  0  0  0  0  0
  182.3250  177.0480  138.3880 N   0  0  0  0  0  2  0  0  0  0  0  0
  183.2180  178.2900  140.2640 C   0  0  0  0  0  2  0  0  0  0  0  0
  186.6330  174.3360  135.8710 C   0  0  2  0  0  0  0  0  0  0  0  0
  186.6910  177.2750  137.0580 C   0  0  0  0  0  0  0  0  0  0  0  0
  182.9590  174.3980  136.4450 C   0  0  1  0  0  3  0  0  0  0  0  0
  180.8910  177.4650  140.2950 C   0  0  0  0  0  1  0  0  0  0  0  0
  185.2010  173.8270  136.0190 C   0  0  0  0  0  2  0  0  0  0  0  0
  187.1230  178.5880  136.8090 C   0  0  0  0  0  3  0  0  0  0  0  0
  189.0020  176.5180  136.8370 C   0  0  0  0  0  3  0  0  0  0  0  0
  189.4130  177.8320  136.6050 C   0  0  0  0  0  3  0  0  0  0  0  0
  187.8620  173.6840  136.4570 C   0  0  0  0  0  2  0  0  0  0  0  0
  183.1650  176.7810  136.0810 C   0  0  2  0  0  3  0  0  0  0  0  0
  184.3380  174.7720  136.7510 N   0  0  1  0  0  0  0  0  0  0  0  0
  182.9370  177.7480  137.2500 C   0  0  2  0  0  3  0  0  0  0  0  0
  181.6990  175.4550  134.5950 C   0  0  0  0  0  1  0  0  0  0  0  0
  185.2300  176.9790  137.3740 C   0  0  1  0  0  3  0  0  0  0  0  0
  1 16  1  0  0  0  0
  1  6  1  0  0  0  0
  4 22  2  0  0  0  0
  4 20  1  0  0  0  0
  5 27  1  6  0  0  0
  5 24  1  0  0  0  0
  5 17  1  0  0  0  0
  6 23  1  6  0  0  0
  7  8  2  0  0  0  0
  8  2  2  0  0  0  0
  8 14  1  0  0  0  0
  9 14  1  0  0  0  0
  9 18  1  1  0  0  0
 10  8  1  1  0  0  0
 11 15  1  0  0  0  0
 12 25  1  0  0  0  0
 12 28  1  0  0  0  0
 13  9  1  0  0  0  0
 15 19  1  0  0  0  0
 15 23  1  0  0  0  0
 15  6  1  0  0  0  0
 16 28  1  0  0  0  0
 17 25  1  0  0  0  0
 17  3  1  0  0  0  0
 19 25  1  0  0  0  0
 20 16  2  0  0  0  0
 21  1  2  0  0  0  0
 22 21  1  0  0  0  0
 24 12  1  0  0  0  0
 24 26  1  0  0  0  0
 26 10  1  0  0  0  0
 26 13  1  0  0  0  0
 28 10  1  0  0  0  0
M  END
>  <MODEL>
5

>  <REMARK>
 VINA RESULT:      -5.7      3.686      5.302
  Name = 
  0 active torsions:
  status: ('A' for Active; 'I' for Inactive)
                            x       y       z     vdW  Elec       q    Type
                         _______ _______ _______ _____ _____    ______ ____

>  <TORSDO>
F 0

$$$$
=
 OpenBabel11122411593D

 28 33  0  0  1  0  0  0  0  0999 V2000
  185.3610  175.1680  137.0290 C   0  0  0  0  0  0  0  0  0  0  0  0
  185.2800  178.2530  139.6860 O   0  0  0  0  0  0  0  0  0  0  0  0
  180.1110  174.6280  139.4870 O   0  0  0  0  0  1  0  0  0  0  0  0
  186.6610  177.3480  135.8460 C   0  0  0  0  0  3  0  0  0  0  0  0
  179.9130  176.2250  137.7330 C   0  0  1  0  0  3  0  0  0  0  0  0
  184.6120  173.9960  137.5940 C   0  0  1  0  0  3  0  0  0  0  0  0
  184.1810  180.3610  139.0940 O   0  0  0  0  0  0  0  0  0  0  0  0
  183.9540  178.9170  139.4400 S   0  0  0  0  0  0  0  0  0  0  0  0
  181.5010  178.8730  140.5180 C   0  0  2  0  0  3  0  0  0  0  0  0
  183.0860  178.1240  138.0840 C   0  0  2  0  0  3  0  0  0  0  0  0
  183.6340  174.1440  135.2920 O   0  0  0  0  0  1  0  0  0  0  0  0
  182.2640  176.0050  137.2140 C   0  0  2  0  0  3  0  0  0  0  0  0
  181.2030  177.7480  139.6430 N   0  0  0  0  0  2  0  0  0  0  0  0
  182.9640  178.8220  140.9120 C   0  0  0  0  0  2  0  0  0  0  0  0
  183.5440  173.5840  136.5730 C   0  0  2  0  0  0  0  0  0  0  0  0
  184.7760  176.4560  137.1060 C   0  0  0  0  0  0  0  0  0  0  0  0
  180.4250  174.8570  138.1480 C   0  0  1  0  0  3  0  0  0  0  0  0
  180.6460  178.7790  141.7630 C   0  0  0  0  0  1  0  0  0  0  0  0
  182.1600  173.5700  137.2190 C   0  0  0  0  0  2  0  0  0  0  0  0
  185.4380  177.5350  136.4960 C   0  0  0  0  0  3  0  0  0  0  0  0
  186.5920  174.9900  136.3850 C   0  0  0  0  0  3  0  0  0  0  0  0
  187.2400  176.0790  135.7970 C   0  0  0  0  0  3  0  0  0  0  0  0
  184.6740  172.6380  136.8980 C   0  0  0  0  0  2  0  0  0  0  0  0
  181.1300  177.0070  137.2900 C   0  0  2  0  0  3  0  0  0  0  0  0
  181.8740  174.8050  137.9700 N   0  0  1  0  0  0  0  0  0  0  0  0
  181.5690  178.1040  138.2660 C   0  0  2  0  0  3  0  0  0  0  0  0
  178.9580  176.0720  136.5670 C   0  0  0  0  0  1  0  0  0  0  0  0
  183.4790  176.6680  137.8760 C   0  0  1  0  0  3  0  0  0  0  0  0
  1 16  1  0  0  0  0
  1  6  1  0  0  0  0
  4 20  1  0  0  0  0
  5 27  1  6  0  0  0
  5 17  1  0  0  0  0
  6 23  1  6  0  0  0
  7  8  2  0  0  0  0
  8  2  2  0  0  0  0
  8 14  1  0  0  0  0
  9 14  1  0  0  0  0
  9 18  1  1  0  0  0
 10 26  1  0  0  0  0
 10  8  1  1  0  0  0
 11 15  1  0  0  0  0
 12 24  1  0  0  0  0
 12 28  1  0  0  0  0
 12 25  1  0  0  0  0
 13  9  1  0  0  0  0
 15 23  1  0  0  0  0
 15 19  1  0  0  0  0
 15  6  1  0  0  0  0
 16 28  1  0  0  0  0
 17  3  1  0  0  0  0
 19 25  1  0  0  0  0
 20 16  2  0  0  0  0
 21  1  2  0  0  0  0
 22  4  2  0  0  0  0
 22 21  1  0  0  0  0
 24  5  1  0  0  0  0
 24 26  1  0  0  0  0
 25 17  1  0  0  0  0
 26 13  1  0  0  0  0
 28 10  1  0  0  0  0
M  END
>  <MODEL>
6

>  <REMARK>
 VINA RESULT:      -5.5      4.931      6.779
  Name = 
  0 active torsions:
  status: ('A' for Active; 'I' for Inactive)
                            x       y       z     vdW  Elec       q    Type
                         _______ _______ _______ _____ _____    ______ ____

>  <TORSDO>
F 0

$$$$
=
 OpenBabel11122411593D

 28 33  0  0  1  0  0  0  0  0999 V2000
  182.6390  178.2380  140.1640 C   0  0  0  0  0  0  0  0  0  0  0  0
  180.8730  174.8170  138.8370 O   0  0  0  0  0  0  0  0  0  0  0  0
  186.9250  175.6200  137.2180 O   0  0  0  0  0  1  0  0  0  0  0  0
  179.9960  178.8540  139.4750 C   0  0  0  0  0  3  0  0  0  0  0  0
  185.6130  176.8280  135.6410 C   0  0  1  0  0  3  0  0  0  0  0  0
  184.0820  177.9700  140.4800 C   0  0  1  0  0  3  0  0  0  0  0  0
  179.9750  174.6980  136.5600 O   0  0  0  0  0  0  0  0  0  0  0  0
  181.2330  174.7580  137.3780 S   0  0  0  0  0  0  0  0  0  0  0  0
  183.0730  173.5430  135.8550 C   0  0  2  0  0  3  0  0  0  0  0  0
  182.1720  176.2090  136.8950 C   0  0  2  0  0  3  0  0  0  0  0  0
  184.2580  180.0490  139.0930 O   0  0  0  0  0  1  0  0  0  0  0  0
  184.1230  177.5750  137.3930 C   0  0  2  0  0  3  0  0  0  0  0  0
  183.9500  174.6740  136.1200 N   0  0  0  0  0  2  0  0  0  0  0  0
  182.1980  173.2990  137.0680 C   0  0  0  0  0  2  0  0  0  0  0  0
  184.9310  178.9760  139.6940 C   0  0  2  0  0  0  0  0  0  0  0  0
  182.1030  177.7520  138.9460 C   0  0  0  0  0  0  0  0  0  0  0  0
  186.3340  176.8600  136.9770 C   0  0  1  0  0  3  0  0  0  0  0  0
  183.9100  172.3110  135.5870 C   0  0  0  0  0  1  0  0  0  0  0  0
  185.9660  178.2530  138.8360 C   0  0  0  0  0  2  0  0  0  0  0  0
  180.7790  178.0820  138.6130 C   0  0  0  0  0  3  0  0  0  0  0  0
  181.8450  179.0030  141.0280 C   0  0  0  0  0  3  0  0  0  0  0  0
  180.5260  179.3070  140.6840 C   0  0  0  0  0  3  0  0  0  0  0  0
  184.9180  179.0250  141.2020 C   0  0  0  0  0  2  0  0  0  0  0  0
  184.1620  177.1280  135.9460 C   0  0  2  0  0  3  0  0  0  0  0  0
  185.3780  177.1610  138.0390 N   0  0  1  0  0  0  0  0  0  0  0  0
  183.2260  175.9180  135.8270 C   0  0  2  0  0  3  0  0  0  0  0  0
  186.1750  177.9090  134.7400 C   0  0  0  0  0  1  0  0  0  0  0  0
  182.9370  176.8510  138.0430 C   0  0  1  0  0  3  0  0  0  0  0  0
  1  6  1  0  0  0  0
  1 21  1  0  0  0  0
  4 22  1  0  0  0  0
  5 27  1  6  0  0  0
  5 24  1  0  0  0  0
  5 17  1  0  0  0  0
  6 23  1  1  0  0  0
  7  8  2  0  0  0  0
  8  2  2  0  0  0  0
  9 18  1  1  0  0  0
  9 13  1  0  0  0  0
  9 14  1  0  0  0  0
 10  8  1  1  0  0  0
 10 28  1  0  0  0  0
 11 15  1  0  0  0  0
 12 25  1  0  0  0  0
 12 28  1  0  0  0  0
 14  8  1  0  0  0  0
 15  6  1  0  0  0  0
 15 23  1  0  0  0  0
 16  1  2  0  0  0  0
 17  3  1  0  0  0  0
 17 25  1  0  0  0  0
 19 15  1  0  0  0  0
 20 16  1  0  0  0  0
 20  4  2  0  0  0  0
 22 21  2  0  0  0  0
 24 12  1  0  0  0  0
 25 19  1  0  0  0  0
 26 24  1  0  0  0  0
 26 13  1  0  0  0  0
 26 10  1  0  0  0  0
 28 16  1  0  0  0  0
M  END
>  <MODEL>
7

>  <REMARK>
 VINA RESULT:      -5.4      4.805      8.634
  Name = 
  0 active torsions:
  status: ('A' for Active; 'I' for Inactive)
                            x       y       z     vdW  Elec       q    Type
                         _______ _______ _______ _____ _____    ______ ____

>  <TORSDO>
F 0

$$$$
=
 OpenBabel11122411593D

 28 33  0  0  1  0  0  0  0  0999 V2000
  187.1740  176.4030  137.0810 C   0  0  0  0  0  0  0  0  0  0  0  0
  188.4640  177.0900  140.8820 O   0  0  0  0  0  0  0  0  0  0  0  0
  182.2030  176.8610  140.0780 O   0  0  0  0  0  1  0  0  0  0  0  0
  189.4300  178.0540  136.9310 C   0  0  0  0  0  3  0  0  0  0  0  0
  182.9000  179.0670  139.5160 C   0  0  1  0  0  3  0  0  0  0  0  0
  185.9210  175.5770  137.1150 C   0  0  1  0  0  3  0  0  0  0  0  0
  188.5620  179.3780  141.7550 O   0  0  0  0  0  0  0  0  0  0  0  0
  187.6440  178.2630  141.3430 S   0  0  0  0  0  0  0  0  0  0  0  0
  185.4260  178.6630  142.7940 C   0  0  2  0  0  3  0  0  0  0  0  0
  186.5730  178.8490  140.0280 C   0  0  2  0  0  3  0  0  0  0  0  0
  185.2610  177.4100  135.5400 O   0  0  0  0  0  1  0  0  0  0  0  0
  184.8710  178.2060  138.4120 C   0  0  2  0  0  3  0  0  0  0  0  0
  184.6650  178.4990  141.5640 N   0  0  0  0  0  2  0  0  0  0  0  0
  186.6560  177.7800  142.7390 C   0  0  0  0  0  2  0  0  0  0  0  0
  184.8430  176.3240  136.3210 C   0  0  2  0  0  0  0  0  0  0  0  0
  187.2860  177.5130  137.9540 C   0  0  0  0  0  0  0  0  0  0  0  0
  182.6590  177.6520  139.0230 C   0  0  1  0  0  3  0  0  0  0  0  0
  184.5700  178.2530  143.9720 C   0  0  0  0  0  1  0  0  0  0  0  0
  183.5950  176.5370  137.1750 C   0  0  0  0  0  2  0  0  0  0  0  0
  188.4210  178.3360  137.8550 C   0  0  0  0  0  3  0  0  0  0  0  0
  188.1950  176.1200  136.1650 C   0  0  0  0  0  3  0  0  0  0  0  0
  189.3210  176.9440  136.0930 C   0  0  0  0  0  3  0  0  0  0  0  0
  185.3510  174.9930  135.8250 C   0  0  0  0  0  2  0  0  0  0  0  0
  184.3650  179.3500  139.2660 C   0  0  2  0  0  3  0  0  0  0  0  0
  183.9070  177.0980  138.5020 N   0  0  1  0  0  0  0  0  0  0  0  0
  185.2300  179.3780  140.5320 C   0  0  2  0  0  3  0  0  0  0  0  0
  182.0540  180.0320  138.7100 C   0  0  0  0  0  1  0  0  0  0  0  0
  186.2180  177.7760  139.0070 C   0  0  1  0  0  3  0  0  0  0  0  0
  1  6  1  0  0  0  0
  1 16  1  0  0  0  0
  2  8  2  0  0  0  0
  4 20  1  0  0  0  0
  5 27  1  6  0  0  0
  6 23  1  6  0  0  0
  8  7  2  0  0  0  0
  8 14  1  0  0  0  0
  9 18  1  1  0  0  0
 10 26  1  0  0  0  0
 10  8  1  1  0  0  0
 11 15  1  0  0  0  0
 12 25  1  0  0  0  0
 12 28  1  0  0  0  0
 12 24  1  0  0  0  0
 13  9  1  0  0  0  0
 14  9  1  0  0  0  0
 15  6  1  0  0  0  0
 15 19  1  0  0  0  0
 16 28  1  0  0  0  0
 17  5  1  0  0  0  0
 17  3  1  0  0  0  0
 19 25  1  0  0  0  0
 20 16  2  0  0  0  0
 21  1  2  0  0  0  0
 22 21  1  0  0  0  0
 22  4  2  0  0  0  0
 23 15  1  0  0  0  0
 24  5  1  0  0  0  0
 24 26  1  0  0  0  0
 25 17  1  0  0  0  0
 26 13  1  0  0  0  0
 28 10  1  0  0  0  0
M  END
>  <MODEL>
8

>  <REMARK>
 VINA RESULT:      -5.4      3.011      4.319
  Name = 
  0 active torsions:
  status: ('A' for Active; 'I' for Inactive)
                            x       y       z     vdW  Elec       q    Type
                         _______ _______ _______ _____ _____    ______ ____

>  <TORSDO>
F 0

$$$$
=
 OpenBabel11122411593D

 28 33  0  0  1  0  0  0  0  0999 V2000
  184.0170  175.5630  136.0140 C   0  0  0  0  0  0  0  0  0  0  0  0
  180.0720  176.4300  136.5300 O   0  0  0  0  0  0  0  0  0  0  0  0
  184.1640  180.5020  139.0940 O   0  0  0  0  0  1  0  0  0  0  0  0
  182.6580  173.1480  136.4090 C   0  0  0  0  0  3  0  0  0  0  0  0
  183.9010  178.7090  140.6370 C   0  0  1  0  0  3  0  0  0  0  0  0
  184.7980  176.8370  135.8670 C   0  0  1  0  0  3  0  0  0  0  0  0
  178.9360  175.8080  138.6110 O   0  0  0  0  0  0  0  0  0  0  0  0
  179.9500  176.7320  137.9980 S   0  0  0  0  0  0  0  0  0  0  0  0
  179.8900  178.9100  139.5590 C   0  0  2  0  0  3  0  0  0  0  0  0
  181.5230  176.5010  138.8290 C   0  0  2  0  0  3  0  0  0  0  0  0
  186.1670  175.6120  137.5710 O   0  0  0  0  0  1  0  0  0  0  0  0
  183.8810  177.1030  138.8300 C   0  0  2  0  0  3  0  0  0  0  0  0
  181.3440  178.8450  139.6000 N   0  0  0  0  0  2  0  0  0  0  0  0
  179.4090  178.4110  138.2110 C   0  0  0  0  0  2  0  0  0  0  0  0
  185.9200  176.8240  136.9120 C   0  0  2  0  0  0  0  0  0  0  0  0
  183.0600  175.4620  137.0530 C   0  0  0  0  0  0  0  0  0  0  0  0
  184.6620  179.2460  139.4390 C   0  0  1  0  0  3  0  0  0  0  0  0
  179.4470  180.3440  139.7480 C   0  0  0  0  0  1  0  0  0  0  0  0
  185.8570  178.0760  137.7850 C   0  0  0  0  0  2  0  0  0  0  0  0
  182.3970  174.2390  137.2430 C   0  0  0  0  0  3  0  0  0  0  0  0
  184.2650  174.4690  135.1750 C   0  0  0  0  0  3  0  0  0  0  0  0
  183.5850  173.2660  135.3730 C   0  0  0  0  0  3  0  0  0  0  0  0
  186.2650  176.7940  135.4440 C   0  0  0  0  0  2  0  0  0  0  0  0
  183.2690  177.4130  140.1810 C   0  0  2  0  0  3  0  0  0  0  0  0
  184.5040  178.3310  138.3110 N   0  0  1  0  0  0  0  0  0  0  0  0
  181.7510  177.4850  139.9770 C   0  0  2  0  0  3  0  0  0  0  0  0
  184.8730  178.4290  141.7660 C   0  0  0  0  0  1  0  0  0  0  0  0
  182.7280  176.6740  137.9140 C   0  0  1  0  0  3  0  0  0  0  0  0
  1 16  1  0  0  0  0
  2  8  2  0  0  0  0
  3 17  1  0  0  0  0
  4 20  1  0  0  0  0
  5 27  1  1  0  0  0
  6 23  1  6  0  0  0
  6  1  1  0  0  0  0
  6 15  1  0  0  0  0
  8 14  1  0  0  0  0
  8  7  2  0  0  0  0
  9 13  1  0  0  0  0
  9 18  1  6  0  0  0
 10  8  1  6  0  0  0
 10 26  1  0  0  0  0
 12 24  1  0  0  0  0
 13 26  1  0  0  0  0
 14  9  1  0  0  0  0
 15 11  1  0  0  0  0
 15 19  1  0  0  0  0
 16 20  2  0  0  0  0
 16 28  1  0  0  0  0
 17  5  1  0  0  0  0
 19 25  1  0  0  0  0
 21 22  1  0  0  0  0
 21  1  2  0  0  0  0
 22  4  2  0  0  0  0
 23 15  1  0  0  0  0
 24  5  1  0  0  0  0
 25 12  1  0  0  0  0
 25 17  1  0  0  0  0
 26 24  1  0  0  0  0
 28 10  1  0  0  0  0
 28 12  1  0  0  0  0
M  END
>  <MODEL>
9

>  <REMARK>
 VINA RESULT:      -5.2      5.088      7.828
  Name = 
  0 active torsions:
  status: ('A' for Active; 'I' for Inactive)
                            x       y       z     vdW  Elec       q    Type
                         _______ _______ _______ _____ _____    ______ ____

>  <TORSDO>
F 0

$$$$
