=
 OpenBabel11122411433D

 37 43  0  0  1  0  0  0  0  0999 V2000
  190.3740  176.4330  138.1890 C   0  0  0  0  0  0  0  0  0  0  0  0
  187.0590  178.3540  137.8030 N   0  0  1  0  0  0  0  0  0  0  0  0
  185.5020  179.6300  140.3980 O   0  0  0  0  0  0  0  0  0  0  0  0
  189.3630  177.9040  136.7320 C   0  0  2  0  0  3  0  0  0  0  0  0
  186.7690  177.9790  139.2000 C   0  0  2  0  0  3  0  0  0  0  0  0
  188.5240  178.5800  137.8320 C   0  0  2  0  0  3  0  0  0  0  0  0
  185.3880  178.4190  139.6980 C   0  0  2  0  0  3  0  0  0  0  0  0
  188.6110  178.0340  135.4300 C   0  0  0  0  0  2  0  0  0  0  0  0
  189.0180  178.3000  139.2430 C   0  0  2  0  0  3  0  0  0  0  0  0
  191.5270  177.2030  138.1340 F   0  0  0  0  0  0  0  0  0  0  0  0
  185.1300  177.3110  136.6230 C   0  0  0  0  0  2  0  0  0  0  0  0
  187.2780  177.3000  135.5100 C   0  0  0  0  0  2  0  0  0  0  0  0
  189.5100  176.8430  139.3740 C   0  0  0  0  0  2  0  0  0  0  0  0
  185.5200  178.0050  142.3720 C   0  0  0  0  0  2  0  0  0  0  0  0
  185.5040  179.4250  141.8080 C   0  0  1  0  0  3  0  0  0  0  0  0
  186.6330  177.2500  136.9070 C   0  0  1  0  0  3  0  0  0  0  0  0
  187.8220  178.5540  140.0420 N   0  0  2  0  0  0  0  0  0  0  0  0
  189.6250  176.5410  137.0000 O   0  0  0  0  0  0  0  0  0  0  0  0
  184.2890  178.4740  138.6400 C   0  0  1  0  0  3  0  0  0  0  0  0
  190.7410  175.1120  138.3590 F   0  0  0  0  0  0  0  0  0  0  0  0
  186.8170  178.7940  142.3290 C   0  0  2  0  0  3  0  0  0  0  0  0
  187.7820  178.0020  141.4140 C   0  0  2  0  0  3  0  0  0  0  0  0
  184.2540  177.1760  137.8520 C   0  0  0  0  0  2  0  0  0  0  0  0
  182.4200  177.8020  140.1580 C   0  0  0  0  0  3  0  0  0  0  0  0
  182.9530  178.7390  139.2650 C   0  0  0  0  0  0  0  0  0  0  0  0
  182.2240  179.9000  138.9620 C   0  0  0  0  0  3  0  0  0  0  0  0
  180.2060  181.3470  139.2260 C   0  0  0  0  0  1  0  0  0  0  0  0
  180.4490  179.1790  140.4410 C   0  0  0  0  0  3  0  0  0  0  0  0
  180.9750  180.1180  139.5500 C   0  0  0  0  0  0  0  0  0  0  0  0
  181.1710  178.0220  140.7450 C   0  0  0  0  0  3  0  0  0  0  0  0
  189.1600  178.0480  142.0940 C   0  0  0  0  0  2  0  0  0  0  0  0
  189.2880  177.0770  143.2740 C   0  0  1  0  0  3  0  0  0  0  0  0
  191.5520  176.3160  143.3030 O   0  0  0  0  0  1  0  0  0  0  0  0
  190.2490  175.9350  142.9830 C   0  0  0  0  0  2  0  0  0  0  0  0
  189.7010  177.7780  144.4820 N   0  0  0  0  0  2  0  0  0  0  0  0
  189.0390  177.1350  145.6060 C   0  0  0  0  0  2  0  0  0  0  0  0
  187.6090  177.6230  145.7070 C   0  0  0  0  0  1  0  0  0  0  0  0
  1 20  1  0  0  0  0
  1 13  1  0  0  0  0
  2  6  1  0  0  0  0
  2  5  1  0  0  0  0
  3 15  1  0  0  0  0
  4 18  1  0  0  0  0
  4  6  1  0  0  0  0
  5  7  1  0  0  0  0
  5 17  1  0  0  0  0
  6  9  1  0  0  0  0
  7  3  1  0  0  0  0
  8 12  1  0  0  0  0
  8  4  1  0  0  0  0
  9 13  1  0  0  0  0
  9 17  1  0  0  0  0
 10  1  1  0  0  0  0
 11 16  1  0  0  0  0
 11 23  1  0  0  0  0
 12 16  1  0  0  0  0
 15 21  1  0  0  0  0
 15 14  1  0  0  0  0
 16  2  1  0  0  0  0
 17 22  1  0  0  0  0
 18  1  1  0  0  0  0
 19 25  1  0  0  0  0
 19  7  1  0  0  0  0
 21 14  1  0  0  0  0
 22 31  1  0  0  0  0
 22 21  1  0  0  0  0
 23 19  1  0  0  0  0
 24 30  1  0  0  0  0
 25 24  2  0  0  0  0
 26 25  1  0  0  0  0
 26 29  2  0  0  0  0
 27 29  1  0  0  0  0
 28 30  2  0  0  0  0
 29 28  1  0  0  0  0
 31 32  1  0  0  0  0
 32 35  1  0  0  0  0
 34 32  1  0  0  0  0
 34 33  1  0  0  0  0
 35 36  1  0  0  0  0
 36 37  1  0  0  0  0
M  END
>  <MODEL>
1

>  <REMARK>
 VINA RESULT:      -8.3      0.000      0.000
  Name = 
  6 active torsions:
  status: ('A' for Active; 'I' for Inactive)
    1  A    between atoms: C_1  and  CA_4
    2  A    between atoms: C_1  and  C_27
    3  A    between atoms: CA_4  and  N_12
    4  A    between atoms: CA_4  and  C_37
    5  A    between atoms: C_8  and  N_12
    6  A    between atoms: C_23  and  C_30
                            x       y       z     vdW  Elec       q    Type
                         _______ _______ _______ _____ _____    ______ ____

>  <TORSDO>
F 6

$$$$
=
 OpenBabel11122411433D

 37 43  0  0  1  0  0  0  0  0999 V2000
  185.6840  179.0810  145.5920 C   0  0  0  0  0  0  0  0  0  0  0  0
  187.0530  177.4250  142.3960 N   0  0  1  0  0  0  0  0  0  0  0  0
  189.8840  175.7600  142.4030 O   0  0  0  0  0  0  0  0  0  0  0  0
  184.9110  177.9590  143.7340 C   0  0  2  0  0  3  0  0  0  0  0  0
  188.3920  177.5450  143.0020 C   0  0  2  0  0  3  0  0  0  0  0  0
  186.1980  177.1280  143.5710 C   0  0  2  0  0  3  0  0  0  0  0  0
  189.5390  177.0840  142.0930 C   0  0  2  0  0  3  0  0  0  0  0  0
  184.2830  178.1100  142.3710 C   0  0  0  0  0  2  0  0  0  0  0  0
  187.0830  177.1160  144.8090 C   0  0  2  0  0  3  0  0  0  0  0  0
  184.8750  178.2810  146.3870 F   0  0  0  0  0  0  0  0  0  0  0  0
  187.3520  178.7590  140.3150 C   0  0  0  0  0  2  0  0  0  0  0  0
  185.2120  178.8770  141.4390 C   0  0  0  0  0  2  0  0  0  0  0  0
  187.0870  178.4980  145.4950 C   0  0  0  0  0  2  0  0  0  0  0  0
  191.6670  176.9840  143.7660 C   0  0  0  0  0  2  0  0  0  0  0  0
  191.0440  175.6970  143.2280 C   0  0  1  0  0  3  0  0  0  0  0  0
  186.7170  178.6950  141.7070 C   0  0  1  0  0  3  0  0  0  0  0  0
  188.3880  176.7730  144.2480 N   0  0  2  0  0  0  0  0  0  0  0  0
  185.1470  179.2330  144.2970 O   0  0  0  0  0  0  0  0  0  0  0  0
  189.3160  177.2800  140.5960 C   0  0  1  0  0  3  0  0  0  0  0  0
  185.7740  180.3280  146.1800 F   0  0  0  0  0  0  0  0  0  0  0  0
  190.7820  176.1570  144.6810 C   0  0  2  0  0  3  0  0  0  0  0  0
  189.5850  177.0600  145.0680 C   0  0  2  0  0  3  0  0  0  0  0  0
  188.8660  178.7030  140.3140 C   0  0  0  0  0  2  0  0  0  0  0  0
  191.7780  177.5200  140.2340 C   0  0  0  0  0  3  0  0  0  0  0  0
  190.5600  176.9660  139.8220 C   0  0  0  0  0  0  0  0  0  0  0  0
  190.5240  176.1400  138.6870 C   0  0  0  0  0  3  0  0  0  0  0  0
  191.6540  174.9970  136.7760 C   0  0  0  0  0  1  0  0  0  0  0  0
  192.9100  176.4260  138.3940 C   0  0  0  0  0  3  0  0  0  0  0  0
  191.6970  175.8710  137.9760 C   0  0  0  0  0  0  0  0  0  0  0  0
  192.9500  177.2500  139.5220 C   0  0  0  0  0  3  0  0  0  0  0  0
  189.3280  176.8220  146.5650 C   0  0  0  0  0  2  0  0  0  0  0  0
  189.9410  177.9020  147.4650 C   0  0  1  0  0  3  0  0  0  0  0  0
  187.9390  177.3990  148.6660 O   0  0  0  0  0  1  0  0  0  0  0  0
  189.0630  178.2250  148.6640 C   0  0  0  0  0  2  0  0  0  0  0  0
  191.2700  177.5110  147.9140 N   0  0  0  0  0  2  0  0  0  0  0  0
  191.3990  176.0790  147.7000 C   0  0  0  0  0  2  0  0  0  0  0  0
  192.8030  175.6310  148.0490 C   0  0  0  0  0  1  0  0  0  0  0  0
  1 20  1  0  0  0  0
  1 10  1  0  0  0  0
  2  5  1  0  0  0  0
  2  6  1  0  0  0  0
  3 15  1  0  0  0  0
  4 18  1  0  0  0  0
  5 17  1  0  0  0  0
  6  4  1  0  0  0  0
  6  9  1  0  0  0  0
  7  3  1  0  0  0  0
  7  5  1  0  0  0  0
  8  4  1  0  0  0  0
  9 13  1  0  0  0  0
 11 16  1  0  0  0  0
 12 16  1  0  0  0  0
 12  8  1  0  0  0  0
 13  1  1  0  0  0  0
 14 21  1  0  0  0  0
 15 14  1  0  0  0  0
 15 21  1  0  0  0  0
 16  2  1  0  0  0  0
 17  9  1  0  0  0  0
 17 22  1  0  0  0  0
 18  1  1  0  0  0  0
 19  7  1  0  0  0  0
 21 22  1  0  0  0  0
 22 31  1  0  0  0  0
 23 11  1  0  0  0  0
 23 19  1  0  0  0  0
 25 24  1  0  0  0  0
 25 19  1  0  0  0  0
 26 25  2  0  0  0  0
 27 29  1  0  0  0  0
 28 30  1  0  0  0  0
 29 28  2  0  0  0  0
 29 26  1  0  0  0  0
 30 24  2  0  0  0  0
 31 32  1  0  0  0  0
 32 35  1  0  0  0  0
 32 34  1  0  0  0  0
 34 33  1  0  0  0  0
 36 35  1  0  0  0  0
 36 37  1  0  0  0  0
M  END
>  <MODEL>
2

>  <REMARK>
 VINA RESULT:      -8.3      3.874      7.516
  Name = 
  6 active torsions:
  status: ('A' for Active; 'I' for Inactive)
    1  A    between atoms: C_1  and  CA_4
    2  A    between atoms: C_1  and  C_27
    3  A    between atoms: CA_4  and  N_12
    4  A    between atoms: CA_4  and  C_37
    5  A    between atoms: C_8  and  N_12
    6  A    between atoms: C_23  and  C_30
                            x       y       z     vdW  Elec       q    Type
                         _______ _______ _______ _____ _____    ______ ____

>  <TORSDO>
F 6

$$$$
=
 OpenBabel11122411433D

 37 43  0  0  1  0  0  0  0  0999 V2000
  190.2430  178.5480  143.8620 C   0  0  0  0  0  0  0  0  0  0  0  0
  186.5370  177.5840  144.2650 N   0  0  1  0  0  0  0  0  0  0  0  0
  184.5000  177.4780  141.6900 O   0  0  0  0  0  0  0  0  0  0  0  0
  188.9350  177.0980  145.0850 C   0  0  2  0  0  3  0  0  0  0  0  0
  186.2820  178.3610  143.0380 C   0  0  2  0  0  3  0  0  0  0  0  0
  187.8610  176.9770  143.9880 C   0  0  2  0  0  3  0  0  0  0  0  0
  184.8020  178.4580  142.6490 C   0  0  2  0  0  3  0  0  0  0  0  0
  188.2660  176.8580  146.4160 C   0  0  0  0  0  2  0  0  0  0  0  0
  188.3220  177.4540  142.6190 C   0  0  2  0  0  3  0  0  0  0  0  0
  191.1120  177.5010  143.5890 F   0  0  0  0  0  0  0  0  0  0  0  0
  185.0920  178.7880  145.8980 C   0  0  0  0  0  2  0  0  0  0  0  0
  187.2130  177.9270  146.6820 C   0  0  0  0  0  2  0  0  0  0  0  0
  189.2190  178.7030  142.7460 C   0  0  0  0  0  2  0  0  0  0  0  0
  184.8760  179.4750  140.1390 C   0  0  0  0  0  2  0  0  0  0  0  0
  184.4710  178.0210  140.3740 C   0  0  1  0  0  3  0  0  0  0  0  0
  186.5220  178.5010  145.4310 C   0  0  1  0  0  3  0  0  0  0  0  0
  187.0550  177.7470  141.9540 N   0  0  2  0  0  0  0  0  0  0  0  0
  189.5760  178.3570  145.0900 O   0  0  0  0  0  0  0  0  0  0  0  0
  183.8100  178.4450  143.8090 C   0  0  1  0  0  3  0  0  0  0  0  0
  190.9780  179.7150  143.9380 F   0  0  0  0  0  0  0  0  0  0  0  0
  185.8750  178.3740  139.8300 C   0  0  2  0  0  3  0  0  0  0  0  0
  187.0920  178.6140  140.7560 C   0  0  2  0  0  3  0  0  0  0  0  0
  184.2180  179.4630  144.8600 C   0  0  0  0  0  2  0  0  0  0  0  0
  181.3510  178.6060  144.2280 C   0  0  0  0  0  3  0  0  0  0  0  0
  182.4180  178.7240  143.3290 C   0  0  0  0  0  0  0  0  0  0  0  0
  182.1650  179.0880  141.9960 C   0  0  0  0  0  3  0  0  0  0  0  0
  180.5930  179.7170  140.1620 C   0  0  0  0  0  1  0  0  0  0  0  0
  179.7950  179.2140  142.4740 C   0  0  0  0  0  3  0  0  0  0  0  0
  180.8550  179.3330  141.5720 C   0  0  0  0  0  0  0  0  0  0  0  0
  180.0420  178.8510  143.8010 C   0  0  0  0  0  3  0  0  0  0  0  0
  188.3440  178.3610  139.9010 C   0  0  0  0  0  2  0  0  0  0  0  0
  188.0460  177.6240  138.5910 C   0  0  1  0  0  3  0  0  0  0  0  0
  188.8880  179.6920  137.7420 O   0  0  0  0  0  1  0  0  0  0  0  0
  188.2630  178.5030  137.3680 C   0  0  0  0  0  2  0  0  0  0  0  0
  188.8490  176.4140  138.4800 N   0  0  0  0  0  2  0  0  0  0  0  0
  190.0900  176.6480  139.2020 C   0  0  0  0  0  2  0  0  0  0  0  0
  191.2700  176.4440  138.2730 C   0  0  0  0  0  1  0  0  0  0  0  0
  1 20  1  0  0  0  0
  1 18  1  0  0  0  0
  2 16  1  0  0  0  0
  3  7  1  0  0  0  0
  4 18  1  0  0  0  0
  4  8  1  0  0  0  0
  5  2  1  0  0  0  0
  6  2  1  0  0  0  0
  6  4  1  0  0  0  0
  7  5  1  0  0  0  0
  7 19  1  0  0  0  0
  8 12  1  0  0  0  0
  9 13  1  0  0  0  0
  9  6  1  0  0  0  0
 10  1  1  0  0  0  0
 13  1  1  0  0  0  0
 14 15  1  0  0  0  0
 15  3  1  0  0  0  0
 16 11  1  0  0  0  0
 16 12  1  0  0  0  0
 17  9  1  0  0  0  0
 17  5  1  0  0  0  0
 19 23  1  0  0  0  0
 21 14  1  0  0  0  0
 21 15  1  0  0  0  0
 21 22  1  0  0  0  0
 22 17  1  0  0  0  0
 23 11  1  0  0  0  0
 25 19  1  0  0  0  0
 25 24  2  0  0  0  0
 26 25  1  0  0  0  0
 27 29  1  0  0  0  0
 28 30  2  0  0  0  0
 29 26  2  0  0  0  0
 29 28  1  0  0  0  0
 30 24  1  0  0  0  0
 31 22  1  0  0  0  0
 32 31  1  0  0  0  0
 34 33  1  0  0  0  0
 34 32  1  0  0  0  0
 35 32  1  0  0  0  0
 35 36  1  0  0  0  0
 37 36  1  0  0  0  0
M  END
>  <MODEL>
3

>  <REMARK>
 VINA RESULT:      -8.2      2.390      5.834
  Name = 
  6 active torsions:
  status: ('A' for Active; 'I' for Inactive)
    1  A    between atoms: C_1  and  CA_4
    2  A    between atoms: C_1  and  C_27
    3  A    between atoms: CA_4  and  N_12
    4  A    between atoms: CA_4  and  C_37
    5  A    between atoms: C_8  and  N_12
    6  A    between atoms: C_23  and  C_30
                            x       y       z     vdW  Elec       q    Type
                         _______ _______ _______ _____ _____    ______ ____

>  <TORSDO>
F 6

$$$$
=
 OpenBabel11122411433D

 37 43  0  0  1  0  0  0  0  0999 V2000
  189.2030  178.6330  137.5350 C   0  0  0  0  0  0  0  0  0  0  0  0
  189.4960  177.0790  141.0470 N   0  0  1  0  0  0  0  0  0  0  0  0
  186.9420  177.0050  143.1110 O   0  0  0  0  0  0  0  0  0  0  0  0
  190.2300  176.8560  138.5830 C   0  0  2  0  0  3  0  0  0  0  0  0
  188.3840  177.9620  141.4450 C   0  0  2  0  0  3  0  0  0  0  0  0
  189.1330  176.7190  139.6550 C   0  0  2  0  0  3  0  0  0  0  0  0
  188.0200  177.8860  142.9320 C   0  0  2  0  0  3  0  0  0  0  0  0
  191.5220  176.3480  139.1740 C   0  0  0  0  0  2  0  0  0  0  0  0
  187.8370  177.4330  139.3040 C   0  0  2  0  0  3  0  0  0  0  0  0
  188.7880  177.7720  136.5280 F   0  0  0  0  0  0  0  0  0  0  0  0
  191.2820  177.8300  142.6110 C   0  0  0  0  0  2  0  0  0  0  0  0
  191.9330  177.2020  140.3670 C   0  0  0  0  0  2  0  0  0  0  0  0
  188.1230  178.7750  138.5990 C   0  0  0  0  0  2  0  0  0  0  0  0
  185.6670  179.2200  143.0740 C   0  0  0  0  0  2  0  0  0  0  0  0
  185.7090  177.7040  143.2530 C   0  0  1  0  0  3  0  0  0  0  0  0
  190.7740  177.8240  141.1670 C   0  0  1  0  0  3  0  0  0  0  0  0
  187.2240  177.6170  140.6170 N   0  0  2  0  0  0  0  0  0  0  0  0
  190.3980  178.1850  138.1350 O   0  0  0  0  0  0  0  0  0  0  0  0
  189.1740  177.5740  143.8810 C   0  0  1  0  0  3  0  0  0  0  0  0
  189.4280  179.8760  136.9790 F   0  0  0  0  0  0  0  0  0  0  0  0
  185.2090  178.3310  141.9310 C   0  0  2  0  0  3  0  0  0  0  0  0
  186.1510  178.6280  140.7390 C   0  0  2  0  0  3  0  0  0  0  0  0
  190.3480  178.4960  143.6010 C   0  0  0  0  0  2  0  0  0  0  0  0
  189.6580  177.3990  146.3280 C   0  0  0  0  0  3  0  0  0  0  0  0
  188.7430  177.7010  145.3110 C   0  0  0  0  0  0  0  0  0  0  0  0
  187.4410  178.1030  145.6480 C   0  0  0  0  0  3  0  0  0  0  0  0
  185.6820  178.6280  147.3410 C   0  0  0  0  0  1  0  0  0  0  0  0
  187.9790  177.9020  148.0000 C   0  0  0  0  0  3  0  0  0  0  0  0
  187.0610  178.2030  146.9900 C   0  0  0  0  0  0  0  0  0  0  0  0
  189.2770  177.5000  147.6690 C   0  0  0  0  0  3  0  0  0  0  0  0
  185.2630  178.6790  139.4860 C   0  0  0  0  0  2  0  0  0  0  0  0
  183.8150  178.2520  139.7500 C   0  0  1  0  0  3  0  0  0  0  0  0
  183.5000  180.5270  139.0930 O   0  0  0  0  0  1  0  0  0  0  0  0
  182.8230  179.3770  139.4990 C   0  0  0  0  0  2  0  0  0  0  0  0
  183.4610  177.0900  138.9460 N   0  0  0  0  0  2  0  0  0  0  0  0
  184.2960  177.1130  137.7560 C   0  0  0  0  0  2  0  0  0  0  0  0
  183.4240  177.1300  136.5170 C   0  0  0  0  0  1  0  0  0  0  0  0
  1 18  1  0  0  0  0
  1 13  1  0  0  0  0
  2 16  1  0  0  0  0
  2  5  1  0  0  0  0
  3 15  1  0  0  0  0
  4  8  1  0  0  0  0
  4  6  1  0  0  0  0
  5  7  1  0  0  0  0
  6  2  1  0  0  0  0
  7  3  1  0  0  0  0
  7 19  1  0  0  0  0
  8 12  1  0  0  0  0
  9  6  1  0  0  0  0
  9 17  1  0  0  0  0
 10  1  1  0  0  0  0
 11 23  1  0  0  0  0
 12 16  1  0  0  0  0
 13  9  1  0  0  0  0
 14 15  1  0  0  0  0
 16 11  1  0  0  0  0
 17 22  1  0  0  0  0
 17  5  1  0  0  0  0
 18  4  1  0  0  0  0
 19 25  1  0  0  0  0
 20  1  1  0  0  0  0
 21 14  1  0  0  0  0
 21 15  1  0  0  0  0
 22 21  1  0  0  0  0
 23 19  1  0  0  0  0
 24 30  1  0  0  0  0
 25 26  1  0  0  0  0
 25 24  2  0  0  0  0
 26 29  2  0  0  0  0
 29 27  1  0  0  0  0
 29 28  1  0  0  0  0
 30 28  2  0  0  0  0
 31 32  1  0  0  0  0
 31 22  1  0  0  0  0
 33 34  1  0  0  0  0
 34 32  1  0  0  0  0
 35 32  1  0  0  0  0
 36 35  1  0  0  0  0
 37 36  1  0  0  0  0
M  END
>  <MODEL>
4

>  <REMARK>
 VINA RESULT:      -7.4      2.027      6.608
  Name = 
  6 active torsions:
  status: ('A' for Active; 'I' for Inactive)
    1  A    between atoms: C_1  and  CA_4
    2  A    between atoms: C_1  and  C_27
    3  A    between atoms: CA_4  and  N_12
    4  A    between atoms: CA_4  and  C_37
    5  A    between atoms: C_8  and  N_12
    6  A    between atoms: C_23  and  C_30
                            x       y       z     vdW  Elec       q    Type
                         _______ _______ _______ _____ _____    ______ ____

>  <TORSDO>
F 6

$$$$
=
 OpenBabel11122411433D

 37 43  0  0  1  0  0  0  0  0999 V2000
  186.5700  177.3080  138.0830 C   0  0  0  0  0  0  0  0  0  0  0  0
  187.0910  178.5580  141.6880 N   0  0  1  0  0  0  0  0  0  0  0  0
  190.0670  178.6000  143.0780 O   0  0  0  0  0  0  0  0  0  0  0  0
  185.7730  178.9390  139.5020 C   0  0  2  0  0  3  0  0  0  0  0  0
  188.2940  177.7060  141.7270 C   0  0  2  0  0  3  0  0  0  0  0  0
  187.0930  179.0470  140.2880 C   0  0  2  0  0  3  0  0  0  0  0  0
  189.0070  177.6810  143.0840 C   0  0  2  0  0  3  0  0  0  0  0  0
  184.6490  179.3300  140.4300 C   0  0  0  0  0  2  0  0  0  0  0  0
  188.2870  178.4320  139.5740 C   0  0  2  0  0  3  0  0  0  0  0  0
  186.7000  178.2670  137.0880 F   0  0  0  0  0  0  0  0  0  0  0  0
  185.7640  177.5920  143.5600 C   0  0  0  0  0  2  0  0  0  0  0  0
  184.5670  178.3620  141.6040 C   0  0  0  0  0  2  0  0  0  0  0  0
  187.8810  177.1370  138.8400 C   0  0  0  0  0  2  0  0  0  0  0  0
  191.3640  176.4650  142.5360 C   0  0  0  0  0  2  0  0  0  0  0  0
  191.3190  177.9580  142.8560 C   0  0  1  0  0  3  0  0  0  0  0  0
  185.9050  177.7400  142.0430 C   0  0  1  0  0  3  0  0  0  0  0  0
  189.2060  178.1750  140.6800 N   0  0  2  0  0  0  0  0  0  0  0  0
  185.5430  177.6430  138.9900 O   0  0  0  0  0  0  0  0  0  0  0  0
  188.1090  177.8550  144.3060 C   0  0  1  0  0  3  0  0  0  0  0  0
  186.2550  176.1030  137.4870 F   0  0  0  0  0  0  0  0  0  0  0  0
  191.5020  177.4650  141.4020 C   0  0  2  0  0  3  0  0  0  0  0  0
  190.3080  177.2160  140.4490 C   0  0  2  0  0  3  0  0  0  0  0  0
  186.9310  176.8990  144.2340 C   0  0  0  0  0  2  0  0  0  0  0  0
  188.4060  178.2040  146.7640 C   0  0  0  0  0  3  0  0  0  0  0  0
  188.8780  177.6370  145.5740 C   0  0  0  0  0  0  0  0  0  0  0  0
  190.0660  176.8880  145.5860 C   0  0  0  0  0  3  0  0  0  0  0  0
  192.0260  175.9160  146.7880 C   0  0  0  0  0  1  0  0  0  0  0  0
  190.2930  177.2750  147.9650 C   0  0  0  0  0  3  0  0  0  0  0  0
  190.7700  176.7080  146.7800 C   0  0  0  0  0  0  0  0  0  0  0  0
  189.1110  178.0220  147.9570 C   0  0  0  0  0  3  0  0  0  0  0  0
  190.8650  177.3110  139.0200 C   0  0  0  0  0  2  0  0  0  0  0  0
  191.6120  176.0490  138.5740 C   0  0  1  0  0  3  0  0  0  0  0  0
  190.1670  174.3180  137.7850 O   0  0  0  0  0  1  0  0  0  0  0  0
  190.9620  175.3860  137.3690 C   0  0  0  0  0  2  0  0  0  0  0  0
  193.0080  176.3460  138.2840 N   0  0  0  0  0  2  0  0  0  0  0  0
  193.5830  175.1660  137.6570 C   0  0  0  0  0  2  0  0  0  0  0  0
  194.4650  175.5790  136.4970 C   0  0  0  0  0  1  0  0  0  0  0  0
  1 13  1  0  0  0  0
  1 18  1  0  0  0  0
  2  5  1  0  0  0  0
  2 16  1  0  0  0  0
  3  7  1  0  0  0  0
  4  6  1  0  0  0  0
  4  8  1  0  0  0  0
  5  7  1  0  0  0  0
  6  2  1  0  0  0  0
  7 19  1  0  0  0  0
  8 12  1  0  0  0  0
  9  6  1  0  0  0  0
  9 17  1  0  0  0  0
 10  1  1  0  0  0  0
 11 23  1  0  0  0  0
 12 16  1  0  0  0  0
 13  9  1  0  0  0  0
 14 15  1  0  0  0  0
 15  3  1  0  0  0  0
 16 11  1  0  0  0  0
 17  5  1  0  0  0  0
 18  4  1  0  0  0  0
 19 25  1  0  0  0  0
 20  1  1  0  0  0  0
 21 14  1  0  0  0  0
 21 15  1  0  0  0  0
 22 17  1  0  0  0  0
 22 21  1  0  0  0  0
 23 19  1  0  0  0  0
 24 30  1  0  0  0  0
 25 26  1  0  0  0  0
 25 24  2  0  0  0  0
 26 29  2  0  0  0  0
 29 27  1  0  0  0  0
 29 28  1  0  0  0  0
 30 28  2  0  0  0  0
 31 22  1  0  0  0  0
 32 31  1  0  0  0  0
 34 33  1  0  0  0  0
 34 32  1  0  0  0  0
 35 32  1  0  0  0  0
 36 35  1  0  0  0  0
 37 36  1  0  0  0  0
M  END
>  <MODEL>
5

>  <REMARK>
 VINA RESULT:      -7.2      2.583      7.123
  Name = 
  6 active torsions:
  status: ('A' for Active; 'I' for Inactive)
    1  A    between atoms: C_1  and  CA_4
    2  A    between atoms: C_1  and  C_27
    3  A    between atoms: CA_4  and  N_12
    4  A    between atoms: CA_4  and  C_37
    5  A    between atoms: C_8  and  N_12
    6  A    between atoms: C_23  and  C_30
                            x       y       z     vdW  Elec       q    Type
                         _______ _______ _______ _____ _____    ______ ____

>  <TORSDO>
F 6

$$$$
=
 OpenBabel11122411433D

 37 43  0  0  1  0  0  0  0  0999 V2000
  183.7330  178.0790  141.0520 C   0  0  0  0  0  0  0  0  0  0  0  0
  186.0030  178.9120  144.0490 N   0  0  1  0  0  0  0  0  0  0  0  0
  189.2720  178.6610  143.8490 O   0  0  0  0  0  0  0  0  0  0  0  0
  183.8540  179.5860  142.7900 C   0  0  2  0  0  3  0  0  0  0  0  0
  186.9970  178.0020  143.4490 C   0  0  2  0  0  3  0  0  0  0  0  0
  185.3920  179.5460  142.8560 C   0  0  2  0  0  3  0  0  0  0  0  0
  188.2590  177.7990  144.2960 C   0  0  2  0  0  3  0  0  0  0  0  0
  183.3400  179.9300  144.1660 C   0  0  0  0  0  2  0  0  0  0  0  0
  186.0460  178.9530  141.6170 C   0  0  2  0  0  3  0  0  0  0  0  0
  183.4690  179.1300  140.1850 F   0  0  0  0  0  0  0  0  0  0  0  0
  185.6290  177.8170  146.2540 C   0  0  0  0  0  2  0  0  0  0  0  0
  183.7300  178.8480  145.1650 C   0  0  0  0  0  2  0  0  0  0  0  0
  185.2240  177.7650  141.0770 C   0  0  0  0  0  2  0  0  0  0  0  0
  189.9570  176.5350  142.6050 C   0  0  0  0  0  2  0  0  0  0  0  0
  190.2070  177.9860  143.0130 C   0  0  1  0  0  3  0  0  0  0  0  0
  185.0530  178.1180  144.8680 C   0  0  1  0  0  3  0  0  0  0  0  0
  187.3490  178.5360  142.1290 N   0  0  2  0  0  0  0  0  0  0  0  0
  183.2900  178.3650  142.3590 O   0  0  0  0  0  0  0  0  0  0  0  0
  188.0630  177.8860  145.8070 C   0  0  1  0  0  3  0  0  0  0  0  0
  183.0640  176.9600  140.5950 F   0  0  0  0  0  0  0  0  0  0  0  0
  189.6370  177.6420  141.6160 C   0  0  2  0  0  3  0  0  0  0  0  0
  188.1180  177.5540  141.3340 C   0  0  2  0  0  3  0  0  0  0  0  0
  186.9060  177.0000  146.2380 C   0  0  0  0  0  2  0  0  0  0  0  0
  189.5890  178.0820  147.7770 C   0  0  0  0  0  3  0  0  0  0  0  0
  189.3140  177.4970  146.5350 C   0  0  0  0  0  0  0  0  0  0  0  0
  190.2160  176.5690  145.9900 C   0  0  0  0  0  3  0  0  0  0  0  0
  192.3330  175.2510  146.1030 C   0  0  0  0  0  1  0  0  0  0  0  0
  191.6500  176.8180  147.9240 C   0  0  0  0  0  3  0  0  0  0  0  0
  191.3810  176.2310  146.6850 C   0  0  0  0  0  0  0  0  0  0  0  0
  190.7550  177.7420  148.4700 C   0  0  0  0  0  3  0  0  0  0  0  0
  187.9440  177.7740  139.8230 C   0  0  0  0  0  2  0  0  0  0  0  0
  189.2730  177.9150  139.0730 C   0  0  1  0  0  3  0  0  0  0  0  0
  190.5550  175.9010  138.9730 O   0  0  0  0  0  1  0  0  0  0  0  0
  189.6230  176.6680  138.2730 C   0  0  0  0  0  2  0  0  0  0  0  0
  189.2550  179.0770  138.1960 N   0  0  0  0  0  2  0  0  0  0  0  0
  188.9720  178.6040  136.8500 C   0  0  0  0  0  2  0  0  0  0  0  0
  187.5650  179.0000  136.4520 C   0  0  0  0  0  1  0  0  0  0  0  0
  1 13  1  0  0  0  0
  1 18  1  0  0  0  0
  2 16  1  0  0  0  0
  3  7  1  0  0  0  0
  4  6  1  0  0  0  0
  4  8  1  0  0  0  0
  5  2  1  0  0  0  0
  5  7  1  0  0  0  0
  6  2  1  0  0  0  0
  7 19  1  0  0  0  0
  8 12  1  0  0  0  0
  9 17  1  0  0  0  0
  9  6  1  0  0  0  0
 10  1  1  0  0  0  0
 13  9  1  0  0  0  0
 14 15  1  0  0  0  0
 15  3  1  0  0  0  0
 16 12  1  0  0  0  0
 16 11  1  0  0  0  0
 17  5  1  0  0  0  0
 18  4  1  0  0  0  0
 19 23  1  0  0  0  0
 19 25  1  0  0  0  0
 20  1  1  0  0  0  0
 21 14  1  0  0  0  0
 21 15  1  0  0  0  0
 22 21  1  0  0  0  0
 22 17  1  0  0  0  0
 23 11  1  0  0  0  0
 24 30  1  0  0  0  0
 25 24  2  0  0  0  0
 26 25  1  0  0  0  0
 26 29  2  0  0  0  0
 27 29  1  0  0  0  0
 28 30  2  0  0  0  0
 29 28  1  0  0  0  0
 31 22  1  0  0  0  0
 32 31  1  0  0  0  0
 34 33  1  0  0  0  0
 34 32  1  0  0  0  0
 35 32  1  0  0  0  0
 36 35  1  0  0  0  0
 37 36  1  0  0  0  0
M  END
>  <MODEL>
6

>  <REMARK>
 VINA RESULT:      -7.1      2.928      8.147
  Name = 
  6 active torsions:
  status: ('A' for Active; 'I' for Inactive)
    1  A    between atoms: C_1  and  CA_4
    2  A    between atoms: C_1  and  C_27
    3  A    between atoms: CA_4  and  N_12
    4  A    between atoms: CA_4  and  C_37
    5  A    between atoms: C_8  and  N_12
    6  A    between atoms: C_23  and  C_30
                            x       y       z     vdW  Elec       q    Type
                         _______ _______ _______ _____ _____    ______ ____

>  <TORSDO>
F 6

$$$$
=
 OpenBabel11122411433D

 37 43  0  0  1  0  0  0  0  0999 V2000
  183.0850  177.3630  138.1470 C   0  0  0  0  0  0  0  0  0  0  0  0
  185.5140  178.8120  140.7590 N   0  0  1  0  0  0  0  0  0  0  0  0
  188.7530  178.9180  140.2200 O   0  0  0  0  0  0  0  0  0  0  0  0
  183.1830  179.0760  139.6850 C   0  0  2  0  0  3  0  0  0  0  0  0
  186.5520  177.9570  140.1540 C   0  0  2  0  0  3  0  0  0  0  0  0
  184.7130  179.2210  139.5810 C   0  0  2  0  0  3  0  0  0  0  0  0
  187.9070  178.0060  140.8700 C   0  0  2  0  0  3  0  0  0  0  0  0
  182.7680  179.5240  141.0640 C   0  0  0  0  0  2  0  0  0  0  0  0
  185.3120  178.5600  138.3480 C   0  0  2  0  0  3  0  0  0  0  0  0
  182.6040  178.2630  137.2050 F   0  0  0  0  0  0  0  0  0  0  0  0
  185.5030  177.9600  143.0990 C   0  0  0  0  0  2  0  0  0  0  0  0
  183.3900  178.6250  142.1250 C   0  0  0  0  0  2  0  0  0  0  0  0
  184.5980  177.2280  138.0380 C   0  0  0  0  0  2  0  0  0  0  0  0
  189.5770  176.7480  139.1480 C   0  0  0  0  0  2  0  0  0  0  0  0
  189.6790  178.2580  139.3630 C   0  0  1  0  0  3  0  0  0  0  0  0
  184.7590  178.0210  141.7620 C   0  0  1  0  0  3  0  0  0  0  0  0
  186.7020  178.3620  138.7530 N   0  0  2  0  0  0  0  0  0  0  0  0
  182.7400  177.7540  139.4570 O   0  0  0  0  0  0  0  0  0  0  0  0
  187.8510  178.2540  142.3750 C   0  0  1  0  0  3  0  0  0  0  0  0
  182.5220  176.1270  137.8930 F   0  0  0  0  0  0  0  0  0  0  0  0
  189.0230  177.6820  138.0860 C   0  0  2  0  0  3  0  0  0  0  0  0
  187.5070  177.3850  137.9880 C   0  0  2  0  0  3  0  0  0  0  0  0
  186.8650  177.3010  143.0280 C   0  0  0  0  0  2  0  0  0  0  0  0
  189.9050  179.2500  143.3950 C   0  0  0  0  0  3  0  0  0  0  0  0
  189.2070  178.1040  142.9960 C   0  0  0  0  0  0  0  0  0  0  0  0
  189.7930  176.8390  143.1710 C   0  0  0  0  0  3  0  0  0  0  0  0
  191.6800  175.3880  143.9250 C   0  0  0  0  0  1  0  0  0  0  0  0
  191.7550  177.8750  144.1400 C   0  0  0  0  0  3  0  0  0  0  0  0
  191.0640  176.7270  143.7430 C   0  0  0  0  0  0  0  0  0  0  0  0
  191.1760  179.1360  143.9670 C   0  0  0  0  0  3  0  0  0  0  0  0
  187.1580  177.3970  136.4910 C   0  0  0  0  0  2  0  0  0  0  0  0
  187.1390  176.0000  135.8610 C   0  0  1  0  0  3  0  0  0  0  0  0
  189.3770  175.1760  135.7220 O   0  0  0  0  0  1  0  0  0  0  0  0
  188.3490  175.7470  134.9730 C   0  0  0  0  0  2  0  0  0  0  0  0
  187.0520  174.9680  136.8860 N   0  0  0  0  0  2  0  0  0  0  0  0
  186.0660  173.9960  136.4420 C   0  0  0  0  0  2  0  0  0  0  0  0
  185.6870  173.0870  137.5930 C   0  0  0  0  0  1  0  0  0  0  0  0
  1 18  1  0  0  0  0
  2 16  1  0  0  0  0
  3  7  1  0  0  0  0
  4  8  1  0  0  0  0
  5  2  1  0  0  0  0
  5  7  1  0  0  0  0
  6  4  1  0  0  0  0
  6  2  1  0  0  0  0
  7 19  1  0  0  0  0
  8 12  1  0  0  0  0
  9 17  1  0  0  0  0
  9  6  1  0  0  0  0
 10  1  1  0  0  0  0
 13  1  1  0  0  0  0
 13  9  1  0  0  0  0
 14 15  1  0  0  0  0
 15  3  1  0  0  0  0
 16 12  1  0  0  0  0
 16 11  1  0  0  0  0
 17  5  1  0  0  0  0
 18  4  1  0  0  0  0
 19 25  1  0  0  0  0
 19 23  1  0  0  0  0
 20  1  1  0  0  0  0
 21 14  1  0  0  0  0
 21 15  1  0  0  0  0
 22 21  1  0  0  0  0
 22 17  1  0  0  0  0
 23 11  1  0  0  0  0
 24 30  1  0  0  0  0
 25 26  1  0  0  0  0
 25 24  2  0  0  0  0
 26 29  2  0  0  0  0
 29 27  1  0  0  0  0
 29 28  1  0  0  0  0
 30 28  2  0  0  0  0
 31 22  1  0  0  0  0
 32 31  1  0  0  0  0
 32 35  1  0  0  0  0
 34 33  1  0  0  0  0
 34 32  1  0  0  0  0
 36 35  1  0  0  0  0
 36 37  1  0  0  0  0
M  END
>  <MODEL>
7

>  <REMARK>
 VINA RESULT:      -6.8      2.837      7.396
  Name = 
  6 active torsions:
  status: ('A' for Active; 'I' for Inactive)
    1  A    between atoms: C_1  and  CA_4
    2  A    between atoms: C_1  and  C_27
    3  A    between atoms: CA_4  and  N_12
    4  A    between atoms: CA_4  and  C_37
    5  A    between atoms: C_8  and  N_12
    6  A    between atoms: C_23  and  C_30
                            x       y       z     vdW  Elec       q    Type
                         _______ _______ _______ _____ _____    ______ ____

>  <TORSDO>
F 6

$$$$
=
 OpenBabel11122411433D

 37 43  0  0  1  0  0  0  0  0999 V2000
  190.0880  175.7540  142.7460 C   0  0  0  0  0  0  0  0  0  0  0  0
  188.0050  178.3460  140.8040 N   0  0  1  0  0  0  0  0  0  0  0  0
  185.3090  179.7020  142.1010 O   0  0  0  0  0  0  0  0  0  0  0  0
  190.3990  177.5160  141.2940 C   0  0  2  0  0  3  0  0  0  0  0  0
  186.8570  177.9270  141.6310 C   0  0  2  0  0  3  0  0  0  0  0  0
  189.1340  178.2600  141.7620 C   0  0  2  0  0  3  0  0  0  0  0  0
  185.5320  178.6020  141.2590 C   0  0  2  0  0  3  0  0  0  0  0  0
  190.6610  177.9060  139.8600 C   0  0  0  0  0  2  0  0  0  0  0  0
  188.5880  177.7690  143.0940 C   0  0  2  0  0  3  0  0  0  0  0  0
  191.0910  176.2710  143.5550 F   0  0  0  0  0  0  0  0  0  0  0  0
  187.1600  177.8260  138.5210 C   0  0  0  0  0  2  0  0  0  0  0  0
  189.5090  177.4610  138.9690 C   0  0  0  0  0  2  0  0  0  0  0  0
  188.7210  176.2370  143.2110 C   0  0  0  0  0  2  0  0  0  0  0  0
  183.8940  177.9530  143.3160 C   0  0  0  0  0  2  0  0  0  0  0  0
  184.3950  179.3860  143.1480 C   0  0  1  0  0  3  0  0  0  0  0  0
  188.1240  177.4320  139.6420 C   0  0  1  0  0  3  0  0  0  0  0  0
  187.1940  178.2010  143.0310 N   0  0  2  0  0  0  0  0  0  0  0  0
  190.2800  176.1120  141.3960 O   0  0  0  0  0  0  0  0  0  0  0  0
  185.3670  178.9700  139.7870 C   0  0  1  0  0  3  0  0  0  0  0  0
  190.1170  174.3770  142.8440 F   0  0  0  0  0  0  0  0  0  0  0  0
  185.0020  178.4560  144.2250 C   0  0  2  0  0  3  0  0  0  0  0  0
  186.2340  177.5590  143.9550 C   0  0  2  0  0  3  0  0  0  0  0  0
  185.6950  177.7760  138.9070 C   0  0  0  0  0  2  0  0  0  0  0  0
  183.8000  180.7020  138.8960 C   0  0  0  0  0  3  0  0  0  0  0  0
  183.9760  179.4540  139.5060 C   0  0  0  0  0  0  0  0  0  0  0  0
  182.8530  178.6880  139.8550 C   0  0  0  0  0  3  0  0  0  0  0  0
  180.3810  178.3540  139.9630 C   0  0  0  0  0  1  0  0  0  0  0  0
  181.3970  180.4130  138.9810 C   0  0  0  0  0  3  0  0  0  0  0  0
  181.5660  179.1680  139.5920 C   0  0  0  0  0  0  0  0  0  0  0  0
  182.5120  181.1800  138.6330 C   0  0  0  0  0  3  0  0  0  0  0  0
  186.8630  177.2630  145.3260 C   0  0  0  0  0  2  0  0  0  0  0  0
  187.0570  178.5150  146.1880 C   0  0  1  0  0  3  0  0  0  0  0  0
  185.7560  179.9590  147.5770 O   0  0  0  0  0  1  0  0  0  0  0  0
  186.0240  178.6180  147.3010 C   0  0  0  0  0  2  0  0  0  0  0  0
  188.3990  178.5550  146.7520 N   0  0  0  0  0  2  0  0  0  0  0  0
  188.7770  177.1890  147.0760 C   0  0  0  0  0  2  0  0  0  0  0  0
  190.2830  177.0910  147.2120 C   0  0  0  0  0  1  0  0  0  0  0  0
  1 20  1  0  0  0  0
  1 13  1  0  0  0  0
  1 10  1  0  0  0  0
  2  5  1  0  0  0  0
  2  6  1  0  0  0  0
  3 15  1  0  0  0  0
  4 18  1  0  0  0  0
  4  6  1  0  0  0  0
  5 17  1  0  0  0  0
  6  9  1  0  0  0  0
  7  5  1  0  0  0  0
  7  3  1  0  0  0  0
  8  4  1  0  0  0  0
  9 13  1  0  0  0  0
 11 23  1  0  0  0  0
 11 16  1  0  0  0  0
 12 16  1  0  0  0  0
 12  8  1  0  0  0  0
 14 21  1  0  0  0  0
 15 14  1  0  0  0  0
 15 21  1  0  0  0  0
 16  2  1  0  0  0  0
 17  9  1  0  0  0  0
 17 22  1  0  0  0  0
 18  1  1  0  0  0  0
 19  7  1  0  0  0  0
 22 21  1  0  0  0  0
 22 31  1  0  0  0  0
 23 19  1  0  0  0  0
 24 25  1  0  0  0  0
 25 19  1  0  0  0  0
 25 26  2  0  0  0  0
 28 29  2  0  0  0  0
 29 26  1  0  0  0  0
 29 27  1  0  0  0  0
 30 24  2  0  0  0  0
 30 28  1  0  0  0  0
 31 32  1  0  0  0  0
 32 35  1  0  0  0  0
 32 34  1  0  0  0  0
 34 33  1  0  0  0  0
 35 36  1  0  0  0  0
 36 37  1  0  0  0  0
M  END
>  <MODEL>
8

>  <REMARK>
 VINA RESULT:      -6.7      2.192      3.631
  Name = 
  6 active torsions:
  status: ('A' for Active; 'I' for Inactive)
    1  A    between atoms: C_1  and  CA_4
    2  A    between atoms: C_1  and  C_27
    3  A    between atoms: CA_4  and  N_12
    4  A    between atoms: CA_4  and  C_37
    5  A    between atoms: C_8  and  N_12
    6  A    between atoms: C_23  and  C_30
                            x       y       z     vdW  Elec       q    Type
                         _______ _______ _______ _____ _____    ______ ____

>  <TORSDO>
F 6

$$$$
=
 OpenBabel11122411433D

 37 43  0  0  1  0  0  0  0  0999 V2000
  183.1050  178.2530  142.1540 C   0  0  0  0  0  0  0  0  0  0  0  0
  186.9320  178.6600  142.0050 N   0  0  1  0  0  0  0  0  0  0  0  0
  188.5270  178.8590  139.1400 O   0  0  0  0  0  0  0  0  0  0  0  0
  184.7960  179.3350  143.2860 C   0  0  2  0  0  3  0  0  0  0  0  0
  186.8680  178.0360  140.6700 C   0  0  2  0  0  3  0  0  0  0  0  0
  185.6890  179.4670  142.0380 C   0  0  2  0  0  3  0  0  0  0  0  0
  188.2350  177.8020  140.0160 C   0  0  2  0  0  3  0  0  0  0  0  0
  185.6960  179.2960  144.4970 C   0  0  0  0  0  2  0  0  0  0  0  0
  184.9490  179.2510  140.7260 C   0  0  2  0  0  3  0  0  0  0  0  0
  182.3740  179.4320  142.1620 F   0  0  0  0  0  0  0  0  0  0  0  0
  188.4160  177.0610  143.2050 C   0  0  0  0  0  2  0  0  0  0  0  0
  186.6020  178.0730  144.4470 C   0  0  0  0  0  2  0  0  0  0  0  0
  183.9040  178.1240  140.8640 C   0  0  0  0  0  2  0  0  0  0  0  0
  187.6100  177.1650  137.4590 C   0  0  0  0  0  2  0  0  0  0  0  0
  188.2640  178.5070  137.7850 C   0  0  1  0  0  3  0  0  0  0  0  0
  186.9910  177.5940  143.0350 C   0  0  1  0  0  3  0  0  0  0  0  0
  186.0350  178.8910  139.8180 N   0  0  2  0  0  0  0  0  0  0  0  0
  183.9800  178.1820  143.2580 O   0  0  0  0  0  0  0  0  0  0  0  0
  189.3880  177.5220  140.9760 C   0  0  1  0  0  3  0  0  0  0  0  0
  182.2230  177.1930  142.2230 F   0  0  0  0  0  0  0  0  0  0  0  0
  186.7540  178.4190  137.4610 C   0  0  2  0  0  3  0  0  0  0  0  0
  185.6770  178.2130  138.5540 C   0  0  2  0  0  3  0  0  0  0  0  0
  189.0010  176.4290  141.9580 C   0  0  0  0  0  2  0  0  0  0  0  0
  191.8580  177.6740  140.6220 C   0  0  0  0  0  3  0  0  0  0  0  0
  190.6280  177.1340  140.2290 C   0  0  0  0  0  0  0  0  0  0  0  0
  190.5750  176.2520  139.1370 C   0  0  0  0  0  3  0  0  0  0  0  0
  191.6840  174.9810  137.2970 C   0  0  0  0  0  1  0  0  0  0  0  0
  192.9700  176.4560  138.8490 C   0  0  0  0  0  3  0  0  0  0  0  0
  191.7450  175.9140  138.4510 C   0  0  0  0  0  0  0  0  0  0  0  0
  193.0270  177.3350  139.9340 C   0  0  0  0  0  3  0  0  0  0  0  0
  184.3590  178.7440  137.9690 C   0  0  0  0  0  2  0  0  0  0  0  0
  183.5530  177.6770  137.2190 C   0  0  1  0  0  3  0  0  0  0  0  0
  182.7070  175.7970  138.4260 O   0  0  0  0  0  1  0  0  0  0  0  0
  183.8240  176.2730  137.7400 C   0  0  0  0  0  2  0  0  0  0  0  0
  182.1260  177.9620  137.2820 N   0  0  0  0  0  2  0  0  0  0  0  0
  181.9710  179.2700  137.8990 C   0  0  0  0  0  2  0  0  0  0  0  0
  180.8630  179.2230  138.9310 C   0  0  0  0  0  1  0  0  0  0  0  0
  1 10  1  0  0  0  0
  1 20  1  0  0  0  0
  1 18  1  0  0  0  0
  2  6  1  0  0  0  0
  2 16  1  0  0  0  0
  3  7  1  0  0  0  0
  4  8  1  0  0  0  0
  5  2  1  0  0  0  0
  6  4  1  0  0  0  0
  7  5  1  0  0  0  0
  7 19  1  0  0  0  0
  9 13  1  0  0  0  0
  9  6  1  0  0  0  0
 12  8  1  0  0  0  0
 13  1  1  0  0  0  0
 14 21  1  0  0  0  0
 14 15  1  0  0  0  0
 15  3  1  0  0  0  0
 16 11  1  0  0  0  0
 16 12  1  0  0  0  0
 17  5  1  0  0  0  0
 17  9  1  0  0  0  0
 18  4  1  0  0  0  0
 19 23  1  0  0  0  0
 21 15  1  0  0  0  0
 21 22  1  0  0  0  0
 22 17  1  0  0  0  0
 23 11  1  0  0  0  0
 25 24  1  0  0  0  0
 25 19  1  0  0  0  0
 26 25  2  0  0  0  0
 27 29  1  0  0  0  0
 28 30  1  0  0  0  0
 29 28  2  0  0  0  0
 29 26  1  0  0  0  0
 30 24  2  0  0  0  0
 31 22  1  0  0  0  0
 32 35  1  0  0  0  0
 32 34  1  0  0  0  0
 32 31  1  0  0  0  0
 34 33  1  0  0  0  0
 35 36  1  0  0  0  0
 36 37  1  0  0  0  0
M  END
>  <MODEL>
9

>  <REMARK>
 VINA RESULT:      -6.5      3.092      8.077
  Name = 
  6 active torsions:
  status: ('A' for Active; 'I' for Inactive)
    1  A    between atoms: C_1  and  CA_4
    2  A    between atoms: C_1  and  C_27
    3  A    between atoms: CA_4  and  N_12
    4  A    between atoms: CA_4  and  C_37
    5  A    between atoms: C_8  and  N_12
    6  A    between atoms: C_23  and  C_30
                            x       y       z     vdW  Elec       q    Type
                         _______ _______ _______ _____ _____    ______ ____

>  <TORSDO>
F 6

$$$$
