=
 OpenBabel11122411323D

 37 44  0  0  1  0  0  0  0  0999 V2000
  186.4930  178.6560  143.5260 C   0  0  0  0  0  2  0  0  0  0  0  0
  190.2570  177.0510  144.1530 C   0  0  0  0  0  0  0  0  0  0  0  0
  189.3030  177.4490  140.2130 C   0  0  0  0  0  0  0  0  0  0  0  0
  185.4610  178.3710  144.6260 C   0  0  2  0  0  3  0  0  0  0  0  0
  185.6480  178.7540  139.9370 C   0  0  2  0  0  3  0  0  0  0  0  0
  191.1130  176.5280  141.7270 C   0  0  1  0  0  3  0  0  0  0  0  0
  187.9710  177.7900  140.3820 C   0  0  0  0  0  0  0  0  0  0  0  0
  183.5450  178.6300  143.0630 C   0  0  0  0  0  0  0  0  0  0  0  0
  189.6970  176.8630  141.3920 C   0  0  0  0  0  0  0  0  0  0  0  0
  187.1140  178.6300  139.4820 C   0  0  1  0  0  3  0  0  0  0  0  0
  192.0570  177.4470  140.9460 C   0  0  0  0  0  2  0  0  0  0  0  0
  184.1790  177.9790  144.1230 O   0  0  0  0  0  0  0  0  0  0  0  0
  188.6950  176.8540  142.2800 N   0  0  0  0  0  0  0  0  0  0  0  0
  190.2640  178.5710  144.1720 C   0  0  0  0  0  1  0  0  0  0  0  0
  189.8240  177.5390  137.7960 C   0  0  0  0  0  2  0  0  0  0  0  0
  191.6930  177.4200  139.4500 C   0  0  0  0  0  2  0  0  0  0  0  0
  188.8840  176.5410  143.6910 C   0  0  0  0  0  2  0  0  0  0  0  0
  183.8200  178.1970  141.6590 C   0  0  0  0  0  2  0  0  0  0  0  0
  185.5940  179.6810  141.0000 O   0  0  0  0  0  0  0  0  0  0  0  0
  190.2720  177.9550  139.1850 C   0  0  2  0  0  3  0  0  0  0  0  0
  187.6350  177.4290  141.6730 C   0  0  0  0  0  0  0  0  0  0  0  0
  191.3970  176.5380  143.2450 C   0  0  0  0  0  2  0  0  0  0  0  0
  187.1680  178.2090  138.0080 C   0  0  1  0  0  3  0  0  0  0  0  0
  190.5050  176.5580  145.5620 C   0  0  0  0  0  1  0  0  0  0  0  0
  185.2990  178.3460  141.3360 C   0  0  2  0  0  0  0  0  0  0  0  0
  182.7220  179.5540  143.2890 O   0  0  0  0  0  0  0  0  0  0  0  0
  186.3240  177.7400  142.3190 C   0  0  2  0  0  3  0  0  0  0  0  0
  188.6630  178.7600  137.1030 S   0  0  0  0  0  0  0  0  0  0  0  0
  185.3160  176.5910  137.5650 C   0  0  0  0  0  3  0  0  0  0  0  0
  186.6910  176.8230  137.6760 C   0  0  0  0  0  0  0  0  0  0  0  0
  187.5870  175.7630  137.4740 C   0  0  0  0  0  3  0  0  0  0  0  0
  188.2390  173.1710  136.9260 Cl  0  0  0  0  0  0  0  0  0  0  0  0
  185.7360  174.2600  137.0640 C   0  0  0  0  0  3  0  0  0  0  0  0
  187.1120  174.4860  137.1700 C   0  0  0  0  0  0  0  0  0  0  0  0
  184.8380  175.3120  137.2610 C   0  0  0  0  0  3  0  0  0  0  0  0
  185.7180  179.2020  146.9640 C   0  0  0  0  0  1  0  0  0  0  0  0
  185.3190  179.5720  145.5480 C   0  0  0  0  0  2  0  0  0  0  0  0
  1  4  1  0  0  0  0
  2 14  1  0  0  0  0
  2 24  1  0  0  0  0
  3  7  1  0  0  0  0
  3  9  2  0  0  0  0
  4 37  1  6  0  0  0
  5 19  1  1  0  0  0
  5 25  1  0  0  0  0
  6 11  1  6  0  0  0
  6 22  1  0  0  0  0
  7 21  2  0  0  0  0
  8 26  2  0  0  0  0
  8 12  1  0  0  0  0
  9  6  1  0  0  0  0
  9 13  1  0  0  0  0
 10  5  1  0  0  0  0
 10  7  1  1  0  0  0
 12  4  1  0  0  0  0
 13 17  1  0  0  0  0
 16 11  1  0  0  0  0
 17  2  1  0  0  0  0
 18  8  1  0  0  0  0
 19 25  1  0  0  0  0
 20 15  1  6  0  0  0
 20 16  1  0  0  0  0
 20  3  1  0  0  0  0
 21 13  1  0  0  0  0
 21 27  1  0  0  0  0
 22  2  1  0  0  0  0
 23 30  1  1  0  0  0
 23 10  1  0  0  0  0
 25 18  1  1  0  0  0
 25 27  1  0  0  0  0
 27  1  1  1  0  0  0
 28 15  1  0  0  0  0
 28 23  1  0  0  0  0
 29 30  1  0  0  0  0
 31 30  2  0  0  0  0
 32 34  1  0  0  0  0
 33 34  2  0  0  0  0
 33 35  1  0  0  0  0
 34 31  1  0  0  0  0
 35 29  2  0  0  0  0
 37 36  1  0  0  0  0
M  END
>  <MODEL>
1

>  <REMARK>
 VINA RESULT:      -8.5      0.000      0.000
  Name = 
  2 active torsions:
  status: ('A' for Active; 'I' for Inactive)
    1  A    between atoms: C_4  and  C_37
    2  A    between atoms: C_23  and  C_30
                            x       y       z     vdW  Elec       q    Type
                         _______ _______ _______ _____ _____    ______ ____

>  <TORSDO>
F 2

$$$$
=
 OpenBabel11122411323D

 37 44  0  0  1  0  0  0  0  0999 V2000
  186.5050  178.6640  143.5400 C   0  0  0  0  0  2  0  0  0  0  0  0
  190.2720  177.0580  144.1420 C   0  0  0  0  0  0  0  0  0  0  0  0
  189.2940  177.4570  140.2090 C   0  0  0  0  0  0  0  0  0  0  0  0
  185.4800  178.3790  144.6470 C   0  0  2  0  0  3  0  0  0  0  0  0
  185.6370  178.7620  139.9560 C   0  0  2  0  0  3  0  0  0  0  0  0
  191.1130  176.5350  141.7110 C   0  0  1  0  0  3  0  0  0  0  0  0
  187.9630  177.7980  140.3870 C   0  0  0  0  0  0  0  0  0  0  0  0
  183.5540  178.6380  143.0960 C   0  0  0  0  0  0  0  0  0  0  0  0
  189.6950  176.8710  141.3850 C   0  0  0  0  0  0  0  0  0  0  0  0
  187.1000  178.6380  139.4920 C   0  0  1  0  0  3  0  0  0  0  0  0
  192.0520  177.4550  140.9250 C   0  0  0  0  0  2  0  0  0  0  0  0
  184.1950  177.9870  144.1520 O   0  0  0  0  0  0  0  0  0  0  0  0
  188.6990  176.8610  142.2790 N   0  0  0  0  0  0  0  0  0  0  0  0
  190.2800  178.5780  144.1620 C   0  0  0  0  0  1  0  0  0  0  0  0
  189.7990  177.5470  137.7890 C   0  0  0  0  0  2  0  0  0  0  0  0
  191.6790  177.4280  139.4310 C   0  0  0  0  0  2  0  0  0  0  0  0
  188.8970  176.5480  143.6890 C   0  0  0  0  0  2  0  0  0  0  0  0
  183.8200  178.2060  141.6900 C   0  0  0  0  0  2  0  0  0  0  0  0
  185.5900  179.6890  141.0200 O   0  0  0  0  0  0  0  0  0  0  0  0
  190.2560  177.9630  139.1750 C   0  0  2  0  0  3  0  0  0  0  0  0
  187.6360  177.4370  141.6800 C   0  0  0  0  0  0  0  0  0  0  0  0
  191.4070  176.5450  143.2270 C   0  0  0  0  0  2  0  0  0  0  0  0
  187.1450  178.2180  138.0170 C   0  0  1  0  0  3  0  0  0  0  0  0
  190.5300  176.5650  145.5500 C   0  0  0  0  0  1  0  0  0  0  0  0
  185.2970  178.3540  141.3570 C   0  0  2  0  0  0  0  0  0  0  0  0
  182.7330  179.5620  143.3270 O   0  0  0  0  0  0  0  0  0  0  0  0
  186.3290  177.7480  142.3340 C   0  0  2  0  0  3  0  0  0  0  0  0
  188.6350  178.7680  137.1030 S   0  0  0  0  0  0  0  0  0  0  0  0
  187.6130  175.8250  137.4720 C   0  0  0  0  0  3  0  0  0  0  0  0
  186.6660  176.8320  137.6880 C   0  0  0  0  0  0  0  0  0  0  0  0
  185.3010  176.5260  137.5940 C   0  0  0  0  0  3  0  0  0  0  0  0
  183.1820  174.8610  137.1650 Cl  0  0  0  0  0  0  0  0  0  0  0  0
  185.8390  174.2270  137.0670 C   0  0  0  0  0  3  0  0  0  0  0  0
  184.8880  175.2290  137.2840 C   0  0  0  0  0  0  0  0  0  0  0  0
  187.2010  174.5240  137.1610 C   0  0  0  0  0  3  0  0  0  0  0  0
  185.7510  179.2090  146.9830 C   0  0  0  0  0  1  0  0  0  0  0  0
  185.3440  179.5790  145.5700 C   0  0  0  0  0  2  0  0  0  0  0  0
  1  4  1  0  0  0  0
  2 14  1  0  0  0  0
  2 24  1  0  0  0  0
  3  7  1  0  0  0  0
  3  9  2  0  0  0  0
  4 37  1  6  0  0  0
  5 19  1  1  0  0  0
  5 25  1  0  0  0  0
  6 11  1  6  0  0  0
  6 22  1  0  0  0  0
  7 21  2  0  0  0  0
  8 26  2  0  0  0  0
  8 12  1  0  0  0  0
  9  6  1  0  0  0  0
  9 13  1  0  0  0  0
 10  5  1  0  0  0  0
 10  7  1  1  0  0  0
 12  4  1  0  0  0  0
 13 17  1  0  0  0  0
 16 11  1  0  0  0  0
 17  2  1  0  0  0  0
 18  8  1  0  0  0  0
 19 25  1  0  0  0  0
 20 15  1  6  0  0  0
 20 16  1  0  0  0  0
 20  3  1  0  0  0  0
 21 13  1  0  0  0  0
 21 27  1  0  0  0  0
 22  2  1  0  0  0  0
 23 30  1  1  0  0  0
 23 10  1  0  0  0  0
 25 18  1  1  0  0  0
 25 27  1  0  0  0  0
 27  1  1  1  0  0  0
 28 15  1  0  0  0  0
 28 23  1  0  0  0  0
 29 30  1  0  0  0  0
 31 30  2  0  0  0  0
 32 34  1  0  0  0  0
 33 35  1  0  0  0  0
 33 34  2  0  0  0  0
 34 31  1  0  0  0  0
 35 29  2  0  0  0  0
 37 36  1  0  0  0  0
M  END
>  <MODEL>
2

>  <REMARK>
 VINA RESULT:      -8.4      0.879      1.185
  Name = 
  2 active torsions:
  status: ('A' for Active; 'I' for Inactive)
    1  A    between atoms: C_4  and  C_37
    2  A    between atoms: C_23  and  C_30
                            x       y       z     vdW  Elec       q    Type
                         _______ _______ _______ _____ _____    ______ ____

>  <TORSDO>
F 2

$$$$
=
 OpenBabel11122411323D

 37 44  0  0  1  0  0  0  0  0999 V2000
  186.6200  175.2540  136.1440 C   0  0  0  0  0  2  0  0  0  0  0  0
  183.1260  173.0420  136.3240 C   0  0  0  0  0  0  0  0  0  0  0  0
  182.8370  176.6740  138.1450 C   0  0  0  0  0  0  0  0  0  0  0  0
  187.9180  174.4360  136.0790 C   0  0  2  0  0  3  0  0  0  0  0  0
  186.3140  178.4150  138.0200 C   0  0  2  0  0  3  0  0  0  0  0  0
  181.5210  174.5440  137.7600 C   0  0  1  0  0  3  0  0  0  0  0  0
  184.1780  177.0170  138.0800 C   0  0  0  0  0  0  0  0  0  0  0  0
  189.2680  176.2740  137.0680 C   0  0  0  0  0  0  0  0  0  0  0  0
  182.7850  175.3120  137.9670 C   0  0  0  0  0  0  0  0  0  0  0  0
  184.7750  178.3910  138.0120 C   0  0  1  0  0  3  0  0  0  0  0  0
  180.4550  175.4620  137.1560 C   0  0  0  0  0  2  0  0  0  0  0  0
  188.9460  174.9210  136.9490 O   0  0  0  0  0  0  0  0  0  0  0  0
  184.0090  174.8080  137.7680 N   0  0  0  0  0  0  0  0  0  0  0  0
  183.2410  173.8400  135.0360 C   0  0  0  0  0  1  0  0  0  0  0  0
  181.6010  178.5730  139.1380 C   0  0  0  0  0  2  0  0  0  0  0  0
  180.3340  176.7460  137.9980 C   0  0  0  0  0  2  0  0  0  0  0  0
  184.2440  173.4500  137.2940 C   0  0  0  0  0  2  0  0  0  0  0  0
  188.5390  177.1230  138.0590 C   0  0  0  0  0  2  0  0  0  0  0  0
  186.7670  178.0600  136.7310 O   0  0  0  0  0  0  0  0  0  0  0  0
  181.6390  177.5660  138.0030 C   0  0  2  0  0  3  0  0  0  0  0  0
  184.8690  175.8470  137.8250 C   0  0  0  0  0  0  0  0  0  0  0  0
  181.7250  173.2510  136.9410 C   0  0  0  0  0  2  0  0  0  0  0  0
  184.2340  179.3530  139.0780 C   0  0  1  0  0  3  0  0  0  0  0  0
  183.2900  171.5750  135.9890 C   0  0  0  0  0  1  0  0  0  0  0  0
  187.0480  177.1360  137.7550 C   0  0  2  0  0  0  0  0  0  0  0  0
  190.1880  176.7700  136.3690 O   0  0  0  0  0  0  0  0  0  0  0  0
  186.3350  175.7810  137.5460 C   0  0  2  0  0  3  0  0  0  0  0  0
  182.5780  180.0510  138.7180 S   0  0  0  0  0  0  0  0  0  0  0  0
  185.7730  178.6400  140.9130 C   0  0  0  0  0  3  0  0  0  0  0  0
  184.4770  178.9850  140.5150 C   0  0  0  0  0  0  0  0  0  0  0  0
  183.4420  178.9820  141.4610 C   0  0  0  0  0  3  0  0  0  0  0  0
  182.3990  178.6280  143.9570 Cl  0  0  0  0  0  0  0  0  0  0  0  0
  184.9960  178.2860  143.1790 C   0  0  0  0  0  3  0  0  0  0  0  0
  183.7000  178.6330  142.7880 C   0  0  0  0  0  0  0  0  0  0  0  0
  186.0330  178.2890  142.2420 C   0  0  0  0  0  3  0  0  0  0  0  0
  189.7370  173.5940  134.5940 C   0  0  0  0  0  1  0  0  0  0  0  0
  188.4300  174.3620  134.6490 C   0  0  0  0  0  2  0  0  0  0  0  0
  2 22  1  0  0  0  0
  2 17  1  0  0  0  0
  4 37  1  6  0  0  0
  4  1  1  0  0  0  0
  4 12  1  0  0  0  0
  5 19  1  6  0  0  0
  6 22  1  6  0  0  0
  6  9  1  0  0  0  0
  7  3  1  0  0  0  0
  8 18  1  0  0  0  0
  9  3  2  0  0  0  0
 10  5  1  0  0  0  0
 10  7  1  1  0  0  0
 10 23  1  0  0  0  0
 11  6  1  0  0  0  0
 11 16  1  0  0  0  0
 12  8  1  0  0  0  0
 13 21  1  0  0  0  0
 13  9  1  0  0  0  0
 14  2  1  0  0  0  0
 17 13  1  0  0  0  0
 19 25  1  0  0  0  0
 20 16  1  1  0  0  0
 20  3  1  0  0  0  0
 20 15  1  0  0  0  0
 21  7  2  0  0  0  0
 23 30  1  1  0  0  0
 24  2  1  0  0  0  0
 25  5  1  0  0  0  0
 25 18  1  1  0  0  0
 26  8  2  0  0  0  0
 27  1  1  6  0  0  0
 27 25  1  0  0  0  0
 27 21  1  0  0  0  0
 28 23  1  0  0  0  0
 28 15  1  0  0  0  0
 29 35  1  0  0  0  0
 30 29  2  0  0  0  0
 30 31  1  0  0  0  0
 31 34  2  0  0  0  0
 34 33  1  0  0  0  0
 34 32  1  0  0  0  0
 35 33  2  0  0  0  0
 36 37  1  0  0  0  0
M  END
>  <MODEL>
3

>  <REMARK>
 VINA RESULT:      -6.6      4.027      8.548
  Name = 
  2 active torsions:
  status: ('A' for Active; 'I' for Inactive)
    1  A    between atoms: C_4  and  C_37
    2  A    between atoms: C_23  and  C_30
                            x       y       z     vdW  Elec       q    Type
                         _______ _______ _______ _____ _____    ______ ____

>  <TORSDO>
F 2

$$$$
=
 OpenBabel11122411323D

 37 44  0  0  1  0  0  0  0  0999 V2000
  186.5930  177.9300  140.7530 C   0  0  0  0  0  2  0  0  0  0  0  0
  184.8510  178.9770  144.3590 C   0  0  0  0  0  0  0  0  0  0  0  0
  182.1650  178.5530  141.3270 C   0  0  0  0  0  0  0  0  0  0  0  0
  188.0350  178.4160  140.5500 C   0  0  2  0  0  3  0  0  0  0  0  0
  184.1010  177.8020  138.0370 C   0  0  2  0  0  3  0  0  0  0  0  0
  182.3110  179.2570  143.7560 C   0  0  1  0  0  3  0  0  0  0  0  0
  183.0770  178.4240  140.2930 C   0  0  0  0  0  0  0  0  0  0  0  0
  187.8260  178.3800  138.0730 C   0  0  0  0  0  0  0  0  0  0  0  0
  182.8530  179.1240  142.3700 C   0  0  0  0  0  0  0  0  0  0  0  0
  182.9050  177.6830  139.0000 C   0  0  1  0  0  3  0  0  0  0  0  0
  181.2590  178.1730  144.0020 C   0  0  0  0  0  2  0  0  0  0  0  0
  188.2760  178.9740  139.2540 O   0  0  0  0  0  0  0  0  0  0  0  0
  184.1360  179.3240  142.0460 N   0  0  0  0  0  0  0  0  0  0  0  0
  185.0460  177.4760  144.2240 C   0  0  0  0  0  1  0  0  0  0  0  0
  179.8910  178.2780  140.3920 C   0  0  0  0  0  2  0  0  0  0  0  0
  180.2180  178.1880  142.8670 C   0  0  0  0  0  2  0  0  0  0  0  0
  185.1610  179.6670  143.0230 C   0  0  0  0  0  2  0  0  0  0  0  0
  186.4620  178.7030  137.5550 C   0  0  0  0  0  2  0  0  0  0  0  0
  185.1220  176.9420  138.4950 O   0  0  0  0  0  0  0  0  0  0  0  0
  180.8430  177.8620  141.4970 C   0  0  2  0  0  3  0  0  0  0  0  0
  184.2850  178.8890  140.7770 C   0  0  0  0  0  0  0  0  0  0  0  0
  183.4120  179.2720  144.8390 C   0  0  0  0  0  2  0  0  0  0  0  0
  181.6050  178.0250  138.2600 C   0  0  1  0  0  3  0  0  0  0  0  0
  185.8200  179.4890  145.4020 C   0  0  0  0  0  1  0  0  0  0  0  0
  185.4000  178.3200  138.5750 C   0  0  2  0  0  0  0  0  0  0  0  0
  188.5760  177.6010  137.4310 O   0  0  0  0  0  0  0  0  0  0  0  0
  185.5770  178.8070  140.0300 C   0  0  2  0  0  3  0  0  0  0  0  0
  180.1030  177.2160  138.9270 S   0  0  0  0  0  0  0  0  0  0  0  0
  181.7920  180.4780  138.6970 C   0  0  0  0  0  3  0  0  0  0  0  0
  181.4250  179.4520  137.8210 C   0  0  0  0  0  0  0  0  0  0  0  0
  180.9020  179.7750  136.5600 C   0  0  0  0  0  3  0  0  0  0  0  0
  180.0870  181.5000  134.6100 Cl  0  0  0  0  0  0  0  0  0  0  0  0
  181.1100  182.1320  137.0640 C   0  0  0  0  0  3  0  0  0  0  0  0
  180.7440  181.1100  136.1830 C   0  0  0  0  0  0  0  0  0  0  0  0
  181.6350  181.8170  138.3210 C   0  0  0  0  0  3  0  0  0  0  0  0
  188.9520  176.8790  142.2880 C   0  0  0  0  0  1  0  0  0  0  0  0
  189.0210  177.2920  140.8300 C   0  0  0  0  0  2  0  0  0  0  0  0
  2 22  1  0  0  0  0
  2 24  1  0  0  0  0
  3 20  1  0  0  0  0
  3  9  2  0  0  0  0
  4  1  1  0  0  0  0
  4 37  1  6  0  0  0
  5 19  1  1  0  0  0
  5 25  1  0  0  0  0
  5 10  1  0  0  0  0
  6 11  1  1  0  0  0
  6 22  1  0  0  0  0
  7 21  2  0  0  0  0
  7  3  1  0  0  0  0
  8 12  1  0  0  0  0
  9  6  1  0  0  0  0
 10  7  1  1  0  0  0
 12  4  1  0  0  0  0
 13  9  1  0  0  0  0
 13 17  1  0  0  0  0
 14  2  1  0  0  0  0
 16 11  1  0  0  0  0
 17  2  1  0  0  0  0
 18  8  1  0  0  0  0
 19 25  1  0  0  0  0
 20 15  1  6  0  0  0
 20 16  1  0  0  0  0
 21 13  1  0  0  0  0
 23 30  1  1  0  0  0
 23 28  1  0  0  0  0
 23 10  1  0  0  0  0
 25 18  1  6  0  0  0
 25 27  1  0  0  0  0
 26  8  2  0  0  0  0
 27  1  1  1  0  0  0
 27 21  1  0  0  0  0
 28 15  1  0  0  0  0
 30 29  2  0  0  0  0
 31 30  1  0  0  0  0
 32 34  1  0  0  0  0
 33 35  2  0  0  0  0
 34 31  2  0  0  0  0
 34 33  1  0  0  0  0
 35 29  1  0  0  0  0
 37 36  1  0  0  0  0
M  END
>  <MODEL>
4

>  <REMARK>
 VINA RESULT:      -6.5      3.955      7.101
  Name = 
  2 active torsions:
  status: ('A' for Active; 'I' for Inactive)
    1  A    between atoms: C_4  and  C_37
    2  A    between atoms: C_23  and  C_30
                            x       y       z     vdW  Elec       q    Type
                         _______ _______ _______ _____ _____    ______ ____

>  <TORSDO>
F 2

$$$$
=
 OpenBabel11122411323D

 37 44  0  0  1  0  0  0  0  0999 V2000
  186.6420  178.5970  144.0910 C   0  0  0  0  0  2  0  0  0  0  0  0
  190.3630  176.8450  143.6240 C   0  0  0  0  0  0  0  0  0  0  0  0
  188.4960  177.6430  140.0930 C   0  0  0  0  0  0  0  0  0  0  0  0
  185.8970  178.2340  145.3840 C   0  0  2  0  0  3  0  0  0  0  0  0
  184.9510  179.0590  140.8450 C   0  0  2  0  0  3  0  0  0  0  0  0
  190.5750  176.5360  141.0260 C   0  0  1  0  0  3  0  0  0  0  0  0
  187.2630  177.9990  140.6160 C   0  0  0  0  0  0  0  0  0  0  0  0
  183.6720  178.6880  144.3720 C   0  0  0  0  0  0  0  0  0  0  0  0
  189.1370  176.9370  141.0830 C   0  0  0  0  0  0  0  0  0  0  0  0
  186.2540  178.9420  140.0330 C   0  0  1  0  0  3  0  0  0  0  0  0
  191.3420  177.5020  140.1180 C   0  0  0  0  0  2  0  0  0  0  0  0
  184.5140  177.9240  145.1820 O   0  0  0  0  0  0  0  0  0  0  0  0
  188.3840  176.8670  142.1870 N   0  0  0  0  0  0  0  0  0  0  0  0
  190.4480  178.3560  143.7720 C   0  0  0  0  0  1  0  0  0  0  0  0
  188.4140  177.9510  137.6400 C   0  0  0  0  0  2  0  0  0  0  0  0
  190.6220  177.6270  138.7620 C   0  0  0  0  0  2  0  0  0  0  0  0
  188.8960  176.4160  143.4740 C   0  0  0  0  0  2  0  0  0  0  0  0
  183.5750  178.3860  142.9120 C   0  0  0  0  0  2  0  0  0  0  0  0
  185.2020  179.8810  141.9650 O   0  0  0  0  0  0  0  0  0  0  0  0
  189.2070  178.2200  138.9050 C   0  0  2  0  0  3  0  0  0  0  0  0
  187.2370  177.5240  141.9140 C   0  0  0  0  0  0  0  0  0  0  0  0
  191.2210  176.3940  142.4210 C   0  0  0  0  0  2  0  0  0  0  0  0
  185.9260  178.6640  138.5600 C   0  0  1  0  0  3  0  0  0  0  0  0
  190.9240  176.2140  144.8790 C   0  0  0  0  0  1  0  0  0  0  0  0
  184.9350  178.5270  142.2470 C   0  0  2  0  0  0  0  0  0  0  0  0
  182.9750  179.6070  144.8740 O   0  0  0  0  0  0  0  0  0  0  0  0
  186.1400  177.8040  142.8880 C   0  0  2  0  0  3  0  0  0  0  0  0
  187.1790  179.2610  137.3650 S   0  0  0  0  0  0  0  0  0  0  0  0
  186.0450  176.4250  137.4560 C   0  0  0  0  0  3  0  0  0  0  0  0
  185.3160  177.3280  138.2380 C   0  0  0  0  0  0  0  0  0  0  0  0
  184.0430  176.9670  138.7010 C   0  0  0  0  0  3  0  0  0  0  0  0
  181.9120  175.2830  138.9610 Cl  0  0  0  0  0  0  0  0  0  0  0  0
  184.2350  174.8220  137.5980 C   0  0  0  0  0  3  0  0  0  0  0  0
  183.5030  175.7190  138.3820 C   0  0  0  0  0  0  0  0  0  0  0  0
  185.5060  175.1740  137.1350 C   0  0  0  0  0  3  0  0  0  0  0  0
  186.9130  178.8850  147.5670 C   0  0  0  0  0  1  0  0  0  0  0  0
  186.0430  179.3440  146.4120 C   0  0  0  0  0  2  0  0  0  0  0  0
  1  4  1  0  0  0  0
  2 14  1  0  0  0  0
  2 24  1  0  0  0  0
  3  7  1  0  0  0  0
  3  9  2  0  0  0  0
  4 37  1  1  0  0  0
  5 19  1  1  0  0  0
  5 25  1  0  0  0  0
  6 11  1  6  0  0  0
  6  9  1  0  0  0  0
  6 22  1  0  0  0  0
  7 21  2  0  0  0  0
  8 26  2  0  0  0  0
  8 12  1  0  0  0  0
  9 13  1  0  0  0  0
 10  7  1  1  0  0  0
 10  5  1  0  0  0  0
 12  4  1  0  0  0  0
 13 17  1  0  0  0  0
 16 20  1  0  0  0  0
 16 11  1  0  0  0  0
 17  2  1  0  0  0  0
 18  8  1  0  0  0  0
 19 25  1  0  0  0  0
 20 15  1  6  0  0  0
 20  3  1  0  0  0  0
 21 13  1  0  0  0  0
 21 27  1  0  0  0  0
 22  2  1  0  0  0  0
 23 30  1  1  0  0  0
 23 10  1  0  0  0  0
 25 27  1  0  0  0  0
 25 18  1  1  0  0  0
 27  1  1  1  0  0  0
 28 15  1  0  0  0  0
 28 23  1  0  0  0  0
 29 30  1  0  0  0  0
 30 31  2  0  0  0  0
 33 34  2  0  0  0  0
 34 31  1  0  0  0  0
 34 32  1  0  0  0  0
 35 29  2  0  0  0  0
 35 33  1  0  0  0  0
 37 36  1  0  0  0  0
M  END
>  <MODEL>
5

>  <REMARK>
 VINA RESULT:      -6.5      1.502      1.793
  Name = 
  2 active torsions:
  status: ('A' for Active; 'I' for Inactive)
    1  A    between atoms: C_4  and  C_37
    2  A    between atoms: C_23  and  C_30
                            x       y       z     vdW  Elec       q    Type
                         _______ _______ _______ _____ _____    ______ ____

>  <TORSDO>
F 2

$$$$
=
 OpenBabel11122411323D

 37 44  0  0  1  0  0  0  0  0999 V2000
  191.3570  173.3730  135.9190 C   0  0  0  0  0  2  0  0  0  0  0  0
  187.5410  171.7700  135.9520 C   0  0  0  0  0  0  0  0  0  0  0  0
  187.6810  175.6390  137.2170 C   0  0  0  0  0  0  0  0  0  0  0  0
  192.4980  172.3680  136.1280 C   0  0  2  0  0  3  0  0  0  0  0  0
  191.3960  176.7940  137.2990 C   0  0  2  0  0  3  0  0  0  0  0  0
  186.0720  173.6990  136.9600 C   0  0  1  0  0  3  0  0  0  0  0  0
  189.0600  175.7600  137.2760 C   0  0  0  0  0  0  0  0  0  0  0  0
  194.0290  174.1100  137.0240 C   0  0  0  0  0  0  0  0  0  0  0  0
  187.4190  174.2900  137.2190 C   0  0  0  0  0  0  0  0  0  0  0  0
  189.8830  177.0020  137.1000 C   0  0  1  0  0  3  0  0  0  0  0  0
  185.2440  174.6640  136.1080 C   0  0  0  0  0  2  0  0  0  0  0  0
  193.4980  172.8190  137.0480 O   0  0  0  0  0  0  0  0  0  0  0  0
  188.5550  173.5820  137.2450 N   0  0  0  0  0  0  0  0  0  0  0  0
  187.9200  172.3350  134.5940 C   0  0  0  0  0  1  0  0  0  0  0  0
  186.6860  177.8320  137.7820 C   0  0  0  0  0  2  0  0  0  0  0  0
  185.2540  176.0660  136.7470 C   0  0  0  0  0  2  0  0  0  0  0  0
  188.6060  172.1480  136.9910 C   0  0  0  0  0  2  0  0  0  0  0  0
  193.3550  175.2010  137.7910 C   0  0  0  0  0  2  0  0  0  0  0  0
  191.9120  176.1810  136.1370 O   0  0  0  0  0  0  0  0  0  0  0  0
  186.6700  176.6700  136.8070 C   0  0  2  0  0  3  0  0  0  0  0  0
  189.5670  174.4750  137.2700 C   0  0  0  0  0  0  0  0  0  0  0  0
  186.1390  172.2800  136.3530 C   0  0  0  0  0  2  0  0  0  0  0  0
  189.4050  178.1870  137.9500 C   0  0  1  0  0  3  0  0  0  0  0  0
  187.4900  170.2610  135.8410 C   0  0  0  0  0  1  0  0  0  0  0  0
  191.9270  175.3920  137.3030 C   0  0  2  0  0  0  0  0  0  0  0  0
  195.0860  174.3480  136.3860 O   0  0  0  0  0  0  0  0  0  0  0  0
  191.0220  174.1460  137.1900 C   0  0  2  0  0  3  0  0  0  0  0  0
  187.9360  179.0630  137.2940 S   0  0  0  0  0  0  0  0  0  0  0  0
  188.2660  178.2570  140.1730 C   0  0  0  0  0  3  0  0  0  0  0  0
  189.4330  178.0110  139.4430 C   0  0  0  0  0  0  0  0  0  0  0  0
  190.5950  177.6060  140.1160 C   0  0  0  0  0  3  0  0  0  0  0  0
  192.0480  176.9550  142.3320 Cl  0  0  0  0  0  0  0  0  0  0  0  0
  189.4210  177.7050  142.2290 C   0  0  0  0  0  3  0  0  0  0  0  0
  190.5900  177.4550  141.5040 C   0  0  0  0  0  0  0  0  0  0  0  0
  188.2590  178.1060  141.5640 C   0  0  0  0  0  3  0  0  0  0  0  0
  194.2450  170.9870  135.0040 C   0  0  0  0  0  1  0  0  0  0  0  0
  193.1350  171.9990  134.7980 C   0  0  0  0  0  2  0  0  0  0  0  0
  1  4  1  0  0  0  0
  2 22  1  0  0  0  0
  2 17  1  0  0  0  0
  3  9  2  0  0  0  0
  3  7  1  0  0  0  0
  4 37  1  6  0  0  0
  4 12  1  0  0  0  0
  5 19  1  6  0  0  0
  5 25  1  0  0  0  0
  6 11  1  6  0  0  0
  6  9  1  0  0  0  0
  8 12  1  0  0  0  0
  8 18  1  0  0  0  0
  9 13  1  0  0  0  0
 10  7  1  1  0  0  0
 10  5  1  0  0  0  0
 10 23  1  0  0  0  0
 11 16  1  0  0  0  0
 13 21  1  0  0  0  0
 14  2  1  0  0  0  0
 17 13  1  0  0  0  0
 19 25  1  0  0  0  0
 20 16  1  1  0  0  0
 20  3  1  0  0  0  0
 20 15  1  0  0  0  0
 21  7  2  0  0  0  0
 22  6  1  0  0  0  0
 23 30  1  1  0  0  0
 24  2  1  0  0  0  0
 25 18  1  1  0  0  0
 26  8  2  0  0  0  0
 27  1  1  6  0  0  0
 27 21  1  0  0  0  0
 27 25  1  0  0  0  0
 28 15  1  0  0  0  0
 28 23  1  0  0  0  0
 29 35  1  0  0  0  0
 30 31  1  0  0  0  0
 30 29  2  0  0  0  0
 31 34  2  0  0  0  0
 34 33  1  0  0  0  0
 34 32  1  0  0  0  0
 35 33  2  0  0  0  0
 37 36  1  0  0  0  0
M  END
>  <MODEL>
6

>  <REMARK>
 VINA RESULT:      -6.4      4.463      8.772
  Name = 
  2 active torsions:
  status: ('A' for Active; 'I' for Inactive)
    1  A    between atoms: C_4  and  C_37
    2  A    between atoms: C_23  and  C_30
                            x       y       z     vdW  Elec       q    Type
                         _______ _______ _______ _____ _____    ______ ____

>  <TORSDO>
F 2

$$$$
=
 OpenBabel11122411323D

 37 44  0  0  1  0  0  0  0  0999 V2000
  182.6810  173.4360  136.4490 C   0  0  0  0  0  2  0  0  0  0  0  0
  186.6000  174.4960  135.6400 C   0  0  0  0  0  0  0  0  0  0  0  0
  184.5380  177.3560  137.6790 C   0  0  0  0  0  0  0  0  0  0  0  0
  182.0330  172.4780  135.4390 C   0  0  2  0  0  3  0  0  0  0  0  0
  180.8500  176.1860  138.0890 C   0  0  2  0  0  3  0  0  0  0  0  0
  186.7800  176.9430  136.5740 C   0  0  1  0  0  3  0  0  0  0  0  0
  183.2820  176.7780  137.5830 C   0  0  0  0  0  0  0  0  0  0  0  0
  179.7380  173.2620  135.9860 C   0  0  0  0  0  0  0  0  0  0  0  0
  185.3010  176.7680  136.7000 C   0  0  0  0  0  0  0  0  0  0  0  0
  182.1320  176.9110  138.5370 C   0  0  1  0  0  3  0  0  0  0  0  0
  187.3750  177.2840  137.9430 C   0  0  0  0  0  2  0  0  0  0  0  0
  180.7030  172.8530  135.0640 O   0  0  0  0  0  0  0  0  0  0  0  0
  184.5980  175.8450  136.0330 N   0  0  0  0  0  0  0  0  0  0  0  0
  186.4720  173.6780  136.9140 C   0  0  0  0  0  1  0  0  0  0  0  0
  184.3430  179.4060  139.0500 C   0  0  0  0  0  2  0  0  0  0  0  0
  186.6060  178.4640  138.5660 C   0  0  0  0  0  2  0  0  0  0  0  0
  185.2050  174.8810  135.1240 C   0  0  0  0  0  2  0  0  0  0  0  0
  179.6430  174.7030  136.3670 C   0  0  0  0  0  2  0  0  0  0  0  0
  181.0130  174.8070  138.3400 O   0  0  0  0  0  0  0  0  0  0  0  0
  185.1260  178.1250  138.8260 C   0  0  2  0  0  3  0  0  0  0  0  0
  183.3610  175.8370  136.5740 C   0  0  0  0  0  0  0  0  0  0  0  0
  187.4790  175.7380  135.9070 C   0  0  0  0  0  2  0  0  0  0  0  0
  181.8060  178.3620  138.9130 C   0  0  1  0  0  3  0  0  0  0  0  0
  187.2810  173.6400  134.5940 C   0  0  0  0  0  1  0  0  0  0  0  0
  180.9500  175.1780  136.9840 C   0  0  2  0  0  0  0  0  0  0  0  0
  178.9310  172.4270  136.4690 O   0  0  0  0  0  0  0  0  0  0  0  0
  182.2630  174.8850  136.2250 C   0  0  2  0  0  3  0  0  0  0  0  0
  182.9260  179.1080  140.1550 S   0  0  0  0  0  0  0  0  0  0  0  0
  181.1460  178.7320  136.5310 C   0  0  0  0  0  3  0  0  0  0  0  0
  181.3850  179.2780  137.7970 C   0  0  0  0  0  0  0  0  0  0  0  0
  181.2250  180.6560  137.9940 C   0  0  0  0  0  3  0  0  0  0  0  0
  180.6440  183.2000  137.1950 Cl  0  0  0  0  0  0  0  0  0  0  0  0
  180.6010  180.9300  135.6730 C   0  0  0  0  0  3  0  0  0  0  0  0
  180.8350  181.4810  136.9360 C   0  0  0  0  0  0  0  0  0  0  0  0
  180.7560  179.5560  135.4700 C   0  0  0  0  0  3  0  0  0  0  0  0
  183.4240  170.7010  136.5040 C   0  0  0  0  0  1  0  0  0  0  0  0
  182.0480  171.0530  135.9710 C   0  0  0  0  0  2  0  0  0  0  0  0
  2 22  1  0  0  0  0
  2 14  1  0  0  0  0
  3 20  1  0  0  0  0
  4 37  1  1  0  0  0
  4  1  1  0  0  0  0
  5 19  1  1  0  0  0
  5 10  1  0  0  0  0
  6 22  1  1  0  0  0
  6  9  1  0  0  0  0
  6 11  1  0  0  0  0
  7  3  1  0  0  0  0
  8 18  1  0  0  0  0
  8 26  2  0  0  0  0
  9  3  2  0  0  0  0
 10  7  1  6  0  0  0
 10 23  1  0  0  0  0
 11 16  1  0  0  0  0
 12  4  1  0  0  0  0
 12  8  1  0  0  0  0
 13 21  1  0  0  0  0
 13  9  1  0  0  0  0
 15 28  1  0  0  0  0
 17  2  1  0  0  0  0
 17 13  1  0  0  0  0
 20 16  1  6  0  0  0
 20 15  1  0  0  0  0
 21  7  2  0  0  0  0
 23 30  1  6  0  0  0
 23 28  1  0  0  0  0
 24  2  1  0  0  0  0
 25 18  1  6  0  0  0
 25  5  1  0  0  0  0
 25 19  1  0  0  0  0
 27  1  1  1  0  0  0
 27 21  1  0  0  0  0
 27 25  1  0  0  0  0
 29 30  1  0  0  0  0
 30 31  2  0  0  0  0
 33 34  2  0  0  0  0
 34 32  1  0  0  0  0
 34 31  1  0  0  0  0
 35 33  1  0  0  0  0
 35 29  2  0  0  0  0
 37 36  1  0  0  0  0
M  END
>  <MODEL>
7

>  <REMARK>
 VINA RESULT:      -5.9      5.242      8.375
  Name = 
  2 active torsions:
  status: ('A' for Active; 'I' for Inactive)
    1  A    between atoms: C_4  and  C_37
    2  A    between atoms: C_23  and  C_30
                            x       y       z     vdW  Elec       q    Type
                         _______ _______ _______ _____ _____    ______ ____

>  <TORSDO>
F 2

$$$$
=
 OpenBabel11122411323D

 37 44  0  0  1  0  0  0  0  0999 V2000
  185.8720  175.0080  136.1450 C   0  0  0  0  0  2  0  0  0  0  0  0
  182.9050  172.1400  136.4660 C   0  0  0  0  0  0  0  0  0  0  0  0
  181.7170  175.8400  137.6850 C   0  0  0  0  0  0  0  0  0  0  0  0
  187.3110  174.4890  136.2800 C   0  0  2  0  0  3  0  0  0  0  0  0
  184.7590  178.2580  137.4910 C   0  0  2  0  0  3  0  0  0  0  0  0
  180.9060  173.4430  137.5600 C   0  0  1  0  0  3  0  0  0  0  0  0
  182.9590  176.4520  137.6440 C   0  0  0  0  0  0  0  0  0  0  0  0
  188.1620  176.6950  137.0490 C   0  0  0  0  0  0  0  0  0  0  0  0
  181.9620  174.4880  137.7170 C   0  0  0  0  0  0  0  0  0  0  0  0
  183.2640  177.9000  137.3990 C   0  0  1  0  0  3  0  0  0  0  0  0
  179.7310  174.0160  136.7620 C   0  0  0  0  0  2  0  0  0  0  0  0
  188.1370  175.3010  137.1220 O   0  0  0  0  0  0  0  0  0  0  0  0
  183.2750  174.2380  137.6670 N   0  0  0  0  0  0  0  0  0  0  0  0
  182.9660  172.7580  135.0780 C   0  0  0  0  0  1  0  0  0  0  0  0
  180.0340  177.5450  138.3020 C   0  0  0  0  0  2  0  0  0  0  0  0
  179.2750  175.3480  137.3870 C   0  0  0  0  0  2  0  0  0  0  0  0
  183.8260  172.9110  137.4220 C   0  0  0  0  0  2  0  0  0  0  0  0
  187.1890  177.4950  137.8540 C   0  0  0  0  0  2  0  0  0  0  0  0
  185.3870  177.8330  136.3000 O   0  0  0  0  0  0  0  0  0  0  0  0
  180.3780  176.4230  137.3400 C   0  0  2  0  0  3  0  0  0  0  0  0
  183.8950  175.4360  137.6120 C   0  0  0  0  0  0  0  0  0  0  0  0
  181.4420  172.1240  136.9620 C   0  0  0  0  0  2  0  0  0  0  0  0
  182.4450  178.8610  138.2720 C   0  0  1  0  0  3  0  0  0  0  0  0
  183.3960  170.7120  136.3700 C   0  0  0  0  0  1  0  0  0  0  0  0
  185.7610  177.1430  137.4680 C   0  0  2  0  0  0  0  0  0  0  0  0
  189.0190  177.2760  136.3350 O   0  0  0  0  0  0  0  0  0  0  0  0
  185.3620  175.6510  137.4310 C   0  0  2  0  0  3  0  0  0  0  0  0
  180.7200  179.1270  137.7160 S   0  0  0  0  0  0  0  0  0  0  0  0
  181.5220  178.9440  140.5930 C   0  0  0  0  0  3  0  0  0  0  0  0
  182.6310  178.7570  139.7600 C   0  0  0  0  0  0  0  0  0  0  0  0
  183.8820  178.4780  140.3290 C   0  0  0  0  0  3  0  0  0  0  0  0
  185.5880  178.0470  142.4140 Cl  0  0  0  0  0  0  0  0  0  0  0  0
  182.9110  178.5820  142.5430 C   0  0  0  0  0  3  0  0  0  0  0  0
  184.0220  178.3910  141.7160 C   0  0  0  0  0  0  0  0  0  0  0  0
  181.6610  178.8570  141.9820 C   0  0  0  0  0  3  0  0  0  0  0  0
  189.3590  173.7810  135.0440 C   0  0  0  0  0  1  0  0  0  0  0  0
  187.9510  174.3300  134.9110 C   0  0  0  0  0  2  0  0  0  0  0  0
  1  4  1  0  0  0  0
  2 22  1  0  0  0  0
  2 17  1  0  0  0  0
  3  9  2  0  0  0  0
  4 37  1  6  0  0  0
  4 12  1  0  0  0  0
  5 19  1  6  0  0  0
  6 11  1  6  0  0  0
  6  9  1  0  0  0  0
  7  3  1  0  0  0  0
  8 12  1  0  0  0  0
  8 18  1  0  0  0  0
 10  5  1  0  0  0  0
 10  7  1  1  0  0  0
 10 23  1  0  0  0  0
 11 16  1  0  0  0  0
 13  9  1  0  0  0  0
 14  2  1  0  0  0  0
 17 13  1  0  0  0  0
 19 25  1  0  0  0  0
 20 16  1  1  0  0  0
 20  3  1  0  0  0  0
 20 15  1  0  0  0  0
 21  7  2  0  0  0  0
 21 13  1  0  0  0  0
 22  6  1  0  0  0  0
 23 30  1  1  0  0  0
 24  2  1  0  0  0  0
 25  5  1  0  0  0  0
 25 18  1  1  0  0  0
 26  8  2  0  0  0  0
 27  1  1  6  0  0  0
 27 25  1  0  0  0  0
 27 21  1  0  0  0  0
 28 23  1  0  0  0  0
 28 15  1  0  0  0  0
 29 35  1  0  0  0  0
 30 31  1  0  0  0  0
 30 29  2  0  0  0  0
 31 34  2  0  0  0  0
 34 32  1  0  0  0  0
 34 33  1  0  0  0  0
 35 33  2  0  0  0  0
 37 36  1  0  0  0  0
M  END
>  <MODEL>
8

>  <REMARK>
 VINA RESULT:      -5.9      4.621      8.816
  Name = 
  2 active torsions:
  status: ('A' for Active; 'I' for Inactive)
    1  A    between atoms: C_4  and  C_37
    2  A    between atoms: C_23  and  C_30
                            x       y       z     vdW  Elec       q    Type
                         _______ _______ _______ _____ _____    ______ ____

>  <TORSDO>
F 2

$$$$
=
 OpenBabel11122411323D

 37 44  0  0  1  0  0  0  0  0999 V2000
  190.5950  174.2610  136.2290 C   0  0  0  0  0  2  0  0  0  0  0  0
  187.2230  171.8830  135.8970 C   0  0  0  0  0  0  0  0  0  0  0  0
  186.4320  175.6260  137.2960 C   0  0  0  0  0  0  0  0  0  0  0  0
  191.9080  173.5130  136.4980 C   0  0  2  0  0  3  0  0  0  0  0  0
  189.7940  177.5390  137.7200 C   0  0  2  0  0  3  0  0  0  0  0  0
  185.3040  173.4040  136.8440 C   0  0  1  0  0  3  0  0  0  0  0  0
  187.7440  176.0350  137.4720 C   0  0  0  0  0  0  0  0  0  0  0  0
  192.9570  175.4940  137.5720 C   0  0  0  0  0  0  0  0  0  0  0  0
  186.4690  174.2540  137.2330 C   0  0  0  0  0  0  0  0  0  0  0  0
  188.2900  177.4310  137.4050 C   0  0  1  0  0  3  0  0  0  0  0  0
  184.3500  174.2120  135.9600 C   0  0  0  0  0  2  0  0  0  0  0  0
  192.7180  174.1200  137.5100 O   0  0  0  0  0  0  0  0  0  0  0  0
  187.7250  173.8030  137.3280 N   0  0  0  0  0  0  0  0  0  0  0  0
  187.5690  172.5840  134.5940 C   0  0  0  0  0  1  0  0  0  0  0  0
  184.9480  177.5260  137.8510 C   0  0  0  0  0  2  0  0  0  0  0  0
  184.0110  175.5500  136.6440 C   0  0  0  0  0  2  0  0  0  0  0  0
  188.1030  172.4270  137.0320 C   0  0  0  0  0  2  0  0  0  0  0  0
  192.0100  176.3770  138.3180 C   0  0  0  0  0  2  0  0  0  0  0  0
  190.5130  177.1090  136.5840 O   0  0  0  0  0  0  0  0  0  0  0  0
  185.2550  176.4370  136.8390 C   0  0  2  0  0  3  0  0  0  0  0  0
  188.5160  174.8890  137.4650 C   0  0  0  0  0  0  0  0  0  0  0  0
  185.7180  172.0640  136.1990 C   0  0  0  0  0  2  0  0  0  0  0  0
  187.5070  178.4420  138.2520 C   0  0  1  0  0  3  0  0  0  0  0  0
  187.5070  170.4060  135.7320 C   0  0  0  0  0  1  0  0  0  0  0  0
  190.6140  176.2840  137.7210 C   0  0  2  0  0  0  0  0  0  0  0  0
  193.9820  175.9830  137.0310 O   0  0  0  0  0  0  0  0  0  0  0  0
  190.0090  174.8810  137.4930 C   0  0  2  0  0  3  0  0  0  0  0  0
  185.9350  179.0180  137.5070 S   0  0  0  0  0  0  0  0  0  0  0  0
  188.4420  177.3860  140.3150 C   0  0  0  0  0  3  0  0  0  0  0  0
  187.4640  178.2020  139.7360 C   0  0  0  0  0  0  0  0  0  0  0  0
  186.4740  178.7740  140.5470 C   0  0  0  0  0  3  0  0  0  0  0  0
  185.2170  179.2450  142.9230 Cl  0  0  0  0  0  0  0  0  0  0  0  0
  187.4390  177.7110  142.4950 C   0  0  0  0  0  3  0  0  0  0  0  0
  186.4610  178.5290  141.9220 C   0  0  0  0  0  0  0  0  0  0  0  0
  188.4300  177.1400  141.6920 C   0  0  0  0  0  3  0  0  0  0  0  0
  193.4410  172.0290  135.2040 C   0  0  0  0  0  1  0  0  0  0  0  0
  192.7040  173.3550  135.2120 C   0  0  0  0  0  2  0  0  0  0  0  0
  1  4  1  0  0  0  0
  2 22  1  0  0  0  0
  2 17  1  0  0  0  0
  3  7  1  0  0  0  0
  4 37  1  6  0  0  0
  4 12  1  0  0  0  0
  5 19  1  6  0  0  0
  5 25  1  0  0  0  0
  6 11  1  6  0  0  0
  6  9  1  0  0  0  0
  8 18  1  0  0  0  0
  9  3  2  0  0  0  0
  9 13  1  0  0  0  0
 10  7  1  1  0  0  0
 10  5  1  0  0  0  0
 10 23  1  0  0  0  0
 11 16  1  0  0  0  0
 12  8  1  0  0  0  0
 13 21  1  0  0  0  0
 14  2  1  0  0  0  0
 17 13  1  0  0  0  0
 19 25  1  0  0  0  0
 20 16  1  1  0  0  0
 20  3  1  0  0  0  0
 20 15  1  0  0  0  0
 21  7  2  0  0  0  0
 21 27  1  0  0  0  0
 22  6  1  0  0  0  0
 23 30  1  1  0  0  0
 24  2  1  0  0  0  0
 25 18  1  1  0  0  0
 26  8  2  0  0  0  0
 27  1  1  6  0  0  0
 27 25  1  0  0  0  0
 28 15  1  0  0  0  0
 28 23  1  0  0  0  0
 29 35  1  0  0  0  0
 30 29  2  0  0  0  0
 30 31  1  0  0  0  0
 31 34  2  0  0  0  0
 34 33  1  0  0  0  0
 34 32  1  0  0  0  0
 35 33  2  0  0  0  0
 36 37  1  0  0  0  0
M  END
>  <MODEL>
9

>  <REMARK>
 VINA RESULT:      -5.7      3.931      8.346
  Name = 
  2 active torsions:
  status: ('A' for Active; 'I' for Inactive)
    1  A    between atoms: C_4  and  C_37
    2  A    between atoms: C_23  and  C_30
                            x       y       z     vdW  Elec       q    Type
                         _______ _______ _______ _____ _____    ______ ____

>  <TORSDO>
F 2

$$$$
