=
 OpenBabel11122412003D

 28 32  0  0  1  0  0  0  0  0999 V2000
  181.3230  179.1530  140.4760 C   0  0  0  0  0  0  0  0  0  0  0  0
  180.9740  176.1630  138.5860 O   0  0  0  0  0  1  0  0  0  0  0  0
  186.8860  178.5140  138.6570 O   0  0  0  0  0  0  0  0  0  0  0  0
  179.7740  181.1210  139.2170 C   0  0  0  0  0  3  0  0  0  0  0  0
  185.3570  177.1010  137.5510 N   0  0  0  0  0  0  0  0  0  0  0  0
  182.0940  178.1940  141.1340 O   0  0  0  0  0  0  0  0  0  0  0  0
  179.4000  177.5450  137.4760 C   0  0  0  0  0  1  0  0  0  0  0  0
  180.7210  176.8070  137.3720 C   0  0  1  0  0  0  0  0  0  0  0  0
  181.7250  175.2860  135.6350 C   0  0  0  0  0  0  0  0  0  0  0  0
  181.8620  177.7990  137.0110 C   0  0  2  0  0  3  0  0  0  0  0  0
  185.3420  178.8840  142.8460 C   0  0  0  0  0  1  0  0  0  0  0  0
  183.4560  177.7150  138.8660 C   0  0  1  0  0  3  0  0  0  0  0  0
  182.8760  175.8780  135.7210 N   0  0  0  0  0  0  0  0  0  0  0  0
  180.5890  175.8000  136.3280 N   0  0  0  0  0  2  0  0  0  0  0  0
  184.4290  178.4430  141.7220 C   0  0  2  0  0  3  0  0  0  0  0  0
  181.4200  179.3340  139.0750 C   0  0  0  0  0  0  0  0  0  0  0  0
  185.7120  178.0830  138.5000 C   0  0  0  0  0  0  0  0  0  0  0  0
  181.5450  173.8920  134.5940 Cl  0  0  0  0  0  0  0  0  0  0  0  0
  184.6940  179.3060  140.4910 C   0  0  0  0  0  2  0  0  0  0  0  0
  180.6480  180.3340  138.4670 C   0  0  0  0  0  3  0  0  0  0  0  0
  180.4500  179.9560  141.2230 C   0  0  0  0  0  3  0  0  0  0  0  0
  179.6740  180.9320  140.5950 C   0  0  0  0  0  3  0  0  0  0  0  0
  182.9790  178.5600  142.1830 C   0  0  0  0  0  2  0  0  0  0  0  0
  183.9570  176.7530  137.7640 C   0  0  1  0  0  3  0  0  0  0  0  0
  184.6120  178.5050  139.2750 N   0  0  0  0  0  0  0  0  0  0  0  0
  183.1270  177.0750  136.5260 C   0  0  2  0  0  3  0  0  0  0  0  0
  186.3000  176.2830  136.8080 C   0  0  0  0  0  1  0  0  0  0  0  0
  182.4110  178.5990  138.1970 C   0  0  2  0  0  3  0  0  0  0  0  0
  1  6  1  0  0  0  0
  1 21  1  0  0  0  0
  4 22  1  0  0  0  0
  5 24  1  0  0  0  0
  5 17  1  0  0  0  0
  6 23  1  0  0  0  0
  8  7  1  1  0  0  0
  8  2  1  0  0  0  0
  9 13  2  0  0  0  0
  9 14  1  0  0  0  0
 10  8  1  0  0  0  0
 10 28  1  0  0  0  0
 12 25  1  0  0  0  0
 13 26  1  0  0  0  0
 14  8  1  0  0  0  0
 15 23  1  0  0  0  0
 15 11  1  0  0  0  0
 16  1  2  0  0  0  0
 17  3  2  0  0  0  0
 17 25  1  0  0  0  0
 18  9  1  0  0  0  0
 19 15  1  0  0  0  0
 20 16  1  0  0  0  0
 20  4  2  0  0  0  0
 22 21  2  0  0  0  0
 24 12  1  0  0  0  0
 25 19  1  0  0  0  0
 26 10  1  0  0  0  0
 26 24  1  0  0  0  0
 27  5  1  0  0  0  0
 28 12  1  0  0  0  0
 28 16  1  0  0  0  0
M  END
>  <MODEL>
1

>  <REMARK>
 VINA RESULT:      -5.8      0.000      0.000
  Name = 
  0 active torsions:
  status: ('A' for Active; 'I' for Inactive)
                            x       y       z     vdW  Elec       q    Type
                         _______ _______ _______ _____ _____    ______ ____

>  <TORSDO>
F 0

$$$$
=
 OpenBabel11122412003D

 28 32  0  0  1  0  0  0  0  0999 V2000
  190.0090  177.2970  144.4740 C   0  0  0  0  0  0  0  0  0  0  0  0
  188.2240  179.3240  142.1630 O   0  0  0  0  0  1  0  0  0  0  0  0
  184.8160  177.5530  147.2360 O   0  0  0  0  0  0  0  0  0  0  0  0
  190.6540  174.9050  143.1600 C   0  0  0  0  0  3  0  0  0  0  0  0
  184.7510  178.3440  145.0160 N   0  0  0  0  0  0  0  0  0  0  0  0
  189.7150  178.4800  145.1520 O   0  0  0  0  0  0  0  0  0  0  0  0
  188.8490  177.5290  140.7480 C   0  0  0  0  0  1  0  0  0  0  0  0
  187.7050  178.2550  141.4280 C   0  0  1  0  0  0  0  0  0  0  0  0
  185.4560  179.0680  140.6430 C   0  0  0  0  0  0  0  0  0  0  0  0
  186.9150  177.2740  142.3400 C   0  0  2  0  0  3  0  0  0  0  0  0
  188.8620  178.6950  148.7830 C   0  0  0  0  0  1  0  0  0  0  0  0
  187.1010  178.1530  144.6160 C   0  0  1  0  0  3  0  0  0  0  0  0
  184.8750  178.6260  141.7140 N   0  0  0  0  0  0  0  0  0  0  0  0
  186.8310  178.7830  140.3900 N   0  0  0  0  0  2  0  0  0  0  0  0
  188.5970  178.6190  147.2950 C   0  0  2  0  0  3  0  0  0  0  0  0
  189.0130  176.6070  143.7410 C   0  0  0  0  0  0  0  0  0  0  0  0
  185.4020  177.8170  146.1520 C   0  0  0  0  0  0  0  0  0  0  0  0
  184.5240  179.9520  139.4550 Cl  0  0  0  0  0  0  0  0  0  0  0  0
  187.7670  177.3740  146.9940 C   0  0  0  0  0  2  0  0  0  0  0  0
  189.3520  175.4050  143.1040 C   0  0  0  0  0  3  0  0  0  0  0  0
  191.3110  176.7820  144.5340 C   0  0  0  0  0  3  0  0  0  0  0  0
  191.6340  175.5940  143.8750 C   0  0  0  0  0  3  0  0  0  0  0  0
  189.9300  178.5940  146.5530 C   0  0  0  0  0  2  0  0  0  0  0  0
  185.7670  178.6570  144.0180 C   0  0  1  0  0  3  0  0  0  0  0  0
  186.7870  177.6510  145.9490 N   0  0  0  0  0  0  0  0  0  0  0  0
  185.5470  177.8400  142.7500 C   0  0  2  0  0  3  0  0  0  0  0  0
  183.4000  178.8790  145.0050 C   0  0  0  0  0  1  0  0  0  0  0  0
  187.5560  177.0180  143.7070 C   0  0  2  0  0  3  0  0  0  0  0  0
  1 21  1  0  0  0  0
  1  6  1  0  0  0  0
  4 22  1  0  0  0  0
  5 17  1  0  0  0  0
  6 23  1  0  0  0  0
  8  7  1  6  0  0  0
  8  2  1  0  0  0  0
  8 10  1  0  0  0  0
  9 13  2  0  0  0  0
 10 26  1  0  0  0  0
 10 28  1  0  0  0  0
 12 25  1  0  0  0  0
 13 26  1  0  0  0  0
 14  9  1  0  0  0  0
 14  8  1  0  0  0  0
 15 11  1  0  0  0  0
 16  1  2  0  0  0  0
 17  3  2  0  0  0  0
 18  9  1  0  0  0  0
 19 15  1  0  0  0  0
 20  4  2  0  0  0  0
 20 16  1  0  0  0  0
 22 21  2  0  0  0  0
 23 15  1  0  0  0  0
 24 12  1  0  0  0  0
 24  5  1  0  0  0  0
 25 17  1  0  0  0  0
 25 19  1  0  0  0  0
 26 24  1  0  0  0  0
 27  5  1  0  0  0  0
 28 16  1  0  0  0  0
 28 12  1  0  0  0  0
M  END
>  <MODEL>
2

>  <REMARK>
 VINA RESULT:      -5.6      5.210      8.755
  Name = 
  0 active torsions:
  status: ('A' for Active; 'I' for Inactive)
                            x       y       z     vdW  Elec       q    Type
                         _______ _______ _______ _____ _____    ______ ____

>  <TORSDO>
F 0

$$$$
=
 OpenBabel11122412003D

 28 32  0  0  1  0  0  0  0  0999 V2000
  189.4710  177.5600  137.8540 C   0  0  0  0  0  0  0  0  0  0  0  0
  192.6830  176.7580  136.5620 O   0  0  0  0  0  1  0  0  0  0  0  0
  188.1960  172.4530  135.2170 O   0  0  0  0  0  0  0  0  0  0  0  0
  189.6710  177.5510  140.6500 C   0  0  0  0  0  3  0  0  0  0  0  0
  190.5080  172.8740  135.4030 N   0  0  0  0  0  0  0  0  0  0  0  0
  189.3400  177.5840  136.4650 O   0  0  0  0  0  0  0  0  0  0  0  0
  193.1930  176.9300  138.8700 C   0  0  0  0  0  1  0  0  0  0  0  0
  193.0850  176.0090  137.6710 C   0  0  1  0  0  0  0  0  0  0  0  0
  194.5830  174.2260  136.7130 C   0  0  0  0  0  0  0  0  0  0  0  0
  192.0820  174.8580  137.9670 C   0  0  2  0  0  3  0  0  0  0  0  0
  186.3060  176.4670  134.5940 C   0  0  0  0  0  1  0  0  0  0  0  0
  190.2860  175.0720  136.3190 C   0  0  1  0  0  3  0  0  0  0  0  0
  193.5810  173.4260  136.5230 N   0  0  0  0  0  0  0  0  0  0  0  0
  194.4080  175.4600  137.4090 N   0  0  0  0  0  2  0  0  0  0  0  0
  187.6900  176.3490  135.1960 C   0  0  2  0  0  3  0  0  0  0  0  0
  190.1110  176.4800  138.5100 C   0  0  0  0  0  0  0  0  0  0  0  0
  189.1460  173.2030  135.5690 C   0  0  0  0  0  0  0  0  0  0  0  0
  196.1820  173.7510  136.1840 Cl  0  0  0  0  0  0  0  0  0  0  0  0
  187.7030  175.2050  136.2070 C   0  0  0  0  0  2  0  0  0  0  0  0
  190.1870  176.4870  139.9090 C   0  0  0  0  0  3  0  0  0  0  0  0
  188.9470  178.6190  138.6070 C   0  0  0  0  0  3  0  0  0  0  0  0
  189.0510  178.6180  139.9990 C   0  0  0  0  0  3  0  0  0  0  0  0
  188.0620  177.6760  135.8510 C   0  0  0  0  0  2  0  0  0  0  0  0
  191.3020  174.0360  135.7850 C   0  0  1  0  0  3  0  0  0  0  0  0
  188.9660  174.4780  136.1430 N   0  0  0  0  0  0  0  0  0  0  0  0
  192.2120  173.7030  136.9630 C   0  0  2  0  0  3  0  0  0  0  0  0
  191.0060  171.7700  134.6000 C   0  0  0  0  0  1  0  0  0  0  0  0
  190.6080  175.2380  137.7990 C   0  0  2  0  0  3  0  0  0  0  0  0
  1 16  2  0  0  0  0
  1 21  1  0  0  0  0
  2  8  1  0  0  0  0
  3 17  2  0  0  0  0
  5 17  1  0  0  0  0
  5 24  1  0  0  0  0
  6  1  1  0  0  0  0
  8 10  1  0  0  0  0
  8  7  1  1  0  0  0
  9 14  1  0  0  0  0
 11 15  1  0  0  0  0
 12 28  1  0  0  0  0
 13  9  2  0  0  0  0
 13 26  1  0  0  0  0
 14  8  1  0  0  0  0
 15 23  1  0  0  0  0
 15 19  1  0  0  0  0
 16 20  1  0  0  0  0
 17 25  1  0  0  0  0
 18  9  1  0  0  0  0
 20  4  2  0  0  0  0
 21 22  2  0  0  0  0
 22  4  1  0  0  0  0
 23  6  1  0  0  0  0
 24 12  1  0  0  0  0
 24 26  1  0  0  0  0
 25 19  1  0  0  0  0
 25 12  1  0  0  0  0
 26 10  1  0  0  0  0
 27  5  1  0  0  0  0
 28 10  1  0  0  0  0
 28 16  1  0  0  0  0
M  END
>  <MODEL>
3

>  <REMARK>
 VINA RESULT:      -5.6      6.939      9.832
  Name = 
  0 active torsions:
  status: ('A' for Active; 'I' for Inactive)
                            x       y       z     vdW  Elec       q    Type
                         _______ _______ _______ _____ _____    ______ ____

>  <TORSDO>
F 0

$$$$
=
 OpenBabel11122412003D

 28 32  0  0  1  0  0  0  0  0999 V2000
  186.0290  177.8900  143.7930 C   0  0  0  0  0  0  0  0  0  0  0  0
  183.7630  176.9380  141.2250 O   0  0  0  0  0  1  0  0  0  0  0  0
  189.4310  178.8930  139.0940 O   0  0  0  0  0  0  0  0  0  0  0  0
  184.9310  180.1200  145.0890 C   0  0  0  0  0  3  0  0  0  0  0  0
  187.1630  178.5250  138.5630 N   0  0  0  0  0  0  0  0  0  0  0  0
  186.5970  176.7740  143.1780 O   0  0  0  0  0  0  0  0  0  0  0  0
  182.4970  178.6340  142.2910 C   0  0  0  0  0  1  0  0  0  0  0  0
  183.2380  178.2190  141.0350 C   0  0  1  0  0  0  0  0  0  0  0  0
  182.6790  178.3100  138.5820 C   0  0  0  0  0  0  0  0  0  0  0  0
  184.3590  179.2460  140.7100 C   0  0  2  0  0  3  0  0  0  0  0  0
  190.2590  176.2780  142.6350 C   0  0  0  0  0  1  0  0  0  0  0  0
  186.4680  178.0070  140.7930 C   0  0  1  0  0  3  0  0  0  0  0  0
  183.8650  178.7410  138.2840 N   0  0  0  0  0  0  0  0  0  0  0  0
  182.2750  178.1720  139.9440 N   0  0  0  0  0  2  0  0  0  0  0  0
  188.8410  176.6680  142.2770 C   0  0  2  0  0  3  0  0  0  0  0  0
  185.5260  178.9710  143.0280 C   0  0  0  0  0  0  0  0  0  0  0  0
  188.2530  178.6280  139.4550 C   0  0  0  0  0  0  0  0  0  0  0  0
  181.5350  177.9720  137.3020 Cl  0  0  0  0  0  0  0  0  0  0  0  0
  188.8070  178.1450  141.8950 C   0  0  0  0  0  2  0  0  0  0  0  0
  184.9950  180.0830  143.6950 C   0  0  0  0  0  3  0  0  0  0  0  0
  185.9690  177.9410  145.1920 C   0  0  0  0  0  3  0  0  0  0  0  0
  185.4170  179.0490  145.8380 C   0  0  0  0  0  3  0  0  0  0  0  0
  187.9300  176.3780  143.4670 C   0  0  0  0  0  2  0  0  0  0  0  0
  186.0050  178.0610  139.3180 C   0  0  1  0  0  3  0  0  0  0  0  0
  187.8820  178.3680  140.7900 N   0  0  0  0  0  0  0  0  0  0  0  0
  184.8840  179.0950  139.2750 C   0  0  2  0  0  3  0  0  0  0  0  0
  187.2750  178.4630  137.1160 C   0  0  0  0  0  1  0  0  0  0  0  0
  185.6460  179.0630  141.5210 C   0  0  2  0  0  3  0  0  0  0  0  0
  1 21  1  0  0  0  0
  3 17  2  0  0  0  0
  4 22  1  0  0  0  0
  5 24  1  0  0  0  0
  5 17  1  0  0  0  0
  6 23  1  0  0  0  0
  6  1  1  0  0  0  0
  8  2  1  0  0  0  0
  8  7  1  1  0  0  0
  9 14  1  0  0  0  0
 10  8  1  0  0  0  0
 10 28  1  0  0  0  0
 12 28  1  0  0  0  0
 13  9  2  0  0  0  0
 13 26  1  0  0  0  0
 14  8  1  0  0  0  0
 15 11  1  0  0  0  0
 15 23  1  0  0  0  0
 16 20  1  0  0  0  0
 16  1  2  0  0  0  0
 17 25  1  0  0  0  0
 18  9  1  0  0  0  0
 19 15  1  0  0  0  0
 20  4  2  0  0  0  0
 21 22  2  0  0  0  0
 24 12  1  0  0  0  0
 25 12  1  0  0  0  0
 25 19  1  0  0  0  0
 26 24  1  0  0  0  0
 26 10  1  0  0  0  0
 27  5  1  0  0  0  0
 28 16  1  0  0  0  0
M  END
>  <MODEL>
4

>  <REMARK>
 VINA RESULT:      -5.6      2.763      4.971
  Name = 
  0 active torsions:
  status: ('A' for Active; 'I' for Inactive)
                            x       y       z     vdW  Elec       q    Type
                         _______ _______ _______ _____ _____    ______ ____

>  <TORSDO>
F 0

$$$$
=
 OpenBabel11122412003D

 28 32  0  0  1  0  0  0  0  0999 V2000
  187.1000  175.1860  136.1210 C   0  0  0  0  0  0  0  0  0  0  0  0
  183.9410  175.7660  134.5990 O   0  0  0  0  0  1  0  0  0  0  0  0
  185.1140  179.4710  139.6370 O   0  0  0  0  0  0  0  0  0  0  0  0
  187.0700  172.5710  137.1330 C   0  0  0  0  0  3  0  0  0  0  0  0
  183.4630  178.5650  138.2180 N   0  0  0  0  0  0  0  0  0  0  0  0
  187.1520  176.4860  135.6190 O   0  0  0  0  0  0  0  0  0  0  0  0
  183.7350  173.4640  135.1220 C   0  0  0  0  0  1  0  0  0  0  0  0
  183.2400  174.8680  135.4090 C   0  0  1  0  0  0  0  0  0  0  0  0
  180.9500  175.8860  135.6390 C   0  0  0  0  0  0  0  0  0  0  0  0
  183.4260  175.2050  136.9160 C   0  0  2  0  0  3  0  0  0  0  0  0
  188.9150  179.3360  137.2710 C   0  0  0  0  0  1  0  0  0  0  0  0
  184.9400  177.1250  137.0080 C   0  0  1  0  0  3  0  0  0  0  0  0
  181.3090  176.5640  136.6840 N   0  0  0  0  0  0  0  0  0  0  0  0
  181.8290  174.9250  135.0570 N   0  0  0  0  0  2  0  0  0  0  0  0
  187.7420  178.4550  136.8990 C   0  0  2  0  0  3  0  0  0  0  0  0
  185.9930  174.7400  136.8850 C   0  0  0  0  0  0  0  0  0  0  0  0
  184.7780  178.6730  138.7220 C   0  0  0  0  0  0  0  0  0  0  0  0
  179.3400  176.0930  134.9850 Cl  0  0  0  0  0  0  0  0  0  0  0  0
  187.1320  177.8670  138.1690 C   0  0  0  0  0  2  0  0  0  0  0  0
  186.0050  173.4340  137.3950 C   0  0  0  0  0  3  0  0  0  0  0  0
  188.1700  174.3150  135.8730 C   0  0  0  0  0  3  0  0  0  0  0  0
  188.1530  173.0120  136.3720 C   0  0  0  0  0  3  0  0  0  0  0  0
  188.2230  177.3580  135.9530 C   0  0  0  0  0  2  0  0  0  0  0  0
  183.4900  177.6580  137.0770 C   0  0  1  0  0  3  0  0  0  0  0  0
  185.6780  177.8120  138.0620 N   0  0  0  0  0  0  0  0  0  0  0  0
  182.6130  176.4380  137.3380 C   0  0  2  0  0  3  0  0  0  0  0  0
  182.3870  179.5010  138.4950 C   0  0  0  0  0  1  0  0  0  0  0  0
  184.8440  175.6330  137.3040 C   0  0  2  0  0  3  0  0  0  0  0  0
  1 16  1  0  0  0  0
  2  8  1  0  0  0  0
  4 20  1  0  0  0  0
  5 27  1  0  0  0  0
  5 17  1  0  0  0  0
  6 23  1  0  0  0  0
  6  1  1  0  0  0  0
  8  7  1  6  0  0  0
  8 10  1  0  0  0  0
  9 13  2  0  0  0  0
 10 28  1  0  0  0  0
 10 26  1  0  0  0  0
 12 24  1  0  0  0  0
 12 28  1  0  0  0  0
 12 25  1  0  0  0  0
 13 26  1  0  0  0  0
 14  8  1  0  0  0  0
 14  9  1  0  0  0  0
 15 11  1  0  0  0  0
 15 19  1  0  0  0  0
 16 28  1  0  0  0  0
 16 20  2  0  0  0  0
 17  3  2  0  0  0  0
 18  9  1  0  0  0  0
 21  1  2  0  0  0  0
 21 22  1  0  0  0  0
 22  4  2  0  0  0  0
 23 15  1  0  0  0  0
 24 26  1  0  0  0  0
 24  5  1  0  0  0  0
 25 19  1  0  0  0  0
 25 17  1  0  0  0  0
M  END
>  <MODEL>
5

>  <REMARK>
 VINA RESULT:      -5.6      2.501      5.946
  Name = 
  0 active torsions:
  status: ('A' for Active; 'I' for Inactive)
                            x       y       z     vdW  Elec       q    Type
                         _______ _______ _______ _____ _____    ______ ____

>  <TORSDO>
F 0

$$$$
=
 OpenBabel11122412003D

 28 32  0  0  1  0  0  0  0  0999 V2000
  191.1790  175.9980  138.9420 C   0  0  0  0  0  0  0  0  0  0  0  0
  189.6850  175.5550  142.1360 O   0  0  0  0  0  1  0  0  0  0  0  0
  186.2350  179.0880  138.1250 O   0  0  0  0  0  0  0  0  0  0  0  0
  193.5520  177.4420  139.3240 C   0  0  0  0  0  3  0  0  0  0  0  0
  186.6350  178.5140  140.3770 N   0  0  0  0  0  0  0  0  0  0  0  0
  190.0110  175.2690  138.7190 O   0  0  0  0  0  0  0  0  0  0  0  0
  191.7410  176.5480  142.7720 C   0  0  0  0  0  1  0  0  0  0  0  0
  190.2360  176.7100  142.6980 C   0  0  1  0  0  0  0  0  0  0  0  0
  188.4950  177.5020  144.3340 C   0  0  0  0  0  0  0  0  0  0  0  0
  189.8730  177.9710  141.8630 C   0  0  2  0  0  3  0  0  0  0  0  0
  187.8060  175.6470  135.7260 C   0  0  0  0  0  1  0  0  0  0  0  0
  188.5700  177.1750  139.9500 C   0  0  1  0  0  3  0  0  0  0  0  0
  187.9030  178.2130  143.4260 N   0  0  0  0  0  0  0  0  0  0  0  0
  189.7350  176.8530  144.0570 N   0  0  0  0  0  2  0  0  0  0  0  0
  188.2680  175.8710  137.1500 C   0  0  2  0  0  3  0  0  0  0  0  0
  191.1720  177.1620  139.7490 C   0  0  0  0  0  0  0  0  0  0  0  0
  186.9380  178.5120  138.9980 C   0  0  0  0  0  0  0  0  0  0  0  0
  187.8080  177.4050  145.9410 Cl  0  0  0  0  0  0  0  0  0  0  0  0
  188.5230  177.3600  137.3680 C   0  0  0  0  0  2  0  0  0  0  0  0
  192.3660  177.8780  139.9160 C   0  0  0  0  0  3  0  0  0  0  0  0
  192.3730  175.5750  138.3430 C   0  0  0  0  0  3  0  0  0  0  0  0
  193.5570  176.2890  138.5380 C   0  0  0  0  0  3  0  0  0  0  0  0
  189.5270  175.0470  137.4010 C   0  0  0  0  0  2  0  0  0  0  0  0
  187.5780  177.6270  141.0470 C   0  0  1  0  0  3  0  0  0  0  0  0
  188.0960  177.7640  138.7030 N   0  0  0  0  0  0  0  0  0  0  0  0
  188.4110  178.3980  142.0650 C   0  0  2  0  0  3  0  0  0  0  0  0
  185.3740  178.9540  140.9510 C   0  0  0  0  0  1  0  0  0  0  0  0
  189.9170  177.7660  140.3460 C   0  0  2  0  0  3  0  0  0  0  0  0
  1 16  1  0  0  0  0
  2  8  1  0  0  0  0
  3 17  2  0  0  0  0
  4 20  1  0  0  0  0
  5 27  1  0  0  0  0
  5 24  1  0  0  0  0
  6  1  1  0  0  0  0
  8  7  1  1  0  0  0
  8 14  1  0  0  0  0
  9 18  1  0  0  0  0
 10 26  1  0  0  0  0
 10  8  1  0  0  0  0
 11 15  1  0  0  0  0
 12 28  1  0  0  0  0
 12 24  1  0  0  0  0
 13  9  2  0  0  0  0
 14  9  1  0  0  0  0
 15 19  1  0  0  0  0
 15 23  1  0  0  0  0
 16 20  2  0  0  0  0
 16 28  1  0  0  0  0
 17  5  1  0  0  0  0
 19 25  1  0  0  0  0
 21 22  1  0  0  0  0
 21  1  2  0  0  0  0
 22  4  2  0  0  0  0
 23  6  1  0  0  0  0
 24 26  1  0  0  0  0
 25 17  1  0  0  0  0
 25 12  1  0  0  0  0
 26 13  1  0  0  0  0
 28 10  1  0  0  0  0
M  END
>  <MODEL>
6

>  <REMARK>
 VINA RESULT:      -5.4      5.281      9.420
  Name = 
  0 active torsions:
  status: ('A' for Active; 'I' for Inactive)
                            x       y       z     vdW  Elec       q    Type
                         _______ _______ _______ _____ _____    ______ ____

>  <TORSDO>
F 0

$$$$
=
 OpenBabel11122412003D

 28 32  0  0  1  0  0  0  0  0999 V2000
  188.5500  177.1240  138.3310 C   0  0  0  0  0  0  0  0  0  0  0  0
  189.4140  173.8710  137.1890 O   0  0  0  0  0  1  0  0  0  0  0  0
  194.2710  177.1070  139.7240 O   0  0  0  0  0  0  0  0  0  0  0  0
  187.7750  178.6170  136.0870 C   0  0  0  0  0  3  0  0  0  0  0  0
  193.6290  175.3230  138.3220 N   0  0  0  0  0  0  0  0  0  0  0  0
  188.9190  176.4070  139.4690 O   0  0  0  0  0  0  0  0  0  0  0  0
  188.5740  174.8080  135.1810 C   0  0  0  0  0  1  0  0  0  0  0  0
  189.7950  174.2810  135.9090 C   0  0  1  0  0  0  0  0  0  0  0  0
  191.6440  172.6970  135.2690 C   0  0  0  0  0  0  0  0  0  0  0  0
  190.8970  175.3760  135.9720 C   0  0  2  0  0  3  0  0  0  0  0  0
  190.7480  177.8440  142.3920 C   0  0  0  0  0  1  0  0  0  0  0  0
  191.2890  175.8180  138.3460 C   0  0  1  0  0  3  0  0  0  0  0  0
  192.5440  173.4690  135.7950 N   0  0  0  0  0  0  0  0  0  0  0  0
  190.2860  173.1230  135.1750 N   0  0  0  0  0  2  0  0  0  0  0  0
  190.5840  177.1040  141.0810 C   0  0  2  0  0  3  0  0  0  0  0  0
  189.3540  177.1090  137.1640 C   0  0  0  0  0  0  0  0  0  0  0  0
  193.3790  176.4780  139.0930 C   0  0  0  0  0  0  0  0  0  0  0  0
  192.1160  171.1530  134.5940 Cl  0  0  0  0  0  0  0  0  0  0  0  0
  191.4020  177.8070  140.0010 C   0  0  0  0  0  2  0  0  0  0  0  0
  188.9570  177.8740  136.0590 C   0  0  0  0  0  3  0  0  0  0  0  0
  187.3710  177.8820  138.3530 C   0  0  0  0  0  3  0  0  0  0  0  0
  186.9820  178.6200  137.2340 C   0  0  0  0  0  3  0  0  0  0  0  0
  189.1030  177.0580  140.7180 C   0  0  0  0  0  2  0  0  0  0  0  0
  192.3460  174.7950  137.8710 C   0  0  1  0  0  3  0  0  0  0  0  0
  192.0140  176.8310  139.1050 N   0  0  0  0  0  0  0  0  0  0  0  0
  192.2690  174.7960  136.3480 C   0  0  2  0  0  3  0  0  0  0  0  0
  194.8670  174.5630  138.3400 C   0  0  0  0  0  1  0  0  0  0  0  0
  190.6980  176.4180  137.0770 C   0  0  2  0  0  3  0  0  0  0  0  0
  1 21  1  0  0  0  0
  1  6  1  0  0  0  0
  4 22  1  0  0  0  0
  5 27  1  0  0  0  0
  5 17  1  0  0  0  0
  6 23  1  0  0  0  0
  8  7  1  6  0  0  0
  8 10  1  0  0  0  0
  8  2  1  0  0  0  0
  9 13  2  0  0  0  0
 10 26  1  0  0  0  0
 10 28  1  0  0  0  0
 12 25  1  0  0  0  0
 13 26  1  0  0  0  0
 14  9  1  0  0  0  0
 14  8  1  0  0  0  0
 15 11  1  0  0  0  0
 16  1  2  0  0  0  0
 17 25  1  0  0  0  0
 17  3  2  0  0  0  0
 18  9  1  0  0  0  0
 19 15  1  0  0  0  0
 20  4  2  0  0  0  0
 20 16  1  0  0  0  0
 22 21  2  0  0  0  0
 23 15  1  0  0  0  0
 24  5  1  0  0  0  0
 24 12  1  0  0  0  0
 25 19  1  0  0  0  0
 26 24  1  0  0  0  0
 28 16  1  0  0  0  0
 28 12  1  0  0  0  0
M  END
>  <MODEL>
7

>  <REMARK>
 VINA RESULT:      -5.3      6.451      8.553
  Name = 
  0 active torsions:
  status: ('A' for Active; 'I' for Inactive)
                            x       y       z     vdW  Elec       q    Type
                         _______ _______ _______ _____ _____    ______ ____

>  <TORSDO>
F 0

$$$$
=
 OpenBabel11122412003D

 28 32  0  0  1  0  0  0  0  0999 V2000
  187.7840  176.4570  136.6340 C   0  0  0  0  0  0  0  0  0  0  0  0
  189.1420  175.9120  139.8730 O   0  0  0  0  0  1  0  0  0  0  0  0
  184.0010  179.6600  139.8100 O   0  0  0  0  0  0  0  0  0  0  0  0
  189.7120  177.8430  135.1430 C   0  0  0  0  0  3  0  0  0  0  0  0
  185.9180  178.9900  141.0080 N   0  0  0  0  0  0  0  0  0  0  0  0
  186.8080  175.7570  137.3430 O   0  0  0  0  0  0  0  0  0  0  0  0
  191.0280  176.8440  138.7810 C   0  0  0  0  0  1  0  0  0  0  0  0
  189.9740  177.0350  139.8540 C   0  0  1  0  0  0  0  0  0  0  0  0
  190.0600  177.7900  142.2540 C   0  0  0  0  0  0  0  0  0  0  0  0
  189.1630  178.3330  139.5840 C   0  0  2  0  0  3  0  0  0  0  0  0
  183.1270  176.2900  136.9910 C   0  0  0  0  0  1  0  0  0  0  0  0
  186.8390  177.6360  139.2650 C   0  0  1  0  0  3  0  0  0  0  0  0
  189.0190  178.5470  142.0970 N   0  0  0  0  0  0  0  0  0  0  0  0
  190.6560  177.1310  141.1370 N   0  0  0  0  0  2  0  0  0  0  0  0
  184.5030  176.4500  137.6020 C   0  0  2  0  0  3  0  0  0  0  0  0
  188.4270  177.5870  137.1940 C   0  0  0  0  0  0  0  0  0  0  0  0
  185.0960  179.0370  139.8620 C   0  0  0  0  0  0  0  0  0  0  0  0
  190.7910  177.6410  143.8360 Cl  0  0  0  0  0  0  0  0  0  0  0  0
  184.8960  177.9240  137.5770 C   0  0  0  0  0  2  0  0  0  0  0  0
  189.3770  178.2750  136.4270 C   0  0  0  0  0  3  0  0  0  0  0  0
  188.1200  176.0370  135.3390 C   0  0  0  0  0  3  0  0  0  0  0  0
  189.0840  176.7230  134.5990 C   0  0  0  0  0  3  0  0  0  0  0  0
  185.4970  175.5950  136.8200 C   0  0  0  0  0  2  0  0  0  0  0  0
  187.0100  178.0610  140.7420 C   0  0  1  0  0  3  0  0  0  0  0  0
  185.6190  178.2820  138.7930 N   0  0  0  0  0  0  0  0  0  0  0  0
  188.3550  178.7770  140.8130 C   0  0  2  0  0  3  0  0  0  0  0  0
  185.5210  179.4280  142.3360 C   0  0  0  0  0  1  0  0  0  0  0  0
  188.0570  178.1880  138.5350 C   0  0  2  0  0  3  0  0  0  0  0  0
  1 16  1  0  0  0  0
  1  6  1  0  0  0  0
  3 17  2  0  0  0  0
  4 20  1  0  0  0  0
  5 27  1  0  0  0  0
  8  7  1  6  0  0  0
  8  2  1  0  0  0  0
  8 14  1  0  0  0  0
  9 18  1  0  0  0  0
 10  8  1  0  0  0  0
 10 26  1  0  0  0  0
 11 15  1  0  0  0  0
 12 24  1  0  0  0  0
 13  9  2  0  0  0  0
 14  9  1  0  0  0  0
 16 28  1  0  0  0  0
 17  5  1  0  0  0  0
 19 15  1  0  0  0  0
 19 25  1  0  0  0  0
 20 16  2  0  0  0  0
 21  1  2  0  0  0  0
 22  4  2  0  0  0  0
 22 21  1  0  0  0  0
 23  6  1  0  0  0  0
 23 15  1  0  0  0  0
 24 26  1  0  0  0  0
 24  5  1  0  0  0  0
 25 12  1  0  0  0  0
 25 17  1  0  0  0  0
 26 13  1  0  0  0  0
 28 12  1  0  0  0  0
 28 10  1  0  0  0  0
M  END
>  <MODEL>
8

>  <REMARK>
 VINA RESULT:      -5.3      4.178      8.026
  Name = 
  0 active torsions:
  status: ('A' for Active; 'I' for Inactive)
                            x       y       z     vdW  Elec       q    Type
                         _______ _______ _______ _____ _____    ______ ____

>  <TORSDO>
F 0

$$$$
=
 OpenBabel11122412003D

 28 32  0  0  1  0  0  0  0  0999 V2000
  191.6900  174.5990  137.3760 C   0  0  0  0  0  0  0  0  0  0  0  0
  189.8490  175.7860  140.1750 O   0  0  0  0  0  1  0  0  0  0  0  0
  186.7590  176.2850  134.6350 O   0  0  0  0  0  0  0  0  0  0  0  0
  193.9430  176.2450  137.1020 C   0  0  0  0  0  3  0  0  0  0  0  0
  186.9130  177.0410  136.8630 N   0  0  0  0  0  0  0  0  0  0  0  0
  190.5860  173.7550  137.4910 O   0  0  0  0  0  0  0  0  0  0  0  0
  191.7750  177.1570  140.3320 C   0  0  0  0  0  1  0  0  0  0  0  0
  190.2840  177.1090  140.0640 C   0  0  1  0  0  0  0  0  0  0  0  0
  188.3330  178.4790  140.8720 C   0  0  0  0  0  0  0  0  0  0  0  0
  189.9730  177.6880  138.6550 C   0  0  2  0  0  3  0  0  0  0  0  0
  188.7360  172.2650  134.6080 C   0  0  0  0  0  1  0  0  0  0  0  0
  188.9360  175.8750  137.3810 C   0  0  1  0  0  3  0  0  0  0  0  0
  187.8250  178.5360  139.6800 N   0  0  0  0  0  0  0  0  0  0  0  0
  189.6210  177.9050  141.0870 N   0  0  0  0  0  2  0  0  0  0  0  0
  189.0170  173.2570  135.7160 C   0  0  2  0  0  3  0  0  0  0  0  0
  191.5420  176.0070  137.4230 C   0  0  0  0  0  0  0  0  0  0  0  0
  187.3760  176.3330  135.7330 C   0  0  0  0  0  0  0  0  0  0  0  0
  187.4660  179.1880  142.2160 Cl  0  0  0  0  0  0  0  0  0  0  0  0
  189.1870  174.6490  135.1140 C   0  0  0  0  0  2  0  0  0  0  0  0
  192.6790  176.8130  137.2690 C   0  0  0  0  0  3  0  0  0  0  0  0
  192.9620  174.0390  137.1970 C   0  0  0  0  0  3  0  0  0  0  0  0
  194.0850  174.8580  137.0660 C   0  0  0  0  0  3  0  0  0  0  0  0
  190.2700  172.8190  136.4700 C   0  0  0  0  0  2  0  0  0  0  0  0
  187.8060  176.7440  137.9780 C   0  0  1  0  0  3  0  0  0  0  0  0
  188.5900  175.6590  135.9800 N   0  0  0  0  0  0  0  0  0  0  0  0
  188.4820  178.0150  138.4800 C   0  0  2  0  0  3  0  0  0  0  0  0
  185.5780  177.5950  137.0080 C   0  0  0  0  0  1  0  0  0  0  0  0
  190.2040  176.7120  137.4980 C   0  0  2  0  0  3  0  0  0  0  0  0
  1 16  1  0  0  0  0
  1  6  1  0  0  0  0
  3 17  2  0  0  0  0
  4 20  1  0  0  0  0
  5 27  1  0  0  0  0
  5 24  1  0  0  0  0
  8  2  1  0  0  0  0
  8  7  1  1  0  0  0
  8 14  1  0  0  0  0
  9 14  1  0  0  0  0
  9 18  1  0  0  0  0
 10  8  1  0  0  0  0
 11 15  1  0  0  0  0
 12 28  1  0  0  0  0
 12 24  1  0  0  0  0
 13  9  2  0  0  0  0
 15 23  1  0  0  0  0
 16 28  1  0  0  0  0
 17 25  1  0  0  0  0
 17  5  1  0  0  0  0
 19 15  1  0  0  0  0
 19 25  1  0  0  0  0
 20 16  2  0  0  0  0
 21  1  2  0  0  0  0
 22  4  2  0  0  0  0
 22 21  1  0  0  0  0
 23  6  1  0  0  0  0
 24 26  1  0  0  0  0
 25 12  1  0  0  0  0
 26 10  1  0  0  0  0
 26 13  1  0  0  0  0
 28 10  1  0  0  0  0
M  END
>  <MODEL>
9

>  <REMARK>
 VINA RESULT:      -5.2      5.305      9.636
  Name = 
  0 active torsions:
  status: ('A' for Active; 'I' for Inactive)
                            x       y       z     vdW  Elec       q    Type
                         _______ _______ _______ _____ _____    ______ ____

>  <TORSDO>
F 0

$$$$
