=
 OpenBabel11122411593D

 28 32  0  0  1  0  0  0  0  0999 V2000
  190.0740  177.3090  144.5010 C   0  0  0  0  0  0  0  0  0  0  0  0
  188.3330  179.3210  142.1760 O   0  0  0  0  0  1  0  0  0  0  0  0
  184.8280  177.2700  147.1190 O   0  0  0  0  0  0  0  0  0  0  0  0
  190.8280  174.9460  143.1930 C   0  0  0  0  0  3  0  0  0  0  0  0
  184.6830  178.2100  144.8910 C   0  0  2  0  0  3  0  0  0  0  0  0
  189.7240  178.4770  145.1780 O   0  0  0  0  0  0  0  0  0  0  0  0
  189.0600  177.5700  140.7530 C   0  0  0  0  0  1  0  0  0  0  0  0
  187.8710  178.2540  141.3990 C   0  0  1  0  0  0  0  0  0  0  0  0
  185.6380  179.0320  140.5380 C   0  0  0  0  0  0  0  0  0  0  0  0
  187.0690  177.2370  142.2590 C   0  0  2  0  0  3  0  0  0  0  0  0
  188.7520  178.5610  148.7840 C   0  0  0  0  0  1  0  0  0  0  0  0
  187.1350  178.0770  144.5550 C   0  0  1  0  0  3  0  0  0  0  0  0
  185.0250  178.5550  141.5760 N   0  0  0  0  0  0  0  0  0  0  0  0
  187.0280  178.7810  140.3360 N   0  0  0  0  0  2  0  0  0  0  0  0
  188.5340  178.5290  147.2870 C   0  0  2  0  0  3  0  0  0  0  0  0
  189.1220  176.5980  143.7320 C   0  0  0  0  0  0  0  0  0  0  0  0
  185.3970  177.6480  146.0600 C   0  0  0  0  0  0  0  0  0  0  0  0
  184.9040  179.7530  139.5570 N   0  0  0  0  0  1  0  0  0  0  0  0
  187.7610  177.2670  146.9170 C   0  0  0  0  0  2  0  0  0  0  0  0
  189.5150  175.4100  143.0980 C   0  0  0  0  0  3  0  0  0  0  0  0
  191.3870  176.8290  144.5990 C   0  0  0  0  0  3  0  0  0  0  0  0
  191.7640  175.6560  143.9440 C   0  0  0  0  0  3  0  0  0  0  0  0
  189.8900  178.5820  146.5860 C   0  0  0  0  0  2  0  0  0  0  0  0
  185.8190  178.5510  143.9160 C   0  0  1  0  0  3  0  0  0  0  0  0
  186.7920  177.5540  145.8630 N   0  0  0  0  0  0  0  0  0  0  0  0
  185.6730  177.7620  142.6230 C   0  0  2  0  0  3  0  0  0  0  0  0
  183.9630  179.4860  145.2840 C   0  0  0  0  0  1  0  0  0  0  0  0
  187.6570  176.9700  143.6470 C   0  0  2  0  0  3  0  0  0  0  0  0
  1 21  1  0  0  0  0
  1  6  1  0  0  0  0
  4 22  1  0  0  0  0
  5 27  1  1  0  0  0
  5 17  1  0  0  0  0
  6 23  1  0  0  0  0
  8  7  1  6  0  0  0
  8  2  1  0  0  0  0
  8 10  1  0  0  0  0
  9 13  2  0  0  0  0
 10 26  1  0  0  0  0
 10 28  1  0  0  0  0
 12 25  1  0  0  0  0
 13 26  1  0  0  0  0
 14  9  1  0  0  0  0
 14  8  1  0  0  0  0
 15 11  1  0  0  0  0
 16  1  2  0  0  0  0
 17  3  2  0  0  0  0
 18  9  1  0  0  0  0
 19 15  1  0  0  0  0
 20  4  2  0  0  0  0
 20 16  1  0  0  0  0
 22 21  2  0  0  0  0
 23 15  1  0  0  0  0
 24 12  1  0  0  0  0
 24  5  1  0  0  0  0
 25 17  1  0  0  0  0
 25 19  1  0  0  0  0
 26 24  1  0  0  0  0
 28 16  1  0  0  0  0
 28 12  1  0  0  0  0
M  END
>  <MODEL>
1

>  <REMARK>
 VINA RESULT:      -6.0      0.000      0.000
  Name = 
  0 active torsions:
  status: ('A' for Active; 'I' for Inactive)
                            x       y       z     vdW  Elec       q    Type
                         _______ _______ _______ _____ _____    ______ ____

>  <TORSDO>
F 0

$$$$
=
 OpenBabel11122411593D

 28 32  0  0  1  0  0  0  0  0999 V2000
  180.4440  178.5730  139.7570 C   0  0  0  0  0  0  0  0  0  0  0  0
  183.3920  176.8840  138.7880 O   0  0  0  0  0  1  0  0  0  0  0  0
  183.7930  180.0290  144.3440 O   0  0  0  0  0  0  0  0  0  0  0  0
  179.9610  180.5980  137.8770 C   0  0  0  0  0  3  0  0  0  0  0  0
  185.1140  179.0050  142.5900 C   0  0  2  0  0  3  0  0  0  0  0  0
  180.6490  177.5690  140.7020 O   0  0  0  0  0  0  0  0  0  0  0  0
  183.0960  178.3140  136.9210 C   0  0  0  0  0  1  0  0  0  0  0  0
  183.9580  177.9760  138.1230 C   0  0  1  0  0  0  0  0  0  0  0  0
  186.4360  177.6960  138.4590 C   0  0  0  0  0  0  0  0  0  0  0  0
  184.0740  179.2080  139.0630 C   0  0  2  0  0  3  0  0  0  0  0  0
  179.8510  177.9570  144.3310 C   0  0  0  0  0  1  0  0  0  0  0  0
  183.1130  178.5300  141.2070 C   0  0  1  0  0  3  0  0  0  0  0  0
  186.4040  178.3710  139.5650 N   0  0  0  0  0  0  0  0  0  0  0  0
  185.2740  177.5950  137.6350 N   0  0  0  0  0  2  0  0  0  0  0  0
  180.7220  177.9400  143.0950 C   0  0  2  0  0  3  0  0  0  0  0  0
  181.4970  179.4380  139.3700 C   0  0  0  0  0  0  0  0  0  0  0  0
  183.8540  179.4580  143.2220 C   0  0  0  0  0  0  0  0  0  0  0  0
  187.6560  177.1060  138.0280 N   0  0  0  0  0  1  0  0  0  0  0  0
  181.3360  179.3220  142.8920 C   0  0  0  0  0  2  0  0  0  0  0  0
  181.2310  180.4540  138.4400 C   0  0  0  0  0  3  0  0  0  0  0  0
  179.1700  178.7340  139.1930 C   0  0  0  0  0  3  0  0  0  0  0  0
  178.9310  179.7380  138.2550 C   0  0  0  0  0  3  0  0  0  0  0  0
  179.8770  177.5210  141.8940 C   0  0  0  0  0  2  0  0  0  0  0  0
  184.6370  178.3420  141.2910 C   0  0  1  0  0  3  0  0  0  0  0  0
  182.7150  179.2050  142.4270 N   0  0  0  0  0  0  0  0  0  0  0  0
  185.2160  179.0560  140.0780 C   0  0  2  0  0  3  0  0  0  0  0  0
  185.7910  177.9660  143.4630 C   0  0  0  0  0  1  0  0  0  0  0  0
  182.8760  179.4190  139.9920 C   0  0  2  0  0  3  0  0  0  0  0  0
  1  6  1  0  0  0  0
  4 22  2  0  0  0  0
  4 20  1  0  0  0  0
  5 17  1  0  0  0  0
  5 27  1  1  0  0  0
  6 23  1  0  0  0  0
  8  7  1  6  0  0  0
  8  2  1  0  0  0  0
  8 10  1  0  0  0  0
  9 13  2  0  0  0  0
 10 28  1  0  0  0  0
 10 26  1  0  0  0  0
 12 24  1  0  0  0  0
 12 25  1  0  0  0  0
 13 26  1  0  0  0  0
 14  8  1  0  0  0  0
 14  9  1  0  0  0  0
 15 11  1  0  0  0  0
 16  1  1  0  0  0  0
 16 28  1  0  0  0  0
 17  3  2  0  0  0  0
 18  9  1  0  0  0  0
 19 15  1  0  0  0  0
 20 16  2  0  0  0  0
 21  1  2  0  0  0  0
 22 21  1  0  0  0  0
 23 15  1  0  0  0  0
 24  5  1  0  0  0  0
 25 19  1  0  0  0  0
 25 17  1  0  0  0  0
 26 24  1  0  0  0  0
 28 12  1  0  0  0  0
M  END
>  <MODEL>
2

>  <REMARK>
 VINA RESULT:      -5.9      4.218      7.803
  Name = 
  0 active torsions:
  status: ('A' for Active; 'I' for Inactive)
                            x       y       z     vdW  Elec       q    Type
                         _______ _______ _______ _____ _____    ______ ____

>  <TORSDO>
F 0

$$$$
=
 OpenBabel11122411593D

 28 32  0  0  1  0  0  0  0  0999 V2000
  181.5440  178.6450  140.8880 C   0  0  0  0  0  0  0  0  0  0  0  0
  181.2100  175.4620  139.3910 O   0  0  0  0  0  1  0  0  0  0  0  0
  186.4220  178.7290  137.6380 O   0  0  0  0  0  0  0  0  0  0  0  0
  179.4210  180.2410  139.9870 C   0  0  0  0  0  3  0  0  0  0  0  0
  185.0020  176.8640  137.0300 C   0  0  2  0  0  3  0  0  0  0  0  0
  182.6040  177.8750  141.3650 O   0  0  0  0  0  0  0  0  0  0  0  0
  179.1870  176.4730  138.6800 C   0  0  0  0  0  1  0  0  0  0  0  0
  180.5340  175.9200  138.2560 C   0  0  1  0  0  0  0  0  0  0  0  0
  181.2720  174.3640  136.4210 C   0  0  0  0  0  0  0  0  0  0  0  0
  181.3540  177.0150  137.5170 C   0  0  2  0  0  3  0  0  0  0  0  0
  186.0110  179.2480  142.0430 C   0  0  0  0  0  1  0  0  0  0  0  0
  183.3830  177.3630  138.8380 C   0  0  1  0  0  3  0  0  0  0  0  0
  182.2870  175.1170  136.1340 N   0  0  0  0  0  0  0  0  0  0  0  0
  180.2940  174.7930  137.3680 N   0  0  0  0  0  2  0  0  0  0  0  0
  184.9310  178.5390  141.2560 C   0  0  2  0  0  3  0  0  0  0  0  0
  181.2390  178.6940  139.5060 C   0  0  0  0  0  0  0  0  0  0  0  0
  185.3850  178.0420  137.8400 C   0  0  0  0  0  0  0  0  0  0  0  0
  181.0940  173.1310  135.7360 N   0  0  0  0  0  1  0  0  0  0  0  0
  184.6890  179.2840  139.9470 C   0  0  0  0  0  2  0  0  0  0  0  0
  180.1830  179.5100  139.0740 C   0  0  0  0  0  3  0  0  0  0  0  0
  180.7780  179.3920  141.7950 C   0  0  0  0  0  3  0  0  0  0  0  0
  179.7200  180.1830  141.3480 C   0  0  0  0  0  3  0  0  0  0  0  0
  183.6620  178.4690  142.1040 C   0  0  0  0  0  2  0  0  0  0  0  0
  183.7180  176.3720  137.7100 C   0  0  1  0  0  3  0  0  0  0  0  0
  184.4540  178.3400  138.8590 N   0  0  0  0  0  0  0  0  0  0  0  0
  182.5420  176.4240  136.7440 C   0  0  2  0  0  3  0  0  0  0  0  0
  186.0670  175.7890  137.1360 C   0  0  0  0  0  1  0  0  0  0  0  0
  182.0640  178.0120  138.4360 C   0  0  2  0  0  3  0  0  0  0  0  0
  1  6  1  0  0  0  0
  1 21  1  0  0  0  0
  3 17  2  0  0  0  0
  4 22  1  0  0  0  0
  5 27  1  1  0  0  0
  5 24  1  0  0  0  0
  5 17  1  0  0  0  0
  6 23  1  0  0  0  0
  8  7  1  1  0  0  0
  8  2  1  0  0  0  0
  9 14  1  0  0  0  0
 10  8  1  0  0  0  0
 10 28  1  0  0  0  0
 12 25  1  0  0  0  0
 13  9  2  0  0  0  0
 13 26  1  0  0  0  0
 14  8  1  0  0  0  0
 15 11  1  0  0  0  0
 15 23  1  0  0  0  0
 16  1  2  0  0  0  0
 17 25  1  0  0  0  0
 18  9  1  0  0  0  0
 19 15  1  0  0  0  0
 20 16  1  0  0  0  0
 20  4  2  0  0  0  0
 22 21  2  0  0  0  0
 24 12  1  0  0  0  0
 25 19  1  0  0  0  0
 26 10  1  0  0  0  0
 26 24  1  0  0  0  0
 28 12  1  0  0  0  0
 28 16  1  0  0  0  0
M  END
>  <MODEL>
3

>  <REMARK>
 VINA RESULT:      -5.7      5.293      8.795
  Name = 
  0 active torsions:
  status: ('A' for Active; 'I' for Inactive)
                            x       y       z     vdW  Elec       q    Type
                         _______ _______ _______ _____ _____    ______ ____

>  <TORSDO>
F 0

$$$$
=
 OpenBabel11122411593D

 28 32  0  0  1  0  0  0  0  0999 V2000
  181.0050  175.3610  137.0240 C   0  0  0  0  0  0  0  0  0  0  0  0
  184.4720  175.7470  137.5810 O   0  0  0  0  0  1  0  0  0  0  0  0
  180.7160  178.7100  141.8270 O   0  0  0  0  0  0  0  0  0  0  0  0
  180.3840  176.6150  134.5930 C   0  0  0  0  0  3  0  0  0  0  0  0
  182.9760  178.6200  140.9620 C   0  0  2  0  0  3  0  0  0  0  0  0
  181.2810  174.7180  138.2300 O   0  0  0  0  0  0  0  0  0  0  0  0
  184.2980  176.6400  135.3920 C   0  0  0  0  0  1  0  0  0  0  0  0
  184.5920  176.9340  136.8510 C   0  0  1  0  0  0  0  0  0  0  0  0
  186.4090  178.2120  138.0320 C   0  0  0  0  0  0  0  0  0  0  0  0
  183.6200  178.0230  137.3850 C   0  0  2  0  0  3  0  0  0  0  0  0
  178.9360  174.6850  141.1370 C   0  0  0  0  0  1  0  0  0  0  0  0
  182.3580  176.9850  139.2050 C   0  0  1  0  0  3  0  0  0  0  0  0
  185.5530  178.7750  138.8280 N   0  0  0  0  0  0  0  0  0  0  0  0
  185.9660  177.4030  136.9440 N   0  0  0  0  0  2  0  0  0  0  0  0
  180.1130  175.1490  140.3070 C   0  0  2  0  0  3  0  0  0  0  0  0
  181.4820  176.6690  136.7660 C   0  0  0  0  0  0  0  0  0  0  0  0
  181.5440  178.2480  140.9960 C   0  0  0  0  0  0  0  0  0  0  0  0
  187.7990  178.4580  138.2050 N   0  0  0  0  0  1  0  0  0  0  0  0
  179.9160  176.6130  139.9270 C   0  0  0  0  0  2  0  0  0  0  0  0
  181.1470  177.2850  135.5510 C   0  0  0  0  0  3  0  0  0  0  0  0
  180.2300  174.7010  136.0590 C   0  0  0  0  0  3  0  0  0  0  0  0
  179.9250  175.3230  134.8480 C   0  0  0  0  0  3  0  0  0  0  0  0
  180.2310  174.2610  139.0710 C   0  0  0  0  0  2  0  0  0  0  0  0
  183.5360  177.7540  139.8250 C   0  0  1  0  0  3  0  0  0  0  0  0
  181.1850  177.3310  139.9850 N   0  0  0  0  0  0  0  0  0  0  0  0
  184.1010  178.6260  138.7120 C   0  0  2  0  0  3  0  0  0  0  0  0
  183.6480  178.2310  142.2640 C   0  0  0  0  0  1  0  0  0  0  0  0
  182.2340  177.5060  137.7780 C   0  0  2  0  0  3  0  0  0  0  0  0
  1  6  1  0  0  0  0
  4 22  2  0  0  0  0
  4 20  1  0  0  0  0
  5 17  1  0  0  0  0
  5 27  1  1  0  0  0
  6 23  1  0  0  0  0
  8  7  1  6  0  0  0
  8 14  1  0  0  0  0
  8 10  1  0  0  0  0
  8  2  1  0  0  0  0
  9 18  1  0  0  0  0
  9 13  2  0  0  0  0
 10 28  1  0  0  0  0
 10 26  1  0  0  0  0
 12 24  1  0  0  0  0
 12 25  1  0  0  0  0
 14  9  1  0  0  0  0
 15 11  1  0  0  0  0
 16  1  1  0  0  0  0
 16 28  1  0  0  0  0
 17  3  2  0  0  0  0
 19 25  1  0  0  0  0
 19 15  1  0  0  0  0
 20 16  2  0  0  0  0
 21  1  2  0  0  0  0
 22 21  1  0  0  0  0
 23 15  1  0  0  0  0
 24  5  1  0  0  0  0
 25 17  1  0  0  0  0
 26 13  1  0  0  0  0
 26 24  1  0  0  0  0
 28 12  1  0  0  0  0
M  END
>  <MODEL>
4

>  <REMARK>
 VINA RESULT:      -5.6      5.738      8.979
  Name = 
  0 active torsions:
  status: ('A' for Active; 'I' for Inactive)
                            x       y       z     vdW  Elec       q    Type
                         _______ _______ _______ _____ _____    ______ ____

>  <TORSDO>
F 0

$$$$
=
 OpenBabel11122411593D

 28 32  0  0  1  0  0  0  0  0999 V2000
  186.4640  175.4370  136.0150 C   0  0  0  0  0  0  0  0  0  0  0  0
  183.1600  176.2800  135.0890 O   0  0  0  0  0  1  0  0  0  0  0  0
  185.3910  179.3760  140.2220 O   0  0  0  0  0  0  0  0  0  0  0  0
  186.4720  172.7460  136.8040 C   0  0  0  0  0  3  0  0  0  0  0  0
  183.3640  178.8030  139.0280 C   0  0  2  0  0  3  0  0  0  0  0  0
  186.4980  176.7730  135.6180 O   0  0  0  0  0  0  0  0  0  0  0  0
  182.9170  173.9470  135.4350 C   0  0  0  0  0  1  0  0  0  0  0  0
  182.5460  175.3360  135.9180 C   0  0  1  0  0  0  0  0  0  0  0  0
  180.3770  176.4180  136.5940 C   0  0  0  0  0  0  0  0  0  0  0  0
  182.9810  175.5210  137.3990 C   0  0  2  0  0  3  0  0  0  0  0  0
  188.6800  179.3480  137.2190 C   0  0  0  0  0  1  0  0  0  0  0  0
  184.5850  177.3670  137.4180 C   0  0  1  0  0  3  0  0  0  0  0  0
  180.9300  176.9800  137.6230 N   0  0  0  0  0  0  0  0  0  0  0  0
  181.1030  175.4800  135.8010 N   0  0  0  0  0  2  0  0  0  0  0  0
  187.4070  178.5730  136.9590 C   0  0  2  0  0  3  0  0  0  0  0  0
  185.4810  174.9670  136.9190 C   0  0  0  0  0  0  0  0  0  0  0  0
  184.8210  178.7560  139.2850 C   0  0  0  0  0  0  0  0  0  0  0  0
  179.0140  176.6880  136.2920 N   0  0  0  0  0  1  0  0  0  0  0  0
  186.9690  177.8780  138.2440 C   0  0  0  0  0  2  0  0  0  0  0  0
  185.5110  173.6210  137.3130 C   0  0  0  0  0  3  0  0  0  0  0  0
  187.4310  174.5510  135.5180 C   0  0  0  0  0  3  0  0  0  0  0  0
  187.4320  173.2110  135.9060 C   0  0  0  0  0  3  0  0  0  0  0  0
  187.6540  177.5700  135.8350 C   0  0  0  0  0  2  0  0  0  0  0  0
  183.2020  177.9400  137.7690 C   0  0  1  0  0  3  0  0  0  0  0  0
  185.5160  177.9250  138.3810 N   0  0  0  0  0  0  0  0  0  0  0  0
  182.3100  176.7390  138.0500 C   0  0  2  0  0  3  0  0  0  0  0  0
  182.9330  180.2240  138.7190 C   0  0  0  0  0  1  0  0  0  0  0  0
  184.4610  175.8590  137.5940 C   0  0  2  0  0  3  0  0  0  0  0  0
  1 16  1  0  0  0  0
  2  8  1  0  0  0  0
  4 20  1  0  0  0  0
  5 27  1  6  0  0  0
  5 17  1  0  0  0  0
  6 23  1  0  0  0  0
  6  1  1  0  0  0  0
  8  7  1  6  0  0  0
  8 10  1  0  0  0  0
  9 13  2  0  0  0  0
 10 28  1  0  0  0  0
 10 26  1  0  0  0  0
 12 28  1  0  0  0  0
 12 24  1  0  0  0  0
 12 25  1  0  0  0  0
 13 26  1  0  0  0  0
 14  8  1  0  0  0  0
 14  9  1  0  0  0  0
 15 11  1  0  0  0  0
 15 19  1  0  0  0  0
 16 20  2  0  0  0  0
 16 28  1  0  0  0  0
 17  3  2  0  0  0  0
 18  9  1  0  0  0  0
 19 25  1  0  0  0  0
 21 22  1  0  0  0  0
 21  1  2  0  0  0  0
 22  4  2  0  0  0  0
 23 15  1  0  0  0  0
 24 26  1  0  0  0  0
 24  5  1  0  0  0  0
 25 17  1  0  0  0  0
M  END
>  <MODEL>
5

>  <REMARK>
 VINA RESULT:      -5.5      6.175      8.260
  Name = 
  0 active torsions:
  status: ('A' for Active; 'I' for Inactive)
                            x       y       z     vdW  Elec       q    Type
                         _______ _______ _______ _____ _____    ______ ____

>  <TORSDO>
F 0

$$$$
=
 OpenBabel11122411593D

 28 32  0  0  1  0  0  0  0  0999 V2000
  187.8240  176.4560  136.6530 C   0  0  0  0  0  0  0  0  0  0  0  0
  189.2010  175.9260  139.8630 O   0  0  0  0  0  1  0  0  0  0  0  0
  184.0720  179.7460  139.7310 O   0  0  0  0  0  0  0  0  0  0  0  0
  189.7240  177.8390  135.1230 C   0  0  0  0  0  3  0  0  0  0  0  0
  185.9610  179.0750  141.0900 C   0  0  2  0  0  3  0  0  0  0  0  0
  186.8610  175.7590  137.3810 O   0  0  0  0  0  0  0  0  0  0  0  0
  191.0810  176.8420  138.7460 C   0  0  0  0  0  1  0  0  0  0  0  0
  190.0410  177.0440  139.8320 C   0  0  1  0  0  0  0  0  0  0  0  0
  190.1580  177.8010  142.2290 C   0  0  0  0  0  0  0  0  0  0  0  0
  189.2350  178.3460  139.5670 C   0  0  2  0  0  3  0  0  0  0  0  0
  183.1860  176.3250  137.0200 C   0  0  0  0  0  1  0  0  0  0  0  0
  186.9030  177.6640  139.2830 C   0  0  1  0  0  3  0  0  0  0  0  0
  189.1200  178.5640  142.0820 N   0  0  0  0  0  0  0  0  0  0  0  0
  190.7380  177.1390  141.1050 N   0  0  0  0  0  2  0  0  0  0  0  0
  184.5600  176.4710  137.6370 C   0  0  2  0  0  3  0  0  0  0  0  0
  188.4660  177.5960  137.1930 C   0  0  0  0  0  0  0  0  0  0  0  0
  185.1390  179.0880  139.8590 C   0  0  0  0  0  0  0  0  0  0  0  0
  190.7650  177.6770  143.5080 N   0  0  0  0  0  1  0  0  0  0  0  0
  184.9780  177.9370  137.5970 C   0  0  0  0  0  2  0  0  0  0  0  0
  189.4020  178.2830  136.4060 C   0  0  0  0  0  3  0  0  0  0  0  0
  188.1470  176.0250  135.3580 C   0  0  0  0  0  3  0  0  0  0  0  0
  189.0960  176.7100  134.5990 C   0  0  0  0  0  3  0  0  0  0  0  0
  185.5450  175.5870  136.8740 C   0  0  0  0  0  2  0  0  0  0  0  0
  187.0940  178.0980  140.7460 C   0  0  1  0  0  3  0  0  0  0  0  0
  185.6840  178.3000  138.8220 N   0  0  0  0  0  0  0  0  0  0  0  0
  188.4440  178.7980  140.8040 C   0  0  2  0  0  3  0  0  0  0  0  0
  185.1560  178.5200  142.2490 C   0  0  0  0  0  1  0  0  0  0  0  0
  188.1140  178.2060  138.5330 C   0  0  2  0  0  3  0  0  0  0  0  0
  1 16  1  0  0  0  0
  1  6  1  0  0  0  0
  3 17  2  0  0  0  0
  4 20  1  0  0  0  0
  5 27  1  1  0  0  0
  8  7  1  6  0  0  0
  8  2  1  0  0  0  0
  8 14  1  0  0  0  0
  9 18  1  0  0  0  0
 10  8  1  0  0  0  0
 10 26  1  0  0  0  0
 11 15  1  0  0  0  0
 12 24  1  0  0  0  0
 13  9  2  0  0  0  0
 14  9  1  0  0  0  0
 16 28  1  0  0  0  0
 17  5  1  0  0  0  0
 19 15  1  0  0  0  0
 19 25  1  0  0  0  0
 20 16  2  0  0  0  0
 21  1  2  0  0  0  0
 22  4  2  0  0  0  0
 22 21  1  0  0  0  0
 23  6  1  0  0  0  0
 23 15  1  0  0  0  0
 24 26  1  0  0  0  0
 24  5  1  0  0  0  0
 25 12  1  0  0  0  0
 25 17  1  0  0  0  0
 26 13  1  0  0  0  0
 28 12  1  0  0  0  0
 28 10  1  0  0  0  0
M  END
>  <MODEL>
6

>  <REMARK>
 VINA RESULT:      -5.5      3.748      7.160
  Name = 
  0 active torsions:
  status: ('A' for Active; 'I' for Inactive)
                            x       y       z     vdW  Elec       q    Type
                         _______ _______ _______ _____ _____    ______ ____

>  <TORSDO>
F 0

$$$$
=
 OpenBabel11122411593D

 28 32  0  0  1  0  0  0  0  0999 V2000
  191.3590  174.7010  137.5150 C   0  0  0  0  0  0  0  0  0  0  0  0
  189.4730  175.8420  140.2760 O   0  0  0  0  0  1  0  0  0  0  0  0
  186.6180  176.5340  134.5940 O   0  0  0  0  0  0  0  0  0  0  0  0
  193.6450  176.3130  137.3130 C   0  0  0  0  0  3  0  0  0  0  0  0
  186.5580  177.2690  136.9010 C   0  0  2  0  0  3  0  0  0  0  0  0
  190.2400  173.8730  137.5930 O   0  0  0  0  0  0  0  0  0  0  0  0
  191.4180  177.1770  140.5150 C   0  0  0  0  0  1  0  0  0  0  0  0
  189.9320  177.1620  140.2120 C   0  0  1  0  0  0  0  0  0  0  0  0
  187.9830  178.5380  141.0110 C   0  0  0  0  0  0  0  0  0  0  0  0
  189.6650  177.7830  138.8120 C   0  0  2  0  0  3  0  0  0  0  0  0
  188.4810  172.4880  134.6020 C   0  0  0  0  0  1  0  0  0  0  0  0
  188.6260  176.0240  137.4670 C   0  0  1  0  0  3  0  0  0  0  0  0
  187.5050  178.6340  139.8090 N   0  0  0  0  0  0  0  0  0  0  0  0
  189.2580  177.9410  141.2390 N   0  0  0  0  0  2  0  0  0  0  0  0
  188.7280  173.4420  135.7510 C   0  0  2  0  0  3  0  0  0  0  0  0
  191.2320  176.1100  137.5750 C   0  0  0  0  0  0  0  0  0  0  0  0
  187.1250  176.5330  135.7470 C   0  0  0  0  0  0  0  0  0  0  0  0
  187.2600  179.0940  142.1020 N   0  0  0  0  0  1  0  0  0  0  0  0
  188.9490  174.8470  135.2010 C   0  0  0  0  0  2  0  0  0  0  0  0
  192.3860  176.8990  137.4570 C   0  0  0  0  0  3  0  0  0  0  0  0
  192.6280  174.1230  137.3590 C   0  0  0  0  0  3  0  0  0  0  0  0
  193.7650  174.9250  137.2640 C   0  0  0  0  0  3  0  0  0  0  0  0
  189.9350  172.9570  136.5510 C   0  0  0  0  0  2  0  0  0  0  0  0
  187.5030  176.8980  138.0520 C   0  0  1  0  0  3  0  0  0  0  0  0
  188.3120  175.8380  136.0630 N   0  0  0  0  0  0  0  0  0  0  0  0
  188.1850  178.1390  138.6110 C   0  0  2  0  0  3  0  0  0  0  0  0
  185.1650  176.7580  137.2130 C   0  0  0  0  0  1  0  0  0  0  0  0
  189.9050  176.8350  137.6350 C   0  0  2  0  0  3  0  0  0  0  0  0
  1 16  1  0  0  0  0
  1  6  1  0  0  0  0
  3 17  2  0  0  0  0
  4 20  1  0  0  0  0
  5 27  1  1  0  0  0
  5 24  1  0  0  0  0
  8  2  1  0  0  0  0
  8  7  1  1  0  0  0
  8 14  1  0  0  0  0
  9 14  1  0  0  0  0
  9 18  1  0  0  0  0
 10  8  1  0  0  0  0
 11 15  1  0  0  0  0
 12 28  1  0  0  0  0
 12 24  1  0  0  0  0
 13  9  2  0  0  0  0
 15 23  1  0  0  0  0
 16 28  1  0  0  0  0
 17 25  1  0  0  0  0
 17  5  1  0  0  0  0
 19 15  1  0  0  0  0
 19 25  1  0  0  0  0
 20 16  2  0  0  0  0
 21  1  2  0  0  0  0
 22  4  2  0  0  0  0
 22 21  1  0  0  0  0
 23  6  1  0  0  0  0
 24 26  1  0  0  0  0
 25 12  1  0  0  0  0
 26 10  1  0  0  0  0
 26 13  1  0  0  0  0
 28 10  1  0  0  0  0
M  END
>  <MODEL>
7

>  <REMARK>
 VINA RESULT:      -5.5      4.829      8.035
  Name = 
  0 active torsions:
  status: ('A' for Active; 'I' for Inactive)
                            x       y       z     vdW  Elec       q    Type
                         _______ _______ _______ _____ _____    ______ ____

>  <TORSDO>
F 0

$$$$
=
 OpenBabel11122411593D

 28 32  0  0  1  0  0  0  0  0999 V2000
  185.9730  177.9700  143.6820 C   0  0  0  0  0  0  0  0  0  0  0  0
  183.6770  176.9790  141.1870 O   0  0  0  0  0  1  0  0  0  0  0  0
  189.3710  178.8980  138.9950 O   0  0  0  0  0  0  0  0  0  0  0  0
  184.9390  180.2530  144.9390 C   0  0  0  0  0  3  0  0  0  0  0  0
  187.0780  178.4760  138.3390 C   0  0  2  0  0  3  0  0  0  0  0  0
  186.5110  176.8300  143.0860 O   0  0  0  0  0  0  0  0  0  0  0  0
  182.4410  178.7130  142.2290 C   0  0  0  0  0  1  0  0  0  0  0  0
  183.1560  178.2580  140.9710 C   0  0  1  0  0  0  0  0  0  0  0  0
  182.5550  178.2820  138.5270 C   0  0  0  0  0  0  0  0  0  0  0  0
  184.2790  179.2670  140.5990 C   0  0  2  0  0  3  0  0  0  0  0  0
  190.1700  176.3170  142.5360 C   0  0  0  0  0  1  0  0  0  0  0  0
  186.3790  178.0150  140.6720 C   0  0  1  0  0  3  0  0  0  0  0  0
  183.7390  178.6960  138.1980 N   0  0  0  0  0  0  0  0  0  0  0  0
  182.1740  178.1890  139.8990 N   0  0  0  0  0  2  0  0  0  0  0  0
  188.7500  176.6920  142.1730 C   0  0  2  0  0  3  0  0  0  0  0  0
  185.4840  179.0430  142.8980 C   0  0  0  0  0  0  0  0  0  0  0  0
  188.1900  178.5940  139.3100 C   0  0  0  0  0  0  0  0  0  0  0  0
  181.6050  177.9840  137.5120 N   0  0  0  0  0  1  0  0  0  0  0  0
  188.7060  178.1600  141.7620 C   0  0  0  0  0  2  0  0  0  0  0  0
  184.9850  180.1820  143.5460 C   0  0  0  0  0  3  0  0  0  0  0  0
  185.9320  178.0560  145.0810 C   0  0  0  0  0  3  0  0  0  0  0  0
  185.4130  179.1900  145.7070 C   0  0  0  0  0  3  0  0  0  0  0  0
  187.8410  176.4160  143.3680 C   0  0  0  0  0  2  0  0  0  0  0  0
  185.8940  178.0400  139.2120 C   0  0  1  0  0  3  0  0  0  0  0  0
  187.7900  178.3500  140.6420 N   0  0  0  0  0  0  0  0  0  0  0  0
  184.7770  179.0730  139.1590 C   0  0  2  0  0  3  0  0  0  0  0  0
  187.3820  177.3880  137.3280 C   0  0  0  0  0  1  0  0  0  0  0  0
  185.5790  179.0960  141.3880 C   0  0  2  0  0  3  0  0  0  0  0  0
  1 21  1  0  0  0  0
  3 17  2  0  0  0  0
  4 22  1  0  0  0  0
  5 27  1  6  0  0  0
  5 24  1  0  0  0  0
  5 17  1  0  0  0  0
  6 23  1  0  0  0  0
  6  1  1  0  0  0  0
  8  2  1  0  0  0  0
  8  7  1  1  0  0  0
  9 14  1  0  0  0  0
 10  8  1  0  0  0  0
 10 28  1  0  0  0  0
 12 28  1  0  0  0  0
 13  9  2  0  0  0  0
 13 26  1  0  0  0  0
 14  8  1  0  0  0  0
 15 11  1  0  0  0  0
 15 23  1  0  0  0  0
 16 20  1  0  0  0  0
 16  1  2  0  0  0  0
 17 25  1  0  0  0  0
 18  9  1  0  0  0  0
 19 15  1  0  0  0  0
 20  4  2  0  0  0  0
 21 22  2  0  0  0  0
 24 12  1  0  0  0  0
 25 12  1  0  0  0  0
 25 19  1  0  0  0  0
 26 24  1  0  0  0  0
 26 10  1  0  0  0  0
 28 16  1  0  0  0  0
M  END
>  <MODEL>
8

>  <REMARK>
 VINA RESULT:      -5.4      2.564      5.746
  Name = 
  0 active torsions:
  status: ('A' for Active; 'I' for Inactive)
                            x       y       z     vdW  Elec       q    Type
                         _______ _______ _______ _____ _____    ______ ____

>  <TORSDO>
F 0

$$$$
=
 OpenBabel11122411593D

 28 32  0  0  1  0  0  0  0  0999 V2000
  189.4590  174.8510  136.1120 C   0  0  0  0  0  0  0  0  0  0  0  0
  187.8730  176.4810  138.8160 O   0  0  0  0  0  1  0  0  0  0  0  0
  183.8980  173.7510  134.6140 O   0  0  0  0  0  0  0  0  0  0  0  0
  190.7920  176.8000  134.5990 C   0  0  0  0  0  3  0  0  0  0  0  0
  184.0120  175.3680  136.4130 C   0  0  2  0  0  3  0  0  0  0  0  0
  188.8170  173.8550  136.8470 O   0  0  0  0  0  0  0  0  0  0  0  0
  189.1060  178.2880  137.9010 C   0  0  0  0  0  1  0  0  0  0  0  0
  187.7290  177.7090  138.1630 C   0  0  1  0  0  0  0  0  0  0  0  0
  185.5930  178.6620  139.0930 C   0  0  0  0  0  0  0  0  0  0  0  0
  186.9530  177.5470  136.8260 C   0  0  2  0  0  3  0  0  0  0  0  0
  187.2130  170.8560  135.3030 C   0  0  0  0  0  1  0  0  0  0  0  0
  186.4750  175.1600  136.5930 C   0  0  1  0  0  3  0  0  0  0  0  0
  184.8850  178.0790  138.1770 N   0  0  0  0  0  0  0  0  0  0  0  0
  187.0190  178.6250  139.0420 N   0  0  0  0  0  2  0  0  0  0  0  0
  187.2750  172.2420  135.9080 C   0  0  2  0  0  3  0  0  0  0  0  0
  188.7820  176.0390  135.7440 C   0  0  0  0  0  0  0  0  0  0  0  0
  184.5830  174.4020  135.4470 C   0  0  0  0  0  0  0  0  0  0  0  0
  184.9450  179.4020  140.1190 N   0  0  0  0  0  1  0  0  0  0  0  0
  186.7850  173.2610  134.8840 C   0  0  0  0  0  2  0  0  0  0  0  0
  189.4610  176.9950  134.9740 C   0  0  0  0  0  3  0  0  0  0  0  0
  190.7920  174.6610  135.7200 C   0  0  0  0  0  3  0  0  0  0  0  0
  191.4570  175.6330  134.9720 C   0  0  0  0  0  3  0  0  0  0  0  0
  188.7090  172.5310  136.3440 C   0  0  0  0  0  2  0  0  0  0  0  0
  185.2380  175.8310  137.2120 C   0  0  1  0  0  3  0  0  0  0  0  0
  185.9880  174.2960  135.5350 N   0  0  0  0  0  0  0  0  0  0  0  0
  185.4500  177.3300  137.0520 C   0  0  2  0  0  3  0  0  0  0  0  0
  183.0450  174.6650  137.3440 C   0  0  0  0  0  1  0  0  0  0  0  0
  187.3160  176.2960  136.0230 C   0  0  2  0  0  3  0  0  0  0  0  0
  1  6  1  0  0  0  0
  3 17  2  0  0  0  0
  4 22  2  0  0  0  0
  4 20  1  0  0  0  0
  5 24  1  0  0  0  0
  5 27  1  1  0  0  0
  8  7  1  6  0  0  0
  8  2  1  0  0  0  0
  8 14  1  0  0  0  0
  9 18  1  0  0  0  0
 10 26  1  0  0  0  0
 10  8  1  0  0  0  0
 11 15  1  0  0  0  0
 12 24  1  0  0  0  0
 13  9  2  0  0  0  0
 14  9  1  0  0  0  0
 15 23  1  0  0  0  0
 16 28  1  0  0  0  0
 16  1  1  0  0  0  0
 17 25  1  0  0  0  0
 17  5  1  0  0  0  0
 19 25  1  0  0  0  0
 19 15  1  0  0  0  0
 20 16  2  0  0  0  0
 21  1  2  0  0  0  0
 22 21  1  0  0  0  0
 23  6  1  0  0  0  0
 25 12  1  0  0  0  0
 26 24  1  0  0  0  0
 26 13  1  0  0  0  0
 28 12  1  0  0  0  0
 28 10  1  0  0  0  0
M  END
>  <MODEL>
9

>  <REMARK>
 VINA RESULT:      -5.2      6.063      8.743
  Name = 
  0 active torsions:
  status: ('A' for Active; 'I' for Inactive)
                            x       y       z     vdW  Elec       q    Type
                         _______ _______ _______ _____ _____    ______ ____

>  <TORSDO>
F 0

$$$$
