=
 OpenBabel11122412243D

 34 40  0  0  1  0  0  0  0  0999 V2000
  184.9530  179.2190  142.7150 C   0  0  1  0  0  3  0  0  0  0  0  0
  186.3970  177.4400  143.5570 C   0  0  0  0  0  2  0  0  0  0  0  0
  181.4530  175.9870  138.5270 C   0  0  0  0  0  0  0  0  0  0  0  0
  182.7730  178.7630  141.6040 C   0  0  2  0  0  3  0  0  0  0  0  0
  182.7760  178.0400  139.1870 C   0  0  2  0  0  3  0  0  0  0  0  0
  182.8730  177.1450  136.7740 C   0  0  0  0  0  1  0  0  0  0  0  0
  181.9600  174.8770  138.2110 O   0  0  0  0  0  0  0  0  0  0  0  0
  179.6960  177.2470  139.7230 C   0  0  0  0  0  2  0  0  0  0  0  0
  187.1540  178.7020  141.7360 C   0  0  2  0  0  3  0  0  0  0  0  0
  189.4700  178.0160  139.9540 C   0  0  0  0  0  3  0  0  0  0  0  0
  184.2400  177.6100  139.3350 C   0  0  0  0  0  2  0  0  0  0  0  0
  180.5670  178.2600  140.4880 C   0  0  0  0  0  2  0  0  0  0  0  0
  186.4260  178.1200  140.4800 C   0  0  1  0  0  3  0  0  0  0  0  0
  187.7290  176.8310  143.1550 C   0  0  0  0  0  2  0  0  0  0  0  0
  182.0580  177.9080  140.5530 C   0  0  2  0  0  3  0  0  0  0  0  0
  180.3690  176.0260  139.4110 O   0  0  0  0  0  0  0  0  0  0  0  0
  189.0160  177.0470  140.9970 C   0  0  2  0  0  3  0  0  0  0  0  0
  184.2430  178.3300  141.7060 C   0  0  1  0  0  3  0  0  0  0  0  0
  182.0590  177.2770  138.0550 C   0  0  1  0  0  3  0  0  0  0  0  0
  184.9430  178.4900  140.3690 C   0  0  2  0  0  3  0  0  0  0  0  0
  182.6900  179.6330  143.6860 C   0  0  0  0  0  2  0  0  0  0  0  0
  188.6180  178.6820  139.1670 C   0  0  0  0  0  3  0  0  0  0  0  0
  182.1590  178.6210  142.8630 O   0  0  0  0  0  0  0  0  0  0  0  0
  187.1160  178.5150  139.1590 C   0  0  0  0  0  2  0  0  0  0  0  0
  188.3220  177.7940  142.1440 C   0  0  1  0  0  3  0  0  0  0  0  0
  184.1530  179.3290  144.0180 C   0  0  0  0  0  2  0  0  0  0  0  0
  186.3300  178.7700  142.9540 N   0  0  1  0  0  0  0  0  0  0  0  0
  190.1690  176.3230  141.5060 N   0  0  0  0  0  2  0  0  0  0  0  0
  191.2680  177.2720  141.5680 C   0  0  0  0  0  2  0  0  0  0  0  0
  190.7090  178.1260  144.7790 N   0  0  0  0  0  2  0  0  0  0  0  0
  191.3280  176.0750  143.7240 C   0  0  0  0  0  2  0  0  0  0  0  0
  191.9400  177.1990  142.9280 C   0  0  2  0  0  3  0  0  0  0  0  0
  190.8910  176.7050  145.0260 C   0  0  0  0  0  2  0  0  0  0  0  0
  191.6530  178.4610  143.7230 C   0  0  0  0  0  2  0  0  0  0  0  0
  1 27  1  0  0  0  0
  1 26  1  1  0  0  0
  3 16  1  0  0  0  0
  4 18  1  0  0  0  0
  4 23  1  1  0  0  0
  5 11  1  1  0  0  0
  5 15  1  0  0  0  0
  6 19  1  0  0  0  0
  7  3  2  0  0  0  0
  8 12  1  0  0  0  0
  9 25  1  0  0  0  0
  9 27  1  0  0  0  0
 10 17  1  0  0  0  0
 11 20  1  0  0  0  0
 12 15  1  0  0  0  0
 13  9  1  0  0  0  0
 14  2  1  0  0  0  0
 15  4  1  0  0  0  0
 16  8  1  0  0  0  0
 17 28  1  0  0  0  0
 17 25  1  0  0  0  0
 18  1  1  0  0  0  0
 19  3  1  0  0  0  0
 19  5  1  0  0  0  0
 20 13  1  0  0  0  0
 20 18  1  0  0  0  0
 21 26  1  0  0  0  0
 22 10  2  0  0  0  0
 23 21  1  0  0  0  0
 24 22  1  0  0  0  0
 24 13  1  0  0  0  0
 25 14  1  0  0  0  0
 27  2  1  0  0  0  0
 28 29  1  0  0  0  0
 29 32  1  0  0  0  0
 30 33  1  0  0  0  0
 31 33  1  0  0  0  0
 32 34  1  0  0  0  0
 32 31  1  0  0  0  0
 34 30  1  0  0  0  0
M  END
>  <MODEL>
1

>  <REMARK>
 VINA RESULT:      -7.6      0.000      0.000
  Name = 
  3 active torsions:
  status: ('A' for Active; 'I' for Inactive)
    1  A    between atoms: C_17  and  N_28
    2  A    between atoms: N_28  and  C_29
    3  A    between atoms: C_29  and  C_32
                            x       y       z     vdW  Elec       q    Type
                         _______ _______ _______ _____ _____    ______ ____

>  <TORSDO>
F 3

$$$$
=
 OpenBabel11122412243D

 34 40  0  0  1  0  0  0  0  0999 V2000
  187.4060  178.6280  140.9360 C   0  0  1  0  0  3  0  0  0  0  0  0
  187.0630  177.1220  142.8270 C   0  0  0  0  0  2  0  0  0  0  0  0
  189.9520  174.6320  136.7180 C   0  0  0  0  0  0  0  0  0  0  0  0
  187.6530  177.8100  138.5980 C   0  0  2  0  0  3  0  0  0  0  0  0
  189.8840  176.8840  137.8710 C   0  0  2  0  0  3  0  0  0  0  0  0
  192.1380  175.7990  137.2580 C   0  0  0  0  0  1  0  0  0  0  0  0
  190.3840  173.5710  137.2420 O   0  0  0  0  0  0  0  0  0  0  0  0
  188.2590  175.7650  135.3190 C   0  0  0  0  0  2  0  0  0  0  0  0
  189.0820  178.3040  142.7140 C   0  0  2  0  0  3  0  0  0  0  0  0
  191.5410  177.7550  144.3430 C   0  0  0  0  0  3  0  0  0  0  0  0
  190.2490  176.6530  139.3430 C   0  0  0  0  0  2  0  0  0  0  0  0
  187.8940  176.9420  136.2420 C   0  0  0  0  0  2  0  0  0  0  0  0
  189.9740  177.5280  141.6900 C   0  0  1  0  0  3  0  0  0  0  0  0
  187.8880  176.6500  144.0110 C   0  0  0  0  0  2  0  0  0  0  0  0
  188.3480  176.7840  137.6980 C   0  0  2  0  0  3  0  0  0  0  0  0
  188.7430  174.6150  136.0140 O   0  0  0  0  0  0  0  0  0  0  0  0
  190.3680  176.8330  144.4260 C   0  0  2  0  0  3  0  0  0  0  0  0
  188.0630  177.5730  140.0600 C   0  0  1  0  0  3  0  0  0  0  0  0
  190.6570  175.9410  136.9270 C   0  0  1  0  0  3  0  0  0  0  0  0
  189.5660  177.7010  140.2230 C   0  0  2  0  0  3  0  0  0  0  0  0
  185.7130  178.8430  139.1140 C   0  0  0  0  0  2  0  0  0  0  0  0
  192.0000  178.2390  143.1840 C   0  0  0  0  0  3  0  0  0  0  0  0
  186.2540  177.7040  138.4860 O   0  0  0  0  0  0  0  0  0  0  0  0
  191.4680  177.8870  141.8140 C   0  0  0  0  0  2  0  0  0  0  0  0
  189.0800  177.5860  144.0700 C   0  0  1  0  0  3  0  0  0  0  0  0
  185.9090  178.7520  140.6290 C   0  0  0  0  0  2  0  0  0  0  0  0
  187.6540  178.3760  142.3610 N   0  0  1  0  0  0  0  0  0  0  0  0
  190.2740  176.3040  145.7770 N   0  0  0  0  0  2  0  0  0  0  0  0
  190.5600  177.4060  146.6800 C   0  0  0  0  0  2  0  0  0  0  0  0
  187.9030  178.7690  148.2420 N   0  0  0  0  0  2  0  0  0  0  0  0
  188.4680  176.5260  147.6470 C   0  0  0  0  0  2  0  0  0  0  0  0
  189.7530  177.2520  147.9570 C   0  0  2  0  0  3  0  0  0  0  0  0
  187.3710  177.4170  148.1820 C   0  0  0  0  0  2  0  0  0  0  0  0
  189.3300  178.6150  148.4790 C   0  0  0  0  0  2  0  0  0  0  0  0
  1 26  1  1  0  0  0
  1 27  1  0  0  0  0
  2 14  1  0  0  0  0
  3 19  1  0  0  0  0
  3  7  2  0  0  0  0
  4 23  1  1  0  0  0
  4 18  1  0  0  0  0
  5 11  1  1  0  0  0
  8 16  1  0  0  0  0
  8 12  1  0  0  0  0
  9 25  1  0  0  0  0
 10 17  1  0  0  0  0
 11 20  1  0  0  0  0
 12 15  1  0  0  0  0
 13 24  1  0  0  0  0
 13  9  1  0  0  0  0
 14 25  1  0  0  0  0
 15  5  1  0  0  0  0
 15  4  1  0  0  0  0
 16  3  1  0  0  0  0
 17 28  1  0  0  0  0
 18 20  1  0  0  0  0
 18  1  1  0  0  0  0
 19  6  1  0  0  0  0
 19  5  1  0  0  0  0
 20 13  1  0  0  0  0
 21 26  1  0  0  0  0
 22 10  2  0  0  0  0
 23 21  1  0  0  0  0
 24 22  1  0  0  0  0
 25 17  1  0  0  0  0
 27  9  1  0  0  0  0
 27  2  1  0  0  0  0
 28 29  1  0  0  0  0
 29 32  1  0  0  0  0
 30 34  1  0  0  0  0
 31 32  1  0  0  0  0
 31 33  1  0  0  0  0
 32 34  1  0  0  0  0
 33 30  1  0  0  0  0
M  END
>  <MODEL>
2

>  <REMARK>
 VINA RESULT:      -7.4      3.287      5.846
  Name = 
  3 active torsions:
  status: ('A' for Active; 'I' for Inactive)
    1  A    between atoms: C_17  and  N_28
    2  A    between atoms: N_28  and  C_29
    3  A    between atoms: C_29  and  C_32
                            x       y       z     vdW  Elec       q    Type
                         _______ _______ _______ _____ _____    ______ ____

>  <TORSDO>
F 3

$$$$
=
 OpenBabel11122412243D

 34 40  0  0  1  0  0  0  0  0999 V2000
  181.1360  178.4620  137.1780 C   0  0  1  0  0  3  0  0  0  0  0  0
  183.3130  178.1750  138.2440 C   0  0  0  0  0  2  0  0  0  0  0  0
  180.8050  184.7910  136.9030 C   0  0  0  0  0  0  0  0  0  0  0  0
  180.4900  180.5500  135.9870 C   0  0  2  0  0  3  0  0  0  0  0  0
  179.7440  182.5380  137.3510 C   0  0  2  0  0  3  0  0  0  0  0  0
  179.1570  184.5710  138.8180 C   0  0  0  0  0  1  0  0  0  0  0  0
  181.6260  185.3620  137.6690 O   0  0  0  0  0  0  0  0  0  0  0  0
  180.1170  184.1910  134.6060 C   0  0  0  0  0  2  0  0  0  0  0  0
  181.4210  178.2770  139.6190 C   0  0  2  0  0  3  0  0  0  0  0  0
  181.4210  178.6560  142.5960 C   0  0  0  0  0  3  0  0  0  0  0  0
  180.4450  181.9390  138.5760 C   0  0  0  0  0  2  0  0  0  0  0  0
  179.8760  182.6810  134.7850 C   0  0  0  0  0  2  0  0  0  0  0  0
  181.0660  179.7960  139.7460 C   0  0  1  0  0  3  0  0  0  0  0  0
  183.8310  178.1050  139.6690 C   0  0  0  0  0  2  0  0  0  0  0  0
  180.4740  182.0800  136.0630 C   0  0  2  0  0  3  0  0  0  0  0  0
  181.0620  184.7390  135.5290 O   0  0  0  0  0  0  0  0  0  0  0  0
  182.7020  178.7460  141.8310 C   0  0  2  0  0  3  0  0  0  0  0  0
  181.1700  179.9810  137.2420 C   0  0  1  0  0  3  0  0  0  0  0  0
  179.6070  184.0700  137.4510 C   0  0  1  0  0  3  0  0  0  0  0  0
  180.4300  180.4120  138.4950 C   0  0  2  0  0  3  0  0  0  0  0  0
  180.9170  178.7400  134.7070 C   0  0  0  0  0  2  0  0  0  0  0  0
  180.2880  179.2310  142.1780 C   0  0  0  0  0  3  0  0  0  0  0  0
  181.1880  180.1160  134.8440 O   0  0  0  0  0  0  0  0  0  0  0  0
  180.1430  180.0910  140.9450 C   0  0  0  0  0  2  0  0  0  0  0  0
  182.5990  177.9270  140.5360 C   0  0  1  0  0  3  0  0  0  0  0  0
  181.6180  177.9520  135.8160 C   0  0  0  0  0  2  0  0  0  0  0  0
  181.8870  177.8590  138.2860 N   0  0  1  0  0  0  0  0  0  0  0  0
  183.7850  178.2330  142.6540 N   0  0  0  0  0  2  0  0  0  0  0  0
  183.7410  178.9650  143.9090 C   0  0  0  0  0  2  0  0  0  0  0  0
  185.9230  177.7060  146.1470 N   0  0  0  0  0  2  0  0  0  0  0  0
  186.0770  178.1780  143.8110 C   0  0  0  0  0  2  0  0  0  0  0  0
  185.1500  179.2000  144.4220 C   0  0  2  0  0  3  0  0  0  0  0  0
  186.7740  177.5270  144.9820 C   0  0  0  0  0  2  0  0  0  0  0  0
  185.2120  178.9550  145.9200 C   0  0  0  0  0  2  0  0  0  0  0  0
  1 26  1  6  0  0  0
  1 18  1  0  0  0  0
  1 27  1  0  0  0  0
  2 27  1  0  0  0  0
  2 14  1  0  0  0  0
  3 19  1  0  0  0  0
  3  7  2  0  0  0  0
  4 23  1  6  0  0  0
  4 15  1  0  0  0  0
  4 18  1  0  0  0  0
  5 19  1  0  0  0  0
  5 11  1  1  0  0  0
  8 12  1  0  0  0  0
  8 16  1  0  0  0  0
  9 13  1  0  0  0  0
  9 25  1  0  0  0  0
 12 15  1  0  0  0  0
 13 24  1  0  0  0  0
 14 25  1  0  0  0  0
 15  5  1  0  0  0  0
 16  3  1  0  0  0  0
 17 10  1  0  0  0  0
 17 28  1  0  0  0  0
 18 20  1  0  0  0  0
 19  6  1  0  0  0  0
 20 11  1  0  0  0  0
 20 13  1  0  0  0  0
 21 23  1  0  0  0  0
 21 26  1  0  0  0  0
 22 10  2  0  0  0  0
 24 22  1  0  0  0  0
 25 17  1  0  0  0  0
 27  9  1  0  0  0  0
 28 29  1  0  0  0  0
 29 32  1  0  0  0  0
 31 32  1  0  0  0  0
 31 33  1  0  0  0  0
 32 34  1  0  0  0  0
 33 30  1  0  0  0  0
 34 30  1  0  0  0  0
M  END
>  <MODEL>
3

>  <REMARK>
 VINA RESULT:      -7.3      4.424      7.199
  Name = 
  3 active torsions:
  status: ('A' for Active; 'I' for Inactive)
    1  A    between atoms: C_17  and  N_28
    2  A    between atoms: N_28  and  C_29
    3  A    between atoms: C_29  and  C_32
                            x       y       z     vdW  Elec       q    Type
                         _______ _______ _______ _____ _____    ______ ____

>  <TORSDO>
F 3

$$$$
=
 OpenBabel11122412243D

 34 40  0  0  1  0  0  0  0  0999 V2000
  186.9530  178.7410  140.8100 C   0  0  1  0  0  3  0  0  0  0  0  0
  187.2440  177.0740  142.5700 C   0  0  0  0  0  2  0  0  0  0  0  0
  186.8830  175.0100  135.6790 C   0  0  0  0  0  0  0  0  0  0  0  0
  186.0660  178.1700  138.5550 C   0  0  2  0  0  3  0  0  0  0  0  0
  187.6240  177.1140  136.8750 C   0  0  2  0  0  3  0  0  0  0  0  0
  189.2290  175.8870  135.2780 C   0  0  0  0  0  1  0  0  0  0  0  0
  187.3470  173.8600  135.9000 O   0  0  0  0  0  0  0  0  0  0  0  0
  184.9300  176.4550  135.2270 C   0  0  0  0  0  2  0  0  0  0  0  0
  189.1640  178.0550  141.6550 C   0  0  2  0  0  3  0  0  0  0  0  0
  191.9820  177.0870  142.0130 C   0  0  0  0  0  3  0  0  0  0  0  0
  188.5450  176.6850  138.0240 C   0  0  0  0  0  2  0  0  0  0  0  0
  185.1590  177.5520  136.2850 C   0  0  0  0  0  2  0  0  0  0  0  0
  189.4190  177.3150  140.3010 C   0  0  1  0  0  3  0  0  0  0  0  0
  188.4210  176.3930  143.2450 C   0  0  0  0  0  2  0  0  0  0  0  0
  186.1630  177.1870  137.3850 C   0  0  2  0  0  3  0  0  0  0  0  0
  185.5000  175.1920  135.5740 O   0  0  0  0  0  0  0  0  0  0  0  0
  190.8410  176.2810  142.5460 C   0  0  2  0  0  3  0  0  0  0  0  0
  187.0220  177.7310  139.6750 C   0  0  1  0  0  3  0  0  0  0  0  0
  187.7840  176.2120  135.6350 C   0  0  1  0  0  3  0  0  0  0  0  0
  188.4530  177.6900  139.1720 C   0  0  2  0  0  3  0  0  0  0  0  0
  184.6930  179.3250  139.9250 C   0  0  0  0  0  2  0  0  0  0  0  0
  191.9650  177.6500  140.8000 C   0  0  0  0  0  3  0  0  0  0  0  0
  184.7520  178.2160  139.0590 O   0  0  0  0  0  0  0  0  0  0  0  0
  190.8580  177.5080  139.7820 C   0  0  0  0  0  2  0  0  0  0  0  0
  189.6410  177.1940  142.8320 C   0  0  1  0  0  3  0  0  0  0  0  0
  185.5020  179.0460  141.1950 C   0  0  0  0  0  2  0  0  0  0  0  0
  187.7470  178.3070  141.9660 N   0  0  1  0  0  0  0  0  0  0  0  0
  191.2590  175.6170  143.7700 N   0  0  0  0  0  2  0  0  0  0  0  0
  191.4560  176.6560  144.7660 C   0  0  0  0  0  2  0  0  0  0  0  0
  191.7170  177.3170  148.0600 N   0  0  0  0  0  2  0  0  0  0  0  0
  189.8650  177.2560  146.5540 C   0  0  0  0  0  2  0  0  0  0  0  0
  190.8610  176.2210  146.0940 C   0  0  2  0  0  3  0  0  0  0  0  0
  190.3020  177.6310  147.9510 C   0  0  0  0  0  2  0  0  0  0  0  0
  191.9360  176.1900  147.1660 C   0  0  0  0  0  2  0  0  0  0  0  0
  1 26  1  1  0  0  0
  1 27  1  0  0  0  0
  2 14  1  0  0  0  0
  3  7  2  0  0  0  0
  4 23  1  1  0  0  0
  4 18  1  0  0  0  0
  5 15  1  0  0  0  0
  5 11  1  1  0  0  0
  6 19  1  0  0  0  0
  8 16  1  0  0  0  0
  8 12  1  0  0  0  0
  9 27  1  0  0  0  0
  9 25  1  0  0  0  0
 10 17  1  0  0  0  0
 11 20  1  0  0  0  0
 12 15  1  0  0  0  0
 13  9  1  0  0  0  0
 15  4  1  0  0  0  0
 16  3  1  0  0  0  0
 17 25  1  0  0  0  0
 17 28  1  0  0  0  0
 18  1  1  0  0  0  0
 19  3  1  0  0  0  0
 19  5  1  0  0  0  0
 20 18  1  0  0  0  0
 20 13  1  0  0  0  0
 21 26  1  0  0  0  0
 22 10  2  0  0  0  0
 23 21  1  0  0  0  0
 24 13  1  0  0  0  0
 24 22  1  0  0  0  0
 25 14  1  0  0  0  0
 27  2  1  0  0  0  0
 28 29  1  0  0  0  0
 29 32  1  0  0  0  0
 31 33  1  0  0  0  0
 32 31  1  0  0  0  0
 32 34  1  0  0  0  0
 33 30  1  0  0  0  0
 34 30  1  0  0  0  0
M  END
>  <MODEL>
4

>  <REMARK>
 VINA RESULT:      -7.2      2.669      4.273
  Name = 
  3 active torsions:
  status: ('A' for Active; 'I' for Inactive)
    1  A    between atoms: C_17  and  N_28
    2  A    between atoms: N_28  and  C_29
    3  A    between atoms: C_29  and  C_32
                            x       y       z     vdW  Elec       q    Type
                         _______ _______ _______ _____ _____    ______ ____

>  <TORSDO>
F 3

$$$$
=
 OpenBabel11122412243D

 34 40  0  0  1  0  0  0  0  0999 V2000
  191.7030  176.8100  138.2560 C   0  0  1  0  0  3  0  0  0  0  0  0
  191.2270  174.5400  137.4940 C   0  0  0  0  0  2  0  0  0  0  0  0
  188.4110  176.9260  143.6780 C   0  0  0  0  0  0  0  0  0  0  0  0
  191.4650  177.5030  140.6350 C   0  0  2  0  0  3  0  0  0  0  0  0
  189.1590  178.0170  141.5210 C   0  0  2  0  0  3  0  0  0  0  0  0
  186.7600  178.3580  142.3920 C   0  0  0  0  0  1  0  0  0  0  0  0
  187.5560  176.0030  143.7560 O   0  0  0  0  0  0  0  0  0  0  0  0
  190.5620  177.8870  144.4230 C   0  0  0  0  0  2  0  0  0  0  0  0
  189.8170  176.2630  136.7670 C   0  0  2  0  0  3  0  0  0  0  0  0
  187.1460  175.9180  135.4430 C   0  0  0  0  0  3  0  0  0  0  0  0
  188.5550  177.2070  140.3670 C   0  0  0  0  0  2  0  0  0  0  0  0
  191.2180  178.1640  143.0570 C   0  0  0  0  0  2  0  0  0  0  0  0
  188.8370  176.5430  137.9530 C   0  0  1  0  0  3  0  0  0  0  0  0
  190.1450  173.8700  136.6650 C   0  0  0  0  0  2  0  0  0  0  0  0
  190.5590  177.4520  141.8690 C   0  0  2  0  0  3  0  0  0  0  0  0
  189.6050  176.8250  144.3990 O   0  0  0  0  0  0  0  0  0  0  0  0
  187.8760  174.7270  135.9770 C   0  0  2  0  0  3  0  0  0  0  0  0
  190.8180  176.7100  139.4890 C   0  0  1  0  0  3  0  0  0  0  0  0
  188.2180  178.0830  142.7400 C   0  0  1  0  0  3  0  0  0  0  0  0
  189.4600  177.2890  139.1380 C   0  0  2  0  0  3  0  0  0  0  0  0
  193.5690  177.2900  139.8430 C   0  0  0  0  0  2  0  0  0  0  0  0
  187.0470  177.0670  136.1190 C   0  0  0  0  0  3  0  0  0  0  0  0
  192.7290  176.9530  140.9230 O   0  0  0  0  0  0  0  0  0  0  0  0
  187.5780  177.3150  137.5120 C   0  0  0  0  0  2  0  0  0  0  0  0
  189.3850  175.0040  136.0040 C   0  0  1  0  0  3  0  0  0  0  0  0
  193.1650  176.5010  138.5950 C   0  0  0  0  0  2  0  0  0  0  0  0
  191.2030  175.9640  137.1650 N   0  0  1  0  0  0  0  0  0  0  0  0
  187.5990  173.5800  135.1270 N   0  0  0  0  0  2  0  0  0  0  0  0
  186.1660  173.3450  135.1920 C   0  0  0  0  0  2  0  0  0  0  0  0
  183.6820  172.3080  137.2180 N   0  0  0  0  0  2  0  0  0  0  0  0
  184.9950  171.2050  135.5560 C   0  0  0  0  0  2  0  0  0  0  0  0
  185.8660  172.2530  136.2030 C   0  0  2  0  0  3  0  0  0  0  0  0
  183.7980  171.0680  136.4680 C   0  0  0  0  0  2  0  0  0  0  0  0
  185.0410  172.8110  137.3500 C   0  0  0  0  0  2  0  0  0  0  0  0
  1 26  1  1  0  0  0
  1 18  1  0  0  0  0
  3  7  2  0  0  0  0
  3 16  1  0  0  0  0
  4 23  1  1  0  0  0
  4 15  1  0  0  0  0
  5 11  1  6  0  0  0
  5 15  1  0  0  0  0
  5 19  1  0  0  0  0
  6 19  1  0  0  0  0
  9 27  1  0  0  0  0
  9 13  1  0  0  0  0
 10 17  1  0  0  0  0
 10 22  2  0  0  0  0
 12  8  1  0  0  0  0
 13 20  1  0  0  0  0
 14  2  1  0  0  0  0
 15 12  1  0  0  0  0
 16  8  1  0  0  0  0
 17 25  1  0  0  0  0
 18  4  1  0  0  0  0
 19  3  1  0  0  0  0
 20 18  1  0  0  0  0
 20 11  1  0  0  0  0
 21 23  1  0  0  0  0
 22 24  1  0  0  0  0
 24 13  1  0  0  0  0
 25 14  1  0  0  0  0
 25  9  1  0  0  0  0
 26 21  1  0  0  0  0
 27  2  1  0  0  0  0
 27  1  1  0  0  0  0
 28 29  1  0  0  0  0
 28 17  1  0  0  0  0
 29 32  1  0  0  0  0
 30 34  1  0  0  0  0
 31 32  1  0  0  0  0
 31 33  1  0  0  0  0
 32 34  1  0  0  0  0
 33 30  1  0  0  0  0
M  END
>  <MODEL>
5

>  <REMARK>
 VINA RESULT:      -6.9      4.618      8.600
  Name = 
  3 active torsions:
  status: ('A' for Active; 'I' for Inactive)
    1  A    between atoms: C_17  and  N_28
    2  A    between atoms: N_28  and  C_29
    3  A    between atoms: C_29  and  C_32
                            x       y       z     vdW  Elec       q    Type
                         _______ _______ _______ _____ _____    ______ ____

>  <TORSDO>
F 3

$$$$
=
 OpenBabel11122412243D

 34 40  0  0  1  0  0  0  0  0999 V2000
  190.5620  176.2910  136.5170 C   0  0  1  0  0  3  0  0  0  0  0  0
  189.4780  174.1700  135.9810 C   0  0  0  0  0  2  0  0  0  0  0  0
  189.2390  176.7380  142.7050 C   0  0  0  0  0  0  0  0  0  0  0  0
  191.2190  176.9130  138.8360 C   0  0  2  0  0  3  0  0  0  0  0  0
  189.4420  177.7750  140.4060 C   0  0  2  0  0  3  0  0  0  0  0  0
  187.5430  178.4850  141.9940 C   0  0  0  0  0  1  0  0  0  0  0  0
  188.3050  175.9730  143.0670 O   0  0  0  0  0  0  0  0  0  0  0  0
  191.6490  177.2850  142.7070 C   0  0  0  0  0  2  0  0  0  0  0  0
  188.2360  176.1380  135.7180 C   0  0  2  0  0  3  0  0  0  0  0  0
  185.2660  176.3110  135.3250 C   0  0  0  0  0  3  0  0  0  0  0  0
  188.3700  177.1310  139.5190 C   0  0  0  0  0  2  0  0  0  0  0  0
  191.8740  177.5040  141.1990 C   0  0  0  0  0  2  0  0  0  0  0  0
  187.7490  176.5310  137.1520 C   0  0  1  0  0  3  0  0  0  0  0  0
  188.0900  173.7310  135.5530 C   0  0  0  0  0  2  0  0  0  0  0  0
  190.7580  176.9650  140.2960 C   0  0  2  0  0  3  0  0  0  0  0  0
  190.5630  176.4050  143.0070 O   0  0  0  0  0  0  0  0  0  0  0  0
  185.9070  174.9910  135.6150 C   0  0  2  0  0  3  0  0  0  0  0  0
  190.1120  176.2920  137.9700 C   0  0  1  0  0  3  0  0  0  0  0  0
  188.9640  177.9500  141.8610 C   0  0  1  0  0  3  0  0  0  0  0  0
  188.8370  177.1090  138.0630 C   0  0  2  0  0  3  0  0  0  0  0  0
  192.8900  176.3780  137.4150 C   0  0  0  0  0  2  0  0  0  0  0  0
  185.5900  177.4310  135.9810 C   0  0  0  0  0  3  0  0  0  0  0  0
  192.3920  176.1440  138.7120 O   0  0  0  0  0  0  0  0  0  0  0  0
  186.5710  177.5250  137.1260 C   0  0  0  0  0  2  0  0  0  0  0  0
  187.3700  175.0050  135.1530 C   0  0  1  0  0  3  0  0  0  0  0  0
  191.9790  175.7230  136.3750 C   0  0  0  0  0  2  0  0  0  0  0  0
  189.6020  175.5900  135.6560 N   0  0  1  0  0  0  0  0  0  0  0  0
  185.1780  173.9460  134.9160 N   0  0  0  0  0  2  0  0  0  0  0  0
  184.1580  173.4600  135.8310 C   0  0  0  0  0  2  0  0  0  0  0  0
  183.1920  170.2330  135.8990 N   0  0  0  0  0  2  0  0  0  0  0  0
  185.2550  171.3030  135.3520 C   0  0  0  0  0  2  0  0  0  0  0  0
  184.5840  172.1280  136.4220 C   0  0  2  0  0  3  0  0  0  0  0  0
  184.5120  169.9880  135.3440 C   0  0  0  0  0  2  0  0  0  0  0  0
  183.3650  171.3270  136.8430 C   0  0  0  0  0  2  0  0  0  0  0  0
  1 26  1  1  0  0  0
  1 18  1  0  0  0  0
  3 16  1  0  0  0  0
  3  7  2  0  0  0  0
  4 23  1  1  0  0  0
  4 15  1  0  0  0  0
  5 11  1  6  0  0  0
  5 19  1  0  0  0  0
  8 16  1  0  0  0  0
  9 13  1  0  0  0  0
 10 17  1  0  0  0  0
 10 22  2  0  0  0  0
 12  8  1  0  0  0  0
 13 20  1  0  0  0  0
 14  2  1  0  0  0  0
 15  5  1  0  0  0  0
 15 12  1  0  0  0  0
 18 20  1  0  0  0  0
 18  4  1  0  0  0  0
 19  6  1  0  0  0  0
 19  3  1  0  0  0  0
 20 11  1  0  0  0  0
 21 23  1  0  0  0  0
 22 24  1  0  0  0  0
 24 13  1  0  0  0  0
 25 14  1  0  0  0  0
 25 17  1  0  0  0  0
 25  9  1  0  0  0  0
 26 21  1  0  0  0  0
 27  9  1  0  0  0  0
 27  2  1  0  0  0  0
 27  1  1  0  0  0  0
 28 17  1  0  0  0  0
 28 29  1  0  0  0  0
 29 32  1  0  0  0  0
 30 34  1  0  0  0  0
 31 32  1  0  0  0  0
 32 34  1  0  0  0  0
 33 31  1  0  0  0  0
 33 30  1  0  0  0  0
M  END
>  <MODEL>
6

>  <REMARK>
 VINA RESULT:      -6.9      5.064      9.172
  Name = 
  3 active torsions:
  status: ('A' for Active; 'I' for Inactive)
    1  A    between atoms: C_17  and  N_28
    2  A    between atoms: N_28  and  C_29
    3  A    between atoms: C_29  and  C_32
                            x       y       z     vdW  Elec       q    Type
                         _______ _______ _______ _____ _____    ______ ____

>  <TORSDO>
F 3

$$$$
=
 OpenBabel11122412243D

 34 40  0  0  1  0  0  0  0  0999 V2000
  183.5530  179.4220  139.0230 C   0  0  1  0  0  3  0  0  0  0  0  0
  183.7500  178.5330  141.2880 C   0  0  0  0  0  2  0  0  0  0  0  0
  183.7750  174.0550  135.6480 C   0  0  0  0  0  0  0  0  0  0  0  0
  182.7930  178.0360  137.1000 C   0  0  2  0  0  3  0  0  0  0  0  0
  184.4440  176.4680  136.0130 C   0  0  2  0  0  3  0  0  0  0  0  0
  186.1380  174.7730  135.0690 C   0  0  0  0  0  1  0  0  0  0  0  0
  184.2280  173.0790  136.3030 O   0  0  0  0  0  0  0  0  0  0  0  0
  181.8470  175.1850  134.5940 C   0  0  0  0  0  2  0  0  0  0  0  0
  185.7150  179.1490  140.1730 C   0  0  2  0  0  3  0  0  0  0  0  0
  188.5110  178.4460  141.0070 C   0  0  0  0  0  3  0  0  0  0  0  0
  185.3010  176.5170  137.2840 C   0  0  0  0  0  2  0  0  0  0  0  0
  182.0140  176.6000  135.1790 C   0  0  0  0  0  2  0  0  0  0  0  0
  186.0470  177.9650  139.2060 C   0  0  1  0  0  3  0  0  0  0  0  0
  184.8890  178.1780  142.2270 C   0  0  0  0  0  2  0  0  0  0  0  0
  182.9560  176.6920  136.3850 C   0  0  2  0  0  3  0  0  0  0  0  0
  182.4000  174.1530  135.4130 O   0  0  0  0  0  0  0  0  0  0  0  0
  187.3440  177.8700  141.7420 C   0  0  2  0  0  3  0  0  0  0  0  0
  183.6870  178.0650  138.3490 C   0  0  1  0  0  3  0  0  0  0  0  0
  184.6740  175.1750  135.2070 C   0  0  1  0  0  3  0  0  0  0  0  0
  185.1430  177.8740  137.9710 C   0  0  2  0  0  3  0  0  0  0  0  0
  181.3440  179.5860  137.8720 C   0  0  0  0  0  2  0  0  0  0  0  0
  188.5600  178.5190  139.6720 C   0  0  0  0  0  3  0  0  0  0  0  0
  181.4530  178.2360  137.4840 O   0  0  0  0  0  0  0  0  0  0  0  0
  187.5110  177.9850  138.7250 C   0  0  0  0  0  2  0  0  0  0  0  0
  186.1280  178.7960  141.6080 C   0  0  1  0  0  3  0  0  0  0  0  0
  182.0810  179.8150  139.1930 C   0  0  0  0  0  2  0  0  0  0  0  0
  184.2820  179.4660  140.2960 N   0  0  1  0  0  0  0  0  0  0  0  0
  187.6950  177.7160  143.1440 N   0  0  0  0  0  2  0  0  0  0  0  0
  188.4550  176.4820  143.2550 C   0  0  0  0  0  2  0  0  0  0  0  0
  191.6570  177.5170  143.1040 N   0  0  0  0  0  2  0  0  0  0  0  0
  189.8000  178.1620  144.4590 C   0  0  0  0  0  2  0  0  0  0  0  0
  189.6560  176.6910  144.1590 C   0  0  2  0  0  3  0  0  0  0  0  0
  191.2210  178.5060  144.0750 C   0  0  0  0  0  2  0  0  0  0  0  0
  190.9330  176.3000  143.4360 C   0  0  0  0  0  2  0  0  0  0  0  0
  1 26  1  1  0  0  0
  1 27  1  0  0  0  0
  2 14  1  0  0  0  0
  3  7  2  0  0  0  0
  4 23  1  1  0  0  0
  4 18  1  0  0  0  0
  5 15  1  0  0  0  0
  5 11  1  1  0  0  0
  6 19  1  0  0  0  0
  8 12  1  0  0  0  0
  8 16  1  0  0  0  0
  9 27  1  0  0  0  0
  9 25  1  0  0  0  0
 10 17  1  0  0  0  0
 11 20  1  0  0  0  0
 12 15  1  0  0  0  0
 13  9  1  0  0  0  0
 15  4  1  0  0  0  0
 16  3  1  0  0  0  0
 17 28  1  0  0  0  0
 18  1  1  0  0  0  0
 19  3  1  0  0  0  0
 19  5  1  0  0  0  0
 20 18  1  0  0  0  0
 20 13  1  0  0  0  0
 21 26  1  0  0  0  0
 22 10  2  0  0  0  0
 23 21  1  0  0  0  0
 24 13  1  0  0  0  0
 24 22  1  0  0  0  0
 25 17  1  0  0  0  0
 25 14  1  0  0  0  0
 27  2  1  0  0  0  0
 28 29  1  0  0  0  0
 29 32  1  0  0  0  0
 30 34  1  0  0  0  0
 30 33  1  0  0  0  0
 32 31  1  0  0  0  0
 33 31  1  0  0  0  0
 34 32  1  0  0  0  0
M  END
>  <MODEL>
7

>  <REMARK>
 VINA RESULT:      -6.9      2.070      3.655
  Name = 
  3 active torsions:
  status: ('A' for Active; 'I' for Inactive)
    1  A    between atoms: C_17  and  N_28
    2  A    between atoms: N_28  and  C_29
    3  A    between atoms: C_29  and  C_32
                            x       y       z     vdW  Elec       q    Type
                         _______ _______ _______ _____ _____    ______ ____

>  <TORSDO>
F 3

$$$$
=
 OpenBabel11122412243D

 34 40  0  0  1  0  0  0  0  0999 V2000
  185.6760  179.2280  142.4680 C   0  0  1  0  0  3  0  0  0  0  0  0
  187.2540  177.4120  142.8840 C   0  0  0  0  0  2  0  0  0  0  0  0
  181.2770  176.1830  139.0590 C   0  0  0  0  0  0  0  0  0  0  0  0
  183.2950  178.8240  141.8660 C   0  0  2  0  0  3  0  0  0  0  0  0
  182.7390  178.2040  139.4840 C   0  0  2  0  0  3  0  0  0  0  0  0
  182.2730  177.4130  137.0780 C   0  0  0  0  0  1  0  0  0  0  0  0
  181.6870  175.0870  138.5910 O   0  0  0  0  0  0  0  0  0  0  0  0
  179.8530  177.3940  140.6770 C   0  0  0  0  0  2  0  0  0  0  0  0
  187.5900  178.7500  140.9910 C   0  0  2  0  0  3  0  0  0  0  0  0
  189.4300  178.1370  138.7010 C   0  0  0  0  0  3  0  0  0  0  0  0
  184.1930  177.7660  139.2760 C   0  0  0  0  0  2  0  0  0  0  0  0
  180.8880  178.3720  141.2630 C   0  0  0  0  0  2  0  0  0  0  0  0
  186.5880  178.2240  139.9120 C   0  0  1  0  0  3  0  0  0  0  0  0
  188.4520  176.8190  142.1630 C   0  0  0  0  0  2  0  0  0  0  0  0
  182.3500  178.0150  140.9720 C   0  0  2  0  0  3  0  0  0  0  0  0
  180.4240  176.1860  140.1680 O   0  0  0  0  0  0  0  0  0  0  0  0
  189.2160  177.1250  139.7800 C   0  0  2  0  0  3  0  0  0  0  0  0
  184.7450  178.3840  141.6110 C   0  0  1  0  0  3  0  0  0  0  0  0
  181.7740  177.4920  138.5160 C   0  0  1  0  0  3  0  0  0  0  0  0
  185.1230  178.6000  140.1580 C   0  0  2  0  0  3  0  0  0  0  0  0
  183.6990  179.6040  143.9450 C   0  0  0  0  0  2  0  0  0  0  0  0
  188.4290  178.8380  138.1570 C   0  0  0  0  0  3  0  0  0  0  0  0
  182.9830  178.6290  143.2250 O   0  0  0  0  0  0  0  0  0  0  0  0
  186.9640  178.6730  138.4860 C   0  0  0  0  0  2  0  0  0  0  0  0
  188.8100  177.8240  141.0840 C   0  0  1  0  0  3  0  0  0  0  0  0
  185.1960  179.2830  143.9220 C   0  0  0  0  0  2  0  0  0  0  0  0
  187.0660  178.7670  142.3680 N   0  0  1  0  0  0  0  0  0  0  0  0
  190.4460  176.3780  139.9820 N   0  0  0  0  0  2  0  0  0  0  0  0
  191.4220  176.9140  139.0480 C   0  0  0  0  0  2  0  0  0  0  0  0
  191.5200  175.3740  136.0530 N   0  0  0  0  0  2  0  0  0  0  0  0
  193.2030  176.3520  137.4360 C   0  0  0  0  0  2  0  0  0  0  0  0
  192.1440  175.7790  138.3430 C   0  0  2  0  0  3  0  0  0  0  0  0
  192.9230  175.7560  136.0760 C   0  0  0  0  0  2  0  0  0  0  0  0
  191.1870  175.0350  137.4280 C   0  0  0  0  0  2  0  0  0  0  0  0
  1 26  1  1  0  0  0
  3 16  1  0  0  0  0
  4 23  1  1  0  0  0
  5 11  1  1  0  0  0
  5 15  1  0  0  0  0
  6 19  1  0  0  0  0
  7  3  2  0  0  0  0
  8 12  1  0  0  0  0
  9 25  1  0  0  0  0
  9 27  1  0  0  0  0
 10 17  1  0  0  0  0
 11 20  1  0  0  0  0
 13 20  1  0  0  0  0
 13  9  1  0  0  0  0
 14  2  1  0  0  0  0
 15 12  1  0  0  0  0
 15  4  1  0  0  0  0
 16  8  1  0  0  0  0
 17 28  1  0  0  0  0
 17 25  1  0  0  0  0
 18  4  1  0  0  0  0
 18  1  1  0  0  0  0
 19  3  1  0  0  0  0
 19  5  1  0  0  0  0
 20 18  1  0  0  0  0
 22 24  1  0  0  0  0
 22 10  2  0  0  0  0
 23 21  1  0  0  0  0
 24 13  1  0  0  0  0
 25 14  1  0  0  0  0
 26 21  1  0  0  0  0
 27  1  1  0  0  0  0
 27  2  1  0  0  0  0
 29 28  1  0  0  0  0
 30 33  1  0  0  0  0
 30 34  1  0  0  0  0
 31 32  1  0  0  0  0
 32 29  1  0  0  0  0
 33 31  1  0  0  0  0
 34 32  1  0  0  0  0
M  END
>  <MODEL>
8

>  <REMARK>
 VINA RESULT:      -6.3      2.041      3.046
  Name = 
  3 active torsions:
  status: ('A' for Active; 'I' for Inactive)
    1  A    between atoms: C_17  and  N_28
    2  A    between atoms: N_28  and  C_29
    3  A    between atoms: C_29  and  C_32
                            x       y       z     vdW  Elec       q    Type
                         _______ _______ _______ _____ _____    ______ ____

>  <TORSDO>
F 3

$$$$
=
 OpenBabel11122412243D

 34 40  0  0  1  0  0  0  0  0999 V2000
  186.3030  179.0700  141.8740 C   0  0  1  0  0  3  0  0  0  0  0  0
  187.9080  177.2500  142.1380 C   0  0  0  0  0  2  0  0  0  0  0  0
  181.6970  176.0990  138.6820 C   0  0  0  0  0  0  0  0  0  0  0  0
  183.8880  178.6730  141.4180 C   0  0  2  0  0  3  0  0  0  0  0  0
  183.1790  178.1140  139.0620 C   0  0  2  0  0  3  0  0  0  0  0  0
  182.5590  177.3830  136.6720 C   0  0  0  0  0  1  0  0  0  0  0  0
  182.0770  175.0170  138.1590 O   0  0  0  0  0  0  0  0  0  0  0  0
  180.3790  177.2620  140.4190 C   0  0  0  0  0  2  0  0  0  0  0  0
  188.1180  178.6380  140.2640 C   0  0  2  0  0  3  0  0  0  0  0  0
  189.8050  178.0920  137.8430 C   0  0  0  0  0  3  0  0  0  0  0  0
  184.6180  177.6870  138.7490 C   0  0  0  0  0  2  0  0  0  0  0  0
  181.4480  178.2290  140.9620 C   0  0  0  0  0  2  0  0  0  0  0  0
  187.0480  178.1360  139.2380 C   0  0  1  0  0  3  0  0  0  0  0  0
  189.0580  176.6810  141.3260 C   0  0  0  0  0  2  0  0  0  0  0  0
  182.8890  177.8850  140.5670 C   0  0  2  0  0  3  0  0  0  0  0  0
  180.9180  176.0700  139.8430 O   0  0  0  0  0  0  0  0  0  0  0  0
  189.6640  177.0510  138.9060 C   0  0  2  0  0  3  0  0  0  0  0  0
  185.3200  178.2460  141.0580 C   0  0  1  0  0  3  0  0  0  0  0  0
  182.1540  177.4230  138.1410 C   0  0  1  0  0  3  0  0  0  0  0  0
  185.6020  178.5010  139.5890 C   0  0  2  0  0  3  0  0  0  0  0  0
  184.4260  179.4010  143.4870 C   0  0  0  0  0  2  0  0  0  0  0  0
  188.7690  178.8030  137.3840 C   0  0  0  0  0  3  0  0  0  0  0  0
  183.6660  178.4420  142.7890 O   0  0  0  0  0  0  0  0  0  0  0  0
  187.3290  178.6240  137.8030 C   0  0  0  0  0  2  0  0  0  0  0  0
  189.3420  177.7140  140.2520 C   0  0  1  0  0  3  0  0  0  0  0  0
  185.9190  179.0870  143.3570 C   0  0  0  0  0  2  0  0  0  0  0  0
  187.6850  178.6180  141.6710 N   0  0  1  0  0  0  0  0  0  0  0  0
  190.9060  176.3030  139.0080 N   0  0  0  0  0  2  0  0  0  0  0  0
  190.8920  175.3170  137.9410 C   0  0  0  0  0  2  0  0  0  0  0  0
  194.2230  175.6260  138.3440 N   0  0  0  0  0  2  0  0  0  0  0  0
  192.8680  174.0960  137.1090 C   0  0  0  0  0  2  0  0  0  0  0  0
  192.1610  175.4280  137.1150 C   0  0  2  0  0  3  0  0  0  0  0  0
  194.2740  174.3930  137.5760 C   0  0  0  0  0  2  0  0  0  0  0  0
  193.1310  176.3970  137.7700 C   0  0  0  0  0  2  0  0  0  0  0  0
  1 26  1  1  0  0  0
  3 16  1  0  0  0  0
  4 23  1  1  0  0  0
  5 11  1  6  0  0  0
  5 15  1  0  0  0  0
  6 19  1  0  0  0  0
  7  3  2  0  0  0  0
  8 12  1  0  0  0  0
  9 27  1  0  0  0  0
 10 17  1  0  0  0  0
 11 20  1  0  0  0  0
 13 20  1  0  0  0  0
 13  9  1  0  0  0  0
 14  2  1  0  0  0  0
 15 12  1  0  0  0  0
 15  4  1  0  0  0  0
 16  8  1  0  0  0  0
 17 28  1  0  0  0  0
 17 25  1  0  0  0  0
 18  4  1  0  0  0  0
 18  1  1  0  0  0  0
 19  3  1  0  0  0  0
 19  5  1  0  0  0  0
 20 18  1  0  0  0  0
 22 24  1  0  0  0  0
 22 10  2  0  0  0  0
 23 21  1  0  0  0  0
 24 13  1  0  0  0  0
 25  9  1  0  0  0  0
 25 14  1  0  0  0  0
 26 21  1  0  0  0  0
 27  1  1  0  0  0  0
 27  2  1  0  0  0  0
 29 28  1  0  0  0  0
 31 32  1  0  0  0  0
 31 33  1  0  0  0  0
 32 34  1  0  0  0  0
 32 29  1  0  0  0  0
 33 30  1  0  0  0  0
 34 30  1  0  0  0  0
M  END
>  <MODEL>
9

>  <REMARK>
 VINA RESULT:      -6.3      2.307      3.171
  Name = 
  3 active torsions:
  status: ('A' for Active; 'I' for Inactive)
    1  A    between atoms: C_17  and  N_28
    2  A    between atoms: N_28  and  C_29
    3  A    between atoms: C_29  and  C_32
                            x       y       z     vdW  Elec       q    Type
                         _______ _______ _______ _____ _____    ______ ____

>  <TORSDO>
F 3

$$$$
