=
 OpenBabel11122410323D

 30 34  0  0  1  0  0  0  0  0999 V2000
  189.1740  177.5010  143.3970 C   0  0  2  0  0  3  0  0  0  0  0  0
  186.5280  178.0650  146.6450 O   0  0  0  0  0  0  0  0  0  0  0  0
  187.6460  177.6360  143.1990 C   0  0  2  0  0  3  0  0  0  0  0  0
  189.7460  176.6910  142.2390 C   0  0  0  0  0  2  0  0  0  0  0  0
  187.8870  178.5220  139.5610 O   0  0  0  0  0  1  0  0  0  0  0  0
  184.9300  177.8450  142.2020 C   0  0  1  0  0  3  0  0  0  0  0  0
  188.0330  177.7390  140.7080 C   0  0  1  0  0  3  0  0  0  0  0  0
  184.5460  178.1250  143.6490 C   0  0  2  0  0  3  0  0  0  0  0  0
  185.4430  178.5710  145.9510 C   0  0  0  0  0  0  0  0  0  0  0  0
  189.5210  177.4430  140.9300 C   0  0  2  0  0  3  0  0  0  0  0  0
  187.4330  178.4670  141.9230 C   0  0  1  0  0  3  0  0  0  0  0  0
  183.4200  179.1330  143.5740 C   0  0  0  0  0  2  0  0  0  0  0  0
  183.6320  177.9960  141.4200 C   0  0  0  0  0  2  0  0  0  0  0  0
  187.3990  177.5250  145.6700 C   0  0  1  0  0  3  0  0  0  0  0  0
  189.6110  176.9270  144.7710 C   0  0  2  0  0  3  0  0  0  0  0  0
  187.0740  178.3320  144.4300 C   0  0  2  0  0  3  0  0  0  0  0  0
  184.3830  178.9490  146.5150 O   0  0  0  0  0  0  0  0  0  0  0  0
  185.6290  178.5830  144.5370 N   0  0  0  0  0  0  0  0  0  0  0  0
  182.6830  178.8130  142.2870 C   0  0  0  0  0  2  0  0  0  0  0  0
  185.6850  179.8470  141.1620 O   0  0  0  0  0  0  0  0  0  0  0  0
  188.8860  177.5980  145.9600 C   0  0  2  0  0  3  0  0  0  0  0  0
  185.9870  178.7900  141.6970 C   0  0  0  0  0  0  0  0  0  0  0  0
  191.0960  177.0560  144.9280 C   0  0  0  0  0  0  0  0  0  0  0  0
  191.6520  178.1650  144.7230 O   0  0  0  0  0  0  0  0  0  0  0  0
  191.8620  175.9580  145.3020 O   0  0  0  0  0  1  0  0  0  0  0  0
  189.4020  177.7510  148.2920 O   0  0  0  0  0  1  0  0  0  0  0  0
  189.1970  176.8470  147.2500 C   0  0  0  0  0  2  0  0  0  0  0  0
  190.0190  176.6830  139.8680 O   0  0  0  0  0  0  0  0  0  0  0  0
  191.7990  176.4320  138.0510 C   0  0  0  0  0  1  0  0  0  0  0  0
  191.6580  177.1760  139.7010 S   0  0  0  0  0  0  0  0  0  0  0  0
  1  4  1  6  0  0  0
  1 15  1  0  0  0  0
  3  1  1  0  0  0  0
  3 16  1  0  0  0  0
  5  7  1  0  0  0  0
  6  8  1  0  0  0  0
  7 10  1  0  0  0  0
  7 11  1  0  0  0  0
  8 18  1  0  0  0  0
  9 17  2  0  0  0  0
  9  2  1  0  0  0  0
 10  4  1  0  0  0  0
 11  3  1  0  0  0  0
 12  8  1  0  0  0  0
 13  6  1  0  0  0  0
 13 19  1  0  0  0  0
 14 21  1  0  0  0  0
 14  2  1  0  0  0  0
 15 23  1  0  0  0  0
 15 21  1  0  0  0  0
 16 18  1  0  0  0  0
 16 14  1  0  0  0  0
 18  9  1  0  0  0  0
 19 12  1  0  0  0  0
 20 22  2  0  0  0  0
 21 27  1  0  0  0  0
 22 11  1  0  0  0  0
 22  6  1  0  0  0  0
 23 25  1  0  0  0  0
 24 23  2  0  0  0  0
 27 26  1  0  0  0  0
 28 10  1  0  0  0  0
 29 30  1  0  0  0  0
 30 28  1  0  0  0  0
M  END
>  <MODEL>
1

>  <REMARK>
 VINA RESULT:      -9.9      0.000      0.000
  Name = 
  4 active torsions:
  status: ('A' for Active; 'I' for Inactive)
    1  A    between atoms: C_2  and  C_19
    2  A    between atoms: C_11  and  O_28
    3  A    between atoms: C_25  and  C_26
    4  A    between atoms: O_28  and  S_30
                            x       y       z     vdW  Elec       q    Type
                         _______ _______ _______ _____ _____    ______ ____

>  <TORSDO>
F 4

$$$$
=
 OpenBabel11122410323D

 30 34  0  0  1  0  0  0  0  0999 V2000
  186.9040  178.0770  141.7710 C   0  0  2  0  0  3  0  0  0  0  0  0
  185.8620  178.2680  145.8630 O   0  0  0  0  0  0  0  0  0  0  0  0
  187.9580  177.9480  142.8950 C   0  0  2  0  0  3  0  0  0  0  0  0
  187.5880  178.6150  140.5190 C   0  0  0  0  0  2  0  0  0  0  0  0
  190.5390  176.3260  140.7060 O   0  0  0  0  0  1  0  0  0  0  0  0
  190.3450  177.6160  144.5110 C   0  0  1  0  0  3  0  0  0  0  0  0
  189.6660  177.3230  141.1460 C   0  0  1  0  0  3  0  0  0  0  0  0
  189.3990  177.6500  145.7040 C   0  0  2  0  0  3  0  0  0  0  0  0
  186.9860  177.6610  146.3980 C   0  0  0  0  0  0  0  0  0  0  0  0
  188.6400  177.6160  140.0440 C   0  0  2  0  0  3  0  0  0  0  0  0
  188.9660  176.8780  142.4410 C   0  0  1  0  0  3  0  0  0  0  0  0
  189.9850  176.6810  146.7060 C   0  0  0  0  0  2  0  0  0  0  0  0
  191.7170  177.3440  145.1120 C   0  0  0  0  0  2  0  0  0  0  0  0
  186.1840  178.5700  144.5200 C   0  0  1  0  0  3  0  0  0  0  0  0
  185.6470  178.9090  142.1410 C   0  0  2  0  0  3  0  0  0  0  0  0
  187.2330  177.5360  144.1730 C   0  0  2  0  0  3  0  0  0  0  0  0
  187.1240  177.4370  147.6290 O   0  0  0  0  0  0  0  0  0  0  0  0
  187.9820  177.3530  145.4250 N   0  0  0  0  0  0  0  0  0  0  0  0
  191.4870  176.7500  146.4960 C   0  0  0  0  0  2  0  0  0  0  0  0
  190.4110  175.4220  143.5930 O   0  0  0  0  0  0  0  0  0  0  0  0
  185.0500  178.5170  143.5130 C   0  0  2  0  0  3  0  0  0  0  0  0
  189.9660  176.5570  143.5100 C   0  0  0  0  0  0  0  0  0  0  0  0
  184.6110  178.7720  141.0660 C   0  0  0  0  0  0  0  0  0  0  0  0
  183.8280  177.7880  141.0750 O   0  0  0  0  0  1  0  0  0  0  0  0
  184.5080  179.7290  140.0630 O   0  0  0  0  0  0  0  0  0  0  0  0
  182.8480  178.8250  144.3980 O   0  0  0  0  0  1  0  0  0  0  0  0
  183.9620  179.5080  143.9090 C   0  0  0  0  0  2  0  0  0  0  0  0
  189.2860  178.1270  138.9160 O   0  0  0  0  0  0  0  0  0  0  0  0
  188.1570  176.2320  137.6250 C   0  0  0  0  0  1  0  0  0  0  0  0
  188.1140  178.0460  137.6600 S   0  0  0  0  0  0  0  0  0  0  0  0
  1  4  1  6  0  0  0
  1 15  1  0  0  0  0
  1  3  1  0  0  0  0
  2  9  1  0  0  0  0
  3 16  1  0  0  0  0
  5  7  1  0  0  0  0
  6 13  1  0  0  0  0
  6  8  1  0  0  0  0
  7 11  1  0  0  0  0
  8 12  1  0  0  0  0
  9 17  2  0  0  0  0
 10  4  1  0  0  0  0
 10  7  1  0  0  0  0
 11  3  1  0  0  0  0
 11 22  1  0  0  0  0
 13 19  1  0  0  0  0
 14  2  1  0  0  0  0
 15 21  1  0  0  0  0
 16 14  1  0  0  0  0
 16 18  1  0  0  0  0
 18  8  1  0  0  0  0
 18  9  1  0  0  0  0
 19 12  1  0  0  0  0
 21 27  1  0  0  0  0
 21 14  1  0  0  0  0
 22 20  2  0  0  0  0
 22  6  1  0  0  0  0
 23 24  1  0  0  0  0
 23 15  1  0  0  0  0
 25 23  2  0  0  0  0
 27 26  1  0  0  0  0
 28 10  1  0  0  0  0
 29 30  1  0  0  0  0
 30 28  1  0  0  0  0
M  END
>  <MODEL>
2

>  <REMARK>
 VINA RESULT:      -9.6      1.737      5.357
  Name = 
  4 active torsions:
  status: ('A' for Active; 'I' for Inactive)
    1  A    between atoms: C_2  and  C_19
    2  A    between atoms: C_11  and  O_28
    3  A    between atoms: C_25  and  C_26
    4  A    between atoms: O_28  and  S_30
                            x       y       z     vdW  Elec       q    Type
                         _______ _______ _______ _____ _____    ______ ____

>  <TORSDO>
F 4

$$$$
=
 OpenBabel11122410323D

 30 34  0  0  1  0  0  0  0  0999 V2000
  184.5290  178.8230  141.4450 C   0  0  2  0  0  3  0  0  0  0  0  0
  188.6330  178.0250  140.8210 O   0  0  0  0  0  0  0  0  0  0  0  0
  185.4430  178.2850  142.5710 C   0  0  2  0  0  3  0  0  0  0  0  0
  183.0940  178.3990  141.7360 C   0  0  0  0  0  2  0  0  0  0  0  0
  183.1600  179.3520  145.3520 O   0  0  0  0  0  1  0  0  0  0  0  0
  186.6240  177.3300  145.0430 C   0  0  1  0  0  3  0  0  0  0  0  0
  183.5580  178.6600  144.2050 C   0  0  1  0  0  3  0  0  0  0  0  0
  187.9420  177.3480  144.2820 C   0  0  2  0  0  3  0  0  0  0  0  0
  189.0550  178.0360  142.1390 C   0  0  0  0  0  0  0  0  0  0  0  0
  182.6290  179.0360  143.0440 C   0  0  2  0  0  3  0  0  0  0  0  0
  185.0200  178.9960  143.8680 C   0  0  1  0  0  3  0  0  0  0  0  0
  188.9830  177.7640  145.2980 C   0  0  0  0  0  2  0  0  0  0  0  0
  187.0010  176.9340  146.4640 C   0  0  0  0  0  2  0  0  0  0  0  0
  187.2210  177.9660  140.8640 C   0  0  1  0  0  3  0  0  0  0  0  0
  184.9620  178.4370  140.0060 C   0  0  2  0  0  3  0  0  0  0  0  0
  186.8870  178.6040  142.1950 C   0  0  2  0  0  3  0  0  0  0  0  0
  190.2600  177.8870  142.4750 O   0  0  0  0  0  0  0  0  0  0  0  0
  187.9910  178.1930  143.0760 N   0  0  0  0  0  0  0  0  0  0  0  0
  188.4900  177.2130  146.6220 C   0  0  0  0  0  2  0  0  0  0  0  0
  186.1380  179.5060  145.8740 O   0  0  0  0  0  0  0  0  0  0  0  0
  186.4690  178.6680  139.7490 C   0  0  2  0  0  3  0  0  0  0  0  0
  185.9270  178.6640  145.0130 C   0  0  0  0  0  0  0  0  0  0  0  0
  184.1420  179.1950  139.0060 C   0  0  0  0  0  0  0  0  0  0  0  0
  184.2200  180.4490  138.9570 O   0  0  0  0  0  1  0  0  0  0  0  0
  183.2990  178.5200  138.1310 O   0  0  0  0  0  0  0  0  0  0  0  0
  187.4350  179.0530  137.5940 O   0  0  0  0  0  1  0  0  0  0  0  0
  186.8650  178.0710  138.4040 C   0  0  0  0  0  2  0  0  0  0  0  0
  181.3250  178.6190  143.3230 O   0  0  0  0  0  0  0  0  0  0  0  0
  179.6670  180.3780  142.4910 C   0  0  0  0  0  1  0  0  0  0  0  0
  180.4570  178.8700  141.8590 S   0  0  0  0  0  0  0  0  0  0  0  0
  1  4  1  1  0  0  0
  1  3  1  0  0  0  0
  2 14  1  0  0  0  0
  2  9  1  0  0  0  0
  3 11  1  0  0  0  0
  4 10  1  0  0  0  0
  6 13  1  0  0  0  0
  7  5  1  0  0  0  0
  8  6  1  0  0  0  0
  8 12  1  0  0  0  0
  9 17  2  0  0  0  0
  9 18  1  0  0  0  0
 10 28  1  0  0  0  0
 10  7  1  0  0  0  0
 11  7  1  0  0  0  0
 11 22  1  0  0  0  0
 12 19  1  0  0  0  0
 13 19  1  0  0  0  0
 14 16  1  0  0  0  0
 15  1  1  0  0  0  0
 16  3  1  0  0  0  0
 16 18  1  0  0  0  0
 18  8  1  0  0  0  0
 21 15  1  0  0  0  0
 21 14  1  0  0  0  0
 22  6  1  0  0  0  0
 22 20  2  0  0  0  0
 23 15  1  0  0  0  0
 24 23  1  0  0  0  0
 25 23  2  0  0  0  0
 26 27  1  0  0  0  0
 27 21  1  0  0  0  0
 30 29  1  0  0  0  0
 30 28  1  0  0  0  0
M  END
>  <MODEL>
3

>  <REMARK>
 VINA RESULT:      -8.4      2.908      7.284
  Name = 
  4 active torsions:
  status: ('A' for Active; 'I' for Inactive)
    1  A    between atoms: C_2  and  C_19
    2  A    between atoms: C_11  and  O_28
    3  A    between atoms: C_25  and  C_26
    4  A    between atoms: O_28  and  S_30
                            x       y       z     vdW  Elec       q    Type
                         _______ _______ _______ _____ _____    ______ ____

>  <TORSDO>
F 4

$$$$
=
 OpenBabel11122410323D

 30 34  0  0  1  0  0  0  0  0999 V2000
  187.3450  177.9710  145.1980 C   0  0  2  0  0  3  0  0  0  0  0  0
  185.2260  178.8270  141.6420 O   0  0  0  0  0  0  0  0  0  0  0  0
  187.9170  177.6390  143.8000 C   0  0  2  0  0  3  0  0  0  0  0  0
  187.9570  177.0140  146.2150 C   0  0  0  0  0  2  0  0  0  0  0  0
  191.4680  177.3680  144.9790 O   0  0  0  0  0  1  0  0  0  0  0  0
  189.5020  176.8180  141.5130 C   0  0  1  0  0  3  0  0  0  0  0  0
  190.1110  177.0510  144.8960 C   0  0  1  0  0  3  0  0  0  0  0  0
  188.3910  177.4300  140.6720 C   0  0  2  0  0  3  0  0  0  0  0  0
  186.2830  178.7920  140.7500 C   0  0  0  0  0  0  0  0  0  0  0  0
  189.4660  177.2320  146.2760 C   0  0  2  0  0  3  0  0  0  0  0  0
  189.4230  177.9430  143.8490 C   0  0  1  0  0  3  0  0  0  0  0  0
  189.0860  178.0390  139.4740 C   0  0  0  0  0  2  0  0  0  0  0  0
  190.5550  176.3780  140.5050 C   0  0  0  0  0  2  0  0  0  0  0  0
  185.7070  178.2510  142.8410 C   0  0  1  0  0  3  0  0  0  0  0  0
  185.7950  177.9900  145.2870 C   0  0  2  0  0  3  0  0  0  0  0  0
  187.1960  178.5150  142.7790 C   0  0  2  0  0  3  0  0  0  0  0  0
  186.1540  179.0430  139.5230 O   0  0  0  0  0  0  0  0  0  0  0  0
  187.5190  178.4070  141.3480 N   0  0  0  0  0  0  0  0  0  0  0  0
  190.2910  177.1520  139.2200 C   0  0  0  0  0  2  0  0  0  0  0  0
  191.0150  178.5160  142.2140 O   0  0  0  0  0  0  0  0  0  0  0  0
  185.1380  178.7910  144.1390 C   0  0  2  0  0  3  0  0  0  0  0  0
  190.0720  177.7950  142.5070 C   0  0  0  0  0  0  0  0  0  0  0  0
  185.3690  178.5390  146.6150 C   0  0  0  0  0  0  0  0  0  0  0  0
  184.5560  177.8940  147.3250 O   0  0  0  0  0  1  0  0  0  0  0  0
  185.8680  179.7550  147.0670 O   0  0  0  0  0  0  0  0  0  0  0  0
  182.9790  179.8100  143.9690 O   0  0  0  0  0  1  0  0  0  0  0  0
  183.6270  178.5900  144.1640 C   0  0  0  0  0  2  0  0  0  0  0  0
  190.0270  176.3320  147.1860 O   0  0  0  0  0  0  0  0  0  0  0  0
  192.4260  175.6610  147.7600 C   0  0  0  0  0  1  0  0  0  0  0  0
  191.3920  177.1520  147.8360 S   0  0  0  0  0  0  0  0  0  0  0  0
  1 15  1  0  0  0  0
  1  4  1  1  0  0  0
  2 14  1  0  0  0  0
  3 11  1  0  0  0  0
  3  1  1  0  0  0  0
  4 10  1  0  0  0  0
  6 22  1  0  0  0  0
  7  5  1  0  0  0  0
  7 10  1  0  0  0  0
  8 18  1  0  0  0  0
  8  6  1  0  0  0  0
  9 18  1  0  0  0  0
  9  2  1  0  0  0  0
 10 28  1  0  0  0  0
 11  7  1  0  0  0  0
 12  8  1  0  0  0  0
 13  6  1  0  0  0  0
 14 21  1  0  0  0  0
 15 23  1  0  0  0  0
 16 14  1  0  0  0  0
 16  3  1  0  0  0  0
 17  9  2  0  0  0  0
 18 16  1  0  0  0  0
 19 12  1  0  0  0  0
 19 13  1  0  0  0  0
 20 22  2  0  0  0  0
 21 27  1  0  0  0  0
 21 15  1  0  0  0  0
 22 11  1  0  0  0  0
 23 25  2  0  0  0  0
 23 24  1  0  0  0  0
 26 27  1  0  0  0  0
 28 30  1  0  0  0  0
 29 30  1  0  0  0  0
M  END
>  <MODEL>
4

>  <REMARK>
 VINA RESULT:      -8.1      2.174      5.882
  Name = 
  4 active torsions:
  status: ('A' for Active; 'I' for Inactive)
    1  A    between atoms: C_2  and  C_19
    2  A    between atoms: C_11  and  O_28
    3  A    between atoms: C_25  and  C_26
    4  A    between atoms: O_28  and  S_30
                            x       y       z     vdW  Elec       q    Type
                         _______ _______ _______ _____ _____    ______ ____

>  <TORSDO>
F 4

$$$$
=
 OpenBabel11122410323D

 30 34  0  0  1  0  0  0  0  0999 V2000
  189.4160  177.4500  142.1720 C   0  0  2  0  0  3  0  0  0  0  0  0
  186.1630  178.4760  139.6750 O   0  0  0  0  0  0  0  0  0  0  0  0
  188.1030  178.0410  142.7350 C   0  0  2  0  0  3  0  0  0  0  0  0
  190.5540  177.7940  143.1270 C   0  0  0  0  0  2  0  0  0  0  0  0
  188.7110  176.8540  146.2420 O   0  0  0  0  0  1  0  0  0  0  0  0
  185.9280  179.0660  144.3590 C   0  0  1  0  0  3  0  0  0  0  0  0
  188.9480  177.5640  145.0630 C   0  0  1  0  0  3  0  0  0  0  0  0
  185.1390  179.1210  143.0590 C   0  0  2  0  0  3  0  0  0  0  0  0
  185.1600  178.4910  140.6280 C   0  0  0  0  0  0  0  0  0  0  0  0
  190.3000  177.1350  144.4800 C   0  0  2  0  0  3  0  0  0  0  0  0
  187.8130  177.3100  144.0570 C   0  0  1  0  0  3  0  0  0  0  0  0
  183.7190  178.7660  143.4390 C   0  0  0  0  0  2  0  0  0  0  0  0
  184.9350  179.4860  145.4340 C   0  0  0  0  0  2  0  0  0  0  0  0
  187.3820  178.4560  140.3920 C   0  0  1  0  0  3  0  0  0  0  0  0
  189.7490  177.8570  140.7120 C   0  0  2  0  0  3  0  0  0  0  0  0
  187.0030  177.8030  141.7040 C   0  0  2  0  0  3  0  0  0  0  0  0
  183.9520  178.7090  140.3480 O   0  0  0  0  0  0  0  0  0  0  0  0
  185.6340  178.2770  141.9560 N   0  0  0  0  0  0  0  0  0  0  0  0
  183.5410  179.2920  144.8510 C   0  0  0  0  0  2  0  0  0  0  0  0
  185.8440  176.8680  145.2660 O   0  0  0  0  0  0  0  0  0  0  0  0
  188.5410  177.7100  139.7580 C   0  0  2  0  0  3  0  0  0  0  0  0
  186.4850  177.6950  144.6340 C   0  0  0  0  0  0  0  0  0  0  0  0
  190.9090  177.0520  140.2100 C   0  0  0  0  0  0  0  0  0  0  0  0
  190.7110  175.9100  139.7210 O   0  0  0  0  0  0  0  0  0  0  0  0
  192.2010  177.5610  140.2780 O   0  0  0  0  0  1  0  0  0  0  0  0
  189.0810  179.6990  138.5400 O   0  0  0  0  0  1  0  0  0  0  0  0
  188.8710  178.3260  138.4030 C   0  0  0  0  0  2  0  0  0  0  0  0
  191.3290  177.4780  145.3620 O   0  0  0  0  0  0  0  0  0  0  0  0
  191.8240  176.4870  147.6650 C   0  0  0  0  0  1  0  0  0  0  0  0
  191.9470  175.9760  145.9270 S   0  0  0  0  0  0  0  0  0  0  0  0
  1  3  1  0  0  0  0
  1  4  1  1  0  0  0
  2 14  1  0  0  0  0
  2  9  1  0  0  0  0
  3 11  1  0  0  0  0
  4 10  1  0  0  0  0
  6 22  1  0  0  0  0
  6 13  1  0  0  0  0
  7  5  1  0  0  0  0
  8 12  1  0  0  0  0
  8  6  1  0  0  0  0
  9 18  1  0  0  0  0
 10  7  1  0  0  0  0
 10 28  1  0  0  0  0
 11 22  1  0  0  0  0
 11  7  1  0  0  0  0
 12 19  1  0  0  0  0
 14 16  1  0  0  0  0
 15  1  1  0  0  0  0
 16 18  1  0  0  0  0
 16  3  1  0  0  0  0
 17  9  2  0  0  0  0
 18  8  1  0  0  0  0
 19 13  1  0  0  0  0
 21 14  1  0  0  0  0
 21 15  1  0  0  0  0
 22 20  2  0  0  0  0
 23 25  1  0  0  0  0
 23 15  1  0  0  0  0
 24 23  2  0  0  0  0
 27 26  1  0  0  0  0
 27 21  1  0  0  0  0
 28 30  1  0  0  0  0
 30 29  1  0  0  0  0
M  END
>  <MODEL>
5

>  <REMARK>
 VINA RESULT:      -8.0      1.918      5.181
  Name = 
  4 active torsions:
  status: ('A' for Active; 'I' for Inactive)
    1  A    between atoms: C_2  and  C_19
    2  A    between atoms: C_11  and  O_28
    3  A    between atoms: C_25  and  C_26
    4  A    between atoms: O_28  and  S_30
                            x       y       z     vdW  Elec       q    Type
                         _______ _______ _______ _____ _____    ______ ____

>  <TORSDO>
F 4

$$$$
=
 OpenBabel11122410323D

 30 34  0  0  1  0  0  0  0  0999 V2000
  188.6890  177.6500  141.0180 C   0  0  2  0  0  3  0  0  0  0  0  0
  189.3490  177.1170  145.1590 O   0  0  0  0  0  0  0  0  0  0  0  0
  187.5440  177.7490  142.0530 C   0  0  2  0  0  3  0  0  0  0  0  0
  188.0990  177.2360  139.6750 C   0  0  0  0  0  2  0  0  0  0  0  0
  185.2410  179.6460  139.7780 O   0  0  0  0  0  1  0  0  0  0  0  0
  185.0380  178.0790  143.4770 C   0  0  1  0  0  3  0  0  0  0  0  0
  186.0280  178.5790  140.2150 C   0  0  1  0  0  3  0  0  0  0  0  0
  185.8710  177.9140  144.7410 C   0  0  2  0  0  3  0  0  0  0  0  0
  188.2090  177.7370  145.6390 C   0  0  0  0  0  0  0  0  0  0  0  0
  187.1360  178.3160  139.1880 C   0  0  2  0  0  3  0  0  0  0  0  0
  186.6270  178.8960  141.5960 C   0  0  1  0  0  3  0  0  0  0  0  0
  185.2370  178.8360  145.7590 C   0  0  0  0  0  2  0  0  0  0  0  0
  183.6300  178.3740  143.9760 C   0  0  0  0  0  2  0  0  0  0  0  0
  189.1380  176.9270  143.7740 C   0  0  1  0  0  3  0  0  0  0  0  0
  189.8720  176.7340  141.4320 C   0  0  2  0  0  3  0  0  0  0  0  0
  188.1680  178.0320  143.4170 C   0  0  2  0  0  3  0  0  0  0  0  0
  187.9700  177.8780  146.8670 O   0  0  0  0  0  0  0  0  0  0  0  0
  187.3180  178.1610  144.6100 N   0  0  0  0  0  0  0  0  0  0  0  0
  183.7600  178.8550  145.4150 C   0  0  0  0  0  2  0  0  0  0  0  0
  185.1460  180.3340  142.7250 O   0  0  0  0  0  0  0  0  0  0  0  0
  190.3580  176.9970  142.8770 C   0  0  2  0  0  3  0  0  0  0  0  0
  185.5490  179.1870  142.5960 C   0  0  0  0  0  0  0  0  0  0  0  0
  191.0050  176.8970  140.4640 C   0  0  0  0  0  0  0  0  0  0  0  0
  191.8560  177.8050  140.6460 O   0  0  0  0  0  1  0  0  0  0  0  0
  191.1230  176.0480  139.3700 O   0  0  0  0  0  0  0  0  0  0  0  0
  190.7650  174.6690  143.2560 O   0  0  0  0  0  1  0  0  0  0  0  0
  191.3640  175.9290  143.2890 C   0  0  0  0  0  2  0  0  0  0  0  0
  186.5730  177.9190  137.9720 O   0  0  0  0  0  0  0  0  0  0  0  0
  186.6530  177.8590  135.4170 C   0  0  0  0  0  1  0  0  0  0  0  0
  187.7540  178.3160  136.7860 S   0  0  0  0  0  0  0  0  0  0  0  0
  1  4  1  6  0  0  0
  1 15  1  0  0  0  0
  1  3  1  0  0  0  0
  2  9  1  0  0  0  0
  3 16  1  0  0  0  0
  5  7  1  0  0  0  0
  6 13  1  0  0  0  0
  6  8  1  0  0  0  0
  7 11  1  0  0  0  0
  8 12  1  0  0  0  0
  9 17  2  0  0  0  0
 10  4  1  0  0  0  0
 10  7  1  0  0  0  0
 11  3  1  0  0  0  0
 11 22  1  0  0  0  0
 13 19  1  0  0  0  0
 14  2  1  0  0  0  0
 15 21  1  0  0  0  0
 16 14  1  0  0  0  0
 16 18  1  0  0  0  0
 18  8  1  0  0  0  0
 18  9  1  0  0  0  0
 19 12  1  0  0  0  0
 21 27  1  0  0  0  0
 21 14  1  0  0  0  0
 22 20  2  0  0  0  0
 22  6  1  0  0  0  0
 23 24  1  0  0  0  0
 23 15  1  0  0  0  0
 25 23  2  0  0  0  0
 26 27  1  0  0  0  0
 28 10  1  0  0  0  0
 29 30  1  0  0  0  0
 30 28  1  0  0  0  0
M  END
>  <MODEL>
6

>  <REMARK>
 VINA RESULT:      -7.8      1.969      3.427
  Name = 
  4 active torsions:
  status: ('A' for Active; 'I' for Inactive)
    1  A    between atoms: C_2  and  C_19
    2  A    between atoms: C_11  and  O_28
    3  A    between atoms: C_25  and  C_26
    4  A    between atoms: O_28  and  S_30
                            x       y       z     vdW  Elec       q    Type
                         _______ _______ _______ _____ _____    ______ ____

>  <TORSDO>
F 4

$$$$
=
 OpenBabel11122410323D

 30 34  0  0  1  0  0  0  0  0999 V2000
  187.3210  177.9470  143.1410 C   0  0  2  0  0  3  0  0  0  0  0  0
  183.8380  179.0090  140.9930 O   0  0  0  0  0  0  0  0  0  0  0  0
  187.2160  177.7750  141.6080 C   0  0  2  0  0  3  0  0  0  0  0  0
  188.3270  176.9350  143.6780 C   0  0  0  0  0  2  0  0  0  0  0  0
  190.9250  177.5880  141.0680 O   0  0  0  0  0  1  0  0  0  0  0  0
  187.6300  177.2520  138.7840 C   0  0  1  0  0  3  0  0  0  0  0  0
  189.6730  177.2070  141.5580 C   0  0  1  0  0  3  0  0  0  0  0  0
  186.2560  177.8780  138.5880 C   0  0  2  0  0  3  0  0  0  0  0  0
  184.3910  179.1120  139.7290 C   0  0  0  0  0  0  0  0  0  0  0  0
  189.7060  177.2280  143.0910 C   0  0  2  0  0  3  0  0  0  0  0  0
  188.5860  178.1530  141.0210 C   0  0  1  0  0  3  0  0  0  0  0  0
  186.3440  178.6300  137.2780 C   0  0  0  0  0  2  0  0  0  0  0  0
  188.1300  176.9620  137.3760 C   0  0  0  0  0  2  0  0  0  0  0  0
  184.8050  178.3530  141.7900 C   0  0  1  0  0  3  0  0  0  0  0  0
  185.9710  177.8750  143.9050 C   0  0  2  0  0  3  0  0  0  0  0  0
  186.1110  178.7010  141.1070 C   0  0  2  0  0  3  0  0  0  0  0  0
  183.7290  179.4670  138.7180 O   0  0  0  0  0  0  0  0  0  0  0  0
  185.7670  178.7410  139.6780 N   0  0  0  0  0  0  0  0  0  0  0  0
  187.3180  177.8360  136.4270 C   0  0  0  0  0  2  0  0  0  0  0  0
  189.2840  178.9570  138.9230 O   0  0  0  0  0  0  0  0  0  0  0  0
  184.8670  178.7410  143.2550 C   0  0  2  0  0  3  0  0  0  0  0  0
  188.5730  178.1640  139.5230 C   0  0  0  0  0  0  0  0  0  0  0  0
  186.1730  178.2770  145.3340 C   0  0  0  0  0  0  0  0  0  0  0  0
  186.0560  179.4850  145.6660 O   0  0  0  0  0  0  0  0  0  0  0  0
  186.4850  177.3240  146.2960 O   0  0  0  0  0  1  0  0  0  0  0  0
  182.9400  179.6520  144.3440 O   0  0  0  0  0  1  0  0  0  0  0  0
  183.5250  178.4580  143.9200 C   0  0  0  0  0  2  0  0  0  0  0  0
  190.6180  176.2800  143.5610 O   0  0  0  0  0  0  0  0  0  0  0  0
  191.6800  178.4700  144.3420 C   0  0  0  0  0  1  0  0  0  0  0  0
  191.1550  176.8940  145.0750 S   0  0  0  0  0  0  0  0  0  0  0  0
  1  4  1  1  0  0  0
  1 15  1  0  0  0  0
  2 14  1  0  0  0  0
  3  1  1  0  0  0  0
  5  7  1  0  0  0  0
  6 22  1  0  0  0  0
  7 10  1  0  0  0  0
  8  6  1  0  0  0  0
  8 18  1  0  0  0  0
  9  2  1  0  0  0  0
 10 28  1  0  0  0  0
 10  4  1  0  0  0  0
 11  7  1  0  0  0  0
 11  3  1  0  0  0  0
 12  8  1  0  0  0  0
 13  6  1  0  0  0  0
 14 21  1  0  0  0  0
 15 23  1  0  0  0  0
 16  3  1  0  0  0  0
 16 14  1  0  0  0  0
 17  9  2  0  0  0  0
 18  9  1  0  0  0  0
 18 16  1  0  0  0  0
 19 12  1  0  0  0  0
 19 13  1  0  0  0  0
 20 22  2  0  0  0  0
 21 15  1  0  0  0  0
 21 27  1  0  0  0  0
 22 11  1  0  0  0  0
 23 24  2  0  0  0  0
 23 25  1  0  0  0  0
 27 26  1  0  0  0  0
 28 30  1  0  0  0  0
 29 30  1  0  0  0  0
M  END
>  <MODEL>
7

>  <REMARK>
 VINA RESULT:      -7.6      2.335      5.099
  Name = 
  4 active torsions:
  status: ('A' for Active; 'I' for Inactive)
    1  A    between atoms: C_2  and  C_19
    2  A    between atoms: C_11  and  O_28
    3  A    between atoms: C_25  and  C_26
    4  A    between atoms: O_28  and  S_30
                            x       y       z     vdW  Elec       q    Type
                         _______ _______ _______ _____ _____    ______ ____

>  <TORSDO>
F 4

$$$$
=
 OpenBabel11122410323D

 30 34  0  0  1  0  0  0  0  0999 V2000
  186.2430  178.3340  143.7210 C   0  0  2  0  0  3  0  0  0  0  0  0
  185.7870  178.6450  139.5310 O   0  0  0  0  0  0  0  0  0  0  0  0
  187.3440  177.8720  142.7380 C   0  0  2  0  0  3  0  0  0  0  0  0
  186.3800  177.5390  145.0150 C   0  0  0  0  0  2  0  0  0  0  0  0
  190.0880  177.9390  145.2960 O   0  0  0  0  0  1  0  0  0  0  0  0
  189.7360  176.8760  141.4320 C   0  0  1  0  0  3  0  0  0  0  0  0
  188.8870  177.5390  144.7050 C   0  0  1  0  0  3  0  0  0  0  0  0
  189.0720  177.3210  140.1370 C   0  0  2  0  0  3  0  0  0  0  0  0
  187.1190  178.5630  139.1640 C   0  0  0  0  0  0  0  0  0  0  0  0
  187.7290  177.8470  145.6620 C   0  0  2  0  0  3  0  0  0  0  0  0
  188.6940  178.2620  143.3620 C   0  0  1  0  0  3  0  0  0  0  0  0
  190.2000  177.8220  139.2620 C   0  0  0  0  0  2  0  0  0  0  0  0
  191.1120  176.3780  141.0120 C   0  0  0  0  0  2  0  0  0  0  0  0
  185.7290  178.2420  140.8850 C   0  0  1  0  0  3  0  0  0  0  0  0
  184.7960  178.2770  143.1630 C   0  0  2  0  0  3  0  0  0  0  0  0
  187.1090  178.5790  141.4060 C   0  0  2  0  0  3  0  0  0  0  0  0
  187.5090  178.6600  137.9710 O   0  0  0  0  0  0  0  0  0  0  0  0
  187.9960  178.3210  140.2620 N   0  0  0  0  0  0  0  0  0  0  0  0
  191.4030  176.9800  139.6430 C   0  0  0  0  0  2  0  0  0  0  0  0
  190.8190  178.7250  142.4650 O   0  0  0  0  0  0  0  0  0  0  0  0
  184.6720  178.8990  141.7520 C   0  0  2  0  0  3  0  0  0  0  0  0
  189.8410  177.9930  142.4350 C   0  0  0  0  0  0  0  0  0  0  0  0
  183.8570  178.9550  144.1140 C   0  0  0  0  0  0  0  0  0  0  0  0
  184.0670  180.1470  144.4570 O   0  0  0  0  0  0  0  0  0  0  0  0
  182.7530  178.2760  144.6170 O   0  0  0  0  0  1  0  0  0  0  0  0
  183.1430  177.2540  140.9250 O   0  0  0  0  0  1  0  0  0  0  0  0
  183.2870  178.6180  141.1810 C   0  0  0  0  0  2  0  0  0  0  0  0
  187.8630  177.0930  146.8310 O   0  0  0  0  0  0  0  0  0  0  0  0
  189.1700  178.2490  148.6990 C   0  0  0  0  0  1  0  0  0  0  0  0
  187.4560  178.1740  148.1040 S   0  0  0  0  0  0  0  0  0  0  0  0
  1  4  1  1  0  0  0
  2 14  1  0  0  0  0
  3 11  1  0  0  0  0
  3  1  1  0  0  0  0
  4 10  1  0  0  0  0
  6 22  1  0  0  0  0
  7  5  1  0  0  0  0
  7 10  1  0  0  0  0
  8 18  1  0  0  0  0
  8  6  1  0  0  0  0
  9  2  1  0  0  0  0
  9 18  1  0  0  0  0
 10 28  1  0  0  0  0
 11  7  1  0  0  0  0
 12 19  1  0  0  0  0
 12  8  1  0  0  0  0
 13  6  1  0  0  0  0
 14 16  1  0  0  0  0
 14 21  1  0  0  0  0
 15  1  1  0  0  0  0
 15 23  1  0  0  0  0
 16  3  1  0  0  0  0
 17  9  2  0  0  0  0
 18 16  1  0  0  0  0
 19 13  1  0  0  0  0
 21 15  1  0  0  0  0
 22 20  2  0  0  0  0
 22 11  1  0  0  0  0
 23 24  2  0  0  0  0
 23 25  1  0  0  0  0
 26 27  1  0  0  0  0
 27 21  1  0  0  0  0
 28 30  1  0  0  0  0
 30 29  1  0  0  0  0
M  END
>  <MODEL>
8

>  <REMARK>
 VINA RESULT:      -7.6      2.500      6.777
  Name = 
  4 active torsions:
  status: ('A' for Active; 'I' for Inactive)
    1  A    between atoms: C_2  and  C_19
    2  A    between atoms: C_11  and  O_28
    3  A    between atoms: C_25  and  C_26
    4  A    between atoms: O_28  and  S_30
                            x       y       z     vdW  Elec       q    Type
                         _______ _______ _______ _____ _____    ______ ____

>  <TORSDO>
F 4

$$$$
=
 OpenBabel11122410323D

 30 34  0  0  1  0  0  0  0  0999 V2000
  185.8840  178.3550  143.2750 C   0  0  2  0  0  3  0  0  0  0  0  0
  187.9140  177.3890  146.8550 O   0  0  0  0  0  0  0  0  0  0  0  0
  187.4160  178.1530  143.3230 C   0  0  2  0  0  3  0  0  0  0  0  0
  185.5500  179.2850  142.1150 C   0  0  0  0  0  2  0  0  0  0  0  0
  187.7620  177.5740  139.6310 O   0  0  0  0  0  1  0  0  0  0  0  0
  190.2520  177.8760  142.7760 C   0  0  1  0  0  3  0  0  0  0  0  0
  187.4550  178.2700  140.8030 C   0  0  1  0  0  3  0  0  0  0  0  0
  190.3730  177.4610  144.2360 C   0  0  2  0  0  3  0  0  0  0  0  0
  189.0800  176.8820  146.3090 C   0  0  0  0  0  0  0  0  0  0  0  0
  185.9640  178.6280  140.8000 C   0  0  2  0  0  3  0  0  0  0  0  0
  187.8100  177.4150  142.0320 C   0  0  1  0  0  3  0  0  0  0  0  0
  191.4530  176.4020  144.2610 C   0  0  0  0  0  2  0  0  0  0  0  0
  191.6560  177.7170  142.2100 C   0  0  0  0  0  2  0  0  0  0  0  0
  187.2450  178.0520  145.8000 C   0  0  1  0  0  3  0  0  0  0  0  0
  185.2430  178.8400  144.6030 C   0  0  2  0  0  3  0  0  0  0  0  0
  187.7420  177.3310  144.5660 C   0  0  2  0  0  3  0  0  0  0  0  0
  190.0120  176.4020  147.0060 O   0  0  0  0  0  0  0  0  0  0  0  0
  189.1370  176.9930  144.8880 N   0  0  0  0  0  0  0  0  0  0  0  0
  192.4100  176.7830  143.1470 C   0  0  0  0  0  2  0  0  0  0  0  0
  189.6040  176.0070  141.4530 O   0  0  0  0  0  0  0  0  0  0  0  0
  185.7280  178.0380  145.8330 C   0  0  2  0  0  3  0  0  0  0  0  0
  189.2590  177.0330  142.0220 C   0  0  0  0  0  0  0  0  0  0  0  0
  183.7490  178.7810  144.5000 C   0  0  0  0  0  0  0  0  0  0  0  0
  183.2140  178.1840  143.5300 O   0  0  0  0  0  0  0  0  0  0  0  0
  182.9520  179.3770  145.4690 O   0  0  0  0  0  1  0  0  0  0  0  0
  185.9330  179.8850  147.3410 O   0  0  0  0  0  1  0  0  0  0  0  0
  185.2330  178.6990  147.1140 C   0  0  0  0  0  2  0  0  0  0  0  0
  185.6850  179.4960  139.7420 O   0  0  0  0  0  0  0  0  0  0  0  0
  184.2400  177.9860  138.2700 C   0  0  0  0  0  1  0  0  0  0  0  0
  183.9950  179.3300  139.4660 S   0  0  0  0  0  0  0  0  0  0  0  0
  1  4  1  6  0  0  0
  1  3  1  0  0  0  0
  1 15  1  0  0  0  0
  3 16  1  0  0  0  0
  5  7  1  0  0  0  0
  6  8  1  0  0  0  0
  7 11  1  0  0  0  0
  8 12  1  0  0  0  0
  8 18  1  0  0  0  0
  9  2  1  0  0  0  0
  9 17  2  0  0  0  0
 10  7  1  0  0  0  0
 10  4  1  0  0  0  0
 11  3  1  0  0  0  0
 13  6  1  0  0  0  0
 13 19  1  0  0  0  0
 14 21  1  0  0  0  0
 14  2  1  0  0  0  0
 15 21  1  0  0  0  0
 16 18  1  0  0  0  0
 16 14  1  0  0  0  0
 18  9  1  0  0  0  0
 19 12  1  0  0  0  0
 20 22  2  0  0  0  0
 21 27  1  0  0  0  0
 22 11  1  0  0  0  0
 22  6  1  0  0  0  0
 23 15  1  0  0  0  0
 23 25  1  0  0  0  0
 24 23  2  0  0  0  0
 27 26  1  0  0  0  0
 28 10  1  0  0  0  0
 29 30  1  0  0  0  0
 30 28  1  0  0  0  0
M  END
>  <MODEL>
9

>  <REMARK>
 VINA RESULT:      -7.3      2.308      5.512
  Name = 
  4 active torsions:
  status: ('A' for Active; 'I' for Inactive)
    1  A    between atoms: C_2  and  C_19
    2  A    between atoms: C_11  and  O_28
    3  A    between atoms: C_25  and  C_26
    4  A    between atoms: O_28  and  S_30
                            x       y       z     vdW  Elec       q    Type
                         _______ _______ _______ _____ _____    ______ ____

>  <TORSDO>
F 4

$$$$
