=
 OpenBabel11122411153D

 31 35  0  0  1  0  0  0  0  0999 V2000
  193.4640  175.0970  135.7600 C   0  0  0  0  0  0  0  0  0  0  0  0
  190.1890  176.7110  136.8240 C   0  0  2  0  0  3  0  0  0  0  0  0
  189.1190  175.6310  136.7320 C   0  0  0  0  0  0  0  0  0  0  0  0
  188.3550  173.4660  135.9210 C   0  0  0  0  0  0  0  0  0  0  0  0
  191.5900  176.1480  136.8940 C   0  0  0  0  0  0  0  0  0  0  0  0
  194.1440  174.9900  136.9750 C   0  0  0  0  0  3  0  0  0  0  0  0
  189.3530  174.4360  136.0300 C   0  0  0  0  0  3  0  0  0  0  0  0
  190.2680  177.0050  139.3260 C   0  0  2  0  0  3  0  0  0  0  0  0
  194.0500  174.6270  134.5940 O   0  0  0  0  0  1  0  0  0  0  0  0
  187.5560  177.0710  137.9760 N   0  0  0  0  0  2  0  0  0  0  0  0
  188.6250  172.2020  135.1870 C   0  0  0  0  0  1  0  0  0  0  0  0
  191.7570  176.6610  139.3850 C   0  0  0  0  0  2  0  0  0  0  0  0
  189.9340  177.6860  137.9930 C   0  0  2  0  0  3  0  0  0  0  0  0
  192.1930  175.6740  135.7200 C   0  0  0  0  0  3  0  0  0  0  0  0
  187.1040  173.6810  136.5030 C   0  0  0  0  0  3  0  0  0  0  0  0
  192.2820  176.0420  138.1210 C   0  0  0  0  0  0  0  0  0  0  0  0
  193.5580  175.4690  138.1490 C   0  0  0  0  0  3  0  0  0  0  0  0
  188.4900  178.1910  137.9470 C   0  0  0  0  0  2  0  0  0  0  0  0
  187.8390  175.8540  137.2830 C   0  0  0  0  0  0  0  0  0  0  0  0
  186.8470  174.8750  137.1820 C   0  0  0  0  0  3  0  0  0  0  0  0
  190.1250  176.2020  142.0580 O   0  0  0  0  0  0  0  0  0  0  0  0
  189.8810  177.4110  141.7910 C   0  0  0  0  0  0  0  0  0  0  0  0
  189.9290  177.8770  140.4430 N   0  0  0  0  0  2  0  0  0  0  0  0
  190.1860  177.1710  145.4240 C   0  0  0  0  0  0  0  0  0  0  0  0
  190.7530  178.8430  143.6730 C   0  0  0  0  0  2  0  0  0  0  0  0
  187.1680  177.4430  143.0930 C   0  0  0  0  0  1  0  0  0  0  0  0
  190.3390  176.9880  146.6200 O   0  0  0  0  0  0  0  0  0  0  0  0
  191.2940  177.7500  144.6000 C   0  0  0  0  0  2  0  0  0  0  0  0
  188.4220  177.8700  143.8380 C   0  0  2  0  0  3  0  0  0  0  0  0
  189.5220  178.3780  142.8840 C   0  0  2  0  0  3  0  0  0  0  0  0
  188.9140  176.7500  144.7530 C   0  0  0  0  0  2  0  0  0  0  0  0
  1  6  1  0  0  0  0
  2  3  1  1  0  0  0
  2  5  1  0  0  0  0
  2 13  1  0  0  0  0
  3 19  1  0  0  0  0
  4  7  1  0  0  0  0
  4 15  2  0  0  0  0
  5 16  2  0  0  0  0
  6 17  2  0  0  0  0
  7  3  2  0  0  0  0
  8 12  1  0  0  0  0
  8 23  1  1  0  0  0
  9  1  1  0  0  0  0
 11  4  1  0  0  0  0
 13 18  1  1  0  0  0
 13  8  1  0  0  0  0
 14  1  2  0  0  0  0
 14  5  1  0  0  0  0
 15 20  1  0  0  0  0
 16 17  1  0  0  0  0
 16 12  1  0  0  0  0
 18 10  1  0  0  0  0
 19 10  1  0  0  0  0
 20 19  2  0  0  0  0
 22 21  2  0  0  0  0
 23 22  1  0  0  0  0
 24 27  2  0  0  0  0
 25 28  1  0  0  0  0
 28 24  1  0  0  0  0
 29 26  1  6  0  0  0
 29 31  1  0  0  0  0
 30 22  1  6  0  0  0
 30 25  1  0  0  0  0
 30 29  1  0  0  0  0
 31 24  1  0  0  0  0
M  END
>  <MODEL>
1

>  <REMARK>
 VINA RESULT:      -8.1      0.000      0.000
  Name = 
  2 active torsions:
  status: ('A' for Active; 'I' for Inactive)
    1  A    between atoms: C_5  and  C_30
    2  A    between atoms: C_10  and  N_16
                            x       y       z     vdW  Elec       q    Type
                         _______ _______ _______ _____ _____    ______ ____

>  <TORSDO>
F 2

$$$$
=
 OpenBabel11122411153D

 31 35  0  0  1  0  0  0  0  0999 V2000
  191.1790  176.1710  143.6720 C   0  0  0  0  0  0  0  0  0  0  0  0
  187.4540  176.9280  143.7540 C   0  0  2  0  0  3  0  0  0  0  0  0
  187.1880  177.6780  145.0540 C   0  0  0  0  0  0  0  0  0  0  0  0
  187.8740  178.3540  147.2900 C   0  0  0  0  0  0  0  0  0  0  0  0
  188.9070  176.9620  143.3400 C   0  0  0  0  0  0  0  0  0  0  0  0
  191.6360  177.0590  142.6950 C   0  0  0  0  0  3  0  0  0  0  0  0
  188.1380  177.6920  146.0890 C   0  0  0  0  0  3  0  0  0  0  0  0
  187.0210  178.7860  142.1070 C   0  0  2  0  0  3  0  0  0  0  0  0
  192.0770  175.3400  144.3260 O   0  0  0  0  0  1  0  0  0  0  0  0
  184.9390  178.2780  144.2500 N   0  0  0  0  0  2  0  0  0  0  0  0
  188.8950  178.3710  148.3690 C   0  0  0  0  0  1  0  0  0  0  0  0
  188.4260  178.6740  141.5130 C   0  0  0  0  0  2  0  0  0  0  0  0
  186.5460  177.4140  142.6050 C   0  0  2  0  0  3  0  0  0  0  0  0
  189.8210  176.1230  143.9920 C   0  0  0  0  0  3  0  0  0  0  0  0
  186.6500  179.0000  147.4770 C   0  0  0  0  0  3  0  0  0  0  0  0
  189.3700  177.8570  142.3490 C   0  0  0  0  0  0  0  0  0  0  0  0
  190.7320  177.8910  142.0300 C   0  0  0  0  0  3  0  0  0  0  0  0
  185.0870  177.4400  143.0650 C   0  0  0  0  0  2  0  0  0  0  0  0
  185.9410  178.3020  145.2690 C   0  0  0  0  0  0  0  0  0  0  0  0
  185.6850  178.9720  146.4670 C   0  0  0  0  0  3  0  0  0  0  0  0
  186.6150  177.6540  139.5220 O   0  0  0  0  0  0  0  0  0  0  0  0
  185.9490  178.6840  139.8200 C   0  0  0  0  0  0  0  0  0  0  0  0
  186.1100  179.3040  141.0960 N   0  0  0  0  0  2  0  0  0  0  0  0
  182.6300  177.6200  138.7260 C   0  0  0  0  0  0  0  0  0  0  0  0
  183.6820  179.7360  139.4990 C   0  0  0  0  0  2  0  0  0  0  0  0
  185.9700  177.9620  136.8980 C   0  0  0  0  0  1  0  0  0  0  0  0
  181.5290  177.1790  138.4390 O   0  0  0  0  0  0  0  0  0  0  0  0
  182.7910  178.5520  139.8870 C   0  0  0  0  0  2  0  0  0  0  0  0
  184.6990  178.3900  137.6110 C   0  0  2  0  0  3  0  0  0  0  0  0
  184.9890  179.2850  138.8330 C   0  0  2  0  0  3  0  0  0  0  0  0
  183.8430  177.1760  137.9670 C   0  0  0  0  0  2  0  0  0  0  0  0
  1 14  1  0  0  0  0
  1  9  1  0  0  0  0
  2  5  1  6  0  0  0
  2  3  1  0  0  0  0
  3 19  2  0  0  0  0
  3  7  1  0  0  0  0
  4 15  1  0  0  0  0
  4 11  1  0  0  0  0
  5 14  2  0  0  0  0
  6  1  2  0  0  0  0
  7  4  2  0  0  0  0
  8 23  1  6  0  0  0
  8 13  1  0  0  0  0
 10 19  1  0  0  0  0
 12  8  1  0  0  0  0
 12 16  1  0  0  0  0
 13 18  1  1  0  0  0
 13  2  1  0  0  0  0
 16  5  1  0  0  0  0
 17 16  2  0  0  0  0
 17  6  1  0  0  0  0
 18 10  1  0  0  0  0
 19 20  1  0  0  0  0
 20 15  2  0  0  0  0
 21 22  2  0  0  0  0
 22 23  1  0  0  0  0
 24 28  1  0  0  0  0
 25 28  1  0  0  0  0
 27 24  2  0  0  0  0
 29 26  1  1  0  0  0
 29 31  1  0  0  0  0
 29 30  1  0  0  0  0
 30 25  1  0  0  0  0
 30 22  1  1  0  0  0
 31 24  1  0  0  0  0
M  END
>  <MODEL>
2

>  <REMARK>
 VINA RESULT:      -7.3      4.357      8.353
  Name = 
  2 active torsions:
  status: ('A' for Active; 'I' for Inactive)
    1  A    between atoms: C_5  and  C_30
    2  A    between atoms: C_10  and  N_16
                            x       y       z     vdW  Elec       q    Type
                         _______ _______ _______ _____ _____    ______ ____

>  <TORSDO>
F 2

$$$$
=
 OpenBabel11122411153D

 31 35  0  0  1  0  0  0  0  0999 V2000
  179.6900  178.8850  142.1190 C   0  0  0  0  0  0  0  0  0  0  0  0
  183.0880  179.1360  140.4300 C   0  0  2  0  0  3  0  0  0  0  0  0
  184.1300  178.8200  141.4950 C   0  0  0  0  0  0  0  0  0  0  0  0
  184.7650  178.5630  143.8320 C   0  0  0  0  0  0  0  0  0  0  0  0
  181.7070  178.6360  140.7900 C   0  0  0  0  0  0  0  0  0  0  0  0
  179.1840  177.6990  141.5820 C   0  0  0  0  0  3  0  0  0  0  0  0
  183.7960  178.8210  142.8600 C   0  0  0  0  0  3  0  0  0  0  0  0
  183.3590  177.1020  138.9670 C   0  0  2  0  0  3  0  0  0  0  0  0
  178.9460  179.5970  143.0490 O   0  0  0  0  0  1  0  0  0  0  0  0
  185.8570  178.6280  139.7490 N   0  0  0  0  0  2  0  0  0  0  0  0
  184.3900  178.5540  145.2700 C   0  0  0  0  0  1  0  0  0  0  0  0
  181.8900  176.7070  139.1330 C   0  0  0  0  0  2  0  0  0  0  0  0
  183.5070  178.6280  139.0350 C   0  0  2  0  0  3  0  0  0  0  0  0
  180.9460  179.3510  141.7240 C   0  0  0  0  0  3  0  0  0  0  0  0
  186.0850  178.3130  143.4530 C   0  0  0  0  0  3  0  0  0  0  0  0
  181.1930  177.4390  140.2440 C   0  0  0  0  0  0  0  0  0  0  0  0
  179.9300  176.9850  140.6410 C   0  0  0  0  0  3  0  0  0  0  0  0
  184.9330  179.0850  138.7180 C   0  0  0  0  0  2  0  0  0  0  0  0
  185.4760  178.6030  141.1270 C   0  0  0  0  0  0  0  0  0  0  0  0
  186.4390  178.3340  142.1010 C   0  0  0  0  0  3  0  0  0  0  0  0
  183.8060  174.3570  138.3440 O   0  0  0  0  0  0  0  0  0  0  0  0
  184.0490  175.2070  137.4430 C   0  0  0  0  0  0  0  0  0  0  0  0
  183.8520  176.5990  137.6920 N   0  0  0  0  0  2  0  0  0  0  0  0
  184.7250  171.8880  136.0750 C   0  0  0  0  0  0  0  0  0  0  0  0
  183.5330  173.9380  135.3280 C   0  0  0  0  0  2  0  0  0  0  0  0
  186.9840  174.8680  136.8690 C   0  0  0  0  0  1  0  0  0  0  0  0
  184.9080  170.7360  135.7170 O   0  0  0  0  0  0  0  0  0  0  0  0
  183.3810  172.5270  135.9050 C   0  0  0  0  0  2  0  0  0  0  0  0
  185.9250  174.0490  136.1510 C   0  0  2  0  0  3  0  0  0  0  0  0
  184.5640  174.7720  136.1000 C   0  0  2  0  0  3  0  0  0  0  0  0
  185.8200  172.6500  136.7560 C   0  0  0  0  0  2  0  0  0  0  0  0
  1  9  1  0  0  0  0
  2  5  1  1  0  0  0
  2  3  1  0  0  0  0
  3  7  1  0  0  0  0
  4 11  1  0  0  0  0
  5 14  2  0  0  0  0
  6  1  2  0  0  0  0
  7  4  2  0  0  0  0
  8 23  1  6  0  0  0
  8 13  1  0  0  0  0
  8 12  1  0  0  0  0
 10 19  1  0  0  0  0
 12 16  1  0  0  0  0
 13 18  1  1  0  0  0
 13  2  1  0  0  0  0
 14  1  1  0  0  0  0
 15  4  1  0  0  0  0
 16 17  2  0  0  0  0
 16  5  1  0  0  0  0
 17  6  1  0  0  0  0
 18 10  1  0  0  0  0
 19  3  2  0  0  0  0
 19 20  1  0  0  0  0
 20 15  2  0  0  0  0
 22 23  1  0  0  0  0
 22 21  2  0  0  0  0
 24 31  1  0  0  0  0
 25 28  1  0  0  0  0
 25 30  1  0  0  0  0
 27 24  2  0  0  0  0
 28 24  1  0  0  0  0
 29 31  1  0  0  0  0
 29 26  1  1  0  0  0
 30 29  1  0  0  0  0
 30 22  1  1  0  0  0
M  END
>  <MODEL>
3

>  <REMARK>
 VINA RESULT:      -7.1      5.267     10.435
  Name = 
  2 active torsions:
  status: ('A' for Active; 'I' for Inactive)
    1  A    between atoms: C_5  and  C_30
    2  A    between atoms: C_10  and  N_16
                            x       y       z     vdW  Elec       q    Type
                         _______ _______ _______ _____ _____    ______ ____

>  <TORSDO>
F 2

$$$$
=
 OpenBabel11122411153D

 31 35  0  0  1  0  0  0  0  0999 V2000
  190.0330  176.0050  142.8440 C   0  0  0  0  0  0  0  0  0  0  0  0
  186.4530  177.1250  143.4640 C   0  0  2  0  0  3  0  0  0  0  0  0
  186.4540  177.8780  144.7890 C   0  0  0  0  0  0  0  0  0  0  0  0
  187.5180  178.4500  146.9020 C   0  0  0  0  0  0  0  0  0  0  0  0
  187.8280  177.0210  142.8450 C   0  0  0  0  0  0  0  0  0  0  0  0
  190.4310  176.8570  141.8110 C   0  0  0  0  0  3  0  0  0  0  0  0
  187.5390  177.7830  145.6760 C   0  0  0  0  0  3  0  0  0  0  0  0
  185.9760  179.0400  141.8970 C   0  0  2  0  0  3  0  0  0  0  0  0
  190.9280  175.0790  143.3610 O   0  0  0  0  0  1  0  0  0  0  0  0
  184.1830  178.7100  144.3180 N   0  0  0  0  0  2  0  0  0  0  0  0
  188.6800  178.3510  147.8220 C   0  0  0  0  0  1  0  0  0  0  0  0
  187.2620  178.7990  141.1060 C   0  0  0  0  0  2  0  0  0  0  0  0
  185.4430  177.7150  142.4590 C   0  0  2  0  0  3  0  0  0  0  0  0
  188.7380  176.0860  143.3570 C   0  0  0  0  0  3  0  0  0  0  0  0
  186.4040  179.2110  147.2650 C   0  0  0  0  0  3  0  0  0  0  0  0
  188.2300  177.8800  141.7970 C   0  0  0  0  0  0  0  0  0  0  0  0
  189.5290  177.7850  141.2850 C   0  0  0  0  0  3  0  0  0  0  0  0
  184.0750  177.8780  143.1250 C   0  0  0  0  0  2  0  0  0  0  0  0
  185.3190  178.6190  145.1820 C   0  0  0  0  0  0  0  0  0  0  0  0
  185.3060  179.2940  146.4050 C   0  0  0  0  0  3  0  0  0  0  0  0
  184.7280  177.7840  139.6630 O   0  0  0  0  0  0  0  0  0  0  0  0
  184.3930  178.9710  139.9270 C   0  0  0  0  0  0  0  0  0  0  0  0
  184.9850  179.6600  141.0290 N   0  0  0  0  0  2  0  0  0  0  0  0
  180.8060  178.4410  139.4910 C   0  0  0  0  0  0  0  0  0  0  0  0
  182.3030  180.3780  139.9250 C   0  0  0  0  0  2  0  0  0  0  0  0
  183.7740  178.1400  137.1010 C   0  0  0  0  0  1  0  0  0  0  0  0
  179.6150  178.1810  139.4270 O   0  0  0  0  0  0  0  0  0  0  0  0
  181.3190  179.3780  140.5410 C   0  0  0  0  0  2  0  0  0  0  0  0
  182.7360  178.8050  137.9890 C   0  0  2  0  0  3  0  0  0  0  0  0
  183.3800  179.6860  139.0790 C   0  0  2  0  0  3  0  0  0  0  0  0
  181.7750  177.7680  138.5690 C   0  0  0  0  0  2  0  0  0  0  0  0
  1 14  1  0  0  0  0
  1  9  1  0  0  0  0
  2  5  1  6  0  0  0
  2  3  1  0  0  0  0
  3 19  2  0  0  0  0
  3  7  1  0  0  0  0
  4 15  1  0  0  0  0
  4 11  1  0  0  0  0
  5 14  2  0  0  0  0
  6  1  2  0  0  0  0
  7  4  2  0  0  0  0
  8 23  1  6  0  0  0
  8 13  1  0  0  0  0
 10 19  1  0  0  0  0
 12 16  1  0  0  0  0
 12  8  1  0  0  0  0
 13 18  1  1  0  0  0
 13  2  1  0  0  0  0
 16  5  1  0  0  0  0
 17 16  2  0  0  0  0
 17  6  1  0  0  0  0
 18 10  1  0  0  0  0
 19 20  1  0  0  0  0
 20 15  2  0  0  0  0
 21 22  2  0  0  0  0
 22 23  1  0  0  0  0
 24 28  1  0  0  0  0
 25 28  1  0  0  0  0
 27 24  2  0  0  0  0
 29 26  1  1  0  0  0
 29 31  1  0  0  0  0
 29 30  1  0  0  0  0
 30 25  1  0  0  0  0
 30 22  1  1  0  0  0
 31 24  1  0  0  0  0
M  END
>  <MODEL>
4

>  <REMARK>
 VINA RESULT:      -7.0      4.712      8.707
  Name = 
  2 active torsions:
  status: ('A' for Active; 'I' for Inactive)
    1  A    between atoms: C_5  and  C_30
    2  A    between atoms: C_10  and  N_16
                            x       y       z     vdW  Elec       q    Type
                         _______ _______ _______ _____ _____    ______ ____

>  <TORSDO>
F 2

$$$$
=
 OpenBabel11122411153D

 31 35  0  0  1  0  0  0  0  0999 V2000
  191.3620  176.5360  145.0320 C   0  0  0  0  0  0  0  0  0  0  0  0
  187.7580  176.9280  143.8860 C   0  0  2  0  0  3  0  0  0  0  0  0
  187.0430  177.7390  144.9600 C   0  0  0  0  0  0  0  0  0  0  0  0
  186.9360  178.6350  147.2210 C   0  0  0  0  0  0  0  0  0  0  0  0
  189.2610  177.0750  143.9400 C   0  0  0  0  0  0  0  0  0  0  0  0
  192.0400  177.3920  144.1620 C   0  0  0  0  0  3  0  0  0  0  0  0
  187.6130  177.9190  146.2310 C   0  0  0  0  0  3  0  0  0  0  0  0
  187.7380  178.6130  142.0110 C   0  0  2  0  0  3  0  0  0  0  0  0
  192.0630  175.8450  146.0100 O   0  0  0  0  0  1  0  0  0  0  0  0
  185.1270  178.0580  143.4450 N   0  0  0  0  0  2  0  0  0  0  0  0
  187.5600  178.8290  148.5550 C   0  0  0  0  0  1  0  0  0  0  0  0
  189.2630  178.5980  141.8950 C   0  0  0  0  0  2  0  0  0  0  0  0
  187.2280  177.2410  142.4710 C   0  0  2  0  0  3  0  0  0  0  0  0
  189.9790  176.3770  144.9210 C   0  0  0  0  0  3  0  0  0  0  0  0
  185.6740  179.1700  146.9560 C   0  0  0  0  0  3  0  0  0  0  0  0
  189.9490  177.9380  143.0570 C   0  0  0  0  0  0  0  0  0  0  0  0
  191.3360  178.0830  143.1730 C   0  0  0  0  0  3  0  0  0  0  0  0
  185.7000  177.1560  142.4530 C   0  0  0  0  0  2  0  0  0  0  0  0
  185.7500  178.2510  144.7170 C   0  0  0  0  0  0  0  0  0  0  0  0
  185.0820  178.9770  145.7050 C   0  0  0  0  0  3  0  0  0  0  0  0
  188.2730  177.2850  139.5470 O   0  0  0  0  0  0  0  0  0  0  0  0
  187.4660  178.2540  139.5240 C   0  0  0  0  0  0  0  0  0  0  0  0
  187.1590  178.9670  140.7230 N   0  0  0  0  0  2  0  0  0  0  0  0
  186.7470  176.4160  136.4500 C   0  0  0  0  0  0  0  0  0  0  0  0
  185.5080  177.9460  137.9680 C   0  0  0  0  0  2  0  0  0  0  0  0
  189.0550  179.3640  137.2220 C   0  0  0  0  0  1  0  0  0  0  0  0
  186.5470  175.7070  135.4770 O   0  0  0  0  0  0  0  0  0  0  0  0
  185.7360  176.4900  137.5520 C   0  0  0  0  0  2  0  0  0  0  0  0
  187.7580  178.6030  137.0100 C   0  0  2  0  0  3  0  0  0  0  0  0
  186.8260  178.6860  138.2350 C   0  0  2  0  0  3  0  0  0  0  0  0
  188.0390  177.1620  136.5880 C   0  0  0  0  0  2  0  0  0  0  0  0
  1  9  1  0  0  0  0
  2  5  1  6  0  0  0
  2  3  1  0  0  0  0
  3  7  1  0  0  0  0
  4 11  1  0  0  0  0
  5 14  2  0  0  0  0
  6  1  2  0  0  0  0
  7  4  2  0  0  0  0
  8 23  1  6  0  0  0
  8 13  1  0  0  0  0
 10 19  1  0  0  0  0
 12  8  1  0  0  0  0
 12 16  1  0  0  0  0
 13 18  1  1  0  0  0
 13  2  1  0  0  0  0
 14  1  1  0  0  0  0
 15  4  1  0  0  0  0
 16 17  2  0  0  0  0
 16  5  1  0  0  0  0
 17  6  1  0  0  0  0
 18 10  1  0  0  0  0
 19  3  2  0  0  0  0
 19 20  1  0  0  0  0
 20 15  2  0  0  0  0
 22 21  2  0  0  0  0
 22 23  1  0  0  0  0
 24 31  1  0  0  0  0
 24 28  1  0  0  0  0
 25 30  1  0  0  0  0
 27 24  2  0  0  0  0
 28 25  1  0  0  0  0
 29 26  1  1  0  0  0
 29 30  1  0  0  0  0
 30 22  1  1  0  0  0
 31 29  1  0  0  0  0
M  END
>  <MODEL>
5

>  <REMARK>
 VINA RESULT:      -6.8      3.437      8.342
  Name = 
  2 active torsions:
  status: ('A' for Active; 'I' for Inactive)
    1  A    between atoms: C_5  and  C_30
    2  A    between atoms: C_10  and  N_16
                            x       y       z     vdW  Elec       q    Type
                         _______ _______ _______ _____ _____    ______ ____

>  <TORSDO>
F 2

$$$$
=
 OpenBabel11122411153D

 31 35  0  0  1  0  0  0  0  0999 V2000
  189.1640  177.0720  136.4730 C   0  0  0  0  0  0  0  0  0  0  0  0
  185.6480  177.9810  137.5990 C   0  0  2  0  0  3  0  0  0  0  0  0
  184.8550  176.6810  137.6500 C   0  0  0  0  0  0  0  0  0  0  0  0
  184.5850  174.3360  137.0520 C   0  0  0  0  0  0  0  0  0  0  0  0
  187.1430  177.7610  137.6290 C   0  0  0  0  0  0  0  0  0  0  0  0
  189.8970  177.2300  137.6510 C   0  0  0  0  0  3  0  0  0  0  0  0
  185.3330  175.5150  137.0280 C   0  0  0  0  0  3  0  0  0  0  0  0
  185.7520  178.5020  140.0620 C   0  0  2  0  0  3  0  0  0  0  0  0
  189.7980  176.6480  135.3130 O   0  0  0  0  0  1  0  0  0  0  0  0
  183.0490  177.8290  138.8700 N   0  0  0  0  0  2  0  0  0  0  0  0
  185.1130  173.1090  136.4010 C   0  0  0  0  0  1  0  0  0  0  0  0
  187.2810  178.5140  140.0610 C   0  0  0  0  0  2  0  0  0  0  0  0
  185.2170  178.9700  138.7020 C   0  0  2  0  0  3  0  0  0  0  0  0
  187.7930  177.3380  136.4620 C   0  0  0  0  0  3  0  0  0  0  0  0
  183.3420  174.3100  137.6870 C   0  0  0  0  0  3  0  0  0  0  0  0
  187.8870  177.9240  138.8200 C   0  0  0  0  0  0  0  0  0  0  0  0
  189.2620  177.6630  138.8170 C   0  0  0  0  0  3  0  0  0  0  0  0
  183.6950  179.1250  138.7020 C   0  0  0  0  0  2  0  0  0  0  0  0
  183.5800  176.6520  138.2560 C   0  0  0  0  0  0  0  0  0  0  0  0
  182.8400  175.4680  138.2870 C   0  0  0  0  0  3  0  0  0  0  0  0
  184.9790  177.6340  142.6650 O   0  0  0  0  0  0  0  0  0  0  0  0
  184.8980  178.8680  142.4140 C   0  0  0  0  0  0  0  0  0  0  0  0
  185.2630  179.3680  141.1270 N   0  0  0  0  0  2  0  0  0  0  0  0
  184.5560  178.5410  146.0350 C   0  0  0  0  0  0  0  0  0  0  0  0
  185.4980  180.2150  144.4570 C   0  0  0  0  0  2  0  0  0  0  0  0
  182.0050  179.0160  143.2290 C   0  0  0  0  0  1  0  0  0  0  0  0
  184.4910  178.3260  147.2350 O   0  0  0  0  0  0  0  0  0  0  0  0
  185.8170  179.0760  145.4310 C   0  0  0  0  0  2  0  0  0  0  0  0
  183.1290  179.3620  144.1900 C   0  0  2  0  0  3  0  0  0  0  0  0
  184.4010  179.8300  143.4550 C   0  0  2  0  0  3  0  0  0  0  0  0
  183.4010  178.2000  145.1450 C   0  0  0  0  0  2  0  0  0  0  0  0
  1  6  1  0  0  0  0
  2  5  1  1  0  0  0
  2  3  1  0  0  0  0
  2 13  1  0  0  0  0
  3 19  1  0  0  0  0
  4 15  2  0  0  0  0
  5 16  2  0  0  0  0
  6 17  2  0  0  0  0
  7  4  1  0  0  0  0
  7  3  2  0  0  0  0
  8 23  1  1  0  0  0
  9  1  1  0  0  0  0
 11  4  1  0  0  0  0
 12  8  1  0  0  0  0
 13 18  1  1  0  0  0
 13  8  1  0  0  0  0
 14  1  2  0  0  0  0
 14  5  1  0  0  0  0
 15 20  1  0  0  0  0
 16 12  1  0  0  0  0
 17 16  1  0  0  0  0
 18 10  1  0  0  0  0
 19 20  2  0  0  0  0
 19 10  1  0  0  0  0
 22 21  2  0  0  0  0
 23 22  1  0  0  0  0
 24 27  2  0  0  0  0
 25 28  1  0  0  0  0
 28 24  1  0  0  0  0
 29 26  1  6  0  0  0
 29 31  1  0  0  0  0
 30 22  1  6  0  0  0
 30 29  1  0  0  0  0
 30 25  1  0  0  0  0
 31 24  1  0  0  0  0
M  END
>  <MODEL>
6

>  <REMARK>
 VINA RESULT:      -6.8      3.635      4.949
  Name = 
  2 active torsions:
  status: ('A' for Active; 'I' for Inactive)
    1  A    between atoms: C_5  and  C_30
    2  A    between atoms: C_10  and  N_16
                            x       y       z     vdW  Elec       q    Type
                         _______ _______ _______ _____ _____    ______ ____

>  <TORSDO>
F 2

$$$$
=
 OpenBabel11122411153D

 31 35  0  0  1  0  0  0  0  0999 V2000
  186.1050  178.2160  138.4020 C   0  0  0  0  0  0  0  0  0  0  0  0
  189.7300  177.8340  139.4830 C   0  0  2  0  0  3  0  0  0  0  0  0
  189.7070  177.2710  140.8990 C   0  0  0  0  0  0  0  0  0  0  0  0
  188.5260  176.8000  142.9750 C   0  0  0  0  0  0  0  0  0  0  0  0
  188.4320  177.6120  138.7400 C   0  0  0  0  0  0  0  0  0  0  0  0
  185.9660  177.1800  137.4750 C   0  0  0  0  0  3  0  0  0  0  0  0
  188.5300  177.2880  141.6660 C   0  0  0  0  0  3  0  0  0  0  0  0
  190.6800  175.8450  138.2600 C   0  0  2  0  0  3  0  0  0  0  0  0
  185.0200  179.0290  138.7000 O   0  0  0  0  0  1  0  0  0  0  0  0
  192.1200  176.7980  140.7510 N   0  0  0  0  0  2  0  0  0  0  0  0
  187.2690  176.8130  143.7680 C   0  0  0  0  0  1  0  0  0  0  0  0
  189.4650  175.7520  137.3360 C   0  0  0  0  0  2  0  0  0  0  0  0
  190.9260  177.3050  138.6650 C   0  0  2  0  0  3  0  0  0  0  0  0
  187.3330  178.4320  139.0300 C   0  0  0  0  0  3  0  0  0  0  0  0
  189.7020  176.3010  143.5390 C   0  0  0  0  0  3  0  0  0  0  0  0
  188.2910  176.5670  137.8000 C   0  0  0  0  0  0  0  0  0  0  0  0
  187.0580  176.3660  137.1690 C   0  0  0  0  0  3  0  0  0  0  0  0
  192.2210  177.4730  139.4620 C   0  0  0  0  0  2  0  0  0  0  0  0
  190.8980  176.7990  141.4920 C   0  0  0  0  0  0  0  0  0  0  0  0
  190.8860  176.3010  142.7970 C   0  0  0  0  0  3  0  0  0  0  0  0
  190.7850  173.3240  136.9350 O   0  0  0  0  0  0  0  0  0  0  0  0
  191.8300  174.0310  136.9290 C   0  0  0  0  0  0  0  0  0  0  0  0
  191.8470  175.3010  137.5800 N   0  0  0  0  0  2  0  0  0  0  0  0
  195.3570  174.7330  137.5700 C   0  0  0  0  0  0  0  0  0  0  0  0
  193.9610  172.7110  137.1940 C   0  0  0  0  0  2  0  0  0  0  0  0
  193.0720  175.4690  134.5950 C   0  0  0  0  0  1  0  0  0  0  0  0
  196.5000  175.0310  137.8760 O   0  0  0  0  0  0  0  0  0  0  0  0
  194.6740  173.5790  138.2350 C   0  0  0  0  0  2  0  0  0  0  0  0
  193.9030  174.6540  135.5710 C   0  0  2  0  0  3  0  0  0  0  0  0
  193.0800  173.5420  136.2510 C   0  0  2  0  0  3  0  0  0  0  0  0
  194.6000  175.5650  136.5810 C   0  0  0  0  0  2  0  0  0  0  0  0
  1  9  1  0  0  0  0
  1 14  1  0  0  0  0
  2  5  1  6  0  0  0
  2  3  1  0  0  0  0
  3 19  2  0  0  0  0
  3  7  1  0  0  0  0
  4 15  1  0  0  0  0
  4 11  1  0  0  0  0
  5 14  2  0  0  0  0
  6  1  2  0  0  0  0
  7  4  2  0  0  0  0
  8 23  1  6  0  0  0
  8 13  1  0  0  0  0
 10 19  1  0  0  0  0
 12 16  1  0  0  0  0
 12  8  1  0  0  0  0
 13 18  1  1  0  0  0
 13  2  1  0  0  0  0
 16  5  1  0  0  0  0
 17  6  1  0  0  0  0
 17 16  2  0  0  0  0
 18 10  1  0  0  0  0
 19 20  1  0  0  0  0
 20 15  2  0  0  0  0
 22 21  2  0  0  0  0
 22 23  1  0  0  0  0
 24 27  2  0  0  0  0
 24 28  1  0  0  0  0
 25 28  1  0  0  0  0
 29 26  1  1  0  0  0
 29 30  1  0  0  0  0
 29 31  1  0  0  0  0
 30 22  1  1  0  0  0
 30 25  1  0  0  0  0
 31 24  1  0  0  0  0
M  END
>  <MODEL>
7

>  <REMARK>
 VINA RESULT:      -6.7      2.894      7.342
  Name = 
  2 active torsions:
  status: ('A' for Active; 'I' for Inactive)
    1  A    between atoms: C_5  and  C_30
    2  A    between atoms: C_10  and  N_16
                            x       y       z     vdW  Elec       q    Type
                         _______ _______ _______ _____ _____    ______ ____

>  <TORSDO>
F 2

$$$$
=
 OpenBabel11122411153D

 31 35  0  0  1  0  0  0  0  0999 V2000
  183.5530  178.9590  143.1430 C   0  0  0  0  0  0  0  0  0  0  0  0
  183.0550  177.7000  139.5900 C   0  0  2  0  0  3  0  0  0  0  0  0
  182.1760  178.7240  138.8820 C   0  0  0  0  0  0  0  0  0  0  0  0
  180.6310  180.6030  138.9550 C   0  0  0  0  0  0  0  0  0  0  0  0
  183.7270  178.2540  140.8260 C   0  0  0  0  0  0  0  0  0  0  0  0
  184.8850  179.3780  143.1200 C   0  0  0  0  0  3  0  0  0  0  0  0
  181.4600  179.6900  139.6090 C   0  0  0  0  0  3  0  0  0  0  0  0
  185.2140  178.0740  138.3440 C   0  0  2  0  0  3  0  0  0  0  0  0
  182.8010  179.1030  144.3010 O   0  0  0  0  0  1  0  0  0  0  0  0
  182.6900  177.6700  136.7160 N   0  0  0  0  0  2  0  0  0  0  0  0
  179.8920  181.6280  139.7380 C   0  0  0  0  0  1  0  0  0  0  0  0
  185.9720  178.4130  139.6290 C   0  0  0  0  0  2  0  0  0  0  0  0
  184.0940  177.0680  138.6400 C   0  0  2  0  0  3  0  0  0  0  0  0
  182.9770  178.3980  142.0010 C   0  0  0  0  0  3  0  0  0  0  0  0
  180.4960  180.5560  137.5660 C   0  0  0  0  0  3  0  0  0  0  0  0
  185.0750  178.6750  140.8050 C   0  0  0  0  0  0  0  0  0  0  0  0
  185.6450  179.2280  141.9580 C   0  0  0  0  0  3  0  0  0  0  0  0
  183.4060  176.5770  137.3640 C   0  0  0  0  0  2  0  0  0  0  0  0
  182.0030  178.6610  137.4830 C   0  0  0  0  0  0  0  0  0  0  0  0
  181.1810  179.5840  136.8320 C   0  0  0  0  0  3  0  0  0  0  0  0
  187.1790  179.5740  136.9250 O   0  0  0  0  0  0  0  0  0  0  0  0
  187.1100  178.3350  136.6920 C   0  0  0  0  0  0  0  0  0  0  0  0
  186.1440  177.5280  137.3650 N   0  0  0  0  0  2  0  0  0  0  0  0
  187.6680  174.8300  135.8320 C   0  0  0  0  0  0  0  0  0  0  0  0
  187.2620  176.9470  134.5950 C   0  0  0  0  0  2  0  0  0  0  0  0
  189.9170  177.5020  137.3860 C   0  0  0  0  0  1  0  0  0  0  0  0
  187.7690  173.6320  135.6200 O   0  0  0  0  0  0  0  0  0  0  0  0
  186.6430  175.6420  135.1040 C   0  0  0  0  0  2  0  0  0  0  0  0
  189.1050  176.7820  136.3240 C   0  0  2  0  0  3  0  0  0  0  0  0
  188.0310  177.6920  135.6950 C   0  0  2  0  0  3  0  0  0  0  0  0
  188.5180  175.4840  136.8780 C   0  0  0  0  0  2  0  0  0  0  0  0
  1  9  1  0  0  0  0
  2  3  1  6  0  0  0
  2  5  1  0  0  0  0
  3  7  1  0  0  0  0
  4  7  2  0  0  0  0
  4 11  1  0  0  0  0
  5 14  1  0  0  0  0
  6  1  1  0  0  0  0
  8 23  1  6  0  0  0
  8 13  1  0  0  0  0
  8 12  1  0  0  0  0
 10 18  1  0  0  0  0
 10 19  1  0  0  0  0
 12 16  1  0  0  0  0
 13 18  1  6  0  0  0
 13  2  1  0  0  0  0
 14  1  2  0  0  0  0
 15  4  1  0  0  0  0
 16  5  2  0  0  0  0
 16 17  1  0  0  0  0
 17  6  2  0  0  0  0
 19  3  2  0  0  0  0
 20 19  1  0  0  0  0
 20 15  2  0  0  0  0
 22 21  2  0  0  0  0
 22 23  1  0  0  0  0
 24 31  1  0  0  0  0
 25 28  1  0  0  0  0
 25 30  1  0  0  0  0
 27 24  2  0  0  0  0
 28 24  1  0  0  0  0
 29 31  1  0  0  0  0
 29 26  1  1  0  0  0
 30 29  1  0  0  0  0
 30 22  1  1  0  0  0
M  END
>  <MODEL>
8

>  <REMARK>
 VINA RESULT:      -6.6      4.979      9.110
  Name = 
  2 active torsions:
  status: ('A' for Active; 'I' for Inactive)
    1  A    between atoms: C_5  and  C_30
    2  A    between atoms: C_10  and  N_16
                            x       y       z     vdW  Elec       q    Type
                         _______ _______ _______ _____ _____    ______ ____

>  <TORSDO>
F 2

$$$$
=
 OpenBabel11122411153D

 31 35  0  0  1  0  0  0  0  0999 V2000
  188.5990  178.1990  142.2660 C   0  0  0  0  0  0  0  0  0  0  0  0
  185.6860  179.0220  139.9660 C   0  0  2  0  0  3  0  0  0  0  0  0
  185.7580  178.0430  138.8000 C   0  0  0  0  0  0  0  0  0  0  0  0
  186.9920  176.4230  137.4660 C   0  0  0  0  0  0  0  0  0  0  0  0
  186.4570  178.5530  141.1780 C   0  0  0  0  0  0  0  0  0  0  0  0
  187.9540  177.6000  143.3510 C   0  0  0  0  0  3  0  0  0  0  0  0
  186.9210  177.2930  138.5560 C   0  0  0  0  0  3  0  0  0  0  0  0
  183.5830  178.1880  141.0770 C   0  0  2  0  0  3  0  0  0  0  0  0
  189.9810  178.3180  142.2620 O   0  0  0  0  0  1  0  0  0  0  0  0
  183.4960  178.7130  138.0940 N   0  0  0  0  0  2  0  0  0  0  0  0
  188.2240  175.6260  137.2300 C   0  0  0  0  0  1  0  0  0  0  0  0
  184.3080  177.9240  142.3980 C   0  0  0  0  0  2  0  0  0  0  0  0
  184.2310  179.3700  140.3440 C   0  0  2  0  0  3  0  0  0  0  0  0
  187.8530  178.6740  141.1860 C   0  0  0  0  0  3  0  0  0  0  0  0
  185.9050  176.3010  136.5970 C   0  0  0  0  0  3  0  0  0  0  0  0
  185.8060  177.9500  142.2770 C   0  0  0  0  0  0  0  0  0  0  0  0
  186.5620  177.4850  143.3590 C   0  0  0  0  0  3  0  0  0  0  0  0
  183.4470  179.7740  139.0940 C   0  0  0  0  0  2  0  0  0  0  0  0
  184.6810  177.9400  137.8940 C   0  0  0  0  0  0  0  0  0  0  0  0
  184.7520  177.0600  136.8120 C   0  0  0  0  0  3  0  0  0  0  0  0
  181.3890  176.6660  140.0780 O   0  0  0  0  0  0  0  0  0  0  0  0
  181.1250  177.6550  140.8170 C   0  0  0  0  0  0  0  0  0  0  0  0
  182.1780  178.4620  141.3450 N   0  0  0  0  0  2  0  0  0  0  0  0
  179.4110  180.8780  140.9520 C   0  0  0  0  0  0  0  0  0  0  0  0
  178.9790  178.6460  139.9460 C   0  0  0  0  0  2  0  0  0  0  0  0
  180.2060  178.2560  143.6190 C   0  0  0  0  0  1  0  0  0  0  0  0
  178.9380  182.0020  140.9610 O   0  0  0  0  0  0  0  0  0  0  0  0
  179.4440  180.0810  139.6850 C   0  0  0  0  0  2  0  0  0  0  0  0
  179.5410  178.8790  142.4040 C   0  0  2  0  0  3  0  0  0  0  0  0
  179.7020  178.0100  141.1410 C   0  0  2  0  0  3  0  0  0  0  0  0
  180.0310  180.3110  142.1930 C   0  0  0  0  0  2  0  0  0  0  0  0
  1  6  1  0  0  0  0
  2  3  1  6  0  0  0
  2 13  1  0  0  0  0
  2  5  1  0  0  0  0
  4  7  2  0  0  0  0
  5 14  1  0  0  0  0
  5 16  2  0  0  0  0
  6 17  2  0  0  0  0
  7  3  1  0  0  0  0
  8 23  1  1  0  0  0
  8 12  1  0  0  0  0
  9  1  1  0  0  0  0
 10 18  1  0  0  0  0
 11  4  1  0  0  0  0
 13 18  1  6  0  0  0
 13  8  1  0  0  0  0
 14  1  2  0  0  0  0
 15 20  2  0  0  0  0
 15  4  1  0  0  0  0
 16 12  1  0  0  0  0
 16 17  1  0  0  0  0
 19 10  1  0  0  0  0
 19  3  2  0  0  0  0
 20 19  1  0  0  0  0
 21 22  2  0  0  0  0
 22 23  1  0  0  0  0
 24 27  2  0  0  0  0
 24 31  1  0  0  0  0
 25 30  1  0  0  0  0
 28 25  1  0  0  0  0
 28 24  1  0  0  0  0
 29 26  1  1  0  0  0
 30 22  1  6  0  0  0
 30 29  1  0  0  0  0
 31 29  1  0  0  0  0
M  END
>  <MODEL>
9

>  <REMARK>
 VINA RESULT:      -6.6      5.552      8.138
  Name = 
  2 active torsions:
  status: ('A' for Active; 'I' for Inactive)
    1  A    between atoms: C_5  and  C_30
    2  A    between atoms: C_10  and  N_16
                            x       y       z     vdW  Elec       q    Type
                         _______ _______ _______ _____ _____    ______ ____

>  <TORSDO>
F 2

$$$$
