=
 OpenBabel11122411033D

 31 35  0  0  1  0  0  0  0  0999 V2000
  191.3960  176.6130  145.5360 C   0  0  0  0  0  0  0  0  0  0  0  0
  187.8360  176.7030  144.2420 C   0  0  2  0  0  3  0  0  0  0  0  0
  187.1880  177.5230  145.3530 C   0  0  0  0  0  0  0  0  0  0  0  0
  187.1650  178.3910  147.6250 C   0  0  0  0  0  0  0  0  0  0  0  0
  189.3660  176.7890  144.1700 C   0  0  2  0  0  3  0  0  0  0  0  0
  192.0490  177.5540  144.5980 C   0  0  0  0  0  3  0  0  0  0  0  0
  187.7940  177.6670  146.6100 C   0  0  0  0  0  3  0  0  0  0  0  0
  187.7460  178.4700  142.4800 N   0  0  0  0  0  0  0  0  0  0  0  0
  192.1670  176.0520  146.6770 C   0  0  0  0  0  1  0  0  0  0  0  0
  185.2570  177.9210  143.9190 O   0  0  0  0  0  0  0  0  0  0  0  0
  187.8290  178.5490  148.9450 C   0  0  0  0  0  1  0  0  0  0  0  0
  189.2120  178.5040  142.4070 C   0  0  0  0  0  2  0  0  0  0  0  0
  187.2860  177.1140  142.8530 C   0  0  2  0  0  3  0  0  0  0  0  0
  190.1150  176.2690  145.3670 C   0  0  0  0  0  3  0  0  0  0  0  0
  185.9130  178.9660  147.4000 C   0  0  0  0  0  3  0  0  0  0  0  0
  189.8180  178.1920  143.7660 C   0  0  2  0  0  3  0  0  0  0  0  0
  191.3190  178.2680  143.7320 C   0  0  0  0  0  3  0  0  0  0  0  0
  185.7560  177.0420  142.9130 C   0  0  0  0  0  2  0  0  0  0  0  0
  185.9060  178.0770  145.1470 C   0  0  0  0  0  0  0  0  0  0  0  0
  185.2840  178.8070  146.1630 C   0  0  0  0  0  3  0  0  0  0  0  0
  187.2760  178.7750  141.1340 C   0  0  0  0  0  2  0  0  0  0  0  0
  185.5740  180.0850  142.1410 O   0  0  0  0  0  0  0  0  0  0  0  0
  185.8800  179.3060  141.1980 C   0  0  0  0  0  0  0  0  0  0  0  0
  182.8330  178.1080  138.4640 N   0  0  0  0  0  0  0  0  0  0  0  0
  183.4650  178.9720  140.6570 C   0  0  0  0  0  2  0  0  0  0  0  0
  186.3180  178.7010  138.4180 O   0  0  0  0  0  0  0  0  0  0  0  0
  181.9270  177.1890  137.8020 C   0  0  0  0  0  1  0  0  0  0  0  0
  182.6180  177.9520  139.9000 C   0  0  0  0  0  2  0  0  0  0  0  0
  185.1960  178.4470  138.9300 C   0  0  0  0  0  0  0  0  0  0  0  0
  184.8730  178.8690  140.2700 N   0  0  0  0  0  0  0  0  0  0  0  0
  184.1880  177.6620  138.1460 C   0  0  0  0  0  2  0  0  0  0  0  0
  1  9  1  0  0  0  0
  2  3  1  1  0  0  0
  3  7  1  0  0  0  0
  4 11  1  0  0  0  0
  5  2  1  0  0  0  0
  5 14  1  1  0  0  0
  6  1  1  0  0  0  0
  7  4  2  0  0  0  0
  8 13  1  0  0  0  0
 10 19  1  0  0  0  0
 12  8  1  0  0  0  0
 13 18  1  1  0  0  0
 13  2  1  0  0  0  0
 14  1  2  0  0  0  0
 15  4  1  0  0  0  0
 16 12  1  6  0  0  0
 16  5  1  0  0  0  0
 17 16  1  0  0  0  0
 17  6  2  0  0  0  0
 18 10  1  0  0  0  0
 19  3  2  0  0  0  0
 19 20  1  0  0  0  0
 20 15  2  0  0  0  0
 21 23  1  0  0  0  0
 21  8  1  0  0  0  0
 23 22  2  0  0  0  0
 24 28  1  0  0  0  0
 26 29  2  0  0  0  0
 27 24  1  0  0  0  0
 28 25  1  0  0  0  0
 29 30  1  0  0  0  0
 30 25  1  0  0  0  0
 30 23  1  0  0  0  0
 31 24  1  0  0  0  0
 31 29  1  0  0  0  0
M  END
>  <MODEL>
1

>  <REMARK>
 VINA RESULT:      -8.3      0.000      0.000
  Name = 
  2 active torsions:
  status: ('A' for Active; 'I' for Inactive)
    1  A    between atoms: C_5  and  C_16
    2  A    between atoms: N_10  and  C_16
                            x       y       z     vdW  Elec       q    Type
                         _______ _______ _______ _____ _____    ______ ____

>  <TORSDO>
F 2

$$$$
=
 OpenBabel11122411033D

 31 35  0  0  1  0  0  0  0  0999 V2000
  191.2990  176.6090  145.8700 C   0  0  0  0  0  0  0  0  0  0  0  0
  187.9690  176.8440  144.0770 C   0  0  2  0  0  3  0  0  0  0  0  0
  187.1930  177.6670  145.1000 C   0  0  0  0  0  0  0  0  0  0  0  0
  186.8680  178.4970  147.3630 C   0  0  0  0  0  0  0  0  0  0  0  0
  189.4950  176.8780  144.2280 C   0  0  2  0  0  3  0  0  0  0  0  0
  192.1100  177.5430  145.0570 C   0  0  0  0  0  3  0  0  0  0  0  0
  187.6150  177.7690  146.4340 C   0  0  0  0  0  3  0  0  0  0  0  0
  188.1920  178.6440  142.3590 N   0  0  0  0  0  0  0  0  0  0  0  0
  191.8780  176.0030  147.0970 C   0  0  0  0  0  1  0  0  0  0  0  0
  185.5040  178.1570  143.4110 O   0  0  0  0  0  0  0  0  0  0  0  0
  187.3380  178.6080  148.7690 C   0  0  0  0  0  1  0  0  0  0  0  0
  189.6530  178.6280  142.4990 C   0  0  0  0  0  2  0  0  0  0  0  0
  187.6400  177.2980  142.6320 C   0  0  2  0  0  3  0  0  0  0  0  0
  190.0450  176.3130  145.5100 C   0  0  0  0  0  3  0  0  0  0  0  0
  185.6800  179.1180  146.9730 C   0  0  0  0  0  3  0  0  0  0  0  0
  190.0450  178.2720  143.9250 C   0  0  2  0  0  3  0  0  0  0  0  0
  191.5370  178.2970  144.1090 C   0  0  0  0  0  3  0  0  0  0  0  0
  186.1160  177.2780  142.4690 C   0  0  0  0  0  2  0  0  0  0  0  0
  185.9730  178.2690  144.7230 C   0  0  0  0  0  0  0  0  0  0  0  0
  185.2330  179.0030  145.6550 C   0  0  0  0  0  3  0  0  0  0  0  0
  187.9320  178.9880  140.9660 C   0  0  0  0  0  2  0  0  0  0  0  0
  189.4190  177.1920  140.5260 O   0  0  0  0  0  0  0  0  0  0  0  0
  188.5050  177.9340  140.0750 C   0  0  0  0  0  0  0  0  0  0  0  0
  187.3400  177.4870  135.9960 N   0  0  0  0  0  0  0  0  0  0  0  0
  189.0100  177.1790  137.7470 C   0  0  0  0  0  2  0  0  0  0  0  0
  185.8470  178.3950  139.0680 O   0  0  0  0  0  0  0  0  0  0  0  0
  187.1810  177.8780  134.6070 C   0  0  0  0  0  1  0  0  0  0  0  0
  188.7500  177.6770  136.3280 C   0  0  0  0  0  2  0  0  0  0  0  0
  186.7870  178.2080  138.2510 C   0  0  0  0  0  0  0  0  0  0  0  0
  188.1010  177.8210  138.6990 N   0  0  0  0  0  0  0  0  0  0  0  0
  186.5460  178.4230  136.7880 C   0  0  0  0  0  2  0  0  0  0  0  0
  1  9  1  0  0  0  0
  2  5  1  0  0  0  0
  2  3  1  1  0  0  0
  3  7  1  0  0  0  0
  4 11  1  0  0  0  0
  5 14  1  1  0  0  0
  6  1  1  0  0  0  0
  7  4  2  0  0  0  0
  8 12  1  0  0  0  0
  8 13  1  0  0  0  0
 10 19  1  0  0  0  0
 13 18  1  1  0  0  0
 13  2  1  0  0  0  0
 14  1  2  0  0  0  0
 15  4  1  0  0  0  0
 16 12  1  6  0  0  0
 16 17  1  0  0  0  0
 16  5  1  0  0  0  0
 17  6  2  0  0  0  0
 18 10  1  0  0  0  0
 19  3  2  0  0  0  0
 19 20  1  0  0  0  0
 20 15  2  0  0  0  0
 21  8  1  0  0  0  0
 23 22  2  0  0  0  0
 23 21  1  0  0  0  0
 24 28  1  0  0  0  0
 24 31  1  0  0  0  0
 25 30  1  0  0  0  0
 27 24  1  0  0  0  0
 28 25  1  0  0  0  0
 29 30  1  0  0  0  0
 29 26  2  0  0  0  0
 30 23  1  0  0  0  0
 31 29  1  0  0  0  0
M  END
>  <MODEL>
2

>  <REMARK>
 VINA RESULT:      -8.3      2.071      2.687
  Name = 
  2 active torsions:
  status: ('A' for Active; 'I' for Inactive)
    1  A    between atoms: C_5  and  C_16
    2  A    between atoms: N_10  and  C_16
                            x       y       z     vdW  Elec       q    Type
                         _______ _______ _______ _____ _____    ______ ____

>  <TORSDO>
F 2

$$$$
=
 OpenBabel11122411033D

 31 35  0  0  1  0  0  0  0  0999 V2000
  180.0690  178.5100  142.1560 C   0  0  0  0  0  0  0  0  0  0  0  0
  183.1080  179.1820  139.9920 C   0  0  2  0  0  3  0  0  0  0  0  0
  184.2060  178.8440  140.9950 C   0  0  0  0  0  0  0  0  0  0  0  0
  184.9860  178.5280  143.2770 C   0  0  0  0  0  0  0  0  0  0  0  0
  181.7140  178.6420  140.3390 C   0  0  2  0  0  3  0  0  0  0  0  0
  179.5900  177.2420  141.5620 C   0  0  0  0  0  3  0  0  0  0  0  0
  183.9560  178.8030  142.3740 C   0  0  0  0  0  3  0  0  0  0  0  0
  183.4160  177.1820  138.5290 N   0  0  0  0  0  0  0  0  0  0  0  0
  179.4090  179.0540  143.3710 C   0  0  0  0  0  1  0  0  0  0  0  0
  185.8200  178.7250  139.1700 O   0  0  0  0  0  0  0  0  0  0  0  0
  184.7000  178.4720  144.7340 C   0  0  0  0  0  1  0  0  0  0  0  0
  182.0650  176.7090  138.8510 C   0  0  0  0  0  2  0  0  0  0  0  0
  183.4640  178.6600  138.5780 C   0  0  2  0  0  3  0  0  0  0  0  0
  181.0990  179.1660  141.6090 C   0  0  0  0  0  3  0  0  0  0  0  0
  186.2830  178.3080  142.8110 C   0  0  0  0  0  3  0  0  0  0  0  0
  181.6830  177.1160  140.2660 C   0  0  2  0  0  3  0  0  0  0  0  0
  180.3210  176.6020  140.6400 C   0  0  0  0  0  3  0  0  0  0  0  0
  184.8590  179.1840  138.2210 C   0  0  0  0  0  2  0  0  0  0  0  0
  185.5270  178.6540  140.5350 C   0  0  0  0  0  0  0  0  0  0  0  0
  186.5530  178.3720  141.4420 C   0  0  0  0  0  3  0  0  0  0  0  0
  183.6720  176.7440  137.1620 C   0  0  0  0  0  2  0  0  0  0  0  0
  184.3340  174.5230  137.6670 O   0  0  0  0  0  0  0  0  0  0  0  0
  184.6700  175.6320  137.1710 C   0  0  0  0  0  0  0  0  0  0  0  0
  188.6810  176.1260  135.8040 N   0  0  0  0  0  0  0  0  0  0  0  0
  187.0730  174.9470  137.2100 C   0  0  0  0  0  2  0  0  0  0  0  0
  185.4590  177.3200  134.9760 O   0  0  0  0  0  0  0  0  0  0  0  0
  190.0250  176.6710  135.7960 C   0  0  0  0  0  1  0  0  0  0  0  0
  188.4340  175.6360  137.1580 C   0  0  0  0  0  2  0  0  0  0  0  0
  186.3490  176.8090  135.7050 C   0  0  0  0  0  0  0  0  0  0  0  0
  186.0190  175.8370  136.7170 N   0  0  0  0  0  0  0  0  0  0  0  0
  187.7740  177.2410  135.5410 C   0  0  0  0  0  2  0  0  0  0  0  0
  1  9  1  0  0  0  0
  2  5  1  0  0  0  0
  2  3  1  1  0  0  0
  3  7  1  0  0  0  0
  4 11  1  0  0  0  0
  5 14  1  1  0  0  0
  6  1  1  0  0  0  0
  7  4  2  0  0  0  0
  8 13  1  0  0  0  0
  8 12  1  0  0  0  0
 10 19  1  0  0  0  0
 13 18  1  1  0  0  0
 13  2  1  0  0  0  0
 14  1  2  0  0  0  0
 15  4  1  0  0  0  0
 16 12  1  6  0  0  0
 16  5  1  0  0  0  0
 16 17  1  0  0  0  0
 17  6  2  0  0  0  0
 18 10  1  0  0  0  0
 19  3  2  0  0  0  0
 19 20  1  0  0  0  0
 20 15  2  0  0  0  0
 21 23  1  0  0  0  0
 21  8  1  0  0  0  0
 23 22  2  0  0  0  0
 24 28  1  0  0  0  0
 26 29  2  0  0  0  0
 27 24  1  0  0  0  0
 28 25  1  0  0  0  0
 29 30  1  0  0  0  0
 30 23  1  0  0  0  0
 30 25  1  0  0  0  0
 31 29  1  0  0  0  0
 31 24  1  0  0  0  0
M  END
>  <MODEL>
3

>  <REMARK>
 VINA RESULT:      -8.2      3.550      7.391
  Name = 
  2 active torsions:
  status: ('A' for Active; 'I' for Inactive)
    1  A    between atoms: C_5  and  C_16
    2  A    between atoms: N_10  and  C_16
                            x       y       z     vdW  Elec       q    Type
                         _______ _______ _______ _____ _____    ______ ____

>  <TORSDO>
F 2

$$$$
=
 OpenBabel11122411033D

 31 35  0  0  1  0  0  0  0  0999 V2000
  184.7020  172.9060  136.0850 C   0  0  0  0  0  0  0  0  0  0  0  0
  185.8140  176.5280  136.1790 C   0  0  2  0  0  3  0  0  0  0  0  0
  185.0420  176.9930  137.4090 C   0  0  0  0  0  0  0  0  0  0  0  0
  183.2260  176.7420  139.0080 C   0  0  0  0  0  0  0  0  0  0  0  0
  185.9670  175.0080  136.0360 C   0  0  2  0  0  3  0  0  0  0  0  0
  185.9350  172.2330  136.5500 C   0  0  0  0  0  3  0  0  0  0  0  0
  183.9420  176.2770  137.9010 C   0  0  0  0  0  3  0  0  0  0  0  0
  188.0830  176.5660  137.2200 N   0  0  0  0  0  0  0  0  0  0  0  0
  183.4650  172.1130  135.8610 C   0  0  0  0  0  1  0  0  0  0  0  0
  186.4540  178.9780  137.5300 O   0  0  0  0  0  0  0  0  0  0  0  0
  182.0730  175.9630  139.5260 C   0  0  0  0  0  1  0  0  0  0  0  0
  188.2170  175.1160  137.0370 C   0  0  0  0  0  2  0  0  0  0  0  0
  187.2370  177.1380  136.1490 C   0  0  2  0  0  3  0  0  0  0  0  0
  184.6920  174.2270  135.8730 C   0  0  0  0  0  3  0  0  0  0  0  0
  183.5940  177.9390  139.6240 C   0  0  0  0  0  3  0  0  0  0  0  0
  186.8580  174.4410  137.1410 C   0  0  2  0  0  3  0  0  0  0  0  0
  186.9720  172.9480  137.0060 C   0  0  0  0  0  3  0  0  0  0  0  0
  187.1010  178.6580  136.3000 C   0  0  0  0  0  2  0  0  0  0  0  0
  185.3860  178.2200  138.0180 C   0  0  0  0  0  0  0  0  0  0  0  0
  184.6710  178.6770  139.1290 C   0  0  0  0  0  3  0  0  0  0  0  0
  189.4320  177.1060  137.0970 C   0  0  0  0  0  2  0  0  0  0  0  0
  191.2360  176.0070  138.1790 O   0  0  0  0  0  0  0  0  0  0  0  0
  190.2270  176.7510  138.3120 C   0  0  0  0  0  0  0  0  0  0  0  0
  189.0830  177.9550  142.2410 N   0  0  0  0  0  0  0  0  0  0  0  0
  190.2610  176.3930  140.7840 C   0  0  0  0  0  2  0  0  0  0  0  0
  188.9600  179.2550  138.9560 O   0  0  0  0  0  0  0  0  0  0  0  0
  188.2370  178.0240  143.4180 C   0  0  0  0  0  1  0  0  0  0  0  0
  189.2860  176.5390  141.9500 C   0  0  0  0  0  2  0  0  0  0  0  0
  189.0470  178.3670  139.8450 C   0  0  0  0  0  0  0  0  0  0  0  0
  189.8040  177.1600  139.6240 N   0  0  0  0  0  0  0  0  0  0  0  0
  188.3240  178.5500  141.1440 C   0  0  0  0  0  2  0  0  0  0  0  0
  1  6  1  0  0  0  0
  2  3  1  1  0  0  0
  3  7  2  0  0  0  0
  3 19  1  0  0  0  0
  4 11  1  0  0  0  0
  4 15  2  0  0  0  0
  5 14  1  1  0  0  0
  5  2  1  0  0  0  0
  5 16  1  0  0  0  0
  6 17  2  0  0  0  0
  7  4  1  0  0  0  0
  9  1  1  0  0  0  0
 10 19  1  0  0  0  0
 12 16  1  0  0  0  0
 12  8  1  0  0  0  0
 13  2  1  0  0  0  0
 13 18  1  1  0  0  0
 13  8  1  0  0  0  0
 14  1  2  0  0  0  0
 16 17  1  6  0  0  0
 18 10  1  0  0  0  0
 19 20  2  0  0  0  0
 20 15  1  0  0  0  0
 21  8  1  0  0  0  0
 21 23  1  0  0  0  0
 22 23  2  0  0  0  0
 23 30  1  0  0  0  0
 24 27  1  0  0  0  0
 25 28  1  0  0  0  0
 26 29  2  0  0  0  0
 28 24  1  0  0  0  0
 29 31  1  0  0  0  0
 30 29  1  0  0  0  0
 30 25  1  0  0  0  0
 31 24  1  0  0  0  0
M  END
>  <MODEL>
4

>  <REMARK>
 VINA RESULT:      -8.2      3.547      8.244
  Name = 
  2 active torsions:
  status: ('A' for Active; 'I' for Inactive)
    1  A    between atoms: C_5  and  C_16
    2  A    between atoms: N_10  and  C_16
                            x       y       z     vdW  Elec       q    Type
                         _______ _______ _______ _____ _____    ______ ____

>  <TORSDO>
F 2

$$$$
=
 OpenBabel11122411033D

 31 35  0  0  1  0  0  0  0  0999 V2000
  188.6610  177.4100  135.9730 C   0  0  0  0  0  0  0  0  0  0  0  0
  185.6150  178.4950  137.9500 C   0  0  2  0  0  3  0  0  0  0  0  0
  184.8290  177.1890  137.9330 C   0  0  0  0  0  0  0  0  0  0  0  0
  184.3430  175.0060  136.9770 C   0  0  0  0  0  0  0  0  0  0  0  0
  187.1060  178.3690  137.6120 C   0  0  2  0  0  3  0  0  0  0  0  0
  189.6670  177.3210  137.0550 C   0  0  0  0  0  3  0  0  0  0  0  0
  185.1010  176.1790  136.9980 C   0  0  0  0  0  3  0  0  0  0  0  0
  186.2510  178.4260  140.3640 N   0  0  0  0  0  0  0  0  0  0  0  0
  189.0150  176.9780  134.5960 C   0  0  0  0  0  1  0  0  0  0  0  0
  183.4200  178.0250  139.7390 O   0  0  0  0  0  0  0  0  0  0  0  0
  184.6550  173.9390  135.9910 C   0  0  0  0  0  1  0  0  0  0  0  0
  187.6740  178.3430  140.0110 C   0  0  0  0  0  2  0  0  0  0  0  0
  185.5140  179.1890  139.3320 C   0  0  2  0  0  3  0  0  0  0  0  0
  187.4310  177.8700  136.2300 C   0  0  0  0  0  3  0  0  0  0  0  0
  183.2920  174.8360  137.8800 C   0  0  0  0  0  3  0  0  0  0  0  0
  187.8510  177.5940  138.6990 C   0  0  2  0  0  3  0  0  0  0  0  0
  189.3030  177.4500  138.3370 C   0  0  0  0  0  3  0  0  0  0  0  0
  184.0280  179.3140  139.6880 C   0  0  0  0  0  2  0  0  0  0  0  0
  183.7430  177.0230  138.8190 C   0  0  0  0  0  0  0  0  0  0  0  0
  182.9920  175.8440  138.7990 C   0  0  0  0  0  3  0  0  0  0  0  0
  186.2000  179.1610  141.6220 C   0  0  0  0  0  2  0  0  0  0  0  0
  184.5720  177.8180  142.7050 O   0  0  0  0  0  0  0  0  0  0  0  0
  185.7570  178.2470  142.7190 C   0  0  0  0  0  0  0  0  0  0  0  0
  188.2630  177.2210  146.0140 N   0  0  0  0  0  0  0  0  0  0  0  0
  186.0240  177.5040  145.0890 C   0  0  0  0  0  2  0  0  0  0  0  0
  188.6090  177.8910  142.5610 O   0  0  0  0  0  0  0  0  0  0  0  0
  189.0600  177.4590  147.2040 C   0  0  0  0  0  1  0  0  0  0  0  0
  186.9520  177.8140  146.2610 C   0  0  0  0  0  2  0  0  0  0  0  0
  188.0580  177.9140  143.6930 C   0  0  0  0  0  0  0  0  0  0  0  0
  186.6220  177.9350  143.8230 N   0  0  0  0  0  0  0  0  0  0  0  0
  188.9070  177.9550  144.9260 C   0  0  0  0  0  2  0  0  0  0  0  0
  1 14  2  0  0  0  0
  1  6  1  0  0  0  0
  2  3  1  1  0  0  0
  2 13  1  0  0  0  0
  3 19  1  0  0  0  0
  4  7  1  0  0  0  0
  4 15  2  0  0  0  0
  5 14  1  6  0  0  0
  5  2  1  0  0  0  0
  5 16  1  0  0  0  0
  6 17  2  0  0  0  0
  7  3  2  0  0  0  0
  8 21  1  0  0  0  0
  9  1  1  0  0  0  0
 11  4  1  0  0  0  0
 12  8  1  0  0  0  0
 13 18  1  1  0  0  0
 13  8  1  0  0  0  0
 15 20  1  0  0  0  0
 16 17  1  6  0  0  0
 16 12  1  0  0  0  0
 18 10  1  0  0  0  0
 19 10  1  0  0  0  0
 20 19  2  0  0  0  0
 21 23  1  0  0  0  0
 22 23  2  0  0  0  0
 23 30  1  0  0  0  0
 24 28  1  0  0  0  0
 24 27  1  0  0  0  0
 25 28  1  0  0  0  0
 26 29  2  0  0  0  0
 29 30  1  0  0  0  0
 29 31  1  0  0  0  0
 30 25  1  0  0  0  0
 31 24  1  0  0  0  0
M  END
>  <MODEL>
5

>  <REMARK>
 VINA RESULT:      -7.9      2.694      7.697
  Name = 
  2 active torsions:
  status: ('A' for Active; 'I' for Inactive)
    1  A    between atoms: C_5  and  C_16
    2  A    between atoms: N_10  and  C_16
                            x       y       z     vdW  Elec       q    Type
                         _______ _______ _______ _____ _____    ______ ____

>  <TORSDO>
F 2

$$$$
=
 OpenBabel11122411033D

 31 35  0  0  1  0  0  0  0  0999 V2000
  190.3910  176.1420  143.1070 C   0  0  0  0  0  0  0  0  0  0  0  0
  186.7770  177.0340  143.8200 C   0  0  2  0  0  3  0  0  0  0  0  0
  186.9490  177.7000  145.1810 C   0  0  0  0  0  0  0  0  0  0  0  0
  188.2160  178.0850  147.2210 C   0  0  0  0  0  0  0  0  0  0  0  0
  188.0590  176.8980  142.9880 C   0  0  2  0  0  3  0  0  0  0  0  0
  190.7160  177.1420  142.0660 C   0  0  0  0  0  3  0  0  0  0  0  0
  188.0960  177.4940  145.9610 C   0  0  0  0  0  3  0  0  0  0  0  0
  186.2730  179.1130  142.5330 N   0  0  0  0  0  0  0  0  0  0  0  0
  191.4570  175.2510  143.6360 C   0  0  0  0  0  1  0  0  0  0  0  0
  184.7220  178.6710  144.9750 O   0  0  0  0  0  0  0  0  0  0  0  0
  189.4450  177.8690  148.0280 C   0  0  0  0  0  1  0  0  0  0  0  0
  187.4880  178.9380  141.7280 C   0  0  0  0  0  2  0  0  0  0  0  0
  185.7450  177.7960  142.9520 C   0  0  2  0  0  3  0  0  0  0  0  0
  189.1440  176.0390  143.5810 C   0  0  0  0  0  3  0  0  0  0  0  0
  187.1820  178.8770  147.7230 C   0  0  0  0  0  3  0  0  0  0  0  0
  188.5770  178.2680  142.5520 C   0  0  2  0  0  3  0  0  0  0  0  0
  189.8510  178.1200  141.7660 C   0  0  0  0  0  3  0  0  0  0  0  0
  184.4600  177.9480  143.7740 C   0  0  0  0  0  2  0  0  0  0  0  0
  185.8940  178.4740  145.7100 C   0  0  0  0  0  0  0  0  0  0  0  0
  186.0220  179.0700  146.9680 C   0  0  0  0  0  3  0  0  0  0  0  0
  185.3040  179.7530  141.6500 C   0  0  0  0  0  2  0  0  0  0  0  0
  186.1970  178.4970  139.8460 O   0  0  0  0  0  0  0  0  0  0  0  0
  185.1580  178.9470  140.4000 C   0  0  0  0  0  0  0  0  0  0  0  0
  181.3920  178.3070  138.5010 N   0  0  0  0  0  0  0  0  0  0  0  0
  183.8220  178.4540  138.3470 C   0  0  0  0  0  2  0  0  0  0  0  0
  182.6550  178.6280  141.7870 O   0  0  0  0  0  0  0  0  0  0  0  0
  180.1670  178.6780  137.8180 C   0  0  0  0  0  1  0  0  0  0  0  0
  182.4920  178.8980  137.7430 C   0  0  0  0  0  2  0  0  0  0  0  0
  182.6480  178.7560  140.5340 C   0  0  0  0  0  0  0  0  0  0  0  0
  183.8750  178.7640  139.7770 N   0  0  0  0  0  0  0  0  0  0  0  0
  181.3440  178.9370  139.8190 C   0  0  0  0  0  2  0  0  0  0  0  0
  1 14  2  0  0  0  0
  1  9  1  0  0  0  0
  2  3  1  1  0  0  0
  3 19  2  0  0  0  0
  3  7  1  0  0  0  0
  4 15  1  0  0  0  0
  4 11  1  0  0  0  0
  5 14  1  1  0  0  0
  5  2  1  0  0  0  0
  6  1  1  0  0  0  0
  7  4  2  0  0  0  0
  8 13  1  0  0  0  0
 10 19  1  0  0  0  0
 12  8  1  0  0  0  0
 13 18  1  1  0  0  0
 13  2  1  0  0  0  0
 16 12  1  6  0  0  0
 16  5  1  0  0  0  0
 17  6  2  0  0  0  0
 17 16  1  0  0  0  0
 18 10  1  0  0  0  0
 19 20  1  0  0  0  0
 20 15  2  0  0  0  0
 21  8  1  0  0  0  0
 22 23  2  0  0  0  0
 23 21  1  0  0  0  0
 24 31  1  0  0  0  0
 25 30  1  0  0  0  0
 27 24  1  0  0  0  0
 28 25  1  0  0  0  0
 28 24  1  0  0  0  0
 29 26  2  0  0  0  0
 30 23  1  0  0  0  0
 30 29  1  0  0  0  0
 31 29  1  0  0  0  0
M  END
>  <MODEL>
6

>  <REMARK>
 VINA RESULT:      -7.8      1.501      2.187
  Name = 
  2 active torsions:
  status: ('A' for Active; 'I' for Inactive)
    1  A    between atoms: C_5  and  C_16
    2  A    between atoms: N_10  and  C_16
                            x       y       z     vdW  Elec       q    Type
                         _______ _______ _______ _____ _____    ______ ____

>  <TORSDO>
F 2

$$$$
=
 OpenBabel11122411033D

 31 35  0  0  1  0  0  0  0  0999 V2000
  190.1470  176.8150  136.1190 C   0  0  0  0  0  0  0  0  0  0  0  0
  188.6740  178.6290  139.1030 C   0  0  2  0  0  3  0  0  0  0  0  0
  187.2050  178.2650  138.9150 C   0  0  0  0  0  0  0  0  0  0  0  0
  185.3550  177.5190  137.5230 C   0  0  0  0  0  0  0  0  0  0  0  0
  189.6720  177.7490  138.3380 C   0  0  2  0  0  3  0  0  0  0  0  0
  190.8140  175.6790  136.7960 C   0  0  0  0  0  3  0  0  0  0  0  0
  186.7120  177.8110  137.6830 C   0  0  0  0  0  3  0  0  0  0  0  0
  189.0810  177.1900  141.1030 N   0  0  0  0  0  0  0  0  0  0  0  0
  190.1120  176.8750  134.6350 C   0  0  0  0  0  1  0  0  0  0  0  0
  186.7500  178.9580  141.2080 O   0  0  0  0  0  0  0  0  0  0  0  0
  184.8520  177.0240  136.2150 C   0  0  0  0  0  1  0  0  0  0  0  0
  190.0580  176.3880  140.3570 C   0  0  0  0  0  2  0  0  0  0  0  0
  189.0730  178.5820  140.5990 C   0  0  2  0  0  3  0  0  0  0  0  0
  189.5690  177.7840  136.8370 C   0  0  0  0  0  3  0  0  0  0  0  0
  184.4720  177.6940  138.5900 C   0  0  0  0  0  3  0  0  0  0  0  0
  189.6760  176.3220  138.8860 C   0  0  2  0  0  3  0  0  0  0  0  0
  190.6340  175.4650  138.1050 C   0  0  0  0  0  3  0  0  0  0  0  0
  188.0780  179.4500  141.3790 C   0  0  0  0  0  2  0  0  0  0  0  0
  186.2990  178.4720  139.9780 C   0  0  0  0  0  0  0  0  0  0  0  0
  184.9440  178.1710  139.8150 C   0  0  0  0  0  3  0  0  0  0  0  0
  189.5450  177.1900  142.4860 C   0  0  0  0  0  2  0  0  0  0  0  0
  187.4410  176.1620  142.8660 O   0  0  0  0  0  0  0  0  0  0  0  0
  188.4450  176.7220  143.3830 C   0  0  0  0  0  0  0  0  0  0  0  0
  188.4570  177.4120  147.5930 N   0  0  0  0  0  0  0  0  0  0  0  0
  187.2100  177.0020  145.5370 C   0  0  0  0  0  2  0  0  0  0  0  0
  190.8020  176.7290  145.0370 O   0  0  0  0  0  0  0  0  0  0  0  0
  188.4480  178.1990  148.8110 C   0  0  0  0  0  1  0  0  0  0  0  0
  187.3260  177.8660  146.7890 C   0  0  0  0  0  2  0  0  0  0  0  0
  189.7090  177.1130  145.5290 C   0  0  0  0  0  0  0  0  0  0  0  0
  188.4740  176.9850  144.7960 N   0  0  0  0  0  0  0  0  0  0  0  0
  189.6920  177.7460  146.8870 C   0  0  0  0  0  2  0  0  0  0  0  0
  1  6  1  0  0  0  0
  1 14  2  0  0  0  0
  2  3  1  1  0  0  0
  2 13  1  0  0  0  0
  3 19  1  0  0  0  0
  4  7  1  0  0  0  0
  4 15  2  0  0  0  0
  5 14  1  6  0  0  0
  5 16  1  0  0  0  0
  5  2  1  0  0  0  0
  6 17  2  0  0  0  0
  7  3  2  0  0  0  0
  8 21  1  0  0  0  0
  9  1  1  0  0  0  0
 10 18  1  0  0  0  0
 11  4  1  0  0  0  0
 12  8  1  0  0  0  0
 13  8  1  0  0  0  0
 13 18  1  1  0  0  0
 15 20  1  0  0  0  0
 16 17  1  6  0  0  0
 16 12  1  0  0  0  0
 19 10  1  0  0  0  0
 20 19  2  0  0  0  0
 21 23  1  0  0  0  0
 22 23  2  0  0  0  0
 23 30  1  0  0  0  0
 24 27  1  0  0  0  0
 25 28  1  0  0  0  0
 26 29  2  0  0  0  0
 28 24  1  0  0  0  0
 29 31  1  0  0  0  0
 30 29  1  0  0  0  0
 30 25  1  0  0  0  0
 31 24  1  0  0  0  0
M  END
>  <MODEL>
7

>  <REMARK>
 VINA RESULT:      -7.7      3.312      7.685
  Name = 
  2 active torsions:
  status: ('A' for Active; 'I' for Inactive)
    1  A    between atoms: C_5  and  C_16
    2  A    between atoms: N_10  and  C_16
                            x       y       z     vdW  Elec       q    Type
                         _______ _______ _______ _____ _____    ______ ____

>  <TORSDO>
F 2

$$$$
=
 OpenBabel11122411033D

 31 35  0  0  1  0  0  0  0  0999 V2000
  182.8300  172.9920  136.7520 C   0  0  0  0  0  0  0  0  0  0  0  0
  184.9260  176.0990  136.1930 C   0  0  2  0  0  3  0  0  0  0  0  0
  184.5660  176.8720  137.4580 C   0  0  0  0  0  0  0  0  0  0  0  0
  183.0900  177.3110  139.3410 C   0  0  0  0  0  0  0  0  0  0  0  0
  184.6090  174.5980  136.2290 C   0  0  2  0  0  3  0  0  0  0  0  0
  183.8840  172.0130  137.1010 C   0  0  0  0  0  3  0  0  0  0  0  0
  183.4200  176.5650  138.2060 C   0  0  0  0  0  3  0  0  0  0  0  0
  187.2660  175.5270  136.8520 N   0  0  0  0  0  0  0  0  0  0  0  0
  181.3990  172.5970  136.8300 C   0  0  0  0  0  1  0  0  0  0  0  0
  186.4810  178.3370  137.0950 O   0  0  0  0  0  0  0  0  0  0  0  0
  181.8810  176.9630  140.1320 C   0  0  0  0  0  1  0  0  0  0  0  0
  186.9430  174.0950  136.8420 C   0  0  0  0  0  2  0  0  0  0  0  0
  186.4320  176.2430  135.8610 C   0  0  2  0  0  3  0  0  0  0  0  0
  183.1570  174.2320  136.3720 C   0  0  0  0  0  3  0  0  0  0  0  0
  183.8940  178.3840  139.7300 C   0  0  0  0  0  3  0  0  0  0  0  0
  185.4930  173.8760  137.2450 C   0  0  2  0  0  3  0  0  0  0  0  0
  185.1480  172.4130  137.2920 C   0  0  0  0  0  3  0  0  0  0  0  0
  186.7660  177.7390  135.8310 C   0  0  0  0  0  2  0  0  0  0  0  0
  185.3530  177.9800  137.8390 C   0  0  0  0  0  0  0  0  0  0  0  0
  185.0230  178.7190  138.9790 C   0  0  0  0  0  3  0  0  0  0  0  0
  188.6640  175.6190  136.4490 C   0  0  0  0  0  2  0  0  0  0  0  0
  189.0150  176.6820  138.5400 O   0  0  0  0  0  0  0  0  0  0  0  0
  189.5070  175.9530  137.6370 C   0  0  0  0  0  0  0  0  0  0  0  0
  193.5820  174.7410  137.9830 N   0  0  0  0  0  0  0  0  0  0  0  0
  191.7970  176.2940  138.5750 C   0  0  0  0  0  2  0  0  0  0  0  0
  190.5670  173.4650  136.6500 O   0  0  0  0  0  0  0  0  0  0  0  0
  194.9860  174.6780  137.6230 C   0  0  0  0  0  1  0  0  0  0  0  0
  193.2380  176.1560  138.0900 C   0  0  0  0  0  2  0  0  0  0  0  0
  191.3630  174.3450  137.0690 C   0  0  0  0  0  0  0  0  0  0  0  0
  190.8820  175.5420  137.7140 N   0  0  0  0  0  0  0  0  0  0  0  0
  192.8370  174.1650  136.8660 C   0  0  0  0  0  2  0  0  0  0  0  0
  1  9  1  0  0  0  0
  1  6  1  0  0  0  0
  2  5  1  0  0  0  0
  2  3  1  1  0  0  0
  3 19  2  0  0  0  0
  3  7  1  0  0  0  0
  4 15  1  0  0  0  0
  4 11  1  0  0  0  0
  5 14  1  1  0  0  0
  5 16  1  0  0  0  0
  6 17  2  0  0  0  0
  7  4  2  0  0  0  0
 10 19  1  0  0  0  0
 12  8  1  0  0  0  0
 13 18  1  1  0  0  0
 13  2  1  0  0  0  0
 13  8  1  0  0  0  0
 14  1  2  0  0  0  0
 16 12  1  6  0  0  0
 16 17  1  0  0  0  0
 18 10  1  0  0  0  0
 19 20  1  0  0  0  0
 20 15  2  0  0  0  0
 21  8  1  0  0  0  0
 21 23  1  0  0  0  0
 23 30  1  0  0  0  0
 23 22  2  0  0  0  0
 24 28  1  0  0  0  0
 26 29  2  0  0  0  0
 27 24  1  0  0  0  0
 28 25  1  0  0  0  0
 29 30  1  0  0  0  0
 30 25  1  0  0  0  0
 31 29  1  0  0  0  0
 31 24  1  0  0  0  0
M  END
>  <MODEL>
8

>  <REMARK>
 VINA RESULT:      -7.6      5.745      9.284
  Name = 
  2 active torsions:
  status: ('A' for Active; 'I' for Inactive)
    1  A    between atoms: C_5  and  C_16
    2  A    between atoms: N_10  and  C_16
                            x       y       z     vdW  Elec       q    Type
                         _______ _______ _______ _____ _____    ______ ____

>  <TORSDO>
F 2

$$$$
=
 OpenBabel11122411033D

 31 35  0  0  1  0  0  0  0  0999 V2000
  192.3600  174.9640  135.8550 C   0  0  0  0  0  0  0  0  0  0  0  0
  189.7960  177.4780  137.0660 C   0  0  2  0  0  3  0  0  0  0  0  0
  188.5250  176.6670  136.8360 C   0  0  0  0  0  0  0  0  0  0  0  0
  187.3190  174.8550  135.7510 C   0  0  0  0  0  0  0  0  0  0  0  0
  191.0970  176.6660  137.0920 C   0  0  2  0  0  3  0  0  0  0  0  0
  192.9470  174.5340  137.1440 C   0  0  0  0  0  3  0  0  0  0  0  0
  188.5040  175.5600  135.9750 C   0  0  0  0  0  3  0  0  0  0  0  0
  189.7780  177.3570  139.5600 N   0  0  0  0  0  0  0  0  0  0  0  0
  192.7720  174.2930  134.5940 C   0  0  0  0  0  1  0  0  0  0  0  0
  187.2940  178.2100  138.2680 O   0  0  0  0  0  0  0  0  0  0  0  0
  187.3180  173.6750  134.8480 C   0  0  0  0  0  1  0  0  0  0  0  0
  191.0430  176.6120  139.5560 C   0  0  0  0  0  2  0  0  0  0  0  0
  189.7210  178.2690  138.3960 C   0  0  2  0  0  3  0  0  0  0  0  0
  191.4540  175.9480  135.8190 C   0  0  0  0  0  3  0  0  0  0  0  0
  186.1370  175.2590  136.3730 C   0  0  0  0  0  3  0  0  0  0  0  0
  191.1430  175.7440  138.3100 C   0  0  2  0  0  3  0  0  0  0  0  0
  192.4090  174.9320  138.3040 C   0  0  0  0  0  3  0  0  0  0  0  0
  188.4190  179.0790  138.3880 C   0  0  0  0  0  2  0  0  0  0  0  0
  187.3170  177.0900  137.4340 C   0  0  0  0  0  0  0  0  0  0  0  0
  186.1360  176.3760  137.2120 C   0  0  0  0  0  3  0  0  0  0  0  0
  189.7920  178.1500  140.7830 C   0  0  0  0  0  2  0  0  0  0  0  0
  187.5690  177.5060  141.3020 O   0  0  0  0  0  0  0  0  0  0  0  0
  188.7490  177.6390  141.7240 C   0  0  0  0  0  0  0  0  0  0  0  0
  189.5500  176.8410  145.8370 N   0  0  0  0  0  0  0  0  0  0  0  0
  187.9560  177.4160  144.0820 C   0  0  0  0  0  2  0  0  0  0  0  0
  191.2360  176.6040  142.7390 O   0  0  0  0  0  0  0  0  0  0  0  0
  189.9260  177.1510  147.2030 C   0  0  0  0  0  1  0  0  0  0  0  0
  188.4760  177.7610  145.4760 C   0  0  0  0  0  2  0  0  0  0  0  0
  190.3670  177.0130  143.5530 C   0  0  0  0  0  0  0  0  0  0  0  0
  189.0500  177.3950  143.1080 N   0  0  0  0  0  0  0  0  0  0  0  0
  190.7150  177.1360  145.0040 C   0  0  0  0  0  2  0  0  0  0  0  0
  1  6  1  0  0  0  0
  2  3  1  1  0  0  0
  2  5  1  0  0  0  0
  2 13  1  0  0  0  0
  3 19  1  0  0  0  0
  4  7  1  0  0  0  0
  4 15  2  0  0  0  0
  5 14  1  6  0  0  0
  5 16  1  0  0  0  0
  6 17  2  0  0  0  0
  7  3  2  0  0  0  0
  8 21  1  0  0  0  0
  9  1  1  0  0  0  0
 10 18  1  0  0  0  0
 11  4  1  0  0  0  0
 12  8  1  0  0  0  0
 13 18  1  6  0  0  0
 13  8  1  0  0  0  0
 14  1  2  0  0  0  0
 15 20  1  0  0  0  0
 16 17  1  1  0  0  0
 16 12  1  0  0  0  0
 19 10  1  0  0  0  0
 20 19  2  0  0  0  0
 21 23  1  0  0  0  0
 22 23  2  0  0  0  0
 23 30  1  0  0  0  0
 24 27  1  0  0  0  0
 25 28  1  0  0  0  0
 26 29  2  0  0  0  0
 28 24  1  0  0  0  0
 29 31  1  0  0  0  0
 30 29  1  0  0  0  0
 30 25  1  0  0  0  0
 31 24  1  0  0  0  0
M  END
>  <MODEL>
9

>  <REMARK>
 VINA RESULT:      -7.4      4.637      8.365
  Name = 
  2 active torsions:
  status: ('A' for Active; 'I' for Inactive)
    1  A    between atoms: C_5  and  C_16
    2  A    between atoms: N_10  and  C_16
                            x       y       z     vdW  Elec       q    Type
                         _______ _______ _______ _____ _____    ______ ____

>  <TORSDO>
F 2

$$$$
