=
 OpenBabel11122410333D

 30 35  0  0  1  0  0  0  0  0999 V2000
  185.9330  178.0420  137.7300 C   0  0  2  0  0  3  0  0  0  0  0  0
  184.0270  179.1200  139.0590 C   0  0  0  0  0  0  0  0  0  0  0  0
  184.0130  174.7100  137.9220 N   0  0  0  0  0  2  0  0  0  0  0  0
  186.4830  176.6700  137.3060 C   0  0  2  0  0  3  0  0  0  0  0  0
  186.8580  178.8890  138.4280 O   0  0  0  0  0  0  0  0  0  0  0  0
  189.9460  177.5770  137.3130 O   0  0  0  0  0  0  0  0  0  0  0  0
  188.4250  174.6440  135.8020 C   0  0  1  0  0  3  0  0  0  0  0  0
  188.7040  177.5840  137.5230 C   0  0  0  0  0  0  0  0  0  0  0  0
  187.4130  173.9840  136.7380 C   0  0  2  0  0  3  0  0  0  0  0  0
  185.0260  173.8030  137.5370 C   0  0  0  0  0  0  0  0  0  0  0  0
  188.1370  178.3190  138.7020 C   0  0  2  0  0  3  0  0  0  0  0  0
  187.7940  176.8500  136.6990 N   0  0  0  0  0  0  0  0  0  0  0  0
  182.6700  179.0480  139.6860 C   0  0  0  0  0  2  0  0  0  0  0  0
  187.6410  172.5220  136.4390 C   0  0  0  0  0  2  0  0  0  0  0  0
  188.4960  173.8350  134.5940 N   0  0  0  0  0  2  0  0  0  0  0  0
  184.6110  180.1920  139.0090 O   0  0  0  0  0  0  0  0  0  0  0  0
  184.0920  175.8330  137.0070 C   0  0  2  0  0  3  0  0  0  0  0  0
  181.7020  178.3570  138.7290 C   0  0  0  0  0  2  0  0  0  0  0  0
  184.6360  177.8410  138.5220 C   0  0  1  0  0  3  0  0  0  0  0  0
  185.5250  175.8320  136.4350 C   0  0  2  0  0  3  0  0  0  0  0  0
  185.1180  172.6510  138.0380 O   0  0  0  0  0  0  0  0  0  0  0  0
  185.9220  174.3290  136.4650 C   0  0  1  0  0  3  0  0  0  0  0  0
  188.1710  172.4760  135.0140 C   0  0  0  0  0  2  0  0  0  0  0  0
  189.2880  176.7550  134.6970 C   0  0  0  0  0  1  0  0  0  0  0  0
  182.2450  176.9960  138.3010 C   0  0  0  0  0  2  0  0  0  0  0  0
  183.6030  177.1600  137.6080 C   0  0  2  0  0  3  0  0  0  0  0  0
  188.1530  176.1110  135.4810 C   0  0  1  0  0  3  0  0  0  0  0  0
  188.0890  177.4230  139.9330 C   0  0  0  0  0  2  0  0  0  0  0  0
  186.8250  178.5730  141.7200 C   0  0  0  0  0  1  0  0  0  0  0  0
  188.2070  178.2540  141.1950 C   0  0  0  0  0  2  0  0  0  0  0  0
  1  5  1  1  0  0  0
  1 19  1  0  0  0  0
  2 13  1  0  0  0  0
  4 12  1  6  0  0  0
  4  1  1  0  0  0  0
  5 11  1  0  0  0  0
  6  8  2  0  0  0  0
  7 15  1  6  0  0  0
  7  9  1  0  0  0  0
  8 11  1  0  0  0  0
  9 14  1  6  0  0  0
 10  3  1  0  0  0  0
 10 21  2  0  0  0  0
 11 28  1  1  0  0  0
 12  8  1  0  0  0  0
 15 23  1  0  0  0  0
 16  2  2  0  0  0  0
 17 26  1  0  0  0  0
 17  3  1  1  0  0  0
 18 13  1  0  0  0  0
 19  2  1  6  0  0  0
 20 22  1  0  0  0  0
 20 17  1  0  0  0  0
 20  4  1  0  0  0  0
 22  9  1  0  0  0  0
 22 10  1  0  0  0  0
 23 14  1  0  0  0  0
 24 27  1  0  0  0  0
 25 18  1  0  0  0  0
 26 25  1  0  0  0  0
 26 19  1  0  0  0  0
 27  7  1  0  0  0  0
 27 12  1  0  0  0  0
 28 30  1  0  0  0  0
 30 29  1  0  0  0  0
M  END
>  <MODEL>
1

>  <REMARK>
 VINA RESULT:      -6.4      0.000      0.000
  Name = 
  2 active torsions:
  status: ('A' for Active; 'I' for Inactive)
    1  A    between atoms: C_11  and  C_28
    2  A    between atoms: C_28  and  C_30
                            x       y       z     vdW  Elec       q    Type
                         _______ _______ _______ _____ _____    ______ ____

>  <TORSDO>
F 2

$$$$
=
 OpenBabel11122410333D

 30 35  0  0  1  0  0  0  0  0999 V2000
  188.4670  178.2990  140.2940 C   0  0  2  0  0  3  0  0  0  0  0  0
  186.0260  178.9690  140.6870 C   0  0  0  0  0  0  0  0  0  0  0  0
  187.2450  175.9910  137.4650 N   0  0  0  0  0  2  0  0  0  0  0  0
  189.3300  177.2660  139.5500 C   0  0  2  0  0  3  0  0  0  0  0  0
  188.6870  178.3810  141.7100 O   0  0  0  0  0  0  0  0  0  0  0  0
  191.9740  177.1050  141.9580 O   0  0  0  0  0  0  0  0  0  0  0  0
  192.0230  175.9100  138.5270 C   0  0  1  0  0  3  0  0  0  0  0  0
  190.8580  177.3200  141.4150 C   0  0  0  0  0  0  0  0  0  0  0  0
  190.7470  175.1440  138.1750 C   0  0  2  0  0  3  0  0  0  0  0  0
  188.3950  175.1950  137.2620 C   0  0  0  0  0  0  0  0  0  0  0  0
  189.6170  177.4450  142.2500 C   0  0  2  0  0  3  0  0  0  0  0  0
  190.7110  177.3920  139.9940 N   0  0  0  0  0  0  0  0  0  0  0  0
  184.5830  178.9320  140.2920 C   0  0  0  0  0  2  0  0  0  0  0  0
  191.2910  174.0560  137.2810 C   0  0  0  0  0  2  0  0  0  0  0  0
  192.8930  175.8680  137.3620 N   0  0  0  0  0  2  0  0  0  0  0  0
  186.3860  179.7140  141.5860 O   0  0  0  0  0  0  0  0  0  0  0  0
  187.7040  177.3610  137.5870 C   0  0  2  0  0  3  0  0  0  0  0  0
  184.4620  179.1240  138.7830 C   0  0  0  0  0  2  0  0  0  0  0  0
  186.9910  178.0560  139.9590 C   0  0  1  0  0  3  0  0  0  0  0  0
  189.1850  177.2900  138.0150 C   0  0  2  0  0  3  0  0  0  0  0  0
  188.3200  173.9740  136.9630 O   0  0  0  0  0  0  0  0  0  0  0  0
  189.6740  175.9530  137.3920 C   0  0  1  0  0  3  0  0  0  0  0  0
  192.5590  174.6290  136.6680 C   0  0  0  0  0  2  0  0  0  0  0  0
  193.0950  177.9790  139.5230 C   0  0  0  0  0  1  0  0  0  0  0  0
  185.3200  178.1030  138.0400 C   0  0  0  0  0  2  0  0  0  0  0  0
  186.7910  178.2490  138.4470 C   0  0  2  0  0  3  0  0  0  0  0  0
  191.8090  177.3380  139.0180 C   0  0  1  0  0  3  0  0  0  0  0  0
  188.9680  176.0850  142.4690 C   0  0  0  0  0  2  0  0  0  0  0  0
  188.3080  177.0630  144.6420 C   0  0  0  0  0  1  0  0  0  0  0  0
  187.8540  176.1910  143.4920 C   0  0  0  0  0  2  0  0  0  0  0  0
  1  5  1  1  0  0  0
  2 16  2  0  0  0  0
  4 12  1  6  0  0  0
  4  1  1  0  0  0  0
  5 11  1  0  0  0  0
  7 15  1  6  0  0  0
  7 27  1  0  0  0  0
  8  6  2  0  0  0  0
  8 11  1  0  0  0  0
  9 14  1  6  0  0  0
  9  7  1  0  0  0  0
 10 22  1  0  0  0  0
 10  3  1  0  0  0  0
 11 28  1  6  0  0  0
 12  8  1  0  0  0  0
 13  2  1  0  0  0  0
 17  3  1  1  0  0  0
 17 20  1  0  0  0  0
 17 26  1  0  0  0  0
 18 13  1  0  0  0  0
 19  1  1  0  0  0  0
 19  2  1  1  0  0  0
 20  4  1  0  0  0  0
 21 10  2  0  0  0  0
 22 20  1  0  0  0  0
 22  9  1  0  0  0  0
 23 14  1  0  0  0  0
 23 15  1  0  0  0  0
 25 26  1  0  0  0  0
 25 18  1  0  0  0  0
 26 19  1  0  0  0  0
 27 24  1  0  0  0  0
 27 12  1  0  0  0  0
 28 30  1  0  0  0  0
 30 29  1  0  0  0  0
M  END
>  <MODEL>
2

>  <REMARK>
 VINA RESULT:      -6.4      2.946      4.002
  Name = 
  2 active torsions:
  status: ('A' for Active; 'I' for Inactive)
    1  A    between atoms: C_11  and  C_28
    2  A    between atoms: C_28  and  C_30
                            x       y       z     vdW  Elec       q    Type
                         _______ _______ _______ _____ _____    ______ ____

>  <TORSDO>
F 2

$$$$
=
 OpenBabel11122410333D

 30 35  0  0  1  0  0  0  0  0999 V2000
  185.7990  178.9460  140.8140 C   0  0  2  0  0  3  0  0  0  0  0  0
  184.1750  179.1970  142.7790 C   0  0  0  0  0  0  0  0  0  0  0  0
  183.2680  176.5390  139.1940 N   0  0  0  0  0  2  0  0  0  0  0  0
  186.0590  178.0870  139.5660 C   0  0  2  0  0  3  0  0  0  0  0  0
  186.8900  179.0280  141.7440 O   0  0  0  0  0  0  0  0  0  0  0  0
  189.6310  178.3020  139.6340 O   0  0  0  0  0  0  0  0  0  0  0  0
  187.5280  177.2170  136.8780 C   0  0  1  0  0  3  0  0  0  0  0  0
  188.4210  178.3450  139.9780 C   0  0  0  0  0  0  0  0  0  0  0  0
  186.4290  176.2610  137.3450 C   0  0  2  0  0  3  0  0  0  0  0  0
  184.0730  175.9490  138.1950 C   0  0  0  0  0  0  0  0  0  0  0  0
  188.0380  178.2450  141.4260 C   0  0  2  0  0  3  0  0  0  0  0  0
  187.3640  178.4270  139.0170 N   0  0  0  0  0  0  0  0  0  0  0  0
  182.8470  178.9340  143.4150 C   0  0  0  0  0  2  0  0  0  0  0  0
  186.3580  175.2990  136.1840 C   0  0  0  0  0  2  0  0  0  0  0  0
  187.4080  177.3470  135.4340 N   0  0  0  0  0  2  0  0  0  0  0  0
  184.9570  179.9690  143.3150 O   0  0  0  0  0  0  0  0  0  0  0  0
  183.5440  177.9640  139.1610 C   0  0  2  0  0  3  0  0  0  0  0  0
  181.7380  179.1400  142.3870 C   0  0  0  0  0  2  0  0  0  0  0  0
  184.5080  178.4730  141.4910 C   0  0  1  0  0  3  0  0  0  0  0  0
  184.9340  178.1260  138.5110 C   0  0  2  0  0  3  0  0  0  0  0  0
  183.9500  174.7390  137.8640 O   0  0  0  0  0  0  0  0  0  0  0  0
  185.0290  176.9020  137.5570 C   0  0  1  0  0  3  0  0  0  0  0  0
  186.8330  176.0880  134.9730 C   0  0  0  0  0  2  0  0  0  0  0  0
  188.7610  179.4080  137.1910 C   0  0  0  0  0  1  0  0  0  0  0  0
  181.9930  178.2930  141.1420 C   0  0  0  0  0  2  0  0  0  0  0  0
  183.3390  178.6680  140.5110 C   0  0  2  0  0  3  0  0  0  0  0  0
  187.5410  178.5780  137.5660 C   0  0  1  0  0  3  0  0  0  0  0  0
  187.8460  176.7910  141.8400 C   0  0  0  0  0  2  0  0  0  0  0  0
  187.3660  177.0250  144.2540 C   0  0  0  0  0  1  0  0  0  0  0  0
  188.3880  176.5650  143.2370 C   0  0  0  0  0  2  0  0  0  0  0  0
  1 19  1  0  0  0  0
  1  5  1  1  0  0  0
  2 16  2  0  0  0  0
  2 13  1  0  0  0  0
  4 12  1  6  0  0  0
  4  1  1  0  0  0  0
  6  8  2  0  0  0  0
  7 15  1  6  0  0  0
  7  9  1  0  0  0  0
  7 27  1  0  0  0  0
  8 11  1  0  0  0  0
  9 14  1  6  0  0  0
  9 22  1  0  0  0  0
 10  3  1  0  0  0  0
 11  5  1  0  0  0  0
 11 28  1  6  0  0  0
 12  8  1  0  0  0  0
 17  3  1  1  0  0  0
 17 26  1  0  0  0  0
 18 13  1  0  0  0  0
 19  2  1  1  0  0  0
 20 17  1  0  0  0  0
 20  4  1  0  0  0  0
 21 10  2  0  0  0  0
 22 10  1  0  0  0  0
 22 20  1  0  0  0  0
 23 15  1  0  0  0  0
 23 14  1  0  0  0  0
 24 27  1  0  0  0  0
 25 18  1  0  0  0  0
 26 25  1  0  0  0  0
 26 19  1  0  0  0  0
 27 12  1  0  0  0  0
 28 30  1  0  0  0  0
 30 29  1  0  0  0  0
M  END
>  <MODEL>
3

>  <REMARK>
 VINA RESULT:      -6.0      2.143      3.112
  Name = 
  2 active torsions:
  status: ('A' for Active; 'I' for Inactive)
    1  A    between atoms: C_11  and  C_28
    2  A    between atoms: C_28  and  C_30
                            x       y       z     vdW  Elec       q    Type
                         _______ _______ _______ _____ _____    ______ ____

>  <TORSDO>
F 2

$$$$
=
 OpenBabel11122410333D

 30 35  0  0  1  0  0  0  0  0999 V2000
  183.1420  179.2320  138.2740 C   0  0  2  0  0  3  0  0  0  0  0  0
  180.8170  180.1960  138.7470 C   0  0  0  0  0  0  0  0  0  0  0  0
  181.4160  176.0770  136.9000 N   0  0  0  0  0  2  0  0  0  0  0  0
  183.8510  177.9210  137.8960 C   0  0  2  0  0  3  0  0  0  0  0  0
  183.6170  179.8660  139.4710 O   0  0  0  0  0  0  0  0  0  0  0  0
  186.8880  178.5440  139.6850 O   0  0  0  0  0  0  0  0  0  0  0  0
  186.3070  176.0560  137.1020 C   0  0  1  0  0  3  0  0  0  0  0  0
  185.6930  178.6080  139.2920 C   0  0  0  0  0  0  0  0  0  0  0  0
  184.9850  175.3180  137.3130 C   0  0  2  0  0  3  0  0  0  0  0  0
  182.5060  175.1800  136.8600 C   0  0  0  0  0  0  0  0  0  0  0  0
  184.6250  179.1610  140.1910 C   0  0  2  0  0  3  0  0  0  0  0  0
  185.2910  178.1060  138.0140 N   0  0  0  0  0  0  0  0  0  0  0  0
  179.3260  180.1170  138.6450 C   0  0  0  0  0  2  0  0  0  0  0  0
  185.3520  173.9200  136.8760 C   0  0  0  0  0  2  0  0  0  0  0  0
  186.9510  175.4740  135.9340 N   0  0  0  0  0  2  0  0  0  0  0  0
  181.3380  181.2120  139.1840 O   0  0  0  0  0  0  0  0  0  0  0  0
  181.8960  177.3370  136.3650 C   0  0  2  0  0  3  0  0  0  0  0  0
  178.9340  179.6860  137.2350 C   0  0  0  0  0  2  0  0  0  0  0  0
  181.6300  178.9920  138.3170 C   0  0  1  0  0  3  0  0  0  0  0  0
  183.4300  177.3290  136.5350 C   0  0  2  0  0  3  0  0  0  0  0  0
  182.3720  173.9520  137.1110 O   0  0  0  0  0  0  0  0  0  0  0  0
  183.7920  175.8200  136.4530 C   0  0  1  0  0  3  0  0  0  0  0  0
  186.4910  174.0910  135.8810 C   0  0  0  0  0  2  0  0  0  0  0  0
  187.5520  178.2590  136.9600 C   0  0  0  0  0  1  0  0  0  0  0  0
  179.6380  178.3860  136.8520 C   0  0  0  0  0  2  0  0  0  0  0  0
  181.1590  178.5680  136.9150 C   0  0  2  0  0  3  0  0  0  0  0  0
  186.1930  177.5730  136.9840 C   0  0  1  0  0  3  0  0  0  0  0  0
  184.0210  178.0640  141.0570 C   0  0  0  0  0  2  0  0  0  0  0  0
  185.5170  178.2110  143.0200 C   0  0  0  0  0  1  0  0  0  0  0  0
  184.1070  178.4420  142.5220 C   0  0  0  0  0  2  0  0  0  0  0  0
  1 19  1  0  0  0  0
  1  5  1  1  0  0  0
  2 16  2  0  0  0  0
  4 12  1  6  0  0  0
  4  1  1  0  0  0  0
  5 11  1  0  0  0  0
  7 15  1  6  0  0  0
  7  9  1  0  0  0  0
  8  6  2  0  0  0  0
  8 11  1  0  0  0  0
  9 14  1  6  0  0  0
 10  3  1  0  0  0  0
 10 21  2  0  0  0  0
 11 28  1  6  0  0  0
 12  8  1  0  0  0  0
 13  2  1  0  0  0  0
 17 20  1  0  0  0  0
 17  3  1  1  0  0  0
 17 26  1  0  0  0  0
 18 13  1  0  0  0  0
 19  2  1  6  0  0  0
 20  4  1  0  0  0  0
 22 20  1  0  0  0  0
 22 10  1  0  0  0  0
 22  9  1  0  0  0  0
 23 15  1  0  0  0  0
 23 14  1  0  0  0  0
 24 27  1  0  0  0  0
 25 26  1  0  0  0  0
 25 18  1  0  0  0  0
 26 19  1  0  0  0  0
 27  7  1  0  0  0  0
 27 12  1  0  0  0  0
 28 30  1  0  0  0  0
 30 29  1  0  0  0  0
M  END
>  <MODEL>
4

>  <REMARK>
 VINA RESULT:      -5.6      2.011      3.204
  Name = 
  2 active torsions:
  status: ('A' for Active; 'I' for Inactive)
    1  A    between atoms: C_11  and  C_28
    2  A    between atoms: C_28  and  C_30
                            x       y       z     vdW  Elec       q    Type
                         _______ _______ _______ _____ _____    ______ ____

>  <TORSDO>
F 2

$$$$
=
 OpenBabel11122410333D

 30 35  0  0  1  0  0  0  0  0999 V2000
  184.8530  176.8450  136.6640 C   0  0  2  0  0  3  0  0  0  0  0  0
  187.2940  176.3760  136.0500 C   0  0  0  0  0  0  0  0  0  0  0  0
  186.1200  178.5600  139.8690 N   0  0  0  0  0  2  0  0  0  0  0  0
  183.9700  177.3110  137.8340 C   0  0  2  0  0  3  0  0  0  0  0  0
  184.4960  175.5780  136.0900 O   0  0  0  0  0  0  0  0  0  0  0  0
  181.0880  175.3580  137.0020 O   0  0  0  0  0  0  0  0  0  0  0  0
  181.2740  178.1740  139.2910 C   0  0  1  0  0  3  0  0  0  0  0  0
  182.2700  175.7890  137.0540 C   0  0  0  0  0  0  0  0  0  0  0  0
  182.4940  178.0800  140.2070 C   0  0  2  0  0  3  0  0  0  0  0  0
  184.9220  178.6380  140.6140 C   0  0  0  0  0  0  0  0  0  0  0  0
  183.4240  174.8860  136.7260 C   0  0  2  0  0  3  0  0  0  0  0  0
  182.5710  177.1210  137.4800 N   0  0  0  0  0  0  0  0  0  0  0  0
  188.7590  176.5410  136.3070 C   0  0  0  0  0  2  0  0  0  0  0  0
  181.9380  178.6260  141.5000 C   0  0  0  0  0  2  0  0  0  0  0  0
  180.5300  179.3640  139.6750 N   0  0  0  0  0  2  0  0  0  0  0  0
  186.9220  175.8300  135.0220 O   0  0  0  0  0  0  0  0  0  0  0  0
  185.7920  178.9620  138.5140 C   0  0  2  0  0  3  0  0  0  0  0  0
  189.0560  177.9980  136.6500 C   0  0  0  0  0  2  0  0  0  0  0  0
  186.3220  176.8810  137.0960 C   0  0  1  0  0  3  0  0  0  0  0  0
  184.2750  178.7340  138.3440 C   0  0  2  0  0  3  0  0  0  0  0  0
  184.9020  178.5030  141.8670 O   0  0  0  0  0  0  0  0  0  0  0  0
  183.7200  178.9370  139.7810 C   0  0  1  0  0  3  0  0  0  0  0  0
  180.8060  179.5570  141.0940 C   0  0  0  0  0  2  0  0  0  0  0  0
  180.3210  178.0710  136.9450 C   0  0  0  0  0  1  0  0  0  0  0  0
  188.1790  178.4690  137.8100 C   0  0  0  0  0  2  0  0  0  0  0  0
  186.6970  178.3320  137.4440 C   0  0  2  0  0  3  0  0  0  0  0  0
  181.5800  178.1600  137.7960 C   0  0  1  0  0  3  0  0  0  0  0  0
  183.9050  174.1450  137.9670 C   0  0  0  0  0  2  0  0  0  0  0  0
  186.0650  173.0010  137.5930 C   0  0  0  0  0  1  0  0  0  0  0  0
  184.5610  172.8360  137.5780 C   0  0  0  0  0  2  0  0  0  0  0  0
  1  5  1  1  0  0  0
  1 19  1  0  0  0  0
  1  4  1  0  0  0  0
  2 13  1  0  0  0  0
  3 10  1  0  0  0  0
  4 12  1  6  0  0  0
  4 20  1  0  0  0  0
  5 11  1  0  0  0  0
  6  8  2  0  0  0  0
  7 15  1  1  0  0  0
  7  9  1  0  0  0  0
  8 12  1  0  0  0  0
  9 14  1  1  0  0  0
 10 21  2  0  0  0  0
 11  8  1  0  0  0  0
 11 28  1  1  0  0  0
 12 27  1  0  0  0  0
 13 18  1  0  0  0  0
 15 23  1  0  0  0  0
 16  2  2  0  0  0  0
 17  3  1  1  0  0  0
 18 25  1  0  0  0  0
 19  2  1  6  0  0  0
 19 26  1  0  0  0  0
 20 17  1  0  0  0  0
 20 22  1  0  0  0  0
 22  9  1  0  0  0  0
 22 10  1  0  0  0  0
 23 14  1  0  0  0  0
 24 27  1  0  0  0  0
 26 25  1  0  0  0  0
 26 17  1  0  0  0  0
 27  7  1  0  0  0  0
 30 29  1  0  0  0  0
 30 28  1  0  0  0  0
M  END
>  <MODEL>
5

>  <REMARK>
 VINA RESULT:      -5.6      2.578      6.818
  Name = 
  2 active torsions:
  status: ('A' for Active; 'I' for Inactive)
    1  A    between atoms: C_11  and  C_28
    2  A    between atoms: C_28  and  C_30
                            x       y       z     vdW  Elec       q    Type
                         _______ _______ _______ _____ _____    ______ ____

>  <TORSDO>
F 2

$$$$
=
 OpenBabel11122410333D

 30 35  0  0  1  0  0  0  0  0999 V2000
  182.9630  177.7540  137.5470 C   0  0  2  0  0  3  0  0  0  0  0  0
  185.1630  176.8560  136.5920 C   0  0  0  0  0  0  0  0  0  0  0  0
  184.7930  178.3310  140.8850 N   0  0  0  0  0  2  0  0  0  0  0  0
  182.2930  178.1420  138.8760 C   0  0  2  0  0  3  0  0  0  0  0  0
  182.2590  176.7780  136.7640 O   0  0  0  0  0  0  0  0  0  0  0  0
  178.9620  177.1960  137.9690 O   0  0  0  0  0  0  0  0  0  0  0  0
  179.9920  179.2820  140.7590 C   0  0  1  0  0  3  0  0  0  0  0  0
  180.2170  177.3010  137.9820 C   0  0  0  0  0  0  0  0  0  0  0  0
  181.1900  178.6870  141.5000 C   0  0  2  0  0  3  0  0  0  0  0  0
  183.6960  178.5270  141.7530 C   0  0  0  0  0  0  0  0  0  0  0  0
  181.0760  176.2430  137.3540 C   0  0  2  0  0  3  0  0  0  0  0  0
  180.8770  178.3860  138.6410 N   0  0  0  0  0  0  0  0  0  0  0  0
  186.6310  176.5950  136.7210 C   0  0  0  0  0  2  0  0  0  0  0  0
  180.8610  179.0430  142.9300 C   0  0  0  0  0  2  0  0  0  0  0  0
  179.6060  180.4980  141.4590 N   0  0  0  0  0  2  0  0  0  0  0  0
  184.6100  176.6670  135.5190 O   0  0  0  0  0  0  0  0  0  0  0  0
  184.5150  179.0980  139.6850 C   0  0  2  0  0  3  0  0  0  0  0  0
  187.3150  177.8180  137.3250 C   0  0  0  0  0  2  0  0  0  0  0  0
  184.4100  177.3310  137.8180 C   0  0  1  0  0  3  0  0  0  0  0  0
  182.9850  179.2930  139.6340 C   0  0  2  0  0  3  0  0  0  0  0  0
  183.7040  178.1190  142.9450 O   0  0  0  0  0  0  0  0  0  0  0  0
  182.5740  179.2920  141.1330 C   0  0  1  0  0  3  0  0  0  0  0  0
  179.9930  180.2890  142.8490 C   0  0  0  0  0  2  0  0  0  0  0  0
  178.9310  179.9530  138.5580 C   0  0  0  0  0  1  0  0  0  0  0  0
  186.6520  178.2110  138.6430 C   0  0  0  0  0  2  0  0  0  0  0  0
  185.1690  178.5270  138.4170 C   0  0  2  0  0  3  0  0  0  0  0  0
  180.2100  179.5350  139.2700 C   0  0  1  0  0  3  0  0  0  0  0  0
  181.4070  175.1440  138.3550 C   0  0  0  0  0  2  0  0  0  0  0  0
  179.6250  173.9610  139.5960 C   0  0  0  0  0  1  0  0  0  0  0  0
  180.3740  174.0370  138.2830 C   0  0  0  0  0  2  0  0  0  0  0  0
  1  5  1  1  0  0  0
  1 19  1  0  0  0  0
  1  4  1  0  0  0  0
  2 13  1  0  0  0  0
  3 10  1  0  0  0  0
  4 12  1  6  0  0  0
  4 20  1  0  0  0  0
  5 11  1  0  0  0  0
  6  8  2  0  0  0  0
  7 15  1  1  0  0  0
  7  9  1  0  0  0  0
  8 12  1  0  0  0  0
  9 14  1  1  0  0  0
 10 21  2  0  0  0  0
 11  8  1  0  0  0  0
 11 28  1  1  0  0  0
 12 27  1  0  0  0  0
 13 18  1  0  0  0  0
 15 23  1  0  0  0  0
 16  2  2  0  0  0  0
 17  3  1  1  0  0  0
 18 25  1  0  0  0  0
 19  2  1  6  0  0  0
 19 26  1  0  0  0  0
 20 17  1  0  0  0  0
 20 22  1  0  0  0  0
 22  9  1  0  0  0  0
 22 10  1  0  0  0  0
 23 14  1  0  0  0  0
 24 27  1  0  0  0  0
 26 25  1  0  0  0  0
 26 17  1  0  0  0  0
 27  7  1  0  0  0  0
 30 28  1  0  0  0  0
 30 29  1  0  0  0  0
M  END
>  <MODEL>
6

>  <REMARK>
 VINA RESULT:      -5.2      3.377      7.845
  Name = 
  2 active torsions:
  status: ('A' for Active; 'I' for Inactive)
    1  A    between atoms: C_11  and  C_28
    2  A    between atoms: C_28  and  C_30
                            x       y       z     vdW  Elec       q    Type
                         _______ _______ _______ _____ _____    ______ ____

>  <TORSDO>
F 2

$$$$
=
 OpenBabel11122410333D

 30 35  0  0  1  0  0  0  0  0999 V2000
  189.8250  177.1680  136.6660 C   0  0  2  0  0  3  0  0  0  0  0  0
  187.4250  178.0230  136.9240 C   0  0  0  0  0  0  0  0  0  0  0  0
  188.3700  173.8590  135.3400 N   0  0  0  0  0  2  0  0  0  0  0  0
  190.6270  175.8810  136.4090 C   0  0  2  0  0  3  0  0  0  0  0  0
  190.1770  177.8840  137.8590 O   0  0  0  0  0  0  0  0  0  0  0  0
  193.4870  176.7570  138.3730 O   0  0  0  0  0  0  0  0  0  0  0  0
  193.2270  174.1190  135.8890 C   0  0  1  0  0  3  0  0  0  0  0  0
  192.3230  176.7350  137.8940 C   0  0  0  0  0  0  0  0  0  0  0  0
  191.9330  173.3200  136.0440 C   0  0  2  0  0  3  0  0  0  0  0  0
  189.5050  173.0230  135.4250 C   0  0  0  0  0  0  0  0  0  0  0  0
  191.1650  177.2710  138.6850 C   0  0  2  0  0  3  0  0  0  0  0  0
  192.0420  176.1510  136.6190 N   0  0  0  0  0  0  0  0  0  0  0  0
  185.9510  177.8570  136.7210 C   0  0  0  0  0  2  0  0  0  0  0  0
  192.4030  171.9250  135.7070 C   0  0  0  0  0  2  0  0  0  0  0  0
  193.9840  173.5180  134.8010 N   0  0  0  0  0  2  0  0  0  0  0  0
  187.8580  179.0860  137.3430 O   0  0  0  0  0  0  0  0  0  0  0  0
  188.8220  175.1170  134.7750 C   0  0  2  0  0  3  0  0  0  0  0  0
  185.6860  177.3370  135.3110 C   0  0  0  0  0  2  0  0  0  0  0  0
  188.3270  176.8470  136.6150 C   0  0  1  0  0  3  0  0  0  0  0  0
  190.3380  175.2020  135.0540 C   0  0  2  0  0  3  0  0  0  0  0  0
  189.4160  171.8040  135.7290 O   0  0  0  0  0  0  0  0  0  0  0  0
  190.7820  173.7130  135.0760 C   0  0  1  0  0  3  0  0  0  0  0  0
  193.6010  172.1110  134.7880 C   0  0  0  0  0  2  0  0  0  0  0  0
  194.3630  176.3780  135.7200 C   0  0  0  0  0  1  0  0  0  0  0  0
  186.4830  176.0610  135.0470 C   0  0  0  0  0  2  0  0  0  0  0  0
  187.9830  176.3300  135.2080 C   0  0  2  0  0  3  0  0  0  0  0  0
  193.0430  175.6200  135.6840 C   0  0  1  0  0  3  0  0  0  0  0  0
  190.5560  176.1860  139.5620 C   0  0  0  0  0  2  0  0  0  0  0  0
  191.3600  177.5020  141.4950 C   0  0  0  0  0  1  0  0  0  0  0  0
  190.1800  176.7520  140.9170 C   0  0  0  0  0  2  0  0  0  0  0  0
  1  5  1  1  0  0  0
  2 16  2  0  0  0  0
  3 10  1  0  0  0  0
  4 12  1  6  0  0  0
  4  1  1  0  0  0  0
  5 11  1  0  0  0  0
  7 15  1  6  0  0  0
  7  9  1  0  0  0  0
  8  6  2  0  0  0  0
  8 11  1  0  0  0  0
  9 14  1  6  0  0  0
 10 21  2  0  0  0  0
 11 28  1  6  0  0  0
 12  8  1  0  0  0  0
 13  2  1  0  0  0  0
 17 20  1  0  0  0  0
 17 26  1  0  0  0  0
 17  3  1  1  0  0  0
 18 13  1  0  0  0  0
 19  1  1  0  0  0  0
 19  2  1  6  0  0  0
 20 22  1  0  0  0  0
 20  4  1  0  0  0  0
 22 10  1  0  0  0  0
 22  9  1  0  0  0  0
 23 15  1  0  0  0  0
 23 14  1  0  0  0  0
 25 26  1  0  0  0  0
 25 18  1  0  0  0  0
 26 19  1  0  0  0  0
 27 24  1  0  0  0  0
 27  7  1  0  0  0  0
 27 12  1  0  0  0  0
 28 30  1  0  0  0  0
 30 29  1  0  0  0  0
M  END
>  <MODEL>
7

>  <REMARK>
 VINA RESULT:      -5.2      3.156      4.583
  Name = 
  2 active torsions:
  status: ('A' for Active; 'I' for Inactive)
    1  A    between atoms: C_11  and  C_28
    2  A    between atoms: C_28  and  C_30
                            x       y       z     vdW  Elec       q    Type
                         _______ _______ _______ _____ _____    ______ ____

>  <TORSDO>
F 2

$$$$
=
 OpenBabel11122410333D

 30 35  0  0  1  0  0  0  0  0999 V2000
  188.0070  177.2810  143.9500 C   0  0  2  0  0  3  0  0  0  0  0  0
  185.7510  178.4410  143.5950 C   0  0  0  0  0  0  0  0  0  0  0  0
  187.8350  178.3550  147.6430 N   0  0  0  0  0  2  0  0  0  0  0  0
  189.1510  177.1520  144.9700 C   0  0  2  0  0  3  0  0  0  0  0  0
  188.3980  177.7060  142.6360 O   0  0  0  0  0  0  0  0  0  0  0  0
  191.7970  176.7340  142.5970 O   0  0  0  0  0  0  0  0  0  0  0  0
  191.8850  176.0380  146.1610 C   0  0  1  0  0  3  0  0  0  0  0  0
  190.6840  177.0140  143.1140 C   0  0  0  0  0  0  0  0  0  0  0  0
  191.2440  177.1630  146.9750 C   0  0  2  0  0  3  0  0  0  0  0  0
  189.1710  178.1280  148.0430 C   0  0  0  0  0  0  0  0  0  0  0  0
  189.7780  178.0240  142.4700 C   0  0  2  0  0  3  0  0  0  0  0  0
  190.2600  176.4390  144.3540 N   0  0  0  0  0  0  0  0  0  0  0  0
  184.5500  179.1510  144.1360 C   0  0  0  0  0  2  0  0  0  0  0  0
  192.1370  177.1960  148.1920 C   0  0  0  0  0  2  0  0  0  0  0  0
  192.3850  175.0480  147.1030 N   0  0  0  0  0  2  0  0  0  0  0  0
  185.7760  178.1090  142.4190 O   0  0  0  0  0  0  0  0  0  0  0  0
  187.4350  177.2030  146.8580 C   0  0  2  0  0  3  0  0  0  0  0  0
  184.0620  178.4410  145.3950 C   0  0  0  0  0  2  0  0  0  0  0  0
  186.9090  178.1770  144.5350 C   0  0  1  0  0  3  0  0  0  0  0  0
  188.7350  176.5590  146.3320 C   0  0  2  0  0  3  0  0  0  0  0  0
  189.7580  178.8750  148.8710 O   0  0  0  0  0  0  0  0  0  0  0  0
  189.7780  176.9110  147.4290 C   0  0  1  0  0  3  0  0  0  0  0  0
  192.7030  175.7890  148.3190 C   0  0  0  0  0  2  0  0  0  0  0  0
  191.7330  174.4250  144.2130 C   0  0  0  0  0  1  0  0  0  0  0  0
  185.1950  178.3060  146.4110 C   0  0  0  0  0  2  0  0  0  0  0  0
  186.3570  177.5110  145.8070 C   0  0  2  0  0  3  0  0  0  0  0  0
  190.9840  175.4050  145.1050 C   0  0  1  0  0  3  0  0  0  0  0  0
  190.0850  179.4290  142.9730 C   0  0  0  0  0  2  0  0  0  0  0  0
  191.4020  180.1360  144.9430 C   0  0  0  0  0  1  0  0  0  0  0  0
  191.4720  179.4800  143.5820 C   0  0  0  0  0  2  0  0  0  0  0  0
  1  5  1  6  0  0  0
  1 19  1  0  0  0  0
  1  4  1  0  0  0  0
  2 13  1  0  0  0  0
  3 10  1  0  0  0  0
  4 12  1  6  0  0  0
  4 20  1  0  0  0  0
  6  8  2  0  0  0  0
  7  9  1  0  0  0  0
  7 15  1  1  0  0  0
  8 12  1  0  0  0  0
  9 22  1  0  0  0  0
  9 14  1  1  0  0  0
 10 21  2  0  0  0  0
 11  5  1  0  0  0  0
 11 28  1  1  0  0  0
 11  8  1  0  0  0  0
 12 27  1  0  0  0  0
 13 18  1  0  0  0  0
 14 23  1  0  0  0  0
 15 23  1  0  0  0  0
 16  2  2  0  0  0  0
 17  3  1  6  0  0  0
 18 25  1  0  0  0  0
 19  2  1  6  0  0  0
 19 26  1  0  0  0  0
 20 17  1  0  0  0  0
 20 22  1  0  0  0  0
 22 10  1  0  0  0  0
 24 27  1  0  0  0  0
 26 25  1  0  0  0  0
 26 17  1  0  0  0  0
 27  7  1  0  0  0  0
 28 30  1  0  0  0  0
 30 29  1  0  0  0  0
M  END
>  <MODEL>
8

>  <REMARK>
 VINA RESULT:      -5.1      6.647      9.091
  Name = 
  2 active torsions:
  status: ('A' for Active; 'I' for Inactive)
    1  A    between atoms: C_11  and  C_28
    2  A    between atoms: C_28  and  C_30
                            x       y       z     vdW  Elec       q    Type
                         _______ _______ _______ _____ _____    ______ ____

>  <TORSDO>
F 2

$$$$
=
 OpenBabel11122410333D

 30 35  0  0  1  0  0  0  0  0999 V2000
  180.8040  177.9010  138.9270 C   0  0  2  0  0  3  0  0  0  0  0  0
  180.1030  179.1540  141.0480 C   0  0  0  0  0  0  0  0  0  0  0  0
  184.4690  178.5690  139.8950 N   0  0  0  0  0  2  0  0  0  0  0  0
  182.0250  177.6300  138.0330 C   0  0  2  0  0  3  0  0  0  0  0  0
  179.6610  178.4560  138.2580 O   0  0  0  0  0  0  0  0  0  0  0  0
  180.2470  177.4020  134.9350 O   0  0  0  0  0  0  0  0  0  0  0  0
  183.6460  176.3180  135.6270 C   0  0  1  0  0  3  0  0  0  0  0  0
  180.5410  177.6540  136.1330 C   0  0  0  0  0  0  0  0  0  0  0  0
  184.4230  177.3640  136.4260 C   0  0  2  0  0  3  0  0  0  0  0  0
  185.1200  178.2630  138.6790 C   0  0  0  0  0  0  0  0  0  0  0  0
  179.8350  178.7530  136.8740 C   0  0  2  0  0  3  0  0  0  0  0  0
  181.5870  176.9590  136.8180 N   0  0  0  0  0  0  0  0  0  0  0  0
  180.4480  179.8330  142.3360 C   0  0  0  0  0  2  0  0  0  0  0  0
  185.7990  177.2390  135.8200 C   0  0  0  0  0  2  0  0  0  0  0  0
  184.5560  175.2170  135.3470 N   0  0  0  0  0  2  0  0  0  0  0  0
  178.9310  178.9520  140.7690 O   0  0  0  0  0  0  0  0  0  0  0  0
  183.4910  177.5210  140.1180 C   0  0  2  0  0  3  0  0  0  0  0  0
  181.4850  179.0040  143.0890 C   0  0  0  0  0  2  0  0  0  0  0  0
  181.2350  178.7570  140.1230 C   0  0  1  0  0  3  0  0  0  0  0  0
  183.1900  176.9030  138.7370 C   0  0  2  0  0  3  0  0  0  0  0  0
  186.1340  178.8980  138.2840 O   0  0  0  0  0  0  0  0  0  0  0  0
  184.5190  177.1040  137.9560 C   0  0  1  0  0  3  0  0  0  0  0  0
  185.8860  175.8120  135.2990 C   0  0  0  0  0  2  0  0  0  0  0  0
  181.5410  174.9320  135.3560 C   0  0  0  0  0  1  0  0  0  0  0  0
  182.6990  178.7280  142.2050 C   0  0  0  0  0  2  0  0  0  0  0  0
  182.2740  177.9720  140.9400 C   0  0  2  0  0  3  0  0  0  0  0  0
  182.3550  175.8290  136.2780 C   0  0  1  0  0  3  0  0  0  0  0  0
  180.5470  180.0850  136.6800 C   0  0  0  0  0  2  0  0  0  0  0  0
  181.0220  181.9690  138.2100 C   0  0  0  0  0  1  0  0  0  0  0  0
  179.9270  181.1480  137.5650 C   0  0  0  0  0  2  0  0  0  0  0  0
  1  5  1  6  0  0  0
  1 19  1  0  0  0  0
  2 13  1  0  0  0  0
  4 12  1  6  0  0  0
  4 20  1  0  0  0  0
  4  1  1  0  0  0  0
  6  8  2  0  0  0  0
  7 15  1  1  0  0  0
  7 27  1  0  0  0  0
  7  9  1  0  0  0  0
  8 12  1  0  0  0  0
  8 11  1  0  0  0  0
  9 14  1  6  0  0  0
  9 22  1  0  0  0  0
 10  3  1  0  0  0  0
 11 28  1  1  0  0  0
 11  5  1  0  0  0  0
 13 18  1  0  0  0  0
 16  2  2  0  0  0  0
 17  3  1  6  0  0  0
 17 26  1  0  0  0  0
 19 26  1  0  0  0  0
 19  2  1  1  0  0  0
 20 17  1  0  0  0  0
 21 10  2  0  0  0  0
 22 10  1  0  0  0  0
 22 20  1  0  0  0  0
 23 15  1  0  0  0  0
 23 14  1  0  0  0  0
 24 27  1  0  0  0  0
 25 18  1  0  0  0  0
 26 25  1  0  0  0  0
 27 12  1  0  0  0  0
 28 30  1  0  0  0  0
 30 29  1  0  0  0  0
M  END
>  <MODEL>
9

>  <REMARK>
 VINA RESULT:      -5.1      3.008      5.943
  Name = 
  2 active torsions:
  status: ('A' for Active; 'I' for Inactive)
    1  A    between atoms: C_11  and  C_28
    2  A    between atoms: C_28  and  C_30
                            x       y       z     vdW  Elec       q    Type
                         _______ _______ _______ _____ _____    ______ ____

>  <TORSDO>
F 2

$$$$
