=
 OpenBabel11122411193D

 31 35  0  0  1  0  0  0  0  0999 V2000
  193.4520  175.2700  135.8630 C   0  0  0  0  0  0  0  0  0  0  0  0
  190.1920  176.7770  136.9320 C   0  0  2  0  0  3  0  0  0  0  0  0
  189.1670  175.6640  136.7860 C   0  0  0  0  0  0  0  0  0  0  0  0
  188.4810  173.5200  135.8630 C   0  0  0  0  0  0  0  0  0  0  0  0
  191.6100  176.2570  137.0000 C   0  0  0  0  0  0  0  0  0  0  0  0
  194.1690  175.1710  137.0560 C   0  0  0  0  0  3  0  0  0  0  0  0
  189.4410  174.5240  136.0140 C   0  0  0  0  0  3  0  0  0  0  0  0
  190.2530  177.0170  139.4430 C   0  0  2  0  0  3  0  0  0  0  0  0
  194.0550  174.7860  134.5940 C   0  0  0  0  0  1  0  0  0  0  0  0
  187.5680  176.9490  138.1020 O   0  0  0  0  0  0  0  0  0  0  0  0
  188.7910  172.3130  135.0560 C   0  0  0  0  0  1  0  0  0  0  0  0
  191.7600  176.7650  139.4940 C   0  0  0  0  0  2  0  0  0  0  0  0
  189.8790  177.7050  138.1250 C   0  0  2  0  0  3  0  0  0  0  0  0
  192.2030  175.8050  135.8610 N   0  0  0  0  0  0  0  0  0  0  0  0
  187.2310  173.6530  136.4710 C   0  0  0  0  0  3  0  0  0  0  0  0
  192.3030  176.1700  138.2260 C   0  0  0  0  0  0  0  0  0  0  0  0
  193.5910  175.6330  138.2390 C   0  0  0  0  0  3  0  0  0  0  0  0
  188.4030  178.1050  138.0910 C   0  0  0  0  0  2  0  0  0  0  0  0
  187.8880  175.8060  137.3650 C   0  0  0  0  0  0  0  0  0  0  0  0
  186.9340  174.7940  137.2180 C   0  0  0  0  0  3  0  0  0  0  0  0
  190.2950  176.1910  142.1720 O   0  0  0  0  0  0  0  0  0  0  0  0
  189.9150  177.3690  141.9250 C   0  0  0  0  0  0  0  0  0  0  0  0
  189.8650  177.8430  140.5780 N   0  0  0  0  0  2  0  0  0  0  0  0
  190.5210  177.5430  145.6630 N   0  0  0  0  0  0  0  0  0  0  0  0
  190.7060  178.9780  143.6770 C   0  0  0  0  0  2  0  0  0  0  0  0
  187.4740  176.8190  143.5260 C   0  0  0  0  0  1  0  0  0  0  0  0
  191.2860  176.6500  146.5130 C   0  0  0  0  0  1  0  0  0  0  0  0
  191.4340  178.0240  144.6280 C   0  0  0  0  0  2  0  0  0  0  0  0
  188.6300  177.6110  144.1150 C   0  0  2  0  0  3  0  0  0  0  0  0
  189.4960  178.2880  143.0380 C   0  0  2  0  0  3  0  0  0  0  0  0
  189.4820  176.7340  145.0300 C   0  0  0  0  0  2  0  0  0  0  0  0
  1  6  1  0  0  0  0
  2  3  1  1  0  0  0
  2  5  1  0  0  0  0
  2 13  1  0  0  0  0
  3 19  1  0  0  0  0
  4  7  1  0  0  0  0
  4 15  2  0  0  0  0
  5 16  2  0  0  0  0
  6 17  2  0  0  0  0
  7  3  2  0  0  0  0
  8 12  1  0  0  0  0
  8 23  1  1  0  0  0
  9  1  1  0  0  0  0
 11  4  1  0  0  0  0
 13 18  1  1  0  0  0
 13  8  1  0  0  0  0
 14  1  2  0  0  0  0
 14  5  1  0  0  0  0
 15 20  1  0  0  0  0
 16 17  1  0  0  0  0
 16 12  1  0  0  0  0
 18 10  1  0  0  0  0
 19 10  1  0  0  0  0
 20 19  2  0  0  0  0
 22 21  2  0  0  0  0
 23 22  1  0  0  0  0
 24 27  1  0  0  0  0
 25 28  1  0  0  0  0
 28 24  1  0  0  0  0
 29 26  1  6  0  0  0
 29 31  1  0  0  0  0
 30 22  1  6  0  0  0
 30 25  1  0  0  0  0
 30 29  1  0  0  0  0
 31 24  1  0  0  0  0
M  END
>  <MODEL>
1

>  <REMARK>
 VINA RESULT:      -8.0      0.000      0.000
  Name = 
  2 active torsions:
  status: ('A' for Active; 'I' for Inactive)
    1  A    between atoms: C_5  and  C_30
    2  A    between atoms: C_10  and  N_16
                            x       y       z     vdW  Elec       q    Type
                         _______ _______ _______ _____ _____    ______ ____

>  <TORSDO>
F 2

$$$$
=
 OpenBabel11122411193D

 31 35  0  0  1  0  0  0  0  0999 V2000
  191.2410  176.6320  145.0670 C   0  0  0  0  0  0  0  0  0  0  0  0
  187.7100  176.9650  143.8540 C   0  0  2  0  0  3  0  0  0  0  0  0
  186.9860  177.7550  144.9320 C   0  0  0  0  0  0  0  0  0  0  0  0
  186.8440  178.5950  147.2110 C   0  0  0  0  0  0  0  0  0  0  0  0
  189.2120  177.1240  143.9250 C   0  0  0  0  0  0  0  0  0  0  0  0
  191.9590  177.4580  144.2020 C   0  0  0  0  0  3  0  0  0  0  0  0
  187.5310  177.8910  146.2190 C   0  0  0  0  0  3  0  0  0  0  0  0
  187.7080  178.6470  141.9740 C   0  0  2  0  0  3  0  0  0  0  0  0
  191.9440  175.9170  146.1630 C   0  0  0  0  0  1  0  0  0  0  0  0
  185.1220  178.1430  143.4120 O   0  0  0  0  0  0  0  0  0  0  0  0
  187.4390  178.7430  148.5640 C   0  0  0  0  0  1  0  0  0  0  0  0
  189.2320  178.6020  141.8470 C   0  0  0  0  0  2  0  0  0  0  0  0
  187.1800  177.2850  142.4400 C   0  0  2  0  0  3  0  0  0  0  0  0
  189.8990  176.4850  144.9110 N   0  0  0  0  0  0  0  0  0  0  0  0
  185.5990  179.1610  146.9300 C   0  0  0  0  0  3  0  0  0  0  0  0
  189.9040  177.9700  143.0330 C   0  0  0  0  0  0  0  0  0  0  0  0
  191.2840  178.1210  143.1760 C   0  0  0  0  0  3  0  0  0  0  0  0
  185.6500  177.2400  142.4440 C   0  0  0  0  0  2  0  0  0  0  0  0
  185.7110  178.2980  144.6690 C   0  0  0  0  0  0  0  0  0  0  0  0
  185.0330  179.0100  145.6630 C   0  0  0  0  0  3  0  0  0  0  0  0
  188.1670  177.2630  139.5230 O   0  0  0  0  0  0  0  0  0  0  0  0
  187.3980  178.2620  139.4930 C   0  0  0  0  0  0  0  0  0  0  0  0
  187.1300  179.0030  140.6850 N   0  0  0  0  0  2  0  0  0  0  0  0
  186.4890  176.5840  136.2170 N   0  0  0  0  0  0  0  0  0  0  0  0
  185.4390  177.9640  137.9580 C   0  0  0  0  0  2  0  0  0  0  0  0
  189.0510  179.1970  137.2090 C   0  0  0  0  0  1  0  0  0  0  0  0
  186.6870  175.2070  135.8040 C   0  0  0  0  0  1  0  0  0  0  0  0
  185.6960  176.5450  137.4440 C   0  0  0  0  0  2  0  0  0  0  0  0
  187.6820  178.5780  136.9770 C   0  0  2  0  0  3  0  0  0  0  0  0
  186.7600  178.7000  138.2040 C   0  0  2  0  0  3  0  0  0  0  0  0
  187.8110  177.1230  136.5330 C   0  0  0  0  0  2  0  0  0  0  0  0
  1  9  1  0  0  0  0
  2  5  1  6  0  0  0
  2  3  1  0  0  0  0
  3  7  1  0  0  0  0
  4 11  1  0  0  0  0
  5 14  2  0  0  0  0
  6  1  2  0  0  0  0
  7  4  2  0  0  0  0
  8 23  1  6  0  0  0
  8 13  1  0  0  0  0
 10 19  1  0  0  0  0
 12  8  1  0  0  0  0
 12 16  1  0  0  0  0
 13 18  1  1  0  0  0
 13  2  1  0  0  0  0
 14  1  1  0  0  0  0
 15  4  1  0  0  0  0
 16 17  2  0  0  0  0
 16  5  1  0  0  0  0
 17  6  1  0  0  0  0
 18 10  1  0  0  0  0
 19  3  2  0  0  0  0
 19 20  1  0  0  0  0
 20 15  2  0  0  0  0
 22 21  2  0  0  0  0
 22 23  1  0  0  0  0
 24 31  1  0  0  0  0
 24 28  1  0  0  0  0
 25 30  1  0  0  0  0
 27 24  1  0  0  0  0
 28 25  1  0  0  0  0
 29 26  1  1  0  0  0
 29 30  1  0  0  0  0
 30 22  1  1  0  0  0
 31 29  1  0  0  0  0
M  END
>  <MODEL>
2

>  <REMARK>
 VINA RESULT:      -7.5      3.308      8.400
  Name = 
  2 active torsions:
  status: ('A' for Active; 'I' for Inactive)
    1  A    between atoms: C_5  and  C_30
    2  A    between atoms: C_10  and  N_16
                            x       y       z     vdW  Elec       q    Type
                         _______ _______ _______ _____ _____    ______ ____

>  <TORSDO>
F 2

$$$$
=
 OpenBabel11122411193D

 31 35  0  0  1  0  0  0  0  0999 V2000
  191.0850  176.2200  143.6810 C   0  0  0  0  0  0  0  0  0  0  0  0
  187.4080  176.9400  143.7380 C   0  0  2  0  0  3  0  0  0  0  0  0
  187.1630  177.6800  145.0430 C   0  0  0  0  0  0  0  0  0  0  0  0
  187.8600  178.3120  147.2870 C   0  0  0  0  0  0  0  0  0  0  0  0
  188.8580  176.9740  143.3140 C   0  0  0  0  0  0  0  0  0  0  0  0
  191.5640  177.0640  142.6790 C   0  0  0  0  0  3  0  0  0  0  0  0
  188.1080  177.6510  146.0800 C   0  0  0  0  0  3  0  0  0  0  0  0
  186.9690  178.7850  142.0750 C   0  0  2  0  0  3  0  0  0  0  0  0
  192.0280  175.3520  144.4330 C   0  0  0  0  0  1  0  0  0  0  0  0
  184.9560  178.3530  144.2600 O   0  0  0  0  0  0  0  0  0  0  0  0
  188.8760  178.2850  148.3700 C   0  0  0  0  0  1  0  0  0  0  0  0
  188.3540  178.6330  141.4450 C   0  0  0  0  0  2  0  0  0  0  0  0
  186.4820  177.4310  142.6050 C   0  0  2  0  0  3  0  0  0  0  0  0
  189.7580  176.1930  143.9730 N   0  0  0  0  0  0  0  0  0  0  0  0
  186.6580  178.9980  147.4730 C   0  0  0  0  0  3  0  0  0  0  0  0
  189.3060  177.8430  142.2970 C   0  0  0  0  0  0  0  0  0  0  0  0
  190.6650  177.8710  141.9810 C   0  0  0  0  0  3  0  0  0  0  0  0
  185.0420  177.5060  143.1160 C   0  0  0  0  0  2  0  0  0  0  0  0
  185.9360  178.3440  145.2550 C   0  0  0  0  0  0  0  0  0  0  0  0
  185.6970  179.0110  146.4600 C   0  0  0  0  0  3  0  0  0  0  0  0
  186.5260  177.6590  139.4930 O   0  0  0  0  0  0  0  0  0  0  0  0
  185.8640  178.6880  139.8010 C   0  0  0  0  0  0  0  0  0  0  0  0
  186.0430  179.3050  141.0780 N   0  0  0  0  0  2  0  0  0  0  0  0
  182.3670  177.8440  138.6060 N   0  0  0  0  0  0  0  0  0  0  0  0
  183.6080  179.7490  139.5390 C   0  0  0  0  0  2  0  0  0  0  0  0
  185.7850  177.8060  136.9660 C   0  0  0  0  0  1  0  0  0  0  0  0
  181.5100  176.7350  138.9800 C   0  0  0  0  0  1  0  0  0  0  0  0
  182.6980  178.5540  139.8400 C   0  0  0  0  0  2  0  0  0  0  0  0
  184.5480  178.3780  137.6380 C   0  0  2  0  0  3  0  0  0  0  0  0
  184.8880  179.2910  138.8300 C   0  0  2  0  0  3  0  0  0  0  0  0
  183.5920  177.2640  138.0580 C   0  0  0  0  0  2  0  0  0  0  0  0
  1 14  1  0  0  0  0
  1  9  1  0  0  0  0
  2  5  1  6  0  0  0
  2  3  1  0  0  0  0
  3 19  2  0  0  0  0
  3  7  1  0  0  0  0
  4 15  1  0  0  0  0
  4 11  1  0  0  0  0
  5 14  2  0  0  0  0
  6  1  2  0  0  0  0
  7  4  2  0  0  0  0
  8 23  1  6  0  0  0
  8 13  1  0  0  0  0
 10 19  1  0  0  0  0
 12  8  1  0  0  0  0
 12 16  1  0  0  0  0
 13 18  1  1  0  0  0
 13  2  1  0  0  0  0
 16  5  1  0  0  0  0
 17 16  2  0  0  0  0
 17  6  1  0  0  0  0
 18 10  1  0  0  0  0
 19 20  1  0  0  0  0
 20 15  2  0  0  0  0
 21 22  2  0  0  0  0
 22 23  1  0  0  0  0
 24 27  1  0  0  0  0
 24 28  1  0  0  0  0
 25 28  1  0  0  0  0
 29 26  1  1  0  0  0
 29 31  1  0  0  0  0
 29 30  1  0  0  0  0
 30 25  1  0  0  0  0
 30 22  1  1  0  0  0
 31 24  1  0  0  0  0
M  END
>  <MODEL>
3

>  <REMARK>
 VINA RESULT:      -7.4      4.367      8.439
  Name = 
  2 active torsions:
  status: ('A' for Active; 'I' for Inactive)
    1  A    between atoms: C_5  and  C_30
    2  A    between atoms: C_10  and  N_16
                            x       y       z     vdW  Elec       q    Type
                         _______ _______ _______ _____ _____    ______ ____

>  <TORSDO>
F 2

$$$$
=
 OpenBabel11122411193D

 31 35  0  0  1  0  0  0  0  0999 V2000
  185.0510  178.4480  138.8530 C   0  0  0  0  0  0  0  0  0  0  0  0
  188.7800  178.1720  139.1030 C   0  0  2  0  0  3  0  0  0  0  0  0
  189.0450  177.4940  140.4380 C   0  0  0  0  0  0  0  0  0  0  0  0
  188.3150  176.8320  142.6630 C   0  0  0  0  0  0  0  0  0  0  0  0
  187.3670  177.9560  138.6120 C   0  0  0  0  0  0  0  0  0  0  0  0
  184.7250  177.5310  137.8530 C   0  0  0  0  0  3  0  0  0  0  0  0
  188.0520  177.4320  141.4290 C   0  0  0  0  0  3  0  0  0  0  0  0
  189.5160  176.3560  137.5140 C   0  0  2  0  0  3  0  0  0  0  0  0
  183.9760  179.2130  139.5360 C   0  0  0  0  0  1  0  0  0  0  0  0
  191.3520  177.0710  139.7780 O   0  0  0  0  0  0  0  0  0  0  0  0
  187.2500  176.7610  143.6950 C   0  0  0  0  0  1  0  0  0  0  0  0
  188.1560  176.3290  136.8150 C   0  0  0  0  0  2  0  0  0  0  0  0
  189.8130  177.7690  138.0290 C   0  0  2  0  0  3  0  0  0  0  0  0
  186.3490  178.6390  139.2060 N   0  0  0  0  0  0  0  0  0  0  0  0
  189.5790  176.2980  142.9240 C   0  0  0  0  0  3  0  0  0  0  0  0
  187.0760  177.0180  137.5990 C   0  0  0  0  0  0  0  0  0  0  0  0
  185.7470  176.8220  137.2200 C   0  0  0  0  0  3  0  0  0  0  0  0
  191.2250  177.8780  138.6090 C   0  0  0  0  0  2  0  0  0  0  0  0
  190.3290  176.9860  140.7260 C   0  0  0  0  0  0  0  0  0  0  0  0
  190.5840  176.3780  141.9590 C   0  0  0  0  0  3  0  0  0  0  0  0
  191.3870  174.2540  137.9680 O   0  0  0  0  0  0  0  0  0  0  0  0
  191.4510  174.8620  136.8650 C   0  0  0  0  0  0  0  0  0  0  0  0
  190.5450  175.9290  136.5760 N   0  0  0  0  0  2  0  0  0  0  0  0
  194.6480  172.8250  136.8710 N   0  0  0  0  0  0  0  0  0  0  0  0
  192.5330  172.9680  135.6280 C   0  0  0  0  0  2  0  0  0  0  0  0
  193.8850  176.5170  136.4710 C   0  0  0  0  0  1  0  0  0  0  0  0
  195.2920  172.1290  137.9690 C   0  0  0  0  0  1  0  0  0  0  0  0
  193.2930  172.2850  136.7690 C   0  0  0  0  0  2  0  0  0  0  0  0
  193.8910  175.0330  136.1430 C   0  0  2  0  0  3  0  0  0  0  0  0
  192.4850  174.4850  135.8410 C   0  0  2  0  0  3  0  0  0  0  0  0
  194.5620  174.2320  137.2570 C   0  0  0  0  0  2  0  0  0  0  0  0
  1 14  1  0  0  0  0
  1  9  1  0  0  0  0
  2  5  1  6  0  0  0
  2  3  1  0  0  0  0
  3 19  2  0  0  0  0
  3  7  1  0  0  0  0
  4 15  1  0  0  0  0
  4 11  1  0  0  0  0
  5 14  2  0  0  0  0
  6  1  2  0  0  0  0
  7  4  2  0  0  0  0
  8 23  1  6  0  0  0
  8 13  1  0  0  0  0
 10 19  1  0  0  0  0
 12  8  1  0  0  0  0
 12 16  1  0  0  0  0
 13 18  1  1  0  0  0
 13  2  1  0  0  0  0
 16  5  1  0  0  0  0
 17 16  2  0  0  0  0
 17  6  1  0  0  0  0
 18 10  1  0  0  0  0
 19 20  1  0  0  0  0
 20 15  2  0  0  0  0
 22 21  2  0  0  0  0
 23 22  1  0  0  0  0
 24 31  1  0  0  0  0
 24 27  1  0  0  0  0
 25 30  1  0  0  0  0
 25 28  1  0  0  0  0
 28 24  1  0  0  0  0
 29 26  1  1  0  0  0
 29 31  1  0  0  0  0
 30 29  1  0  0  0  0
 30 22  1  1  0  0  0
M  END
>  <MODEL>
4

>  <REMARK>
 VINA RESULT:      -7.3      2.618      7.498
  Name = 
  2 active torsions:
  status: ('A' for Active; 'I' for Inactive)
    1  A    between atoms: C_5  and  C_30
    2  A    between atoms: C_10  and  N_16
                            x       y       z     vdW  Elec       q    Type
                         _______ _______ _______ _____ _____    ______ ____

>  <TORSDO>
F 2

$$$$
=
 OpenBabel11122411193D

 31 35  0  0  1  0  0  0  0  0999 V2000
  179.7810  178.9830  142.3750 C   0  0  0  0  0  0  0  0  0  0  0  0
  183.1000  179.2630  140.6570 C   0  0  2  0  0  3  0  0  0  0  0  0
  184.1320  178.8890  141.7090 C   0  0  0  0  0  0  0  0  0  0  0  0
  184.7660  178.5620  144.0360 C   0  0  0  0  0  0  0  0  0  0  0  0
  181.7130  178.7720  141.0010 C   0  0  0  0  0  0  0  0  0  0  0  0
  179.2040  177.8600  141.7810 C   0  0  0  0  0  3  0  0  0  0  0  0
  183.8030  178.8800  143.0740 C   0  0  0  0  0  3  0  0  0  0  0  0
  183.3120  177.2990  139.0880 C   0  0  2  0  0  3  0  0  0  0  0  0
  179.0550  179.7100  143.4480 C   0  0  0  0  0  1  0  0  0  0  0  0
  185.8320  178.6650  139.9790 O   0  0  0  0  0  0  0  0  0  0  0  0
  184.3990  178.5420  145.4750 C   0  0  0  0  0  1  0  0  0  0  0  0
  181.8270  176.9590  139.2120 C   0  0  0  0  0  2  0  0  0  0  0  0
  183.5190  178.8110  139.2420 C   0  0  2  0  0  3  0  0  0  0  0  0
  181.0080  179.4090  141.9770 N   0  0  0  0  0  0  0  0  0  0  0  0
  186.0720  178.2620  143.6420 C   0  0  0  0  0  3  0  0  0  0  0  0
  181.1620  177.6310  140.3810 C   0  0  0  0  0  0  0  0  0  0  0  0
  179.8980  177.1900  140.7740 C   0  0  0  0  0  3  0  0  0  0  0  0
  184.9720  179.2150  138.9840 C   0  0  0  0  0  2  0  0  0  0  0  0
  185.4620  178.6210  141.3260 C   0  0  0  0  0  0  0  0  0  0  0  0
  186.4200  178.2940  142.2900 C   0  0  0  0  0  3  0  0  0  0  0  0
  183.6440  174.5760  138.3120 O   0  0  0  0  0  0  0  0  0  0  0  0
  183.9400  175.4630  137.4660 C   0  0  0  0  0  0  0  0  0  0  0  0
  183.8020  176.8470  137.7930 N   0  0  0  0  0  2  0  0  0  0  0  0
  184.3540  172.2260  135.5370 N   0  0  0  0  0  0  0  0  0  0  0  0
  183.3510  174.4510  135.2490 C   0  0  0  0  0  2  0  0  0  0  0  0
  186.7830  174.7050  137.0620 C   0  0  0  0  0  1  0  0  0  0  0  0
  184.0430  170.8680  135.9420 C   0  0  0  0  0  1  0  0  0  0  0  0
  183.1160  172.9940  135.6580 C   0  0  0  0  0  2  0  0  0  0  0  0
  185.6980  174.1770  136.1380 C   0  0  2  0  0  3  0  0  0  0  0  0
  184.4540  175.0830  136.1050 C   0  0  2  0  0  3  0  0  0  0  0  0
  185.3210  172.7430  136.5030 C   0  0  0  0  0  2  0  0  0  0  0  0
  1  9  1  0  0  0  0
  2  5  1  1  0  0  0
  2  3  1  0  0  0  0
  3  7  1  0  0  0  0
  4 11  1  0  0  0  0
  5 14  2  0  0  0  0
  6  1  2  0  0  0  0
  7  4  2  0  0  0  0
  8 23  1  6  0  0  0
  8 12  1  0  0  0  0
  8 13  1  0  0  0  0
 10 19  1  0  0  0  0
 12 16  1  0  0  0  0
 13 18  1  1  0  0  0
 13  2  1  0  0  0  0
 14  1  1  0  0  0  0
 15  4  1  0  0  0  0
 16 17  2  0  0  0  0
 16  5  1  0  0  0  0
 17  6  1  0  0  0  0
 18 10  1  0  0  0  0
 19  3  2  0  0  0  0
 19 20  1  0  0  0  0
 20 15  2  0  0  0  0
 22 23  1  0  0  0  0
 22 21  2  0  0  0  0
 24 28  1  0  0  0  0
 24 27  1  0  0  0  0
 24 31  1  0  0  0  0
 25 28  1  0  0  0  0
 25 30  1  0  0  0  0
 29 31  1  0  0  0  0
 29 26  1  1  0  0  0
 30 29  1  0  0  0  0
 30 22  1  1  0  0  0
M  END
>  <MODEL>
5

>  <REMARK>
 VINA RESULT:      -7.2      5.393     10.596
  Name = 
  2 active torsions:
  status: ('A' for Active; 'I' for Inactive)
    1  A    between atoms: C_5  and  C_30
    2  A    between atoms: C_10  and  N_16
                            x       y       z     vdW  Elec       q    Type
                         _______ _______ _______ _____ _____    ______ ____

>  <TORSDO>
F 2

$$$$
=
 OpenBabel11122411193D

 31 35  0  0  1  0  0  0  0  0999 V2000
  179.7980  178.9410  142.3230 C   0  0  0  0  0  0  0  0  0  0  0  0
  183.1620  179.2200  140.6950 C   0  0  2  0  0  3  0  0  0  0  0  0
  184.1660  178.8630  141.7800 C   0  0  0  0  0  0  0  0  0  0  0  0
  184.7360  178.5680  144.1270 C   0  0  0  0  0  0  0  0  0  0  0  0
  181.7680  178.7250  141.0060 C   0  0  0  0  0  0  0  0  0  0  0  0
  179.2440  177.8080  141.7270 C   0  0  0  0  0  3  0  0  0  0  0  0
  183.7990  178.8690  143.1350 C   0  0  0  0  0  3  0  0  0  0  0  0
  183.4290  177.2380  139.1570 C   0  0  2  0  0  3  0  0  0  0  0  0
  179.0380  179.6770  143.3660 C   0  0  0  0  0  1  0  0  0  0  0  0
  185.9160  178.6290  140.1010 O   0  0  0  0  0  0  0  0  0  0  0  0
  184.3300  178.5640  145.5550 C   0  0  0  0  0  1  0  0  0  0  0  0
  181.9420  176.8900  139.2440 C   0  0  0  0  0  2  0  0  0  0  0  0
  183.6230  178.7520  139.2980 C   0  0  2  0  0  3  0  0  0  0  0  0
  181.0340  179.3700  141.9540 N   0  0  0  0  0  0  0  0  0  0  0  0
  186.0540  178.2710  143.7740 C   0  0  0  0  0  3  0  0  0  0  0  0
  181.2420  177.5730  140.3840 C   0  0  0  0  0  0  0  0  0  0  0  0
  179.9690  177.1300  140.7470 C   0  0  0  0  0  3  0  0  0  0  0  0
  185.0810  179.1610  139.0750 C   0  0  0  0  0  2  0  0  0  0  0  0
  185.5080  178.5990  141.4370 C   0  0  0  0  0  0  0  0  0  0  0  0
  186.4400  178.2890  142.4320 C   0  0  0  0  0  3  0  0  0  0  0  0
  183.6040  174.5110  138.3430 O   0  0  0  0  0  0  0  0  0  0  0  0
  184.0120  175.3880  137.5330 C   0  0  0  0  0  0  0  0  0  0  0  0
  183.9560  176.7730  137.8810 N   0  0  0  0  0  2  0  0  0  0  0  0
  186.9800  176.4490  135.4270 N   0  0  0  0  0  0  0  0  0  0  0  0
  185.9780  174.3970  136.3340 C   0  0  0  0  0  2  0  0  0  0  0  0
  183.2260  176.8330  135.0600 C   0  0  0  0  0  1  0  0  0  0  0  0
  187.9890  177.4550  135.7010 C   0  0  0  0  0  1  0  0  0  0  0  0
  187.0190  175.5010  136.5390 C   0  0  0  0  0  2  0  0  0  0  0  0
  184.5710  176.1320  135.1580 C   0  0  2  0  0  3  0  0  0  0  0  0
  184.5730  174.9950  136.1950 C   0  0  2  0  0  3  0  0  0  0  0  0
  185.6880  177.1330  135.4410 C   0  0  0  0  0  2  0  0  0  0  0  0
  1  9  1  0  0  0  0
  2  5  1  1  0  0  0
  2  3  1  0  0  0  0
  3  7  1  0  0  0  0
  4 11  1  0  0  0  0
  5 14  2  0  0  0  0
  6  1  2  0  0  0  0
  7  4  2  0  0  0  0
  8 23  1  6  0  0  0
  8 12  1  0  0  0  0
  8 13  1  0  0  0  0
 10 19  1  0  0  0  0
 12 16  1  0  0  0  0
 13 18  1  1  0  0  0
 13  2  1  0  0  0  0
 14  1  1  0  0  0  0
 15  4  1  0  0  0  0
 16 17  2  0  0  0  0
 16  5  1  0  0  0  0
 17  6  1  0  0  0  0
 18 10  1  0  0  0  0
 19  3  2  0  0  0  0
 19 20  1  0  0  0  0
 20 15  2  0  0  0  0
 22 23  1  0  0  0  0
 22 21  2  0  0  0  0
 24 31  1  0  0  0  0
 24 27  1  0  0  0  0
 24 28  1  0  0  0  0
 25 28  1  0  0  0  0
 29 26  1  1  0  0  0
 29 31  1  0  0  0  0
 29 30  1  0  0  0  0
 30 25  1  0  0  0  0
 30 22  1  1  0  0  0
M  END
>  <MODEL>
6

>  <REMARK>
 VINA RESULT:      -6.9      5.190     10.276
  Name = 
  2 active torsions:
  status: ('A' for Active; 'I' for Inactive)
    1  A    between atoms: C_5  and  C_30
    2  A    between atoms: C_10  and  N_16
                            x       y       z     vdW  Elec       q    Type
                         _______ _______ _______ _____ _____    ______ ____

>  <TORSDO>
F 2

$$$$
=
 OpenBabel11122411193D

 31 35  0  0  1  0  0  0  0  0999 V2000
  189.1670  178.1280  143.3860 C   0  0  0  0  0  0  0  0  0  0  0  0
  186.7210  179.0610  140.7030 C   0  0  2  0  0  3  0  0  0  0  0  0
  187.0620  178.1690  139.5200 C   0  0  0  0  0  0  0  0  0  0  0  0
  188.6120  176.7100  138.3400 C   0  0  0  0  0  0  0  0  0  0  0  0
  187.2680  178.5290  142.0090 C   0  0  0  0  0  0  0  0  0  0  0  0
  188.3760  177.4720  144.3300 C   0  0  0  0  0  3  0  0  0  0  0  0
  188.2970  177.5050  139.4460 C   0  0  0  0  0  3  0  0  0  0  0  0
  184.4770  178.1140  141.3590 C   0  0  2  0  0  3  0  0  0  0  0  0
  190.6290  178.2670  143.6110 C   0  0  0  0  0  1  0  0  0  0  0  0
  184.9450  178.7450  138.4620 O   0  0  0  0  0  0  0  0  0  0  0  0
  189.9160  176.0030  138.2820 C   0  0  0  0  0  1  0  0  0  0  0  0
  184.9440  177.8270  142.7870 C   0  0  0  0  0  2  0  0  0  0  0  0
  185.2080  179.3430  140.8040 C   0  0  2  0  0  3  0  0  0  0  0  0
  188.6020  178.6370  142.2590 N   0  0  0  0  0  0  0  0  0  0  0  0
  187.6990  176.5810  137.2910 C   0  0  0  0  0  3  0  0  0  0  0  0
  186.4380  177.8690  142.9380 C   0  0  0  0  0  0  0  0  0  0  0  0
  187.0050  177.3520  144.1040 C   0  0  0  0  0  3  0  0  0  0  0  0
  184.6690  179.7530  139.4320 C   0  0  0  0  0  2  0  0  0  0  0  0
  186.1630  178.0620  138.4380 C   0  0  0  0  0  0  0  0  0  0  0  0
  186.4780  177.2580  137.3390 C   0  0  0  0  0  3  0  0  0  0  0  0
  182.5920  176.7000  139.7540 O   0  0  0  0  0  0  0  0  0  0  0  0
  182.1450  177.5860  140.5330 C   0  0  0  0  0  0  0  0  0  0  0  0
  183.0370  178.3350  141.3600 N   0  0  0  0  0  2  0  0  0  0  0  0
  179.0690  176.4030  138.6590 N   0  0  0  0  0  0  0  0  0  0  0  0
  179.8710  176.6280  140.9710 C   0  0  0  0  0  2  0  0  0  0  0  0
  180.9330  179.7000  138.8350 C   0  0  0  0  0  1  0  0  0  0  0  0
  178.9670  175.4570  137.5630 C   0  0  0  0  0  1  0  0  0  0  0  0
  179.7180  175.6990  139.7630 C   0  0  0  0  0  2  0  0  0  0  0  0
  180.1070  178.5180  139.3140 C   0  0  2  0  0  3  0  0  0  0  0  0
  180.6720  177.8790  140.5950 C   0  0  2  0  0  3  0  0  0  0  0  0
  179.9520  177.4770  138.2070 C   0  0  0  0  0  2  0  0  0  0  0  0
  1  9  1  0  0  0  0
  1  6  1  0  0  0  0
  2  3  1  6  0  0  0
  2 13  1  0  0  0  0
  2  5  1  0  0  0  0
  4  7  2  0  0  0  0
  5 14  1  0  0  0  0
  5 16  2  0  0  0  0
  7  3  1  0  0  0  0
  8 23  1  1  0  0  0
  8 12  1  0  0  0  0
 10 18  1  0  0  0  0
 11  4  1  0  0  0  0
 12 16  1  0  0  0  0
 13 18  1  6  0  0  0
 13  8  1  0  0  0  0
 14  1  2  0  0  0  0
 15 20  2  0  0  0  0
 15  4  1  0  0  0  0
 16 17  1  0  0  0  0
 17  6  2  0  0  0  0
 19 10  1  0  0  0  0
 19  3  2  0  0  0  0
 20 19  1  0  0  0  0
 21 22  2  0  0  0  0
 22 23  1  0  0  0  0
 24 28  1  0  0  0  0
 27 24  1  0  0  0  0
 28 25  1  0  0  0  0
 29 26  1  6  0  0  0
 29 30  1  0  0  0  0
 30 22  1  6  0  0  0
 30 25  1  0  0  0  0
 31 24  1  0  0  0  0
 31 29  1  0  0  0  0
M  END
>  <MODEL>
7

>  <REMARK>
 VINA RESULT:      -6.8      5.004      8.240
  Name = 
  2 active torsions:
  status: ('A' for Active; 'I' for Inactive)
    1  A    between atoms: C_5  and  C_30
    2  A    between atoms: C_10  and  N_16
                            x       y       z     vdW  Elec       q    Type
                         _______ _______ _______ _____ _____    ______ ____

>  <TORSDO>
F 2

$$$$
=
 OpenBabel11122411193D

 31 35  0  0  1  0  0  0  0  0999 V2000
  183.5330  178.9580  143.0890 C   0  0  0  0  0  0  0  0  0  0  0  0
  183.0490  177.7170  139.5860 C   0  0  2  0  0  3  0  0  0  0  0  0
  182.1600  178.7500  138.9120 C   0  0  0  0  0  0  0  0  0  0  0  0
  180.5850  180.6010  139.0400 C   0  0  0  0  0  0  0  0  0  0  0  0
  183.7290  178.2540  140.8240 C   0  0  0  0  0  0  0  0  0  0  0  0
  184.8720  179.3500  143.1110 C   0  0  0  0  0  3  0  0  0  0  0  0
  181.4210  179.6740  139.6690 C   0  0  0  0  0  3  0  0  0  0  0  0
  185.2110  178.0910  138.3420 C   0  0  2  0  0  3  0  0  0  0  0  0
  182.6910  179.1290  144.3010 C   0  0  0  0  0  1  0  0  0  0  0  0
  182.6940  177.8030  136.7320 O   0  0  0  0  0  0  0  0  0  0  0  0
  179.8210  181.5810  139.8530 C   0  0  0  0  0  1  0  0  0  0  0  0
  185.9810  178.3640  139.6340 C   0  0  0  0  0  2  0  0  0  0  0  0
  184.0710  177.1000  138.6090 C   0  0  2  0  0  3  0  0  0  0  0  0
  182.9970  178.4250  141.9600 N   0  0  0  0  0  0  0  0  0  0  0  0
  180.4700  180.6050  137.6490 C   0  0  0  0  0  3  0  0  0  0  0  0
  185.0850  178.6420  140.8080 C   0  0  0  0  0  0  0  0  0  0  0  0
  185.6500  179.1810  141.9650 C   0  0  0  0  0  3  0  0  0  0  0  0
  183.3620  176.6880  137.3170 C   0  0  0  0  0  2  0  0  0  0  0  0
  182.0070  178.7380  137.5100 C   0  0  0  0  0  0  0  0  0  0  0  0
  181.1770  179.6740  136.8860 C   0  0  0  0  0  3  0  0  0  0  0  0
  187.1820  179.6020  136.9420 O   0  0  0  0  0  0  0  0  0  0  0  0
  187.0960  178.3710  136.6790 C   0  0  0  0  0  0  0  0  0  0  0  0
  186.1250  177.5580  137.3410 N   0  0  0  0  0  2  0  0  0  0  0  0
  187.8760  174.8300  135.5750 N   0  0  0  0  0  0  0  0  0  0  0  0
  187.1990  176.9800  134.5970 C   0  0  0  0  0  2  0  0  0  0  0  0
  189.8460  177.5070  137.3980 C   0  0  0  0  0  1  0  0  0  0  0  0
  187.3450  173.5740  136.0720 C   0  0  0  0  0  1  0  0  0  0  0  0
  186.7300  175.6260  135.1390 C   0  0  0  0  0  2  0  0  0  0  0  0
  189.0910  176.8360  136.2620 C   0  0  2  0  0  3  0  0  0  0  0  0
  188.0010  177.7400  135.6580 C   0  0  2  0  0  3  0  0  0  0  0  0
  188.5050  175.5000  136.7110 C   0  0  0  0  0  2  0  0  0  0  0  0
  1  6  1  0  0  0  0
  1  9  1  0  0  0  0
  2  3  1  6  0  0  0
  2  5  1  0  0  0  0
  3  7  1  0  0  0  0
  4  7  2  0  0  0  0
  4 11  1  0  0  0  0
  5 14  1  0  0  0  0
  8 23  1  6  0  0  0
  8 13  1  0  0  0  0
  8 12  1  0  0  0  0
 10 18  1  0  0  0  0
 10 19  1  0  0  0  0
 12 16  1  0  0  0  0
 13 18  1  6  0  0  0
 13  2  1  0  0  0  0
 14  1  2  0  0  0  0
 15  4  1  0  0  0  0
 16  5  2  0  0  0  0
 16 17  1  0  0  0  0
 17  6  2  0  0  0  0
 19  3  2  0  0  0  0
 20 19  1  0  0  0  0
 20 15  2  0  0  0  0
 22 21  2  0  0  0  0
 22 23  1  0  0  0  0
 24 27  1  0  0  0  0
 24 31  1  0  0  0  0
 25 28  1  0  0  0  0
 25 30  1  0  0  0  0
 28 24  1  0  0  0  0
 29 31  1  0  0  0  0
 29 26  1  1  0  0  0
 30 29  1  0  0  0  0
 30 22  1  1  0  0  0
M  END
>  <MODEL>
8

>  <REMARK>
 VINA RESULT:      -6.8      4.969      9.173
  Name = 
  2 active torsions:
  status: ('A' for Active; 'I' for Inactive)
    1  A    between atoms: C_5  and  C_30
    2  A    between atoms: C_10  and  N_16
                            x       y       z     vdW  Elec       q    Type
                         _______ _______ _______ _____ _____    ______ ____

>  <TORSDO>
F 2

$$$$
=
 OpenBabel11122411193D

 31 35  0  0  1  0  0  0  0  0999 V2000
  188.9670  178.1830  143.1710 C   0  0  0  0  0  0  0  0  0  0  0  0
  186.4980  179.0270  140.4810 C   0  0  2  0  0  3  0  0  0  0  0  0
  186.8440  178.1130  139.3160 C   0  0  0  0  0  0  0  0  0  0  0  0
  188.4040  176.6470  138.1600 C   0  0  0  0  0  0  0  0  0  0  0  0
  187.0580  178.5310  141.7950 C   0  0  0  0  0  0  0  0  0  0  0  0
  188.1890  177.5380  144.1330 C   0  0  0  0  0  3  0  0  0  0  0  0
  188.0860  177.4620  139.2500 C   0  0  0  0  0  3  0  0  0  0  0  0
  184.2680  178.0700  141.1690 C   0  0  2  0  0  3  0  0  0  0  0  0
  190.4290  178.3440  143.3850 C   0  0  0  0  0  1  0  0  0  0  0  0
  184.7150  178.6410  138.2560 O   0  0  0  0  0  0  0  0  0  0  0  0
  189.7170  175.9530  138.1120 C   0  0  0  0  0  1  0  0  0  0  0  0
  184.7450  177.8200  142.6000 C   0  0  0  0  0  2  0  0  0  0  0  0
  184.9820  179.2940  140.5830 C   0  0  2  0  0  3  0  0  0  0  0  0
  188.3910  178.6600  142.0360 N   0  0  0  0  0  0  0  0  0  0  0  0
  187.4880  176.4840  137.1190 C   0  0  0  0  0  3  0  0  0  0  0  0
  186.2400  177.8820  142.7430 C   0  0  0  0  0  0  0  0  0  0  0  0
  186.8180  177.3970  143.9170 C   0  0  0  0  0  3  0  0  0  0  0  0
  184.4320  179.6670  139.2050 C   0  0  0  0  0  2  0  0  0  0  0  0
  185.9410  177.9720  138.2410 C   0  0  0  0  0  0  0  0  0  0  0  0
  186.2600  177.1470  137.1590 C   0  0  0  0  0  3  0  0  0  0  0  0
  182.3710  176.4400  139.8000 O   0  0  0  0  0  0  0  0  0  0  0  0
  181.9280  177.4150  140.4670 C   0  0  0  0  0  0  0  0  0  0  0  0
  182.8260  178.2740  141.1720 N   0  0  0  0  0  2  0  0  0  0  0  0
  179.7130  180.3900  139.6840 N   0  0  0  0  0  0  0  0  0  0  0  0
  179.8900  178.0030  139.1310 C   0  0  0  0  0  2  0  0  0  0  0  0
  180.6920  178.6150  142.8870 C   0  0  0  0  0  1  0  0  0  0  0  0
  180.0820  181.7110  139.2100 C   0  0  0  0  0  1  0  0  0  0  0  0
  180.2330  179.4340  138.7080 C   0  0  0  0  0  2  0  0  0  0  0  0
  180.0680  178.8110  141.5160 C   0  0  2  0  0  3  0  0  0  0  0  0
  180.4520  177.6990  140.5230 C   0  0  2  0  0  3  0  0  0  0  0  0
  180.4100  180.1880  140.9530 C   0  0  0  0  0  2  0  0  0  0  0  0
  1  9  1  0  0  0  0
  1  6  1  0  0  0  0
  2  3  1  6  0  0  0
  2 13  1  0  0  0  0
  2  5  1  0  0  0  0
  4  7  2  0  0  0  0
  5 14  1  0  0  0  0
  5 16  2  0  0  0  0
  7  3  1  0  0  0  0
  8 23  1  1  0  0  0
  8 12  1  0  0  0  0
 10 18  1  0  0  0  0
 11  4  1  0  0  0  0
 12 16  1  0  0  0  0
 13 18  1  6  0  0  0
 13  8  1  0  0  0  0
 14  1  2  0  0  0  0
 15 20  2  0  0  0  0
 15  4  1  0  0  0  0
 16 17  1  0  0  0  0
 17  6  2  0  0  0  0
 19 10  1  0  0  0  0
 19  3  2  0  0  0  0
 20 19  1  0  0  0  0
 21 22  2  0  0  0  0
 22 23  1  0  0  0  0
 24 31  1  0  0  0  0
 25 30  1  0  0  0  0
 27 24  1  0  0  0  0
 28 25  1  0  0  0  0
 28 24  1  0  0  0  0
 29 26  1  1  0  0  0
 30 22  1  6  0  0  0
 30 29  1  0  0  0  0
 31 29  1  0  0  0  0
M  END
>  <MODEL>
9

>  <REMARK>
 VINA RESULT:      -6.8      5.112      8.040
  Name = 
  2 active torsions:
  status: ('A' for Active; 'I' for Inactive)
    1  A    between atoms: C_5  and  C_30
    2  A    between atoms: C_10  and  N_16
                            x       y       z     vdW  Elec       q    Type
                         _______ _______ _______ _____ _____    ______ ____

>  <TORSDO>
F 2

$$$$
