=
 OpenBabel11122410453D

 32 37  0  0  1  0  0  0  0  0999 V2000
  183.7320  177.0730  137.8670 C   0  0  0  0  0  2  0  0  0  0  0  0
  186.8170  178.3620  141.4210 C   0  0  0  0  0  0  0  0  0  0  0  0
  184.3940  179.4320  145.4830 C   0  0  0  0  0  2  0  0  0  0  0  0
  184.8100  178.0850  146.0630 C   0  0  0  0  0  2  0  0  0  0  0  0
  189.3170  177.7900  141.7440 C   0  0  0  0  0  0  0  0  0  0  0  0
  190.5090  177.6530  142.6490 C   0  0  2  0  0  3  0  0  0  0  0  0
  186.0020  178.7470  139.0960 C   0  0  2  0  0  3  0  0  0  0  0  0
  184.5150  178.9180  141.0250 N   0  0  0  0  0  0  0  0  0  0  0  0
  191.3730  177.2260  144.7490 C   0  0  2  0  0  3  0  0  0  0  0  0
  183.5230  179.4350  138.8810 C   0  0  0  0  0  2  0  0  0  0  0  0
  184.4990  179.4750  143.9510 C   0  0  0  0  0  2  0  0  0  0  0  0
  185.5750  178.5200  141.9070 C   0  0  0  0  0  0  0  0  0  0  0  0
  185.2500  178.2780  143.3550 C   0  0  1  0  0  3  0  0  0  0  0  0
  187.7350  177.7670  143.6160 C   0  0  0  0  0  0  0  0  0  0  0  0
  191.6980  176.1060  143.7820 C   0  0  0  0  0  2  0  0  0  0  0  0
  184.9000  177.5900  137.2920 O   0  0  0  0  0  0  0  0  0  0  0  0
  184.6860  179.0810  139.7490 C   0  0  0  0  0  0  0  0  0  0  0  0
  191.0890  176.3750  142.5390 O   0  0  0  0  0  0  0  0  0  0  0  0
  185.8800  177.4560  138.2860 C   0  0  0  0  0  2  0  0  0  0  0  0
  182.7940  178.1910  138.3460 C   0  0  1  0  0  3  0  0  0  0  0  0
  186.2370  177.7590  145.6290 C   0  0  0  0  0  2  0  0  0  0  0  0
  186.4200  177.9390  144.1820 N   0  0  0  0  0  0  0  0  0  0  0  0
  188.8580  177.2750  144.4900 C   0  0  0  0  0  2  0  0  0  0  0  0
  187.0490  178.6080  140.0600 O   0  0  0  0  0  0  0  0  0  0  0  0
  189.5070  177.7610  140.4990 O   0  0  0  0  0  0  0  0  0  0  0  0
  191.1320  176.7060  146.1580 C   0  0  0  0  0  1  0  0  0  0  0  0
  187.9440  177.9580  142.2980 C   0  0  0  0  0  0  0  0  0  0  0  0
  190.1990  177.9220  144.1110 C   0  0  2  0  0  3  0  0  0  0  0  0
  181.9000  178.5730  137.2620 N   0  0  0  0  0  2  0  0  0  0  0  0
  180.5380  178.9450  137.4800 C   0  0  0  0  0  0  0  0  0  0  0  0
  180.0440  178.9300  138.6390 O   0  0  0  0  0  0  0  0  0  0  0  0
  179.6930  179.3470  136.3260 C   0  0  0  0  0  1  0  0  0  0  0  0
  1 20  1  0  0  0  0
  2 12  2  0  0  0  0
  2 27  1  0  0  0  0
  3  4  1  0  0  0  0
  5 27  1  0  0  0  0
  6  5  1  6  0  0  0
  6 28  1  0  0  0  0
  7 19  1  1  0  0  0
  7 17  1  0  0  0  0
  7 24  1  0  0  0  0
  8 12  1  0  0  0  0
  9 26  1  1  0  0  0
 10 17  1  0  0  0  0
 11  3  1  0  0  0  0
 12 13  1  0  0  0  0
 13 11  1  1  0  0  0
 13 22  1  0  0  0  0
 14 22  1  0  0  0  0
 14 23  1  0  0  0  0
 15  9  1  0  0  0  0
 16  1  1  0  0  0  0
 16 19  1  0  0  0  0
 17  8  2  0  0  0  0
 18  6  1  0  0  0  0
 18 15  1  0  0  0  0
 20 29  1  6  0  0  0
 20 10  1  0  0  0  0
 21  4  1  0  0  0  0
 22 21  1  0  0  0  0
 24  2  1  0  0  0  0
 25  5  2  0  0  0  0
 27 14  2  0  0  0  0
 28 23  1  1  0  0  0
 28  9  1  0  0  0  0
 29 30  1  0  0  0  0
 30 31  2  0  0  0  0
 32 30  1  0  0  0  0
M  END
>  <MODEL>
1

>  <REMARK>
 VINA RESULT:      -9.6      0.000      0.000
  Name = 
  1 active torsions:
  status: ('A' for Active; 'I' for Inactive)
    1  A    between atoms: C_20  and  N_29
                            x       y       z     vdW  Elec       q    Type
                         _______ _______ _______ _____ _____    ______ ____

>  <TORSDO>
F 1

$$$$
=
 OpenBabel11122410453D

 32 37  0  0  1  0  0  0  0  0999 V2000
  189.7190  176.3970  145.2780 C   0  0  0  0  0  2  0  0  0  0  0  0
  189.2300  177.7430  140.6130 C   0  0  0  0  0  0  0  0  0  0  0  0
  193.0900  176.3650  138.0220 C   0  0  0  0  0  2  0  0  0  0  0  0
  192.2650  175.2250  137.4350 C   0  0  0  0  0  2  0  0  0  0  0  0
  187.0980  178.2410  139.2390 C   0  0  0  0  0  0  0  0  0  0  0  0
  186.4140  178.3650  137.9060 C   0  0  2  0  0  3  0  0  0  0  0  0
  189.2550  178.4250  143.0110 C   0  0  2  0  0  3  0  0  0  0  0  0
  191.1740  177.3390  141.9630 N   0  0  0  0  0  0  0  0  0  0  0  0
  186.2500  177.7380  135.6890 C   0  0  2  0  0  3  0  0  0  0  0  0
  191.4690  178.0010  144.2690 C   0  0  0  0  0  2  0  0  0  0  0  0
  192.4970  176.9130  139.3290 C   0  0  0  0  0  2  0  0  0  0  0  0
  190.4480  177.1920  140.7330 C   0  0  0  0  0  0  0  0  0  0  0  0
  191.0790  176.4040  139.6180 C   0  0  1  0  0  3  0  0  0  0  0  0
  188.9700  176.9670  138.3010 C   0  0  0  0  0  0  0  0  0  0  0  0
  185.0760  177.2220  136.4950 C   0  0  0  0  0  2  0  0  0  0  0  0
  188.8800  177.5160  145.2110 O   0  0  0  0  0  0  0  0  0  0  0  0
  190.6810  177.9400  143.0020 C   0  0  0  0  0  0  0  0  0  0  0  0
  185.2570  177.5660  137.8500 O   0  0  0  0  0  0  0  0  0  0  0  0
  188.3940  177.5240  143.8960 C   0  0  0  0  0  2  0  0  0  0  0  0
  191.2000  176.7940  145.1830 C   0  0  1  0  0  3  0  0  0  0  0  0
  190.8330  175.6980  137.1990 C   0  0  0  0  0  2  0  0  0  0  0  0
  190.2800  176.3710  138.3820 N   0  0  0  0  0  0  0  0  0  0  0  0
  188.1430  176.7690  137.0570 C   0  0  0  0  0  2  0  0  0  0  0  0
  188.7040  178.4670  141.6930 O   0  0  0  0  0  0  0  0  0  0  0  0
  186.5010  178.6780  140.2580 O   0  0  0  0  0  0  0  0  0  0  0  0
  186.6580  176.7620  134.5940 C   0  0  0  0  0  1  0  0  0  0  0  0
  188.4470  177.6210  139.3570 C   0  0  0  0  0  0  0  0  0  0  0  0
  187.3050  178.0140  136.7290 C   0  0  2  0  0  3  0  0  0  0  0  0
  191.7170  177.0610  146.5180 N   0  0  0  0  0  2  0  0  0  0  0  0
  192.3500  176.0580  147.3150 C   0  0  0  0  0  0  0  0  0  0  0  0
  192.4600  174.8760  146.8930 O   0  0  0  0  0  0  0  0  0  0  0  0
  192.8760  176.4120  148.6580 C   0  0  0  0  0  1  0  0  0  0  0  0
  2 12  2  0  0  0  0
  2 24  1  0  0  0  0
  3 11  1  0  0  0  0
  4  3  1  0  0  0  0
  5 27  1  0  0  0  0
  5 25  2  0  0  0  0
  6 18  1  1  0  0  0
  6  5  1  0  0  0  0
  7 19  1  1  0  0  0
  8 17  2  0  0  0  0
  9 26  1  6  0  0  0
  9 15  1  0  0  0  0
  9 28  1  0  0  0  0
 10 20  1  0  0  0  0
 12  8  1  0  0  0  0
 13 11  1  6  0  0  0
 13 12  1  0  0  0  0
 14 22  1  0  0  0  0
 14 27  2  0  0  0  0
 15 18  1  0  0  0  0
 16  1  1  0  0  0  0
 17  7  1  0  0  0  0
 17 10  1  0  0  0  0
 19 16  1  0  0  0  0
 20  1  1  0  0  0  0
 20 29  1  1  0  0  0
 21  4  1  0  0  0  0
 21 22  1  0  0  0  0
 22 13  1  0  0  0  0
 23 14  1  0  0  0  0
 24  7  1  0  0  0  0
 27  2  1  0  0  0  0
 28 23  1  1  0  0  0
 28  6  1  0  0  0  0
 29 30  1  0  0  0  0
 30 32  1  0  0  0  0
 31 30  2  0  0  0  0
M  END
>  <MODEL>
2

>  <REMARK>
 VINA RESULT:      -8.7      3.484      9.339
  Name = 
  1 active torsions:
  status: ('A' for Active; 'I' for Inactive)
    1  A    between atoms: C_20  and  N_29
                            x       y       z     vdW  Elec       q    Type
                         _______ _______ _______ _____ _____    ______ ____

>  <TORSDO>
F 1

$$$$
=
 OpenBabel11122410453D

 32 37  0  0  1  0  0  0  0  0999 V2000
  180.8330  181.6120  138.6740 C   0  0  0  0  0  2  0  0  0  0  0  0
  183.7680  178.7070  141.2750 C   0  0  0  0  0  0  0  0  0  0  0  0
  187.7540  177.5980  138.7460 C   0  0  0  0  0  2  0  0  0  0  0  0
  188.5430  178.5950  139.5880 C   0  0  0  0  0  2  0  0  0  0  0  0
  183.9610  178.3970  143.8340 C   0  0  0  0  0  0  0  0  0  0  0  0
  184.7610  177.9640  145.0310 C   0  0  2  0  0  3  0  0  0  0  0  0
  181.4980  179.0980  140.3190 C   0  0  2  0  0  3  0  0  0  0  0  0
  183.4880  178.9870  138.9070 N   0  0  0  0  0  0  0  0  0  0  0  0
  186.8140  177.6450  146.0420 C   0  0  2  0  0  3  0  0  0  0  0  0
  181.3870  179.2710  137.7450 C   0  0  0  0  0  2  0  0  0  0  0  0
  186.2400  177.8520  138.7910 C   0  0  0  0  0  2  0  0  0  0  0  0
  184.3280  178.8410  140.0620 C   0  0  0  0  0  0  0  0  0  0  0  0
  185.8190  178.8570  139.8710 C   0  0  1  0  0  3  0  0  0  0  0  0
  185.9410  178.5080  142.3940 C   0  0  0  0  0  0  0  0  0  0  0  0
  186.0560  178.7890  146.6830 C   0  0  0  0  0  2  0  0  0  0  0  0
  180.0630  180.8950  139.5990 O   0  0  0  0  0  0  0  0  0  0  0  0
  182.1940  179.0550  138.9820 C   0  0  0  0  0  0  0  0  0  0  0  0
  184.8470  178.9930  145.9870 O   0  0  0  0  0  0  0  0  0  0  0  0
  180.9690  180.5040  140.5960 C   0  0  0  0  0  2  0  0  0  0  0  0
  181.1720  180.7630  137.4400 C   0  0  1  0  0  3  0  0  0  0  0  0
  188.0490  178.5490  141.0320 C   0  0  0  0  0  2  0  0  0  0  0  0
  186.5840  178.6340  141.1090 N   0  0  0  0  0  0  0  0  0  0  0  0
  186.7860  178.4320  143.6390 C   0  0  0  0  0  2  0  0  0  0  0  0
  182.3690  178.6980  141.3790 O   0  0  0  0  0  0  0  0  0  0  0  0
  182.7340  178.6310  143.9910 O   0  0  0  0  0  0  0  0  0  0  0  0
  188.3140  177.9010  146.0180 C   0  0  0  0  0  1  0  0  0  0  0  0
  184.5980  178.5470  142.4960 C   0  0  0  0  0  0  0  0  0  0  0  0
  186.1650  177.4990  144.6900 C   0  0  2  0  0  3  0  0  0  0  0  0
  180.1230  180.9160  136.4430 N   0  0  0  0  0  2  0  0  0  0  0  0
  180.0150  182.0700  135.6070 C   0  0  0  0  0  0  0  0  0  0  0  0
  180.8250  183.0280  135.7260 O   0  0  0  0  0  0  0  0  0  0  0  0
  178.9320  182.1440  134.5940 C   0  0  0  0  0  1  0  0  0  0  0  0
  1 16  1  0  0  0  0
  2 24  1  0  0  0  0
  2 27  1  0  0  0  0
  3 11  1  0  0  0  0
  3  4  1  0  0  0  0
  4 21  1  0  0  0  0
  5 25  2  0  0  0  0
  6  5  1  6  0  0  0
  6 18  1  0  0  0  0
  7 19  1  1  0  0  0
  7 24  1  0  0  0  0
  8 17  2  0  0  0  0
  8 12  1  0  0  0  0
  9 26  1  6  0  0  0
  9 15  1  0  0  0  0
 10 17  1  0  0  0  0
 12  2  2  0  0  0  0
 13 11  1  6  0  0  0
 13 12  1  0  0  0  0
 13 22  1  0  0  0  0
 14 27  2  0  0  0  0
 14 23  1  0  0  0  0
 16 19  1  0  0  0  0
 17  7  1  0  0  0  0
 18 15  1  0  0  0  0
 20 29  1  6  0  0  0
 20 10  1  0  0  0  0
 20  1  1  0  0  0  0
 21 22  1  0  0  0  0
 22 14  1  0  0  0  0
 27  5  1  0  0  0  0
 28 23  1  6  0  0  0
 28  6  1  0  0  0  0
 28  9  1  0  0  0  0
 30 31  2  0  0  0  0
 30 29  1  0  0  0  0
 32 30  1  0  0  0  0
M  END
>  <MODEL>
3

>  <REMARK>
 VINA RESULT:      -8.0      2.937      4.876
  Name = 
  1 active torsions:
  status: ('A' for Active; 'I' for Inactive)
    1  A    between atoms: C_20  and  N_29
                            x       y       z     vdW  Elec       q    Type
                         _______ _______ _______ _____ _____    ______ ____

>  <TORSDO>
F 1

$$$$
=
 OpenBabel11122410453D

 32 37  0  0  1  0  0  0  0  0999 V2000
  187.2850  176.9610  143.2460 C   0  0  0  0  0  2  0  0  0  0  0  0
  184.6740  178.6650  139.4920 C   0  0  0  0  0  0  0  0  0  0  0  0
  186.9840  177.8680  135.3030 C   0  0  0  0  0  2  0  0  0  0  0  0
  186.0270  176.7160  135.0160 C   0  0  0  0  0  2  0  0  0  0  0  0
  182.1330  179.0910  139.2890 C   0  0  0  0  0  0  0  0  0  0  0  0
  180.9130  179.2700  138.4280 C   0  0  2  0  0  3  0  0  0  0  0  0
  185.7610  179.1320  141.6870 C   0  0  2  0  0  3  0  0  0  0  0  0
  187.0330  178.3170  139.7690 N   0  0  0  0  0  0  0  0  0  0  0  0
  179.7830  178.8290  136.4630 C   0  0  2  0  0  3  0  0  0  0  0  0
  188.3200  178.7970  141.7590 C   0  0  0  0  0  2  0  0  0  0  0  0
  187.0290  178.2440  136.7910 C   0  0  0  0  0  2  0  0  0  0  0  0
  185.8340  178.2150  138.9860 C   0  0  0  0  0  0  0  0  0  0  0  0
  185.9190  177.5880  137.6230 C   0  0  1  0  0  3  0  0  0  0  0  0
  183.4210  178.0750  137.4670 C   0  0  0  0  0  0  0  0  0  0  0  0
  179.1250  178.1430  137.6410 C   0  0  0  0  0  2  0  0  0  0  0  0
  186.4640  178.0030  143.6960 O   0  0  0  0  0  0  0  0  0  0  0  0
  187.0450  178.7780  140.9820 C   0  0  0  0  0  0  0  0  0  0  0  0
  179.8900  178.3800  138.8020 O   0  0  0  0  0  0  0  0  0  0  0  0
  185.4330  178.0830  142.7490 C   0  0  0  0  0  2  0  0  0  0  0  0
  188.5440  177.4940  142.5460 C   0  0  1  0  0  3  0  0  0  0  0  0
  184.6270  177.0790  135.5050 C   0  0  0  0  0  2  0  0  0  0  0  0
  184.6470  177.5930  136.8810 N   0  0  0  0  0  0  0  0  0  0  0  0
  182.1270  177.9150  136.7120 C   0  0  0  0  0  2  0  0  0  0  0  0
  184.6690  179.2410  140.7700 O   0  0  0  0  0  0  0  0  0  0  0  0
  182.0480  179.3810  140.5110 O   0  0  0  0  0  0  0  0  0  0  0  0
  179.6860  177.9940  135.1940 C   0  0  0  0  0  1  0  0  0  0  0  0
  183.4110  178.5840  138.7150 C   0  0  0  0  0  0  0  0  0  0  0  0
  181.1840  179.1050  136.9440 C   0  0  2  0  0  3  0  0  0  0  0  0
  189.6000  177.6870  143.5280 N   0  0  0  0  0  2  0  0  0  0  0  0
  190.6050  176.7050  143.7840 C   0  0  0  0  0  0  0  0  0  0  0  0
  190.5960  175.6020  143.1740 O   0  0  0  0  0  0  0  0  0  0  0  0
  191.6680  176.9840  144.7840 C   0  0  0  0  0  1  0  0  0  0  0  0
  1 16  1  0  0  0  0
  2 24  1  0  0  0  0
  3 11  1  0  0  0  0
  4  3  1  0  0  0  0
  4 21  1  0  0  0  0
  5 25  2  0  0  0  0
  6 18  1  1  0  0  0
  6  5  1  0  0  0  0
  7 19  1  1  0  0  0
  8 17  2  0  0  0  0
  9 26  1  6  0  0  0
  9 28  1  0  0  0  0
  9 15  1  0  0  0  0
 10 20  1  0  0  0  0
 12  2  2  0  0  0  0
 12  8  1  0  0  0  0
 13 11  1  6  0  0  0
 13 12  1  0  0  0  0
 14 27  2  0  0  0  0
 15 18  1  0  0  0  0
 17  7  1  0  0  0  0
 17 10  1  0  0  0  0
 19 16  1  0  0  0  0
 20  1  1  0  0  0  0
 20 29  1  1  0  0  0
 21 22  1  0  0  0  0
 22 14  1  0  0  0  0
 22 13  1  0  0  0  0
 23 14  1  0  0  0  0
 24  7  1  0  0  0  0
 27  5  1  0  0  0  0
 27  2  1  0  0  0  0
 28 23  1  1  0  0  0
 28  6  1  0  0  0  0
 29 30  1  0  0  0  0
 30 32  1  0  0  0  0
 31 30  2  0  0  0  0
M  END
>  <MODEL>
4

>  <REMARK>
 VINA RESULT:      -7.5      1.918      9.184
  Name = 
  1 active torsions:
  status: ('A' for Active; 'I' for Inactive)
    1  A    between atoms: C_20  and  N_29
                            x       y       z     vdW  Elec       q    Type
                         _______ _______ _______ _____ _____    ______ ____

>  <TORSDO>
F 1

$$$$
=
 OpenBabel11122410453D

 32 37  0  0  1  0  0  0  0  0999 V2000
  182.2670  177.9420  141.8440 C   0  0  0  0  0  2  0  0  0  0  0  0
  187.0130  178.3190  140.7730 C   0  0  0  0  0  0  0  0  0  0  0  0
  189.7250  177.4070  144.6880 C   0  0  0  0  0  2  0  0  0  0  0  0
  190.0460  176.0280  144.1220 C   0  0  0  0  0  2  0  0  0  0  0  0
  188.2320  178.0850  138.5060 C   0  0  0  0  0  0  0  0  0  0  0  0
  189.4940  177.8210  137.7340 C   0  0  2  0  0  3  0  0  0  0  0  0
  184.7630  179.3930  140.7800 C   0  0  2  0  0  3  0  0  0  0  0  0
  185.8140  178.5960  142.8350 N   0  0  0  0  0  0  0  0  0  0  0  0
  191.5610  176.8000  137.5910 C   0  0  2  0  0  3  0  0  0  0  0  0
  183.6770  179.6960  143.1030 C   0  0  0  0  0  2  0  0  0  0  0  0
  188.4680  178.0270  144.0620 C   0  0  0  0  0  2  0  0  0  0  0  0
  186.9290  178.0810  142.0920 C   0  0  0  0  0  0  0  0  0  0  0  0
  187.9650  177.2730  142.8230 C   0  0  1  0  0  3  0  0  0  0  0  0
  189.1410  177.1170  140.5660 C   0  0  0  0  0  0  0  0  0  0  0  0
  190.5750  176.1830  136.6210 C   0  0  0  0  0  2  0  0  0  0  0  0
  182.4230  178.8180  140.7610 O   0  0  0  0  0  0  0  0  0  0  0  0
  184.8370  179.2430  142.2770 C   0  0  0  0  0  0  0  0  0  0  0  0
  189.3130  176.7870  136.7970 O   0  0  0  0  0  0  0  0  0  0  0  0
  183.6690  178.4900  140.2100 C   0  0  0  0  0  2  0  0  0  0  0  0
  182.5660  178.6360  143.1810 C   0  0  1  0  0  3  0  0  0  0  0  0
  190.2110  176.1230  142.6060 C   0  0  0  0  0  2  0  0  0  0  0  0
  189.0970  176.8500  141.9820 N   0  0  0  0  0  0  0  0  0  0  0  0
  190.2520  176.5280  139.7360 C   0  0  0  0  0  2  0  0  0  0  0  0
  186.0120  179.0830  140.1570 O   0  0  0  0  0  0  0  0  0  0  0  0
  187.2390  178.5470  137.8850 O   0  0  0  0  0  0  0  0  0  0  0  0
  192.5270  175.7650  138.1500 C   0  0  0  0  0  1  0  0  0  0  0  0
  188.1520  177.8100  139.9680 C   0  0  0  0  0  0  0  0  0  0  0  0
  190.6850  177.4790  138.6100 C   0  0  2  0  0  3  0  0  0  0  0  0
  181.3460  179.2380  143.6990 N   0  0  0  0  0  2  0  0  0  0  0  0
  180.1760  178.4740  143.9990 C   0  0  0  0  0  0  0  0  0  0  0  0
  180.1500  177.2310  143.7950 O   0  0  0  0  0  0  0  0  0  0  0  0
  178.9760  179.1550  144.5490 C   0  0  0  0  0  1  0  0  0  0  0  0
  1 20  1  0  0  0  0
  2 12  2  0  0  0  0
  4  3  1  0  0  0  0
  5 27  1  0  0  0  0
  6 18  1  6  0  0  0
  6  5  1  0  0  0  0
  6 28  1  0  0  0  0
  7 19  1  6  0  0  0
  7 17  1  0  0  0  0
  9 26  1  1  0  0  0
  9 28  1  0  0  0  0
 10 20  1  0  0  0  0
 11  3  1  0  0  0  0
 12 13  1  0  0  0  0
 12  8  1  0  0  0  0
 13 11  1  1  0  0  0
 14 22  1  0  0  0  0
 15 18  1  0  0  0  0
 15  9  1  0  0  0  0
 16  1  1  0  0  0  0
 17  8  2  0  0  0  0
 17 10  1  0  0  0  0
 19 16  1  0  0  0  0
 20 29  1  6  0  0  0
 21  4  1  0  0  0  0
 22 21  1  0  0  0  0
 22 13  1  0  0  0  0
 23 14  1  0  0  0  0
 24  2  1  0  0  0  0
 24  7  1  0  0  0  0
 25  5  2  0  0  0  0
 27 14  2  0  0  0  0
 27  2  1  0  0  0  0
 28 23  1  1  0  0  0
 29 30  1  0  0  0  0
 30 32  1  0  0  0  0
 31 30  2  0  0  0  0
M  END
>  <MODEL>
5

>  <REMARK>
 VINA RESULT:      -7.4      3.034      4.867
  Name = 
  1 active torsions:
  status: ('A' for Active; 'I' for Inactive)
    1  A    between atoms: C_20  and  N_29
                            x       y       z     vdW  Elec       q    Type
                         _______ _______ _______ _____ _____    ______ ____

>  <TORSDO>
F 1

$$$$
=
 OpenBabel11122410453D

 32 37  0  0  1  0  0  0  0  0999 V2000
  183.0870  177.1780  139.5050 C   0  0  0  0  0  2  0  0  0  0  0  0
  187.9010  177.7660  138.9660 C   0  0  0  0  0  0  0  0  0  0  0  0
  190.0410  178.3810  143.2740 C   0  0  0  0  0  2  0  0  0  0  0  0
  190.5440  176.9420  143.2080 C   0  0  0  0  0  2  0  0  0  0  0  0
  189.4670  177.0120  137.0520 C   0  0  0  0  0  0  0  0  0  0  0  0
  190.8480  176.6790  136.5630 C   0  0  2  0  0  3  0  0  0  0  0  0
  185.6050  178.5260  138.3600 C   0  0  2  0  0  3  0  0  0  0  0  0
  186.3840  178.5030  140.6740 N   0  0  0  0  0  0  0  0  0  0  0  0
  192.9810  175.9080  137.0010 C   0  0  2  0  0  3  0  0  0  0  0  0
  184.1570  179.3780  140.3210 C   0  0  0  0  0  2  0  0  0  0  0  0
  188.8520  178.6360  142.3350 C   0  0  0  0  0  2  0  0  0  0  0  0
  187.6340  177.9240  140.2720 C   0  0  0  0  0  0  0  0  0  0  0  0
  188.6020  177.4960  141.3400 C   0  0  1  0  0  3  0  0  0  0  0  0
  190.1170  176.8120  139.4070 C   0  0  0  0  0  0  0  0  0  0  0  0
  192.2020  174.9210  136.1560 C   0  0  0  0  0  2  0  0  0  0  0  0
  183.3430  177.7040  138.2320 O   0  0  0  0  0  0  0  0  0  0  0  0
  185.4590  178.8380  139.8270 C   0  0  0  0  0  0  0  0  0  0  0  0
  190.8880  175.3990  135.9790 O   0  0  0  0  0  0  0  0  0  0  0  0
  184.6800  177.3740  137.9680 C   0  0  0  0  0  2  0  0  0  0  0  0
  183.1270  178.2680  140.5870 C   0  0  1  0  0  3  0  0  0  0  0  0
  190.9320  176.6010  141.7710 C   0  0  0  0  0  2  0  0  0  0  0  0
  189.8770  176.9750  140.8190 N   0  0  0  0  0  0  0  0  0  0  0  0
  191.3820  176.1360  138.9450 C   0  0  0  0  0  2  0  0  0  0  0  0
  186.9530  178.1910  138.0240 O   0  0  0  0  0  0  0  0  0  0  0  0
  188.5490  177.1510  136.2000 O   0  0  0  0  0  0  0  0  0  0  0  0
  193.9220  175.2060  137.9690 C   0  0  0  0  0  1  0  0  0  0  0  0
  189.1840  177.1770  138.5060 C   0  0  0  0  0  0  0  0  0  0  0  0
  191.9120  176.7530  137.6420 C   0  0  2  0  0  3  0  0  0  0  0  0
  181.8020  178.8510  140.7370 N   0  0  0  0  0  2  0  0  0  0  0  0
  181.2560  179.2090  142.0080 C   0  0  0  0  0  0  0  0  0  0  0  0
  181.9060  179.0030  143.0680 O   0  0  0  0  0  0  0  0  0  0  0  0
  179.9060  179.8230  142.0810 C   0  0  0  0  0  1  0  0  0  0  0  0
  1 20  1  0  0  0  0
  2 12  2  0  0  0  0
  4  3  1  0  0  0  0
  5 27  1  0  0  0  0
  6 18  1  1  0  0  0
  6  5  1  0  0  0  0
  6 28  1  0  0  0  0
  7 19  1  1  0  0  0
  7 17  1  0  0  0  0
  9 28  1  0  0  0  0
  9 26  1  1  0  0  0
 10 20  1  0  0  0  0
 11  3  1  0  0  0  0
 12  8  1  0  0  0  0
 12 13  1  0  0  0  0
 13 11  1  1  0  0  0
 14 22  1  0  0  0  0
 15  9  1  0  0  0  0
 16  1  1  0  0  0  0
 17 10  1  0  0  0  0
 17  8  2  0  0  0  0
 18 15  1  0  0  0  0
 19 16  1  0  0  0  0
 20 29  1  6  0  0  0
 21  4  1  0  0  0  0
 22 13  1  0  0  0  0
 22 21  1  0  0  0  0
 23 14  1  0  0  0  0
 24  7  1  0  0  0  0
 24  2  1  0  0  0  0
 25  5  2  0  0  0  0
 27  2  1  0  0  0  0
 27 14  2  0  0  0  0
 28 23  1  1  0  0  0
 29 30  1  0  0  0  0
 30 32  1  0  0  0  0
 30 31  2  0  0  0  0
M  END
>  <MODEL>
6

>  <REMARK>
 VINA RESULT:      -7.4      3.511      4.879
  Name = 
  1 active torsions:
  status: ('A' for Active; 'I' for Inactive)
    1  A    between atoms: C_20  and  N_29
                            x       y       z     vdW  Elec       q    Type
                         _______ _______ _______ _____ _____    ______ ____

>  <TORSDO>
F 1

$$$$
=
 OpenBabel11122410453D

 32 37  0  0  1  0  0  0  0  0999 V2000
  190.4170  176.5000  139.4640 C   0  0  0  0  0  2  0  0  0  0  0  0
  185.9290  177.6900  137.9630 C   0  0  0  0  0  0  0  0  0  0  0  0
  184.3700  174.5700  134.5940 C   0  0  0  0  0  2  0  0  0  0  0  0
  183.4850  173.9070  135.6440 C   0  0  0  0  0  2  0  0  0  0  0  0
  184.0780  179.0410  139.1580 C   0  0  0  0  0  0  0  0  0  0  0  0
  182.6250  179.3980  139.3080 C   0  0  2  0  0  3  0  0  0  0  0  0
  188.2940  178.4020  138.3050 C   0  0  2  0  0  3  0  0  0  0  0  0
  187.7140  176.5060  136.8780 N   0  0  0  0  0  0  0  0  0  0  0  0
  180.4010  178.8080  139.1100 C   0  0  2  0  0  3  0  0  0  0  0  0
  190.0630  177.0720  136.9740 C   0  0  0  0  0  2  0  0  0  0  0  0
  185.5100  175.3930  135.2130 C   0  0  0  0  0  2  0  0  0  0  0  0
  186.3260  176.6480  137.2150 C   0  0  0  0  0  0  0  0  0  0  0  0
  185.3600  175.6050  136.7250 C   0  0  1  0  0  3  0  0  0  0  0  0
  183.5750  177.0060  137.8880 C   0  0  0  0  0  0  0  0  0  0  0  0
  180.8110  178.9280  140.5640 C   0  0  0  0  0  2  0  0  0  0  0  0
  190.2230  177.8750  139.6500 O   0  0  0  0  0  0  0  0  0  0  0  0
  188.6290  177.3170  137.3140 C   0  0  0  0  0  0  0  0  0  0  0  0
  182.1890  179.2160  140.6340 O   0  0  0  0  0  0  0  0  0  0  0  0
  188.8310  178.0400  139.6890 C   0  0  0  0  0  2  0  0  0  0  0  0
  190.7620  176.1690  138.0040 C   0  0  1  0  0  3  0  0  0  0  0  0
  182.9120  174.9720  136.5760 C   0  0  0  0  0  2  0  0  0  0  0  0
  183.9550  175.8810  137.0710 N   0  0  0  0  0  0  0  0  0  0  0  0
  182.1410  177.1480  138.3300 C   0  0  0  0  0  2  0  0  0  0  0  0
  186.8840  178.6260  138.3840 O   0  0  0  0  0  0  0  0  0  0  0  0
  184.9310  179.7520  139.7520 O   0  0  0  0  0  0  0  0  0  0  0  0
  179.3770  177.7020  138.9000 C   0  0  0  0  0  1  0  0  0  0  0  0
  184.5030  177.8780  138.3300 C   0  0  0  0  0  0  0  0  0  0  0  0
  181.7070  178.6210  138.3840 C   0  0  2  0  0  3  0  0  0  0  0  0
  192.2040  176.2350  137.8190 N   0  0  0  0  0  2  0  0  0  0  0  0
  192.9840  175.1030  137.4310 C   0  0  0  0  0  0  0  0  0  0  0  0
  192.4440  173.9770  137.2590 O   0  0  0  0  0  0  0  0  0  0  0  0
  194.4500  175.2530  137.2370 C   0  0  0  0  0  1  0  0  0  0  0  0
  1 16  1  0  0  0  0
  2 27  1  0  0  0  0
  2 24  1  0  0  0  0
  3 11  1  0  0  0  0
  3  4  1  0  0  0  0
  4 21  1  0  0  0  0
  5 25  2  0  0  0  0
  6  5  1  1  0  0  0
  6 18  1  0  0  0  0
  7 24  1  0  0  0  0
  7 19  1  1  0  0  0
  8 12  1  0  0  0  0
  8 17  2  0  0  0  0
  9 26  1  1  0  0  0
  9 15  1  0  0  0  0
 10 17  1  0  0  0  0
 10 20  1  0  0  0  0
 12  2  2  0  0  0  0
 13 11  1  6  0  0  0
 13 22  1  0  0  0  0
 13 12  1  0  0  0  0
 14 23  1  0  0  0  0
 14 27  2  0  0  0  0
 15 18  1  0  0  0  0
 16 19  1  0  0  0  0
 17  7  1  0  0  0  0
 20 29  1  1  0  0  0
 20  1  1  0  0  0  0
 21 22  1  0  0  0  0
 22 14  1  0  0  0  0
 27  5  1  0  0  0  0
 28 23  1  1  0  0  0
 28  9  1  0  0  0  0
 28  6  1  0  0  0  0
 30 29  1  0  0  0  0
 31 30  2  0  0  0  0
 32 30  1  0  0  0  0
M  END
>  <MODEL>
7

>  <REMARK>
 VINA RESULT:      -7.2      3.981      8.963
  Name = 
  1 active torsions:
  status: ('A' for Active; 'I' for Inactive)
    1  A    between atoms: C_20  and  N_29
                            x       y       z     vdW  Elec       q    Type
                         _______ _______ _______ _____ _____    ______ ____

>  <TORSDO>
F 1

$$$$
=
 OpenBabel11122410453D

 32 37  0  0  1  0  0  0  0  0999 V2000
  181.0270  181.1050  138.9620 C   0  0  0  0  0  2  0  0  0  0  0  0
  184.3420  178.3300  141.2250 C   0  0  0  0  0  0  0  0  0  0  0  0
  188.0510  177.3390  138.2620 C   0  0  0  0  0  2  0  0  0  0  0  0
  188.8940  178.3710  139.0030 C   0  0  0  0  0  2  0  0  0  0  0  0
  184.8370  178.0510  143.7470 C   0  0  0  0  0  0  0  0  0  0  0  0
  185.7830  177.6570  144.8460 C   0  0  2  0  0  3  0  0  0  0  0  0
  181.9650  178.6310  140.5320 C   0  0  2  0  0  3  0  0  0  0  0  0
  183.7840  178.5780  138.9030 N   0  0  0  0  0  0  0  0  0  0  0  0
  187.9480  177.4200  145.6170 C   0  0  2  0  0  3  0  0  0  0  0  0
  181.5550  178.7760  137.9870 C   0  0  0  0  0  2  0  0  0  0  0  0
  186.5430  177.5400  138.4790 C   0  0  0  0  0  2  0  0  0  0  0  0
  184.7550  178.4710  139.9550 C   0  0  0  0  0  0  0  0  0  0  0  0
  186.2130  178.5390  139.5950 C   0  0  1  0  0  3  0  0  0  0  0  0
  186.6350  178.2180  142.0890 C   0  0  0  0  0  0  0  0  0  0  0  0
  187.2280  178.5430  146.3350 C   0  0  0  0  0  2  0  0  0  0  0  0
  180.3940  180.3690  139.9720 O   0  0  0  0  0  0  0  0  0  0  0  0
  182.5060  178.6000  139.1250 C   0  0  0  0  0  0  0  0  0  0  0  0
  185.9410  178.6970  145.7810 O   0  0  0  0  0  0  0  0  0  0  0  0
  181.4200  180.0200  140.8610 C   0  0  0  0  0  2  0  0  0  0  0  0
  181.2530  180.2560  137.7010 C   0  0  1  0  0  3  0  0  0  0  0  0
  188.5700  178.3210  140.4950 C   0  0  0  0  0  2  0  0  0  0  0  0
  187.1210  178.3540  140.7390 N   0  0  0  0  0  0  0  0  0  0  0  0
  187.6180  178.1830  143.2290 C   0  0  0  0  0  2  0  0  0  0  0  0
  182.9660  178.2720  141.4880 O   0  0  0  0  0  0  0  0  0  0  0  0
  183.6280  178.2420  144.0410 O   0  0  0  0  0  0  0  0  0  0  0  0
  189.4250  177.7290  145.4210 C   0  0  0  0  0  1  0  0  0  0  0  0
  185.3110  178.2110  142.3430 C   0  0  0  0  0  0  0  0  0  0  0  0
  187.1550  177.2390  144.3500 C   0  0  2  0  0  3  0  0  0  0  0  0
  180.0920  180.3630  136.8290 N   0  0  0  0  0  2  0  0  0  0  0  0
  180.1680  180.1690  135.4160 C   0  0  0  0  0  0  0  0  0  0  0  0
  181.2700  179.9210  134.8590 O   0  0  0  0  0  0  0  0  0  0  0  0
  178.9340  180.2690  134.5940 C   0  0  0  0  0  1  0  0  0  0  0  0
  1 16  1  0  0  0  0
  2 24  1  0  0  0  0
  2 27  1  0  0  0  0
  3 11  1  0  0  0  0
  3  4  1  0  0  0  0
  4 21  1  0  0  0  0
  5 25  2  0  0  0  0
  6  5  1  6  0  0  0
  6 18  1  0  0  0  0
  7 19  1  1  0  0  0
  7 24  1  0  0  0  0
  8 17  2  0  0  0  0
  8 12  1  0  0  0  0
  9 26  1  6  0  0  0
  9 15  1  0  0  0  0
 10 17  1  0  0  0  0
 12  2  2  0  0  0  0
 13 11  1  6  0  0  0
 13 12  1  0  0  0  0
 13 22  1  0  0  0  0
 14 27  2  0  0  0  0
 14 23  1  0  0  0  0
 16 19  1  0  0  0  0
 17  7  1  0  0  0  0
 18 15  1  0  0  0  0
 20 29  1  6  0  0  0
 20 10  1  0  0  0  0
 20  1  1  0  0  0  0
 21 22  1  0  0  0  0
 22 14  1  0  0  0  0
 27  5  1  0  0  0  0
 28 23  1  6  0  0  0
 28  6  1  0  0  0  0
 28  9  1  0  0  0  0
 30 29  1  0  0  0  0
 31 30  2  0  0  0  0
 32 30  1  0  0  0  0
M  END
>  <MODEL>
8

>  <REMARK>
 VINA RESULT:      -7.1      2.578      4.495
  Name = 
  1 active torsions:
  status: ('A' for Active; 'I' for Inactive)
    1  A    between atoms: C_20  and  N_29
                            x       y       z     vdW  Elec       q    Type
                         _______ _______ _______ _____ _____    ______ ____

>  <TORSDO>
F 1

$$$$
