=
 OpenBabel11122412073D

 34 42  0  0  1  0  0  0  0  0999 V2000
  187.4380  178.0640  140.1890 C   0  0  0  0  0  0  0  0  0  0  0  0
  185.5020  178.9060  138.7740 C   0  0  0  0  0  2  0  0  0  0  0  0
  190.6770  178.1790  145.0450 C   0  0  2  0  0  0  0  0  0  0  0  0
  188.9300  176.7860  141.6090 C   0  0  0  0  0  0  0  0  0  0  0  0
  188.5990  176.8220  144.1610 C   0  0  1  0  0  3  0  0  0  0  0  0
  190.2460  178.7800  143.7100 C   0  0  2  0  0  3  0  0  0  0  0  0
  191.3680  179.4150  144.5070 C   0  0  0  0  0  2  0  0  0  0  0  0
  191.6820  176.3820  143.4370 C   0  0  0  0  0  2  0  0  0  0  0  0
  185.3880  179.2210  141.1130 C   0  0  2  0  0  3  0  0  0  0  0  0
  182.4890  178.2750  142.2620 C   0  0  0  0  0  2  0  0  0  0  0  0
  187.1170  177.0410  143.8560 C   0  0  0  0  0  2  0  0  0  0  0  0
  190.5550  175.4240  143.1060 C   0  0  0  0  0  2  0  0  0  0  0  0
  185.4760  178.2270  142.2910 C   0  0  1  0  0  3  0  0  0  0  0  0
  184.1980  179.3750  139.0450 O   0  0  0  0  0  0  0  0  0  0  0  0
  189.2080  176.1220  142.9310 C   0  0  2  0  0  3  0  0  0  0  0  0
  191.5160  176.8970  144.8640 C   0  0  0  0  0  2  0  0  0  0  0  0
  183.0040  178.2220  140.8120 C   0  0  1  0  0  3  0  0  0  0  0  0
  187.7760  177.5830  141.4640 C   0  0  0  0  0  0  0  0  0  0  0  0
  189.2060  178.1700  144.6370 C   0  0  2  0  0  3  0  0  0  0  0  0
  186.9490  178.0020  142.6660 C   0  0  2  0  0  3  0  0  0  0  0  0
  189.3770  176.9530  139.2790 C   0  0  0  0  0  3  0  0  0  0  0  0
  183.2680  179.2160  143.1820 C   0  0  0  0  0  2  0  0  0  0  0  0
  189.6860  176.4840  140.5170 N   0  0  0  0  0  0  0  0  0  0  0  0
  184.6750  178.7110  143.5090 C   0  0  0  0  0  2  0  0  0  0  0  0
  184.0140  179.3330  140.4460 C   0  0  1  0  0  3  0  0  0  0  0  0
  188.2440  177.7450  139.0920 C   0  0  0  0  0  3  0  0  0  0  0  0
  186.2320  178.8220  140.0200 N   0  0  0  0  0  0  0  0  0  0  0  0
  183.5240  176.9530  140.5350 O   0  0  0  0  0  0  0  0  0  0  0  0
  182.5280  176.2970  139.8110 C   0  0  0  0  0  2  0  0  0  0  0  0
  183.2940  176.2900  136.2060 O   0  0  0  0  0  0  0  0  0  0  0  0
  183.6390  174.9860  138.0780 N   0  0  0  0  0  0  0  0  0  0  0  0
  183.0140  176.0380  138.4290 C   0  0  0  0  0  0  0  0  0  0  0  0
  183.8240  175.1330  136.7030 N   0  0  0  0  0  2  0  0  0  0  0  0
  182.7580  176.8700  137.3190 N   0  0  0  0  0  2  0  0  0  0  0  0
  1 18  1  0  0  0  0
  2 14  1  0  0  0  0
  2 27  1  0  0  0  0
  3  7  1  1  0  0  0
  4 15  1  0  0  0  0
  5 11  1  6  0  0  0
  5 19  1  0  0  0  0
  6  7  1  1  0  0  0
  6 19  1  0  0  0  0
  6  3  1  0  0  0  0
  8 16  1  0  0  0  0
  9 27  1  6  0  0  0
  9 13  1  0  0  0  0
 10 22  1  0  0  0  0
 12  8  1  0  0  0  0
 13 20  1  0  0  0  0
 13 24  1  1  0  0  0
 14 25  1  0  0  0  0
 15 12  1  1  0  0  0
 15  5  1  0  0  0  0
 16  3  1  0  0  0  0
 17 28  1  1  0  0  0
 17 10  1  0  0  0  0
 18  4  2  0  0  0  0
 18 20  1  0  0  0  0
 19  3  1  0  0  0  0
 20 11  1  0  0  0  0
 21 23  2  0  0  0  0
 22 24  1  0  0  0  0
 23  4  1  0  0  0  0
 25 17  1  0  0  0  0
 25  9  1  0  0  0  0
 26 21  1  0  0  0  0
 26  1  2  0  0  0  0
 27  1  1  0  0  0  0
 29 28  1  0  0  0  0
 30 33  1  0  0  0  0
 30 34  1  0  0  0  0
 31 32  2  0  0  0  0
 32 29  1  0  0  0  0
 33 31  1  0  0  0  0
 34 32  1  0  0  0  0
M  END
>  <MODEL>
1

>  <REMARK>
 VINA RESULT:      -8.7      0.000      0.000
  Name = 
  3 active torsions:
  status: ('A' for Active; 'I' for Inactive)
    1  A    between atoms: C_17  and  O_28
    2  A    between atoms: O_28  and  C_29
    3  A    between atoms: C_29  and  C_32
                            x       y       z     vdW  Elec       q    Type
                         _______ _______ _______ _____ _____    ______ ____

>  <TORSDO>
F 3

$$$$
=
 OpenBabel11122412073D

 34 42  0  0  1  0  0  0  0  0999 V2000
  186.1920  176.2230  135.2360 C   0  0  0  0  0  0  0  0  0  0  0  0
  188.2830  177.5160  134.5940 C   0  0  0  0  0  2  0  0  0  0  0  0
  183.3160  171.2160  136.1040 C   0  0  2  0  0  0  0  0  0  0  0  0
  184.3410  175.1740  136.3980 C   0  0  0  0  0  0  0  0  0  0  0  0
  184.6950  172.9130  137.5750 C   0  0  1  0  0  3  0  0  0  0  0  0
  183.9280  172.2650  135.1790 C   0  0  2  0  0  3  0  0  0  0  0  0
  183.1500  171.0990  134.6030 C   0  0  0  0  0  2  0  0  0  0  0  0
  181.6720  173.1930  136.5710 C   0  0  0  0  0  2  0  0  0  0  0  0
  188.5420  175.3000  135.3710 C   0  0  2  0  0  3  0  0  0  0  0  0
  190.8650  175.1430  137.6520 C   0  0  0  0  0  2  0  0  0  0  0  0
  186.1420  173.3650  137.7720 C   0  0  0  0  0  2  0  0  0  0  0  0
  182.3360  174.0650  137.6170 C   0  0  0  0  0  2  0  0  0  0  0  0
  188.0930  174.6080  136.6760 C   0  0  1  0  0  3  0  0  0  0  0  0
  189.6710  177.3190  134.7670 O   0  0  0  0  0  0  0  0  0  0  0  0
  183.8460  174.1890  137.4240 C   0  0  2  0  0  3  0  0  0  0  0  0
  182.0450  171.7320  136.8090 C   0  0  0  0  0  2  0  0  0  0  0  0
  190.3500  176.3840  136.8980 C   0  0  1  0  0  3  0  0  0  0  0  0
  185.7110  175.1990  136.0680 C   0  0  0  0  0  0  0  0  0  0  0  0
  184.6630  171.8500  136.4440 C   0  0  2  0  0  3  0  0  0  0  0  0
  186.6530  174.0950  136.5170 C   0  0  2  0  0  3  0  0  0  0  0  0
  183.9620  177.1350  135.1070 C   0  0  0  0  0  3  0  0  0  0  0  0
  190.5230  173.8070  136.9920 C   0  0  0  0  0  2  0  0  0  0  0  0
  183.5130  176.1450  135.9230 N   0  0  0  0  0  0  0  0  0  0  0  0
  189.0350  173.4600  137.0690 C   0  0  0  0  0  2  0  0  0  0  0  0
  189.8440  176.1020  135.4660 C   0  0  1  0  0  3  0  0  0  0  0  0
  185.3110  177.1960  134.7560 C   0  0  0  0  0  3  0  0  0  0  0  0
  187.5950  176.2940  134.9470 N   0  0  0  0  0  0  0  0  0  0  0  0
  189.3750  177.0360  137.6610 O   0  0  0  0  0  0  0  0  0  0  0  0
  189.9690  177.2570  138.9050 C   0  0  0  0  0  2  0  0  0  0  0  0
  187.0720  178.7840  140.5960 O   0  0  0  0  0  0  0  0  0  0  0  0
  189.1060  177.8230  141.1150 N   0  0  0  0  0  0  0  0  0  0  0  0
  188.9470  177.7750  139.8530 C   0  0  0  0  0  0  0  0  0  0  0  0
  187.9470  178.4410  141.5880 N   0  0  0  0  0  2  0  0  0  0  0  0
  187.7230  178.3650  139.4730 N   0  0  0  0  0  2  0  0  0  0  0  0
  1 18  1  0  0  0  0
  2 14  1  0  0  0  0
  2 27  1  0  0  0  0
  3  7  1  6  0  0  0
  3 19  1  0  0  0  0
  3 16  1  0  0  0  0
  4 15  1  0  0  0  0
  5 11  1  6  0  0  0
  6  7  1  6  0  0  0
  6  3  1  0  0  0  0
  6 19  1  0  0  0  0
  8 16  1  0  0  0  0
  8 12  1  0  0  0  0
  9 27  1  1  0  0  0
  9 25  1  0  0  0  0
  9 13  1  0  0  0  0
 13 24  1  6  0  0  0
 14 25  1  0  0  0  0
 15  5  1  0  0  0  0
 15 12  1  6  0  0  0
 17 10  1  0  0  0  0
 17 28  1  1  0  0  0
 18  4  2  0  0  0  0
 18 20  1  0  0  0  0
 19  5  1  0  0  0  0
 20 13  1  0  0  0  0
 20 11  1  0  0  0  0
 21 23  2  0  0  0  0
 22 24  1  0  0  0  0
 22 10  1  0  0  0  0
 23  4  1  0  0  0  0
 25 17  1  0  0  0  0
 26 21  1  0  0  0  0
 26  1  2  0  0  0  0
 27  1  1  0  0  0  0
 28 29  1  0  0  0  0
 29 32  1  0  0  0  0
 30 33  1  0  0  0  0
 31 33  1  0  0  0  0
 32 31  2  0  0  0  0
 34 32  1  0  0  0  0
 34 30  1  0  0  0  0
M  END
>  <MODEL>
2

>  <REMARK>
 VINA RESULT:      -6.5      4.090      8.775
  Name = 
  3 active torsions:
  status: ('A' for Active; 'I' for Inactive)
    1  A    between atoms: C_17  and  O_28
    2  A    between atoms: O_28  and  C_29
    3  A    between atoms: C_29  and  C_32
                            x       y       z     vdW  Elec       q    Type
                         _______ _______ _______ _____ _____    ______ ____

>  <TORSDO>
F 3

$$$$
=
 OpenBabel11122412073D

 34 42  0  0  1  0  0  0  0  0999 V2000
  186.1820  178.5150  139.7740 C   0  0  0  0  0  0  0  0  0  0  0  0
  188.6740  178.2980  139.3230 C   0  0  0  0  0  2  0  0  0  0  0  0
  180.8150  180.2140  138.2280 C   0  0  2  0  0  0  0  0  0  0  0  0
  183.8110  178.1350  140.0990 C   0  0  0  0  0  0  0  0  0  0  0  0
  182.2500  178.0110  138.0560 C   0  0  1  0  0  3  0  0  0  0  0  0
  182.2260  180.5230  138.7190 C   0  0  2  0  0  3  0  0  0  0  0  0
  181.1940  181.6280  138.6160 C   0  0  0  0  0  2  0  0  0  0  0  0
  180.6760  179.1340  140.6030 C   0  0  0  0  0  2  0  0  0  0  0  0
  187.2250  178.5240  137.4710 C   0  0  2  0  0  3  0  0  0  0  0  0
  187.9000  176.2830  135.2010 C   0  0  0  0  0  2  0  0  0  0  0  0
  183.4640  177.4760  137.2980 C   0  0  0  0  0  2  0  0  0  0  0  0
  181.2720  177.7460  140.4790 C   0  0  0  0  0  2  0  0  0  0  0  0
  185.9980  177.7030  137.0170 C   0  0  1  0  0  3  0  0  0  0  0  0
  189.4650  178.0700  138.1750 O   0  0  0  0  0  0  0  0  0  0  0  0
  182.4810  177.6950  139.5460 C   0  0  2  0  0  3  0  0  0  0  0  0
  179.9660  179.5050  139.3040 C   0  0  0  0  0  2  0  0  0  0  0  0
  188.5710  176.4850  136.5730 C   0  0  1  0  0  3  0  0  0  0  0  0
  184.9130  178.2650  139.2300 C   0  0  0  0  0  0  0  0  0  0  0  0
  182.0140  179.4850  137.6280 C   0  0  2  0  0  3  0  0  0  0  0  0
  184.7380  178.2290  137.7220 C   0  0  2  0  0  3  0  0  0  0  0  0
  185.2150  178.4920  141.9850 C   0  0  0  0  0  3  0  0  0  0  0  0
  187.1030  177.4880  134.6970 C   0  0  0  0  0  2  0  0  0  0  0  0
  183.9940  178.2370  141.4450 N   0  0  0  0  0  0  0  0  0  0  0  0
  185.8190  177.7370  135.4920 C   0  0  0  0  0  2  0  0  0  0  0  0
  188.5870  177.9470  137.0730 C   0  0  1  0  0  3  0  0  0  0  0  0
  186.3330  178.6280  141.1600 C   0  0  0  0  0  3  0  0  0  0  0  0
  187.3200  178.5850  138.9030 N   0  0  0  0  0  0  0  0  0  0  0  0
  187.9920  175.6320  137.5190 O   0  0  0  0  0  0  0  0  0  0  0  0
  187.7700  174.4310  136.8440 C   0  0  0  0  0  2  0  0  0  0  0  0
  184.7590  172.6280  137.9680 O   0  0  0  0  0  0  0  0  0  0  0  0
  185.3400  174.4150  136.6280 N   0  0  0  0  0  0  0  0  0  0  0  0
  186.4000  173.9400  137.1490 C   0  0  0  0  0  0  0  0  0  0  0  0
  184.3150  173.6140  137.1330 N   0  0  0  0  0  2  0  0  0  0  0  0
  186.1090  172.8290  137.9690 N   0  0  0  0  0  2  0  0  0  0  0  0
  1 26  1  0  0  0  0
  3  7  1  6  0  0  0
  3  6  1  0  0  0  0
  3 16  1  0  0  0  0
  4 23  2  0  0  0  0
  5 11  1  6  0  0  0
  5 15  1  0  0  0  0
  6  7  1  6  0  0  0
  9 27  1  1  0  0  0
 10 17  1  0  0  0  0
 11 20  1  0  0  0  0
 12  8  1  0  0  0  0
 13 24  1  6  0  0  0
 13  9  1  0  0  0  0
 13 20  1  0  0  0  0
 14  2  1  0  0  0  0
 15  4  1  0  0  0  0
 15 12  1  1  0  0  0
 16  8  1  0  0  0  0
 17 25  1  0  0  0  0
 17 28  1  1  0  0  0
 18  1  2  0  0  0  0
 18  4  1  0  0  0  0
 19  5  1  0  0  0  0
 19  3  1  0  0  0  0
 19  6  1  0  0  0  0
 20 18  1  0  0  0  0
 22 10  1  0  0  0  0
 22 24  1  0  0  0  0
 23 21  1  0  0  0  0
 25  9  1  0  0  0  0
 25 14  1  0  0  0  0
 26 21  2  0  0  0  0
 27  2  1  0  0  0  0
 27  1  1  0  0  0  0
 29 32  1  0  0  0  0
 29 28  1  0  0  0  0
 30 34  1  0  0  0  0
 31 33  1  0  0  0  0
 31 32  2  0  0  0  0
 32 34  1  0  0  0  0
 33 30  1  0  0  0  0
M  END
>  <MODEL>
3

>  <REMARK>
 VINA RESULT:      -6.2      3.453      7.259
  Name = 
  3 active torsions:
  status: ('A' for Active; 'I' for Inactive)
    1  A    between atoms: C_17  and  O_28
    2  A    between atoms: O_28  and  C_29
    3  A    between atoms: C_29  and  C_32
                            x       y       z     vdW  Elec       q    Type
                         _______ _______ _______ _____ _____    ______ ____

>  <TORSDO>
F 3

$$$$
=
 OpenBabel11122412073D

 34 42  0  0  1  0  0  0  0  0999 V2000
  186.2380  178.5020  139.6650 C   0  0  0  0  0  0  0  0  0  0  0  0
  188.7050  178.3250  139.0790 C   0  0  0  0  0  2  0  0  0  0  0  0
  180.7470  179.9980  138.3610 C   0  0  2  0  0  0  0  0  0  0  0  0
  183.9000  178.0790  140.1450 C   0  0  0  0  0  0  0  0  0  0  0  0
  182.2290  177.8240  138.2040 C   0  0  1  0  0  3  0  0  0  0  0  0
  182.1760  180.3630  138.7540 C   0  0  2  0  0  3  0  0  0  0  0  0
  181.1110  181.4370  138.6640 C   0  0  0  0  0  2  0  0  0  0  0  0
  180.7740  179.0240  140.7860 C   0  0  0  0  0  2  0  0  0  0  0  0
  187.1470  178.4310  137.3060 C   0  0  2  0  0  3  0  0  0  0  0  0
  187.7500  176.1050  135.1030 C   0  0  0  0  0  2  0  0  0  0  0  0
  183.4120  177.2850  137.4000 C   0  0  0  0  0  2  0  0  0  0  0  0
  181.3990  177.6470  140.6880 C   0  0  0  0  0  2  0  0  0  0  0  0
  185.9190  177.5600  136.9620 C   0  0  1  0  0  3  0  0  0  0  0  0
  189.4350  178.0630  137.8980 O   0  0  0  0  0  0  0  0  0  0  0  0
  182.5530  177.5830  139.6900 C   0  0  2  0  0  3  0  0  0  0  0  0
  179.9810  179.3190  139.5160 C   0  0  0  0  0  2  0  0  0  0  0  0
  188.4930  176.3860  136.4230 C   0  0  1  0  0  3  0  0  0  0  0  0
  184.9470  178.1960  139.2070 C   0  0  0  0  0  0  0  0  0  0  0  0
  181.9300  179.2710  137.7250 C   0  0  2  0  0  3  0  0  0  0  0  0
  184.6870  178.0870  137.7150 C   0  0  2  0  0  3  0  0  0  0  0  0
  185.4010  178.5560  141.9270 C   0  0  0  0  0  3  0  0  0  0  0  0
  186.8940  177.2660  134.5940 C   0  0  0  0  0  2  0  0  0  0  0  0
  184.1580  178.2480  141.4710 N   0  0  0  0  0  0  0  0  0  0  0  0
  185.6510  177.5200  135.4500 C   0  0  0  0  0  2  0  0  0  0  0  0
  188.4990  177.8690  136.8560 C   0  0  1  0  0  3  0  0  0  0  0  0
  186.4650  178.6810  141.0330 C   0  0  0  0  0  3  0  0  0  0  0  0
  187.3220  178.5590  138.7270 N   0  0  0  0  0  0  0  0  0  0  0  0
  187.9920  175.5630  137.4370 O   0  0  0  0  0  0  0  0  0  0  0  0
  188.3790  174.2690  137.0860 C   0  0  0  0  0  2  0  0  0  0  0  0
  191.9570  174.5530  137.9220 O   0  0  0  0  0  0  0  0  0  0  0  0
  190.5790  173.4280  136.4510 N   0  0  0  0  0  0  0  0  0  0  0  0
  189.8550  174.1430  137.2160 C   0  0  0  0  0  0  0  0  0  0  0  0
  191.8840  173.6690  136.8820 N   0  0  0  0  0  2  0  0  0  0  0  0
  190.6460  174.8700  138.1290 N   0  0  0  0  0  2  0  0  0  0  0  0
  1 26  1  0  0  0  0
  3  7  1  6  0  0  0
  3  6  1  0  0  0  0
  3 16  1  0  0  0  0
  4 23  2  0  0  0  0
  5 11  1  6  0  0  0
  5 15  1  0  0  0  0
  6  7  1  6  0  0  0
  9 27  1  1  0  0  0
 10 17  1  0  0  0  0
 11 20  1  0  0  0  0
 12  8  1  0  0  0  0
 13 24  1  6  0  0  0
 13  9  1  0  0  0  0
 13 20  1  0  0  0  0
 14  2  1  0  0  0  0
 15  4  1  0  0  0  0
 15 12  1  1  0  0  0
 16  8  1  0  0  0  0
 17 25  1  0  0  0  0
 17 28  1  1  0  0  0
 18  1  2  0  0  0  0
 18  4  1  0  0  0  0
 19  5  1  0  0  0  0
 19  3  1  0  0  0  0
 19  6  1  0  0  0  0
 20 18  1  0  0  0  0
 22 10  1  0  0  0  0
 22 24  1  0  0  0  0
 23 21  1  0  0  0  0
 25  9  1  0  0  0  0
 25 14  1  0  0  0  0
 26 21  2  0  0  0  0
 27  2  1  0  0  0  0
 27  1  1  0  0  0  0
 29 32  1  0  0  0  0
 29 28  1  0  0  0  0
 30 34  1  0  0  0  0
 31 33  1  0  0  0  0
 31 32  2  0  0  0  0
 32 34  1  0  0  0  0
 33 30  1  0  0  0  0
M  END
>  <MODEL>
4

>  <REMARK>
 VINA RESULT:      -6.2      3.733      7.725
  Name = 
  3 active torsions:
  status: ('A' for Active; 'I' for Inactive)
    1  A    between atoms: C_17  and  O_28
    2  A    between atoms: O_28  and  C_29
    3  A    between atoms: C_29  and  C_32
                            x       y       z     vdW  Elec       q    Type
                         _______ _______ _______ _____ _____    ______ ____

>  <TORSDO>
F 3

$$$$
=
 OpenBabel11122412073D

 34 42  0  0  1  0  0  0  0  0999 V2000
  189.4970  177.6780  139.0100 C   0  0  0  0  0  0  0  0  0  0  0  0
  188.4310  178.2710  136.7810 C   0  0  0  0  0  2  0  0  0  0  0  0
  190.3470  178.6270  144.7080 C   0  0  2  0  0  0  0  0  0  0  0  0
  190.1240  176.6600  141.1190 C   0  0  0  0  0  0  0  0  0  0  0  0
  188.7380  177.1520  143.2310 C   0  0  1  0  0  3  0  0  0  0  0  0
  190.5810  178.9840  143.2430 C   0  0  2  0  0  3  0  0  0  0  0  0
  191.3050  179.7400  144.3380 C   0  0  0  0  0  2  0  0  0  0  0  0
  191.7860  176.5630  144.0010 C   0  0  0  0  0  2  0  0  0  0  0  0
  187.3560  178.9990  138.7550 C   0  0  2  0  0  3  0  0  0  0  0  0
  184.1740  178.2980  138.6590 C   0  0  0  0  0  2  0  0  0  0  0  0
  187.5540  177.3260  142.2820 C   0  0  0  0  0  2  0  0  0  0  0  0
  190.8310  175.5720  143.3670 C   0  0  0  0  0  2  0  0  0  0  0  0
  186.8460  178.2290  139.9930 C   0  0  1  0  0  3  0  0  0  0  0  0
  187.1810  178.7920  136.3790 O   0  0  0  0  0  0  0  0  0  0  0  0
  189.7520  176.2390  142.5160 C   0  0  2  0  0  3  0  0  0  0  0  0
  191.0700  177.3250  145.1130 C   0  0  0  0  0  2  0  0  0  0  0  0
  185.2530  177.9820  137.6060 C   0  0  1  0  0  3  0  0  0  0  0  0
  189.2160  177.4280  140.3630 C   0  0  0  0  0  0  0  0  0  0  0  0
  189.1970  178.5570  143.7060 C   0  0  2  0  0  3  0  0  0  0  0  0
  187.9930  178.0620  141.0030 C   0  0  2  0  0  3  0  0  0  0  0  0
  191.5360  176.4050  139.2220 C   0  0  0  0  0  3  0  0  0  0  0  0
  184.5630  179.3810  139.6670 C   0  0  0  0  0  2  0  0  0  0  0  0
  191.2450  176.1610  140.5280 N   0  0  0  0  0  0  0  0  0  0  0  0
  185.6470  178.9290  140.6490 C   0  0  0  0  0  2  0  0  0  0  0  0
  186.4130  179.0020  137.5480 C   0  0  1  0  0  3  0  0  0  0  0  0
  190.6640  177.1610  138.4380 C   0  0  0  0  0  3  0  0  0  0  0  0
  188.5480  178.4030  138.2160 N   0  0  0  0  0  0  0  0  0  0  0  0
  185.7310  176.6800  137.7860 O   0  0  0  0  0  0  0  0  0  0  0  0
  185.2490  175.9570  136.6940 C   0  0  0  0  0  2  0  0  0  0  0  0
  184.5640  172.4500  137.5950 O   0  0  0  0  0  0  0  0  0  0  0  0
  186.3590  173.8340  137.1600 N   0  0  0  0  0  0  0  0  0  0  0  0
  185.2870  174.5040  137.0100 C   0  0  0  0  0  0  0  0  0  0  0  0
  185.9240  172.5570  137.5170 N   0  0  0  0  0  2  0  0  0  0  0  0
  184.1510  173.7120  137.2800 N   0  0  0  0  0  2  0  0  0  0  0  0
  1 18  1  0  0  0  0
  2 27  1  0  0  0  0
  3  7  1  1  0  0  0
  3 16  1  0  0  0  0
  4 15  1  0  0  0  0
  5 11  1  6  0  0  0
  5 19  1  0  0  0  0
  6 19  1  0  0  0  0
  6  7  1  1  0  0  0
  6  3  1  0  0  0  0
  8 16  1  0  0  0  0
  9 27  1  6  0  0  0
  9 13  1  0  0  0  0
 10 22  1  0  0  0  0
 12  8  1  0  0  0  0
 13 24  1  1  0  0  0
 13 20  1  0  0  0  0
 14  2  1  0  0  0  0
 14 25  1  0  0  0  0
 15  5  1  0  0  0  0
 15 12  1  1  0  0  0
 17 28  1  1  0  0  0
 17 10  1  0  0  0  0
 18 20  1  0  0  0  0
 18  4  2  0  0  0  0
 19  3  1  0  0  0  0
 20 11  1  0  0  0  0
 21 23  2  0  0  0  0
 22 24  1  0  0  0  0
 23  4  1  0  0  0  0
 25 17  1  0  0  0  0
 25  9  1  0  0  0  0
 26  1  2  0  0  0  0
 26 21  1  0  0  0  0
 27  1  1  0  0  0  0
 29 32  1  0  0  0  0
 29 28  1  0  0  0  0
 31 33  1  0  0  0  0
 32 31  2  0  0  0  0
 32 34  1  0  0  0  0
 33 30  1  0  0  0  0
 34 30  1  0  0  0  0
M  END
>  <MODEL>
5

>  <REMARK>
 VINA RESULT:      -6.1      1.978      2.712
  Name = 
  3 active torsions:
  status: ('A' for Active; 'I' for Inactive)
    1  A    between atoms: C_17  and  O_28
    2  A    between atoms: O_28  and  C_29
    3  A    between atoms: C_29  and  C_32
                            x       y       z     vdW  Elec       q    Type
                         _______ _______ _______ _____ _____    ______ ____

>  <TORSDO>
F 3

$$$$
=
 OpenBabel11122412073D

 34 42  0  0  1  0  0  0  0  0999 V2000
  183.8460  178.2620  139.4610 C   0  0  0  0  0  0  0  0  0  0  0  0
  181.7270  179.0660  140.6110 C   0  0  0  0  0  2  0  0  0  0  0  0
  186.6900  174.5930  135.9190 C   0  0  2  0  0  0  0  0  0  0  0  0
  185.7870  177.9850  138.0360 C   0  0  0  0  0  0  0  0  0  0  0  0
  185.5120  176.9400  135.7000 C   0  0  1  0  0  3  0  0  0  0  0  0
  186.0060  174.9110  137.2460 C   0  0  2  0  0  3  0  0  0  0  0  0
  186.6940  173.5760  137.0420 C   0  0  0  0  0  2  0  0  0  0  0  0
  188.4160  176.3050  136.8780 C   0  0  0  0  0  2  0  0  0  0  0  0
  181.5050  177.8060  138.6240 C   0  0  2  0  0  3  0  0  0  0  0  0
  179.4340  179.2570  136.5660 C   0  0  0  0  0  2  0  0  0  0  0  0
  184.1050  177.5360  135.7190 C   0  0  0  0  0  2  0  0  0  0  0  0
  187.8870  177.6830  136.5390 C   0  0  0  0  0  2  0  0  0  0  0  0
  182.0760  178.0140  137.2040 C   0  0  1  0  0  3  0  0  0  0  0  0
  180.3610  179.1290  140.2550 O   0  0  0  0  0  0  0  0  0  0  0  0
  186.3680  177.7880  136.6610 C   0  0  2  0  0  3  0  0  0  0  0  0
  188.0400  175.3250  135.7700 C   0  0  0  0  0  2  0  0  0  0  0  0
  179.8940  179.7380  137.9550 C   0  0  1  0  0  3  0  0  0  0  0  0
  184.3910  177.9170  138.2140 C   0  0  0  0  0  0  0  0  0  0  0  0
  185.4010  175.4110  135.9440 C   0  0  2  0  0  3  0  0  0  0  0  0
  183.4790  177.3940  137.1180 C   0  0  2  0  0  3  0  0  0  0  0  0
  186.0690  178.7220  140.2800 C   0  0  0  0  0  3  0  0  0  0  0  0
  179.6760  177.7710  136.2930 C   0  0  0  0  0  2  0  0  0  0  0  0
  186.5820  178.3970  139.0630 N   0  0  0  0  0  0  0  0  0  0  0  0
  181.1560  177.4210  136.1260 C   0  0  0  0  0  2  0  0  0  0  0  0
  180.2380  178.6050  138.9470 C   0  0  1  0  0  3  0  0  0  0  0  0
  184.6920  178.6680  140.4980 C   0  0  0  0  0  3  0  0  0  0  0  0
  182.4230  178.2570  139.6340 N   0  0  0  0  0  0  0  0  0  0  0  0
  180.9570  180.6360  137.8230 O   0  0  0  0  0  0  0  0  0  0  0  0
  180.4390  181.8770  138.1960 C   0  0  0  0  0  2  0  0  0  0  0  0
  181.5370  184.8100  136.2530 O   0  0  0  0  0  0  0  0  0  0  0  0
  180.4410  182.8040  135.9390 N   0  0  0  0  0  0  0  0  0  0  0  0
  180.7860  182.8880  137.1610 C   0  0  0  0  0  0  0  0  0  0  0  0
  180.9070  183.9870  135.3640 N   0  0  0  0  0  2  0  0  0  0  0  0
  181.4480  184.1070  137.4190 N   0  0  0  0  0  2  0  0  0  0  0  0
  1 27  1  0  0  0  0
  1 26  1  0  0  0  0
  3 16  1  6  0  0  0
  3 19  1  0  0  0  0
  3  7  1  0  0  0  0
  3  6  1  0  0  0  0
  4 18  1  0  0  0  0
  4 23  2  0  0  0  0
  5 11  1  1  0  0  0
  5 19  1  0  0  0  0
  5 15  1  0  0  0  0
  6  7  1  6  0  0  0
  9 25  1  0  0  0  0
  9 27  1  1  0  0  0
 10 17  1  0  0  0  0
 11 20  1  0  0  0  0
 12  8  1  0  0  0  0
 13 24  1  6  0  0  0
 13  9  1  0  0  0  0
 14  2  1  0  0  0  0
 15 12  1  1  0  0  0
 15  4  1  0  0  0  0
 16  8  1  0  0  0  0
 17 28  1  6  0  0  0
 17 25  1  0  0  0  0
 18  1  2  0  0  0  0
 19  6  1  0  0  0  0
 20 13  1  0  0  0  0
 20 18  1  0  0  0  0
 21 26  2  0  0  0  0
 22 10  1  0  0  0  0
 23 21  1  0  0  0  0
 24 22  1  0  0  0  0
 25 14  1  0  0  0  0
 27  2  1  0  0  0  0
 28 29  1  0  0  0  0
 30 34  1  0  0  0  0
 31 32  2  0  0  0  0
 32 34  1  0  0  0  0
 32 29  1  0  0  0  0
 33 31  1  0  0  0  0
 33 30  1  0  0  0  0
M  END
>  <MODEL>
6

>  <REMARK>
 VINA RESULT:      -5.9      4.028      7.055
  Name = 
  3 active torsions:
  status: ('A' for Active; 'I' for Inactive)
    1  A    between atoms: C_17  and  O_28
    2  A    between atoms: O_28  and  C_29
    3  A    between atoms: C_29  and  C_32
                            x       y       z     vdW  Elec       q    Type
                         _______ _______ _______ _____ _____    ______ ____

>  <TORSDO>
F 3

$$$$
