=
 OpenBabel11122410433D

 32 37  0  0  1  0  0  0  0  0999 V2000
  190.8750  177.2340  142.0850 C   0  0  0  0  0  2  0  0  0  0  0  0
  186.1680  178.8830  141.1180 C   0  0  1  0  0  3  0  0  0  0  0  0
  184.7750  178.8640  145.8680 C   0  0  0  0  0  3  0  0  0  0  0  0
  183.4340  178.8520  145.4830 C   0  0  0  0  0  3  0  0  0  0  0  0
  184.4340  178.3870  139.2710 C   0  0  1  0  0  3  0  0  0  0  0  0
  183.1180  177.6920  139.0690 C   0  0  0  0  0  0  0  0  0  0  0  0
  188.5830  178.2160  140.8460 C   0  0  1  0  0  3  0  0  0  0  0  0
  187.1010  177.1830  142.6040 O   0  0  0  0  0  0  0  0  0  0  0  0
  181.1160  176.7340  139.5200 C   0  0  0  0  0  0  0  0  0  0  0  0
  189.5530  176.9070  142.8060 C   0  0  2  0  0  3  0  0  0  0  0  0
  185.7790  178.7560  144.9040 C   0  0  0  0  0  3  0  0  0  0  0  0
  186.5730  178.4930  142.5600 C   0  0  2  0  0  3  0  0  0  0  0  0
  185.4510  178.6330  143.5490 C   0  0  0  0  0  0  0  0  0  0  0  0
  183.7030  178.5630  141.6960 C   0  0  2  0  0  3  0  0  0  0  0  0
  181.0520  177.2170  138.3220 N   0  0  0  0  0  0  0  0  0  0  0  0
  190.7910  176.9570  140.5780 C   0  0  0  0  0  2  0  0  0  0  0  0
  188.3330  177.1170  141.8940 C   0  0  2  0  0  3  0  0  0  0  0  0
  182.3000  177.8400  138.0390 C   0  0  0  0  0  3  0  0  0  0  0  0
  189.7040  177.8040  139.8900 C   0  0  0  0  0  2  0  0  0  0  0  0
  183.0970  178.7270  144.1340 C   0  0  0  0  0  3  0  0  0  0  0  0
  184.0940  178.5910  143.1550 C   0  0  0  0  0  0  0  0  0  0  0  0
  182.4070  177.7500  141.4380 C   0  0  0  0  0  2  0  0  0  0  0  0
  187.2840  178.5270  140.1190 C   0  0  0  0  0  2  0  0  0  0  0  0
  184.2830  180.1320  138.8890 Cl  0  0  0  0  0  0  0  0  0  0  0  0
  179.9900  175.9840  140.1380 C   0  0  0  0  0  1  0  0  0  0  0  0
  184.8590  178.1800  140.7410 C   0  0  2  0  0  3  0  0  0  0  0  0
  182.4530  176.9150  140.1510 C   0  0  2  0  0  3  0  0  0  0  0  0
  189.4430  177.6890  143.9620 O   0  0  0  0  0  0  0  0  0  0  0  0
  190.6270  177.5380  144.6080 N   0  0  0  0  0  2  0  0  0  0  0  0
  190.6880  177.1370  145.9770 C   0  0  0  0  0  0  0  0  0  0  0  0
  191.8040  177.0130  146.5410 O   0  0  0  0  0  0  0  0  0  0  0  0
  189.4950  176.8730  146.7070 N   0  0  0  0  0  1  0  0  0  0  0  0
  1 10  1  0  0  0  0
  2 23  1  6  0  0  0
  2 12  1  0  0  0  0
  4  3  1  0  0  0  0
  5 24  1  1  0  0  0
  5 26  1  0  0  0  0
  6  5  1  0  0  0  0
  6 27  1  0  0  0  0
  7 19  1  6  0  0  0
  7 17  1  0  0  0  0
  9 25  1  0  0  0  0
  9 27  1  0  0  0  0
 10 28  1  1  0  0  0
 11  3  2  0  0  0  0
 12  8  1  6  0  0  0
 12 13  1  0  0  0  0
 13 11  1  0  0  0  0
 14 22  1  1  0  0  0
 14 21  1  0  0  0  0
 15  9  2  0  0  0  0
 16  1  1  0  0  0  0
 17  8  1  1  0  0  0
 17 10  1  0  0  0  0
 18 15  1  0  0  0  0
 18  6  2  0  0  0  0
 19 16  1  0  0  0  0
 20  4  2  0  0  0  0
 21 13  2  0  0  0  0
 21 20  1  0  0  0  0
 23  7  1  0  0  0  0
 26  2  1  0  0  0  0
 26 14  1  0  0  0  0
 27 22  1  0  0  0  0
 28 29  1  0  0  0  0
 29 30  1  0  0  0  0
 30 31  2  0  0  0  0
 30 32  1  0  0  0  0
M  END
>  <MODEL>
1

>  <REMARK>
 VINA RESULT:      -9.5      0.000      0.000
  Name = 
  2 active torsions:
  status: ('A' for Active; 'I' for Inactive)
    1  A    between atoms: C_10  and  O_20
    2  A    between atoms: O_20  and  N_29
                            x       y       z     vdW  Elec       q    Type
                         _______ _______ _______ _____ _____    ______ ____

>  <TORSDO>
F 2

$$$$
=
 OpenBabel11122410433D

 32 37  0  0  1  0  0  0  0  0999 V2000
  190.5070  176.9550  144.7720 C   0  0  0  0  0  2  0  0  0  0  0  0
  188.4780  178.4720  140.3690 C   0  0  1  0  0  3  0  0  0  0  0  0
  183.9420  179.1170  142.2410 C   0  0  0  0  0  3  0  0  0  0  0  0
  183.3950  179.0570  140.9580 C   0  0  0  0  0  3  0  0  0  0  0  0
  188.7590  177.7320  137.9110 C   0  0  1  0  0  3  0  0  0  0  0  0
  188.0120  177.0210  136.8200 C   0  0  0  0  0  0  0  0  0  0  0  0
  190.1310  177.7640  142.1340 C   0  0  1  0  0  3  0  0  0  0  0  0
  187.7320  176.9910  142.1620 O   0  0  0  0  0  0  0  0  0  0  0  0
  186.3020  176.1430  135.6220 C   0  0  0  0  0  0  0  0  0  0  0  0
  189.0850  176.7350  144.2190 C   0  0  2  0  0  3  0  0  0  0  0  0
  185.3030  178.8730  142.4310 C   0  0  0  0  0  3  0  0  0  0  0  0
  187.5780  178.2840  141.6130 C   0  0  2  0  0  3  0  0  0  0  0  0
  186.1280  178.5640  141.3430 C   0  0  0  0  0  0  0  0  0  0  0  0
  186.4510  178.2460  138.8350 C   0  0  2  0  0  3  0  0  0  0  0  0
  187.2380  176.4550  134.7860 N   0  0  0  0  0  0  0  0  0  0  0  0
  191.5850  176.4720  143.7920 C   0  0  0  0  0  2  0  0  0  0  0  0
  189.0450  176.8220  142.6840 C   0  0  2  0  0  3  0  0  0  0  0  0
  188.3080  177.0290  135.5290 C   0  0  0  0  0  3  0  0  0  0  0  0
  191.5260  177.2200  142.4470 C   0  0  0  0  0  2  0  0  0  0  0  0
  184.2100  178.7480  139.8670 C   0  0  0  0  0  3  0  0  0  0  0  0
  185.5750  178.4730  140.0450 C   0  0  0  0  0  0  0  0  0  0  0  0
  185.7460  177.4090  137.7350 C   0  0  0  0  0  2  0  0  0  0  0  0
  189.9100  177.9770  140.6460 C   0  0  0  0  0  2  0  0  0  0  0  0
  189.1510  179.4080  137.4100 Cl  0  0  0  0  0  0  0  0  0  0  0  0
  185.0360  175.4900  135.1920 C   0  0  0  0  0  1  0  0  0  0  0  0
  187.8700  177.7300  139.1730 C   0  0  2  0  0  3  0  0  0  0  0  0
  186.6750  176.4050  137.0400 C   0  0  2  0  0  3  0  0  0  0  0  0
  188.2110  177.6710  144.7870 O   0  0  0  0  0  0  0  0  0  0  0  0
  188.4420  177.6080  146.1220 N   0  0  0  0  0  2  0  0  0  0  0  0
  187.4160  177.8880  147.0750 C   0  0  0  0  0  0  0  0  0  0  0  0
  187.6710  177.8250  148.3040 O   0  0  0  0  0  0  0  0  0  0  0  0
  186.1050  178.2370  146.6430 N   0  0  0  0  0  1  0  0  0  0  0  0
  2 23  1  1  0  0  0
  2 12  1  0  0  0  0
  3 11  1  0  0  0  0
  4  3  2  0  0  0  0
  5 24  1  6  0  0  0
  5 26  1  0  0  0  0
  6 27  1  0  0  0  0
  6  5  1  0  0  0  0
  7 23  1  6  0  0  0
  7 19  1  0  0  0  0
  7 17  1  0  0  0  0
  9 27  1  0  0  0  0
 10  1  1  0  0  0  0
 10 28  1  1  0  0  0
 12 13  1  6  0  0  0
 12  8  1  0  0  0  0
 13 11  2  0  0  0  0
 14 22  1  6  0  0  0
 14 26  1  0  0  0  0
 14 21  1  0  0  0  0
 15 18  1  0  0  0  0
 15  9  2  0  0  0  0
 16  1  1  0  0  0  0
 17  8  1  1  0  0  0
 17 10  1  0  0  0  0
 18  6  2  0  0  0  0
 19 16  1  0  0  0  0
 20 21  2  0  0  0  0
 20  4  1  0  0  0  0
 21 13  1  0  0  0  0
 25  9  1  0  0  0  0
 26  2  1  0  0  0  0
 27 22  1  0  0  0  0
 28 29  1  0  0  0  0
 29 30  1  0  0  0  0
 30 31  2  0  0  0  0
 32 30  1  0  0  0  0
M  END
>  <MODEL>
2

>  <REMARK>
 VINA RESULT:      -8.8      2.779      4.071
  Name = 
  2 active torsions:
  status: ('A' for Active; 'I' for Inactive)
    1  A    between atoms: C_10  and  O_20
    2  A    between atoms: O_20  and  N_29
                            x       y       z     vdW  Elec       q    Type
                         _______ _______ _______ _____ _____    ______ ____

>  <TORSDO>
F 2

$$$$
=
 OpenBabel11122410433D

 32 37  0  0  1  0  0  0  0  0999 V2000
  189.4280  177.3010  146.0720 C   0  0  0  0  0  2  0  0  0  0  0  0
  190.2410  177.6780  141.0720 C   0  0  1  0  0  3  0  0  0  0  0  0
  185.5620  178.9010  140.0160 C   0  0  0  0  0  3  0  0  0  0  0  0
  185.7560  178.5260  138.6860 C   0  0  0  0  0  3  0  0  0  0  0  0
  191.6270  176.3190  139.3690 C   0  0  1  0  0  3  0  0  0  0  0  0
  191.4490  175.3700  138.2200 C   0  0  0  0  0  0  0  0  0  0  0  0
  190.6040  177.4100  143.5510 C   0  0  1  0  0  3  0  0  0  0  0  0
  188.4480  176.7320  142.4350 O   0  0  0  0  0  0  0  0  0  0  0  0
  190.4880  174.2560  136.4980 C   0  0  0  0  0  0  0  0  0  0  0  0
  188.4820  176.9830  144.8970 C   0  0  2  0  0  3  0  0  0  0  0  0
  186.5690  178.6800  140.9570 C   0  0  0  0  0  3  0  0  0  0  0  0
  188.8110  177.8420  141.6400 C   0  0  2  0  0  3  0  0  0  0  0  0
  187.7760  178.0790  140.5780 C   0  0  0  0  0  0  0  0  0  0  0  0
  189.2910  177.1140  138.7710 C   0  0  2  0  0  3  0  0  0  0  0  0
  191.7570  174.3160  136.2580 N   0  0  0  0  0  0  0  0  0  0  0  0
  190.7630  176.5540  145.9540 C   0  0  0  0  0  2  0  0  0  0  0  0
  189.2550  176.6700  143.6050 C   0  0  2  0  0  3  0  0  0  0  0  0
  192.3660  175.0350  137.3260 C   0  0  0  0  0  3  0  0  0  0  0  0
  191.5280  176.9300  144.6710 C   0  0  0  0  0  2  0  0  0  0  0  0
  186.9550  177.9230  138.2990 C   0  0  0  0  0  3  0  0  0  0  0  0
  187.9670  177.6690  139.2390 C   0  0  0  0  0  0  0  0  0  0  0  0
  189.1320  176.0390  137.6630 C   0  0  0  0  0  2  0  0  0  0  0  0
  191.2220  177.2350  142.1730 C   0  0  0  0  0  2  0  0  0  0  0  0
  192.4850  177.7980  138.8290 Cl  0  0  0  0  0  0  0  0  0  0  0  0
  189.5400  173.5460  135.5970 C   0  0  0  0  0  1  0  0  0  0  0  0
  190.2270  176.6670  139.9200 C   0  0  2  0  0  3  0  0  0  0  0  0
  190.1110  174.8660  137.8040 C   0  0  2  0  0  3  0  0  0  0  0  0
  187.6050  178.0550  144.6970 O   0  0  0  0  0  0  0  0  0  0  0  0
  186.9360  178.1910  145.8700 N   0  0  0  0  0  2  0  0  0  0  0  0
  185.6150  178.7300  145.9210 C   0  0  0  0  0  0  0  0  0  0  0  0
  185.0300  178.8450  147.0280 O   0  0  0  0  0  0  0  0  0  0  0  0
  184.9530  179.1370  144.7280 N   0  0  0  0  0  1  0  0  0  0  0  0
  2 12  1  0  0  0  0
  2 23  1  1  0  0  0
  3 11  1  0  0  0  0
  4  3  2  0  0  0  0
  5 24  1  6  0  0  0
  5 26  1  0  0  0  0
  6  5  1  0  0  0  0
  7 23  1  6  0  0  0
  7 17  1  0  0  0  0
  7 19  1  0  0  0  0
  9 27  1  0  0  0  0
 10 28  1  6  0  0  0
 10  1  1  0  0  0  0
 12 13  1  6  0  0  0
 12  8  1  0  0  0  0
 13 11  2  0  0  0  0
 14 22  1  6  0  0  0
 14 21  1  0  0  0  0
 14 26  1  0  0  0  0
 15  9  2  0  0  0  0
 15 18  1  0  0  0  0
 16  1  1  0  0  0  0
 17  8  1  6  0  0  0
 17 10  1  0  0  0  0
 18  6  2  0  0  0  0
 19 16  1  0  0  0  0
 20  4  1  0  0  0  0
 20 21  2  0  0  0  0
 21 13  1  0  0  0  0
 22 27  1  0  0  0  0
 25  9  1  0  0  0  0
 26  2  1  0  0  0  0
 27  6  1  0  0  0  0
 28 29  1  0  0  0  0
 29 30  1  0  0  0  0
 30 31  2  0  0  0  0
 32 30  1  0  0  0  0
M  END
>  <MODEL>
3

>  <REMARK>
 VINA RESULT:      -8.3      3.369      6.459
  Name = 
  2 active torsions:
  status: ('A' for Active; 'I' for Inactive)
    1  A    between atoms: C_10  and  O_20
    2  A    between atoms: O_20  and  N_29
                            x       y       z     vdW  Elec       q    Type
                         _______ _______ _______ _____ _____    ______ ____

>  <TORSDO>
F 2

$$$$
=
 OpenBabel11122410433D

 32 37  0  0  1  0  0  0  0  0999 V2000
  189.4010  177.8480  144.4350 C   0  0  0  0  0  2  0  0  0  0  0  0
  190.7660  177.2460  139.5790 C   0  0  1  0  0  3  0  0  0  0  0  0
  186.2440  178.1760  137.7940 C   0  0  0  0  0  3  0  0  0  0  0  0
  186.5800  177.5490  136.5940 C   0  0  0  0  0  3  0  0  0  0  0  0
  192.3210  175.5980  138.3400 C   0  0  1  0  0  3  0  0  0  0  0  0
  192.2620  174.4390  137.3880 C   0  0  0  0  0  0  0  0  0  0  0  0
  190.8500  177.4750  142.0870 C   0  0  1  0  0  3  0  0  0  0  0  0
  188.8250  176.5620  140.8950 O   0  0  0  0  0  0  0  0  0  0  0  0
  191.4880  172.9960  135.8240 C   0  0  0  0  0  0  0  0  0  0  0  0
  188.5890  177.2930  143.2490 C   0  0  2  0  0  3  0  0  0  0  0  0
  187.1390  178.1570  138.8650 C   0  0  0  0  0  3  0  0  0  0  0  0
  189.2830  177.4990  139.9420 C   0  0  2  0  0  3  0  0  0  0  0  0
  188.3740  177.5100  138.7480 C   0  0  0  0  0  0  0  0  0  0  0  0
  190.0720  176.2280  137.3430 C   0  0  2  0  0  3  0  0  0  0  0  0
  192.7760  173.0250  135.7180 N   0  0  0  0  0  0  0  0  0  0  0  0
  190.7350  177.1100  144.6140 C   0  0  0  0  0  2  0  0  0  0  0  0
  189.4970  176.7430  142.1370 C   0  0  2  0  0  3  0  0  0  0  0  0
  193.2690  173.9480  136.6830 C   0  0  0  0  0  3  0  0  0  0  0  0
  191.6410  177.2370  143.3750 C   0  0  0  0  0  2  0  0  0  0  0  0
  187.8090  176.8980  136.4670 C   0  0  0  0  0  3  0  0  0  0  0  0
  188.7080  176.8470  137.5440 C   0  0  0  0  0  0  0  0  0  0  0  0
  190.0270  174.9550  136.4580 C   0  0  0  0  0  2  0  0  0  0  0  0
  191.6150  177.0410  140.8470 C   0  0  0  0  0  2  0  0  0  0  0  0
  193.2460  176.9530  137.6180 Cl  0  0  0  0  0  0  0  0  0  0  0  0
  190.6390  172.1100  134.9800 C   0  0  0  0  0  1  0  0  0  0  0  0
  190.8710  176.0280  138.6540 C   0  0  2  0  0  3  0  0  0  0  0  0
  190.9740  173.8450  136.9340 C   0  0  2  0  0  3  0  0  0  0  0  0
  187.7480  178.2930  142.7460 O   0  0  0  0  0  0  0  0  0  0  0  0
  186.5130  177.9890  143.2170 N   0  0  0  0  0  2  0  0  0  0  0  0
  185.3350  178.5800  142.6670 C   0  0  0  0  0  0  0  0  0  0  0  0
  184.2080  178.2760  143.1330 O   0  0  0  0  0  0  0  0  0  0  0  0
  185.4270  179.5090  141.5920 N   0  0  0  0  0  1  0  0  0  0  0  0
  1 16  1  0  0  0  0
  2 12  1  0  0  0  0
  2 23  1  1  0  0  0
  3 11  1  0  0  0  0
  4  3  2  0  0  0  0
  5 24  1  6  0  0  0
  5 26  1  0  0  0  0
  6  5  1  0  0  0  0
  7 23  1  6  0  0  0
  7 17  1  0  0  0  0
  7 19  1  0  0  0  0
  9 27  1  0  0  0  0
 10 28  1  6  0  0  0
 10  1  1  0  0  0  0
 12 13  1  6  0  0  0
 12  8  1  0  0  0  0
 13 11  2  0  0  0  0
 14 22  1  1  0  0  0
 14 21  1  0  0  0  0
 14 26  1  0  0  0  0
 15  9  2  0  0  0  0
 15 18  1  0  0  0  0
 17  8  1  6  0  0  0
 17 10  1  0  0  0  0
 18  6  2  0  0  0  0
 19 16  1  0  0  0  0
 20  4  1  0  0  0  0
 20 21  2  0  0  0  0
 21 13  1  0  0  0  0
 22 27  1  0  0  0  0
 25  9  1  0  0  0  0
 26  2  1  0  0  0  0
 27  6  1  0  0  0  0
 28 29  1  0  0  0  0
 30 31  2  0  0  0  0
 30 29  1  0  0  0  0
 32 30  1  0  0  0  0
M  END
>  <MODEL>
4

>  <REMARK>
 VINA RESULT:      -8.2      4.090      7.538
  Name = 
  2 active torsions:
  status: ('A' for Active; 'I' for Inactive)
    1  A    between atoms: C_10  and  O_20
    2  A    between atoms: O_20  and  N_29
                            x       y       z     vdW  Elec       q    Type
                         _______ _______ _______ _____ _____    ______ ____

>  <TORSDO>
F 2

$$$$
=
 OpenBabel11122410433D

 32 37  0  0  1  0  0  0  0  0999 V2000
  189.2200  177.8400  143.7980 C   0  0  0  0  0  2  0  0  0  0  0  0
  185.0610  179.0090  141.1240 C   0  0  1  0  0  3  0  0  0  0  0  0
  182.0750  179.0660  145.0710 C   0  0  0  0  0  3  0  0  0  0  0  0
  180.9620  178.9160  144.2420 C   0  0  0  0  0  3  0  0  0  0  0  0
  184.1370  178.2780  138.8270 C   0  0  1  0  0  3  0  0  0  0  0  0
  183.0320  177.4580  138.2270 C   0  0  0  0  0  0  0  0  0  0  0  0
  187.4550  178.5540  141.7660 C   0  0  1  0  0  3  0  0  0  0  0  0
  185.5220  177.4670  142.9620 O   0  0  0  0  0  0  0  0  0  0  0  0
  181.0730  176.3420  138.0150 C   0  0  0  0  0  0  0  0  0  0  0  0
  187.7540  177.4250  144.0310 C   0  0  2  0  0  3  0  0  0  0  0  0
  183.3600  179.0100  144.5310 C   0  0  0  0  0  3  0  0  0  0  0  0
  184.9530  178.7200  142.6410 C   0  0  2  0  0  3  0  0  0  0  0  0
  183.5460  178.7990  143.1600 C   0  0  0  0  0  0  0  0  0  0  0  0
  182.5810  178.4910  140.8210 C   0  0  2  0  0  3  0  0  0  0  0  0
  181.4060  176.7640  136.8390 N   0  0  0  0  0  0  0  0  0  0  0  0
  189.6970  177.4930  142.3820 C   0  0  0  0  0  2  0  0  0  0  0  0
  186.9270  177.4830  142.7370 C   0  0  2  0  0  3  0  0  0  0  0  0
  182.6260  177.4870  136.9680 C   0  0  0  0  0  3  0  0  0  0  0  0
  188.8700  178.2070  141.2970 C   0  0  0  0  0  2  0  0  0  0  0  0
  181.1380  178.7030  142.8730 C   0  0  0  0  0  3  0  0  0  0  0  0
  182.4250  178.6160  142.3190 C   0  0  0  0  0  0  0  0  0  0  0  0
  181.5220  177.5520  140.1850 C   0  0  0  0  0  2  0  0  0  0  0  0
  186.4820  178.7140  140.6090 C   0  0  0  0  0  2  0  0  0  0  0  0
  184.0100  179.9840  138.2910 Cl  0  0  0  0  0  0  0  0  0  0  0  0
  179.8560  175.5190  138.2510 C   0  0  0  0  0  1  0  0  0  0  0  0
  184.0250  178.1750  140.3630 C   0  0  2  0  0  3  0  0  0  0  0  0
  182.0820  176.6710  139.0600 C   0  0  2  0  0  3  0  0  0  0  0  0
  187.1860  178.2420  145.0150 O   0  0  0  0  0  0  0  0  0  0  0  0
  187.6670  177.7700  146.1920 N   0  0  0  0  0  2  0  0  0  0  0  0
  187.1470  178.2130  147.4460 C   0  0  0  0  0  0  0  0  0  0  0  0
  187.6230  177.7550  148.5160 O   0  0  0  0  0  0  0  0  0  0  0  0
  186.0920  179.1680  147.4950 N   0  0  0  0  0  1  0  0  0  0  0  0
  1 10  1  0  0  0  0
  2 23  1  6  0  0  0
  2 12  1  0  0  0  0
  4  3  2  0  0  0  0
  5 24  1  1  0  0  0
  5 26  1  0  0  0  0
  6  5  1  0  0  0  0
  6 27  1  0  0  0  0
  7 23  1  6  0  0  0
  7 17  1  0  0  0  0
  9 25  1  0  0  0  0
  9 27  1  0  0  0  0
 10 28  1  1  0  0  0
 11  3  1  0  0  0  0
 12  8  1  6  0  0  0
 12 13  1  0  0  0  0
 13 11  2  0  0  0  0
 14 22  1  1  0  0  0
 14 21  1  0  0  0  0
 15 18  1  0  0  0  0
 15  9  2  0  0  0  0
 16  1  1  0  0  0  0
 17  8  1  1  0  0  0
 17 10  1  0  0  0  0
 18  6  2  0  0  0  0
 19  7  1  0  0  0  0
 19 16  1  0  0  0  0
 20  4  1  0  0  0  0
 21 20  2  0  0  0  0
 21 13  1  0  0  0  0
 26 14  1  0  0  0  0
 26  2  1  0  0  0  0
 27 22  1  0  0  0  0
 28 29  1  0  0  0  0
 29 30  1  0  0  0  0
 30 32  1  0  0  0  0
 30 31  2  0  0  0  0
M  END
>  <MODEL>
5

>  <REMARK>
 VINA RESULT:      -7.4      1.795      2.215
  Name = 
  2 active torsions:
  status: ('A' for Active; 'I' for Inactive)
    1  A    between atoms: C_10  and  O_20
    2  A    between atoms: O_20  and  N_29
                            x       y       z     vdW  Elec       q    Type
                         _______ _______ _______ _____ _____    ______ ____

>  <TORSDO>
F 2

$$$$
=
 OpenBabel11122410433D

 32 37  0  0  1  0  0  0  0  0999 V2000
  179.6940  176.9390  139.2660 C   0  0  0  0  0  2  0  0  0  0  0  0
  183.8460  178.8850  141.4530 C   0  0  1  0  0  3  0  0  0  0  0  0
  186.7060  178.2650  137.4610 C   0  0  0  0  0  3  0  0  0  0  0  0
  187.8490  178.3580  138.2560 C   0  0  0  0  0  3  0  0  0  0  0  0
  184.8820  178.7160  143.8130 C   0  0  1  0  0  3  0  0  0  0  0  0
  186.0540  178.1070  144.5250 C   0  0  0  0  0  0  0  0  0  0  0  0
  181.4680  178.1690  141.0250 C   0  0  1  0  0  3  0  0  0  0  0  0
  183.4310  176.9620  140.0050 O   0  0  0  0  0  0  0  0  0  0  0  0
  188.0860  177.1750  144.8860 C   0  0  0  0  0  0  0  0  0  0  0  0
  181.1760  176.5660  139.0650 C   0  0  2  0  0  3  0  0  0  0  0  0
  185.4430  178.2530  138.0550 C   0  0  0  0  0  3  0  0  0  0  0  0
  183.9280  178.2850  140.0290 C   0  0  2  0  0  3  0  0  0  0  0  0
  185.3110  178.3300  139.4460 C   0  0  0  0  0  0  0  0  0  0  0  0
  186.3620  178.5850  141.7540 C   0  0  2  0  0  3  0  0  0  0  0  0
  187.7620  177.8200  145.9580 N   0  0  0  0  0  0  0  0  0  0  0  0
  179.2820  176.8760  140.7430 C   0  0  0  0  0  2  0  0  0  0  0  0
  182.0360  176.9470  140.2810 C   0  0  2  0  0  3  0  0  0  0  0  0
  186.4940  178.4280  145.7310 C   0  0  0  0  0  3  0  0  0  0  0  0
  180.0930  177.8510  141.6160 C   0  0  0  0  0  2  0  0  0  0  0  0
  187.7280  178.4330  139.6450 C   0  0  0  0  0  3  0  0  0  0  0  0
  186.4660  178.3950  140.2590 C   0  0  0  0  0  0  0  0  0  0  0  0
  187.4970  177.8650  142.5290 C   0  0  0  0  0  2  0  0  0  0  0  0
  182.4620  178.6280  142.0790 C   0  0  0  0  0  2  0  0  0  0  0  0
  184.9150  180.5020  143.9680 Cl  0  0  0  0  0  0  0  0  0  0  0  0
  189.3460  176.3900  144.7780 C   0  0  0  0  0  1  0  0  0  0  0  0
  184.9550  178.2930  142.3290 C   0  0  2  0  0  3  0  0  0  0  0  0
  187.0280  177.2150  143.8380 C   0  0  2  0  0  3  0  0  0  0  0  0
  181.6620  177.1850  137.9070 O   0  0  0  0  0  0  0  0  0  0  0  0
  180.6430  177.9650  137.4660 N   0  0  0  0  0  2  0  0  0  0  0  0
  180.7420  179.3890  137.4510 C   0  0  0  0  0  0  0  0  0  0  0  0
  179.7740  180.0780  137.0390 O   0  0  0  0  0  0  0  0  0  0  0  0
  181.9300  180.0360  137.8960 N   0  0  0  0  0  1  0  0  0  0  0  0
  1 16  1  0  0  0  0
  2 23  1  1  0  0  0
  2 26  1  0  0  0  0
  3 11  2  0  0  0  0
  3  4  1  0  0  0  0
  4 20  2  0  0  0  0
  5 24  1  6  0  0  0
  5  6  1  0  0  0  0
  6 18  2  0  0  0  0
  7 19  1  1  0  0  0
  7 23  1  0  0  0  0
  8 12  1  0  0  0  0
  9 15  2  0  0  0  0
 10 28  1  6  0  0  0
 10  1  1  0  0  0  0
 10 17  1  0  0  0  0
 11 13  1  0  0  0  0
 12 13  1  1  0  0  0
 12  2  1  0  0  0  0
 13 21  2  0  0  0  0
 14 26  1  0  0  0  0
 14 22  1  1  0  0  0
 16 19  1  0  0  0  0
 17  8  1  6  0  0  0
 17  7  1  0  0  0  0
 18 15  1  0  0  0  0
 20 21  1  0  0  0  0
 21 14  1  0  0  0  0
 22 27  1  0  0  0  0
 25  9  1  0  0  0  0
 26  5  1  0  0  0  0
 27  6  1  0  0  0  0
 27  9  1  0  0  0  0
 29 28  1  0  0  0  0
 30 29  1  0  0  0  0
 30 32  1  0  0  0  0
 31 30  2  0  0  0  0
M  END
>  <MODEL>
6

>  <REMARK>
 VINA RESULT:      -7.4      3.028      8.311
  Name = 
  2 active torsions:
  status: ('A' for Active; 'I' for Inactive)
    1  A    between atoms: C_10  and  O_20
    2  A    between atoms: O_20  and  N_29
                            x       y       z     vdW  Elec       q    Type
                         _______ _______ _______ _____ _____    ______ ____

>  <TORSDO>
F 2

$$$$
=
 OpenBabel11122410433D

 32 37  0  0  1  0  0  0  0  0999 V2000
  179.7570  176.5110  139.0640 C   0  0  0  0  0  2  0  0  0  0  0  0
  183.6260  178.7870  141.4430 C   0  0  1  0  0  3  0  0  0  0  0  0
  186.7690  178.2530  137.6560 C   0  0  0  0  0  3  0  0  0  0  0  0
  187.8510  178.4430  138.5170 C   0  0  0  0  0  3  0  0  0  0  0  0
  184.5180  178.7500  143.8660 C   0  0  1  0  0  3  0  0  0  0  0  0
  185.6800  178.2390  144.6670 C   0  0  0  0  0  0  0  0  0  0  0  0
  181.3320  177.9030  140.8900 C   0  0  1  0  0  3  0  0  0  0  0  0
  183.4310  176.8030  140.0310 O   0  0  0  0  0  0  0  0  0  0  0  0
  187.7410  177.4540  145.1820 C   0  0  0  0  0  0  0  0  0  0  0  0
  181.2700  176.2330  138.9660 C   0  0  2  0  0  3  0  0  0  0  0  0
  185.4740  178.1730  138.1710 C   0  0  0  0  0  3  0  0  0  0  0  0
  183.8380  178.1560  140.0460 C   0  0  2  0  0  3  0  0  0  0  0  0
  185.2490  178.2780  139.5480 C   0  0  0  0  0  0  0  0  0  0  0  0
  186.1330  178.6630  141.9080 C   0  0  2  0  0  3  0  0  0  0  0  0
  187.3080  178.1040  146.2120 N   0  0  0  0  0  0  0  0  0  0  0  0
  179.2570  176.4600  140.5140 C   0  0  0  0  0  2  0  0  0  0  0  0
  182.0240  176.7020  140.2210 C   0  0  2  0  0  3  0  0  0  0  0  0
  186.0210  178.6200  145.8890 C   0  0  0  0  0  3  0  0  0  0  0  0
  179.9460  177.5100  141.4050 C   0  0  0  0  0  2  0  0  0  0  0  0
  187.6370  178.5470  139.8930 C   0  0  0  0  0  3  0  0  0  0  0  0
  186.3430  178.4410  140.4280 C   0  0  0  0  0  0  0  0  0  0  0  0
  187.2600  178.0410  142.7730 C   0  0  0  0  0  2  0  0  0  0  0  0
  182.2250  178.4550  141.9890 C   0  0  0  0  0  2  0  0  0  0  0  0
  184.4260  180.5370  143.9680 Cl  0  0  0  0  0  0  0  0  0  0  0  0
  189.0540  176.7530  145.1760 C   0  0  0  0  0  1  0  0  0  0  0  0
  184.7140  178.2930  142.4040 C   0  0  2  0  0  3  0  0  0  0  0  0
  186.7520  177.3960  144.0700 C   0  0  2  0  0  3  0  0  0  0  0  0
  181.7880  176.8520  137.8220 O   0  0  0  0  0  0  0  0  0  0  0  0
  181.6170  175.9510  136.8220 N   0  0  0  0  0  2  0  0  0  0  0  0
  182.6700  175.0760  136.4140 C   0  0  0  0  0  0  0  0  0  0  0  0
  182.4740  174.2570  135.4800 O   0  0  0  0  0  0  0  0  0  0  0  0
  183.9380  175.1200  137.0600 N   0  0  0  0  0  1  0  0  0  0  0  0
  1 16  1  0  0  0  0
  2 23  1  1  0  0  0
  2 26  1  0  0  0  0
  3 11  2  0  0  0  0
  3  4  1  0  0  0  0
  4 20  2  0  0  0  0
  5 24  1  6  0  0  0
  5  6  1  0  0  0  0
  6 18  2  0  0  0  0
  7 19  1  1  0  0  0
  7 23  1  0  0  0  0
  8 12  1  0  0  0  0
  9 15  2  0  0  0  0
 10 28  1  6  0  0  0
 10  1  1  0  0  0  0
 10 17  1  0  0  0  0
 11 13  1  0  0  0  0
 12 13  1  1  0  0  0
 12  2  1  0  0  0  0
 13 21  2  0  0  0  0
 14 26  1  0  0  0  0
 14 22  1  1  0  0  0
 16 19  1  0  0  0  0
 17  8  1  6  0  0  0
 17  7  1  0  0  0  0
 18 15  1  0  0  0  0
 20 21  1  0  0  0  0
 21 14  1  0  0  0  0
 22 27  1  0  0  0  0
 25  9  1  0  0  0  0
 26  5  1  0  0  0  0
 27  6  1  0  0  0  0
 27  9  1  0  0  0  0
 29 28  1  0  0  0  0
 30 29  1  0  0  0  0
 30 32  1  0  0  0  0
 31 30  2  0  0  0  0
M  END
>  <MODEL>
7

>  <REMARK>
 VINA RESULT:      -7.4      3.077      8.155
  Name = 
  2 active torsions:
  status: ('A' for Active; 'I' for Inactive)
    1  A    between atoms: C_10  and  O_20
    2  A    between atoms: O_20  and  N_29
                            x       y       z     vdW  Elec       q    Type
                         _______ _______ _______ _____ _____    ______ ____

>  <TORSDO>
F 2

$$$$
=
 OpenBabel11122410433D

 32 37  0  0  1  0  0  0  0  0999 V2000
  188.8340  177.8640  145.2700 C   0  0  0  0  0  2  0  0  0  0  0  0
  188.5020  178.1550  140.2090 C   0  0  1  0  0  3  0  0  0  0  0  0
  183.7320  179.4790  140.2160 C   0  0  0  0  0  3  0  0  0  0  0  0
  183.6120  179.0810  138.8830 C   0  0  0  0  0  3  0  0  0  0  0  0
  189.4380  176.7400  138.2620 C   0  0  1  0  0  3  0  0  0  0  0  0
  188.9840  175.7800  137.2010 C   0  0  0  0  0  0  0  0  0  0  0  0
  189.4110  177.9100  142.5460 C   0  0  1  0  0  3  0  0  0  0  0  0
  187.0450  177.2710  141.9590 O   0  0  0  0  0  0  0  0  0  0  0  0
  187.6360  174.6670  135.7620 C   0  0  0  0  0  0  0  0  0  0  0  0
  187.6410  177.5540  144.3450 C   0  0  2  0  0  3  0  0  0  0  0  0
  184.9210  179.2450  140.9080 C   0  0  0  0  0  3  0  0  0  0  0  0
  187.2410  178.3610  141.0820 C   0  0  2  0  0  3  0  0  0  0  0  0
  185.9980  178.6100  140.2780 C   0  0  0  0  0  0  0  0  0  0  0  0
  187.0450  177.5840  138.1930 C   0  0  2  0  0  3  0  0  0  0  0  0
  188.8180  174.6940  135.2400 N   0  0  0  0  0  0  0  0  0  0  0  0
  190.0920  177.0830  144.8670 C   0  0  0  0  0  2  0  0  0  0  0  0
  188.0950  177.2050  142.9180 C   0  0  2  0  0  3  0  0  0  0  0  0
  189.6680  175.4120  136.1290 C   0  0  0  0  0  3  0  0  0  0  0  0
  190.5550  177.4230  143.4380 C   0  0  0  0  0  2  0  0  0  0  0  0
  184.6790  178.4440  138.2470 C   0  0  0  0  0  3  0  0  0  0  0  0
  185.8720  178.1780  138.9380 C   0  0  0  0  0  0  0  0  0  0  0  0
  186.6160  176.4990  137.1700 C   0  0  0  0  0  2  0  0  0  0  0  0
  189.6970  177.7030  141.0680 C   0  0  0  0  0  2  0  0  0  0  0  0
  190.1820  178.1900  137.5150 Cl  0  0  0  0  0  0  0  0  0  0  0  0
  186.4930  173.9700  135.1110 C   0  0  0  0  0  1  0  0  0  0  0  0
  188.2070  177.1290  139.1090 C   0  0  2  0  0  3  0  0  0  0  0  0
  187.5770  175.3040  137.1070 C   0  0  2  0  0  3  0  0  0  0  0  0
  186.7640  178.6450  144.3290 O   0  0  0  0  0  0  0  0  0  0  0  0
  185.7330  178.2840  145.1340 N   0  0  0  0  0  2  0  0  0  0  0  0
  184.4930  178.9940  145.1280 C   0  0  0  0  0  0  0  0  0  0  0  0
  183.5630  178.6320  145.8920 O   0  0  0  0  0  0  0  0  0  0  0  0
  184.3020  180.1060  144.2610 N   0  0  0  0  0  1  0  0  0  0  0  0
  2 23  1  1  0  0  0
  2 12  1  0  0  0  0
  3 11  1  0  0  0  0
  4  3  2  0  0  0  0
  5 24  1  6  0  0  0
  5 26  1  0  0  0  0
  6  5  1  0  0  0  0
  7 23  1  6  0  0  0
  7 17  1  0  0  0  0
  7 19  1  0  0  0  0
  9 27  1  0  0  0  0
 10 28  1  6  0  0  0
 10  1  1  0  0  0  0
 12 13  1  6  0  0  0
 12  8  1  0  0  0  0
 13 11  2  0  0  0  0
 14 22  1  1  0  0  0
 14 21  1  0  0  0  0
 14 26  1  0  0  0  0
 15  9  2  0  0  0  0
 15 18  1  0  0  0  0
 16  1  1  0  0  0  0
 17  8  1  6  0  0  0
 17 10  1  0  0  0  0
 18  6  2  0  0  0  0
 19 16  1  0  0  0  0
 20  4  1  0  0  0  0
 20 21  2  0  0  0  0
 21 13  1  0  0  0  0
 25  9  1  0  0  0  0
 26  2  1  0  0  0  0
 27 22  1  0  0  0  0
 27  6  1  0  0  0  0
 28 29  1  0  0  0  0
 30 29  1  0  0  0  0
 30 31  2  0  0  0  0
 32 30  1  0  0  0  0
M  END
>  <MODEL>
8

>  <REMARK>
 VINA RESULT:      -7.2      3.466      5.383
  Name = 
  2 active torsions:
  status: ('A' for Active; 'I' for Inactive)
    1  A    between atoms: C_10  and  O_20
    2  A    between atoms: O_20  and  N_29
                            x       y       z     vdW  Elec       q    Type
                         _______ _______ _______ _____ _____    ______ ____

>  <TORSDO>
F 2

$$$$
=
 OpenBabel11122410433D

 32 37  0  0  1  0  0  0  0  0999 V2000
  185.9200  178.2690  144.6360 C   0  0  0  0  0  2  0  0  0  0  0  0
  182.3550  178.5560  141.0270 C   0  0  1  0  0  3  0  0  0  0  0  0
  185.3290  176.9220  137.4230 C   0  0  0  0  0  3  0  0  0  0  0  0
  184.4760  177.4650  136.4620 C   0  0  0  0  0  3  0  0  0  0  0  0
  180.4850  180.2500  140.4780 C   0  0  1  0  0  3  0  0  0  0  0  0
  180.1280  181.2960  139.4620 C   0  0  0  0  0  0  0  0  0  0  0  0
  183.5180  178.5840  143.2620 C   0  0  1  0  0  3  0  0  0  0  0  0
  184.7290  179.1270  141.1200 O   0  0  0  0  0  0  0  0  0  0  0  0
  180.1000  182.4770  137.5300 C   0  0  0  0  0  0  0  0  0  0  0  0
  186.0630  178.6050  143.1380 C   0  0  2  0  0  3  0  0  0  0  0  0
  185.0890  177.1510  138.7790 C   0  0  0  0  0  3  0  0  0  0  0  0
  183.8050  178.1630  140.6560 C   0  0  2  0  0  3  0  0  0  0  0  0
  183.9970  177.9280  139.1850 C   0  0  0  0  0  0  0  0  0  0  0  0
  181.9010  179.2610  138.6160 C   0  0  2  0  0  3  0  0  0  0  0  0
  178.9300  182.5920  138.0690 N   0  0  0  0  0  0  0  0  0  0  0  0
  184.8960  179.1760  145.3320 C   0  0  0  0  0  2  0  0  0  0  0  0
  184.7550  179.1500  142.5420 C   0  0  2  0  0  3  0  0  0  0  0  0
  178.9330  181.8330  139.2740 C   0  0  0  0  0  3  0  0  0  0  0  0
  183.4880  179.0390  144.7230 C   0  0  0  0  0  2  0  0  0  0  0  0
  183.3860  178.2430  136.8570 C   0  0  0  0  0  3  0  0  0  0  0  0
  183.1460  178.5050  138.2150 C   0  0  0  0  0  0  0  0  0  0  0  0
  181.5700  180.4270  137.6480 C   0  0  0  0  0  2  0  0  0  0  0  0
  182.2630  178.9830  142.5030 C   0  0  0  0  0  2  0  0  0  0  0  0
  179.2490  178.9520  140.5000 Cl  0  0  0  0  0  0  0  0  0  0  0  0
  180.4650  183.1680  136.2630 C   0  0  0  0  0  1  0  0  0  0  0  0
  181.8720  179.6820  140.1050 C   0  0  2  0  0  3  0  0  0  0  0  0
  181.0490  181.6840  138.3590 C   0  0  2  0  0  3  0  0  0  0  0  0
  186.4850  177.4670  142.4400 O   0  0  0  0  0  0  0  0  0  0  0  0
  187.6990  177.7930  141.9290 N   0  0  0  0  0  2  0  0  0  0  0  0
  188.8820  177.0840  142.2980 C   0  0  0  0  0  0  0  0  0  0  0  0
  189.9890  177.4190  141.8050 O   0  0  0  0  0  0  0  0  0  0  0  0
  188.8180  175.9990  143.2170 N   0  0  0  0  0  1  0  0  0  0  0  0
  1 16  1  0  0  0  0
  2 23  1  1  0  0  0
  3 11  1  0  0  0  0
  4 20  1  0  0  0  0
  4  3  2  0  0  0  0
  5 24  1  6  0  0  0
  6  5  1  0  0  0  0
  7 23  1  6  0  0  0
  7 19  1  0  0  0  0
  9 15  2  0  0  0  0
  9 27  1  0  0  0  0
 10 28  1  6  0  0  0
 10  1  1  0  0  0  0
 11 13  2  0  0  0  0
 12 13  1  6  0  0  0
 12  2  1  0  0  0  0
 12  8  1  0  0  0  0
 14 22  1  6  0  0  0
 14 26  1  0  0  0  0
 15 18  1  0  0  0  0
 17  8  1  6  0  0  0
 17 10  1  0  0  0  0
 17  7  1  0  0  0  0
 18  6  2  0  0  0  0
 19 16  1  0  0  0  0
 20 21  2  0  0  0  0
 21 14  1  0  0  0  0
 21 13  1  0  0  0  0
 22 27  1  0  0  0  0
 25  9  1  0  0  0  0
 26  5  1  0  0  0  0
 26  2  1  0  0  0  0
 27  6  1  0  0  0  0
 29 30  1  0  0  0  0
 29 28  1  0  0  0  0
 30 32  1  0  0  0  0
 31 30  2  0  0  0  0
M  END
>  <MODEL>
9

>  <REMARK>
 VINA RESULT:      -7.1      2.979      5.558
  Name = 
  2 active torsions:
  status: ('A' for Active; 'I' for Inactive)
    1  A    between atoms: C_10  and  O_20
    2  A    between atoms: O_20  and  N_29
                            x       y       z     vdW  Elec       q    Type
                         _______ _______ _______ _____ _____    ______ ____

>  <TORSDO>
F 2

$$$$
