=
 OpenBabel11122410343D

 30 36  0  0  1  0  0  0  0  0999 V2000
  185.8700  178.0730  142.4470 C   0  0  0  0  0  0  0  0  0  0  0  0
  183.6530  178.9660  142.9920 C   0  0  0  0  0  0  0  0  0  0  0  0
  186.8650  177.9440  146.5210 N   0  0  0  0  0  0  0  0  0  0  0  0
  187.1570  177.3380  142.8460 C   0  0  0  0  0  0  0  0  0  0  0  0
  185.7220  178.4550  140.9880 C   0  0  0  0  0  2  0  0  0  0  0  0
  189.1700  178.8390  140.1910 O   0  0  0  0  0  0  0  0  0  0  0  0
  190.1320  178.8380  143.7110 C   0  0  1  0  0  3  0  0  0  0  0  0
  188.2050  178.3040  140.8020 C   0  0  0  0  0  0  0  0  0  0  0  0
  189.7750  177.4490  144.2530 C   0  0  1  0  0  0  0  0  0  0  0  0
  188.1380  177.7300  146.3610 C   0  0  2  0  0  3  0  0  0  0  0  0
  186.9020  178.0510  140.1010 C   0  0  2  0  0  3  0  0  0  0  0  0
  188.3500  177.8790  142.1660 N   0  0  0  0  0  0  0  0  0  0  0  0
  182.7320  179.3560  143.9650 C   0  0  0  0  0  3  0  0  0  0  0  0
  191.0380  176.8470  144.8590 C   0  0  0  0  0  2  0  0  0  0  0  0
  191.6120  178.9070  143.9270 C   0  0  0  0  0  3  0  0  0  0  0  0
  183.2890  179.1310  141.6950 F   0  0  0  0  0  0  0  0  0  0  0  0
  186.3030  177.7580  145.2210 C   0  0  0  0  0  0  0  0  0  0  0  0
  183.0120  179.2120  145.2840 N   0  0  0  0  0  0  0  0  0  0  0  0
  184.8990  178.3990  143.3740 C   0  0  0  0  0  0  0  0  0  0  0  0
  187.3320  177.3680  144.3170 C   0  0  0  0  0  0  0  0  0  0  0  0
  189.1220  177.8730  147.4670 C   0  0  0  0  0  1  0  0  0  0  0  0
  188.4670  177.3830  144.9700 C   0  0  0  0  0  0  0  0  0  0  0  0
  192.0990  177.8470  144.5610 C   0  0  0  0  0  3  0  0  0  0  0  0
  190.6750  177.1140  141.9590 O   0  0  0  0  0  1  0  0  0  0  0  0
  184.1830  178.6760  145.7050 C   0  0  0  0  0  3  0  0  0  0  0  0
  185.1390  178.2430  144.7810 C   0  0  0  0  0  0  0  0  0  0  0  0
  189.6980  177.7260  142.7530 C   0  0  1  0  0  0  0  0  0  0  0  0
  186.8380  178.7500  138.8930 O   0  0  0  0  0  0  0  0  0  0  0  0
  185.9990  177.2390  137.2600 C   0  0  0  0  0  1  0  0  0  0  0  0
  185.6640  178.3050  138.2830 C   0  0  0  0  0  2  0  0  0  0  0  0
  1  4  2  0  0  0  0
  1 19  1  0  0  0  0
  2 19  2  0  0  0  0
  2 13  1  0  0  0  0
  4 20  1  0  0  0  0
  5  1  1  0  0  0  0
  6  8  2  0  0  0  0
  7 15  1  6  0  0  0
  7  9  1  0  0  0  0
  8 12  1  0  0  0  0
  9 14  1  1  0  0  0
  9 22  1  0  0  0  0
 10  3  1  0  0  0  0
 10 21  1  6  0  0  0
 11 28  1  6  0  0  0
 11  8  1  0  0  0  0
 11  5  1  0  0  0  0
 12 27  1  0  0  0  0
 12  4  1  0  0  0  0
 13 18  2  0  0  0  0
 15 23  2  0  0  0  0
 16  2  1  0  0  0  0
 17  3  2  0  0  0  0
 18 25  1  0  0  0  0
 19 26  1  0  0  0  0
 20 22  2  0  0  0  0
 20 17  1  0  0  0  0
 22 10  1  0  0  0  0
 23 14  1  0  0  0  0
 26 17  1  0  0  0  0
 26 25  2  0  0  0  0
 27 24  1  6  0  0  0
 27  7  1  0  0  0  0
 27  9  1  0  0  0  0
 29 30  1  0  0  0  0
 30 28  1  0  0  0  0
M  END
>  <MODEL>
1

>  <REMARK>
 VINA RESULT:     -10.4      0.000      0.000
  Name = 
  2 active torsions:
  status: ('A' for Active; 'I' for Inactive)
    1  A    between atoms: C_11  and  O_28
    2  A    between atoms: O_28  and  C_30
                            x       y       z     vdW  Elec       q    Type
                         _______ _______ _______ _____ _____    ______ ____

>  <TORSDO>
F 2

$$$$
=
 OpenBabel11122410343D

 30 36  0  0  1  0  0  0  0  0999 V2000
  188.4630  177.3710  142.3250 C   0  0  0  0  0  0  0  0  0  0  0  0
  187.4550  178.3280  140.3050 C   0  0  0  0  0  0  0  0  0  0  0  0
  185.0630  178.3990  144.5570 N   0  0  0  0  0  0  0  0  0  0  0  0
  188.3430  176.8050  143.7460 C   0  0  1  0  0  3  0  0  0  0  0  0
  189.8350  177.3290  141.6830 C   0  0  0  0  0  2  0  0  0  0  0  0
  191.8060  177.5580  144.6380 O   0  0  0  0  0  0  0  0  0  0  0  0
  188.9300  178.5540  146.6530 C   0  0  1  0  0  3  0  0  0  0  0  0
  190.7930  177.1910  143.9820 C   0  0  0  0  0  0  0  0  0  0  0  0
  187.9660  177.3620  146.6430 C   0  0  1  0  0  0  0  0  0  0  0  0
  185.5770  178.1780  145.7310 C   0  0  0  0  0  0  0  0  0  0  0  0
  190.9310  176.7230  142.5620 C   0  0  2  0  0  3  0  0  0  0  0  0
  189.4950  177.1640  144.5950 N   0  0  0  0  0  0  0  0  0  0  0  0
  186.3640  178.9520  139.6990 C   0  0  0  0  0  3  0  0  0  0  0  0
  187.6850  176.9810  148.0930 C   0  0  0  0  0  2  0  0  0  0  0  0
  189.2450  178.7150  148.1070 C   0  0  0  0  0  3  0  0  0  0  0  0
  188.5540  178.1190  139.5360 F   0  0  0  0  0  0  0  0  0  0  0  0
  186.0090  177.8470  143.6400 C   0  0  0  0  0  0  0  0  0  0  0  0
  185.2230  179.1850  140.3930 N   0  0  0  0  0  0  0  0  0  0  0  0
  187.3800  177.9180  141.6640 C   0  0  0  0  0  0  0  0  0  0  0  0
  187.0730  177.2460  144.3700 C   0  0  0  0  0  0  0  0  0  0  0  0
  184.9390  178.6450  146.9900 C   0  0  0  0  0  1  0  0  0  0  0  0
  186.8630  177.4670  145.6440 C   0  0  0  0  0  0  0  0  0  0  0  0
  188.5630  177.8840  148.8860 C   0  0  0  0  0  3  0  0  0  0  0  0
  190.2640  176.4250  146.8080 O   0  0  0  0  0  1  0  0  0  0  0  0
  185.0960  178.8140  141.6900 C   0  0  0  0  0  3  0  0  0  0  0  0
  186.1430  178.1640  142.3500 C   0  0  0  0  0  0  0  0  0  0  0  0
  189.3730  177.2100  146.0670 C   0  0  1  0  0  0  0  0  0  0  0  0
  192.1840  177.0580  142.0420 O   0  0  0  0  0  0  0  0  0  0  0  0
  193.1460  177.2620  139.8780 C   0  0  0  0  0  1  0  0  0  0  0  0
  191.9270  177.5020  140.7440 C   0  0  0  0  0  2  0  0  0  0  0  0
  2 19  1  0  0  0  0
  3 10  2  0  0  0  0
  4  1  1  6  0  0  0
  4 20  1  0  0  0  0
  4 12  1  0  0  0  0
  5  1  1  0  0  0  0
  5 11  1  0  0  0  0
  7 15  1  1  0  0  0
  8 12  1  0  0  0  0
  8  6  2  0  0  0  0
  9  7  1  0  0  0  0
  9 14  1  1  0  0  0
 10 21  1  0  0  0  0
 11 28  1  6  0  0  0
 11  8  1  0  0  0  0
 12 27  1  0  0  0  0
 13  2  2  0  0  0  0
 13 18  1  0  0  0  0
 14 23  1  0  0  0  0
 15 23  2  0  0  0  0
 16  2  1  0  0  0  0
 17 20  1  0  0  0  0
 17  3  1  0  0  0  0
 18 25  2  0  0  0  0
 19  1  2  0  0  0  0
 19 26  1  0  0  0  0
 20 22  2  0  0  0  0
 22 10  1  0  0  0  0
 22  9  1  0  0  0  0
 25 26  1  0  0  0  0
 26 17  2  0  0  0  0
 27  9  1  0  0  0  0
 27  7  1  0  0  0  0
 27 24  1  1  0  0  0
 29 30  1  0  0  0  0
 30 28  1  0  0  0  0
M  END
>  <MODEL>
2

>  <REMARK>
 VINA RESULT:      -9.8      2.350      4.359
  Name = 
  2 active torsions:
  status: ('A' for Active; 'I' for Inactive)
    1  A    between atoms: C_11  and  O_28
    2  A    between atoms: O_28  and  C_30
                            x       y       z     vdW  Elec       q    Type
                         _______ _______ _______ _____ _____    ______ ____

>  <TORSDO>
F 2

$$$$
=
 OpenBabel11122410343D

 30 36  0  0  1  0  0  0  0  0999 V2000
  186.5760  177.8890  144.9450 C   0  0  2  0  0  3  0  0  0  0  0  0
  186.9410  178.3040  147.3340 C   0  0  0  0  0  0  0  0  0  0  0  0
  190.6080  176.8360  144.4700 N   0  0  0  0  0  0  0  0  0  0  0  0
  186.9970  177.2550  143.6130 C   0  0  1  0  0  3  0  0  0  0  0  0
  185.2460  178.6150  144.9690 C   0  0  0  0  0  2  0  0  0  0  0  0
  185.1480  179.6520  141.5660 O   0  0  0  0  0  0  0  0  0  0  0  0
  188.6760  178.8600  141.0730 C   0  0  1  0  0  3  0  0  0  0  0  0
  185.4450  178.8520  142.4940 C   0  0  0  0  0  0  0  0  0  0  0  0
  188.8050  177.3440  141.2530 C   0  0  1  0  0  0  0  0  0  0  0  0
  190.6170  176.8430  143.1690 C   0  0  0  0  0  0  0  0  0  0  0  0
  184.4970  178.6180  143.6350 C   0  0  2  0  0  3  0  0  0  0  0  0
  186.6730  178.1090  142.4540 N   0  0  0  0  0  0  0  0  0  0  0  0
  187.8120  178.3000  148.4240 C   0  0  0  0  0  3  0  0  0  0  0  0
  189.4510  176.7790  139.9930 C   0  0  0  0  0  2  0  0  0  0  0  0
  189.1460  179.0690  139.6670 C   0  0  0  0  0  3  0  0  0  0  0  0
  185.6790  178.7520  147.5520 F   0  0  0  0  0  0  0  0  0  0  0  0
  189.2270  176.9230  144.8210 C   0  0  2  0  0  3  0  0  0  0  0  0
  189.0860  177.8550  148.2940 N   0  0  0  0  0  0  0  0  0  0  0  0
  187.3790  177.8290  146.0670 C   0  0  0  0  0  0  0  0  0  0  0  0
  188.4410  176.9230  143.6340 C   0  0  0  0  0  0  0  0  0  0  0  0
  191.8720  176.8230  142.3730 C   0  0  0  0  0  1  0  0  0  0  0  0
  189.2580  176.9190  142.6110 C   0  0  0  0  0  0  0  0  0  0  0  0
  189.5810  177.9550  139.0900 C   0  0  0  0  0  3  0  0  0  0  0  0
  186.6790  177.7430  140.0250 O   0  0  0  0  0  1  0  0  0  0  0  0
  189.5560  177.3900  147.1110 C   0  0  0  0  0  3  0  0  0  0  0  0
  188.7270  177.3450  145.9850 C   0  0  0  0  0  0  0  0  0  0  0  0
  187.4220  177.9900  141.1850 C   0  0  1  0  0  0  0  0  0  0  0  0
  183.4960  179.5930  143.6640 O   0  0  0  0  0  0  0  0  0  0  0  0
  181.5710  178.9010  142.4520 C   0  0  0  0  0  1  0  0  0  0  0  0
  182.3030  178.8780  143.7780 C   0  0  0  0  0  2  0  0  0  0  0  0
  1  5  1  6  0  0  0
  1 19  1  0  0  0  0
  2 16  1  0  0  0  0
  2 13  1  0  0  0  0
  3 17  1  0  0  0  0
  4 20  1  1  0  0  0
  4  1  1  0  0  0  0
  6  8  2  0  0  0  0
  7 15  1  6  0  0  0
  7 27  1  0  0  0  0
  7  9  1  0  0  0  0
  8 11  1  0  0  0  0
  9 14  1  6  0  0  0
  9 22  1  0  0  0  0
 10  3  2  0  0  0  0
 11 28  1  1  0  0  0
 11  5  1  0  0  0  0
 12  8  1  0  0  0  0
 12  4  1  0  0  0  0
 17 20  1  6  0  0  0
 17 26  1  0  0  0  0
 18 13  2  0  0  0  0
 19  2  2  0  0  0  0
 21 10  1  0  0  0  0
 22 10  1  0  0  0  0
 22 20  2  0  0  0  0
 23 15  2  0  0  0  0
 23 14  1  0  0  0  0
 25 18  1  0  0  0  0
 26 19  1  0  0  0  0
 26 25  2  0  0  0  0
 27 24  1  6  0  0  0
 27  9  1  0  0  0  0
 27 12  1  0  0  0  0
 28 30  1  0  0  0  0
 29 30  1  0  0  0  0
M  END
>  <MODEL>
3

>  <REMARK>
 VINA RESULT:      -9.8      2.344      4.651
  Name = 
  2 active torsions:
  status: ('A' for Active; 'I' for Inactive)
    1  A    between atoms: C_11  and  O_28
    2  A    between atoms: O_28  and  C_30
                            x       y       z     vdW  Elec       q    Type
                         _______ _______ _______ _____ _____    ______ ____

>  <TORSDO>
F 2

$$$$
=
 OpenBabel11122410343D

 30 36  0  0  1  0  0  0  0  0999 V2000
  187.3850  177.6240  143.9230 C   0  0  2  0  0  3  0  0  0  0  0  0
  188.0900  177.8760  146.2570 C   0  0  0  0  0  0  0  0  0  0  0  0
  191.3450  176.8630  142.7650 N   0  0  0  0  0  0  0  0  0  0  0  0
  187.6280  177.1210  142.4940 C   0  0  1  0  0  3  0  0  0  0  0  0
  186.0400  178.2620  144.2060 C   0  0  0  0  0  2  0  0  0  0  0  0
  185.3710  179.5500  140.9560 O   0  0  0  0  0  0  0  0  0  0  0  0
  188.8180  179.0190  139.8790 C   0  0  1  0  0  3  0  0  0  0  0  0
  185.8460  178.7010  141.7580 C   0  0  0  0  0  0  0  0  0  0  0  0
  189.0470  177.5040  139.9080 C   0  0  1  0  0  0  0  0  0  0  0  0
  191.1540  176.9700  141.4840 C   0  0  0  0  0  0  0  0  0  0  0  0
  185.0970  178.3210  143.0030 C   0  0  2  0  0  3  0  0  0  0  0  0
  187.0890  178.0410  141.4730 N   0  0  0  0  0  0  0  0  0  0  0  0
  189.1170  177.8420  147.2020 C   0  0  0  0  0  3  0  0  0  0  0  0
  189.5210  177.0790  138.5220 C   0  0  0  0  0  2  0  0  0  0  0  0
  189.0550  179.3640  138.4410 C   0  0  0  0  0  3  0  0  0  0  0  0
  186.8560  178.2260  146.6980 F   0  0  0  0  0  0  0  0  0  0  0  0
  190.0310  176.8360  143.3240 C   0  0  2  0  0  3  0  0  0  0  0  0
  190.3770  177.4890  146.8460 N   0  0  0  0  0  0  0  0  0  0  0  0
  188.3520  177.5280  144.9040 C   0  0  0  0  0  0  0  0  0  0  0  0
  189.0730  176.8790  142.2720 C   0  0  0  0  0  0  0  0  0  0  0  0
  192.2720  177.0900  140.5110 C   0  0  0  0  0  1  0  0  0  0  0  0
  189.7230  177.0040  141.1420 C   0  0  0  0  0  0  0  0  0  0  0  0
  189.4520  178.3260  137.7130 C   0  0  0  0  0  3  0  0  0  0  0  0
  186.7420  177.8630  139.0470 O   0  0  0  0  0  1  0  0  0  0  0  0
  190.6820  177.1460  145.5720 C   0  0  0  0  0  3  0  0  0  0  0  0
  189.6950  177.1360  144.5820 C   0  0  0  0  0  0  0  0  0  0  0  0
  187.6400  178.0660  140.1010 C   0  0  1  0  0  0  0  0  0  0  0  0
  184.0650  179.2270  143.2630 O   0  0  0  0  0  0  0  0  0  0  0  0
  181.8340  178.8050  143.9680 C   0  0  0  0  0  1  0  0  0  0  0  0
  183.3070  178.6280  144.2710 C   0  0  0  0  0  2  0  0  0  0  0  0
  1  5  1  6  0  0  0
  1 19  1  0  0  0  0
  2 16  1  0  0  0  0
  2 13  1  0  0  0  0
  3 17  1  0  0  0  0
  4 20  1  6  0  0  0
  4  1  1  0  0  0  0
  6  8  2  0  0  0  0
  7 15  1  6  0  0  0
  7  9  1  0  0  0  0
  7 27  1  0  0  0  0
  8 11  1  0  0  0  0
  9 14  1  6  0  0  0
  9 27  1  0  0  0  0
  9 22  1  0  0  0  0
 10  3  2  0  0  0  0
 11 28  1  1  0  0  0
 11  5  1  0  0  0  0
 12  8  1  0  0  0  0
 12  4  1  0  0  0  0
 17 20  1  6  0  0  0
 17 26  1  0  0  0  0
 18 13  2  0  0  0  0
 19  2  2  0  0  0  0
 21 10  1  0  0  0  0
 22 10  1  0  0  0  0
 22 20  2  0  0  0  0
 23 15  2  0  0  0  0
 23 14  1  0  0  0  0
 25 18  1  0  0  0  0
 26 19  1  0  0  0  0
 26 25  2  0  0  0  0
 27 24  1  6  0  0  0
 27 12  1  0  0  0  0
 28 30  1  0  0  0  0
 29 30  1  0  0  0  0
M  END
>  <MODEL>
4

>  <REMARK>
 VINA RESULT:      -9.1      2.354      5.244
  Name = 
  2 active torsions:
  status: ('A' for Active; 'I' for Inactive)
    1  A    between atoms: C_11  and  O_28
    2  A    between atoms: O_28  and  C_30
                            x       y       z     vdW  Elec       q    Type
                         _______ _______ _______ _____ _____    ______ ____

>  <TORSDO>
F 2

$$$$
=
 OpenBabel11122410343D

 30 36  0  0  1  0  0  0  0  0999 V2000
  186.3610  177.9430  142.3860 C   0  0  0  0  0  0  0  0  0  0  0  0
  184.1930  179.0880  142.3970 C   0  0  0  0  0  0  0  0  0  0  0  0
  186.4030  177.8930  146.5800 N   0  0  0  0  0  0  0  0  0  0  0  0
  187.4350  177.0950  143.0800 C   0  0  1  0  0  3  0  0  0  0  0  0
  186.5860  178.2720  140.9240 C   0  0  0  0  0  2  0  0  0  0  0  0
  190.1450  178.2550  140.9190 O   0  0  0  0  0  0  0  0  0  0  0  0
  190.2930  178.3100  144.5650 C   0  0  1  0  0  3  0  0  0  0  0  0
  189.0150  177.8530  141.3070 C   0  0  0  0  0  0  0  0  0  0  0  0
  189.6700  176.9930  145.0400 C   0  0  1  0  0  0  0  0  0  0  0  0
  187.6470  177.5390  146.7170 C   0  0  0  0  0  0  0  0  0  0  0  0
  187.8800  177.7070  140.3350 C   0  0  2  0  0  3  0  0  0  0  0  0
  188.8030  177.4770  142.6760 N   0  0  0  0  0  0  0  0  0  0  0  0
  183.1290  179.6170  143.1290 C   0  0  0  0  0  3  0  0  0  0  0  0
  190.6910  176.2890  145.9280 C   0  0  0  0  0  2  0  0  0  0  0  0
  191.6860  178.2340  145.1090 C   0  0  0  0  0  3  0  0  0  0  0  0
  184.1490  179.2320  141.0490 F   0  0  0  0  0  0  0  0  0  0  0  0
  186.1280  177.7090  145.1910 C   0  0  0  0  0  0  0  0  0  0  0  0
  183.0900  179.5030  144.4790 N   0  0  0  0  0  0  0  0  0  0  0  0
  185.2520  178.4110  143.0620 C   0  0  0  0  0  0  0  0  0  0  0  0
  187.2810  177.1730  144.5520 C   0  0  0  0  0  0  0  0  0  0  0  0
  188.3700  177.6270  148.0130 C   0  0  0  0  0  1  0  0  0  0  0  0
  188.2370  177.0970  145.4440 C   0  0  0  0  0  0  0  0  0  0  0  0
  191.8970  177.1570  145.8580 C   0  0  0  0  0  3  0  0  0  0  0  0
  191.0140  176.4620  143.0160 O   0  0  0  0  0  1  0  0  0  0  0  0
  184.0710  178.8660  145.1640 C   0  0  0  0  0  3  0  0  0  0  0  0
  185.1530  178.2930  144.4900 C   0  0  0  0  0  0  0  0  0  0  0  0
  189.9600  177.2090  143.5560 C   0  0  1  0  0  0  0  0  0  0  0  0
  188.1650  178.3530  139.1290 O   0  0  0  0  0  0  0  0  0  0  0  0
  187.3340  178.5820  136.9130 C   0  0  0  0  0  1  0  0  0  0  0  0
  187.2890  177.7870  138.2020 C   0  0  0  0  0  2  0  0  0  0  0  0
  1 19  2  0  0  0  0
  2 19  1  0  0  0  0
  2 13  2  0  0  0  0
  3 10  2  0  0  0  0
  4  1  1  6  0  0  0
  4 20  1  0  0  0  0
  5  1  1  0  0  0  0
  6  8  2  0  0  0  0
  7  9  1  0  0  0  0
  7 15  1  1  0  0  0
  8 12  1  0  0  0  0
  9 22  1  0  0  0  0
  9 14  1  1  0  0  0
 10 21  1  0  0  0  0
 11 28  1  6  0  0  0
 11  5  1  0  0  0  0
 11  8  1  0  0  0  0
 12  4  1  0  0  0  0
 12 27  1  0  0  0  0
 13 18  1  0  0  0  0
 15 23  2  0  0  0  0
 16  2  1  0  0  0  0
 17  3  1  0  0  0  0
 18 25  2  0  0  0  0
 19 26  1  0  0  0  0
 20 17  1  0  0  0  0
 20 22  2  0  0  0  0
 22 10  1  0  0  0  0
 23 14  1  0  0  0  0
 26 25  1  0  0  0  0
 26 17  2  0  0  0  0
 27 24  1  6  0  0  0
 27  7  1  0  0  0  0
 27  9  1  0  0  0  0
 29 30  1  0  0  0  0
 30 28  1  0  0  0  0
M  END
>  <MODEL>
5

>  <REMARK>
 VINA RESULT:      -9.1      0.968      1.014
  Name = 
  2 active torsions:
  status: ('A' for Active; 'I' for Inactive)
    1  A    between atoms: C_11  and  O_28
    2  A    between atoms: O_28  and  C_30
                            x       y       z     vdW  Elec       q    Type
                         _______ _______ _______ _____ _____    ______ ____

>  <TORSDO>
F 2

$$$$
=
 OpenBabel11122410343D

 30 36  0  0  1  0  0  0  0  0999 V2000
  185.7720  178.5110  140.8930 C   0  0  0  0  0  0  0  0  0  0  0  0
  184.1730  178.2210  139.0570 C   0  0  0  0  0  0  0  0  0  0  0  0
  188.9280  177.3540  138.3830 N   0  0  0  0  0  0  0  0  0  0  0  0
  187.2040  178.7080  141.4080 C   0  0  1  0  0  3  0  0  0  0  0  0
  184.6610  178.5540  141.9230 C   0  0  0  0  0  2  0  0  0  0  0  0
  186.4940  177.3560  144.7280 O   0  0  0  0  0  0  0  0  0  0  0  0
  189.2530  176.2240  142.6240 C   0  0  1  0  0  3  0  0  0  0  0  0
  186.3740  177.9930  143.6470 C   0  0  0  0  0  0  0  0  0  0  0  0
  189.8510  177.4830  141.9870 C   0  0  1  0  0  0  0  0  0  0  0  0
  189.8210  177.2080  139.3170 C   0  0  0  0  0  0  0  0  0  0  0  0
  185.1320  178.7860  143.3600 C   0  0  2  0  0  3  0  0  0  0  0  0
  187.4430  178.0140  142.6880 N   0  0  0  0  0  0  0  0  0  0  0  0
  183.9420  177.9030  137.7180 C   0  0  0  0  0  3  0  0  0  0  0  0
  191.3380  177.5140  142.3270 C   0  0  0  0  0  2  0  0  0  0  0  0
  190.4060  175.6630  143.3980 C   0  0  0  0  0  3  0  0  0  0  0  0
  183.0880  178.4890  139.8260 F   0  0  0  0  0  0  0  0  0  0  0  0
  187.8340  178.0060  139.0300 C   0  0  0  0  0  0  0  0  0  0  0  0
  184.9730  177.6360  136.8800 N   0  0  0  0  0  0  0  0  0  0  0  0
  185.5020  178.2790  139.5590 C   0  0  0  0  0  0  0  0  0  0  0  0
  188.1840  178.2750  140.3840 C   0  0  0  0  0  0  0  0  0  0  0  0
  191.1170  176.5150  139.0890 C   0  0  0  0  0  1  0  0  0  0  0  0
  189.3690  177.7640  140.6020 C   0  0  0  0  0  0  0  0  0  0  0  0
  191.5320  176.3440  143.2250 C   0  0  0  0  0  3  0  0  0  0  0  0
  189.2680  178.0730  144.3320 O   0  0  0  0  0  1  0  0  0  0  0  0
  186.2590  177.6780  137.3030 C   0  0  0  0  0  3  0  0  0  0  0  0
  186.5610  178.0140  138.6270 C   0  0  0  0  0  0  0  0  0  0  0  0
  188.8060  177.6110  143.0940 C   0  0  1  0  0  0  0  0  0  0  0  0
  184.1060  178.4500  144.2470 O   0  0  0  0  0  0  0  0  0  0  0  0
  181.7510  178.6270  143.9720 C   0  0  0  0  0  1  0  0  0  0  0  0
  183.0800  179.3540  143.9680 C   0  0  0  0  0  2  0  0  0  0  0  0
  1  4  1  0  0  0  0
  1  5  1  0  0  0  0
  2 19  1  0  0  0  0
  2 16  1  0  0  0  0
  3 17  1  0  0  0  0
  3 10  2  0  0  0  0
  4 20  1  6  0  0  0
  4 12  1  0  0  0  0
  5 11  1  0  0  0  0
  7 27  1  0  0  0  0
  7 15  1  1  0  0  0
  8  6  2  0  0  0  0
  9 14  1  1  0  0  0
  9  7  1  0  0  0  0
  9 27  1  0  0  0  0
 10 22  1  0  0  0  0
 11  8  1  0  0  0  0
 11 28  1  1  0  0  0
 12 27  1  0  0  0  0
 12  8  1  0  0  0  0
 13  2  2  0  0  0  0
 14 23  1  0  0  0  0
 17 20  1  0  0  0  0
 18 25  2  0  0  0  0
 18 13  1  0  0  0  0
 19  1  2  0  0  0  0
 20 22  2  0  0  0  0
 21 10  1  0  0  0  0
 22  9  1  0  0  0  0
 23 15  2  0  0  0  0
 25 26  1  0  0  0  0
 26 17  2  0  0  0  0
 26 19  1  0  0  0  0
 27 24  1  1  0  0  0
 30 29  1  0  0  0  0
 30 28  1  0  0  0  0
M  END
>  <MODEL>
6

>  <REMARK>
 VINA RESULT:      -8.8      2.478      5.169
  Name = 
  2 active torsions:
  status: ('A' for Active; 'I' for Inactive)
    1  A    between atoms: C_11  and  O_28
    2  A    between atoms: O_28  and  C_30
                            x       y       z     vdW  Elec       q    Type
                         _______ _______ _______ _____ _____    ______ ____

>  <TORSDO>
F 2

$$$$
=
 OpenBabel11122410343D

 30 36  0  0  1  0  0  0  0  0999 V2000
  188.6080  178.0020  144.0420 C   0  0  2  0  0  3  0  0  0  0  0  0
  186.7320  177.8430  145.6120 C   0  0  0  0  0  0  0  0  0  0  0  0
  185.9460  178.6090  140.8580 N   0  0  0  0  0  0  0  0  0  0  0  0
  189.1960  178.4300  142.6910 C   0  0  1  0  0  3  0  0  0  0  0  0
  189.5720  177.4110  145.0530 C   0  0  0  0  0  2  0  0  0  0  0  0
  191.9140  175.9890  142.7810 O   0  0  0  0  0  0  0  0  0  0  0  0
  189.6340  176.3830  139.9580 C   0  0  1  0  0  3  0  0  0  0  0  0
  191.0800  176.8630  143.1430 C   0  0  0  0  0  0  0  0  0  0  0  0
  189.4350  177.8920  139.7760 C   0  0  1  0  0  0  0  0  0  0  0  0
  186.8110  178.4460  139.9010 C   0  0  0  0  0  0  0  0  0  0  0  0
  191.0210  177.3190  144.5730 C   0  0  2  0  0  3  0  0  0  0  0  0
  190.2030  177.4780  142.1860 N   0  0  0  0  0  0  0  0  0  0  0  0
  185.3550  177.8960  145.8320 C   0  0  0  0  0  3  0  0  0  0  0  0
  189.8060  178.2390  138.3380 C   0  0  0  0  0  2  0  0  0  0  0  0
  190.2260  175.9650  138.6480 C   0  0  0  0  0  3  0  0  0  0  0  0
  187.5180  177.5440  146.6780 F   0  0  0  0  0  0  0  0  0  0  0  0
  186.7340  178.6950  142.0450 C   0  0  2  0  0  3  0  0  0  0  0  0
  184.5020  178.2000  144.8240 N   0  0  0  0  0  0  0  0  0  0  0  0
  187.2610  178.1200  144.3220 C   0  0  0  0  0  0  0  0  0  0  0  0
  188.1130  178.6260  141.6980 C   0  0  0  0  0  0  0  0  0  0  0  0
  186.4130  178.2530  138.4810 C   0  0  0  0  0  1  0  0  0  0  0  0
  188.1930  178.4320  140.4050 C   0  0  0  0  0  0  0  0  0  0  0  0
  190.3020  176.9570  137.7680 C   0  0  0  0  0  3  0  0  0  0  0  0
  191.8310  177.5490  140.3470 O   0  0  0  0  0  1  0  0  0  0  0  0
  184.9510  178.4750  143.5750 C   0  0  0  0  0  3  0  0  0  0  0  0
  186.3210  178.4630  143.2940 C   0  0  0  0  0  0  0  0  0  0  0  0
  190.4990  177.3740  140.7420 C   0  0  1  0  0  0  0  0  0  0  0  0
  191.7340  176.4520  145.4050 O   0  0  0  0  0  0  0  0  0  0  0  0
  192.0550  176.0030  147.7180 C   0  0  0  0  0  1  0  0  0  0  0  0
  191.1460  176.5990  146.6630 C   0  0  0  0  0  2  0  0  0  0  0  0
  1 19  1  0  0  0  0
  1  5  1  6  0  0  0
  2 13  1  0  0  0  0
  2 16  1  0  0  0  0
  4 20  1  6  0  0  0
  4  1  1  0  0  0  0
  6  8  2  0  0  0  0
  7 15  1  6  0  0  0
  7 27  1  0  0  0  0
  8 11  1  0  0  0  0
  9 14  1  6  0  0  0
  9  7  1  0  0  0  0
  9 22  1  0  0  0  0
  9 27  1  0  0  0  0
 10 22  1  0  0  0  0
 10  3  2  0  0  0  0
 11  5  1  0  0  0  0
 11 28  1  1  0  0  0
 12  4  1  0  0  0  0
 12  8  1  0  0  0  0
 17  3  1  6  0  0  0
 17 26  1  0  0  0  0
 18 13  2  0  0  0  0
 19  2  2  0  0  0  0
 20 17  1  0  0  0  0
 21 10  1  0  0  0  0
 22 20  2  0  0  0  0
 23 14  1  0  0  0  0
 23 15  2  0  0  0  0
 25 18  1  0  0  0  0
 26 25  2  0  0  0  0
 26 19  1  0  0  0  0
 27 24  1  6  0  0  0
 27 12  1  0  0  0  0
 28 30  1  0  0  0  0
 30 29  1  0  0  0  0
M  END
>  <MODEL>
7

>  <REMARK>
 VINA RESULT:      -8.8      2.303      5.585
  Name = 
  2 active torsions:
  status: ('A' for Active; 'I' for Inactive)
    1  A    between atoms: C_11  and  O_28
    2  A    between atoms: O_28  and  C_30
                            x       y       z     vdW  Elec       q    Type
                         _______ _______ _______ _____ _____    ______ ____

>  <TORSDO>
F 2

$$$$
=
 OpenBabel11122410343D

 30 36  0  0  1  0  0  0  0  0999 V2000
  187.1920  177.6630  142.4720 C   0  0  0  0  0  0  0  0  0  0  0  0
  185.1780  178.9500  141.9270 C   0  0  0  0  0  0  0  0  0  0  0  0
  186.2990  177.9210  146.5630 N   0  0  0  0  0  0  0  0  0  0  0  0
  188.0120  176.7980  143.4390 C   0  0  1  0  0  3  0  0  0  0  0  0
  187.7610  177.8670  141.0830 C   0  0  0  0  0  2  0  0  0  0  0  0
  191.2190  177.6090  141.8860 O   0  0  0  0  0  0  0  0  0  0  0  0
  190.5600  177.9240  145.4610 C   0  0  1  0  0  3  0  0  0  0  0  0
  190.0020  177.3130  142.0300 C   0  0  0  0  0  0  0  0  0  0  0  0
  189.7400  176.6900  145.8570 C   0  0  1  0  0  0  0  0  0  0  0  0
  187.4480  177.4950  146.9980 C   0  0  0  0  0  0  0  0  0  0  0  0
  189.1020  177.1730  140.8350 C   0  0  2  0  0  3  0  0  0  0  0  0
  189.4610  177.0550  143.3350 N   0  0  0  0  0  0  0  0  0  0  0  0
  184.0250  179.6020  142.3670 C   0  0  0  0  0  3  0  0  0  0  0  0
  190.4770  175.9860  146.9910 C   0  0  0  0  0  2  0  0  0  0  0  0
  191.7870  177.7930  146.3100 C   0  0  0  0  0  3  0  0  0  0  0  0
  185.4450  178.9970  140.5970 F   0  0  0  0  0  0  0  0  0  0  0  0
  186.3240  177.6550  145.1610 C   0  0  0  0  0  0  0  0  0  0  0  0
  183.6790  179.5920  143.6780 N   0  0  0  0  0  0  0  0  0  0  0  0
  186.0030  178.2540  142.8520 C   0  0  0  0  0  0  0  0  0  0  0  0
  187.5420  176.9950  144.8310 C   0  0  0  0  0  0  0  0  0  0  0  0
  187.8710  177.6300  148.4170 C   0  0  0  0  0  1  0  0  0  0  0  0
  188.2670  176.9210  145.9190 C   0  0  0  0  0  0  0  0  0  0  0  0
  191.7370  176.7630  147.1470 C   0  0  0  0  0  3  0  0  0  0  0  0
  191.4510  175.9210  144.2230 O   0  0  0  0  0  1  0  0  0  0  0  0
  184.4270  178.9430  144.6020 C   0  0  0  0  0  3  0  0  0  0  0  0
  185.5810  178.2500  144.2240 C   0  0  0  0  0  0  0  0  0  0  0  0
  190.3690  176.7750  144.4670 C   0  0  1  0  0  0  0  0  0  0  0  0
  189.7000  177.7080  139.6910 O   0  0  0  0  0  0  0  0  0  0  0  0
  189.0260  178.7540  137.6650 C   0  0  0  0  0  1  0  0  0  0  0  0
  188.7290  178.5420  139.1350 C   0  0  0  0  0  2  0  0  0  0  0  0
  1 19  2  0  0  0  0
  2 13  2  0  0  0  0
  2 19  1  0  0  0  0
  3 10  2  0  0  0  0
  4  1  1  6  0  0  0
  4 20  1  0  0  0  0
  5  1  1  0  0  0  0
  6  8  2  0  0  0  0
  7  9  1  0  0  0  0
  7 15  1  1  0  0  0
  8 12  1  0  0  0  0
  9 22  1  0  0  0  0
  9 14  1  1  0  0  0
 10 21  1  0  0  0  0
 11 28  1  6  0  0  0
 11  5  1  0  0  0  0
 11  8  1  0  0  0  0
 12  4  1  0  0  0  0
 12 27  1  0  0  0  0
 13 18  1  0  0  0  0
 14 23  1  0  0  0  0
 15 23  2  0  0  0  0
 16  2  1  0  0  0  0
 17  3  1  0  0  0  0
 18 25  2  0  0  0  0
 19 26  1  0  0  0  0
 20 17  1  0  0  0  0
 20 22  2  0  0  0  0
 22 10  1  0  0  0  0
 26 25  1  0  0  0  0
 26 17  2  0  0  0  0
 27 24  1  6  0  0  0
 27  7  1  0  0  0  0
 27  9  1  0  0  0  0
 29 30  1  0  0  0  0
 30 28  1  0  0  0  0
M  END
>  <MODEL>
8

>  <REMARK>
 VINA RESULT:      -8.8      1.603      2.066
  Name = 
  2 active torsions:
  status: ('A' for Active; 'I' for Inactive)
    1  A    between atoms: C_11  and  O_28
    2  A    between atoms: O_28  and  C_30
                            x       y       z     vdW  Elec       q    Type
                         _______ _______ _______ _____ _____    ______ ____

>  <TORSDO>
F 2

$$$$
=
 OpenBabel11122410343D

 30 36  0  0  1  0  0  0  0  0999 V2000
  187.2160  178.2290  142.5370 C   0  0  2  0  0  3  0  0  0  0  0  0
  185.0010  178.3000  143.5870 C   0  0  0  0  0  0  0  0  0  0  0  0
  185.4690  178.5470  138.7360 N   0  0  0  0  0  0  0  0  0  0  0  0
  188.1440  178.4860  141.3430 C   0  0  1  0  0  3  0  0  0  0  0  0
  187.8620  177.7300  143.8140 C   0  0  0  0  0  2  0  0  0  0  0  0
  190.6150  175.9970  142.3700 O   0  0  0  0  0  0  0  0  0  0  0  0
  189.1370  176.1320  139.0350 C   0  0  1  0  0  3  0  0  0  0  0  0
  189.7670  176.9290  142.4160 C   0  0  0  0  0  0  0  0  0  0  0  0
  189.0730  177.6160  138.6550 C   0  0  1  0  0  0  0  0  0  0  0  0
  186.5360  178.2530  138.0520 C   0  0  0  0  0  0  0  0  0  0  0  0
  189.3780  177.5450  143.7300 C   0  0  2  0  0  3  0  0  0  0  0  0
  189.1920  177.4550  141.2110 N   0  0  0  0  0  0  0  0  0  0  0  0
  183.6180  178.4150  143.4430 C   0  0  0  0  0  3  0  0  0  0  0  0
  189.8090  177.7880  137.3310 C   0  0  0  0  0  2  0  0  0  0  0  0
  190.0130  175.5530  137.9680 C   0  0  0  0  0  3  0  0  0  0  0  0
  185.4780  178.1020  144.8420 F   0  0  0  0  0  0  0  0  0  0  0  0
  185.9400  178.7430  140.0690 C   0  0  2  0  0  3  0  0  0  0  0  0
  183.0610  178.6280  142.2260 N   0  0  0  0  0  0  0  0  0  0  0  0
  185.8500  178.4150  142.4520 C   0  0  0  0  0  0  0  0  0  0  0  0
  187.3560  178.5980  140.0930 C   0  0  0  0  0  0  0  0  0  0  0  0
  186.4950  177.9110  136.6050 C   0  0  0  0  0  1  0  0  0  0  0  0
  187.7450  178.2570  138.8900 C   0  0  0  0  0  0  0  0  0  0  0  0
  190.3600  176.4360  137.0400 C   0  0  0  0  0  3  0  0  0  0  0  0
  191.2280  177.2740  139.8480 O   0  0  0  0  0  1  0  0  0  0  0  0
  183.8220  178.7470  141.1110 C   0  0  0  0  0  3  0  0  0  0  0  0
  185.2160  178.6660  141.1890 C   0  0  0  0  0  0  0  0  0  0  0  0
  189.8320  177.1810  139.9070 C   0  0  1  0  0  0  0  0  0  0  0  0
  189.8120  176.7580  144.8010 O   0  0  0  0  0  0  0  0  0  0  0  0
  189.8050  177.0990  147.1530 C   0  0  0  0  0  1  0  0  0  0  0  0
  188.9980  177.1310  145.8720 C   0  0  0  0  0  2  0  0  0  0  0  0
  1  5  1  6  0  0  0
  2 16  1  0  0  0  0
  4 20  1  6  0  0  0
  4  1  1  0  0  0  0
  6  8  2  0  0  0  0
  7 15  1  6  0  0  0
  7 27  1  0  0  0  0
  8 11  1  0  0  0  0
  9 14  1  6  0  0  0
  9 22  1  0  0  0  0
  9  7  1  0  0  0  0
  9 27  1  0  0  0  0
 10  3  2  0  0  0  0
 10 22  1  0  0  0  0
 11  5  1  0  0  0  0
 11 28  1  1  0  0  0
 12  4  1  0  0  0  0
 12  8  1  0  0  0  0
 13  2  1  0  0  0  0
 17  3  1  6  0  0  0
 17 20  1  0  0  0  0
 17 26  1  0  0  0  0
 18 13  2  0  0  0  0
 19  1  1  0  0  0  0
 19  2  2  0  0  0  0
 21 10  1  0  0  0  0
 22 20  2  0  0  0  0
 23 14  1  0  0  0  0
 23 15  2  0  0  0  0
 25 26  2  0  0  0  0
 25 18  1  0  0  0  0
 26 19  1  0  0  0  0
 27 24  1  6  0  0  0
 27 12  1  0  0  0  0
 28 30  1  0  0  0  0
 30 29  1  0  0  0  0
M  END
>  <MODEL>
9

>  <REMARK>
 VINA RESULT:      -8.7      2.245      5.625
  Name = 
  2 active torsions:
  status: ('A' for Active; 'I' for Inactive)
    1  A    between atoms: C_11  and  O_28
    2  A    between atoms: O_28  and  C_30
                            x       y       z     vdW  Elec       q    Type
                         _______ _______ _______ _____ _____    ______ ____

>  <TORSDO>
F 2

$$$$
