=
 OpenBabel11122412013D

 28 32  0  0  1  0  0  0  0  0999 V2000
  181.1410  179.8520  139.5690 C   0  0  0  0  0  0  0  0  0  0  0  0
  184.5580  180.0810  139.0910 O   0  0  0  0  0  1  0  0  0  0  0  0
  181.7140  175.6760  134.9740 C   0  0  0  0  0  1  0  0  0  0  0  0
  180.4520  178.4340  141.8950 C   0  0  0  0  0  3  0  0  0  0  0  0
  183.7020  176.9270  135.7950 C   0  0  2  0  0  3  0  0  0  0  0  0
  181.4270  180.6710  138.3440 C   0  0  0  0  0  2  0  0  0  0  0  0
  184.2560  179.2130  141.2820 C   0  0  0  0  0  1  0  0  0  0  0  0
  184.7840  178.9520  139.8840 C   0  0  1  0  0  0  0  0  0  0  0  0
  186.9090  178.1120  138.9710 C   0  0  0  0  0  0  0  0  0  0  0  0
  184.1150  177.6990  139.2620 C   0  0  2  0  0  3  0  0  0  0  0  0
  180.8950  180.1830  135.1290 O   0  0  0  0  0  0  0  0  0  0  0  0
  182.6390  178.2280  137.4240 C   0  0  1  0  0  3  0  0  0  0  0  0
  186.2270  177.6860  137.7120 C   0  0  0  0  0  2  0  0  0  0  0  0
  186.1850  178.7260  139.9920 O   0  0  0  0  0  0  0  0  0  0  0  0
  180.5070  179.7240  136.2340 C   0  0  0  0  0  0  0  0  0  0  0  0
  181.6900  178.5590  139.8020 C   0  0  0  0  0  0  0  0  0  0  0  0
  182.2410  177.0310  135.4020 C   0  0  2  0  0  3  0  0  0  0  0  0
  188.1820  177.9450  139.0990 N   0  0  0  0  0  2  0  0  0  0  0  0
  180.4040  178.3120  136.4270 N   0  0  0  0  0  2  0  0  0  0  0  0
  181.3240  177.8670  140.9640 C   0  0  0  0  0  3  0  0  0  0  0  0
  180.2700  180.4080  140.5160 C   0  0  0  0  0  3  0  0  0  0  0  0
  179.9280  179.7060  141.6720 C   0  0  0  0  0  3  0  0  0  0  0  0
  180.2450  180.6510  137.3750 C   0  0  0  0  0  2  0  0  0  0  0  0
  183.9450  177.9160  136.8430 N   0  0  1  0  0  0  0  0  0  0  0  0
  181.5690  177.4640  136.6760 C   0  0  2  0  0  3  0  0  0  0  0  0
  184.7490  177.3140  137.9090 C   0  0  2  0  0  3  0  0  0  0  0  0
  184.5810  177.2240  134.5940 C   0  0  0  0  0  1  0  0  0  0  0  0
  182.6490  177.8380  138.8770 C   0  0  2  0  0  3  0  0  0  0  0  0
  1 16  2  0  0  0  0
  1 21  1  0  0  0  0
  2  8  1  0  0  0  0
  3 17  1  0  0  0  0
  5 27  1  6  0  0  0
  5 24  1  0  0  0  0
  6  1  1  0  0  0  0
  8 14  1  0  0  0  0
  8  7  1  1  0  0  0
  9 18  2  0  0  0  0
  9 14  1  0  0  0  0
 10  8  1  0  0  0  0
 11 15  2  0  0  0  0
 12 28  1  0  0  0  0
 13 26  1  0  0  0  0
 13  9  1  0  0  0  0
 15 19  1  0  0  0  0
 15 23  1  0  0  0  0
 16 20  1  0  0  0  0
 17  5  1  0  0  0  0
 17 25  1  0  0  0  0
 19 25  1  0  0  0  0
 20  4  2  0  0  0  0
 21 22  2  0  0  0  0
 22  4  1  0  0  0  0
 23  6  1  0  0  0  0
 24 12  1  0  0  0  0
 24 26  1  0  0  0  0
 25 12  1  0  0  0  0
 26 10  1  0  0  0  0
 28 10  1  0  0  0  0
 28 16  1  0  0  0  0
M  END
>  <MODEL>
1

>  <REMARK>
 VINA RESULT:      -5.8      0.000      0.000
  Name = 
  0 active torsions:
  status: ('A' for Active; 'I' for Inactive)
                            x       y       z     vdW  Elec       q    Type
                         _______ _______ _______ _____ _____    ______ ____

>  <TORSDO>
F 0

$$$$
=
 OpenBabel11122412013D

 28 32  0  0  1  0  0  0  0  0999 V2000
  180.4420  176.5460  137.4970 C   0  0  0  0  0  0  0  0  0  0  0  0
  183.6670  176.3840  138.7320 O   0  0  0  0  0  1  0  0  0  0  0  0
  179.7360  180.3030  142.4240 C   0  0  0  0  0  1  0  0  0  0  0  0
  180.2280  178.1480  135.1980 C   0  0  0  0  0  3  0  0  0  0  0  0
  181.9210  179.1950  141.9860 C   0  0  2  0  0  3  0  0  0  0  0  0
  180.4840  175.6290  138.6840 C   0  0  0  0  0  2  0  0  0  0  0  0
  183.8280  177.4370  136.6090 C   0  0  0  0  0  1  0  0  0  0  0  0
  184.0090  177.5870  138.1080 C   0  0  1  0  0  0  0  0  0  0  0  0
  185.8250  178.4070  139.5530 C   0  0  0  0  0  0  0  0  0  0  0  0
  183.1520  178.7560  138.6570 C   0  0  2  0  0  3  0  0  0  0  0  0
  179.2090  175.8050  141.7180 O   0  0  0  0  0  0  0  0  0  0  0  0
  181.3260  178.0150  140.0550 C   0  0  1  0  0  3  0  0  0  0  0  0
  184.8520  178.6940  140.6500 C   0  0  0  0  0  2  0  0  0  0  0  0
  185.3840  177.8660  138.3460 O   0  0  0  0  0  0  0  0  0  0  0  0
  179.0600  176.3500  140.5940 C   0  0  0  0  0  0  0  0  0  0  0  0
  180.9620  177.8720  137.5040 C   0  0  0  0  0  0  0  0  0  0  0  0
  180.4170  179.0090  142.0210 C   0  0  2  0  0  3  0  0  0  0  0  0
  187.0830  178.6250  139.7370 N   0  0  0  0  0  2  0  0  0  0  0  0
  178.9310  177.7700  140.4980 N   0  0  0  0  0  2  0  0  0  0  0  0
  180.8340  178.6550  136.3480 C   0  0  0  0  0  3  0  0  0  0  0  0
  179.8390  176.0520  136.3320 C   0  0  0  0  0  3  0  0  0  0  0  0
  179.7340  176.8450  135.1900 C   0  0  0  0  0  3  0  0  0  0  0  0
  179.1130  175.5230  139.3510 C   0  0  0  0  0  2  0  0  0  0  0  0
  182.4470  178.3140  140.9460 N   0  0  1  0  0  0  0  0  0  0  0  0
  180.0760  178.6730  140.5950 C   0  0  2  0  0  3  0  0  0  0  0  0
  183.4400  179.0360  140.1470 C   0  0  2  0  0  3  0  0  0  0  0  0
  182.5170  178.8180  143.3300 C   0  0  0  0  0  1  0  0  0  0  0  0
  181.6460  178.5350  138.6810 C   0  0  2  0  0  3  0  0  0  0  0  0
  1 16  1  0  0  0  0
  1  6  1  0  0  0  0
  4 20  1  0  0  0  0
  5 17  1  0  0  0  0
  5 27  1  1  0  0  0
  6 23  1  0  0  0  0
  8  7  1  6  0  0  0
  8 14  1  0  0  0  0
  8 10  1  0  0  0  0
  8  2  1  0  0  0  0
  9 18  2  0  0  0  0
  9 13  1  0  0  0  0
 10 28  1  0  0  0  0
 10 26  1  0  0  0  0
 12 25  1  0  0  0  0
 12 24  1  0  0  0  0
 14  9  1  0  0  0  0
 15 11  2  0  0  0  0
 16 28  1  0  0  0  0
 17  3  1  0  0  0  0
 19 15  1  0  0  0  0
 19 25  1  0  0  0  0
 20 16  2  0  0  0  0
 21  1  2  0  0  0  0
 22  4  2  0  0  0  0
 22 21  1  0  0  0  0
 23 15  1  0  0  0  0
 24  5  1  0  0  0  0
 25 17  1  0  0  0  0
 26 13  1  0  0  0  0
 26 24  1  0  0  0  0
 28 12  1  0  0  0  0
M  END
>  <MODEL>
2

>  <REMARK>
 VINA RESULT:      -5.5      2.543      5.133
  Name = 
  0 active torsions:
  status: ('A' for Active; 'I' for Inactive)
                            x       y       z     vdW  Elec       q    Type
                         _______ _______ _______ _____ _____    ______ ____

>  <TORSDO>
F 0

$$$$
=
 OpenBabel11122412013D

 28 32  0  0  1  0  0  0  0  0999 V2000
  190.2490  176.9520  138.0440 C   0  0  0  0  0  0  0  0  0  0  0  0
  189.6420  173.5900  137.5140 O   0  0  0  0  0  1  0  0  0  0  0  0
  195.2740  175.6380  134.5940 C   0  0  0  0  0  1  0  0  0  0  0  0
  188.5980  178.6200  136.5000 C   0  0  0  0  0  3  0  0  0  0  0  0
  193.6530  173.8470  135.1920 C   0  0  2  0  0  3  0  0  0  0  0  0
  191.1250  176.1310  138.9450 C   0  0  0  0  0  2  0  0  0  0  0  0
  187.8830  174.7560  136.4250 C   0  0  0  0  0  1  0  0  0  0  0  0
  189.0860  173.8480  136.2580 C   0  0  1  0  0  0  0  0  0  0  0  0
  189.4970  171.7270  135.0790 C   0  0  0  0  0  0  0  0  0  0  0  0
  190.1360  174.4840  135.3110 C   0  0  2  0  0  3  0  0  0  0  0  0
  194.3800  175.6380  139.0890 O   0  0  0  0  0  0  0  0  0  0  0  0
  192.1630  175.1410  136.4490 C   0  0  1  0  0  3  0  0  0  0  0  0
  190.9620  172.0140  135.0240 C   0  0  0  0  0  2  0  0  0  0  0  0
  188.6250  172.6280  135.6880 O   0  0  0  0  0  0  0  0  0  0  0  0
  193.5660  176.4480  138.5760 C   0  0  0  0  0  0  0  0  0  0  0  0
  190.1560  176.7540  136.6370 C   0  0  0  0  0  0  0  0  0  0  0  0
  194.4240  175.0500  135.7020 C   0  0  2  0  0  3  0  0  0  0  0  0
  189.0420  170.6220  134.5940 N   0  0  0  0  0  2  0  0  0  0  0  0
  193.7270  176.8620  137.2170 N   0  0  0  0  0  2  0  0  0  0  0  0
  189.3330  177.6050  135.8870 C   0  0  0  0  0  3  0  0  0  0  0  0
  189.5020  177.9750  138.6440 C   0  0  0  0  0  3  0  0  0  0  0  0
  188.6800  178.8030  137.8790 C   0  0  0  0  0  3  0  0  0  0  0  0
  192.3770  176.9050  139.3560 C   0  0  0  0  0  2  0  0  0  0  0  0
  192.3890  173.7950  135.9240 N   0  0  1  0  0  0  0  0  0  0  0  0
  193.3400  176.0190  136.0870 C   0  0  2  0  0  3  0  0  0  0  0  0
  191.2940  173.5150  134.9930 C   0  0  2  0  0  3  0  0  0  0  0  0
  194.4480  172.5800  135.4460 C   0  0  0  0  0  1  0  0  0  0  0  0
  190.8940  175.6880  135.8550 C   0  0  2  0  0  3  0  0  0  0  0  0
  1 21  1  0  0  0  0
  1  6  1  0  0  0  0
  3 17  1  0  0  0  0
  4 22  1  0  0  0  0
  5 27  1  1  0  0  0
  5 17  1  0  0  0  0
  5 24  1  0  0  0  0
  6 23  1  0  0  0  0
  8  7  1  1  0  0  0
  8  2  1  0  0  0  0
  9 14  1  0  0  0  0
 10 28  1  0  0  0  0
 10  8  1  0  0  0  0
 13  9  1  0  0  0  0
 14  8  1  0  0  0  0
 15 11  2  0  0  0  0
 15 23  1  0  0  0  0
 16  1  2  0  0  0  0
 17 25  1  0  0  0  0
 18  9  2  0  0  0  0
 19 15  1  0  0  0  0
 20  4  2  0  0  0  0
 20 16  1  0  0  0  0
 22 21  2  0  0  0  0
 24 12  1  0  0  0  0
 25 12  1  0  0  0  0
 25 19  1  0  0  0  0
 26 13  1  0  0  0  0
 26 10  1  0  0  0  0
 26 24  1  0  0  0  0
 28 12  1  0  0  0  0
 28 16  1  0  0  0  0
M  END
>  <MODEL>
3

>  <REMARK>
 VINA RESULT:      -5.5      7.243     10.295
  Name = 
  0 active torsions:
  status: ('A' for Active; 'I' for Inactive)
                            x       y       z     vdW  Elec       q    Type
                         _______ _______ _______ _____ _____    ______ ____

>  <TORSDO>
F 0

$$$$
=
 OpenBabel11122412013D

 28 32  0  0  1  0  0  0  0  0999 V2000
  181.9230  178.6240  140.4520 C   0  0  0  0  0  0  0  0  0  0  0  0
  182.0030  175.3090  139.4730 O   0  0  0  0  0  1  0  0  0  0  0  0
  186.9590  178.8640  136.7830 C   0  0  0  0  0  1  0  0  0  0  0  0
  179.8980  180.0950  139.1760 C   0  0  0  0  0  3  0  0  0  0  0  0
  185.7710  176.7090  137.1520 C   0  0  2  0  0  3  0  0  0  0  0  0
  182.9880  177.8950  141.2190 C   0  0  0  0  0  2  0  0  0  0  0  0
  179.9950  176.2100  138.5800 C   0  0  0  0  0  1  0  0  0  0  0  0
  181.3520  175.6070  138.2730 C   0  0  1  0  0  0  0  0  0  0  0  0
  182.1420  173.7940  136.8080 C   0  0  0  0  0  0  0  0  0  0  0  0
  182.2060  176.5690  137.4070 C   0  0  2  0  0  3  0  0  0  0  0  0
  186.2780  178.0840  141.2480 O   0  0  0  0  0  0  0  0  0  0  0  0
  184.1000  177.4830  138.5960 C   0  0  1  0  0  3  0  0  0  0  0  0
  183.5130  174.3880  136.7720 C   0  0  0  0  0  2  0  0  0  0  0  0
  181.1300  174.4030  137.5470 O   0  0  0  0  0  0  0  0  0  0  0  0
  185.2920  178.7650  140.8630 C   0  0  0  0  0  0  0  0  0  0  0  0
  181.8130  178.5970  139.0330 C   0  0  0  0  0  0  0  0  0  0  0  0
  186.2970  177.9690  137.8120 C   0  0  2  0  0  3  0  0  0  0  0  0
  181.9050  172.6910  136.1820 N   0  0  0  0  0  2  0  0  0  0  0  0
  185.3050  179.3780  139.5720 N   0  0  0  0  0  2  0  0  0  0  0  0
  180.8010  179.3470  138.4180 C   0  0  0  0  0  3  0  0  0  0  0  0
  181.0060  179.3780  141.1980 C   0  0  0  0  0  3  0  0  0  0  0  0
  180.0000  180.1080  140.5650 C   0  0  0  0  0  3  0  0  0  0  0  0
  184.0690  178.8550  141.7150 C   0  0  0  0  0  2  0  0  0  0  0  0
  184.5770  176.2960  137.8880 N   0  0  1  0  0  0  0  0  0  0  0  0
  185.0540  178.6280  138.3420 C   0  0  2  0  0  3  0  0  0  0  0  0
  183.5250  175.9160  136.9430 C   0  0  2  0  0  3  0  0  0  0  0  0
  186.8210  175.6150  137.2190 C   0  0  0  0  0  1  0  0  0  0  0  0
  182.7210  177.8220  138.1010 C   0  0  2  0  0  3  0  0  0  0  0  0
  1 21  1  0  0  0  0
  1  6  1  0  0  0  0
  3 17  1  0  0  0  0
  4 22  1  0  0  0  0
  5 27  1  1  0  0  0
  5 17  1  0  0  0  0
  5 24  1  0  0  0  0
  6 23  1  0  0  0  0
  8  7  1  1  0  0  0
  8  2  1  0  0  0  0
  9 14  1  0  0  0  0
 10 28  1  0  0  0  0
 10  8  1  0  0  0  0
 13  9  1  0  0  0  0
 13 26  1  0  0  0  0
 14  8  1  0  0  0  0
 15 11  2  0  0  0  0
 15 23  1  0  0  0  0
 16  1  2  0  0  0  0
 17 25  1  0  0  0  0
 18  9  2  0  0  0  0
 19 15  1  0  0  0  0
 20 16  1  0  0  0  0
 20  4  2  0  0  0  0
 22 21  2  0  0  0  0
 24 12  1  0  0  0  0
 25 12  1  0  0  0  0
 25 19  1  0  0  0  0
 26 10  1  0  0  0  0
 26 24  1  0  0  0  0
 28 12  1  0  0  0  0
 28 16  1  0  0  0  0
M  END
>  <MODEL>
4

>  <REMARK>
 VINA RESULT:      -5.4      2.483      4.764
  Name = 
  0 active torsions:
  status: ('A' for Active; 'I' for Inactive)
                            x       y       z     vdW  Elec       q    Type
                         _______ _______ _______ _____ _____    ______ ____

>  <TORSDO>
F 0

$$$$
=
 OpenBabel11122412013D

 28 32  0  0  1  0  0  0  0  0999 V2000
  183.2700  176.9220  137.2020 C   0  0  0  0  0  0  0  0  0  0  0  0
  185.0090  173.9680  137.6590 O   0  0  0  0  0  1  0  0  0  0  0  0
  189.0560  179.2480  137.2170 C   0  0  0  0  0  1  0  0  0  0  0  0
  182.2680  177.2110  134.5940 C   0  0  0  0  0  3  0  0  0  0  0  0
  188.6750  176.8130  137.5660 C   0  0  2  0  0  3  0  0  0  0  0  0
  183.7200  176.8150  138.6300 C   0  0  0  0  0  2  0  0  0  0  0  0
  183.9450  173.7850  135.5430 C   0  0  0  0  0  1  0  0  0  0  0  0
  185.2630  173.8600  136.2890 C   0  0  1  0  0  0  0  0  0  0  0  0
  187.3370  172.5360  136.2640 C   0  0  0  0  0  0  0  0  0  0  0  0
  186.1160  175.0560  135.7910 C   0  0  2  0  0  3  0  0  0  0  0  0
  185.8890  178.5050  140.4460 O   0  0  0  0  0  0  0  0  0  0  0  0
  186.3390  176.8100  137.4370 C   0  0  1  0  0  3  0  0  0  0  0  0
  188.1110  173.6940  136.8070 C   0  0  0  0  0  2  0  0  0  0  0  0
  185.9670  172.6500  136.0350 O   0  0  0  0  0  0  0  0  0  0  0  0
  185.2570  178.6290  139.3650 C   0  0  0  0  0  0  0  0  0  0  0  0
  184.1400  176.7630  136.0860 C   0  0  0  0  0  0  0  0  0  0  0  0
  188.2050  178.2100  137.9220 C   0  0  2  0  0  3  0  0  0  0  0  0
  187.9340  171.4140  136.0420 N   0  0  0  0  0  2  0  0  0  0  0  0
  185.9250  179.1020  138.1940 N   0  0  0  0  0  2  0  0  0  0  0  0
  183.6190  176.9230  134.7940 C   0  0  0  0  0  3  0  0  0  0  0  0
  181.9160  177.2090  136.9820 C   0  0  0  0  0  3  0  0  0  0  0  0
  181.4170  177.3510  135.6870 C   0  0  0  0  0  3  0  0  0  0  0  0
  183.8310  178.1930  139.2810 C   0  0  0  0  0  2  0  0  0  0  0  0
  187.5040  175.9390  137.5850 N   0  0  1  0  0  0  0  0  0  0  0  0
  186.8000  178.2500  137.3890 C   0  0  2  0  0  3  0  0  0  0  0  0
  187.5280  175.0610  136.4140 C   0  0  2  0  0  3  0  0  0  0  0  0
  189.6910  176.3360  138.5870 C   0  0  0  0  0  1  0  0  0  0  0  0
  185.6170  176.4440  136.1690 C   0  0  2  0  0  3  0  0  0  0  0  0
  1  6  1  0  0  0  0
  3 17  1  0  0  0  0
  4 20  2  0  0  0  0
  4 22  1  0  0  0  0
  5 24  1  0  0  0  0
  5 17  1  0  0  0  0
  5 27  1  1  0  0  0
  6 23  1  0  0  0  0
  8  7  1  6  0  0  0
  8  2  1  0  0  0  0
  9 13  1  0  0  0  0
 10 28  1  0  0  0  0
 10  8  1  0  0  0  0
 10 26  1  0  0  0  0
 12 24  1  0  0  0  0
 14  9  1  0  0  0  0
 14  8  1  0  0  0  0
 15 11  2  0  0  0  0
 16 28  1  0  0  0  0
 16  1  2  0  0  0  0
 18  9  2  0  0  0  0
 19 15  1  0  0  0  0
 20 16  1  0  0  0  0
 21  1  1  0  0  0  0
 22 21  2  0  0  0  0
 23 15  1  0  0  0  0
 25 12  1  0  0  0  0
 25 17  1  0  0  0  0
 25 19  1  0  0  0  0
 26 13  1  0  0  0  0
 26 24  1  0  0  0  0
 28 12  1  0  0  0  0
M  END
>  <MODEL>
5

>  <REMARK>
 VINA RESULT:      -5.4      3.168      5.939
  Name = 
  0 active torsions:
  status: ('A' for Active; 'I' for Inactive)
                            x       y       z     vdW  Elec       q    Type
                         _______ _______ _______ _____ _____    ______ ____

>  <TORSDO>
F 0

$$$$
=
 OpenBabel11122412013D

 28 32  0  0  1  0  0  0  0  0999 V2000
  182.9980  178.0930  137.8930 C   0  0  0  0  0  0  0  0  0  0  0  0
  183.2670  174.6750  138.3440 O   0  0  0  0  0  1  0  0  0  0  0  0
  188.5410  177.2330  135.1680 C   0  0  0  0  0  1  0  0  0  0  0  0
  181.1810  178.7920  135.8680 C   0  0  0  0  0  3  0  0  0  0  0  0
  187.3340  175.3180  136.2010 C   0  0  2  0  0  3  0  0  0  0  0  0
  183.9390  177.8040  139.0260 C   0  0  0  0  0  2  0  0  0  0  0  0
  181.4120  175.0050  136.8960 C   0  0  0  0  0  1  0  0  0  0  0  0
  182.8070  174.4290  137.0460 C   0  0  1  0  0  0  0  0  0  0  0  0
  183.8360  172.2480  136.5540 C   0  0  0  0  0  0  0  0  0  0  0  0
  183.7740  175.0320  135.9960 C   0  0  2  0  0  3  0  0  0  0  0  0
  187.1820  178.2270  139.4310 O   0  0  0  0  0  0  0  0  0  0  0  0
  185.4500  176.4750  136.9690 C   0  0  1  0  0  3  0  0  0  0  0  0
  185.1890  172.8780  136.4730 C   0  0  0  0  0  2  0  0  0  0  0  0
  182.7140  173.0240  136.8400 O   0  0  0  0  0  0  0  0  0  0  0  0
  186.2610  178.6280  138.6740 C   0  0  0  0  0  0  0  0  0  0  0  0
  183.1100  177.5020  136.6020 C   0  0  0  0  0  0  0  0  0  0  0  0
  187.7370  176.7700  136.3670 C   0  0  2  0  0  3  0  0  0  0  0  0
  183.7120  170.9740  136.3950 N   0  0  0  0  0  2  0  0  0  0  0  0
  186.4680  178.6820  137.2610 N   0  0  0  0  0  2  0  0  0  0  0  0
  182.1980  177.8740  135.6060 C   0  0  0  0  0  3  0  0  0  0  0  0
  181.9680  179.0110  138.1400 C   0  0  0  0  0  3  0  0  0  0  0  0
  181.0640  179.3580  137.1360 C   0  0  0  0  0  3  0  0  0  0  0  0
  184.9190  178.9570  139.2410 C   0  0  0  0  0  2  0  0  0  0  0  0
  186.0450  175.1420  136.8680 N   0  0  1  0  0  0  0  0  0  0  0  0
  186.4190  177.4930  136.4120 C   0  0  2  0  0  3  0  0  0  0  0  0
  185.1570  174.3460  136.0180 C   0  0  2  0  0  3  0  0  0  0  0  0
  188.3730  174.4180  136.8440 C   0  0  0  0  0  1  0  0  0  0  0  0
  184.1620  176.4910  136.1940 C   0  0  2  0  0  3  0  0  0  0  0  0
  1 21  1  0  0  0  0
  1  6  1  0  0  0  0
  3 17  1  0  0  0  0
  4 22  1  0  0  0  0
  5 17  1  0  0  0  0
  5 27  1  1  0  0  0
  5 24  1  0  0  0  0
  6 23  1  0  0  0  0
  8  7  1  6  0  0  0
  8  2  1  0  0  0  0
  9 14  1  0  0  0  0
 10 26  1  0  0  0  0
 10 28  1  0  0  0  0
 10  8  1  0  0  0  0
 13  9  1  0  0  0  0
 14  8  1  0  0  0  0
 15 23  1  0  0  0  0
 15 11  2  0  0  0  0
 16  1  2  0  0  0  0
 17 25  1  0  0  0  0
 18  9  2  0  0  0  0
 19 15  1  0  0  0  0
 20  4  2  0  0  0  0
 20 16  1  0  0  0  0
 22 21  2  0  0  0  0
 24 12  1  0  0  0  0
 25 12  1  0  0  0  0
 25 19  1  0  0  0  0
 26 13  1  0  0  0  0
 26 24  1  0  0  0  0
 28 16  1  0  0  0  0
 28 12  1  0  0  0  0
M  END
>  <MODEL>
6

>  <REMARK>
 VINA RESULT:      -5.3      3.089      5.449
  Name = 
  0 active torsions:
  status: ('A' for Active; 'I' for Inactive)
                            x       y       z     vdW  Elec       q    Type
                         _______ _______ _______ _____ _____    ______ ____

>  <TORSDO>
F 0

$$$$
=
 OpenBabel11122412013D

 28 32  0  0  1  0  0  0  0  0999 V2000
  188.1730  177.5050  136.6850 C   0  0  0  0  0  0  0  0  0  0  0  0
  189.8880  175.2550  134.6960 O   0  0  0  0  0  1  0  0  0  0  0  0
  184.5460  172.5150  137.5930 C   0  0  0  0  0  1  0  0  0  0  0  0
  189.4770  178.0330  139.1160 C   0  0  0  0  0  3  0  0  0  0  0  0
  186.5040  172.3870  136.0620 C   0  0  2  0  0  3  0  0  0  0  0  0
  187.4460  177.3210  135.3840 C   0  0  0  0  0  2  0  0  0  0  0  0
  191.3660  175.8290  136.4650 C   0  0  0  0  0  1  0  0  0  0  0  0
  190.5600  174.7280  135.8030 C   0  0  1  0  0  0  0  0  0  0  0  0
  191.0590  172.4400  135.0470 C   0  0  0  0  0  0  0  0  0  0  0  0
  189.5590  174.0930  136.8030 C   0  0  2  0  0  3  0  0  0  0  0  0
  184.5410  175.9810  134.5940 O   0  0  0  0  0  0  0  0  0  0  0  0
  187.2540  174.5930  136.2820 C   0  0  1  0  0  3  0  0  0  0  0  0
  189.6150  172.0690  135.1390 C   0  0  0  0  0  2  0  0  0  0  0  0
  191.4760  173.7310  135.3660 O   0  0  0  0  0  0  0  0  0  0  0  0
  185.1420  176.4080  135.6130 C   0  0  0  0  0  0  0  0  0  0  0  0
  188.5850  176.4270  137.5190 C   0  0  0  0  0  0  0  0  0  0  0  0
  185.3160  173.2240  136.4960 C   0  0  2  0  0  3  0  0  0  0  0  0
  191.9190  171.5720  134.6340 N   0  0  0  0  0  2  0  0  0  0  0  0
  185.1170  175.6550  136.8280 N   0  0  0  0  0  2  0  0  0  0  0  0
  189.2240  176.7160  138.7320 C   0  0  0  0  0  3  0  0  0  0  0  0
  188.4380  178.8220  137.0840 C   0  0  0  0  0  3  0  0  0  0  0  0
  189.0870  179.0860  138.2910 C   0  0  0  0  0  3  0  0  0  0  0  0
  185.9610  177.6540  135.5280 C   0  0  0  0  0  2  0  0  0  0  0  0
  187.5620  173.3090  135.6530 N   0  0  1  0  0  0  0  0  0  0  0  0
  185.9500  174.4730  137.0390 C   0  0  2  0  0  3  0  0  0  0  0  0
  188.8430  172.8640  136.2050 C   0  0  2  0  0  3  0  0  0  0  0  0
  186.1120  171.5010  134.8950 C   0  0  0  0  0  1  0  0  0  0  0  0
  188.3760  174.9580  137.2140 C   0  0  2  0  0  3  0  0  0  0  0  0
  1 21  2  0  0  0  0
  1 16  1  0  0  0  0
  2  8  1  0  0  0  0
  5 27  1  6  0  0  0
  5 17  1  0  0  0  0
  6 23  1  0  0  0  0
  6  1  1  0  0  0  0
  8  7  1  1  0  0  0
  8 10  1  0  0  0  0
  9 13  1  0  0  0  0
  9 14  1  0  0  0  0
 10 28  1  0  0  0  0
 11 15  2  0  0  0  0
 12 25  1  0  0  0  0
 12 28  1  0  0  0  0
 13 26  1  0  0  0  0
 14  8  1  0  0  0  0
 15 19  1  0  0  0  0
 16 20  2  0  0  0  0
 17 25  1  0  0  0  0
 17  3  1  0  0  0  0
 18  9  2  0  0  0  0
 19 25  1  0  0  0  0
 20  4  1  0  0  0  0
 21 22  1  0  0  0  0
 22  4  2  0  0  0  0
 23 15  1  0  0  0  0
 24  5  1  0  0  0  0
 24 26  1  0  0  0  0
 24 12  1  0  0  0  0
 26 10  1  0  0  0  0
 28 16  1  0  0  0  0
M  END
>  <MODEL>
7

>  <REMARK>
 VINA RESULT:      -5.3      5.228      7.278
  Name = 
  0 active torsions:
  status: ('A' for Active; 'I' for Inactive)
                            x       y       z     vdW  Elec       q    Type
                         _______ _______ _______ _____ _____    ______ ____

>  <TORSDO>
F 0

$$$$
=
 OpenBabel11122412013D

 28 32  0  0  1  0  0  0  0  0999 V2000
  188.0770  176.2620  136.5510 C   0  0  0  0  0  0  0  0  0  0  0  0
  189.0510  176.0090  139.8590 O   0  0  0  0  0  1  0  0  0  0  0  0
  183.7970  180.0350  139.0670 C   0  0  0  0  0  1  0  0  0  0  0  0
  189.8000  177.8700  135.0210 C   0  0  0  0  0  3  0  0  0  0  0  0
  185.4530  178.8670  140.5120 C   0  0  2  0  0  3  0  0  0  0  0  0
  187.1440  175.3430  137.2850 C   0  0  0  0  0  2  0  0  0  0  0  0
  190.8530  177.0580  138.7200 C   0  0  0  0  0  1  0  0  0  0  0  0
  189.7750  177.2020  139.7780 C   0  0  1  0  0  0  0  0  0  0  0  0
  189.7430  177.9700  142.1150 C   0  0  0  0  0  0  0  0  0  0  0  0
  188.8370  178.3940  139.4570 C   0  0  2  0  0  3  0  0  0  0  0  0
  183.9630  175.5530  138.1190 O   0  0  0  0  0  0  0  0  0  0  0  0
  186.6060  177.7050  138.8400 C   0  0  1  0  0  3  0  0  0  0  0  0
  188.2850  178.2850  142.0170 C   0  0  0  0  0  2  0  0  0  0  0  0
  190.4250  177.4430  141.0200 O   0  0  0  0  0  0  0  0  0  0  0  0
  184.7750  176.1030  137.3300 C   0  0  0  0  0  0  0  0  0  0  0  0
  188.4090  177.5730  136.9980 C   0  0  0  0  0  0  0  0  0  0  0  0
  184.5090  178.7230  139.3330 C   0  0  2  0  0  3  0  0  0  0  0  0
  190.3640  178.1530  143.2310 N   0  0  0  0  0  2  0  0  0  0  0  0
  184.7960  177.5260  137.2000 N   0  0  0  0  0  2  0  0  0  0  0  0
  189.2630  178.3590  136.2120 C   0  0  0  0  0  3  0  0  0  0  0  0
  188.6280  175.7850  135.3530 C   0  0  0  0  0  3  0  0  0  0  0  0
  189.4850  176.5820  134.5940 C   0  0  0  0  0  3  0  0  0  0  0  0
  185.7800  175.2750  136.5980 C   0  0  0  0  0  2  0  0  0  0  0  0
  186.5840  177.9720  140.2770 N   0  0  1  0  0  0  0  0  0  0  0  0
  185.4290  178.3970  138.1890 C   0  0  2  0  0  3  0  0  0  0  0  0
  187.8330  178.6660  140.5970 C   0  0  2  0  0  3  0  0  0  0  0  0
  184.7410  178.4730  141.7930 C   0  0  0  0  0  1  0  0  0  0  0  0
  187.9010  178.2160  138.2700 C   0  0  2  0  0  3  0  0  0  0  0  0
  1 16  1  0  0  0  0
  1  6  1  0  0  0  0
  3 17  1  0  0  0  0
  4 20  1  0  0  0  0
  5 27  1  1  0  0  0
  8  7  1  6  0  0  0
  8  2  1  0  0  0  0
  8 14  1  0  0  0  0
  9 18  2  0  0  0  0
 10  8  1  0  0  0  0
 10 26  1  0  0  0  0
 12 24  1  0  0  0  0
 13  9  1  0  0  0  0
 14  9  1  0  0  0  0
 15 11  2  0  0  0  0
 16 28  1  0  0  0  0
 17  5  1  0  0  0  0
 19 15  1  0  0  0  0
 19 25  1  0  0  0  0
 20 16  2  0  0  0  0
 21  1  2  0  0  0  0
 22  4  2  0  0  0  0
 22 21  1  0  0  0  0
 23  6  1  0  0  0  0
 23 15  1  0  0  0  0
 24  5  1  0  0  0  0
 24 26  1  0  0  0  0
 25 12  1  0  0  0  0
 25 17  1  0  0  0  0
 26 13  1  0  0  0  0
 28 12  1  0  0  0  0
 28 10  1  0  0  0  0
M  END
>  <MODEL>
8

>  <REMARK>
 VINA RESULT:      -5.2      3.249      6.822
  Name = 
  0 active torsions:
  status: ('A' for Active; 'I' for Inactive)
                            x       y       z     vdW  Elec       q    Type
                         _______ _______ _______ _____ _____    ______ ____

>  <TORSDO>
F 0

$$$$
=
 OpenBabel11122412013D

 28 32  0  0  1  0  0  0  0  0999 V2000
  182.6640  178.6790  138.9500 C   0  0  0  0  0  0  0  0  0  0  0  0
  182.4320  175.2290  138.9610 O   0  0  0  0  0  1  0  0  0  0  0  0
  187.6860  177.4030  135.4820 C   0  0  0  0  0  1  0  0  0  0  0  0
  180.7790  179.8980  137.2600 C   0  0  0  0  0  3  0  0  0  0  0  0
  186.3040  175.5600  136.4240 C   0  0  2  0  0  3  0  0  0  0  0  0
  183.6590  178.1070  139.9170 C   0  0  0  0  0  2  0  0  0  0  0  0
  180.5130  176.0140  137.8010 C   0  0  0  0  0  1  0  0  0  0  0  0
  181.8070  175.2280  137.7110 C   0  0  1  0  0  0  0  0  0  0  0  0
  182.4190  173.0080  136.8430 C   0  0  0  0  0  0  0  0  0  0  0  0
  182.7430  175.8210  136.6270 C   0  0  2  0  0  3  0  0  0  0  0  0
  186.9520  178.0000  139.9670 O   0  0  0  0  0  0  0  0  0  0  0  0
  184.7180  176.8630  137.5480 C   0  0  1  0  0  3  0  0  0  0  0  0
  183.8390  173.4410  136.6710 C   0  0  0  0  0  2  0  0  0  0  0  0
  181.4710  173.8920  137.3540 O   0  0  0  0  0  0  0  0  0  0  0  0
  186.0330  178.6280  139.3800 C   0  0  0  0  0  0  0  0  0  0  0  0
  182.5460  178.2560  137.5950 C   0  0  0  0  0  0  0  0  0  0  0  0
  186.9480  176.9040  136.7080 C   0  0  2  0  0  3  0  0  0  0  0  0
  182.0790  171.7980  136.5530 N   0  0  0  0  0  2  0  0  0  0  0  0
  186.0980  178.8410  137.9690 N   0  0  0  0  0  2  0  0  0  0  0  0
  181.6050  178.8870  136.7690 C   0  0  0  0  0  3  0  0  0  0  0  0
  181.8240  179.6940  139.4280 C   0  0  0  0  0  3  0  0  0  0  0  0
  180.8870  180.3000  138.5900 C   0  0  0  0  0  3  0  0  0  0  0  0
  184.8260  179.0680  140.1430 C   0  0  0  0  0  2  0  0  0  0  0  0
  185.0800  175.4840  137.2190 N   0  0  1  0  0  0  0  0  0  0  0  0
  185.7730  177.7970  136.9990 C   0  0  2  0  0  3  0  0  0  0  0  0
  183.9940  174.9460  136.3990 C   0  0  2  0  0  3  0  0  0  0  0  0
  187.2480  174.4420  136.8240 C   0  0  0  0  0  1  0  0  0  0  0  0
  183.3750  177.1690  136.9450 C   0  0  2  0  0  3  0  0  0  0  0  0
  1 21  1  0  0  0  0
  1  6  1  0  0  0  0
  3 17  1  0  0  0  0
  4 22  1  0  0  0  0
  5 17  1  0  0  0  0
  5 27  1  1  0  0  0
  5 24  1  0  0  0  0
  6 23  1  0  0  0  0
  8  7  1  1  0  0  0
  8  2  1  0  0  0  0
  9 14  1  0  0  0  0
 10 28  1  0  0  0  0
 10  8  1  0  0  0  0
 13  9  1  0  0  0  0
 14  8  1  0  0  0  0
 15 11  2  0  0  0  0
 15 23  1  0  0  0  0
 16  1  2  0  0  0  0
 17 25  1  0  0  0  0
 18  9  2  0  0  0  0
 19 15  1  0  0  0  0
 20  4  2  0  0  0  0
 20 16  1  0  0  0  0
 22 21  2  0  0  0  0
 24 12  1  0  0  0  0
 25 12  1  0  0  0  0
 25 19  1  0  0  0  0
 26 10  1  0  0  0  0
 26 13  1  0  0  0  0
 26 24  1  0  0  0  0
 28 12  1  0  0  0  0
 28 16  1  0  0  0  0
M  END
>  <MODEL>
9

>  <REMARK>
 VINA RESULT:      -5.1      2.716      5.014
  Name = 
  0 active torsions:
  status: ('A' for Active; 'I' for Inactive)
                            x       y       z     vdW  Elec       q    Type
                         _______ _______ _______ _____ _____    ______ ____

>  <TORSDO>
F 0

$$$$
