=
 OpenBabel11122411183D

 31 35  0  0  1  0  0  0  0  0999 V2000
  190.1670  176.2190  142.8240 C   0  0  0  0  0  0  0  0  0  0  0  0
  186.6800  177.1430  144.0480 C   0  0  2  0  0  3  0  0  0  0  0  0
  186.8950  177.8120  145.3930 C   0  0  0  0  0  0  0  0  0  0  0  0
  188.1610  178.0690  147.4530 C   0  0  0  0  0  0  0  0  0  0  0  0
  187.9270  177.0930  143.1860 C   0  0  0  0  0  0  0  0  0  0  0  0
  190.2850  176.9860  141.6640 C   0  0  0  0  0  3  0  0  0  0  0  0
  188.0110  177.5020  146.1840 C   0  0  0  0  0  3  0  0  0  0  0  0
  185.8520  178.9930  142.4860 C   0  0  2  0  0  3  0  0  0  0  0  0
  191.1910  175.4260  143.2190 F   0  0  0  0  0  0  0  0  0  0  0  0
  184.7010  179.0010  145.0910 C   0  0  0  0  0  2  0  0  0  0  0  0
  189.2780  177.7670  148.2200 O   0  0  0  0  0  1  0  0  0  0  0  0
  186.8930  178.6280  141.4350 C   0  0  0  0  0  2  0  0  0  0  0  0
  185.4700  177.7460  143.3010 C   0  0  2  0  0  3  0  0  0  0  0  0
  188.9920  176.2690  143.5760 C   0  0  0  0  0  3  0  0  0  0  0  0
  187.1860  178.9360  147.9500 C   0  0  0  0  0  3  0  0  0  0  0  0
  188.0470  177.8600  142.0040 C   0  0  0  0  0  0  0  0  0  0  0  0
  189.2250  177.7940  141.2510 C   0  0  0  0  0  3  0  0  0  0  0  0
  184.3800  177.9660  144.1810 O   0  0  0  0  0  0  0  0  0  0  0  0
  185.8990  178.6520  145.9200 C   0  0  0  0  0  0  0  0  0  0  0  0
  186.0560  179.2290  147.1840 C   0  0  0  0  0  3  0  0  0  0  0  0
  183.9700  177.5000  140.9480 O   0  0  0  0  0  0  0  0  0  0  0  0
  183.7630  178.7370  141.0860 C   0  0  0  0  0  0  0  0  0  0  0  0
  184.6730  179.5440  141.8340 N   0  0  0  0  0  2  0  0  0  0  0  0
  181.3080  177.9320  138.1890 C   0  0  1  0  0  3  0  0  0  0  0  0
  181.3050  178.5190  140.6220 C   0  0  0  0  0  2  0  0  0  0  0  0
  183.2380  180.8290  138.7190 O   0  0  0  0  0  0  0  0  0  0  0  0
  181.1970  176.7960  137.1950 C   0  0  0  0  0  1  0  0  0  0  0  0
  181.2590  177.3750  139.6090 C   0  0  0  0  0  2  0  0  0  0  0  0
  182.8120  179.7260  139.0180 C   0  0  0  0  0  0  0  0  0  0  0  0
  182.5640  179.3800  140.4610 C   0  0  2  0  0  3  0  0  0  0  0  0
  182.6140  178.6860  137.9540 C   0  0  0  0  0  2  0  0  0  0  0  0
  1  9  1  0  0  0  0
  1 14  1  0  0  0  0
  2  5  1  6  0  0  0
  2  3  1  0  0  0  0
  3 19  2  0  0  0  0
  3  7  1  0  0  0  0
  4 15  1  0  0  0  0
  4 11  1  0  0  0  0
  5 14  2  0  0  0  0
  6  1  2  0  0  0  0
  7  4  2  0  0  0  0
  8 23  1  6  0  0  0
  8 13  1  0  0  0  0
 10 19  1  0  0  0  0
 12 16  1  0  0  0  0
 12  8  1  0  0  0  0
 13  2  1  0  0  0  0
 13 18  1  1  0  0  0
 16  5  1  0  0  0  0
 17  6  1  0  0  0  0
 17 16  2  0  0  0  0
 18 10  1  0  0  0  0
 19 20  1  0  0  0  0
 20 15  2  0  0  0  0
 21 22  2  0  0  0  0
 22 23  1  0  0  0  0
 24 27  1  6  0  0  0
 24 28  1  0  0  0  0
 26 29  2  0  0  0  0
 28 25  1  0  0  0  0
 29 30  1  0  0  0  0
 30 25  1  0  0  0  0
 30 22  1  6  0  0  0
 31 24  1  0  0  0  0
 31 29  1  0  0  0  0
M  END
>  <MODEL>
1

>  <REMARK>
 VINA RESULT:      -9.9      0.000      0.000
  Name = 
  2 active torsions:
  status: ('A' for Active; 'I' for Inactive)
    1  A    between atoms: C_5  and  C_30
    2  A    between atoms: C_10  and  N_16
                            x       y       z     vdW  Elec       q    Type
                         _______ _______ _______ _____ _____    ______ ____

>  <TORSDO>
F 2

$$$$
=
 OpenBabel11122411183D

 31 35  0  0  1  0  0  0  0  0999 V2000
  191.2840  176.5370  144.4450 C   0  0  0  0  0  0  0  0  0  0  0  0
  187.5430  176.9720  143.8760 C   0  0  2  0  0  3  0  0  0  0  0  0
  187.0410  177.7270  145.0930 C   0  0  0  0  0  0  0  0  0  0  0  0
  187.1870  178.2690  147.4600 C   0  0  0  0  0  0  0  0  0  0  0  0
  189.0420  177.0730  143.6710 C   0  0  0  0  0  0  0  0  0  0  0  0
  191.8300  177.2590  143.3820 C   0  0  0  0  0  3  0  0  0  0  0  0
  187.7000  177.6280  146.3280 C   0  0  0  0  0  3  0  0  0  0  0  0
  187.3120  178.6000  141.9160 C   0  0  2  0  0  3  0  0  0  0  0  0
  192.0990  175.9290  145.3400 F   0  0  0  0  0  0  0  0  0  0  0  0
  185.1060  178.5510  143.7160 C   0  0  0  0  0  2  0  0  0  0  0  0
  187.8570  178.1770  148.6720 O   0  0  0  0  0  1  0  0  0  0  0  0
  188.7520  178.3510  141.4860 C   0  0  0  0  0  2  0  0  0  0  0  0
  186.7470  177.3480  142.6070 C   0  0  2  0  0  3  0  0  0  0  0  0
  189.8980  176.4410  144.5840 C   0  0  0  0  0  3  0  0  0  0  0  0
  186.0000  178.9980  147.3710 C   0  0  0  0  0  3  0  0  0  0  0  0
  189.6000  177.7950  142.5910 C   0  0  0  0  0  0  0  0  0  0  0  0
  190.9900  177.8760  142.4540 C   0  0  0  0  0  3  0  0  0  0  0  0
  185.3580  177.4390  142.8790 O   0  0  0  0  0  0  0  0  0  0  0  0
  185.8250  178.4280  145.0250 C   0  0  0  0  0  0  0  0  0  0  0  0
  185.3190  179.0800  146.1540 C   0  0  0  0  0  3  0  0  0  0  0  0
  187.6360  177.4800  139.3120 O   0  0  0  0  0  0  0  0  0  0  0  0
  186.7140  178.3260  139.4750 C   0  0  0  0  0  0  0  0  0  0  0  0
  186.5070  178.9340  140.7510 N   0  0  0  0  0  2  0  0  0  0  0  0
  183.7280  176.7610  137.5520 C   0  0  1  0  0  3  0  0  0  0  0  0
  184.3650  178.8560  138.7650 C   0  0  0  0  0  2  0  0  0  0  0  0
  186.7780  177.9890  136.2900 O   0  0  0  0  0  0  0  0  0  0  0  0
  182.9810  175.4490  137.6650 C   0  0  0  0  0  1  0  0  0  0  0  0
  183.6690  177.4990  138.8870 C   0  0  0  0  0  2  0  0  0  0  0  0
  185.9700  177.7610  137.1760 C   0  0  0  0  0  0  0  0  0  0  0  0
  185.8290  178.7140  138.3310 C   0  0  2  0  0  3  0  0  0  0  0  0
  185.1760  176.4880  137.1540 C   0  0  0  0  0  2  0  0  0  0  0  0
  1 14  1  0  0  0  0
  1  9  1  0  0  0  0
  2  5  1  6  0  0  0
  2  3  1  0  0  0  0
  3  7  1  0  0  0  0
  4 11  1  0  0  0  0
  5 14  2  0  0  0  0
  6  1  2  0  0  0  0
  7  4  2  0  0  0  0
  8 23  1  6  0  0  0
  8 13  1  0  0  0  0
 10 19  1  0  0  0  0
 12  8  1  0  0  0  0
 12 16  1  0  0  0  0
 13 18  1  1  0  0  0
 13  2  1  0  0  0  0
 15  4  1  0  0  0  0
 16  5  1  0  0  0  0
 17 16  2  0  0  0  0
 17  6  1  0  0  0  0
 18 10  1  0  0  0  0
 19  3  2  0  0  0  0
 19 20  1  0  0  0  0
 20 15  2  0  0  0  0
 21 22  2  0  0  0  0
 22 23  1  0  0  0  0
 24 27  1  1  0  0  0
 24 28  1  0  0  0  0
 25 28  1  0  0  0  0
 26 29  2  0  0  0  0
 29 30  1  0  0  0  0
 30 25  1  0  0  0  0
 30 22  1  1  0  0  0
 31 29  1  0  0  0  0
 31 24  1  0  0  0  0
M  END
>  <MODEL>
2

>  <REMARK>
 VINA RESULT:      -9.8      2.094      2.436
  Name = 
  2 active torsions:
  status: ('A' for Active; 'I' for Inactive)
    1  A    between atoms: C_5  and  C_30
    2  A    between atoms: C_10  and  N_16
                            x       y       z     vdW  Elec       q    Type
                         _______ _______ _______ _____ _____    ______ ____

>  <TORSDO>
F 2

$$$$
=
 OpenBabel11122411183D

 31 35  0  0  1  0  0  0  0  0999 V2000
  190.2000  176.8970  146.2690 C   0  0  0  0  0  0  0  0  0  0  0  0
  187.6390  177.1860  143.4640 C   0  0  2  0  0  3  0  0  0  0  0  0
  186.5150  178.0290  144.0360 C   0  0  0  0  0  0  0  0  0  0  0  0
  185.1760  178.7740  145.9250 C   0  0  0  0  0  0  0  0  0  0  0  0
  188.9430  177.3080  144.2280 C   0  0  0  0  0  0  0  0  0  0  0  0
  191.3110  177.5400  145.7220 C   0  0  0  0  0  3  0  0  0  0  0  0
  186.2600  178.0530  145.4160 C   0  0  0  0  0  3  0  0  0  0  0  0
  188.7320  178.6340  141.6590 C   0  0  2  0  0  3  0  0  0  0  0  0
  190.2600  176.3890  147.5230 F   0  0  0  0  0  0  0  0  0  0  0  0
  185.8850  178.6830  141.6920 C   0  0  0  0  0  2  0  0  0  0  0  0
  184.9440  178.8040  147.2930 O   0  0  0  0  0  1  0  0  0  0  0  0
  190.1170  178.3860  142.2410 C   0  0  0  0  0  2  0  0  0  0  0  0
  187.8180  177.4320  141.9490 C   0  0  2  0  0  3  0  0  0  0  0  0
  189.0250  176.7780  145.5230 C   0  0  0  0  0  3  0  0  0  0  0  0
  184.3260  179.4630  145.0570 C   0  0  0  0  0  3  0  0  0  0  0  0
  190.0750  177.9490  143.6730 C   0  0  0  0  0  0  0  0  0  0  0  0
  191.2510  178.0530  144.4250 C   0  0  0  0  0  3  0  0  0  0  0  0
  186.5650  177.5100  141.2890 O   0  0  0  0  0  0  0  0  0  0  0  0
  185.6290  178.6910  143.1680 C   0  0  0  0  0  0  0  0  0  0  0  0
  184.5530  179.4230  143.6790 C   0  0  0  0  0  3  0  0  0  0  0  0
  189.9100  176.8140  139.8050 O   0  0  0  0  0  0  0  0  0  0  0  0
  189.4300  177.8870  139.3470 C   0  0  0  0  0  0  0  0  0  0  0  0
  188.8370  178.8460  140.2230 N   0  0  0  0  0  2  0  0  0  0  0  0
  187.5160  176.7470  136.1690 C   0  0  1  0  0  3  0  0  0  0  0  0
  188.1890  178.8310  137.3790 C   0  0  0  0  0  2  0  0  0  0  0  0
  190.9780  176.6860  136.8120 O   0  0  0  0  0  0  0  0  0  0  0  0
  186.3810  175.7770  135.9210 C   0  0  0  0  0  1  0  0  0  0  0  0
  187.0720  177.8080  137.1710 C   0  0  0  0  0  2  0  0  0  0  0  0
  189.8170  176.9420  137.0840 C   0  0  0  0  0  0  0  0  0  0  0  0
  189.4830  178.1750  137.8790 C   0  0  2  0  0  3  0  0  0  0  0  0
  188.7280  175.9840  136.6970 C   0  0  0  0  0  2  0  0  0  0  0  0
  1  9  1  0  0  0  0
  2  3  1  1  0  0  0
  2  5  1  0  0  0  0
  3  7  1  0  0  0  0
  4 11  1  0  0  0  0
  5 14  1  0  0  0  0
  6  1  1  0  0  0  0
  7  4  2  0  0  0  0
  8 23  1  6  0  0  0
  8 13  1  0  0  0  0
  8 12  1  0  0  0  0
 10 19  1  0  0  0  0
 12 16  1  0  0  0  0
 13 18  1  1  0  0  0
 13  2  1  0  0  0  0
 14  1  2  0  0  0  0
 15  4  1  0  0  0  0
 16  5  2  0  0  0  0
 16 17  1  0  0  0  0
 17  6  2  0  0  0  0
 18 10  1  0  0  0  0
 19 20  1  0  0  0  0
 19  3  2  0  0  0  0
 20 15  2  0  0  0  0
 22 21  2  0  0  0  0
 22 23  1  0  0  0  0
 24 27  1  1  0  0  0
 24 31  1  0  0  0  0
 24 28  1  0  0  0  0
 25 30  1  0  0  0  0
 26 29  2  0  0  0  0
 28 25  1  0  0  0  0
 29 30  1  0  0  0  0
 30 22  1  1  0  0  0
 31 29  1  0  0  0  0
M  END
>  <MODEL>
3

>  <REMARK>
 VINA RESULT:      -9.7      3.373      4.816
  Name = 
  2 active torsions:
  status: ('A' for Active; 'I' for Inactive)
    1  A    between atoms: C_5  and  C_30
    2  A    between atoms: C_10  and  N_16
                            x       y       z     vdW  Elec       q    Type
                         _______ _______ _______ _____ _____    ______ ____

>  <TORSDO>
F 2

$$$$
=
 OpenBabel11122411183D

 31 35  0  0  1  0  0  0  0  0999 V2000
  188.9920  177.6800  144.0260 C   0  0  0  0  0  0  0  0  0  0  0  0
  186.9780  178.9090  141.0350 C   0  0  2  0  0  3  0  0  0  0  0  0
  187.4580  178.0740  139.8630 C   0  0  0  0  0  0  0  0  0  0  0  0
  189.2090  176.8270  138.7240 C   0  0  0  0  0  0  0  0  0  0  0  0
  187.3080  178.3080  142.3870 C   0  0  0  0  0  0  0  0  0  0  0  0
  187.9980  177.1640  144.8580 C   0  0  0  0  0  3  0  0  0  0  0  0
  188.7520  177.5330  139.8420 C   0  0  0  0  0  3  0  0  0  0  0  0
  184.5650  178.1730  141.4590 C   0  0  2  0  0  3  0  0  0  0  0  0
  190.2900  177.6260  144.4060 F   0  0  0  0  0  0  0  0  0  0  0  0
  185.2620  178.5160  138.7200 C   0  0  0  0  0  2  0  0  0  0  0  0
  190.4850  176.2820  138.7230 O   0  0  0  0  0  1  0  0  0  0  0  0
  184.8450  177.9690  142.9430 C   0  0  0  0  0  2  0  0  0  0  0  0
  185.4830  179.2720  140.8990 C   0  0  2  0  0  3  0  0  0  0  0  0
  188.6470  178.2540  142.8000 C   0  0  0  0  0  3  0  0  0  0  0  0
  188.3820  176.6740  137.6100 C   0  0  0  0  0  3  0  0  0  0  0  0
  186.3030  177.7930  143.2390 C   0  0  0  0  0  0  0  0  0  0  0  0
  186.6590  177.2300  144.4700 C   0  0  0  0  0  3  0  0  0  0  0  0
  185.1620  179.6440  139.5680 O   0  0  0  0  0  0  0  0  0  0  0  0
  186.6500  177.9500  138.7190 C   0  0  0  0  0  0  0  0  0  0  0  0
  187.1020  177.2330  137.6070 C   0  0  0  0  0  3  0  0  0  0  0  0
  182.6340  176.6620  140.0010 O   0  0  0  0  0  0  0  0  0  0  0  0
  182.2500  177.7360  140.5390 C   0  0  0  0  0  0  0  0  0  0  0  0
  183.1700  178.5460  141.2740 N   0  0  0  0  0  2  0  0  0  0  0  0
  179.4010  178.8330  142.9350 C   0  0  1  0  0  3  0  0  0  0  0  0
  180.6350  179.6230  140.9060 C   0  0  0  0  0  2  0  0  0  0  0  0
  179.3800  176.3160  140.4730 O   0  0  0  0  0  0  0  0  0  0  0  0
  179.2900  178.9650  144.4400 C   0  0  0  0  0  1  0  0  0  0  0  0
  180.5550  179.6970  142.4310 C   0  0  0  0  0  2  0  0  0  0  0  0
  179.8850  177.2350  141.0970 C   0  0  0  0  0  0  0  0  0  0  0  0
  180.8280  178.1840  140.4100 C   0  0  2  0  0  3  0  0  0  0  0  0
  179.6290  177.3690  142.5700 C   0  0  0  0  0  2  0  0  0  0  0  0
  1  9  1  0  0  0  0
  1  6  1  0  0  0  0
  2  3  1  6  0  0  0
  2  5  1  0  0  0  0
  4  7  2  0  0  0  0
  5 14  1  0  0  0  0
  5 16  2  0  0  0  0
  7  3  1  0  0  0  0
  8 23  1  1  0  0  0
  8 12  1  0  0  0  0
 10 18  1  0  0  0  0
 11  4  1  0  0  0  0
 12 16  1  0  0  0  0
 13 18  1  6  0  0  0
 13  2  1  0  0  0  0
 13  8  1  0  0  0  0
 14  1  2  0  0  0  0
 15  4  1  0  0  0  0
 16 17  1  0  0  0  0
 17  6  2  0  0  0  0
 19 10  1  0  0  0  0
 19  3  2  0  0  0  0
 20 15  2  0  0  0  0
 20 19  1  0  0  0  0
 21 22  2  0  0  0  0
 22 23  1  0  0  0  0
 24 27  1  1  0  0  0
 25 28  1  0  0  0  0
 26 29  2  0  0  0  0
 28 24  1  0  0  0  0
 29 31  1  0  0  0  0
 30 22  1  1  0  0  0
 30 25  1  0  0  0  0
 30 29  1  0  0  0  0
 31 24  1  0  0  0  0
M  END
>  <MODEL>
4

>  <REMARK>
 VINA RESULT:      -9.2      2.787      5.293
  Name = 
  2 active torsions:
  status: ('A' for Active; 'I' for Inactive)
    1  A    between atoms: C_5  and  C_30
    2  A    between atoms: C_10  and  N_16
                            x       y       z     vdW  Elec       q    Type
                         _______ _______ _______ _____ _____    ______ ____

>  <TORSDO>
F 2

$$$$
=
 OpenBabel11122411183D

 31 35  0  0  1  0  0  0  0  0999 V2000
  189.1130  177.6940  143.8350 C   0  0  0  0  0  0  0  0  0  0  0  0
  186.8630  178.9970  141.0520 C   0  0  2  0  0  3  0  0  0  0  0  0
  187.2660  178.2160  139.8160 C   0  0  0  0  0  0  0  0  0  0  0  0
  188.9460  177.0450  138.5030 C   0  0  0  0  0  0  0  0  0  0  0  0
  187.3020  178.3510  142.3520 C   0  0  0  0  0  0  0  0  0  0  0  0
  188.1930  177.1280  144.7180 C   0  0  0  0  0  3  0  0  0  0  0  0
  188.5630  177.6990  139.6780 C   0  0  0  0  0  3  0  0  0  0  0  0
  184.4990  178.2010  141.6260 C   0  0  2  0  0  3  0  0  0  0  0  0
  190.4370  177.6490  144.1160 F   0  0  0  0  0  0  0  0  0  0  0  0
  184.9850  178.6600  138.8580 C   0  0  0  0  0  2  0  0  0  0  0  0
  190.2270  176.5240  138.3860 O   0  0  0  0  0  1  0  0  0  0  0  0
  184.8930  177.9460  143.0750 C   0  0  0  0  0  2  0  0  0  0  0  0
  185.3560  179.3370  141.0420 C   0  0  2  0  0  3  0  0  0  0  0  0
  188.6690  178.3060  142.6620 C   0  0  0  0  0  3  0  0  0  0  0  0
  188.0400  176.9190  137.4480 C   0  0  0  0  0  3  0  0  0  0  0  0
  186.3720  177.7860  143.2550 C   0  0  0  0  0  0  0  0  0  0  0  0
  186.8270  177.1840  144.4340 C   0  0  0  0  0  3  0  0  0  0  0  0
  184.9300  179.7530  139.7540 O   0  0  0  0  0  0  0  0  0  0  0  0
  186.3760  178.1200  138.7310 C   0  0  0  0  0  0  0  0  0  0  0  0
  186.7550  177.4540  137.5620 C   0  0  0  0  0  3  0  0  0  0  0  0
  182.4970  176.7360  140.2180 O   0  0  0  0  0  0  0  0  0  0  0  0
  182.1340  177.7700  140.8430 C   0  0  0  0  0  0  0  0  0  0  0  0
  183.0890  178.5550  141.5590 N   0  0  0  0  0  2  0  0  0  0  0  0
  179.8600  180.0300  138.6570 C   0  0  1  0  0  3  0  0  0  0  0  0
  179.9630  177.7080  139.5850 C   0  0  0  0  0  2  0  0  0  0  0  0
  180.4310  180.1580  142.1300 O   0  0  0  0  0  0  0  0  0  0  0  0
  180.0980  180.8780  137.4260 C   0  0  0  0  0  1  0  0  0  0  0  0
  180.2610  178.5860  138.3690 C   0  0  0  0  0  2  0  0  0  0  0  0
  180.5620  179.6830  141.0140 C   0  0  0  0  0  0  0  0  0  0  0  0
  180.6990  178.1950  140.8390 C   0  0  2  0  0  3  0  0  0  0  0  0
  180.6710  180.5890  139.8220 C   0  0  0  0  0  2  0  0  0  0  0  0
  1  9  1  0  0  0  0
  1  6  1  0  0  0  0
  2  3  1  6  0  0  0
  2  5  1  0  0  0  0
  4  7  2  0  0  0  0
  5 14  1  0  0  0  0
  5 16  2  0  0  0  0
  7  3  1  0  0  0  0
  8 23  1  1  0  0  0
  8 12  1  0  0  0  0
 10 18  1  0  0  0  0
 11  4  1  0  0  0  0
 12 16  1  0  0  0  0
 13 18  1  6  0  0  0
 13  2  1  0  0  0  0
 13  8  1  0  0  0  0
 14  1  2  0  0  0  0
 15 20  2  0  0  0  0
 15  4  1  0  0  0  0
 16 17  1  0  0  0  0
 17  6  2  0  0  0  0
 19 10  1  0  0  0  0
 19  3  2  0  0  0  0
 20 19  1  0  0  0  0
 21 22  2  0  0  0  0
 22 23  1  0  0  0  0
 24 27  1  6  0  0  0
 24 31  1  0  0  0  0
 25 30  1  0  0  0  0
 28 24  1  0  0  0  0
 28 25  1  0  0  0  0
 29 26  2  0  0  0  0
 30 22  1  6  0  0  0
 30 29  1  0  0  0  0
 31 29  1  0  0  0  0
M  END
>  <MODEL>
5

>  <REMARK>
 VINA RESULT:      -9.1      2.716      4.923
  Name = 
  2 active torsions:
  status: ('A' for Active; 'I' for Inactive)
    1  A    between atoms: C_5  and  C_30
    2  A    between atoms: C_10  and  N_16
                            x       y       z     vdW  Elec       q    Type
                         _______ _______ _______ _____ _____    ______ ____

>  <TORSDO>
F 2

$$$$
=
 OpenBabel11122411183D

 31 35  0  0  1  0  0  0  0  0999 V2000
  186.8880  178.2520  146.8430 C   0  0  0  0  0  0  0  0  0  0  0  0
  189.7160  178.0270  144.3020 C   0  0  2  0  0  3  0  0  0  0  0  0
  190.6050  176.9000  144.7940 C   0  0  0  0  0  0  0  0  0  0  0  0
  191.5460  175.5830  146.6090 C   0  0  0  0  0  0  0  0  0  0  0  0
  188.3200  178.0060  144.8930 C   0  0  0  0  0  0  0  0  0  0  0  0
  185.7700  177.9380  146.0690 C   0  0  0  0  0  3  0  0  0  0  0  0
  190.6690  176.5730  146.1570 C   0  0  0  0  0  3  0  0  0  0  0  0
  188.6540  177.1660  142.1390 C   0  0  2  0  0  3  0  0  0  0  0  0
  186.7440  178.5190  148.1630 F   0  0  0  0  0  0  0  0  0  0  0  0
  191.4270  176.5920  142.4390 C   0  0  0  0  0  2  0  0  0  0  0  0
  191.5880  175.2570  147.9580 O   0  0  0  0  0  1  0  0  0  0  0  0
  187.2620  177.5520  142.6210 C   0  0  0  0  0  2  0  0  0  0  0  0
  189.7020  178.1050  142.7590 C   0  0  2  0  0  3  0  0  0  0  0  0
  188.1540  178.2910  146.2560 C   0  0  0  0  0  3  0  0  0  0  0  0
  192.3810  174.9250  145.7050 C   0  0  0  0  0  3  0  0  0  0  0  0
  187.1830  177.6990  144.1110 C   0  0  0  0  0  0  0  0  0  0  0  0
  185.9170  177.6730  144.7060 C   0  0  0  0  0  3  0  0  0  0  0  0
  191.0020  177.9240  142.2220 O   0  0  0  0  0  0  0  0  0  0  0  0
  191.4810  176.2610  143.8990 C   0  0  0  0  0  0  0  0  0  0  0  0
  192.3480  175.2620  144.3500 C   0  0  0  0  0  3  0  0  0  0  0  0
  187.1680  179.0000  140.5360 O   0  0  0  0  0  0  0  0  0  0  0  0
  187.9430  178.2010  139.9440 C   0  0  0  0  0  0  0  0  0  0  0  0
  188.7070  177.2500  140.6870 N   0  0  0  0  0  2  0  0  0  0  0  0
  186.9530  175.9050  136.9750 C   0  0  1  0  0  3  0  0  0  0  0  0
  186.6990  178.2670  137.7640 C   0  0  0  0  0  2  0  0  0  0  0  0
  190.1100  177.2370  137.7910 O   0  0  0  0  0  0  0  0  0  0  0  0
  186.2700  174.5580  136.8750 C   0  0  0  0  0  1  0  0  0  0  0  0
  186.0460  176.8850  137.7150 C   0  0  0  0  0  2  0  0  0  0  0  0
  188.9090  177.0900  137.9460 C   0  0  0  0  0  0  0  0  0  0  0  0
  188.0690  178.2310  138.4520 C   0  0  2  0  0  3  0  0  0  0  0  0
  188.2820  175.7470  137.7090 C   0  0  0  0  0  2  0  0  0  0  0  0
  1  9  1  0  0  0  0
  2  3  1  6  0  0  0
  2  5  1  0  0  0  0
  3  7  1  0  0  0  0
  4 11  1  0  0  0  0
  5 14  2  0  0  0  0
  6  1  2  0  0  0  0
  7  4  2  0  0  0  0
  8 23  1  6  0  0  0
  8 12  1  0  0  0  0
  8 13  1  0  0  0  0
 10 19  1  0  0  0  0
 12 16  1  0  0  0  0
 13 18  1  6  0  0  0
 13  2  1  0  0  0  0
 14  1  1  0  0  0  0
 15  4  1  0  0  0  0
 16 17  2  0  0  0  0
 16  5  1  0  0  0  0
 17  6  1  0  0  0  0
 18 10  1  0  0  0  0
 19 20  1  0  0  0  0
 19  3  2  0  0  0  0
 20 15  2  0  0  0  0
 22 21  2  0  0  0  0
 22 23  1  0  0  0  0
 24 27  1  1  0  0  0
 24 31  1  0  0  0  0
 24 28  1  0  0  0  0
 25 30  1  0  0  0  0
 26 29  2  0  0  0  0
 28 25  1  0  0  0  0
 29 30  1  0  0  0  0
 30 22  1  1  0  0  0
 31 29  1  0  0  0  0
M  END
>  <MODEL>
6

>  <REMARK>
 VINA RESULT:      -8.9      3.538      5.366
  Name = 
  2 active torsions:
  status: ('A' for Active; 'I' for Inactive)
    1  A    between atoms: C_5  and  C_30
    2  A    between atoms: C_10  and  N_16
                            x       y       z     vdW  Elec       q    Type
                         _______ _______ _______ _____ _____    ______ ____

>  <TORSDO>
F 2

$$$$
=
 OpenBabel11122411183D

 31 35  0  0  1  0  0  0  0  0999 V2000
  189.1490  177.6640  144.2440 C   0  0  0  0  0  0  0  0  0  0  0  0
  187.0700  178.9760  141.3350 C   0  0  2  0  0  3  0  0  0  0  0  0
  187.5210  178.1720  140.1300 C   0  0  0  0  0  0  0  0  0  0  0  0
  189.2420  176.9520  138.9190 C   0  0  0  0  0  0  0  0  0  0  0  0
  187.4300  178.3380  142.6620 C   0  0  0  0  0  0  0  0  0  0  0  0
  188.1740  177.1280  145.0860 C   0  0  0  0  0  3  0  0  0  0  0  0
  188.8130  177.6290  140.0650 C   0  0  0  0  0  3  0  0  0  0  0  0
  184.6650  178.2330  141.7950 C   0  0  2  0  0  3  0  0  0  0  0  0
  190.4560  177.5970  144.5930 F   0  0  0  0  0  0  0  0  0  0  0  0
  185.3000  178.6480  139.0510 C   0  0  0  0  0  2  0  0  0  0  0  0
  190.5160  176.4050  138.8730 O   0  0  0  0  0  1  0  0  0  0  0  0
  184.9790  177.9890  143.2660 C   0  0  0  0  0  2  0  0  0  0  0  0
  185.5730  179.3450  141.2440 C   0  0  2  0  0  3  0  0  0  0  0  0
  188.7780  178.2710  143.0430 C   0  0  0  0  0  3  0  0  0  0  0  0
  188.3890  176.8300  137.8200 C   0  0  0  0  0  3  0  0  0  0  0  0
  186.4440  177.8020  143.5230 C   0  0  0  0  0  0  0  0  0  0  0  0
  186.8260  177.2070  144.7300 C   0  0  0  0  0  3  0  0  0  0  0  0
  185.2220  179.7530  139.9310 O   0  0  0  0  0  0  0  0  0  0  0  0
  186.6860  178.0800  139.0020 C   0  0  0  0  0  0  0  0  0  0  0  0
  187.1110  177.3920  137.8610 C   0  0  0  0  0  3  0  0  0  0  0  0
  182.7330  176.8480  140.2190 O   0  0  0  0  0  0  0  0  0  0  0  0
  182.3480  177.8680  140.8530 C   0  0  0  0  0  0  0  0  0  0  0  0
  183.2680  178.6130  141.6520 N   0  0  0  0  0  2  0  0  0  0  0  0
  179.4490  177.6400  138.2820 C   0  0  1  0  0  3  0  0  0  0  0  0
  179.9530  177.1320  140.6810 C   0  0  0  0  0  2  0  0  0  0  0  0
  180.8080  180.4890  139.8440 O   0  0  0  0  0  0  0  0  0  0  0  0
  179.3230  177.0450  136.8960 C   0  0  0  0  0  1  0  0  0  0  0  0
  179.8860  176.5570  139.2650 C   0  0  0  0  0  2  0  0  0  0  0  0
  180.7120  179.2890  139.6440 C   0  0  0  0  0  0  0  0  0  0  0  0
  180.9220  178.3180  140.7730 C   0  0  2  0  0  3  0  0  0  0  0  0
  180.4640  178.7790  138.2540 C   0  0  0  0  0  2  0  0  0  0  0  0
  1  9  1  0  0  0  0
  1  6  1  0  0  0  0
  2  3  1  6  0  0  0
  2  5  1  0  0  0  0
  4  7  2  0  0  0  0
  5 14  1  0  0  0  0
  5 16  2  0  0  0  0
  7  3  1  0  0  0  0
  8 23  1  1  0  0  0
  8 12  1  0  0  0  0
 10 18  1  0  0  0  0
 11  4  1  0  0  0  0
 12 16  1  0  0  0  0
 13 18  1  6  0  0  0
 13  2  1  0  0  0  0
 13  8  1  0  0  0  0
 14  1  2  0  0  0  0
 15 20  2  0  0  0  0
 15  4  1  0  0  0  0
 16 17  1  0  0  0  0
 17  6  2  0  0  0  0
 19 10  1  0  0  0  0
 19  3  2  0  0  0  0
 20 19  1  0  0  0  0
 21 22  2  0  0  0  0
 22 23  1  0  0  0  0
 24 27  1  6  0  0  0
 24 28  1  0  0  0  0
 25 30  1  0  0  0  0
 28 25  1  0  0  0  0
 29 26  2  0  0  0  0
 29 30  1  0  0  0  0
 30 22  1  6  0  0  0
 31 24  1  0  0  0  0
 31 29  1  0  0  0  0
M  END
>  <MODEL>
7

>  <REMARK>
 VINA RESULT:      -8.8      2.603      4.643
  Name = 
  2 active torsions:
  status: ('A' for Active; 'I' for Inactive)
    1  A    between atoms: C_5  and  C_30
    2  A    between atoms: C_10  and  N_16
                            x       y       z     vdW  Elec       q    Type
                         _______ _______ _______ _____ _____    ______ ____

>  <TORSDO>
F 2

$$$$
=
 OpenBabel11122411183D

 31 35  0  0  1  0  0  0  0  0999 V2000
  184.7890  178.6710  139.5060 C   0  0  0  0  0  0  0  0  0  0  0  0
  188.5510  178.3490  140.0120 C   0  0  2  0  0  3  0  0  0  0  0  0
  188.7130  177.5070  141.2640 C   0  0  0  0  0  0  0  0  0  0  0  0
  187.9170  176.7720  143.4420 C   0  0  0  0  0  0  0  0  0  0  0  0
  187.1790  178.2380  139.3770 C   0  0  0  0  0  0  0  0  0  0  0  0
  184.6000  178.0280  138.2820 C   0  0  0  0  0  3  0  0  0  0  0  0
  187.7250  177.4940  142.2600 C   0  0  0  0  0  3  0  0  0  0  0  0
  189.3990  176.8890  138.0890 C   0  0  2  0  0  3  0  0  0  0  0  0
  183.7290  179.1900  140.1700 F   0  0  0  0  0  0  0  0  0  0  0  0
  190.9930  176.8310  140.4480 C   0  0  0  0  0  2  0  0  0  0  0  0
  186.9250  176.7540  144.4120 O   0  0  0  0  0  1  0  0  0  0  0  0
  188.1330  177.1480  137.2820 C   0  0  0  0  0  2  0  0  0  0  0  0
  189.6910  178.0910  139.0030 C   0  0  2  0  0  3  0  0  0  0  0  0
  186.0720  178.7800  140.0460 C   0  0  0  0  0  3  0  0  0  0  0  0
  189.1090  176.0730  143.6470 C   0  0  0  0  0  3  0  0  0  0  0  0
  186.9840  177.5970  138.1310 C   0  0  0  0  0  0  0  0  0  0  0  0
  185.6950  177.5030  137.5940 C   0  0  0  0  0  3  0  0  0  0  0  0
  190.9470  178.0030  139.6570 O   0  0  0  0  0  0  0  0  0  0  0  0
  189.9250  176.8350  141.4990 C   0  0  0  0  0  0  0  0  0  0  0  0
  190.1120  176.1030  142.6760 C   0  0  0  0  0  3  0  0  0  0  0  0
  190.9560  174.5030  137.9510 O   0  0  0  0  0  0  0  0  0  0  0  0
  191.2500  175.4400  137.1590 C   0  0  0  0  0  0  0  0  0  0  0  0
  190.5170  176.6660  137.1850 N   0  0  0  0  0  2  0  0  0  0  0  0
  194.4350  173.2450  136.8420 C   0  0  1  0  0  3  0  0  0  0  0  0
  192.3930  173.8920  135.5470 C   0  0  0  0  0  2  0  0  0  0  0  0
  194.1430  176.7530  136.7510 O   0  0  0  0  0  0  0  0  0  0  0  0
  195.0570  172.1690  137.7070 C   0  0  0  0  0  1  0  0  0  0  0  0
  193.0080  172.8440  136.4750 C   0  0  0  0  0  2  0  0  0  0  0  0
  193.7020  175.6170  136.8170 C   0  0  0  0  0  0  0  0  0  0  0  0
  192.3770  175.2860  136.1860 C   0  0  2  0  0  3  0  0  0  0  0  0
  194.4410  174.5700  137.5970 C   0  0  0  0  0  2  0  0  0  0  0  0
  1 14  1  0  0  0  0
  1  9  1  0  0  0  0
  2  5  1  6  0  0  0
  2  3  1  0  0  0  0
  3 19  2  0  0  0  0
  3  7  1  0  0  0  0
  4 15  1  0  0  0  0
  4 11  1  0  0  0  0
  5 14  2  0  0  0  0
  6  1  2  0  0  0  0
  7  4  2  0  0  0  0
  8 23  1  6  0  0  0
  8 13  1  0  0  0  0
 10 19  1  0  0  0  0
 12  8  1  0  0  0  0
 12 16  1  0  0  0  0
 13 18  1  1  0  0  0
 13  2  1  0  0  0  0
 16  5  1  0  0  0  0
 17 16  2  0  0  0  0
 17  6  1  0  0  0  0
 18 10  1  0  0  0  0
 19 20  1  0  0  0  0
 20 15  2  0  0  0  0
 22 23  1  0  0  0  0
 22 21  2  0  0  0  0
 24 31  1  0  0  0  0
 24 27  1  1  0  0  0
 25 30  1  0  0  0  0
 25 28  1  0  0  0  0
 26 29  2  0  0  0  0
 28 24  1  0  0  0  0
 29 31  1  0  0  0  0
 30 29  1  0  0  0  0
 30 22  1  1  0  0  0
M  END
>  <MODEL>
8

>  <REMARK>
 VINA RESULT:      -8.6      5.156      8.463
  Name = 
  2 active torsions:
  status: ('A' for Active; 'I' for Inactive)
    1  A    between atoms: C_5  and  C_30
    2  A    between atoms: C_10  and  N_16
                            x       y       z     vdW  Elec       q    Type
                         _______ _______ _______ _____ _____    ______ ____

>  <TORSDO>
F 2

$$$$
=
 OpenBabel11122411183D

 31 35  0  0  1  0  0  0  0  0999 V2000
  179.8930  178.9870  143.5660 C   0  0  0  0  0  0  0  0  0  0  0  0
  183.3550  179.3850  142.0300 C   0  0  2  0  0  3  0  0  0  0  0  0
  184.3170  178.8460  143.0710 C   0  0  0  0  0  0  0  0  0  0  0  0
  184.9170  178.4380  145.3930 C   0  0  0  0  0  0  0  0  0  0  0  0
  181.9230  178.9300  142.2280 C   0  0  0  0  0  0  0  0  0  0  0  0
  179.2810  178.0920  142.6860 C   0  0  0  0  0  3  0  0  0  0  0  0
  183.9930  178.8700  144.4360 C   0  0  0  0  0  3  0  0  0  0  0  0
  183.4570  177.7310  140.0800 C   0  0  2  0  0  3  0  0  0  0  0  0
  179.2150  179.4480  144.6440 F   0  0  0  0  0  0  0  0  0  0  0  0
  185.9730  178.4010  141.2330 C   0  0  0  0  0  2  0  0  0  0  0  0
  184.5780  178.4510  146.7390 O   0  0  0  0  0  1  0  0  0  0  0  0
  181.9380  177.6160  140.0460 C   0  0  0  0  0  2  0  0  0  0  0  0
  183.8650  179.1210  140.5960 C   0  0  2  0  0  3  0  0  0  0  0  0
  181.2040  179.4070  143.3340 C   0  0  0  0  0  3  0  0  0  0  0  0
  186.1800  177.9960  144.9940 C   0  0  0  0  0  3  0  0  0  0  0  0
  181.2950  178.0320  141.3340 C   0  0  0  0  0  0  0  0  0  0  0  0
  179.9770  177.6260  141.5700 C   0  0  0  0  0  3  0  0  0  0  0  0
  185.2580  179.3690  140.4900 O   0  0  0  0  0  0  0  0  0  0  0  0
  185.6070  178.4390  142.6850 C   0  0  0  0  0  0  0  0  0  0  0  0
  186.5250  177.9950  143.6410 C   0  0  0  0  0  3  0  0  0  0  0  0
  183.2770  175.2990  138.6010 O   0  0  0  0  0  0  0  0  0  0  0  0
  183.8580  176.2750  138.0520 C   0  0  0  0  0  0  0  0  0  0  0  0
  183.9920  177.5180  138.7430 N   0  0  0  0  0  2  0  0  0  0  0  0
  186.6590  174.2170  136.3250 C   0  0  1  0  0  3  0  0  0  0  0  0
  184.2200  174.7350  136.1030 C   0  0  0  0  0  2  0  0  0  0  0  0
  186.1720  177.7040  136.3620 O   0  0  0  0  0  0  0  0  0  0  0  0
  187.6630  173.1960  136.8160 C   0  0  0  0  0  1  0  0  0  0  0  0
  185.2450  173.7420  136.6530 C   0  0  0  0  0  2  0  0  0  0  0  0
  185.8700  176.5530  136.6270 C   0  0  0  0  0  0  0  0  0  0  0  0
  184.4230  176.1440  136.6720 C   0  0  2  0  0  3  0  0  0  0  0  0
  186.9390  175.5630  136.9880 C   0  0  0  0  0  2  0  0  0  0  0  0
  1  9  1  0  0  0  0
  2  5  1  6  0  0  0
  2  3  1  0  0  0  0
  3  7  1  0  0  0  0
  4 11  1  0  0  0  0
  5 14  2  0  0  0  0
  6  1  2  0  0  0  0
  7  4  2  0  0  0  0
  8 23  1  6  0  0  0
  8 13  1  0  0  0  0
 10 19  1  0  0  0  0
 12  8  1  0  0  0  0
 12 16  1  0  0  0  0
 13 18  1  1  0  0  0
 13  2  1  0  0  0  0
 14  1  1  0  0  0  0
 15  4  1  0  0  0  0
 16 17  2  0  0  0  0
 16  5  1  0  0  0  0
 17  6  1  0  0  0  0
 18 10  1  0  0  0  0
 19  3  2  0  0  0  0
 19 20  1  0  0  0  0
 20 15  2  0  0  0  0
 22 21  2  0  0  0  0
 22 23  1  0  0  0  0
 24 28  1  0  0  0  0
 24 27  1  1  0  0  0
 24 31  1  0  0  0  0
 25 28  1  0  0  0  0
 25 30  1  0  0  0  0
 26 29  2  0  0  0  0
 29 30  1  0  0  0  0
 29 31  1  0  0  0  0
 30 22  1  1  0  0  0
M  END
>  <MODEL>
9

>  <REMARK>
 VINA RESULT:      -8.4      3.827      6.184
  Name = 
  2 active torsions:
  status: ('A' for Active; 'I' for Inactive)
    1  A    between atoms: C_5  and  C_30
    2  A    between atoms: C_10  and  N_16
                            x       y       z     vdW  Elec       q    Type
                         _______ _______ _______ _____ _____    ______ ____

>  <TORSDO>
F 2

$$$$
