=
 OpenBabel11122410463D

 32 37  0  0  1  0  0  0  0  0999 V2000
  188.4820  178.4770  136.7660 C   0  0  0  0  0  2  0  0  0  0  0  0
  187.8080  177.7890  142.4250 C   0  0  0  0  0  0  0  0  0  0  0  0
  183.3830  179.0260  144.0650 C   0  0  0  0  0  3  0  0  0  0  0  0
  183.8230  178.8760  145.3800 C   0  0  0  0  0  3  0  0  0  0  0  0
  189.6060  177.2500  144.0850 C   0  0  0  0  0  0  0  0  0  0  0  0
  189.9430  177.1280  145.4280 C   0  0  0  0  0  0  0  0  0  0  0  0
  188.3580  178.2300  140.0640 N   0  0  2  0  0  0  0  0  0  0  0  0
  186.0040  178.4080  140.7590 C   0  0  0  0  0  2  0  0  0  0  0  0
  189.7020  177.1480  147.7180 C   0  0  1  0  0  3  0  0  0  0  0  0
  186.5480  178.6110  138.3880 C   0  0  0  0  0  2  0  0  0  0  0  0
  184.2610  178.7910  143.0050 C   0  0  0  0  0  3  0  0  0  0  0  0
  186.4720  178.1640  142.1740 C   0  0  0  0  0  0  0  0  0  0  0  0
  185.5900  178.4030  143.2450 C   0  0  0  0  0  0  0  0  0  0  0  0
  187.3600  177.8730  144.8410 C   0  0  0  0  0  0  0  0  0  0  0  0
  191.0940  176.7560  147.4000 N   0  0  0  0  0  2  0  0  0  0  0  0
  189.4300  178.7650  137.9310 C   0  0  0  0  0  2  0  0  0  0  0  0
  186.9690  177.9130  139.6820 C   0  0  1  0  0  3  0  0  0  0  0  0
  191.1800  176.7610  145.9900 N   0  0  0  0  0  0  0  0  0  0  0  0
  189.2900  177.7440  139.0500 C   0  0  0  0  0  2  0  0  0  0  0  0
  187.1250  177.8970  137.1720 C   0  0  1  0  0  3  0  0  0  0  0  0
  185.1400  178.4920  145.6350 C   0  0  0  0  0  3  0  0  0  0  0  0
  186.0350  178.2530  144.5790 C   0  0  0  0  0  0  0  0  0  0  0  0
  187.7780  177.7300  146.1390 N   0  0  0  0  0  0  0  0  0  0  0  0
  188.6780  177.4380  141.2480 C   0  0  0  0  0  2  0  0  0  0  0  0
  190.4810  177.0250  143.2060 O   0  0  0  0  0  0  0  0  0  0  0  0
  189.7090  178.3880  148.4740 N   0  0  0  0  0  1  0  0  0  0  0  0
  188.2690  177.6340  143.7600 C   0  0  0  0  0  0  0  0  0  0  0  0
  189.0530  177.3660  146.4030 C   0  0  0  0  0  0  0  0  0  0  0  0
  186.2050  178.0010  136.0490 N   0  0  0  0  0  2  0  0  0  0  0  0
  185.2370  176.9940  135.7500 C   0  0  0  0  0  0  0  0  0  0  0  0
  185.1610  175.9480  136.4490 O   0  0  0  0  0  0  0  0  0  0  0  0
  184.3150  177.1790  134.6010 C   0  0  0  0  0  1  0  0  0  0  0  0
  1 20  1  0  0  0  0
  1 16  1  0  0  0  0
  2 27  1  0  0  0  0
  3  4  1  0  0  0  0
  4 21  2  0  0  0  0
  5  6  1  0  0  0  0
  6 18  2  0  0  0  0
  6 28  1  0  0  0  0
  7 19  1  6  0  0  0
  7 24  1  0  0  0  0
  8 12  1  0  0  0  0
  9 26  1  1  0  0  0
 11 13  1  0  0  0  0
 11  3  2  0  0  0  0
 12  2  2  0  0  0  0
 12 13  1  0  0  0  0
 13 22  2  0  0  0  0
 14 23  1  0  0  0  0
 15  9  1  0  0  0  0
 16 19  1  0  0  0  0
 17 10  1  6  0  0  0
 17  7  1  0  0  0  0
 17  8  1  0  0  0  0
 18 15  1  0  0  0  0
 20 29  1  6  0  0  0
 20 10  1  0  0  0  0
 22 14  1  0  0  0  0
 22 21  1  0  0  0  0
 23 28  2  0  0  0  0
 24  2  1  0  0  0  0
 25  5  2  0  0  0  0
 27  5  1  0  0  0  0
 27 14  2  0  0  0  0
 28  9  1  0  0  0  0
 30 29  1  0  0  0  0
 30 31  2  0  0  0  0
 32 30  1  0  0  0  0
M  END
>  <MODEL>
1

>  <REMARK>
 VINA RESULT:     -11.0      0.000      0.000
  Name = 
  1 active torsions:
  status: ('A' for Active; 'I' for Inactive)
    1  A    between atoms: C_20  and  N_29
                            x       y       z     vdW  Elec       q    Type
                         _______ _______ _______ _____ _____    ______ ____

>  <TORSDO>
F 1

$$$$
=
 OpenBabel11122410463D

 32 37  0  0  1  0  0  0  0  0999 V2000
  188.6510  177.8770  148.3430 C   0  0  0  0  0  2  0  0  0  0  0  0
  186.4340  178.0640  143.0510 C   0  0  0  0  0  0  0  0  0  0  0  0
  189.7670  177.9100  139.4920 C   0  0  0  0  0  3  0  0  0  0  0  0
  188.7770  178.1770  138.5470 C   0  0  0  0  0  3  0  0  0  0  0  0
  184.0450  178.5280  142.4520 C   0  0  0  0  0  0  0  0  0  0  0  0
  183.1370  178.7890  141.4330 C   0  0  0  0  0  0  0  0  0  0  0  0
  187.2060  178.2240  145.3860 N   0  0  2  0  0  0  0  0  0  0  0  0
  188.8620  177.6690  143.6520 C   0  0  0  0  0  2  0  0  0  0  0  0
  182.3350  179.1490  139.3040 C   0  0  1  0  0  3  0  0  0  0  0  0
  189.5470  177.6080  145.9950 C   0  0  0  0  0  2  0  0  0  0  0  0
  189.4320  177.8130  140.8440 C   0  0  0  0  0  3  0  0  0  0  0  0
  187.7670  177.8790  142.6330 C   0  0  0  0  0  0  0  0  0  0  0  0
  188.1030  177.9810  141.2700 C   0  0  0  0  0  0  0  0  0  0  0  0
  185.7690  178.4320  140.7130 C   0  0  0  0  0  0  0  0  0  0  0  0
  181.1990  179.2320  140.2510 N   0  0  0  0  0  0  0  0  0  0  0  0
  187.4960  178.7000  147.7680 C   0  0  0  0  0  2  0  0  0  0  0  0
  188.3590  177.3630  145.0630 C   0  0  1  0  0  3  0  0  0  0  0  0
  181.7500  179.0040  141.5310 N   0  0  0  0  0  0  0  0  0  0  0  0
  186.7040  177.9250  146.7250 C   0  0  0  0  0  2  0  0  0  0  0  0
  189.3270  176.9350  147.3440 C   0  0  1  0  0  3  0  0  0  0  0  0
  187.4530  178.3470  138.9530 C   0  0  0  0  0  3  0  0  0  0  0  0
  187.1010  178.2530  140.3100 C   0  0  0  0  0  0  0  0  0  0  0  0
  184.8070  178.6940  139.7720 N   0  0  0  0  0  2  0  0  0  0  0  0
  186.1090  177.8360  144.5030 C   0  0  0  0  0  2  0  0  0  0  0  0
  183.6380  178.4730  143.6440 O   0  0  0  0  0  0  0  0  0  0  0  0
  182.5010  180.4260  138.6330 N   0  0  0  0  0  1  0  0  0  0  0  0
  185.4160  178.3380  142.0980 C   0  0  0  0  0  0  0  0  0  0  0  0
  183.5200  178.8690  140.1500 C   0  0  0  0  0  0  0  0  0  0  0  0
  190.5990  176.4900  147.8930 N   0  0  0  0  0  2  0  0  0  0  0  0
  191.6800  176.0460  147.0700 C   0  0  0  0  0  0  0  0  0  0  0  0
  191.5570  176.0030  145.8170 O   0  0  0  0  0  0  0  0  0  0  0  0
  192.9580  175.6280  147.6990 C   0  0  0  0  0  1  0  0  0  0  0  0
  2 24  1  0  0  0  0
  3 11  2  0  0  0  0
  4 21  2  0  0  0  0
  4  3  1  0  0  0  0
  5 25  2  0  0  0  0
  6 18  1  0  0  0  0
  6  5  1  0  0  0  0
  7 24  1  6  0  0  0
  7 19  1  0  0  0  0
  9 26  1  1  0  0  0
  9 28  1  0  0  0  0
  9 15  1  0  0  0  0
 10 20  1  0  0  0  0
 11 13  1  0  0  0  0
 12  2  1  0  0  0  0
 12  8  1  0  0  0  0
 13 12  2  0  0  0  0
 14 27  1  0  0  0  0
 15 18  2  0  0  0  0
 16  1  1  0  0  0  0
 17  8  1  6  0  0  0
 17  7  1  0  0  0  0
 17 10  1  0  0  0  0
 19 16  1  0  0  0  0
 20 29  1  1  0  0  0
 20  1  1  0  0  0  0
 21 22  1  0  0  0  0
 22 14  2  0  0  0  0
 22 13  1  0  0  0  0
 23 28  1  0  0  0  0
 23 14  1  0  0  0  0
 27  5  1  0  0  0  0
 27  2  2  0  0  0  0
 28  6  2  0  0  0  0
 30 32  1  0  0  0  0
 30 29  1  0  0  0  0
 31 30  2  0  0  0  0
M  END
>  <MODEL>
2

>  <REMARK>
 VINA RESULT:     -10.1      2.829      8.638
  Name = 
  1 active torsions:
  status: ('A' for Active; 'I' for Inactive)
    1  A    between atoms: C_20  and  N_29
                            x       y       z     vdW  Elec       q    Type
                         _______ _______ _______ _____ _____    ______ ____

>  <TORSDO>
F 1

$$$$
=
 OpenBabel11122410463D

 32 37  0  0  1  0  0  0  0  0999 V2000
  188.4820  178.2830  137.3240 C   0  0  0  0  0  2  0  0  0  0  0  0
  188.6060  177.4350  143.0000 C   0  0  0  0  0  0  0  0  0  0  0  0
  184.5600  178.8770  145.3150 C   0  0  0  0  0  3  0  0  0  0  0  0
  185.1780  178.6540  146.5450 C   0  0  0  0  0  3  0  0  0  0  0  0
  190.5890  176.7280  144.3580 C   0  0  0  0  0  0  0  0  0  0  0  0
  191.1110  176.5380  145.6320 C   0  0  0  0  0  0  0  0  0  0  0  0
  188.8290  177.9260  140.5960 N   0  0  2  0  0  0  0  0  0  0  0  0
  186.6200  178.2210  141.6390 C   0  0  0  0  0  2  0  0  0  0  0  0
  191.2120  176.4900  147.9330 C   0  0  1  0  0  3  0  0  0  0  0  0
  186.8210  178.4760  139.2190 C   0  0  0  0  0  2  0  0  0  0  0  0
  185.2550  178.6280  144.1300 C   0  0  0  0  0  3  0  0  0  0  0  0
  187.2740  177.8980  142.9620 C   0  0  0  0  0  0  0  0  0  0  0  0
  186.5770  178.1520  144.1580 C   0  0  0  0  0  0  0  0  0  0  0  0
  188.5240  177.4590  145.4580 C   0  0  0  0  0  0  0  0  0  0  0  0
  192.5140  176.0270  147.3990 N   0  0  0  0  0  2  0  0  0  0  0  0
  189.6090  178.4720  138.3420 C   0  0  0  0  0  2  0  0  0  0  0  0
  187.3810  177.7070  140.4170 C   0  0  1  0  0  3  0  0  0  0  0  0
  192.3910  176.0770  145.9930 N   0  0  0  0  0  0  0  0  0  0  0  0
  189.5690  177.4210  139.4420 C   0  0  0  0  0  2  0  0  0  0  0  0
  187.1650  177.7720  137.9130 C   0  0  1  0  0  3  0  0  0  0  0  0
  186.4910  178.1820  146.5900 C   0  0  0  0  0  3  0  0  0  0  0  0
  187.2030  177.9270  145.4060 C   0  0  0  0  0  0  0  0  0  0  0  0
  189.1190  177.2440  146.6740 N   0  0  0  0  0  0  0  0  0  0  0  0
  189.2680  177.0740  141.6980 C   0  0  0  0  0  2  0  0  0  0  0  0
  191.3080  176.4830  143.3530 O   0  0  0  0  0  0  0  0  0  0  0  0
  191.4120  177.6990  148.7120 N   0  0  0  0  0  1  0  0  0  0  0  0
  189.2470  177.2030  144.2470 C   0  0  0  0  0  0  0  0  0  0  0  0
  190.3930  176.7940  146.7350 C   0  0  0  0  0  0  0  0  0  0  0  0
  186.0990  177.9720  136.9430 N   0  0  0  0  0  2  0  0  0  0  0  0
  185.5760  176.9100  136.1430 C   0  0  0  0  0  0  0  0  0  0  0  0
  186.0460  175.7450  136.2350 O   0  0  0  0  0  0  0  0  0  0  0  0
  184.4700  177.1840  135.1900 C   0  0  0  0  0  1  0  0  0  0  0  0
  1 20  1  0  0  0  0
  1 16  1  0  0  0  0
  2 27  1  0  0  0  0
  3  4  1  0  0  0  0
  4 21  2  0  0  0  0
  5  6  1  0  0  0  0
  6 18  2  0  0  0  0
  6 28  1  0  0  0  0
  7 19  1  6  0  0  0
  7 24  1  0  0  0  0
  8 12  1  0  0  0  0
  9 26  1  1  0  0  0
 11 13  1  0  0  0  0
 11  3  2  0  0  0  0
 12  2  2  0  0  0  0
 12 13  1  0  0  0  0
 13 22  2  0  0  0  0
 14 23  1  0  0  0  0
 15  9  1  0  0  0  0
 16 19  1  0  0  0  0
 17 10  1  6  0  0  0
 17  7  1  0  0  0  0
 17  8  1  0  0  0  0
 18 15  1  0  0  0  0
 20 29  1  6  0  0  0
 20 10  1  0  0  0  0
 22 14  1  0  0  0  0
 22 21  1  0  0  0  0
 23 28  2  0  0  0  0
 24  2  1  0  0  0  0
 25  5  2  0  0  0  0
 27  5  1  0  0  0  0
 27 14  2  0  0  0  0
 28  9  1  0  0  0  0
 30 31  2  0  0  0  0
 30 29  1  0  0  0  0
 32 30  1  0  0  0  0
M  END
>  <MODEL>
3

>  <REMARK>
 VINA RESULT:     -10.0      1.021      1.228
  Name = 
  1 active torsions:
  status: ('A' for Active; 'I' for Inactive)
    1  A    between atoms: C_20  and  N_29
                            x       y       z     vdW  Elec       q    Type
                         _______ _______ _______ _____ _____    ______ ____

>  <TORSDO>
F 1

$$$$
=
 OpenBabel11122410463D

 32 37  0  0  1  0  0  0  0  0999 V2000
  181.0480  178.8260  140.1640 C   0  0  0  0  0  2  0  0  0  0  0  0
  186.1210  178.3730  142.8120 C   0  0  0  0  0  0  0  0  0  0  0  0
  189.8950  177.7390  139.7860 C   0  0  0  0  0  3  0  0  0  0  0  0
  190.7340  177.5030  140.8740 C   0  0  0  0  0  3  0  0  0  0  0  0
  186.4990  178.1540  145.2800 C   0  0  0  0  0  0  0  0  0  0  0  0
  187.4190  177.9050  146.2920 C   0  0  0  0  0  0  0  0  0  0  0  0
  183.8420  178.3600  141.8760 N   0  0  2  0  0  0  0  0  0  0  0  0
  185.7370  178.5200  140.3140 C   0  0  0  0  0  2  0  0  0  0  0  0
  189.4330  177.4310  147.3020 C   0  0  1  0  0  3  0  0  0  0  0  0
  183.4680  178.7370  139.4370 C   0  0  0  0  0  2  0  0  0  0  0  0
  188.5430  178.0170  139.9960 C   0  0  0  0  0  3  0  0  0  0  0  0
  186.6480  178.3450  141.5050 C   0  0  0  0  0  0  0  0  0  0  0  0
  188.0110  178.0620  141.2960 C   0  0  0  0  0  0  0  0  0  0  0  0
  188.3530  177.8530  143.7050 C   0  0  0  0  0  0  0  0  0  0  0  0
  188.4080  177.5890  148.3590 N   0  0  0  0  0  0  0  0  0  0  0  0
  181.4470  178.1000  141.4500 C   0  0  0  0  0  2  0  0  0  0  0  0
  184.3380  179.0310  140.6600 C   0  0  1  0  0  3  0  0  0  0  0  0
  187.2020  177.8780  147.6830 N   0  0  0  0  0  0  0  0  0  0  0  0
  182.5140  178.8560  142.2280 C   0  0  0  0  0  2  0  0  0  0  0  0
  182.1910  179.5670  139.4660 C   0  0  1  0  0  3  0  0  0  0  0  0
  190.2220  177.5430  142.1710 C   0  0  0  0  0  3  0  0  0  0  0  0
  188.8640  177.8200  142.3980 C   0  0  0  0  0  0  0  0  0  0  0  0
  189.1900  177.6180  144.7640 N   0  0  0  0  0  2  0  0  0  0  0  0
  184.6850  178.7890  142.9880 C   0  0  0  0  0  2  0  0  0  0  0  0
  185.2970  178.3820  145.5790 O   0  0  0  0  0  0  0  0  0  0  0  0
  189.9660  176.0800  147.3440 N   0  0  0  0  0  1  0  0  0  0  0  0
  186.9660  178.1330  143.9300 C   0  0  0  0  0  0  0  0  0  0  0  0
  188.7070  177.6460  146.0270 C   0  0  0  0  0  0  0  0  0  0  0  0
  181.7850  179.9040  138.1090 N   0  0  0  0  0  2  0  0  0  0  0  0
  181.1660  181.1480  137.7770 C   0  0  0  0  0  0  0  0  0  0  0  0
  180.9260  182.0050  138.6690 O   0  0  0  0  0  0  0  0  0  0  0  0
  180.7990  181.4320  136.3660 C   0  0  0  0  0  1  0  0  0  0  0  0
  1 16  1  0  0  0  0
  2 24  1  0  0  0  0
  2 27  1  0  0  0  0
  3 11  2  0  0  0  0
  3  4  1  0  0  0  0
  4 21  2  0  0  0  0
  5 25  2  0  0  0  0
  5  6  1  0  0  0  0
  6 18  1  0  0  0  0
  7 19  1  1  0  0  0
  7 24  1  0  0  0  0
  8 17  1  0  0  0  0
  8 12  1  0  0  0  0
  9 26  1  6  0  0  0
  9 15  1  0  0  0  0
 10 20  1  0  0  0  0
 11 13  1  0  0  0  0
 12  2  2  0  0  0  0
 13 12  1  0  0  0  0
 13 22  2  0  0  0  0
 14 27  2  0  0  0  0
 14 23  1  0  0  0  0
 16 19  1  0  0  0  0
 17 10  1  6  0  0  0
 17  7  1  0  0  0  0
 18 15  2  0  0  0  0
 20 29  1  6  0  0  0
 20  1  1  0  0  0  0
 21 22  1  0  0  0  0
 22 14  1  0  0  0  0
 23 28  1  0  0  0  0
 27  5  1  0  0  0  0
 28  6  2  0  0  0  0
 28  9  1  0  0  0  0
 30 29  1  0  0  0  0
 30 31  2  0  0  0  0
 32 30  1  0  0  0  0
M  END
>  <MODEL>
4

>  <REMARK>
 VINA RESULT:      -9.8      3.086      4.937
  Name = 
  1 active torsions:
  status: ('A' for Active; 'I' for Inactive)
    1  A    between atoms: C_20  and  N_29
                            x       y       z     vdW  Elec       q    Type
                         _______ _______ _______ _____ _____    ______ ____

>  <TORSDO>
F 1

$$$$
=
 OpenBabel11122410463D

 32 37  0  0  1  0  0  0  0  0999 V2000
  190.3190  176.1730  136.9300 C   0  0  0  0  0  2  0  0  0  0  0  0
  188.5480  177.5790  142.2060 C   0  0  0  0  0  0  0  0  0  0  0  0
  191.7040  176.4150  145.7400 C   0  0  0  0  0  3  0  0  0  0  0  0
  190.7560  176.7530  146.7050 C   0  0  0  0  0  3  0  0  0  0  0  0
  186.2670  178.3970  142.8430 C   0  0  0  0  0  0  0  0  0  0  0  0
  185.3970  178.7080  143.8820 C   0  0  0  0  0  0  0  0  0  0  0  0
  189.0320  176.8490  139.9030 N   0  0  2  0  0  0  0  0  0  0  0  0
  190.8310  176.6820  141.5750 C   0  0  0  0  0  2  0  0  0  0  0  0
  184.6240  178.9830  146.0340 C   0  0  1  0  0  3  0  0  0  0  0  0
  191.3450  176.1860  139.2400 C   0  0  0  0  0  2  0  0  0  0  0  0
  191.3930  176.5380  144.3840 C   0  0  0  0  0  3  0  0  0  0  0  0
  189.8220  177.1280  142.6080 C   0  0  0  0  0  0  0  0  0  0  0  0
  190.1310  177.0010  143.9750 C   0  0  0  0  0  0  0  0  0  0  0  0
  187.9020  177.8000  144.5690 C   0  0  0  0  0  0  0  0  0  0  0  0
  183.5460  179.3780  145.0980 N   0  0  0  0  0  2  0  0  0  0  0  0
  188.9400  176.0750  137.5840 C   0  0  0  0  0  2  0  0  0  0  0  0
  190.4720  177.0640  140.1390 C   0  0  1  0  0  3  0  0  0  0  0  0
  184.0770  179.1900  143.8020 N   0  0  0  0  0  0  0  0  0  0  0  0
  188.6750  177.2310  138.5390 C   0  0  0  0  0  2  0  0  0  0  0  0
  191.4150  176.7530  137.8280 C   0  0  1  0  0  3  0  0  0  0  0  0
  189.4980  177.2140  146.3150 C   0  0  0  0  0  3  0  0  0  0  0  0
  189.1710  177.3430  144.9550 C   0  0  0  0  0  0  0  0  0  0  0  0
  186.9800  178.1290  145.5290 N   0  0  0  0  0  0  0  0  0  0  0  0
  188.3050  177.8020  140.7380 C   0  0  0  0  0  2  0  0  0  0  0  0
  185.8800  178.5350  141.6510 O   0  0  0  0  0  0  0  0  0  0  0  0
  184.1800  177.8550  146.8340 N   0  0  0  0  0  1  0  0  0  0  0  0
  187.5730  177.9270  143.1800 C   0  0  0  0  0  0  0  0  0  0  0  0
  185.7540  178.5700  145.1670 C   0  0  0  0  0  0  0  0  0  0  0  0
  192.7150  176.4680  137.2400 N   0  0  0  0  0  2  0  0  0  0  0  0
  193.2440  175.1440  137.1430 C   0  0  0  0  0  0  0  0  0  0  0  0
  192.5990  174.1600  137.5930 O   0  0  0  0  0  0  0  0  0  0  0  0
  194.5690  174.9270  136.5080 C   0  0  0  0  0  1  0  0  0  0  0  0
  1 16  1  0  0  0  0
  1 20  1  0  0  0  0
  2 12  2  0  0  0  0
  2 27  1  0  0  0  0
  3  4  1  0  0  0  0
  5 27  1  0  0  0  0
  5  6  1  0  0  0  0
  6 28  1  0  0  0  0
  7 19  1  6  0  0  0
  7 17  1  0  0  0  0
  7 24  1  0  0  0  0
  8 12  1  0  0  0  0
  9 26  1  6  0  0  0
 11  3  2  0  0  0  0
 12 13  1  0  0  0  0
 13 11  1  0  0  0  0
 13 22  2  0  0  0  0
 14 22  1  0  0  0  0
 14 23  1  0  0  0  0
 15  9  1  0  0  0  0
 16 19  1  0  0  0  0
 17 10  1  6  0  0  0
 17  8  1  0  0  0  0
 18  6  2  0  0  0  0
 18 15  1  0  0  0  0
 20 29  1  6  0  0  0
 20 10  1  0  0  0  0
 21  4  2  0  0  0  0
 22 21  1  0  0  0  0
 24  2  1  0  0  0  0
 25  5  2  0  0  0  0
 27 14  2  0  0  0  0
 28 23  2  0  0  0  0
 28  9  1  0  0  0  0
 30 29  1  0  0  0  0
 30 31  2  0  0  0  0
 32 30  1  0  0  0  0
M  END
>  <MODEL>
5

>  <REMARK>
 VINA RESULT:      -9.7      2.969      5.408
  Name = 
  1 active torsions:
  status: ('A' for Active; 'I' for Inactive)
    1  A    between atoms: C_20  and  N_29
                            x       y       z     vdW  Elec       q    Type
                         _______ _______ _______ _____ _____    ______ ____

>  <TORSDO>
F 1

$$$$
=
 OpenBabel11122410463D

 32 37  0  0  1  0  0  0  0  0999 V2000
  192.2880  175.7280  146.2100 C   0  0  0  0  0  2  0  0  0  0  0  0
  187.8630  177.8580  143.2390 C   0  0  0  0  0  0  0  0  0  0  0  0
  183.9120  178.7850  145.9470 C   0  0  0  0  0  3  0  0  0  0  0  0
  183.1750  179.0460  144.7920 C   0  0  0  0  0  3  0  0  0  0  0  0
  187.6880  178.0310  140.7450 C   0  0  0  0  0  0  0  0  0  0  0  0
  186.8670  178.3110  139.6590 C   0  0  0  0  0  0  0  0  0  0  0  0
  189.7800  176.7290  144.2960 N   0  0  2  0  0  0  0  0  0  0  0  0
  188.0070  177.6150  145.7550 C   0  0  0  0  0  2  0  0  0  0  0  0
  184.9720  178.8930  138.4860 C   0  0  1  0  0  3  0  0  0  0  0  0
  190.0260  176.6990  146.7800 C   0  0  0  0  0  2  0  0  0  0  0  0
  185.2580  178.4290  145.8490 C   0  0  0  0  0  3  0  0  0  0  0  0
  187.2450  177.9710  144.5010 C   0  0  0  0  0  0  0  0  0  0  0  0
  185.8870  178.3270  144.5960 C   0  0  0  0  0  0  0  0  0  0  0  0
  185.7430  178.4890  142.1640 C   0  0  0  0  0  0  0  0  0  0  0  0
  186.0640  178.6470  137.5150 N   0  0  0  0  0  2  0  0  0  0  0  0
  191.7440  175.3680  144.8260 C   0  0  0  0  0  2  0  0  0  0  0  0
  189.5140  177.4550  145.5530 C   0  0  1  0  0  3  0  0  0  0  0  0
  187.1920  178.2980  138.2900 N   0  0  0  0  0  0  0  0  0  0  0  0
  191.2190  176.5880  144.0830 C   0  0  0  0  0  2  0  0  0  0  0  0
  191.5340  176.8520  146.9230 C   0  0  1  0  0  3  0  0  0  0  0  0
  183.7840  178.9490  143.5400 C   0  0  0  0  0  3  0  0  0  0  0  0
  185.1380  178.5910  143.4260 C   0  0  0  0  0  0  0  0  0  0  0  0
  185.0050  178.7470  141.0380 N   0  0  0  0  0  0  0  0  0  0  0  0
  189.3420  177.5820  143.1960 C   0  0  0  0  0  2  0  0  0  0  0  0
  188.8890  177.7060  140.5440 O   0  0  0  0  0  0  0  0  0  0  0  0
  183.8970  177.9440  138.2550 N   0  0  0  0  0  1  0  0  0  0  0  0
  187.1230  178.1200  142.0540 C   0  0  0  0  0  0  0  0  0  0  0  0
  185.5790  178.6510  139.8170 C   0  0  0  0  0  0  0  0  0  0  0  0
  191.9040  176.8570  148.3310 N   0  0  0  0  0  2  0  0  0  0  0  0
  193.1060  176.2550  148.8140 C   0  0  0  0  0  0  0  0  0  0  0  0
  193.8920  175.6660  148.0240 O   0  0  0  0  0  0  0  0  0  0  0  0
  193.4290  176.3190  150.2620 C   0  0  0  0  0  1  0  0  0  0  0  0
  1 20  1  0  0  0  0
  2 12  1  0  0  0  0
  4  3  1  0  0  0  0
  5 27  1  0  0  0  0
  6 28  1  0  0  0  0
  6  5  1  0  0  0  0
  7 24  1  6  0  0  0
  7 17  1  0  0  0  0
  9 26  1  6  0  0  0
  9 28  1  0  0  0  0
 10 20  1  0  0  0  0
 11  3  2  0  0  0  0
 12 13  2  0  0  0  0
 12  8  1  0  0  0  0
 13 11  1  0  0  0  0
 14 22  2  0  0  0  0
 15 18  1  0  0  0  0
 15  9  1  0  0  0  0
 16  1  1  0  0  0  0
 17  8  1  1  0  0  0
 17 10  1  0  0  0  0
 18  6  2  0  0  0  0
 19  7  1  0  0  0  0
 19 16  1  0  0  0  0
 20 29  1  1  0  0  0
 21  4  2  0  0  0  0
 22 21  1  0  0  0  0
 22 13  1  0  0  0  0
 23 14  1  0  0  0  0
 24  2  1  0  0  0  0
 25  5  2  0  0  0  0
 27 14  1  0  0  0  0
 27  2  2  0  0  0  0
 28 23  2  0  0  0  0
 29 30  1  0  0  0  0
 30 32  1  0  0  0  0
 31 30  2  0  0  0  0
M  END
>  <MODEL>
6

>  <REMARK>
 VINA RESULT:      -9.3      2.180      8.145
  Name = 
  1 active torsions:
  status: ('A' for Active; 'I' for Inactive)
    1  A    between atoms: C_20  and  N_29
                            x       y       z     vdW  Elec       q    Type
                         _______ _______ _______ _____ _____    ______ ____

>  <TORSDO>
F 1

$$$$
=
 OpenBabel11122410463D

 32 37  0  0  1  0  0  0  0  0999 V2000
  181.2810  179.0630  141.0350 C   0  0  0  0  0  2  0  0  0  0  0  0
  186.9140  178.2180  141.7470 C   0  0  0  0  0  0  0  0  0  0  0  0
  189.4050  177.7990  137.5730 C   0  0  0  0  0  3  0  0  0  0  0  0
  190.5470  177.4330  138.2860 C   0  0  0  0  0  3  0  0  0  0  0  0
  188.0880  177.7410  143.9090 C   0  0  0  0  0  0  0  0  0  0  0  0
  189.2780  177.3690  144.5220 C   0  0  0  0  0  0  0  0  0  0  0  0
  184.4560  178.3560  141.6460 N   0  0  2  0  0  0  0  0  0  0  0  0
  185.7200  178.6260  139.5510 C   0  0  0  0  0  2  0  0  0  0  0  0
  191.4840  176.7450  144.7400 C   0  0  1  0  0  3  0  0  0  0  0  0
  183.3050  178.9870  139.5230 C   0  0  0  0  0  2  0  0  0  0  0  0
  188.2210  178.0880  138.2540 C   0  0  0  0  0  3  0  0  0  0  0  0
  186.9680  178.3090  140.3410 C   0  0  0  0  0  0  0  0  0  0  0  0
  188.1620  178.0140  139.6570 C   0  0  0  0  0  0  0  0  0  0  0  0
  189.2820  177.5550  141.7770 C   0  0  0  0  0  0  0  0  0  0  0  0
  190.8860  176.8210  146.0930 N   0  0  0  0  0  0  0  0  0  0  0  0
  182.0470  178.2010  142.0410 C   0  0  0  0  0  2  0  0  0  0  0  0
  184.5520  179.1350  140.3970 C   0  0  1  0  0  3  0  0  0  0  0  0
  189.5410  177.2070  145.8950 N   0  0  0  0  0  0  0  0  0  0  0  0
  183.3550  178.8480  142.4710 C   0  0  0  0  0  2  0  0  0  0  0  0
  182.1630  179.8420  140.0560 C   0  0  1  0  0  3  0  0  0  0  0  0
  190.5040  177.3540  139.6780 C   0  0  0  0  0  3  0  0  0  0  0  0
  189.3200  177.6410  140.3770 C   0  0  0  0  0  0  0  0  0  0  0  0
  190.4120  177.1930  142.4630 N   0  0  0  0  0  2  0  0  0  0  0  0
  185.6480  178.6500  142.4370 C   0  0  0  0  0  2  0  0  0  0  0  0
  187.0710  177.9690  144.6190 O   0  0  0  0  0  0  0  0  0  0  0  0
  191.9200  175.3840  144.4810 N   0  0  0  0  0  1  0  0  0  0  0  0
  188.0700  177.8450  142.4850 C   0  0  0  0  0  0  0  0  0  0  0  0
  190.3850  177.1050  143.8130 C   0  0  0  0  0  0  0  0  0  0  0  0
  181.3430  180.3230  138.9540 N   0  0  0  0  0  2  0  0  0  0  0  0
  181.6170  181.5470  138.2680 C   0  0  0  0  0  0  0  0  0  0  0  0
  182.5820  182.2770  138.6170 O   0  0  0  0  0  0  0  0  0  0  0  0
  180.7500  181.9640  137.1370 C   0  0  0  0  0  1  0  0  0  0  0  0
  1 16  1  0  0  0  0
  2 24  1  0  0  0  0
  2 27  1  0  0  0  0
  3 11  2  0  0  0  0
  3  4  1  0  0  0  0
  4 21  2  0  0  0  0
  5  6  1  0  0  0  0
  5 25  2  0  0  0  0
  6 18  1  0  0  0  0
  7 24  1  1  0  0  0
  7 19  1  0  0  0  0
  8 12  1  0  0  0  0
  8 17  1  0  0  0  0
  9 26  1  6  0  0  0
  9 15  1  0  0  0  0
 10 20  1  0  0  0  0
 11 13  1  0  0  0  0
 12  2  2  0  0  0  0
 13 12  1  0  0  0  0
 13 22  2  0  0  0  0
 14 23  1  0  0  0  0
 14 27  2  0  0  0  0
 16 19  1  0  0  0  0
 17 10  1  6  0  0  0
 17  7  1  0  0  0  0
 18 15  2  0  0  0  0
 20 29  1  6  0  0  0
 20  1  1  0  0  0  0
 21 22  1  0  0  0  0
 22 14  1  0  0  0  0
 23 28  1  0  0  0  0
 27  5  1  0  0  0  0
 28  6  2  0  0  0  0
 28  9  1  0  0  0  0
 30 31  2  0  0  0  0
 30 29  1  0  0  0  0
 32 30  1  0  0  0  0
M  END
>  <MODEL>
7

>  <REMARK>
 VINA RESULT:      -9.0      2.953      5.286
  Name = 
  1 active torsions:
  status: ('A' for Active; 'I' for Inactive)
    1  A    between atoms: C_20  and  N_29
                            x       y       z     vdW  Elec       q    Type
                         _______ _______ _______ _____ _____    ______ ____

>  <TORSDO>
F 1

$$$$
=
 OpenBabel11122410463D

 32 37  0  0  1  0  0  0  0  0999 V2000
  192.5900  175.3830  135.4540 C   0  0  0  0  0  2  0  0  0  0  0  0
  189.4830  177.5370  139.7740 C   0  0  0  0  0  0  0  0  0  0  0  0
  191.6780  177.2790  144.1240 C   0  0  0  0  0  3  0  0  0  0  0  0
  190.5040  177.6990  144.7470 C   0  0  0  0  0  3  0  0  0  0  0  0
  187.0860  178.2580  139.6700 C   0  0  0  0  0  0  0  0  0  0  0  0
  185.9690  178.6720  140.3880 C   0  0  0  0  0  0  0  0  0  0  0  0
  190.5640  176.4580  137.8410 N   0  0  2  0  0  0  0  0  0  0  0  0
  191.8830  176.7390  139.8990 C   0  0  0  0  0  2  0  0  0  0  0  0
  184.6650  179.2530  142.1950 C   0  0  1  0  0  3  0  0  0  0  0  0
  192.9930  175.8860  137.8980 C   0  0  0  0  0  2  0  0  0  0  0  0
  191.7180  177.1360  142.7350 C   0  0  0  0  0  3  0  0  0  0  0  0
  190.6290  177.2710  140.5510 C   0  0  0  0  0  0  0  0  0  0  0  0
  190.5850  177.4130  141.9510 C   0  0  0  0  0  0  0  0  0  0  0  0
  188.2500  178.1120  141.8220 C   0  0  0  0  0  0  0  0  0  0  0  0
  183.8460  179.3860  140.9670 N   0  0  0  0  0  2  0  0  0  0  0  0
  191.0940  175.2850  135.7600 C   0  0  0  0  0  2  0  0  0  0  0  0
  191.8880  176.8310  138.3730 C   0  0  1  0  0  3  0  0  0  0  0  0
  184.6950  179.0190  139.9000 N   0  0  0  0  0  0  0  0  0  0  0  0
  190.5520  176.5630  136.3840 C   0  0  0  0  0  2  0  0  0  0  0  0
  193.3980  176.2010  136.4640 C   0  0  1  0  0  3  0  0  0  0  0  0
  189.3700  177.9770  143.9830 C   0  0  0  0  0  3  0  0  0  0  0  0
  189.3950  177.8380  142.5850 C   0  0  0  0  0  0  0  0  0  0  0  0
  187.1020  178.5250  142.4490 N   0  0  0  0  0  0  0  0  0  0  0  0
  189.6140  177.4780  138.2760 C   0  0  0  0  0  2  0  0  0  0  0  0
  187.0100  178.1520  138.4170 O   0  0  0  0  0  0  0  0  0  0  0  0
  184.0750  178.2490  143.0630 N   0  0  0  0  0  1  0  0  0  0  0  0
  188.2800  177.9660  140.3970 C   0  0  0  0  0  0  0  0  0  0  0  0
  185.9930  178.7910  141.7230 C   0  0  0  0  0  0  0  0  0  0  0  0
  194.8150  175.9290  136.2740 N   0  0  0  0  0  2  0  0  0  0  0  0
  195.6160  176.6390  135.3280 C   0  0  0  0  0  0  0  0  0  0  0  0
  195.1070  177.5270  134.5940 O   0  0  0  0  0  0  0  0  0  0  0  0
  197.0620  176.3220  135.2060 C   0  0  0  0  0  1  0  0  0  0  0  0
  1 16  1  0  0  0  0
  1 20  1  0  0  0  0
  2 27  2  0  0  0  0
  2 12  1  0  0  0  0
  3  4  1  0  0  0  0
  5  6  1  0  0  0  0
  5 27  1  0  0  0  0
  6 28  1  0  0  0  0
  7 19  1  6  0  0  0
  7 24  1  0  0  0  0
  7 17  1  0  0  0  0
  8 12  1  0  0  0  0
  9 26  1  1  0  0  0
 11  3  2  0  0  0  0
 12 13  2  0  0  0  0
 13 22  1  0  0  0  0
 13 11  1  0  0  0  0
 14 23  1  0  0  0  0
 14 22  2  0  0  0  0
 15  9  1  0  0  0  0
 16 19  1  0  0  0  0
 17 10  1  6  0  0  0
 17  8  1  0  0  0  0
 18  6  2  0  0  0  0
 18 15  1  0  0  0  0
 20 29  1  1  0  0  0
 20 10  1  0  0  0  0
 21  4  2  0  0  0  0
 22 21  1  0  0  0  0
 24  2  1  0  0  0  0
 25  5  2  0  0  0  0
 27 14  1  0  0  0  0
 28  9  1  0  0  0  0
 28 23  2  0  0  0  0
 30 29  1  0  0  0  0
 31 30  2  0  0  0  0
 32 30  1  0  0  0  0
M  END
>  <MODEL>
8

>  <REMARK>
 VINA RESULT:      -8.9      4.002      6.723
  Name = 
  1 active torsions:
  status: ('A' for Active; 'I' for Inactive)
    1  A    between atoms: C_20  and  N_29
                            x       y       z     vdW  Elec       q    Type
                         _______ _______ _______ _____ _____    ______ ____

>  <TORSDO>
F 1

$$$$
=
 OpenBabel11122410463D

 32 37  0  0  1  0  0  0  0  0999 V2000
  190.2160  176.4460  137.4100 C   0  0  0  0  0  2  0  0  0  0  0  0
  186.6020  178.0490  141.5720 C   0  0  0  0  0  0  0  0  0  0  0  0
  188.3390  177.3770  146.0810 C   0  0  0  0  0  3  0  0  0  0  0  0
  187.0920  177.7010  146.6150 C   0  0  0  0  0  3  0  0  0  0  0  0
  184.2050  178.7210  141.2870 C   0  0  0  0  0  0  0  0  0  0  0  0
  183.0060  179.0290  141.9200 C   0  0  0  0  0  0  0  0  0  0  0  0
  187.9160  177.2100  139.6640 N   0  0  2  0  0  0  0  0  0  0  0  0
  189.0030  177.2990  141.8700 C   0  0  0  0  0  2  0  0  0  0  0  0
  181.5010  179.3810  143.6270 C   0  0  1  0  0  3  0  0  0  0  0  0
  190.3440  176.6930  139.9220 C   0  0  0  0  0  2  0  0  0  0  0  0
  188.5290  177.3860  144.6980 C   0  0  0  0  0  3  0  0  0  0  0  0
  187.6700  177.7290  142.4360 C   0  0  0  0  0  0  0  0  0  0  0  0
  187.4750  177.7180  143.8300 C   0  0  0  0  0  0  0  0  0  0  0  0
  185.1430  178.3730  143.5250 C   0  0  0  0  0  0  0  0  0  0  0  0
  180.8110  179.6260  142.3390 N   0  0  0  0  0  2  0  0  0  0  0  0
  188.7000  176.2800  137.5420 C   0  0  0  0  0  2  0  0  0  0  0  0
  189.1630  177.5550  140.3720 C   0  0  1  0  0  3  0  0  0  0  0  0
  181.7790  179.3960  141.3360 N   0  0  0  0  0  0  0  0  0  0  0  0
  188.0520  177.4710  138.2330 C   0  0  0  0  0  2  0  0  0  0  0  0
  190.8850  177.1690  138.5810 C   0  0  1  0  0  3  0  0  0  0  0  0
  186.0360  178.0320  145.7670 C   0  0  0  0  0  3  0  0  0  0  0  0
  186.2110  178.0450  144.3730 C   0  0  0  0  0  0  0  0  0  0  0  0
  183.9230  178.6880  144.0640 N   0  0  0  0  0  0  0  0  0  0  0  0
  186.8900  178.1550  140.0990 C   0  0  0  0  0  2  0  0  0  0  0  0
  184.2650  178.7480  140.0280 O   0  0  0  0  0  0  0  0  0  0  0  0
  180.8590  178.2770  144.3170 N   0  0  0  0  0  1  0  0  0  0  0  0
  185.3260  178.3800  142.1030 C   0  0  0  0  0  0  0  0  0  0  0  0
  182.8860  179.0050  143.2550 C   0  0  0  0  0  0  0  0  0  0  0  0
  192.3230  176.9520  138.5170 N   0  0  0  0  0  2  0  0  0  0  0  0
  192.8970  175.7080  138.1130 C   0  0  0  0  0  0  0  0  0  0  0  0
  192.1630  174.7280  137.8140 O   0  0  0  0  0  0  0  0  0  0  0  0
  194.3740  175.5660  138.0500 C   0  0  0  0  0  1  0  0  0  0  0  0
  1 16  1  0  0  0  0
  1 20  1  0  0  0  0
  2 27  2  0  0  0  0
  2 12  1  0  0  0  0
  3  4  1  0  0  0  0
  5  6  1  0  0  0  0
  5 27  1  0  0  0  0
  6 28  1  0  0  0  0
  7 19  1  6  0  0  0
  7 24  1  0  0  0  0
  7 17  1  0  0  0  0
  8 12  1  0  0  0  0
  9 26  1  6  0  0  0
 11  3  2  0  0  0  0
 12 13  2  0  0  0  0
 13 22  1  0  0  0  0
 13 11  1  0  0  0  0
 14 23  1  0  0  0  0
 14 22  2  0  0  0  0
 15  9  1  0  0  0  0
 16 19  1  0  0  0  0
 17 10  1  6  0  0  0
 17  8  1  0  0  0  0
 18  6  2  0  0  0  0
 18 15  1  0  0  0  0
 20 29  1  1  0  0  0
 20 10  1  0  0  0  0
 21  4  2  0  0  0  0
 22 21  1  0  0  0  0
 24  2  1  0  0  0  0
 25  5  2  0  0  0  0
 27 14  1  0  0  0  0
 28  9  1  0  0  0  0
 28 23  2  0  0  0  0
 30 29  1  0  0  0  0
 31 30  2  0  0  0  0
 32 30  1  0  0  0  0
M  END
>  <MODEL>
9

>  <REMARK>
 VINA RESULT:      -8.3      3.310      5.913
  Name = 
  1 active torsions:
  status: ('A' for Active; 'I' for Inactive)
    1  A    between atoms: C_20  and  N_29
                            x       y       z     vdW  Elec       q    Type
                         _______ _______ _______ _____ _____    ______ ____

>  <TORSDO>
F 1

$$$$
