=
 OpenBabel11122410223D

 30 35  0  0  1  0  0  0  0  0999 V2000
  189.2460  177.4390  143.4830 C   0  0  1  0  0  3  0  0  0  0  0  0
  191.2400  176.4780  144.7640 C   0  0  0  0  0  0  0  0  0  0  0  0
  187.0790  177.9250  147.2140 C   0  0  0  0  0  2  0  0  0  0  0  0
  187.9800  178.3070  143.6580 C   0  0  1  0  0  3  0  0  0  0  0  0
  190.0810  178.0250  142.5130 O   0  0  0  0  0  0  0  0  0  0  0  0
  187.5320  178.4980  140.0430 O   0  0  0  0  0  0  0  0  0  0  0  0
  184.8720  177.9800  142.8030 C   0  0  1  0  0  3  0  0  0  0  0  0
  188.0510  178.2640  141.1680 C   0  0  0  0  0  0  0  0  0  0  0  0
  184.6750  177.9640  144.3180 C   0  0  2  0  0  3  0  0  0  0  0  0
  185.8130  178.3070  146.5390 C   0  0  0  0  0  0  0  0  0  0  0  0
  189.4940  177.8180  141.2370 C   0  0  2  0  0  3  0  0  0  0  0  0
  187.2740  178.3840  142.3750 N   0  0  0  0  0  0  0  0  0  0  0  0
  191.8520  176.0960  145.9630 C   0  0  0  0  0  3  0  0  0  0  0  0
  183.5460  178.9400  144.5790 C   0  0  0  0  0  2  0  0  0  0  0  0
  183.5160  178.3440  142.2200 C   0  0  0  0  0  2  0  0  0  0  0  0
  191.8910  176.2150  143.5650 O   0  0  0  0  0  1  0  0  0  0  0  0
  188.0170  178.0190  146.0340 C   0  0  2  0  0  3  0  0  0  0  0  0
  191.2160  176.3210  147.1860 C   0  0  0  0  0  3  0  0  0  0  0  0
  189.9800  177.1090  144.7830 C   0  0  0  0  0  0  0  0  0  0  0  0
  187.1830  177.6970  144.8090 C   0  0  1  0  0  3  0  0  0  0  0  0
  184.7620  178.5820  147.1770 O   0  0  0  0  0  0  0  0  0  0  0  0
  185.8750  178.2720  145.1070 N   0  0  0  0  0  0  0  0  0  0  0  0
  182.6430  178.8230  143.3690 C   0  0  0  0  0  2  0  0  0  0  0  0
  185.8630  180.3690  142.8330 C   0  0  0  0  0  1  0  0  0  0  0  0
  189.9550  176.9180  147.2180 C   0  0  0  0  0  3  0  0  0  0  0  0
  189.3210  177.2830  146.0260 C   0  0  0  0  0  0  0  0  0  0  0  0
  185.9320  178.9500  142.2740 C   0  0  2  0  0  3  0  0  0  0  0  0
  189.6520  176.3760  140.7640 C   0  0  0  0  0  2  0  0  0  0  0  0
  190.0200  176.3620  138.5900 C   0  0  0  0  0  1  0  0  0  0  0  0
  190.6740  176.2970  139.8190 O   0  0  0  0  0  0  0  0  0  0  0  0
  1  5  1  6  0  0  0
  1  4  1  0  0  0  0
  1 19  1  0  0  0  0
  2 19  2  0  0  0  0
  2 13  1  0  0  0  0
  4 12  1  6  0  0  0
  4 20  1  0  0  0  0
  6  8  2  0  0  0  0
  7 15  1  6  0  0  0
  7  9  1  0  0  0  0
  8 11  1  0  0  0  0
  8 12  1  0  0  0  0
  9 14  1  6  0  0  0
  9 22  1  0  0  0  0
 10 21  2  0  0  0  0
 10  3  1  0  0  0  0
 11 28  1  1  0  0  0
 11  5  1  0  0  0  0
 13 18  2  0  0  0  0
 15 23  1  0  0  0  0
 16  2  1  0  0  0  0
 17  3  1  1  0  0  0
 18 25  1  0  0  0  0
 19 26  1  0  0  0  0
 20 22  1  1  0  0  0
 20 17  1  0  0  0  0
 22 10  1  0  0  0  0
 23 14  1  0  0  0  0
 26 17  1  0  0  0  0
 26 25  2  0  0  0  0
 27 12  1  0  0  0  0
 27  7  1  0  0  0  0
 27 24  1  1  0  0  0
 29 30  1  0  0  0  0
 30 28  1  0  0  0  0
M  END
>  <MODEL>
1

>  <REMARK>
 VINA RESULT:      -9.6      0.000      0.000
  Name = 
  2 active torsions:
  status: ('A' for Active; 'I' for Inactive)
    1  A    between atoms: C_11  and  C_28
    2  A    between atoms: C_28  and  O_30
                            x       y       z     vdW  Elec       q    Type
                         _______ _______ _______ _____ _____    ______ ____

>  <TORSDO>
F 2

$$$$
=
 OpenBabel11122410223D

 30 35  0  0  1  0  0  0  0  0999 V2000
  187.2650  178.1860  140.5440 C   0  0  1  0  0  3  0  0  0  0  0  0
  184.9700  178.9380  139.7040 C   0  0  0  0  0  0  0  0  0  0  0  0
  185.7040  177.9220  144.5860 C   0  0  0  0  0  2  0  0  0  0  0  0
  187.9630  177.4510  141.7100 C   0  0  1  0  0  3  0  0  0  0  0  0
  187.5490  177.5170  139.3370 O   0  0  0  0  0  0  0  0  0  0  0  0
  191.0890  177.3070  139.8350 O   0  0  0  0  0  0  0  0  0  0  0  0
  190.5290  178.0930  143.5810 C   0  0  1  0  0  3  0  0  0  0  0  0
  189.8710  177.4880  140.1080 C   0  0  0  0  0  0  0  0  0  0  0  0
  189.4600  178.1290  144.6720 C   0  0  2  0  0  3  0  0  0  0  0  0
  187.0380  177.6710  145.1870 C   0  0  0  0  0  0  0  0  0  0  0  0
  188.8990  177.7840  138.9880 C   0  0  2  0  0  3  0  0  0  0  0  0
  189.4110  177.4470  141.4720 N   0  0  0  0  0  0  0  0  0  0  0  0
  183.6280  179.2550  139.9380 C   0  0  0  0  0  3  0  0  0  0  0  0
  190.0140  177.2730  145.7930 C   0  0  0  0  0  2  0  0  0  0  0  0
  191.8460  177.8700  144.3070 C   0  0  0  0  0  2  0  0  0  0  0  0
  185.4930  179.1340  138.4310 O   0  0  0  0  0  1  0  0  0  0  0  0
  186.0580  177.7340  143.1300 C   0  0  2  0  0  3  0  0  0  0  0  0
  183.0740  179.0960  141.2100 C   0  0  0  0  0  3  0  0  0  0  0  0
  185.7720  178.4380  140.7490 C   0  0  0  0  0  0  0  0  0  0  0  0
  187.5130  178.1390  142.9960 C   0  0  1  0  0  3  0  0  0  0  0  0
  187.2030  177.5050  146.4250 O   0  0  0  0  0  0  0  0  0  0  0  0
  188.1210  177.7000  144.2480 N   0  0  0  0  0  0  0  0  0  0  0  0
  191.5130  177.4830  145.7390 C   0  0  0  0  0  2  0  0  0  0  0  0
  190.0460  175.6160  143.0160 C   0  0  0  0  0  1  0  0  0  0  0  0
  183.8630  178.6310  142.2620 C   0  0  0  0  0  3  0  0  0  0  0  0
  185.2130  178.3330  142.0480 C   0  0  0  0  0  0  0  0  0  0  0  0
  190.3530  177.0210  142.5030 C   0  0  2  0  0  3  0  0  0  0  0  0
  189.0820  179.2020  138.4570 C   0  0  0  0  0  2  0  0  0  0  0  0
  189.1430  178.2420  136.4730 C   0  0  0  0  0  1  0  0  0  0  0  0
  188.5550  179.2970  137.1690 O   0  0  0  0  0  0  0  0  0  0  0  0
  1  5  1  6  0  0  0
  1 19  1  0  0  0  0
  1  4  1  0  0  0  0
  2 13  2  0  0  0  0
  2 19  1  0  0  0  0
  3 10  1  0  0  0  0
  4 12  1  6  0  0  0
  4 20  1  0  0  0  0
  6  8  2  0  0  0  0
  7 15  1  1  0  0  0
  7  9  1  0  0  0  0
  8 12  1  0  0  0  0
  9 14  1  1  0  0  0
 10 21  2  0  0  0  0
 11 28  1  1  0  0  0
 11  5  1  0  0  0  0
 11  8  1  0  0  0  0
 12 27  1  0  0  0  0
 13 18  1  0  0  0  0
 15 23  1  0  0  0  0
 16  2  1  0  0  0  0
 17  3  1  1  0  0  0
 18 25  2  0  0  0  0
 19 26  2  0  0  0  0
 20 17  1  0  0  0  0
 20 22  1  1  0  0  0
 22  9  1  0  0  0  0
 22 10  1  0  0  0  0
 23 14  1  0  0  0  0
 26 25  1  0  0  0  0
 26 17  1  0  0  0  0
 27 24  1  1  0  0  0
 27  7  1  0  0  0  0
 29 30  1  0  0  0  0
 30 28  1  0  0  0  0
M  END
>  <MODEL>
2

>  <REMARK>
 VINA RESULT:      -9.2      1.832      5.716
  Name = 
  2 active torsions:
  status: ('A' for Active; 'I' for Inactive)
    1  A    between atoms: C_11  and  C_28
    2  A    between atoms: C_28  and  O_30
                            x       y       z     vdW  Elec       q    Type
                         _______ _______ _______ _____ _____    ______ ____

>  <TORSDO>
F 2

$$$$
=
 OpenBabel11122410223D

 30 35  0  0  1  0  0  0  0  0999 V2000
  186.4730  178.3120  142.5450 C   0  0  1  0  0  3  0  0  0  0  0  0
  187.1610  178.1240  145.0000 C   0  0  0  0  0  0  0  0  0  0  0  0
  182.3340  178.8490  143.7420 C   0  0  0  0  0  2  0  0  0  0  0  0
  185.3530  178.8440  141.6230 C   0  0  1  0  0  3  0  0  0  0  0  0
  187.6930  178.9200  142.1920 O   0  0  0  0  0  0  0  0  0  0  0  0
  187.4310  178.3000  138.6750 O   0  0  0  0  0  0  0  0  0  0  0  0
  183.6600  177.5920  139.1600 C   0  0  1  0  0  3  0  0  0  0  0  0
  187.0790  178.4000  139.8810 C   0  0  0  0  0  0  0  0  0  0  0  0
  182.5000  177.7810  140.1370 C   0  0  2  0  0  3  0  0  0  0  0  0
  181.8220  178.7740  142.3500 C   0  0  0  0  0  0  0  0  0  0  0  0
  188.1320  178.3570  140.9650 C   0  0  2  0  0  3  0  0  0  0  0  0
  185.6860  178.5190  140.2310 N   0  0  0  0  0  0  0  0  0  0  0  0
  186.8390  178.1200  146.3620 C   0  0  0  0  0  3  0  0  0  0  0  0
  181.4150  178.4650  139.3300 C   0  0  0  0  0  2  0  0  0  0  0  0
  183.0220  177.4920  137.7840 C   0  0  0  0  0  2  0  0  0  0  0  0
  188.4670  177.8380  144.6190 O   0  0  0  0  0  1  0  0  0  0  0  0
  183.8100  178.9790  143.4470 C   0  0  2  0  0  3  0  0  0  0  0  0
  185.5320  178.3770  146.7810 C   0  0  0  0  0  3  0  0  0  0  0  0
  186.1690  178.4050  144.0400 C   0  0  0  0  0  0  0  0  0  0  0  0
  184.0420  178.2530  142.1370 C   0  0  1  0  0  3  0  0  0  0  0  0
  180.5980  178.8740  142.0720 O   0  0  0  0  0  0  0  0  0  0  0  0
  182.8320  178.5150  141.3650 N   0  0  0  0  0  0  0  0  0  0  0  0
  181.5700  177.9180  137.9270 C   0  0  0  0  0  2  0  0  0  0  0  0
  184.1800  180.1240  139.0930 C   0  0  0  0  0  1  0  0  0  0  0  0
  184.5330  178.6280  145.8410 C   0  0  0  0  0  3  0  0  0  0  0  0
  184.8360  178.6110  144.4750 C   0  0  0  0  0  0  0  0  0  0  0  0
  184.7190  178.6970  139.1520 C   0  0  2  0  0  3  0  0  0  0  0  0
  188.6800  176.9450  141.1490 C   0  0  0  0  0  2  0  0  0  0  0  0
  190.6860  177.1280  140.2510 C   0  0  0  0  0  1  0  0  0  0  0  0
  190.0340  177.0020  141.4760 O   0  0  0  0  0  0  0  0  0  0  0  0
  1  5  1  1  0  0  0
  1 19  1  0  0  0  0
  2 13  1  0  0  0  0
  4 12  1  6  0  0  0
  4 20  1  0  0  0  0
  4  1  1  0  0  0  0
  6  8  2  0  0  0  0
  7 15  1  6  0  0  0
  7  9  1  0  0  0  0
  8 12  1  0  0  0  0
  8 11  1  0  0  0  0
  9 14  1  6  0  0  0
  9 22  1  0  0  0  0
 10  3  1  0  0  0  0
 11 28  1  1  0  0  0
 11  5  1  0  0  0  0
 13 18  2  0  0  0  0
 15 23  1  0  0  0  0
 16  2  1  0  0  0  0
 17  3  1  1  0  0  0
 17 26  1  0  0  0  0
 19 26  1  0  0  0  0
 19  2  2  0  0  0  0
 20 22  1  6  0  0  0
 20 17  1  0  0  0  0
 21 10  2  0  0  0  0
 22 10  1  0  0  0  0
 23 14  1  0  0  0  0
 25 18  1  0  0  0  0
 26 25  2  0  0  0  0
 27 24  1  1  0  0  0
 27  7  1  0  0  0  0
 27 12  1  0  0  0  0
 28 30  1  0  0  0  0
 29 30  1  0  0  0  0
M  END
>  <MODEL>
3

>  <REMARK>
 VINA RESULT:      -9.0      2.584      4.300
  Name = 
  2 active torsions:
  status: ('A' for Active; 'I' for Inactive)
    1  A    between atoms: C_11  and  C_28
    2  A    between atoms: C_28  and  O_30
                            x       y       z     vdW  Elec       q    Type
                         _______ _______ _______ _____ _____    ______ ____

>  <TORSDO>
F 2

$$$$
=
 OpenBabel11122410223D

 30 35  0  0  1  0  0  0  0  0999 V2000
  188.1690  177.8110  142.4980 C   0  0  1  0  0  3  0  0  0  0  0  0
  187.0490  177.9200  144.7940 C   0  0  0  0  0  0  0  0  0  0  0  0
  184.4400  178.9990  140.6180 C   0  0  0  0  0  2  0  0  0  0  0  0
  188.0400  178.3230  141.0460 C   0  0  1  0  0  3  0  0  0  0  0  0
  189.4120  178.2140  143.0240 O   0  0  0  0  0  0  0  0  0  0  0  0
  191.3840  177.1010  140.2490 O   0  0  0  0  0  0  0  0  0  0  0  0
  188.1540  176.9160  138.1290 C   0  0  1  0  0  3  0  0  0  0  0  0
  190.3600  177.4230  140.9110 C   0  0  0  0  0  0  0  0  0  0  0  0
  186.7010  177.3840  138.0790 C   0  0  2  0  0  3  0  0  0  0  0  0
  184.9510  178.7730  139.2420 C   0  0  0  0  0  0  0  0  0  0  0  0
  190.4260  177.4240  142.4210 C   0  0  2  0  0  3  0  0  0  0  0  0
  189.1280  177.7540  140.2420 N   0  0  0  0  0  0  0  0  0  0  0  0
  185.9280  178.1600  145.5950 C   0  0  0  0  0  3  0  0  0  0  0  0
  186.5510  178.0590  136.7300 C   0  0  0  0  0  2  0  0  0  0  0  0
  188.5570  176.6820  136.6820 C   0  0  0  0  0  2  0  0  0  0  0  0
  188.2060  177.4310  145.3890 O   0  0  0  0  0  1  0  0  0  0  0  0
  185.7440  178.9110  141.3750 C   0  0  2  0  0  3  0  0  0  0  0  0
  184.7400  178.6280  145.0290 C   0  0  0  0  0  3  0  0  0  0  0  0
  186.9930  178.1650  143.4080 C   0  0  0  0  0  0  0  0  0  0  0  0
  186.6290  177.9730  140.5790 C   0  0  1  0  0  3  0  0  0  0  0  0
  184.2470  178.9710  138.2170 O   0  0  0  0  0  0  0  0  0  0  0  0
  186.2860  178.2530  139.1880 N   0  0  0  0  0  0  0  0  0  0  0  0
  187.4730  177.2900  135.8070 C   0  0  0  0  0  2  0  0  0  0  0  0
  189.0560  179.3310  138.3320 C   0  0  0  0  0  1  0  0  0  0  0  0
  184.6600  178.8460  143.6540 C   0  0  0  0  0  3  0  0  0  0  0  0
  185.7650  178.5880  142.8370 C   0  0  0  0  0  0  0  0  0  0  0  0
  189.1480  177.8770  138.7870 C   0  0  2  0  0  3  0  0  0  0  0  0
  190.4470  176.0030  142.9760 C   0  0  0  0  0  2  0  0  0  0  0  0
  191.5710  176.3790  144.8350 C   0  0  0  0  0  1  0  0  0  0  0  0
  191.6720  175.7530  143.5930 O   0  0  0  0  0  0  0  0  0  0  0  0
  1  5  1  1  0  0  0
  1 19  1  0  0  0  0
  2 16  1  0  0  0  0
  2 13  1  0  0  0  0
  4 12  1  6  0  0  0
  4  1  1  0  0  0  0
  6  8  2  0  0  0  0
  7 15  1  6  0  0  0
  7 27  1  0  0  0  0
  8 11  1  0  0  0  0
  9 14  1  6  0  0  0
  9  7  1  0  0  0  0
  9 22  1  0  0  0  0
 10  3  1  0  0  0  0
 11 28  1  1  0  0  0
 11  5  1  0  0  0  0
 12  8  1  0  0  0  0
 17  3  1  6  0  0  0
 17 26  1  0  0  0  0
 18 13  2  0  0  0  0
 19  2  2  0  0  0  0
 20 22  1  6  0  0  0
 20  4  1  0  0  0  0
 20 17  1  0  0  0  0
 21 10  2  0  0  0  0
 22 10  1  0  0  0  0
 23 15  1  0  0  0  0
 23 14  1  0  0  0  0
 25 18  1  0  0  0  0
 26 19  1  0  0  0  0
 26 25  2  0  0  0  0
 27 24  1  1  0  0  0
 27 12  1  0  0  0  0
 28 30  1  0  0  0  0
 30 29  1  0  0  0  0
M  END
>  <MODEL>
4

>  <REMARK>
 VINA RESULT:      -8.6      2.219      5.566
  Name = 
  2 active torsions:
  status: ('A' for Active; 'I' for Inactive)
    1  A    between atoms: C_11  and  C_28
    2  A    between atoms: C_28  and  O_30
                            x       y       z     vdW  Elec       q    Type
                         _______ _______ _______ _____ _____    ______ ____

>  <TORSDO>
F 2

$$$$
=
 OpenBabel11122410223D

 30 35  0  0  1  0  0  0  0  0999 V2000
  186.9620  178.0020  140.0300 C   0  0  1  0  0  3  0  0  0  0  0  0
  188.7320  177.1580  138.3890 C   0  0  0  0  0  0  0  0  0  0  0  0
  189.7980  177.6130  143.2940 C   0  0  0  0  0  2  0  0  0  0  0  0
  186.7910  178.6440  141.4250 C   0  0  1  0  0  3  0  0  0  0  0  0
  186.3810  178.8400  139.0580 O   0  0  0  0  0  0  0  0  0  0  0  0
  183.2650  179.3030  140.7610 O   0  0  0  0  0  0  0  0  0  0  0  0
  184.9320  178.0040  144.0010 C   0  0  1  0  0  3  0  0  0  0  0  0
  184.4710  178.9810  140.5810 C   0  0  0  0  0  0  0  0  0  0  0  0
  186.2890  177.7350  144.6490 C   0  0  2  0  0  3  0  0  0  0  0  0
  188.7820  177.9040  144.3380 C   0  0  0  0  0  0  0  0  0  0  0  0
  184.9700  178.7420  139.1740 C   0  0  2  0  0  3  0  0  0  0  0  0
  185.3590  178.8080  141.7020 N   0  0  0  0  0  0  0  0  0  0  0  0
  190.0240  176.6950  138.1180 C   0  0  0  0  0  3  0  0  0  0  0  0
  186.2530  178.4900  145.9630 C   0  0  0  0  0  2  0  0  0  0  0  0
  183.9710  178.2520  145.1520 C   0  0  0  0  0  2  0  0  0  0  0  0
  187.7960  177.1720  137.3620 O   0  0  0  0  0  1  0  0  0  0  0  0
  189.0070  178.0140  142.0720 C   0  0  2  0  0  3  0  0  0  0  0  0
  190.9840  176.6420  139.1300 C   0  0  0  0  0  3  0  0  0  0  0  0
  188.3940  177.5920  139.6860 C   0  0  0  0  0  0  0  0  0  0  0  0
  187.5520  177.7620  142.4120 C   0  0  1  0  0  3  0  0  0  0  0  0
  189.0610  177.9280  145.5660 O   0  0  0  0  0  0  0  0  0  0  0  0
  187.4550  178.0920  143.8300 N   0  0  0  0  0  0  0  0  0  0  0  0
  184.8080  178.4240  146.4100 C   0  0  0  0  0  2  0  0  0  0  0  0
  185.5120  180.4790  143.5240 C   0  0  0  0  0  1  0  0  0  0  0  0
  190.6560  177.0390  140.4260 C   0  0  0  0  0  3  0  0  0  0  0  0
  189.3610  177.4820  140.7170 C   0  0  0  0  0  0  0  0  0  0  0  0
  184.8750  179.1840  143.0270 C   0  0  2  0  0  3  0  0  0  0  0  0
  184.4420  177.4240  138.6160 C   0  0  0  0  0  2  0  0  0  0  0  0
  182.6880  177.9930  137.4070 C   0  0  0  0  0  1  0  0  0  0  0  0
  184.0210  177.6030  137.2980 O   0  0  0  0  0  0  0  0  0  0  0  0
  1  5  1  6  0  0  0
  1  4  1  0  0  0  0
  2 19  1  0  0  0  0
  3 10  1  0  0  0  0
  4 12  1  1  0  0  0
  4 20  1  0  0  0  0
  5 11  1  0  0  0  0
  7  9  1  0  0  0  0
  7 15  1  1  0  0  0
  8  6  2  0  0  0  0
  8 12  1  0  0  0  0
  9 14  1  1  0  0  0
 10 21  2  0  0  0  0
 11 28  1  1  0  0  0
 11  8  1  0  0  0  0
 12 27  1  0  0  0  0
 13  2  2  0  0  0  0
 13 18  1  0  0  0  0
 14 23  1  0  0  0  0
 15 23  1  0  0  0  0
 16  2  1  0  0  0  0
 17 20  1  0  0  0  0
 17  3  1  1  0  0  0
 18 25  2  0  0  0  0
 19  1  1  0  0  0  0
 19 26  2  0  0  0  0
 20 22  1  1  0  0  0
 22 10  1  0  0  0  0
 22  9  1  0  0  0  0
 25 26  1  0  0  0  0
 26 17  1  0  0  0  0
 27 24  1  1  0  0  0
 27  7  1  0  0  0  0
 30 29  1  0  0  0  0
 30 28  1  0  0  0  0
M  END
>  <MODEL>
5

>  <REMARK>
 VINA RESULT:      -7.6      2.227      4.890
  Name = 
  2 active torsions:
  status: ('A' for Active; 'I' for Inactive)
    1  A    between atoms: C_11  and  C_28
    2  A    between atoms: C_28  and  O_30
                            x       y       z     vdW  Elec       q    Type
                         _______ _______ _______ _____ _____    ______ ____

>  <TORSDO>
F 2

$$$$
=
 OpenBabel11122410223D

 30 35  0  0  1  0  0  0  0  0999 V2000
  185.7900  178.4530  141.0940 C   0  0  1  0  0  3  0  0  0  0  0  0
  184.2220  178.8520  143.0740 C   0  0  0  0  0  0  0  0  0  0  0  0
  182.3690  178.1740  138.4360 C   0  0  0  0  0  2  0  0  0  0  0  0
  185.8650  178.5370  139.5530 C   0  0  1  0  0  3  0  0  0  0  0  0
  186.7930  179.2680  141.6520 O   0  0  0  0  0  0  0  0  0  0  0  0
  189.4750  178.0200  139.6330 O   0  0  0  0  0  0  0  0  0  0  0  0
  186.8530  176.5180  137.2190 C   0  0  1  0  0  3  0  0  0  0  0  0
  188.2930  178.2340  140.0190 C   0  0  0  0  0  0  0  0  0  0  0  0
  185.3770  176.5850  136.8270 C   0  0  2  0  0  3  0  0  0  0  0  0
  183.1860  177.7440  137.2730 C   0  0  0  0  0  0  0  0  0  0  0  0
  188.0460  178.6290  141.4570 C   0  0  2  0  0  3  0  0  0  0  0  0
  187.1850  178.0720  139.1130 N   0  0  0  0  0  0  0  0  0  0  0  0
  182.9350  179.0000  143.6010 C   0  0  0  0  0  3  0  0  0  0  0  0
  185.3790  176.8430  135.3330 C   0  0  0  0  0  2  0  0  0  0  0  0
  187.5830  176.0380  135.9750 C   0  0  0  0  0  2  0  0  0  0  0  0
  185.3050  178.8280  143.9440 O   0  0  0  0  0  1  0  0  0  0  0  0
  183.4800  178.6030  139.3640 C   0  0  2  0  0  3  0  0  0  0  0  0
  181.8200  179.0030  142.7600 C   0  0  0  0  0  3  0  0  0  0  0  0
  184.4050  178.7210  141.6830 C   0  0  0  0  0  0  0  0  0  0  0  0
  184.6780  177.7440  139.0100 C   0  0  1  0  0  3  0  0  0  0  0  0
  182.6830  177.4990  136.1450 O   0  0  0  0  0  0  0  0  0  0  0  0
  184.5800  177.5740  137.5640 N   0  0  0  0  0  0  0  0  0  0  0  0
  186.6040  176.1200  134.8150 C   0  0  0  0  0  2  0  0  0  0  0  0
  187.1970  179.0530  136.8380 C   0  0  0  0  0  1  0  0  0  0  0  0
  181.9840  178.8440  141.3840 C   0  0  0  0  0  3  0  0  0  0  0  0
  183.2630  178.6710  140.8450 C   0  0  0  0  0  0  0  0  0  0  0  0
  187.4790  177.8280  137.7040 C   0  0  2  0  0  3  0  0  0  0  0  0
  188.2320  177.4410  142.3980 C   0  0  0  0  0  2  0  0  0  0  0  0
  188.4340  177.3660  144.5920 C   0  0  0  0  0  1  0  0  0  0  0  0
  189.0900  177.7930  143.4390 O   0  0  0  0  0  0  0  0  0  0  0  0
  1  5  1  1  0  0  0
  1 19  1  0  0  0  0
  2 13  1  0  0  0  0
  2 16  1  0  0  0  0
  4 12  1  6  0  0  0
  4  1  1  0  0  0  0
  6  8  2  0  0  0  0
  7 15  1  6  0  0  0
  7 27  1  0  0  0  0
  8 11  1  0  0  0  0
  9 14  1  6  0  0  0
  9  7  1  0  0  0  0
  9 22  1  0  0  0  0
 10 22  1  0  0  0  0
 10  3  1  0  0  0  0
 11  5  1  0  0  0  0
 11 28  1  1  0  0  0
 12  8  1  0  0  0  0
 17  3  1  6  0  0  0
 17 26  1  0  0  0  0
 18 13  2  0  0  0  0
 19  2  2  0  0  0  0
 20 22  1  6  0  0  0
 20 17  1  0  0  0  0
 20  4  1  0  0  0  0
 21 10  2  0  0  0  0
 23 14  1  0  0  0  0
 23 15  1  0  0  0  0
 25 18  1  0  0  0  0
 26 25  2  0  0  0  0
 26 19  1  0  0  0  0
 27 24  1  6  0  0  0
 27 12  1  0  0  0  0
 28 30  1  0  0  0  0
 30 29  1  0  0  0  0
M  END
>  <MODEL>
6

>  <REMARK>
 VINA RESULT:      -7.1      3.277      7.202
  Name = 
  2 active torsions:
  status: ('A' for Active; 'I' for Inactive)
    1  A    between atoms: C_11  and  C_28
    2  A    between atoms: C_28  and  O_30
                            x       y       z     vdW  Elec       q    Type
                         _______ _______ _______ _____ _____    ______ ____

>  <TORSDO>
F 2

$$$$
=
 OpenBabel11122410223D

 30 35  0  0  1  0  0  0  0  0999 V2000
  189.2560  177.2910  138.3490 C   0  0  1  0  0  3  0  0  0  0  0  0
  190.8730  176.4710  136.5460 C   0  0  0  0  0  0  0  0  0  0  0  0
  192.3950  176.9420  141.3280 C   0  0  0  0  0  2  0  0  0  0  0  0
  189.2090  177.9310  139.7540 C   0  0  1  0  0  3  0  0  0  0  0  0
  188.5740  178.1210  137.4380 O   0  0  0  0  0  0  0  0  0  0  0  0
  185.6280  178.5420  139.4300 O   0  0  0  0  0  0  0  0  0  0  0  0
  187.6140  177.2670  142.4950 C   0  0  1  0  0  3  0  0  0  0  0  0
  186.8150  178.2360  139.1360 C   0  0  0  0  0  0  0  0  0  0  0  0
  189.0290  177.0170  143.0110 C   0  0  2  0  0  3  0  0  0  0  0  0
  191.4790  177.2200  142.4640 C   0  0  0  0  0  0  0  0  0  0  0  0
  187.1810  178.0040  137.6870 C   0  0  2  0  0  3  0  0  0  0  0  0
  187.8090  178.0760  140.1660 N   0  0  0  0  0  0  0  0  0  0  0  0
  192.1390  176.0250  136.1530 C   0  0  0  0  0  3  0  0  0  0  0  0
  189.1090  177.7710  144.3230 C   0  0  0  0  0  2  0  0  0  0  0  0
  186.7630  177.5020  143.7330 C   0  0  0  0  0  2  0  0  0  0  0  0
  189.8430  176.4720  135.6130 O   0  0  0  0  0  1  0  0  0  0  0  0
  191.4860  177.3320  140.1870 C   0  0  2  0  0  3  0  0  0  0  0  0
  193.1920  175.9860  137.0690 C   0  0  0  0  0  3  0  0  0  0  0  0
  190.6540  176.9010  137.8690 C   0  0  0  0  0  0  0  0  0  0  0  0
  190.0730  177.0600  140.6640 C   0  0  1  0  0  3  0  0  0  0  0  0
  191.8730  177.2470  143.6590 O   0  0  0  0  0  0  0  0  0  0  0  0
  190.1070  177.3890  142.0850 N   0  0  0  0  0  0  0  0  0  0  0  0
  187.7140  177.6860  144.9050 C   0  0  0  0  0  2  0  0  0  0  0  0
  188.1120  179.7500  141.9680 C   0  0  0  0  0  1  0  0  0  0  0  0
  192.9830  176.3790  138.3910 C   0  0  0  0  0  3  0  0  0  0  0  0
  191.7160  176.8050  138.8040 C   0  0  0  0  0  0  0  0  0  0  0  0
  187.4480  178.4460  141.5320 C   0  0  2  0  0  3  0  0  0  0  0  0
  186.6200  176.6790  137.1800 C   0  0  0  0  0  2  0  0  0  0  0  0
  186.1290  177.1820  135.0910 C   0  0  0  0  0  1  0  0  0  0  0  0
  185.5430  176.9160  136.3270 O   0  0  0  0  0  0  0  0  0  0  0  0
  1  5  1  6  0  0  0
  1  4  1  0  0  0  0
  2 19  1  0  0  0  0
  3 10  1  0  0  0  0
  4 12  1  1  0  0  0
  4 20  1  0  0  0  0
  5 11  1  0  0  0  0
  7  9  1  0  0  0  0
  7 15  1  1  0  0  0
  8  6  2  0  0  0  0
  8 12  1  0  0  0  0
  9 14  1  1  0  0  0
 10 21  2  0  0  0  0
 11 28  1  1  0  0  0
 11  8  1  0  0  0  0
 12 27  1  0  0  0  0
 13  2  2  0  0  0  0
 13 18  1  0  0  0  0
 14 23  1  0  0  0  0
 15 23  1  0  0  0  0
 16  2  1  0  0  0  0
 17 20  1  0  0  0  0
 17  3  1  1  0  0  0
 18 25  2  0  0  0  0
 19  1  1  0  0  0  0
 19 26  2  0  0  0  0
 20 22  1  1  0  0  0
 22 10  1  0  0  0  0
 22  9  1  0  0  0  0
 25 26  1  0  0  0  0
 26 17  1  0  0  0  0
 27 24  1  1  0  0  0
 27  7  1  0  0  0  0
 29 30  1  0  0  0  0
 30 28  1  0  0  0  0
M  END
>  <MODEL>
7

>  <REMARK>
 VINA RESULT:      -6.8      2.888      6.105
  Name = 
  2 active torsions:
  status: ('A' for Active; 'I' for Inactive)
    1  A    between atoms: C_11  and  C_28
    2  A    between atoms: C_28  and  O_30
                            x       y       z     vdW  Elec       q    Type
                         _______ _______ _______ _____ _____    ______ ____

>  <TORSDO>
F 2

$$$$
=
 OpenBabel11122410223D

 30 35  0  0  1  0  0  0  0  0999 V2000
  186.7670  178.2560  140.0230 C   0  0  1  0  0  3  0  0  0  0  0  0
  185.9780  178.2500  137.5910 C   0  0  0  0  0  0  0  0  0  0  0  0
  190.8020  177.3230  138.7200 C   0  0  0  0  0  2  0  0  0  0  0  0
  188.0300  178.3990  140.9020 C   0  0  1  0  0  3  0  0  0  0  0  0
  185.8380  179.2520  140.3800 O   0  0  0  0  0  0  0  0  0  0  0  0
  185.9860  178.6710  143.9110 O   0  0  0  0  0  0  0  0  0  0  0  0
  189.2760  176.7100  143.3700 C   0  0  1  0  0  3  0  0  0  0  0  0
  186.3130  178.6140  142.6940 C   0  0  0  0  0  0  0  0  0  0  0  0
  190.3990  176.4690  142.3630 C   0  0  2  0  0  3  0  0  0  0  0  0
  191.3020  177.1140  140.1020 C   0  0  0  0  0  0  0  0  0  0  0  0
  185.2730  178.9040  141.6360 C   0  0  2  0  0  3  0  0  0  0  0  0
  187.6510  178.2430  142.3100 N   0  0  0  0  0  0  0  0  0  0  0  0
  186.2360  178.1020  136.2240 C   0  0  0  0  0  3  0  0  0  0  0  0
  191.6780  176.7630  143.1220 C   0  0  0  0  0  2  0  0  0  0  0  0
  189.8860  176.4350  144.7350 C   0  0  0  0  0  2  0  0  0  0  0  0
  184.6660  178.4350  138.0100 O   0  0  0  0  0  1  0  0  0  0  0  0
  189.4680  177.9540  139.0410 C   0  0  2  0  0  3  0  0  0  0  0  0
  187.5380  177.8880  135.7680 C   0  0  0  0  0  3  0  0  0  0  0  0
  187.0360  178.2020  138.5190 C   0  0  0  0  0  0  0  0  0  0  0  0
  189.0460  177.3840  140.3810 C   0  0  1  0  0  3  0  0  0  0  0  0
  192.4960  176.7990  140.3500 O   0  0  0  0  0  0  0  0  0  0  0  0
  190.2980  177.2390  141.1170 N   0  0  0  0  0  0  0  0  0  0  0  0
  191.3910  176.3380  144.5460 C   0  0  0  0  0  2  0  0  0  0  0  0
  189.6480  179.2690  143.3590 C   0  0  0  0  0  1  0  0  0  0  0  0
  188.5920  177.8080  136.6780 C   0  0  0  0  0  3  0  0  0  0  0  0
  188.3460  177.9310  138.0490 C   0  0  0  0  0  0  0  0  0  0  0  0
  188.6550  178.1090  143.3620 C   0  0  2  0  0  3  0  0  0  0  0  0
  184.2730  177.7580  141.5130 C   0  0  0  0  0  2  0  0  0  0  0  0
  182.5410  178.8190  142.3710 C   0  0  0  0  0  1  0  0  0  0  0  0
  183.0150  178.2610  141.1850 O   0  0  0  0  0  0  0  0  0  0  0  0
  1 19  1  6  0  0  0
  1  5  1  0  0  0  0
  1  4  1  0  0  0  0
  2 16  1  0  0  0  0
  2 19  1  0  0  0  0
  3 10  1  0  0  0  0
  4 12  1  1  0  0  0
  5 11  1  0  0  0  0
  7 15  1  1  0  0  0
  8  6  2  0  0  0  0
  9 14  1  1  0  0  0
  9  7  1  0  0  0  0
 10 21  2  0  0  0  0
 10 22  1  0  0  0  0
 11 28  1  6  0  0  0
 11  8  1  0  0  0  0
 12  8  1  0  0  0  0
 12 27  1  0  0  0  0
 13  2  2  0  0  0  0
 14 23  1  0  0  0  0
 17  3  1  6  0  0  0
 17 20  1  0  0  0  0
 18 13  1  0  0  0  0
 18 25  2  0  0  0  0
 20  4  1  0  0  0  0
 20 22  1  1  0  0  0
 22  9  1  0  0  0  0
 23 15  1  0  0  0  0
 25 26  1  0  0  0  0
 26 19  2  0  0  0  0
 26 17  1  0  0  0  0
 27 24  1  6  0  0  0
 27  7  1  0  0  0  0
 30 28  1  0  0  0  0
 30 29  1  0  0  0  0
M  END
>  <MODEL>
8

>  <REMARK>
 VINA RESULT:      -6.7      2.389      7.331
  Name = 
  2 active torsions:
  status: ('A' for Active; 'I' for Inactive)
    1  A    between atoms: C_11  and  C_28
    2  A    between atoms: C_28  and  O_30
                            x       y       z     vdW  Elec       q    Type
                         _______ _______ _______ _____ _____    ______ ____

>  <TORSDO>
F 2

$$$$
=
 OpenBabel11122410223D

 30 35  0  0  1  0  0  0  0  0999 V2000
  187.4330  177.6830  138.1810 C   0  0  1  0  0  3  0  0  0  0  0  0
  188.2710  176.9840  135.8690 C   0  0  0  0  0  0  0  0  0  0  0  0
  191.3800  176.9550  139.8360 C   0  0  0  0  0  2  0  0  0  0  0  0
  187.9160  178.1890  139.5590 C   0  0  1  0  0  3  0  0  0  0  0  0
  186.5310  178.6160  137.6340 O   0  0  0  0  0  0  0  0  0  0  0  0
  184.4890  178.9420  140.5580 O   0  0  0  0  0  0  0  0  0  0  0  0
  187.3290  177.3220  142.6250 C   0  0  1  0  0  3  0  0  0  0  0  0
  185.4800  178.6280  139.8430 C   0  0  0  0  0  0  0  0  0  0  0  0
  188.8170  176.9790  142.5920 C   0  0  2  0  0  3  0  0  0  0  0  0
  190.9340  177.1540  141.2380 C   0  0  0  0  0  0  0  0  0  0  0  0
  185.3060  178.5210  138.3450 C   0  0  2  0  0  3  0  0  0  0  0  0
  186.7570  178.3390  140.4450 N   0  0  0  0  0  0  0  0  0  0  0  0
  189.2920  176.5370  135.0240 C   0  0  0  0  0  3  0  0  0  0  0  0
  189.3930  177.6040  143.8460 C   0  0  0  0  0  2  0  0  0  0  0  0
  186.9770  177.4670  144.0970 C   0  0  0  0  0  2  0  0  0  0  0  0
  186.9840  177.1060  135.3590 O   0  0  0  0  0  1  0  0  0  0  0  0
  190.1590  177.4790  139.1190 C   0  0  2  0  0  3  0  0  0  0  0  0
  190.5920  176.3780  135.5070 C   0  0  0  0  0  3  0  0  0  0  0  0
  188.5510  177.2940  137.2140 C   0  0  0  0  0  0  0  0  0  0  0  0
  188.9840  177.2090  140.0380 C   0  0  1  0  0  3  0  0  0  0  0  0
  191.7180  177.0570  142.2180 O   0  0  0  0  0  0  0  0  0  0  0  0
  189.5290  177.4020  141.3780 N   0  0  0  0  0  0  0  0  0  0  0  0
  188.2830  177.5090  144.8720 C   0  0  0  0  0  2  0  0  0  0  0  0
  187.7690  179.8260  142.1490 C   0  0  0  0  0  1  0  0  0  0  0  0
  190.8790  176.6520  136.8450 C   0  0  0  0  0  3  0  0  0  0  0  0
  189.8630  177.0770  137.7070 C   0  0  0  0  0  0  0  0  0  0  0  0
  186.9150  178.5910  141.8740 C   0  0  2  0  0  3  0  0  0  0  0  0
  184.5230  177.2670  137.9670 C   0  0  0  0  0  2  0  0  0  0  0  0
  182.5530  177.9710  137.2690 C   0  0  0  0  0  1  0  0  0  0  0  0
  183.7830  177.5030  136.8090 O   0  0  0  0  0  0  0  0  0  0  0  0
  1 19  1  6  0  0  0
  1  4  1  0  0  0  0
  2 19  1  0  0  0  0
  3 10  1  0  0  0  0
  4 20  1  0  0  0  0
  4 12  1  1  0  0  0
  5  1  1  0  0  0  0
  5 11  1  0  0  0  0
  7 15  1  1  0  0  0
  8 12  1  0  0  0  0
  8  6  2  0  0  0  0
  9  7  1  0  0  0  0
  9 14  1  1  0  0  0
 10 22  1  0  0  0  0
 10 21  2  0  0  0  0
 11 28  1  1  0  0  0
 11  8  1  0  0  0  0
 12 27  1  0  0  0  0
 13 18  1  0  0  0  0
 13  2  2  0  0  0  0
 14 23  1  0  0  0  0
 15 23  1  0  0  0  0
 16  2  1  0  0  0  0
 17  3  1  1  0  0  0
 17 20  1  0  0  0  0
 18 25  2  0  0  0  0
 19 26  2  0  0  0  0
 20 22  1  1  0  0  0
 22  9  1  0  0  0  0
 25 26  1  0  0  0  0
 26 17  1  0  0  0  0
 27 24  1  6  0  0  0
 27  7  1  0  0  0  0
 30 29  1  0  0  0  0
 30 28  1  0  0  0  0
M  END
>  <MODEL>
9

>  <REMARK>
 VINA RESULT:      -6.6      2.736      6.835
  Name = 
  2 active torsions:
  status: ('A' for Active; 'I' for Inactive)
    1  A    between atoms: C_11  and  C_28
    2  A    between atoms: C_28  and  O_30
                            x       y       z     vdW  Elec       q    Type
                         _______ _______ _______ _____ _____    ______ ____

>  <TORSDO>
F 2

$$$$
