=
 OpenBabel11122411373D

 37 42  0  0  1  0  0  0  0  0999 V2000
  180.1470  181.5330  138.4510 C   0  0  1  0  0  0  0  0  0  0  0  0
  182.1680  178.2490  136.6730 C   0  0  0  0  0  0  0  0  0  0  0  0
  183.3460  176.0600  138.7280 C   0  0  0  0  0  2  0  0  0  0  0  0
  179.9940  179.4570  136.9120 C   0  0  0  0  0  0  0  0  0  0  0  0
  183.2660  178.2330  137.4230 C   0  0  2  0  0  3  0  0  0  0  0  0
  181.4650  179.4990  136.9800 C   0  0  0  0  0  0  0  0  0  0  0  0
  184.0520  176.9810  137.7240 C   0  0  2  0  0  3  0  0  0  0  0  0
  179.3640  178.4090  136.3600 C   0  0  0  0  0  3  0  0  0  0  0  0
  181.8520  179.7990  138.3320 N   0  0  0  0  0  0  0  0  0  0  0  0
  179.6160  181.2460  139.8430 C   0  0  0  0  0  1  0  0  0  0  0  0
  182.1710  175.8600  135.6480 C   0  0  0  0  0  2  0  0  0  0  0  0
  180.1290  177.2150  135.8910 C   0  0  0  0  0  3  0  0  0  0  0  0
  181.6790  181.2380  138.4420 C   0  0  0  0  0  2  0  0  0  0  0  0
  183.6820  177.5040  140.8240 C   0  0  1  0  0  3  0  0  0  0  0  0
  182.6850  176.8220  139.8810 C   0  0  0  0  0  2  0  0  0  0  0  0
  181.4650  177.1240  136.0280 C   0  0  0  0  0  0  0  0  0  0  0  0
  183.1800  179.3400  138.3410 N   0  0  1  0  0  0  0  0  0  0  0  0
  179.3000  180.6950  137.4270 C   0  0  0  0  0  2  0  0  0  0  0  0
  184.5550  176.1950  136.4970 C   0  0  1  0  0  3  0  0  0  0  0  0
  179.9560  182.8870  138.1810 O   0  0  0  0  0  1  0  0  0  0  0  0
  184.6970  178.4260  140.1330 C   0  0  0  0  0  2  0  0  0  0  0  0
  184.1060  179.6580  139.4330 C   0  0  0  0  0  2  0  0  0  0  0  0
  183.6230  176.1380  135.2760 C   0  0  0  0  0  2  0  0  0  0  0  0
  181.9600  179.4870  144.3420 O   0  0  0  0  0  0  0  0  0  0  0  0
  183.1260  179.0100  144.3550 C   0  0  0  0  0  0  0  0  0  0  0  0
  182.9800  178.1940  141.9490 C   0  0  0  0  0  0  0  0  0  0  0  0
  183.6650  178.3620  143.1950 N   0  0  0  0  0  2  0  0  0  0  0  0
  181.8100  178.6370  141.7900 O   0  0  0  0  0  0  0  0  0  0  0  0
  185.2580  178.5900  145.6270 C   0  0  0  0  0  1  0  0  0  0  0  0
  183.9070  179.1190  145.5440 N   0  0  0  0  0  2  0  0  0  0  0  0
  186.5210  176.1060  134.9600 C   0  0  0  0  0  3  0  0  0  0  0  0
  185.9230  176.6500  136.0990 C   0  0  0  0  0  0  0  0  0  0  0  0
  186.6170  177.6020  136.8560 C   0  0  0  0  0  3  0  0  0  0  0  0
  188.6450  179.0010  137.2510 C   0  0  0  0  0  1  0  0  0  0  0  0
  188.4580  177.4510  135.3430 N   0  0  0  0  0  0  0  0  0  0  0  0
  187.8960  177.9930  136.4570 C   0  0  0  0  0  0  0  0  0  0  0  0
  187.8030  176.5240  134.5940 C   0  0  0  0  0  3  0  0  0  0  0  0
  1 10  1  1  0  0  0
  2  6  1  0  0  0  0
  3 15  1  0  0  0  0
  4  6  2  0  0  0  0
  4 18  1  0  0  0  0
  5  2  1  1  0  0  0
  5  7  1  0  0  0  0
  5 17  1  0  0  0  0
  6  9  1  0  0  0  0
  7  3  1  6  0  0  0
  8  4  1  0  0  0  0
  9 17  1  0  0  0  0
  9 13  1  0  0  0  0
 11 16  1  0  0  0  0
 12 16  1  0  0  0  0
 12  8  2  0  0  0  0
 13  1  1  0  0  0  0
 14 26  1  1  0  0  0
 15 14  1  0  0  0  0
 16  2  2  0  0  0  0
 17 22  1  1  0  0  0
 18  1  1  0  0  0  0
 19 32  1  6  0  0  0
 19  7  1  0  0  0  0
 20  1  1  0  0  0  0
 21 14  1  0  0  0  0
 22 21  1  0  0  0  0
 23 11  1  0  0  0  0
 23 19  1  0  0  0  0
 24 25  2  0  0  0  0
 25 30  1  0  0  0  0
 26 27  1  0  0  0  0
 27 25  1  0  0  0  0
 28 26  2  0  0  0  0
 30 29  1  0  0  0  0
 31 32  1  0  0  0  0
 32 33  2  0  0  0  0
 35 36  2  0  0  0  0
 36 33  1  0  0  0  0
 36 34  1  0  0  0  0
 37 31  2  0  0  0  0
 37 35  1  0  0  0  0
M  END
>  <MODEL>
1

>  <REMARK>
 VINA RESULT:      -6.6      0.000      0.000
  Name = 
  2 active torsions:
  status: ('A' for Active; 'I' for Inactive)
    1  A    between atoms: C_8  and  C_18
    2  A    between atoms: C_23  and  C_30
                            x       y       z     vdW  Elec       q    Type
                         _______ _______ _______ _____ _____    ______ ____

>  <TORSDO>
F 2

$$$$
=
 OpenBabel11122411373D

 37 42  0  0  1  0  0  0  0  0999 V2000
  187.9310  178.2530  139.1180 C   0  0  1  0  0  0  0  0  0  0  0  0
  183.9070  178.8360  140.3400 C   0  0  0  0  0  0  0  0  0  0  0  0
  181.8730  176.4370  139.6280 C   0  0  0  0  0  2  0  0  0  0  0  0
  186.2770  178.5700  141.0840 C   0  0  0  0  0  0  0  0  0  0  0  0
  183.2830  178.5030  139.2140 C   0  0  2  0  0  3  0  0  0  0  0  0
  185.3330  178.9460  140.0170 C   0  0  0  0  0  0  0  0  0  0  0  0
  181.9000  177.9020  139.1730 C   0  0  2  0  0  3  0  0  0  0  0  0
  185.8500  178.3850  142.3420 C   0  0  0  0  0  3  0  0  0  0  0  0
  185.5140  178.0460  138.9090 N   0  0  0  0  0  0  0  0  0  0  0  0
  188.3090  176.7960  138.9260 C   0  0  0  0  0  1  0  0  0  0  0  0
  182.0060  178.6210  142.1010 C   0  0  0  0  0  2  0  0  0  0  0  0
  184.3950  178.4560  142.6760 C   0  0  0  0  0  3  0  0  0  0  0  0
  186.6890  178.5570  138.2230 C   0  0  0  0  0  2  0  0  0  0  0  0
  183.0390  175.4120  137.5830 C   0  0  1  0  0  3  0  0  0  0  0  0
  183.0580  175.6210  139.1010 C   0  0  0  0  0  2  0  0  0  0  0  0
  183.4570  178.6740  141.7360 C   0  0  0  0  0  0  0  0  0  0  0  0
  184.2940  178.2040  138.2310 N   0  0  1  0  0  0  0  0  0  0  0  0
  187.7230  178.5020  140.6550 C   0  0  0  0  0  2  0  0  0  0  0  0
  180.7920  178.7240  139.8580 C   0  0  1  0  0  3  0  0  0  0  0  0
  188.9940  179.0410  138.6820 O   0  0  0  0  0  1  0  0  0  0  0  0
  182.9120  176.7000  136.7570 C   0  0  0  0  0  2  0  0  0  0  0  0
  184.0830  177.6840  136.8760 C   0  0  0  0  0  2  0  0  0  0  0  0
  181.1730  179.4690  141.1480 C   0  0  0  0  0  2  0  0  0  0  0  0
  186.1640  172.6720  136.1680 O   0  0  0  0  0  0  0  0  0  0  0  0
  184.9480  172.3440  136.1720 C   0  0  0  0  0  0  0  0  0  0  0  0
  184.1940  174.5760  137.1360 C   0  0  0  0  0  0  0  0  0  0  0  0
  183.9450  173.2550  136.6430 N   0  0  0  0  0  2  0  0  0  0  0  0
  185.3670  175.0410  137.1750 O   0  0  0  0  0  0  0  0  0  0  0  0
  183.1920  170.6080  135.6790 C   0  0  0  0  0  1  0  0  0  0  0  0
  184.5760  171.0500  135.7010 N   0  0  0  0  0  2  0  0  0  0  0  0
  179.8250  179.1920  137.6030 C   0  0  0  0  0  3  0  0  0  0  0  0
  180.1380  179.6520  138.8840 C   0  0  0  0  0  0  0  0  0  0  0  0
  179.8470  180.9770  139.2330 C   0  0  0  0  0  3  0  0  0  0  0  0
  178.9310  183.2230  138.6470 C   0  0  0  0  0  1  0  0  0  0  0  0
  178.9470  181.3440  137.0510 N   0  0  0  0  0  0  0  0  0  0  0  0
  179.2450  181.8150  138.2930 C   0  0  0  0  0  0  0  0  0  0  0  0
  179.2230  180.0620  136.6910 C   0  0  0  0  0  3  0  0  0  0  0  0
  1 10  1  6  0  0  0
  1 18  1  0  0  0  0
  2 16  1  0  0  0  0
  4  8  2  0  0  0  0
  5  2  1  1  0  0  0
  6  2  2  0  0  0  0
  6  4  1  0  0  0  0
  7  5  1  0  0  0  0
  7  3  1  1  0  0  0
  7 19  1  0  0  0  0
  8 12  1  0  0  0  0
  9  6  1  0  0  0  0
 13  9  1  0  0  0  0
 13  1  1  0  0  0  0
 14 26  1  6  0  0  0
 14 15  1  0  0  0  0
 15  3  1  0  0  0  0
 16 11  1  0  0  0  0
 16 12  2  0  0  0  0
 17 22  1  1  0  0  0
 17  9  1  0  0  0  0
 17  5  1  0  0  0  0
 18  4  1  0  0  0  0
 19 32  1  6  0  0  0
 19 23  1  0  0  0  0
 20  1  1  0  0  0  0
 21 22  1  0  0  0  0
 21 14  1  0  0  0  0
 23 11  1  0  0  0  0
 24 25  2  0  0  0  0
 25 27  1  0  0  0  0
 26 28  2  0  0  0  0
 27 26  1  0  0  0  0
 29 30  1  0  0  0  0
 30 25  1  0  0  0  0
 31 32  1  0  0  0  0
 32 33  2  0  0  0  0
 35 36  2  0  0  0  0
 36 34  1  0  0  0  0
 36 33  1  0  0  0  0
 37 35  1  0  0  0  0
 37 31  2  0  0  0  0
M  END
>  <MODEL>
2

>  <REMARK>
 VINA RESULT:      -6.6      3.426      7.686
  Name = 
  2 active torsions:
  status: ('A' for Active; 'I' for Inactive)
    1  A    between atoms: C_8  and  C_18
    2  A    between atoms: C_23  and  C_30
                            x       y       z     vdW  Elec       q    Type
                         _______ _______ _______ _____ _____    ______ ____

>  <TORSDO>
F 2

$$$$
=
 OpenBabel11122411373D

 37 42  0  0  1  0  0  0  0  0999 V2000
  187.9230  178.2530  139.1470 C   0  0  1  0  0  0  0  0  0  0  0  0
  183.8840  178.8360  140.3230 C   0  0  0  0  0  0  0  0  0  0  0  0
  181.8630  176.4290  139.6030 C   0  0  0  0  0  2  0  0  0  0  0  0
  186.2470  178.5790  141.0930 C   0  0  0  0  0  0  0  0  0  0  0  0
  183.2740  178.4950  139.1920 C   0  0  2  0  0  3  0  0  0  0  0  0
  185.3140  178.9470  140.0140 C   0  0  0  0  0  0  0  0  0  0  0  0
  181.8920  177.8910  139.1390 C   0  0  2  0  0  3  0  0  0  0  0  0
  185.8060  178.4010  142.3480 C   0  0  0  0  0  3  0  0  0  0  0  0
  185.5090  178.0410  138.9140 N   0  0  0  0  0  0  0  0  0  0  0  0
  188.3060  176.7960  138.9690 C   0  0  0  0  0  1  0  0  0  0  0  0
  181.9650  178.6280  142.0640 C   0  0  0  0  0  2  0  0  0  0  0  0
  184.3480  178.4710  142.6650 C   0  0  0  0  0  3  0  0  0  0  0  0
  186.6900  178.5490  138.2380 C   0  0  0  0  0  2  0  0  0  0  0  0
  183.0530  175.3940  137.5760 C   0  0  1  0  0  3  0  0  0  0  0  0
  183.0550  175.6120  139.0930 C   0  0  0  0  0  2  0  0  0  0  0  0
  183.4200  178.6810  141.7140 C   0  0  0  0  0  0  0  0  0  0  0  0
  184.2960  178.1920  138.2210 N   0  0  1  0  0  0  0  0  0  0  0  0
  187.6980  178.5110  140.6810 C   0  0  0  0  0  2  0  0  0  0  0  0
  180.7760  178.7150  139.8080 C   0  0  1  0  0  3  0  0  0  0  0  0
  188.9890  179.0410  138.7180 O   0  0  0  0  0  1  0  0  0  0  0  0
  182.9330  176.6770  136.7410 C   0  0  0  0  0  2  0  0  0  0  0  0
  184.1010  177.6640  136.8670 C   0  0  0  0  0  2  0  0  0  0  0  0
  181.1410  179.4690  141.0970 C   0  0  0  0  0  2  0  0  0  0  0  0
  186.6410  173.2800  136.1870 O   0  0  0  0  0  0  0  0  0  0  0  0
  186.5020  174.5210  136.0310 C   0  0  0  0  0  0  0  0  0  0  0  0
  184.2150  174.5580  137.1470 C   0  0  0  0  0  0  0  0  0  0  0  0
  185.3190  175.1890  136.4890 N   0  0  0  0  0  2  0  0  0  0  0  0
  184.2260  173.3190  137.3830 O   0  0  0  0  0  0  0  0  0  0  0  0
  187.4430  176.6940  135.1750 C   0  0  0  0  0  1  0  0  0  0  0  0
  187.5390  175.2600  135.3880 N   0  0  0  0  0  2  0  0  0  0  0  0
  179.6590  179.1230  137.6110 C   0  0  0  0  0  3  0  0  0  0  0  0
  180.1310  179.6360  138.8210 C   0  0  0  0  0  0  0  0  0  0  0  0
  180.0040  181.0060  139.0870 C   0  0  0  0  0  3  0  0  0  0  0  0
  179.2640  183.2890  138.4050 C   0  0  0  0  0  1  0  0  0  0  0  0
  178.9510  181.3120  136.9650 N   0  0  0  0  0  0  0  0  0  0  0  0
  179.4050  181.8340  138.1370 C   0  0  0  0  0  0  0  0  0  0  0  0
  179.0650  179.9860  136.6860 C   0  0  0  0  0  3  0  0  0  0  0  0
  1 10  1  6  0  0  0
  1 18  1  0  0  0  0
  2 16  1  0  0  0  0
  4  8  2  0  0  0  0
  5  2  1  1  0  0  0
  6  2  2  0  0  0  0
  6  4  1  0  0  0  0
  7  5  1  0  0  0  0
  7  3  1  1  0  0  0
  7 19  1  0  0  0  0
  8 12  1  0  0  0  0
  9  6  1  0  0  0  0
 13  9  1  0  0  0  0
 13  1  1  0  0  0  0
 14 26  1  6  0  0  0
 14 15  1  0  0  0  0
 15  3  1  0  0  0  0
 16 11  1  0  0  0  0
 16 12  2  0  0  0  0
 17 22  1  1  0  0  0
 17  9  1  0  0  0  0
 17  5  1  0  0  0  0
 18  4  1  0  0  0  0
 19 32  1  6  0  0  0
 19 23  1  0  0  0  0
 20  1  1  0  0  0  0
 21 22  1  0  0  0  0
 21 14  1  0  0  0  0
 23 11  1  0  0  0  0
 25 24  2  0  0  0  0
 25 27  1  0  0  0  0
 26 28  2  0  0  0  0
 27 26  1  0  0  0  0
 29 30  1  0  0  0  0
 30 25  1  0  0  0  0
 31 32  1  0  0  0  0
 32 33  2  0  0  0  0
 35 36  2  0  0  0  0
 36 34  1  0  0  0  0
 36 33  1  0  0  0  0
 37 35  1  0  0  0  0
 37 31  2  0  0  0  0
M  END
>  <MODEL>
3

>  <REMARK>
 VINA RESULT:      -6.4      3.245      7.480
  Name = 
  2 active torsions:
  status: ('A' for Active; 'I' for Inactive)
    1  A    between atoms: C_8  and  C_18
    2  A    between atoms: C_23  and  C_30
                            x       y       z     vdW  Elec       q    Type
                         _______ _______ _______ _____ _____    ______ ____

>  <TORSDO>
F 2

$$$$
=
 OpenBabel11122411373D

 37 42  0  0  1  0  0  0  0  0999 V2000
  187.9710  178.2530  139.1340 C   0  0  1  0  0  0  0  0  0  0  0  0
  184.0220  178.8590  140.5720 C   0  0  0  0  0  0  0  0  0  0  0  0
  181.9020  176.5430  139.8390 C   0  0  0  0  0  2  0  0  0  0  0  0
  186.4180  178.5050  141.1890 C   0  0  0  0  0  0  0  0  0  0  0  0
  183.3400  178.5970  139.4620 C   0  0  2  0  0  3  0  0  0  0  0  0
  185.4350  178.9550  140.1880 C   0  0  0  0  0  0  0  0  0  0  0  0
  181.9420  178.0280  139.4560 C   0  0  2  0  0  3  0  0  0  0  0  0
  186.0440  178.2660  142.4550 C   0  0  0  0  0  3  0  0  0  0  0  0
  185.5430  178.1080  139.0300 N   0  0  0  0  0  0  0  0  0  0  0  0
  188.3060  176.8000  138.8530 C   0  0  0  0  0  1  0  0  0  0  0  0
  182.2010  178.5960  142.4080 C   0  0  0  0  0  2  0  0  0  0  0  0
  184.6090  178.3510  142.8600 C   0  0  0  0  0  3  0  0  0  0  0  0
  186.6970  178.6280  138.3150 C   0  0  0  0  0  2  0  0  0  0  0  0
  182.9480  175.5990  137.6920 C   0  0  1  0  0  3  0  0  0  0  0  0
  183.0420  175.7290  139.2160 C   0  0  0  0  0  2  0  0  0  0  0  0
  183.6340  178.6360  141.9780 C   0  0  0  0  0  0  0  0  0  0  0  0
  184.2970  178.3260  138.4180 N   0  0  1  0  0  0  0  0  0  0  0  0
  187.8410  178.4280  140.6900 C   0  0  0  0  0  2  0  0  0  0  0  0
  180.8870  178.8380  140.2330 C   0  0  1  0  0  3  0  0  0  0  0  0
  189.0320  179.0390  138.6880 O   0  0  0  0  0  1  0  0  0  0  0  0
  182.8130  176.9290  136.9380 C   0  0  0  0  0  2  0  0  0  0  0  0
  184.0120  177.8810  137.0500 C   0  0  0  0  0  2  0  0  0  0  0  0
  181.3450  179.5090  141.5380 C   0  0  0  0  0  2  0  0  0  0  0  0
  186.3960  173.4860  135.9840 O   0  0  0  0  0  0  0  0  0  0  0  0
  186.2830  174.7370  135.9090 C   0  0  0  0  0  0  0  0  0  0  0  0
  184.0610  174.7620  137.1500 C   0  0  0  0  0  0  0  0  0  0  0  0
  185.1450  175.4050  136.4700 N   0  0  0  0  0  2  0  0  0  0  0  0
  184.0520  173.5110  137.3120 O   0  0  0  0  0  0  0  0  0  0  0  0
  187.2350  176.9350  135.1310 C   0  0  0  0  0  1  0  0  0  0  0  0
  187.3040  175.4890  135.2530 N   0  0  0  0  0  2  0  0  0  0  0  0
  179.8600  181.0810  139.8430 C   0  0  0  0  0  3  0  0  0  0  0  0
  180.2110  179.8280  139.3380 C   0  0  0  0  0  0  0  0  0  0  0  0
  179.9150  179.5120  138.0050 C   0  0  0  0  0  3  0  0  0  0  0  0
  178.9530  180.1380  135.7900 C   0  0  0  0  0  1  0  0  0  0  0  0
  178.9430  181.6740  137.7180 N   0  0  0  0  0  0  0  0  0  0  0  0
  179.2750  180.4590  137.2050 C   0  0  0  0  0  0  0  0  0  0  0  0
  179.2200  182.0010  139.0090 C   0  0  0  0  0  3  0  0  0  0  0  0
  1 10  1  6  0  0  0
  1 18  1  0  0  0  0
  2 16  1  0  0  0  0
  4  8  2  0  0  0  0
  5  2  1  1  0  0  0
  6  2  2  0  0  0  0
  6  4  1  0  0  0  0
  7  5  1  0  0  0  0
  7  3  1  1  0  0  0
  7 19  1  0  0  0  0
  8 12  1  0  0  0  0
  9  6  1  0  0  0  0
 13  9  1  0  0  0  0
 13  1  1  0  0  0  0
 14 26  1  6  0  0  0
 14 15  1  0  0  0  0
 15  3  1  0  0  0  0
 16 11  1  0  0  0  0
 16 12  2  0  0  0  0
 17 22  1  1  0  0  0
 17  9  1  0  0  0  0
 17  5  1  0  0  0  0
 18  4  1  0  0  0  0
 19 32  1  6  0  0  0
 19 23  1  0  0  0  0
 20  1  1  0  0  0  0
 21 22  1  0  0  0  0
 21 14  1  0  0  0  0
 23 11  1  0  0  0  0
 25 24  2  0  0  0  0
 25 27  1  0  0  0  0
 26 28  2  0  0  0  0
 27 26  1  0  0  0  0
 29 30  1  0  0  0  0
 30 25  1  0  0  0  0
 32 31  1  0  0  0  0
 33 32  2  0  0  0  0
 34 36  1  0  0  0  0
 35 37  1  0  0  0  0
 36 35  2  0  0  0  0
 36 33  1  0  0  0  0
 37 31  2  0  0  0  0
M  END
>  <MODEL>
4

>  <REMARK>
 VINA RESULT:      -6.3      3.242      7.594
  Name = 
  2 active torsions:
  status: ('A' for Active; 'I' for Inactive)
    1  A    between atoms: C_8  and  C_18
    2  A    between atoms: C_23  and  C_30
                            x       y       z     vdW  Elec       q    Type
                         _______ _______ _______ _____ _____    ______ ____

>  <TORSDO>
F 2

$$$$
=
 OpenBabel11122411373D

 37 42  0  0  1  0  0  0  0  0999 V2000
  188.7420  176.7320  135.5110 C   0  0  1  0  0  0  0  0  0  0  0  0
  185.6050  178.2730  137.9220 C   0  0  0  0  0  0  0  0  0  0  0  0
  183.1240  176.2750  138.4240 C   0  0  0  0  0  2  0  0  0  0  0  0
  188.0140  177.6180  137.8320 C   0  0  0  0  0  0  0  0  0  0  0  0
  184.5630  177.9420  137.1660 C   0  0  2  0  0  3  0  0  0  0  0  0
  186.8050  178.0480  137.1090 C   0  0  0  0  0  0  0  0  0  0  0  0
  183.1930  177.6370  137.7210 C   0  0  2  0  0  3  0  0  0  0  0  0
  188.0690  177.6780  139.1720 C   0  0  0  0  0  3  0  0  0  0  0  0
  186.4220  177.0030  136.1970 N   0  0  0  0  0  0  0  0  0  0  0  0
  188.8030  175.2160  135.4780 C   0  0  0  0  0  1  0  0  0  0  0  0
  184.4960  178.6680  140.2390 C   0  0  0  0  0  2  0  0  0  0  0  0
  186.8740  178.0870  139.9690 C   0  0  0  0  0  3  0  0  0  0  0  0
  187.3150  177.1740  135.0630 C   0  0  0  0  0  2  0  0  0  0  0  0
  183.2720  174.7930  136.3330 C   0  0  1  0  0  3  0  0  0  0  0  0
  183.8910  175.1750  137.6820 C   0  0  0  0  0  2  0  0  0  0  0  0
  185.6950  178.3770  139.3910 C   0  0  0  0  0  0  0  0  0  0  0  0
  185.0740  177.3240  135.9680 N   0  0  1  0  0  0  0  0  0  0  0  0
  189.1670  177.2020  136.9490 C   0  0  0  0  0  2  0  0  0  0  0  0
  182.5580  178.7470  138.5810 C   0  0  1  0  0  3  0  0  0  0  0  0
  189.6670  177.2260  134.5940 O   0  0  0  0  0  1  0  0  0  0  0  0
  183.0350  175.9700  135.3760 C   0  0  0  0  0  2  0  0  0  0  0  0
  184.2960  176.7000  134.8940 C   0  0  0  0  0  2  0  0  0  0  0  0
  183.5000  179.5480  139.4930 C   0  0  0  0  0  2  0  0  0  0  0  0
  185.7940  171.5880  134.7100 O   0  0  0  0  0  0  0  0  0  0  0  0
  186.1260  172.2340  135.7380 C   0  0  0  0  0  0  0  0  0  0  0  0
  184.0390  173.6900  135.6780 C   0  0  0  0  0  0  0  0  0  0  0  0
  185.2880  173.2800  136.2470 N   0  0  0  0  0  2  0  0  0  0  0  0
  183.5770  173.1170  134.6530 O   0  0  0  0  0  0  0  0  0  0  0  0
  187.7940  172.6210  137.5850 C   0  0  0  0  0  1  0  0  0  0  0  0
  187.3520  171.9140  136.3940 N   0  0  0  0  0  2  0  0  0  0  0  0
  181.1180  179.1700  136.5840 C   0  0  0  0  0  3  0  0  0  0  0  0
  181.7300  179.6640  137.7380 C   0  0  0  0  0  0  0  0  0  0  0  0
  181.5680  181.0130  138.0830 C   0  0  0  0  0  3  0  0  0  0  0  0
  180.6170  183.2720  137.6180 C   0  0  0  0  0  1  0  0  0  0  0  0
  180.2080  181.3360  136.1470 N   0  0  0  0  0  0  0  0  0  0  0  0
  180.7960  181.8390  137.2660 C   0  0  0  0  0  0  0  0  0  0  0  0
  180.3530  180.0310  135.7930 C   0  0  0  0  0  3  0  0  0  0  0  0
  1 10  1  6  0  0  0
  1 18  1  0  0  0  0
  2 16  1  0  0  0  0
  4  8  2  0  0  0  0
  5  7  1  0  0  0  0
  5  2  1  1  0  0  0
  6  4  1  0  0  0  0
  6  2  2  0  0  0  0
  7  3  1  1  0  0  0
  7 19  1  0  0  0  0
  8 12  1  0  0  0  0
  9  6  1  0  0  0  0
 13  1  1  0  0  0  0
 13  9  1  0  0  0  0
 14 26  1  6  0  0  0
 14 15  1  0  0  0  0
 15  3  1  0  0  0  0
 16 12  2  0  0  0  0
 16 11  1  0  0  0  0
 17 22  1  1  0  0  0
 17  9  1  0  0  0  0
 17  5  1  0  0  0  0
 18  4  1  0  0  0  0
 19 32  1  6  0  0  0
 19 23  1  0  0  0  0
 20  1  1  0  0  0  0
 21 14  1  0  0  0  0
 22 21  1  0  0  0  0
 23 11  1  0  0  0  0
 24 25  2  0  0  0  0
 25 27  1  0  0  0  0
 25 30  1  0  0  0  0
 26 27  1  0  0  0  0
 28 26  2  0  0  0  0
 30 29  1  0  0  0  0
 31 32  1  0  0  0  0
 32 33  2  0  0  0  0
 35 36  2  0  0  0  0
 36 34  1  0  0  0  0
 36 33  1  0  0  0  0
 37 35  1  0  0  0  0
 37 31  2  0  0  0  0
M  END
>  <MODEL>
5

>  <REMARK>
 VINA RESULT:      -5.9      4.119      7.810
  Name = 
  2 active torsions:
  status: ('A' for Active; 'I' for Inactive)
    1  A    between atoms: C_8  and  C_18
    2  A    between atoms: C_23  and  C_30
                            x       y       z     vdW  Elec       q    Type
                         _______ _______ _______ _____ _____    ______ ____

>  <TORSDO>
F 2

$$$$
=
 OpenBabel11122411373D

 37 42  0  0  1  0  0  0  0  0999 V2000
  188.4520  172.1420  135.5450 C   0  0  1  0  0  0  0  0  0  0  0  0
  187.1880  175.8650  137.1490 C   0  0  0  0  0  0  0  0  0  0  0  0
  189.4080  178.2050  137.1540 C   0  0  0  0  0  2  0  0  0  0  0  0
  186.8560  174.1700  135.3440 C   0  0  0  0  0  0  0  0  0  0  0  0
  188.2140  176.1170  137.9570 C   0  0  2  0  0  3  0  0  0  0  0  0
  187.3320  174.4750  136.7040 C   0  0  0  0  0  0  0  0  0  0  0  0
  188.6760  177.5100  138.3090 C   0  0  2  0  0  3  0  0  0  0  0  0
  186.1110  175.0560  134.6650 C   0  0  0  0  0  3  0  0  0  0  0  0
  188.7500  174.2330  136.7560 N   0  0  0  0  0  0  0  0  0  0  0  0
  189.6280  172.2510  134.5940 C   0  0  0  0  0  1  0  0  0  0  0  0
  186.1170  178.2180  136.8760 C   0  0  0  0  0  2  0  0  0  0  0  0
  185.8300  176.4120  135.2270 C   0  0  0  0  0  3  0  0  0  0  0  0
  188.8600  172.7920  136.9040 C   0  0  0  0  0  2  0  0  0  0  0  0
  191.5670  176.8170  137.2200 C   0  0  1  0  0  3  0  0  0  0  0  0
  190.3580  177.2720  136.3950 C   0  0  0  0  0  2  0  0  0  0  0  0
  186.3310  176.8120  136.4100 C   0  0  0  0  0  0  0  0  0  0  0  0
  189.1120  174.9930  137.8810 N   0  0  1  0  0  0  0  0  0  0  0  0
  187.2010  172.7870  134.8460 C   0  0  0  0  0  2  0  0  0  0  0  0
  187.6100  178.4300  138.9350 C   0  0  1  0  0  3  0  0  0  0  0  0
  188.1900  170.7910  135.7620 O   0  0  0  0  0  1  0  0  0  0  0  0
  191.2210  176.1830  138.5750 C   0  0  0  0  0  2  0  0  0  0  0  0
  190.4300  174.8690  138.5120 C   0  0  0  0  0  2  0  0  0  0  0  0
  186.1760  178.3040  138.3960 C   0  0  0  0  0  2  0  0  0  0  0  0
  194.4120  174.1510  135.2020 O   0  0  0  0  0  0  0  0  0  0  0  0
  194.4490  174.3390  136.4470 C   0  0  0  0  0  0  0  0  0  0  0  0
  192.4750  175.9450  136.4140 C   0  0  0  0  0  0  0  0  0  0  0  0
  193.5120  175.2180  137.0830 N   0  0  0  0  0  2  0  0  0  0  0  0
  192.3130  175.8400  135.1680 O   0  0  0  0  0  0  0  0  0  0  0  0
  195.5400  173.8390  138.6610 C   0  0  0  0  0  1  0  0  0  0  0  0
  195.4410  173.6660  137.2210 N   0  0  0  0  0  2  0  0  0  0  0  0
  188.8080  177.9600  141.0760 C   0  0  0  0  0  3  0  0  0  0  0  0
  187.6270  178.3250  140.4270 C   0  0  0  0  0  0  0  0  0  0  0  0
  186.4730  178.5760  141.1810 C   0  0  0  0  0  3  0  0  0  0  0  0
  185.3100  178.7200  143.3840 C   0  0  0  0  0  1  0  0  0  0  0  0
  187.6880  178.1020  143.1820 N   0  0  0  0  0  0  0  0  0  0  0  0
  186.5260  178.4580  142.5710 C   0  0  0  0  0  0  0  0  0  0  0  0
  188.8190  177.8530  142.4690 C   0  0  0  0  0  3  0  0  0  0  0  0
  1 10  1  6  0  0  0
  1 20  1  0  0  0  0
  1 13  1  0  0  0  0
  4  6  2  0  0  0  0
  5  2  1  6  0  0  0
  5  7  1  0  0  0  0
  6  9  1  0  0  0  0
  6  2  1  0  0  0  0
  7  3  1  6  0  0  0
  7 19  1  0  0  0  0
  8 12  2  0  0  0  0
  8  4  1  0  0  0  0
  9 13  1  0  0  0  0
  9 17  1  0  0  0  0
 11 23  1  0  0  0  0
 12 16  1  0  0  0  0
 14 26  1  6  0  0  0
 14 21  1  0  0  0  0
 15  3  1  0  0  0  0
 15 14  1  0  0  0  0
 16 11  1  0  0  0  0
 16  2  2  0  0  0  0
 17  5  1  0  0  0  0
 17 22  1  6  0  0  0
 18  4  1  0  0  0  0
 18  1  1  0  0  0  0
 19 32  1  1  0  0  0
 22 21  1  0  0  0  0
 23 19  1  0  0  0  0
 24 25  2  0  0  0  0
 25 27  1  0  0  0  0
 25 30  1  0  0  0  0
 26 27  1  0  0  0  0
 28 26  2  0  0  0  0
 30 29  1  0  0  0  0
 31 37  1  0  0  0  0
 32 31  2  0  0  0  0
 32 33  1  0  0  0  0
 33 36  2  0  0  0  0
 36 35  1  0  0  0  0
 36 34  1  0  0  0  0
 37 35  2  0  0  0  0
M  END
>  <MODEL>
6

>  <REMARK>
 VINA RESULT:      -5.4      5.616      9.470
  Name = 
  2 active torsions:
  status: ('A' for Active; 'I' for Inactive)
    1  A    between atoms: C_8  and  C_18
    2  A    between atoms: C_23  and  C_30
                            x       y       z     vdW  Elec       q    Type
                         _______ _______ _______ _____ _____    ______ ____

>  <TORSDO>
F 2

$$$$
=
 OpenBabel11122411373D

 37 42  0  0  1  0  0  0  0  0999 V2000
  181.8060  174.5070  135.8570 C   0  0  1  0  0  0  0  0  0  0  0  0
  180.2910  177.8270  138.0270 C   0  0  0  0  0  0  0  0  0  0  0  0
  182.4380  180.1270  138.7340 C   0  0  0  0  0  2  0  0  0  0  0  0
  180.1890  176.5290  135.8950 C   0  0  0  0  0  0  0  0  0  0  0  0
  181.2200  177.9150  138.9730 C   0  0  2  0  0  3  0  0  0  0  0  0
  180.5150  176.5550  137.3310 C   0  0  0  0  0  0  0  0  0  0  0  0
  181.6080  179.2110  139.6430 C   0  0  2  0  0  3  0  0  0  0  0  0
  179.4970  177.5300  135.3310 C   0  0  0  0  0  3  0  0  0  0  0  0
  181.9250  176.3130  137.4840 N   0  0  0  0  0  0  0  0  0  0  0  0
  183.0710  174.8100  135.0760 C   0  0  0  0  0  1  0  0  0  0  0  0
  179.1950  180.1830  138.1160 C   0  0  0  0  0  2  0  0  0  0  0  0
  179.1260  178.7440  136.1180 C   0  0  0  0  0  3  0  0  0  0  0  0
  182.0550  174.8720  137.3530 C   0  0  0  0  0  2  0  0  0  0  0  0
  184.6130  178.7610  138.7520 C   0  0  1  0  0  3  0  0  0  0  0  0
  183.4850  179.3690  137.9110 C   0  0  0  0  0  2  0  0  0  0  0  0
  179.4910  178.9000  137.4040 C   0  0  0  0  0  0  0  0  0  0  0  0
  182.1490  176.8330  138.7710 N   0  0  1  0  0  0  0  0  0  0  0  0
  180.6190  175.2750  135.1710 C   0  0  0  0  0  2  0  0  0  0  0  0
  180.4610  179.9820  140.3230 C   0  0  1  0  0  3  0  0  0  0  0  0
  181.5570  173.1390  135.7700 O   0  0  0  0  0  1  0  0  0  0  0  0
  184.1440  177.8670  139.9090 C   0  0  0  0  0  2  0  0  0  0  0  0
  183.3970  176.5900  139.5010 C   0  0  0  0  0  2  0  0  0  0  0  0
  179.0940  179.9620  139.6200 C   0  0  0  0  0  2  0  0  0  0  0  0
  187.8440  176.8040  136.5170 O   0  0  0  0  0  0  0  0  0  0  0  0
  188.0440  177.3340  137.6410 C   0  0  0  0  0  0  0  0  0  0  0  0
  185.6210  178.0730  137.8900 C   0  0  0  0  0  0  0  0  0  0  0  0
  186.9730  177.9710  138.3510 N   0  0  0  0  0  2  0  0  0  0  0  0
  185.2760  177.5730  136.7850 O   0  0  0  0  0  0  0  0  0  0  0  0
  189.6530  177.8860  139.4980 C   0  0  0  0  0  1  0  0  0  0  0  0
  189.3540  177.2940  138.2050 N   0  0  0  0  0  2  0  0  0  0  0  0
  179.0550  179.5170  142.3350 C   0  0  0  0  0  3  0  0  0  0  0  0
  180.3250  179.5800  141.7570 C   0  0  0  0  0  0  0  0  0  0  0  0
  181.4520  179.2760  142.5320 C   0  0  0  0  0  3  0  0  0  0  0  0
  182.4710  178.5910  144.7040 C   0  0  0  0  0  1  0  0  0  0  0  0
  180.0380  178.8590  144.4100 N   0  0  0  0  0  0  0  0  0  0  0  0
  181.2850  178.9140  143.8690 C   0  0  0  0  0  0  0  0  0  0  0  0
  178.9310  179.1510  143.6760 C   0  0  0  0  0  3  0  0  0  0  0  0
  1 10  1  6  0  0  0
  1 13  1  0  0  0  0
  4  6  1  0  0  0  0
  5  2  1  6  0  0  0
  5  7  1  0  0  0  0
  6  9  1  0  0  0  0
  6  2  2  0  0  0  0
  7  3  1  6  0  0  0
  7 19  1  0  0  0  0
  8  4  2  0  0  0  0
  8 12  1  0  0  0  0
  9 17  1  0  0  0  0
 11 23  1  0  0  0  0
 12 16  2  0  0  0  0
 13  9  1  0  0  0  0
 14 26  1  6  0  0  0
 14 21  1  0  0  0  0
 15  3  1  0  0  0  0
 15 14  1  0  0  0  0
 16  2  1  0  0  0  0
 16 11  1  0  0  0  0
 17  5  1  0  0  0  0
 17 22  1  6  0  0  0
 18  1  1  0  0  0  0
 18  4  1  0  0  0  0
 19 32  1  1  0  0  0
 20  1  1  0  0  0  0
 22 21  1  0  0  0  0
 23 19  1  0  0  0  0
 24 25  2  0  0  0  0
 25 30  1  0  0  0  0
 25 27  1  0  0  0  0
 26 27  1  0  0  0  0
 28 26  2  0  0  0  0
 30 29  1  0  0  0  0
 31 37  1  0  0  0  0
 32 31  2  0  0  0  0
 32 33  1  0  0  0  0
 33 36  2  0  0  0  0
 36 35  1  0  0  0  0
 36 34  1  0  0  0  0
 37 35  2  0  0  0  0
M  END
>  <MODEL>
7

>  <REMARK>
 VINA RESULT:      -5.2      2.951      6.904
  Name = 
  2 active torsions:
  status: ('A' for Active; 'I' for Inactive)
    1  A    between atoms: C_8  and  C_18
    2  A    between atoms: C_23  and  C_30
                            x       y       z     vdW  Elec       q    Type
                         _______ _______ _______ _____ _____    ______ ____

>  <TORSDO>
F 2

$$$$
=
 OpenBabel11122411373D

 37 42  0  0  1  0  0  0  0  0999 V2000
  189.6730  177.2830  141.6390 C   0  0  1  0  0  0  0  0  0  0  0  0
  191.4470  175.7500  138.0990 C   0  0  0  0  0  0  0  0  0  0  0  0
  190.1390  176.7660  135.3320 C   0  0  0  0  0  2  0  0  0  0  0  0
  191.7860  177.1340  140.1510 C   0  0  0  0  0  0  0  0  0  0  0  0
  190.3510  175.3790  137.4450 C   0  0  2  0  0  3  0  0  0  0  0  0
  191.0350  176.0650  139.4710 C   0  0  0  0  0  0  0  0  0  0  0  0
  190.2440  175.3610  135.9390 C   0  0  2  0  0  3  0  0  0  0  0  0
  192.9310  177.6040  139.6310 C   0  0  0  0  0  3  0  0  0  0  0  0
  189.6640  176.4820  139.3400 N   0  0  0  0  0  0  0  0  0  0  0  0
  188.9290  178.5890  141.4370 C   0  0  0  0  0  1  0  0  0  0  0  0
  193.2050  175.8850  136.1880 C   0  0  0  0  0  2  0  0  0  0  0  0
  193.4210  177.1280  138.3030 C   0  0  0  0  0  3  0  0  0  0  0  0
  189.0870  176.2280  140.6490 C   0  0  0  0  0  2  0  0  0  0  0  0
  187.7500  177.3040  136.1020 C   0  0  1  0  0  3  0  0  0  0  0  0
  189.2290  177.7030  136.1350 C   0  0  0  0  0  2  0  0  0  0  0  0
  192.7300  176.2430  137.5620 C   0  0  0  0  0  0  0  0  0  0  0  0
  189.2240  175.6410  138.3040 N   0  0  1  0  0  0  0  0  0  0  0  0
  191.2090  177.5690  141.4770 C   0  0  0  0  0  2  0  0  0  0  0  0
  191.2950  174.5080  135.2050 C   0  0  1  0  0  3  0  0  0  0  0  0
  189.4400  176.8450  142.9410 O   0  0  0  0  0  1  0  0  0  0  0  0
  187.4630  175.8540  136.5150 C   0  0  0  0  0  2  0  0  0  0  0  0
  187.8030  175.4970  137.9690 C   0  0  0  0  0  2  0  0  0  0  0  0
  192.7170  174.4980  135.7860 C   0  0  0  0  0  2  0  0  0  0  0  0
  185.0400  179.8500  138.4360 O   0  0  0  0  0  0  0  0  0  0  0  0
  184.8090  178.6250  138.2600 C   0  0  0  0  0  0  0  0  0  0  0  0
  186.9100  178.2770  136.8660 C   0  0  0  0  0  0  0  0  0  0  0  0
  185.7070  177.8140  137.4890 N   0  0  0  0  0  2  0  0  0  0  0  0
  187.2720  179.4800  136.9740 O   0  0  0  0  0  0  0  0  0  0  0  0
  183.3120  176.6420  138.6700 C   0  0  0  0  0  1  0  0  0  0  0  0
  183.6380  178.0480  138.8360 N   0  0  0  0  0  2  0  0  0  0  0  0
  191.7160  172.0800  134.7940 C   0  0  0  0  0  3  0  0  0  0  0  0
  190.7970  173.1120  135.0000 C   0  0  0  0  0  0  0  0  0  0  0  0
  189.4250  172.8260  134.9990 C   0  0  0  0  0  3  0  0  0  0  0  0
  187.5490  171.1950  134.7910 C   0  0  0  0  0  1  0  0  0  0  0  0
  189.9130  170.5230  134.5980 N   0  0  0  0  0  0  0  0  0  0  0  0
  189.0010  171.5130  134.7950 C   0  0  0  0  0  0  0  0  0  0  0  0
  191.2490  170.7780  134.5940 C   0  0  0  0  0  3  0  0  0  0  0  0
  1 10  1  6  0  0  0
  1 20  1  0  0  0  0
  2  6  1  0  0  0  0
  3 15  1  0  0  0  0
  4 18  1  0  0  0  0
  5  2  1  6  0  0  0
  5 17  1  0  0  0  0
  6  4  2  0  0  0  0
  7  3  1  6  0  0  0
  7  5  1  0  0  0  0
  8  4  1  0  0  0  0
  9  6  1  0  0  0  0
  9 13  1  0  0  0  0
 11 16  1  0  0  0  0
 12  8  2  0  0  0  0
 13  1  1  0  0  0  0
 14 15  1  0  0  0  0
 14 21  1  0  0  0  0
 14 26  1  1  0  0  0
 16  2  2  0  0  0  0
 16 12  1  0  0  0  0
 17 22  1  6  0  0  0
 17  9  1  0  0  0  0
 18  1  1  0  0  0  0
 19 32  1  1  0  0  0
 19 23  1  0  0  0  0
 19  7  1  0  0  0  0
 21 22  1  0  0  0  0
 23 11  1  0  0  0  0
 25 24  2  0  0  0  0
 25 30  1  0  0  0  0
 26 28  2  0  0  0  0
 26 27  1  0  0  0  0
 27 25  1  0  0  0  0
 29 30  1  0  0  0  0
 31 32  1  0  0  0  0
 33 32  2  0  0  0  0
 34 36  1  0  0  0  0
 35 36  2  0  0  0  0
 36 33  1  0  0  0  0
 37 35  1  0  0  0  0
 37 31  2  0  0  0  0
M  END
>  <MODEL>
8

>  <REMARK>
 VINA RESULT:      -4.1      4.504      8.740
  Name = 
  2 active torsions:
  status: ('A' for Active; 'I' for Inactive)
    1  A    between atoms: C_8  and  C_18
    2  A    between atoms: C_23  and  C_30
                            x       y       z     vdW  Elec       q    Type
                         _______ _______ _______ _____ _____    ______ ____

>  <TORSDO>
F 2

$$$$
=
 OpenBabel11122411373D

 37 42  0  0  1  0  0  0  0  0999 V2000
  183.9840  178.4990  140.4180 C   0  0  1  0  0  0  0  0  0  0  0  0
  184.5200  176.0820  136.9680 C   0  0  0  0  0  0  0  0  0  0  0  0
  182.3890  176.5510  134.5940 C   0  0  0  0  0  2  0  0  0  0  0  0
  185.5030  177.8610  138.4220 C   0  0  0  0  0  0  0  0  0  0  0  0
  183.2710  175.6600  136.7980 C   0  0  2  0  0  3  0  0  0  0  0  0
  184.5730  176.7270  138.2850 C   0  0  0  0  0  0  0  0  0  0  0  0
  182.6840  175.3140  135.4520 C   0  0  2  0  0  3  0  0  0  0  0  0
  186.4190  178.1130  137.4740 C   0  0  0  0  0  3  0  0  0  0  0  0
  183.2330  177.2080  138.4950 N   0  0  0  0  0  0  0  0  0  0  0  0
  183.2150  179.7800  140.1560 C   0  0  0  0  0  1  0  0  0  0  0  0
  185.5660  175.6520  134.6270 C   0  0  0  0  0  2  0  0  0  0  0  0
  186.4540  177.3160  136.2110 C   0  0  0  0  0  3  0  0  0  0  0  0
  183.1100  177.2980  139.9400 C   0  0  0  0  0  2  0  0  0  0  0  0
  180.3760  177.4290  135.9240 C   0  0  1  0  0  3  0  0  0  0  0  0
  181.7870  177.7100  135.3960 C   0  0  0  0  0  2  0  0  0  0  0  0
  185.5610  176.3430  135.9560 C   0  0  0  0  0  0  0  0  0  0  0  0
  182.4820  176.1930  137.8800 N   0  0  1  0  0  0  0  0  0  0  0  0
  185.3860  178.6240  139.7190 C   0  0  0  0  0  2  0  0  0  0  0  0
  183.4410  174.2390  134.6480 C   0  0  1  0  0  3  0  0  0  0  0  0
  184.1830  178.3830  141.7920 O   0  0  0  0  0  1  0  0  0  0  0  0
  180.2380  176.1340  136.7370 C   0  0  0  0  0  2  0  0  0  0  0  0
  181.0290  176.0860  138.0510 C   0  0  0  0  0  2  0  0  0  0  0  0
  184.9750  174.2520  134.7390 C   0  0  0  0  0  2  0  0  0  0  0  0
  178.9310  181.1270  137.7980 O   0  0  0  0  0  0  0  0  0  0  0  0
  179.6410  181.1450  136.7580 C   0  0  0  0  0  0  0  0  0  0  0  0
  179.8280  178.6090  136.6600 C   0  0  0  0  0  0  0  0  0  0  0  0
  180.1050  179.9240  136.1670 N   0  0  0  0  0  2  0  0  0  0  0  0
  179.1140  178.4410  137.6870 O   0  0  0  0  0  0  0  0  0  0  0  0
  180.8000  182.4940  134.9750 C   0  0  0  0  0  1  0  0  0  0  0  0
  179.9830  182.4000  136.1730 N   0  0  0  0  0  2  0  0  0  0  0  0
  183.6890  171.7540  134.6690 C   0  0  0  0  0  3  0  0  0  0  0  0
  182.9040  172.8760  134.9460 C   0  0  0  0  0  0  0  0  0  0  0  0
  181.6220  172.7060  135.4860 C   0  0  0  0  0  3  0  0  0  0  0  0
  179.7960  171.2200  136.3130 C   0  0  0  0  0  1  0  0  0  0  0  0
  181.9360  170.3380  135.4650 N   0  0  0  0  0  0  0  0  0  0  0  0
  181.1530  171.4160  135.7410 C   0  0  0  0  0  0  0  0  0  0  0  0
  183.1820  170.4800  134.9380 C   0  0  0  0  0  3  0  0  0  0  0  0
  1 10  1  6  0  0  0
  1 20  1  0  0  0  0
  2  6  1  0  0  0  0
  3 15  1  0  0  0  0
  4 18  1  0  0  0  0
  5  2  1  6  0  0  0
  5 17  1  0  0  0  0
  6  4  2  0  0  0  0
  6  9  1  0  0  0  0
  7  3  1  6  0  0  0
  7  5  1  0  0  0  0
  8  4  1  0  0  0  0
  9 13  1  0  0  0  0
 11 23  1  0  0  0  0
 11 16  1  0  0  0  0
 12  8  2  0  0  0  0
 13  1  1  0  0  0  0
 14 26  1  1  0  0  0
 14 21  1  0  0  0  0
 15 14  1  0  0  0  0
 16 12  1  0  0  0  0
 16  2  2  0  0  0  0
 17 22  1  6  0  0  0
 17  9  1  0  0  0  0
 18  1  1  0  0  0  0
 19 23  1  0  0  0  0
 19 32  1  1  0  0  0
 19  7  1  0  0  0  0
 21 22  1  0  0  0  0
 25 24  2  0  0  0  0
 26 28  2  0  0  0  0
 27 26  1  0  0  0  0
 27 25  1  0  0  0  0
 29 30  1  0  0  0  0
 30 25  1  0  0  0  0
 31 37  2  0  0  0  0
 31 32  1  0  0  0  0
 32 33  2  0  0  0  0
 33 36  1  0  0  0  0
 35 36  2  0  0  0  0
 36 34  1  0  0  0  0
 37 35  1  0  0  0  0
M  END
>  <MODEL>
9

>  <REMARK>
 VINA RESULT:      -4.0      2.954      6.437
  Name = 
  2 active torsions:
  status: ('A' for Active; 'I' for Inactive)
    1  A    between atoms: C_8  and  C_18
    2  A    between atoms: C_23  and  C_30
                            x       y       z     vdW  Elec       q    Type
                         _______ _______ _______ _____ _____    ______ ____

>  <TORSDO>
F 2

$$$$
