=
 OpenBabel11122411493D

 37 43  0  0  1  0  0  0  0  0999 V2000
  187.5200  177.6300  141.6360 C   0  0  1  0  0  3  0  0  0  0  0  0
  190.5760  176.2670  142.0310 O   0  0  0  0  0  0  0  0  0  0  0  0
  185.4690  178.4780  143.0490 C   0  0  2  0  0  3  0  0  0  0  0  0
  188.9010  177.9730  142.0890 C   0  0  2  0  0  3  0  0  0  0  0  0
  186.7960  177.6990  142.9880 C   0  0  2  0  0  3  0  0  0  0  0  0
  190.0400  177.3340  141.2910 C   0  0  2  0  0  3  0  0  0  0  0  0
  185.3280  179.5170  141.9510 C   0  0  0  0  0  2  0  0  0  0  0  0
  187.7320  178.0900  143.9660 O   0  0  0  0  0  0  0  0  0  0  0  0
  187.4730  178.0710  139.3210 C   0  0  0  0  0  2  0  0  0  0  0  0
  185.7070  178.8730  140.6340 C   0  0  0  0  0  2  0  0  0  0  0  0
  192.1280  178.1270  142.8470 C   0  0  0  0  0  2  0  0  0  0  0  0
  191.7180  176.6590  142.7920 C   0  0  1  0  0  3  0  0  0  0  0  0
  187.1430  178.6320  140.6300 N   0  0  1  0  0  0  0  0  0  0  0  0
  188.9230  177.6150  143.4960 N   0  0  2  0  0  0  0  0  0  0  0  0
  189.6650  176.9120  139.8580 C   0  0  1  0  0  3  0  0  0  0  0  0
  191.3690  177.5350  144.0220 C   0  0  2  0  0  3  0  0  0  0  0  0
  190.0440  178.3250  144.1190 C   0  0  2  0  0  3  0  0  0  0  0  0
  188.9860  178.0480  139.0790 C   0  0  0  0  0  2  0  0  0  0  0  0
  192.0820  177.1020  139.2560 C   0  0  0  0  0  3  0  0  0  0  0  0
  190.8670  176.4220  139.1130 C   0  0  0  0  0  0  0  0  0  0  0  0
  190.7950  175.3000  138.2720 C   0  0  0  0  0  3  0  0  0  0  0  0
  191.8520  173.7310  136.7290 N   0  0  0  0  0  1  0  0  0  0  0  0
  193.1410  175.5500  137.7270 C   0  0  0  0  0  3  0  0  0  0  0  0
  191.9300  174.8670  137.5810 C   0  0  0  0  0  0  0  0  0  0  0  0
  193.2170  176.6670  138.5640 C   0  0  0  0  0  3  0  0  0  0  0  0
  189.7810  178.6190  145.5940 C   0  0  0  0  0  2  0  0  0  0  0  0
  190.1450  177.4190  146.4550 C   0  0  0  0  0  0  0  0  0  0  0  0
  189.5520  177.4250  147.8440 C   0  0  0  0  0  2  0  0  0  0  0  0
  189.0000  176.4880  146.7770 C   0  0  0  0  0  2  0  0  0  0  0  0
  191.5040  176.7390  146.3270 C   0  0  0  0  0  2  0  0  0  0  0  0
  191.7350  175.7300  147.4430 C   0  0  0  0  0  2  0  0  0  0  0  0
  192.8800  176.0650  148.1640 O   0  0  0  0  0  1  0  0  0  0  0  0
  185.2830  179.0750  144.3080 O   0  0  0  0  0  0  0  0  0  0  0  0
  183.9110  179.0230  144.6230 C   0  0  0  0  0  0  0  0  0  0  0  0
  183.2600  178.0810  143.8410 F   0  0  0  0  0  0  0  0  0  0  0  0
  183.7240  178.7280  145.9650 F   0  0  0  0  0  0  0  0  0  0  0  0
  183.3540  180.2610  144.3680 F   0  0  0  0  0  0  0  0  0  0  0  0
  1  4  1  0  0  0  0
  1  5  1  0  0  0  0
  2 12  1  0  0  0  0
  3 33  1  0  0  0  0
  4 14  1  0  0  0  0
  5  3  1  0  0  0  0
  5  8  1  0  0  0  0
  6  2  1  0  0  0  0
  6  4  1  0  0  0  0
  7  3  1  0  0  0  0
  9 13  1  0  0  0  0
 10  7  1  0  0  0  0
 11 16  1  0  0  0  0
 12 11  1  0  0  0  0
 12 16  1  0  0  0  0
 13 10  1  0  0  0  0
 13  1  1  0  0  0  0
 14  8  1  0  0  0  0
 14 17  1  0  0  0  0
 15  6  1  0  0  0  0
 16 17  1  0  0  0  0
 17 26  1  0  0  0  0
 18  9  1  0  0  0  0
 18 15  1  0  0  0  0
 20 19  1  0  0  0  0
 20 15  1  0  0  0  0
 21 20  2  0  0  0  0
 22 24  1  0  0  0  0
 23 25  1  0  0  0  0
 24 23  2  0  0  0  0
 24 21  1  0  0  0  0
 25 19  2  0  0  0  0
 26 27  1  0  0  0  0
 27 29  1  0  0  0  0
 27 28  1  0  0  0  0
 29 28  1  0  0  0  0
 30 27  1  0  0  0  0
 30 31  1  0  0  0  0
 31 32  1  0  0  0  0
 33 34  1  0  0  0  0
 34 36  1  0  0  0  0
 35 34  1  0  0  0  0
 37 34  1  0  0  0  0
M  END
>  <MODEL>
1

>  <REMARK>
 VINA RESULT:      -9.0      0.000      0.000
  Name = 
  7 active torsions:
  status: ('A' for Active; 'I' for Inactive)
    1  A    between atoms: C_1  and  C_4
    2  A    between atoms: C_1  and  C_27
    3  A    between atoms: C_2  and  O_22
    4  A    between atoms: C_4  and  C_12
    5  A    between atoms: C_6  and  O_22
    6  A    between atoms: C_8  and  C_12
    7  A    between atoms: C_23  and  C_30
                            x       y       z     vdW  Elec       q    Type
                         _______ _______ _______ _____ _____    ______ ____

>  <TORSDO>
F 7

$$$$
=
 OpenBabel11122411493D

 37 43  0  0  1  0  0  0  0  0999 V2000
  185.5920  178.9410  141.0360 C   0  0  1  0  0  3  0  0  0  0  0  0
  188.8700  178.8390  140.2600 O   0  0  0  0  0  0  0  0  0  0  0  0
  183.2450  179.3370  139.9170 C   0  0  2  0  0  3  0  0  0  0  0  0
  186.5980  178.0950  140.3260 C   0  0  2  0  0  3  0  0  0  0  0  0
  184.7800  179.4210  139.8250 C   0  0  2  0  0  3  0  0  0  0  0  0
  187.9810  178.0200  140.9760 C   0  0  2  0  0  3  0  0  0  0  0  0
  182.7550  178.3090  140.9200 C   0  0  0  0  0  2  0  0  0  0  0  0
  185.3150  178.8150  138.6710 O   0  0  0  0  0  0  0  0  0  0  0  0
  185.5940  178.2020  143.2740 C   0  0  0  0  0  2  0  0  0  0  0  0
  183.5280  178.4960  142.2090 C   0  0  0  0  0  2  0  0  0  0  0  0
  189.2810  176.6390  139.0230 C   0  0  0  0  0  2  0  0  0  0  0  0
  189.6100  178.1070  139.2830 C   0  0  1  0  0  3  0  0  0  0  0  0
  184.9030  178.0660  141.9930 N   0  0  1  0  0  0  0  0  0  0  0  0
  186.6330  178.6260  138.9760 N   0  0  2  0  0  0  0  0  0  0  0  0
  188.0010  178.3300  142.4860 C   0  0  1  0  0  3  0  0  0  0  0  0
  188.7630  177.6890  138.0540 C   0  0  2  0  0  3  0  0  0  0  0  0
  187.2220  177.6000  138.1090 C   0  0  2  0  0  3  0  0  0  0  0  0
  186.9600  177.5080  143.2580 C   0  0  0  0  0  2  0  0  0  0  0  0
  190.1250  179.2060  143.4690 C   0  0  0  0  0  3  0  0  0  0  0  0
  189.3660  178.1040  143.0590 C   0  0  0  0  0  0  0  0  0  0  0  0
  189.8970  176.8100  143.1830 C   0  0  0  0  0  3  0  0  0  0  0  0
  191.7120  175.3130  143.8370 N   0  0  0  0  0  1  0  0  0  0  0  0
  191.9310  177.7290  144.1230 C   0  0  0  0  0  3  0  0  0  0  0  0
  191.1760  176.6250  143.7140 C   0  0  0  0  0  0  0  0  0  0  0  0
  191.4050  179.0190  144.0000 C   0  0  0  0  0  3  0  0  0  0  0  0
  186.6960  177.6960  136.6790 C   0  0  0  0  0  2  0  0  0  0  0  0
  185.9760  176.4150  136.2820 C   0  0  0  0  0  0  0  0  0  0  0  0
  184.4880  176.5570  136.0700 C   0  0  0  0  0  2  0  0  0  0  0  0
  185.4230  176.3970  134.8780 C   0  0  0  0  0  2  0  0  0  0  0  0
  186.4370  175.0580  136.8040 C   0  0  0  0  0  2  0  0  0  0  0  0
  185.2590  174.1470  137.1160 C   0  0  0  0  0  2  0  0  0  0  0  0
  185.6480  173.1420  138.0010 O   0  0  0  0  0  1  0  0  0  0  0  0
  182.6690  179.0970  138.6570 O   0  0  0  0  0  0  0  0  0  0  0  0
  181.8680  180.2050  138.3190 C   0  0  0  0  0  0  0  0  0  0  0  0
  182.5500  181.3930  138.5340 F   0  0  0  0  0  0  0  0  0  0  0  0
  181.4570  180.1320  136.9970 F   0  0  0  0  0  0  0  0  0  0  0  0
  180.7450  180.1970  139.1240 F   0  0  0  0  0  0  0  0  0  0  0  0
  1 13  1  0  0  0  0
  2  6  1  0  0  0  0
  3  7  1  0  0  0  0
  4  6  1  0  0  0  0
  4  1  1  0  0  0  0
  5  3  1  0  0  0  0
  5  1  1  0  0  0  0
  6 15  1  0  0  0  0
  7 10  1  0  0  0  0
  8 14  1  0  0  0  0
  8  5  1  0  0  0  0
 11 12  1  0  0  0  0
 12  2  1  0  0  0  0
 13 10  1  0  0  0  0
 13  9  1  0  0  0  0
 14  4  1  0  0  0  0
 15 20  1  0  0  0  0
 15 18  1  0  0  0  0
 16 17  1  0  0  0  0
 16 11  1  0  0  0  0
 16 12  1  0  0  0  0
 17 14  1  0  0  0  0
 18  9  1  0  0  0  0
 19 25  1  0  0  0  0
 20 21  1  0  0  0  0
 20 19  2  0  0  0  0
 21 24  2  0  0  0  0
 24 22  1  0  0  0  0
 24 23  1  0  0  0  0
 25 23  2  0  0  0  0
 26 17  1  0  0  0  0
 27 26  1  0  0  0  0
 27 30  1  0  0  0  0
 28 27  1  0  0  0  0
 29 28  1  0  0  0  0
 29 27  1  0  0  0  0
 30 31  1  0  0  0  0
 31 32  1  0  0  0  0
 33  3  1  0  0  0  0
 34 35  1  0  0  0  0
 34 33  1  0  0  0  0
 34 37  1  0  0  0  0
 36 34  1  0  0  0  0
M  END
>  <MODEL>
2

>  <REMARK>
 VINA RESULT:      -8.7      3.627      6.970
  Name = 
  7 active torsions:
  status: ('A' for Active; 'I' for Inactive)
    1  A    between atoms: C_1  and  C_4
    2  A    between atoms: C_1  and  C_27
    3  A    between atoms: C_2  and  O_22
    4  A    between atoms: C_4  and  C_12
    5  A    between atoms: C_6  and  O_22
    6  A    between atoms: C_8  and  C_12
    7  A    between atoms: C_23  and  C_30
                            x       y       z     vdW  Elec       q    Type
                         _______ _______ _______ _____ _____    ______ ____

>  <TORSDO>
F 7

$$$$
=
 OpenBabel11122411493D

 37 43  0  0  1  0  0  0  0  0999 V2000
  186.1370  178.7130  142.5150 C   0  0  1  0  0  3  0  0  0  0  0  0
  189.4740  178.5590  142.9630 O   0  0  0  0  0  0  0  0  0  0  0  0
  184.3530  179.2810  140.6670 C   0  0  2  0  0  3  0  0  0  0  0  0
  187.3280  177.8920  142.1430 C   0  0  2  0  0  3  0  0  0  0  0  0
  185.8180  179.3180  141.1410 C   0  0  2  0  0  3  0  0  0  0  0  0
  188.3830  177.7170  143.2370 C   0  0  2  0  0  3  0  0  0  0  0  0
  183.5300  178.1930  141.3330 C   0  0  0  0  0  2  0  0  0  0  0  0
  186.7320  178.7890  140.2080 O   0  0  0  0  0  0  0  0  0  0  0  0
  185.3280  177.7960  144.5300 C   0  0  0  0  0  2  0  0  0  0  0  0
  183.7870  178.2480  142.8250 C   0  0  0  0  0  2  0  0  0  0  0  0
  190.2950  176.4540  141.7670 C   0  0  0  0  0  2  0  0  0  0  0  0
  190.5130  177.8830  142.2560 C   0  0  1  0  0  3  0  0  0  0  0  0
  185.1450  177.7880  143.0800 N   0  0  1  0  0  0  0  0  0  0  0  0
  187.8500  178.5290  140.9470 N   0  0  2  0  0  0  0  0  0  0  0  0
  187.8580  177.9030  144.6740 C   0  0  1  0  0  3  0  0  0  0  0  0
  190.1660  177.5960  140.7740 C   0  0  2  0  0  3  0  0  0  0  0  0
  188.7080  177.5570  140.2630 C   0  0  2  0  0  3  0  0  0  0  0  0
  186.6050  177.0580  144.9450 C   0  0  0  0  0  2  0  0  0  0  0  0
  188.7760  178.0290  146.9950 C   0  0  0  0  0  3  0  0  0  0  0  0
  188.9230  177.5830  145.6760 C   0  0  0  0  0  0  0  0  0  0  0  0
  190.0670  176.8530  145.3140 C   0  0  0  0  0  3  0  0  0  0  0  0
  192.2090  175.8350  145.8960 N   0  0  0  0  0  1  0  0  0  0  0  0
  190.8990  177.0210  147.5820 C   0  0  0  0  0  3  0  0  0  0  0  0
  191.0510  176.5740  146.2660 C   0  0  0  0  0  0  0  0  0  0  0  0
  189.7620  177.7490  147.9460 C   0  0  0  0  0  3  0  0  0  0  0  0
  188.7340  177.7870  138.7540 C   0  0  0  0  0  2  0  0  0  0  0  0
  189.0360  176.4910  138.0160 C   0  0  0  0  0  0  0  0  0  0  0  0
  187.8370  175.6160  137.7440 C   0  0  0  0  0  2  0  0  0  0  0  0
  188.4840  176.4060  136.6130 C   0  0  0  0  0  2  0  0  0  0  0  0
  190.3520  175.7500  138.2310 C   0  0  0  0  0  2  0  0  0  0  0  0
  191.5110  176.4520  137.5370 C   0  0  0  0  0  2  0  0  0  0  0  0
  192.6880  176.2680  138.2610 O   0  0  0  0  0  1  0  0  0  0  0  0
  184.2700  179.1640  139.2690 O   0  0  0  0  0  0  0  0  0  0  0  0
  183.0950  179.8130  138.8410 C   0  0  0  0  0  0  0  0  0  0  0  0
  182.0780  179.6600  139.7710 F   0  0  0  0  0  0  0  0  0  0  0  0
  183.3300  181.1610  138.6200 F   0  0  0  0  0  0  0  0  0  0  0  0
  182.6860  179.2420  137.6510 F   0  0  0  0  0  0  0  0  0  0  0  0
  1 13  1  0  0  0  0
  2  6  1  0  0  0  0
  3  5  1  0  0  0  0
  3  7  1  0  0  0  0
  4  1  1  0  0  0  0
  4  6  1  0  0  0  0
  5  1  1  0  0  0  0
  6 15  1  0  0  0  0
  7 10  1  0  0  0  0
  8 14  1  0  0  0  0
  8  5  1  0  0  0  0
  9 18  1  0  0  0  0
 10 13  1  0  0  0  0
 11 12  1  0  0  0  0
 12  2  1  0  0  0  0
 13  9  1  0  0  0  0
 14  4  1  0  0  0  0
 15 18  1  0  0  0  0
 15 20  1  0  0  0  0
 16 11  1  0  0  0  0
 16 12  1  0  0  0  0
 17 16  1  0  0  0  0
 17 14  1  0  0  0  0
 19 25  1  0  0  0  0
 20 19  2  0  0  0  0
 21 20  1  0  0  0  0
 21 24  2  0  0  0  0
 22 24  1  0  0  0  0
 23 25  2  0  0  0  0
 24 23  1  0  0  0  0
 26 17  1  0  0  0  0
 27 30  1  0  0  0  0
 27 26  1  0  0  0  0
 28 27  1  0  0  0  0
 29 28  1  0  0  0  0
 29 27  1  0  0  0  0
 31 30  1  0  0  0  0
 31 32  1  0  0  0  0
 33  3  1  0  0  0  0
 34 33  1  0  0  0  0
 34 35  1  0  0  0  0
 36 34  1  0  0  0  0
 37 34  1  0  0  0  0
M  END
>  <MODEL>
3

>  <REMARK>
 VINA RESULT:      -8.7      2.740      6.485
  Name = 
  7 active torsions:
  status: ('A' for Active; 'I' for Inactive)
    1  A    between atoms: C_1  and  C_4
    2  A    between atoms: C_1  and  C_27
    3  A    between atoms: C_2  and  O_22
    4  A    between atoms: C_4  and  C_12
    5  A    between atoms: C_6  and  O_22
    6  A    between atoms: C_8  and  C_12
    7  A    between atoms: C_23  and  C_30
                            x       y       z     vdW  Elec       q    Type
                         _______ _______ _______ _____ _____    ______ ____

>  <TORSDO>
F 7

$$$$
=
 OpenBabel11122411493D

 37 43  0  0  1  0  0  0  0  0999 V2000
  187.8300  177.5020  146.2330 C   0  0  1  0  0  3  0  0  0  0  0  0
  186.7950  177.4450  143.0270 O   0  0  0  0  0  0  0  0  0  0  0  0
  189.9790  177.0750  147.6890 C   0  0  2  0  0  3  0  0  0  0  0  0
  187.9640  178.2550  144.9500 C   0  0  2  0  0  3  0  0  0  0  0  0
  189.2550  176.9420  146.3360 C   0  0  2  0  0  3  0  0  0  0  0  0
  186.6950  178.3480  144.0990 C   0  0  2  0  0  3  0  0  0  0  0  0
  189.4410  178.2000  148.5530 C   0  0  0  0  0  2  0  0  0  0  0  0
  189.9970  177.4280  145.2420 O   0  0  0  0  0  0  0  0  0  0  0  0
  185.9660  178.4340  147.3350 C   0  0  0  0  0  2  0  0  0  0  0  0
  187.9290  178.1060  148.5700 C   0  0  0  0  0  2  0  0  0  0  0  0
  187.7680  179.5160  141.8870 C   0  0  0  0  0  2  0  0  0  0  0  0
  187.2870  178.0680  141.8410 C   0  0  1  0  0  3  0  0  0  0  0  0
  187.4250  178.4770  147.2550 N   0  0  1  0  0  0  0  0  0  0  0  0
  189.0650  177.6070  144.2610 N   0  0  2  0  0  0  0  0  0  0  0  0
  185.3800  178.1710  144.8810 C   0  0  1  0  0  3  0  0  0  0  0  0
  188.8000  178.4010  141.9010 C   0  0  2  0  0  3  0  0  0  0  0  0
  189.5590  178.5370  143.2400 C   0  0  2  0  0  3  0  0  0  0  0  0
  185.3120  179.0850  146.1130 C   0  0  0  0  0  2  0  0  0  0  0  0
  182.9770  178.7830  144.5710 C   0  0  0  0  0  3  0  0  0  0  0  0
  184.1960  178.4080  143.9960 C   0  0  0  0  0  0  0  0  0  0  0  0
  184.2880  178.2530  142.6030 C   0  0  0  0  0  3  0  0  0  0  0  0
  183.2630  178.3130  140.3880 N   0  0  0  0  0  1  0  0  0  0  0  0
  181.9510  178.8470  142.3780 C   0  0  0  0  0  3  0  0  0  0  0  0
  183.1670  178.4720  141.7980 C   0  0  0  0  0  0  0  0  0  0  0  0
  181.8570  179.0020  143.7640 C   0  0  0  0  0  3  0  0  0  0  0  0
  191.0460  178.3300  142.9590 C   0  0  0  0  0  2  0  0  0  0  0  0
  191.2700  177.0630  142.1470 C   0  0  0  0  0  0  0  0  0  0  0  0
  191.7820  175.8820  142.9350 C   0  0  0  0  0  2  0  0  0  0  0  0
  190.3330  175.9220  142.4650 C   0  0  0  0  0  2  0  0  0  0  0  0
  191.7270  177.1280  140.6930 C   0  0  0  0  0  2  0  0  0  0  0  0
  190.5990  176.7700  139.7350 C   0  0  0  0  0  2  0  0  0  0  0  0
  190.9320  175.6290  139.0060 O   0  0  0  0  0  1  0  0  0  0  0  0
  191.3670  177.2210  147.5140 O   0  0  0  0  0  0  0  0  0  0  0  0
  191.9540  175.9410  147.5620 C   0  0  0  0  0  0  0  0  0  0  0  0
  193.0260  175.9200  148.4400 F   0  0  0  0  0  0  0  0  0  0  0  0
  191.0210  174.9850  147.9370 F   0  0  0  0  0  0  0  0  0  0  0  0
  192.4180  175.6230  146.3000 F   0  0  0  0  0  0  0  0  0  0  0  0
  1  5  1  0  0  0  0
  1 13  1  0  0  0  0
  2  6  1  0  0  0  0
  3  7  1  0  0  0  0
  4  1  1  0  0  0  0
  5  3  1  0  0  0  0
  6 15  1  0  0  0  0
  6  4  1  0  0  0  0
  7 10  1  0  0  0  0
  8  5  1  0  0  0  0
 11 16  1  0  0  0  0
 12 11  1  0  0  0  0
 12 16  1  0  0  0  0
 12  2  1  0  0  0  0
 13  9  1  0  0  0  0
 13 10  1  0  0  0  0
 14  4  1  0  0  0  0
 14  8  1  0  0  0  0
 15 18  1  0  0  0  0
 16 17  1  0  0  0  0
 17 14  1  0  0  0  0
 18  9  1  0  0  0  0
 20 19  1  0  0  0  0
 20 15  1  0  0  0  0
 21 20  2  0  0  0  0
 22 24  1  0  0  0  0
 23 25  1  0  0  0  0
 24 23  2  0  0  0  0
 24 21  1  0  0  0  0
 25 19  2  0  0  0  0
 26 17  1  0  0  0  0
 27 29  1  0  0  0  0
 27 28  1  0  0  0  0
 27 26  1  0  0  0  0
 29 28  1  0  0  0  0
 30 27  1  0  0  0  0
 31 30  1  0  0  0  0
 32 31  1  0  0  0  0
 33 34  1  0  0  0  0
 33  3  1  0  0  0  0
 34 36  1  0  0  0  0
 34 35  1  0  0  0  0
 37 34  1  0  0  0  0
M  END
>  <MODEL>
4

>  <REMARK>
 VINA RESULT:      -8.6      3.489      7.409
  Name = 
  7 active torsions:
  status: ('A' for Active; 'I' for Inactive)
    1  A    between atoms: C_1  and  C_4
    2  A    between atoms: C_1  and  C_27
    3  A    between atoms: C_2  and  O_22
    4  A    between atoms: C_4  and  C_12
    5  A    between atoms: C_6  and  O_22
    6  A    between atoms: C_8  and  C_12
    7  A    between atoms: C_23  and  C_30
                            x       y       z     vdW  Elec       q    Type
                         _______ _______ _______ _____ _____    ______ ____

>  <TORSDO>
F 7

$$$$
=
 OpenBabel11122411493D

 37 43  0  0  1  0  0  0  0  0999 V2000
  186.9150  178.0360  137.9830 C   0  0  1  0  0  3  0  0  0  0  0  0
  185.3410  179.6980  140.4560 O   0  0  0  0  0  0  0  0  0  0  0  0
  189.3340  177.3650  137.1970 C   0  0  2  0  0  3  0  0  0  0  0  0
  186.5660  177.9180  139.4300 C   0  0  2  0  0  3  0  0  0  0  0  0
  188.4330  178.2160  138.1120 C   0  0  2  0  0  3  0  0  0  0  0  0
  185.1880  178.4510  139.8270 C   0  0  2  0  0  3  0  0  0  0  0  0
  188.6630  176.0970  136.7000 C   0  0  0  0  0  2  0  0  0  0  0  0
  188.7700  178.1320  139.4780 O   0  0  0  0  0  0  0  0  0  0  0  0
  185.1100  177.0820  136.8050 C   0  0  0  0  0  2  0  0  0  0  0  0
  187.2820  176.4560  136.1930 C   0  0  0  0  0  2  0  0  0  0  0  0
  185.4120  178.2020  142.5290 C   0  0  0  0  0  2  0  0  0  0  0  0
  185.3850  179.5820  141.8780 C   0  0  1  0  0  3  0  0  0  0  0  0
  186.4450  176.8060  137.3320 N   0  0  1  0  0  0  0  0  0  0  0  0
  187.6540  178.5840  140.1230 N   0  0  2  0  0  0  0  0  0  0  0  0
  184.1630  178.5070  138.6780 C   0  0  1  0  0  3  0  0  0  0  0  0
  186.7120  178.9800  142.4080 C   0  0  2  0  0  3  0  0  0  0  0  0
  187.6410  178.1270  141.5160 C   0  0  2  0  0  3  0  0  0  0  0  0
  184.0660  177.1740  137.9240 C   0  0  0  0  0  2  0  0  0  0  0  0
  182.1530  178.0880  140.1030 C   0  0  0  0  0  3  0  0  0  0  0  0
  182.8140  178.9130  139.1850 C   0  0  0  0  0  0  0  0  0  0  0  0
  182.2000  180.0980  138.7500 C   0  0  0  0  0  3  0  0  0  0  0  0
  180.3170  181.6520  138.7880 N   0  0  0  0  0  1  0  0  0  0  0  0
  180.2810  179.6250  140.1500 C   0  0  0  0  0  3  0  0  0  0  0  0
  180.9370  180.4510  139.2320 C   0  0  0  0  0  0  0  0  0  0  0  0
  180.8900  178.4430  140.5850 C   0  0  0  0  0  3  0  0  0  0  0  0
  189.0370  178.1530  142.1340 C   0  0  0  0  0  2  0  0  0  0  0  0
  189.1010  177.2530  143.3590 C   0  0  0  0  0  0  0  0  0  0  0  0
  188.2850  175.9870  143.2660 C   0  0  0  0  0  2  0  0  0  0  0  0
  189.8030  175.9330  143.1510 C   0  0  0  0  0  2  0  0  0  0  0  0
  189.2440  177.8390  144.7610 C   0  0  0  0  0  2  0  0  0  0  0  0
  188.1470  177.3410  145.6910 C   0  0  0  0  0  2  0  0  0  0  0  0
  187.1330  178.2920  145.7900 O   0  0  0  0  0  1  0  0  0  0  0  0
  190.5530  177.0540  137.8240 O   0  0  0  0  0  0  0  0  0  0  0  0
  191.3690  176.3820  136.8920 C   0  0  0  0  0  0  0  0  0  0  0  0
  191.2660  175.0080  137.0430 F   0  0  0  0  0  0  0  0  0  0  0  0
  191.0320  176.7390  135.5940 F   0  0  0  0  0  0  0  0  0  0  0  0
  192.6830  176.7470  137.1140 F   0  0  0  0  0  0  0  0  0  0  0  0
  1  5  1  0  0  0  0
  1  4  1  0  0  0  0
  2 12  1  0  0  0  0
  3 33  1  0  0  0  0
  3  5  1  0  0  0  0
  4  6  1  0  0  0  0
  4 14  1  0  0  0  0
  5  8  1  0  0  0  0
  6  2  1  0  0  0  0
  7  3  1  0  0  0  0
  8 14  1  0  0  0  0
  9 13  1  0  0  0  0
  9 18  1  0  0  0  0
 10  7  1  0  0  0  0
 10 13  1  0  0  0  0
 12 16  1  0  0  0  0
 12 11  1  0  0  0  0
 13  1  1  0  0  0  0
 14 17  1  0  0  0  0
 15 20  1  0  0  0  0
 15  6  1  0  0  0  0
 16 11  1  0  0  0  0
 17 26  1  0  0  0  0
 17 16  1  0  0  0  0
 18 15  1  0  0  0  0
 19 25  1  0  0  0  0
 20 19  2  0  0  0  0
 21 20  1  0  0  0  0
 21 24  2  0  0  0  0
 22 24  1  0  0  0  0
 23 25  2  0  0  0  0
 24 23  1  0  0  0  0
 26 27  1  0  0  0  0
 27 30  1  0  0  0  0
 28 27  1  0  0  0  0
 29 28  1  0  0  0  0
 29 27  1  0  0  0  0
 30 31  1  0  0  0  0
 31 32  1  0  0  0  0
 34 35  1  0  0  0  0
 34 37  1  0  0  0  0
 34 33  1  0  0  0  0
 36 34  1  0  0  0  0
M  END
>  <MODEL>
5

>  <REMARK>
 VINA RESULT:      -8.3      4.392      7.787
  Name = 
  7 active torsions:
  status: ('A' for Active; 'I' for Inactive)
    1  A    between atoms: C_1  and  C_4
    2  A    between atoms: C_1  and  C_27
    3  A    between atoms: C_2  and  O_22
    4  A    between atoms: C_4  and  C_12
    5  A    between atoms: C_6  and  O_22
    6  A    between atoms: C_8  and  C_12
    7  A    between atoms: C_23  and  C_30
                            x       y       z     vdW  Elec       q    Type
                         _______ _______ _______ _____ _____    ______ ____

>  <TORSDO>
F 7

$$$$
=
 OpenBabel11122411493D

 37 43  0  0  1  0  0  0  0  0999 V2000
  187.3430  177.7230  142.1280 C   0  0  1  0  0  3  0  0  0  0  0  0
  190.3430  176.2350  141.7460 O   0  0  0  0  0  0  0  0  0  0  0  0
  185.7240  178.5910  144.0110 C   0  0  2  0  0  3  0  0  0  0  0  0
  188.8060  177.9990  142.2490 C   0  0  2  0  0  3  0  0  0  0  0  0
  186.9640  177.7670  143.6140 C   0  0  2  0  0  3  0  0  0  0  0  0
  189.6950  177.3490  141.1860 C   0  0  2  0  0  3  0  0  0  0  0  0
  185.3740  179.6760  143.0080 C   0  0  0  0  0  2  0  0  0  0  0  0
  188.1200  178.0870  144.3530 O   0  0  0  0  0  0  0  0  0  0  0  0
  186.7710  178.2530  139.9040 C   0  0  0  0  0  2  0  0  0  0  0  0
  185.4020  179.0680  141.6210 C   0  0  0  0  0  2  0  0  0  0  0  0
  192.1250  178.0060  142.2230 C   0  0  0  0  0  2  0  0  0  0  0  0
  191.6490  176.5570  142.2260 C   0  0  1  0  0  3  0  0  0  0  0  0
  186.7850  178.7760  141.2690 N   0  0  1  0  0  0  0  0  0  0  0  0
  189.1440  177.5870  143.6000 N   0  0  2  0  0  0  0  0  0  0  0  0
  188.9730  176.9950  139.8720 C   0  0  1  0  0  3  0  0  0  0  0  0
  191.6390  177.3980  143.5270 C   0  0  2  0  0  3  0  0  0  0  0  0
  190.4110  178.2320  143.9580 C   0  0  2  0  0  3  0  0  0  0  0  0
  188.1810  178.1830  139.3090 C   0  0  0  0  0  2  0  0  0  0  0  0
  189.4910  175.6250  137.8460 C   0  0  0  0  0  3  0  0  0  0  0  0
  189.9430  176.4910  138.8490 C   0  0  0  0  0  0  0  0  0  0  0  0
  191.2970  176.8640  138.8850 C   0  0  0  0  0  3  0  0  0  0  0  0
  193.5550  176.7530  137.9640 N   0  0  0  0  0  1  0  0  0  0  0  0
  191.7280  175.5100  136.9240 C   0  0  0  0  0  3  0  0  0  0  0  0
  192.1850  176.3730  137.9240 C   0  0  0  0  0  0  0  0  0  0  0  0
  190.3810  175.1360  136.8860 C   0  0  0  0  0  3  0  0  0  0  0  0
  190.5170  178.4790  145.4610 C   0  0  0  0  0  2  0  0  0  0  0  0
  190.4210  177.1690  146.2310 C   0  0  0  0  0  0  0  0  0  0  0  0
  191.2520  176.0390  145.6750 C   0  0  0  0  0  2  0  0  0  0  0  0
  191.6800  176.7530  146.9510 C   0  0  0  0  0  2  0  0  0  0  0  0
  189.1240  176.7530  146.9190 C   0  0  0  0  0  2  0  0  0  0  0  0
  188.5380  177.8890  147.7450 C   0  0  0  0  0  2  0  0  0  0  0  0
  187.8480  177.3780  148.8430 O   0  0  0  0  0  1  0  0  0  0  0  0
  185.8680  179.1470  145.2940 O   0  0  0  0  0  0  0  0  0  0  0  0
  185.1480  178.3470  146.2040 C   0  0  0  0  0  0  0  0  0  0  0  0
  185.2520  178.8470  147.4920 F   0  0  0  0  0  0  0  0  0  0  0  0
  183.8120  178.2660  145.8380 F   0  0  0  0  0  0  0  0  0  0  0  0
  185.6810  177.0730  146.1860 F   0  0  0  0  0  0  0  0  0  0  0  0
  1  4  1  0  0  0  0
  1  5  1  0  0  0  0
  2 12  1  0  0  0  0
  3 33  1  0  0  0  0
  4 14  1  0  0  0  0
  5  3  1  0  0  0  0
  5  8  1  0  0  0  0
  6  2  1  0  0  0  0
  6  4  1  0  0  0  0
  7  3  1  0  0  0  0
  9 13  1  0  0  0  0
 10  7  1  0  0  0  0
 11 12  1  0  0  0  0
 11 16  1  0  0  0  0
 12 16  1  0  0  0  0
 13 10  1  0  0  0  0
 13  1  1  0  0  0  0
 14 17  1  0  0  0  0
 14  8  1  0  0  0  0
 15  6  1  0  0  0  0
 16 17  1  0  0  0  0
 17 26  1  0  0  0  0
 18 15  1  0  0  0  0
 18  9  1  0  0  0  0
 19 20  1  0  0  0  0
 20 21  2  0  0  0  0
 20 15  1  0  0  0  0
 23 24  2  0  0  0  0
 24 22  1  0  0  0  0
 24 21  1  0  0  0  0
 25 23  1  0  0  0  0
 25 19  2  0  0  0  0
 26 27  1  0  0  0  0
 27 30  1  0  0  0  0
 27 29  1  0  0  0  0
 28 27  1  0  0  0  0
 28 29  1  0  0  0  0
 30 31  1  0  0  0  0
 31 32  1  0  0  0  0
 33 34  1  0  0  0  0
 34 35  1  0  0  0  0
 36 34  1  0  0  0  0
 37 34  1  0  0  0  0
M  END
>  <MODEL>
6

>  <REMARK>
 VINA RESULT:      -8.3      1.430      2.106
  Name = 
  7 active torsions:
  status: ('A' for Active; 'I' for Inactive)
    1  A    between atoms: C_1  and  C_4
    2  A    between atoms: C_1  and  C_27
    3  A    between atoms: C_2  and  O_22
    4  A    between atoms: C_4  and  C_12
    5  A    between atoms: C_6  and  O_22
    6  A    between atoms: C_8  and  C_12
    7  A    between atoms: C_23  and  C_30
                            x       y       z     vdW  Elec       q    Type
                         _______ _______ _______ _____ _____    ______ ____

>  <TORSDO>
F 7

$$$$
=
 OpenBabel11122411493D

 37 43  0  0  1  0  0  0  0  0999 V2000
  187.5990  178.3480  141.9130 C   0  0  1  0  0  3  0  0  0  0  0  0
  188.9060  178.6580  138.8220 O   0  0  0  0  0  0  0  0  0  0  0  0
  185.4350  178.9540  143.2810 C   0  0  2  0  0  3  0  0  0  0  0  0
  187.4520  177.8160  140.5260 C   0  0  2  0  0  3  0  0  0  0  0  0
  186.2880  179.1390  142.0120 C   0  0  2  0  0  3  0  0  0  0  0  0
  188.7550  177.6130  139.7500 C   0  0  2  0  0  3  0  0  0  0  0  0
  185.6960  177.6410  143.9970 C   0  0  0  0  0  2  0  0  0  0  0  0
  185.5720  178.9500  140.8130 O   0  0  0  0  0  0  0  0  0  0  0  0
  189.1730  176.9500  142.9750 C   0  0  0  0  0  2  0  0  0  0  0  0
  187.1940  177.4560  144.1220 C   0  0  0  0  0  2  0  0  0  0  0  0
  187.6970  176.9750  137.3240 C   0  0  0  0  0  2  0  0  0  0  0  0
  188.4200  178.3040  137.5280 C   0  0  1  0  0  3  0  0  0  0  0  0
  187.7400  177.1850  142.7990 N   0  0  1  0  0  0  0  0  0  0  0  0
  186.5430  178.7420  139.8750 N   0  0  2  0  0  0  0  0  0  0  0  0
  190.0080  177.4380  140.6300 C   0  0  1  0  0  3  0  0  0  0  0  0
  186.8730  178.2470  137.4440 C   0  0  2  0  0  3  0  0  0  0  0  0
  185.9880  178.0680  138.6970 C   0  0  2  0  0  3  0  0  0  0  0  0
  189.8110  176.3660  141.7100 C   0  0  0  0  0  2  0  0  0  0  0  0
  192.4760  177.5020  140.2390 C   0  0  0  0  0  3  0  0  0  0  0  0
  191.2070  177.1140  139.7930 C   0  0  0  0  0  0  0  0  0  0  0  0
  191.0780  176.4380  138.5700 C   0  0  0  0  0  3  0  0  0  0  0  0
  192.0760  175.4690  136.5630 N   0  0  0  0  0  1  0  0  0  0  0  0
  193.4770  176.5420  138.2530 C   0  0  0  0  0  3  0  0  0  0  0  0
  192.2110  176.1540  137.8030 C   0  0  0  0  0  0  0  0  0  0  0  0
  193.6080  177.2160  139.4710 C   0  0  0  0  0  3  0  0  0  0  0  0
  184.5890  178.5780  138.3590 C   0  0  0  0  0  2  0  0  0  0  0  0
  183.5770  177.4420  138.4010 C   0  0  0  0  0  0  0  0  0  0  0  0
  182.9010  177.1380  137.0850 C   0  0  0  0  0  2  0  0  0  0  0  0
  183.9700  176.2020  137.6350 C   0  0  0  0  0  2  0  0  0  0  0  0
  182.7330  177.1830  139.6450 C   0  0  0  0  0  2  0  0  0  0  0  0
  182.1190  178.4680  140.1840 C   0  0  0  0  0  2  0  0  0  0  0  0
  181.3060  178.1880  141.2820 O   0  0  0  0  0  1  0  0  0  0  0  0
  184.0640  179.0890  143.0010 O   0  0  0  0  0  0  0  0  0  0  0  0
  183.3930  179.3640  144.2090 C   0  0  0  0  0  0  0  0  0  0  0  0
  182.6760  178.2590  144.6400 F   0  0  0  0  0  0  0  0  0  0  0  0
  184.2890  179.7550  145.1930 F   0  0  0  0  0  0  0  0  0  0  0  0
  182.5070  180.4010  143.9920 F   0  0  0  0  0  0  0  0  0  0  0  0
  1  5  1  0  0  0  0
  1 13  1  0  0  0  0
  2  6  1  0  0  0  0
  3  7  1  0  0  0  0
  4  1  1  0  0  0  0
  5  3  1  0  0  0  0
  6  4  1  0  0  0  0
  6 15  1  0  0  0  0
  7 10  1  0  0  0  0
  8  5  1  0  0  0  0
 11 16  1  0  0  0  0
 11 12  1  0  0  0  0
 12  2  1  0  0  0  0
 13  9  1  0  0  0  0
 13 10  1  0  0  0  0
 14  4  1  0  0  0  0
 14  8  1  0  0  0  0
 15 18  1  0  0  0  0
 16 12  1  0  0  0  0
 16 17  1  0  0  0  0
 17 14  1  0  0  0  0
 18  9  1  0  0  0  0
 20 19  1  0  0  0  0
 20 15  1  0  0  0  0
 21 20  2  0  0  0  0
 22 24  1  0  0  0  0
 23 25  1  0  0  0  0
 24 23  2  0  0  0  0
 24 21  1  0  0  0  0
 25 19  2  0  0  0  0
 26 27  1  0  0  0  0
 26 17  1  0  0  0  0
 27 30  1  0  0  0  0
 28 29  1  0  0  0  0
 28 27  1  0  0  0  0
 29 27  1  0  0  0  0
 30 31  1  0  0  0  0
 31 32  1  0  0  0  0
 33  3  1  0  0  0  0
 33 34  1  0  0  0  0
 34 35  1  0  0  0  0
 34 36  1  0  0  0  0
 37 34  1  0  0  0  0
M  END
>  <MODEL>
7

>  <REMARK>
 VINA RESULT:      -8.1      2.829      5.848
  Name = 
  7 active torsions:
  status: ('A' for Active; 'I' for Inactive)
    1  A    between atoms: C_1  and  C_4
    2  A    between atoms: C_1  and  C_27
    3  A    between atoms: C_2  and  O_22
    4  A    between atoms: C_4  and  C_12
    5  A    between atoms: C_6  and  O_22
    6  A    between atoms: C_8  and  C_12
    7  A    between atoms: C_23  and  C_30
                            x       y       z     vdW  Elec       q    Type
                         _______ _______ _______ _____ _____    ______ ____

>  <TORSDO>
F 7

$$$$
=
 OpenBabel11122411493D

 37 43  0  0  1  0  0  0  0  0999 V2000
  187.5610  177.5460  141.2440 C   0  0  1  0  0  3  0  0  0  0  0  0
  190.6190  176.1480  141.4750 O   0  0  0  0  0  0  0  0  0  0  0  0
  185.6250  178.4750  142.7630 C   0  0  2  0  0  3  0  0  0  0  0  0
  188.9750  177.8820  141.5880 C   0  0  2  0  0  3  0  0  0  0  0  0
  186.9340  177.6730  142.6380 C   0  0  2  0  0  3  0  0  0  0  0  0
  190.0470  177.1980  140.7370 C   0  0  2  0  0  3  0  0  0  0  0  0
  185.4230  179.4780  141.6410 C   0  0  0  0  0  2  0  0  0  0  0  0
  187.9410  178.0830  143.5350 O   0  0  0  0  0  0  0  0  0  0  0  0
  187.3600  177.9070  138.9230 C   0  0  0  0  0  2  0  0  0  0  0  0
  185.7010  178.7820  140.3250 C   0  0  0  0  0  2  0  0  0  0  0  0
  192.2490  178.0110  142.1160 C   0  0  0  0  0  2  0  0  0  0  0  0
  191.8160  176.5480  142.1410 C   0  0  1  0  0  3  0  0  0  0  0  0
  187.1300  178.5190  140.2310 N   0  0  1  0  0  0  0  0  0  0  0  0
  189.0900  177.5730  143.0010 N   0  0  2  0  0  0  0  0  0  0  0  0
  189.5680  176.7320  139.3480 C   0  0  1  0  0  3  0  0  0  0  0  0
  191.5650  177.4710  143.3600 C   0  0  2  0  0  3  0  0  0  0  0  0
  190.2610  178.2860  143.5200 C   0  0  2  0  0  3  0  0  0  0  0  0
  188.8520  177.8510  138.5780 C   0  0  0  0  0  2  0  0  0  0  0  0
  191.9080  176.9200  138.4910 C   0  0  0  0  0  3  0  0  0  0  0  0
  190.7090  176.1980  138.5410 C   0  0  0  0  0  0  0  0  0  0  0  0
  190.5950  174.9930  137.8290 C   0  0  0  0  0  3  0  0  0  0  0  0
  191.5530  173.2980  136.3550 N   0  0  0  0  0  1  0  0  0  0  0  0
  192.8680  175.2430  137.0300 C   0  0  0  0  0  3  0  0  0  0  0  0
  191.6730  174.5190  137.0760 C   0  0  0  0  0  0  0  0  0  0  0  0
  192.9840  176.4440  137.7370 C   0  0  0  0  0  3  0  0  0  0  0  0
  190.1050  178.6340  144.9980 C   0  0  0  0  0  2  0  0  0  0  0  0
  189.9920  177.3720  145.8410 C   0  0  0  0  0  0  0  0  0  0  0  0
  190.8880  176.2360  145.4120 C   0  0  0  0  0  2  0  0  0  0  0  0
  191.2120  177.0390  146.6650 C   0  0  0  0  0  2  0  0  0  0  0  0
  188.6640  176.9590  146.4680 C   0  0  0  0  0  2  0  0  0  0  0  0
  188.2020  177.9630  147.5150 C   0  0  0  0  0  2  0  0  0  0  0  0
  187.8510  177.3030  148.6920 O   0  0  0  0  0  1  0  0  0  0  0  0
  185.5350  179.1180  144.0100 O   0  0  0  0  0  0  0  0  0  0  0  0
  184.2100  179.0010  144.4720 C   0  0  0  0  0  0  0  0  0  0  0  0
  184.1810  178.5770  145.7910 F   0  0  0  0  0  0  0  0  0  0  0  0
  183.5370  180.2080  144.3510 F   0  0  0  0  0  0  0  0  0  0  0  0
  183.5560  178.0610  143.6980 F   0  0  0  0  0  0  0  0  0  0  0  0
  1  4  1  0  0  0  0
  1  5  1  0  0  0  0
  2 12  1  0  0  0  0
  3 33  1  0  0  0  0
  4 14  1  0  0  0  0
  5  3  1  0  0  0  0
  5  8  1  0  0  0  0
  6  2  1  0  0  0  0
  6  4  1  0  0  0  0
  7  3  1  0  0  0  0
  9 13  1  0  0  0  0
 10  7  1  0  0  0  0
 11 12  1  0  0  0  0
 11 16  1  0  0  0  0
 12 16  1  0  0  0  0
 13 10  1  0  0  0  0
 13  1  1  0  0  0  0
 14 17  1  0  0  0  0
 14  8  1  0  0  0  0
 15  6  1  0  0  0  0
 16 17  1  0  0  0  0
 17 26  1  0  0  0  0
 18  9  1  0  0  0  0
 18 15  1  0  0  0  0
 19 20  1  0  0  0  0
 20 15  1  0  0  0  0
 21 20  2  0  0  0  0
 22 24  1  0  0  0  0
 23 24  2  0  0  0  0
 23 25  1  0  0  0  0
 24 21  1  0  0  0  0
 25 19  2  0  0  0  0
 26 27  1  0  0  0  0
 27 30  1  0  0  0  0
 27 29  1  0  0  0  0
 28 27  1  0  0  0  0
 28 29  1  0  0  0  0
 30 31  1  0  0  0  0
 31 32  1  0  0  0  0
 33 34  1  0  0  0  0
 34 35  1  0  0  0  0
 36 34  1  0  0  0  0
 37 34  1  0  0  0  0
M  END
>  <MODEL>
8

>  <REMARK>
 VINA RESULT:      -7.8      1.075      1.575
  Name = 
  7 active torsions:
  status: ('A' for Active; 'I' for Inactive)
    1  A    between atoms: C_1  and  C_4
    2  A    between atoms: C_1  and  C_27
    3  A    between atoms: C_2  and  O_22
    4  A    between atoms: C_4  and  C_12
    5  A    between atoms: C_6  and  O_22
    6  A    between atoms: C_8  and  C_12
    7  A    between atoms: C_23  and  C_30
                            x       y       z     vdW  Elec       q    Type
                         _______ _______ _______ _____ _____    ______ ____

>  <TORSDO>
F 7

$$$$
=
 OpenBabel11122411493D

 37 43  0  0  1  0  0  0  0  0999 V2000
  189.9670  177.0080  141.5390 C   0  0  1  0  0  3  0  0  0  0  0  0
  186.9370  177.1850  143.0050 O   0  0  0  0  0  0  0  0  0  0  0  0
  191.0700  176.6220  139.1830 C   0  0  2  0  0  3  0  0  0  0  0  0
  188.7690  177.8950  141.6400 C   0  0  2  0  0  3  0  0  0  0  0  0
  189.8180  176.5630  140.0780 C   0  0  2  0  0  3  0  0  0  0  0  0
  188.1070  177.9630  143.0180 C   0  0  2  0  0  3  0  0  0  0  0  0
  192.1190  177.6040  139.6740 C   0  0  0  0  0  2  0  0  0  0  0  0
  188.6980  177.2200  139.5320 O   0  0  0  0  0  0  0  0  0  0  0  0
  191.4000  177.6600  143.2930 C   0  0  0  0  0  2  0  0  0  0  0  0
  192.3230  177.3790  141.1580 C   0  0  0  0  0  2  0  0  0  0  0  0
  185.9170  179.4360  142.3500 C   0  0  0  0  0  2  0  0  0  0  0  0
  185.7750  177.9650  142.7290 C   0  0  1  0  0  3  0  0  0  0  0  0
  191.1350  177.8360  141.8650 N   0  0  1  0  0  0  0  0  0  0  0  0
  187.8730  177.4160  140.6030 N   0  0  2  0  0  0  0  0  0  0  0  0
  189.0310  177.5960  144.1960 C   0  0  1  0  0  3  0  0  0  0  0  0
  185.6720  178.4170  141.2500 C   0  0  2  0  0  3  0  0  0  0  0  0
  186.9060  178.4820  140.3230 C   0  0  2  0  0  3  0  0  0  0  0  0
  190.3540  178.3730  144.1560 C   0  0  0  0  0  2  0  0  0  0  0  0
  189.0620  177.6600  146.6930 C   0  0  0  0  0  3  0  0  0  0  0  0
  188.3400  177.8190  145.5050 C   0  0  0  0  0  0  0  0  0  0  0  0
  186.9830  178.1750  145.5590 C   0  0  0  0  0  3  0  0  0  0  0  0
  184.9830  178.7300  146.8460 N   0  0  0  0  0  1  0  0  0  0  0  0
  187.0840  178.2110  147.9790 C   0  0  0  0  0  3  0  0  0  0  0  0
  186.3580  178.3700  146.7940 C   0  0  0  0  0  0  0  0  0  0  0  0
  188.4360  177.8560  147.9280 C   0  0  0  0  0  3  0  0  0  0  0  0
  186.4110  178.4340  138.8790 C   0  0  0  0  0  2  0  0  0  0  0  0
  184.8950  178.5430  138.8260 C   0  0  0  0  0  0  0  0  0  0  0  0
  184.2350  177.7540  137.7210 C   0  0  0  0  0  2  0  0  0  0  0  0
  184.1460  177.2770  139.1650 C   0  0  0  0  0  2  0  0  0  0  0  0
  184.1830  179.8320  139.2250 C   0  0  0  0  0  2  0  0  0  0  0  0
  182.6900  179.7610  138.9360 C   0  0  0  0  0  2  0  0  0  0  0  0
  182.2340  180.9890  138.4590 O   0  0  0  0  0  1  0  0  0  0  0  0
  190.7330  176.9020  137.8470 O   0  0  0  0  0  0  0  0  0  0  0  0
  191.2960  175.9020  137.0310 C   0  0  0  0  0  0  0  0  0  0  0  0
  191.5190  174.7400  137.7530 F   0  0  0  0  0  0  0  0  0  0  0  0
  190.4730  175.6300  135.9470 F   0  0  0  0  0  0  0  0  0  0  0  0
  192.5090  176.3570  136.5510 F   0  0  0  0  0  0  0  0  0  0  0  0
  1  4  1  0  0  0  0
  1 13  1  0  0  0  0
  2  6  1  0  0  0  0
  3  7  1  0  0  0  0
  3  5  1  0  0  0  0
  4  6  1  0  0  0  0
  5  1  1  0  0  0  0
  6 15  1  0  0  0  0
  7 10  1  0  0  0  0
  8  5  1  0  0  0  0
  8 14  1  0  0  0  0
  9 18  1  0  0  0  0
 10 13  1  0  0  0  0
 11 12  1  0  0  0  0
 12  2  1  0  0  0  0
 13  9  1  0  0  0  0
 14  4  1  0  0  0  0
 15 20  1  0  0  0  0
 16 11  1  0  0  0  0
 16 12  1  0  0  0  0
 17 14  1  0  0  0  0
 17 16  1  0  0  0  0
 18 15  1  0  0  0  0
 19 25  1  0  0  0  0
 20 21  1  0  0  0  0
 20 19  2  0  0  0  0
 21 24  2  0  0  0  0
 24 22  1  0  0  0  0
 24 23  1  0  0  0  0
 25 23  2  0  0  0  0
 26 17  1  0  0  0  0
 27 26  1  0  0  0  0
 27 29  1  0  0  0  0
 27 30  1  0  0  0  0
 28 27  1  0  0  0  0
 28 29  1  0  0  0  0
 31 30  1  0  0  0  0
 32 31  1  0  0  0  0
 33  3  1  0  0  0  0
 34 35  1  0  0  0  0
 34 33  1  0  0  0  0
 36 34  1  0  0  0  0
 37 34  1  0  0  0  0
M  END
>  <MODEL>
9

>  <REMARK>
 VINA RESULT:      -7.7      4.018      8.582
  Name = 
  7 active torsions:
  status: ('A' for Active; 'I' for Inactive)
    1  A    between atoms: C_1  and  C_4
    2  A    between atoms: C_1  and  C_27
    3  A    between atoms: C_2  and  O_22
    4  A    between atoms: C_4  and  C_12
    5  A    between atoms: C_6  and  O_22
    6  A    between atoms: C_8  and  C_12
    7  A    between atoms: C_23  and  C_30
                            x       y       z     vdW  Elec       q    Type
                         _______ _______ _______ _____ _____    ______ ____

>  <TORSDO>
F 7

$$$$
