=
 OpenBabel11122411203D

 31 35  0  0  1  0  0  0  0  0999 V2000
  192.7380  174.5580  135.7500 C   0  0  0  0  0  0  0  0  0  0  0  0
  189.9300  176.9230  136.7600 C   0  0  2  0  0  3  0  0  0  0  0  0
  188.6170  176.1660  136.6520 C   0  0  0  0  0  0  0  0  0  0  0  0
  190.5650  176.0930  141.9640 O   0  0  0  0  0  0  0  0  0  0  0  0
  189.9370  177.1760  141.8050 C   0  0  0  0  0  0  0  0  0  0  0  0
  187.2950  174.3400  135.7390 C   0  0  0  0  0  0  0  0  0  0  0  0
  191.1150  175.9960  136.8320 C   0  0  0  0  0  0  0  0  0  0  0  0
  193.2100  174.1490  137.0020 C   0  0  0  0  0  3  0  0  0  0  0  0
  188.5110  175.0200  135.8490 C   0  0  0  0  0  3  0  0  0  0  0  0
  190.2440  177.1840  139.2700 C   0  0  0  0  0  0  0  0  0  0  0  0
  193.3070  174.0460  134.5940 O   0  0  0  0  0  1  0  0  0  0  0  0
  187.5230  177.8170  138.0740 O   0  0  0  0  0  0  0  0  0  0  0  0
  187.2060  173.1710  134.9330 N   0  0  0  0  0  1  0  0  0  0  0  0
  191.0480  176.1580  139.2840 N   0  0  0  0  0  0  0  0  0  0  0  0
  189.9480  177.8970  137.9630 C   0  0  2  0  0  3  0  0  0  0  0  0
  189.7500  177.7340  140.5000 N   0  0  0  0  0  2  0  0  0  0  0  0
  191.6870  175.4770  135.6650 C   0  0  0  0  0  3  0  0  0  0  0  0
  186.1700  174.8060  136.4210 C   0  0  0  0  0  3  0  0  0  0  0  0
  191.6000  175.5940  138.0890 C   0  0  0  0  0  0  0  0  0  0  0  0
  192.6430  174.6660  138.1700 C   0  0  0  0  0  3  0  0  0  0  0  0
  188.6450  178.6950  138.0150 C   0  0  0  0  0  2  0  0  0  0  0  0
  187.4650  176.6520  137.3060 C   0  0  0  0  0  0  0  0  0  0  0  0
  186.2540  175.9600  137.2010 C   0  0  0  0  0  3  0  0  0  0  0  0
  190.9530  177.3370  145.3900 C   0  0  0  0  0  0  0  0  0  0  0  0
  190.3660  178.9180  143.5600 C   0  0  0  0  0  2  0  0  0  0  0  0
  187.7890  176.3610  143.9060 O   0  0  0  0  0  0  0  0  0  0  0  0
  191.6270  177.1080  146.4270 O   0  0  0  0  0  0  0  0  0  0  0  0
  191.5010  178.2460  144.3340 C   0  0  0  0  0  2  0  0  0  0  0  0
  188.8940  176.9480  144.0460 C   0  0  0  0  0  0  0  0  0  0  0  0
  189.3730  177.9010  142.9880 C   0  0  2  0  0  3  0  0  0  0  0  0
  189.6960  176.6840  145.2000 N   0  0  0  0  0  2  0  0  0  0  0  0
  1  8  1  0  0  0  0
  2  3  1  1  0  0  0
  2  7  1  0  0  0  0
  2 15  1  0  0  0  0
  3 22  1  0  0  0  0
  5  4  2  0  0  0  0
  6  9  1  0  0  0  0
  6 18  2  0  0  0  0
  7 19  2  0  0  0  0
  8 20  2  0  0  0  0
  9  3  2  0  0  0  0
 10 14  2  0  0  0  0
 10 16  1  0  0  0  0
 11  1  1  0  0  0  0
 13  6  1  0  0  0  0
 15 21  1  1  0  0  0
 15 10  1  0  0  0  0
 16  5  1  0  0  0  0
 17  1  2  0  0  0  0
 17  7  1  0  0  0  0
 18 23  1  0  0  0  0
 19 20  1  0  0  0  0
 19 14  1  0  0  0  0
 21 12  1  0  0  0  0
 22 12  1  0  0  0  0
 23 22  2  0  0  0  0
 24 27  2  0  0  0  0
 25 28  1  0  0  0  0
 26 29  2  0  0  0  0
 28 24  1  0  0  0  0
 29 31  1  0  0  0  0
 30  5  1  6  0  0  0
 30 25  1  0  0  0  0
 30 29  1  0  0  0  0
 31 24  1  0  0  0  0
M  END
>  <MODEL>
1

>  <REMARK>
 VINA RESULT:      -8.1      0.000      0.000
  Name = 
  1 active torsions:
  status: ('A' for Active; 'I' for Inactive)
    1  A    between atoms: C_5  and  C_30
                            x       y       z     vdW  Elec       q    Type
                         _______ _______ _______ _____ _____    ______ ____

>  <TORSDO>
F 1

$$$$
=
 OpenBabel11122411203D

 31 35  0  0  1  0  0  0  0  0999 V2000
  181.2120  178.6330  143.2990 C   0  0  0  0  0  0  0  0  0  0  0  0
  181.2800  178.0920  139.5310 C   0  0  2  0  0  3  0  0  0  0  0  0
  180.9040  179.4030  138.8620 C   0  0  0  0  0  0  0  0  0  0  0  0
  186.5240  178.8050  139.1220 O   0  0  0  0  0  0  0  0  0  0  0  0
  186.1240  178.1850  138.0990 C   0  0  0  0  0  0  0  0  0  0  0  0
  179.8350  181.5870  138.9350 C   0  0  0  0  0  0  0  0  0  0  0  0
  181.7260  178.2900  140.9560 C   0  0  0  0  0  0  0  0  0  0  0  0
  182.5720  178.8210  143.5700 C   0  0  0  0  0  3  0  0  0  0  0  0
  180.1960  180.3920  139.5630 C   0  0  0  0  0  3  0  0  0  0  0  0
  183.7580  177.8640  139.0060 C   0  0  0  0  0  0  0  0  0  0  0  0
  180.2840  178.7120  144.3270 O   0  0  0  0  0  1  0  0  0  0  0  0
  181.8620  178.6290  136.7570 O   0  0  0  0  0  0  0  0  0  0  0  0
  179.1300  182.5860  139.6620 N   0  0  0  0  0  1  0  0  0  0  0  0
  184.0590  178.3380  140.1830 N   0  0  0  0  0  0  0  0  0  0  0  0
  182.3650  177.3220  138.7410 C   0  0  2  0  0  3  0  0  0  0  0  0
  184.7740  177.7200  138.0030 N   0  0  0  0  0  2  0  0  0  0  0  0
  180.7890  178.3730  141.9920 C   0  0  0  0  0  3  0  0  0  0  0  0
  180.1680  181.8010  137.5970 C   0  0  0  0  0  3  0  0  0  0  0  0
  183.0930  178.4660  141.2320 C   0  0  0  0  0  0  0  0  0  0  0  0
  183.5110  178.7380  142.5390 C   0  0  0  0  0  3  0  0  0  0  0  0
  182.0200  177.3010  137.2520 C   0  0  0  0  0  2  0  0  0  0  0  0
  181.2020  179.6130  137.4980 C   0  0  0  0  0  0  0  0  0  0  0  0
  180.8490  180.8160  136.8790 C   0  0  0  0  0  3  0  0  0  0  0  0
  189.1820  176.0730  137.7820 C   0  0  0  0  0  0  0  0  0  0  0  0
  187.0550  176.4470  136.5460 C   0  0  0  0  0  2  0  0  0  0  0  0
  188.7280  179.6240  137.1850 O   0  0  0  0  0  0  0  0  0  0  0  0
  190.0930  175.2760  138.1200 O   0  0  0  0  0  0  0  0  0  0  0  0
  187.7950  175.5600  137.5480 C   0  0  0  0  0  2  0  0  0  0  0  0
  188.4530  178.3980  137.2690 C   0  0  0  0  0  0  0  0  0  0  0  0
  187.0610  177.9220  136.9620 C   0  0  2  0  0  3  0  0  0  0  0  0
  189.4620  177.4710  137.6800 N   0  0  0  0  0  2  0  0  0  0  0  0
  1  8  1  0  0  0  0
  1 11  1  0  0  0  0
  2  3  1  6  0  0  0
  2  7  1  0  0  0  0
  3  9  1  0  0  0  0
  5  4  2  0  0  0  0
  6  9  2  0  0  0  0
  6 13  1  0  0  0  0
  7 19  2  0  0  0  0
  7 17  1  0  0  0  0
 10 14  2  0  0  0  0
 12 21  1  0  0  0  0
 12 22  1  0  0  0  0
 14 19  1  0  0  0  0
 15 21  1  6  0  0  0
 15 10  1  0  0  0  0
 15  2  1  0  0  0  0
 16  5  1  0  0  0  0
 16 10  1  0  0  0  0
 17  1  2  0  0  0  0
 18  6  1  0  0  0  0
 19 20  1  0  0  0  0
 20  8  2  0  0  0  0
 22  3  2  0  0  0  0
 23 22  1  0  0  0  0
 23 18  2  0  0  0  0
 24 27  2  0  0  0  0
 25 30  1  0  0  0  0
 25 28  1  0  0  0  0
 26 29  2  0  0  0  0
 28 24  1  0  0  0  0
 29 31  1  0  0  0  0
 30 29  1  0  0  0  0
 30  5  1  1  0  0  0
 31 24  1  0  0  0  0
M  END
>  <MODEL>
2

>  <REMARK>
 VINA RESULT:      -7.6      5.791      9.355
  Name = 
  1 active torsions:
  status: ('A' for Active; 'I' for Inactive)
    1  A    between atoms: C_5  and  C_30
                            x       y       z     vdW  Elec       q    Type
                         _______ _______ _______ _____ _____    ______ ____

>  <TORSDO>
F 1

$$$$
=
 OpenBabel11122411203D

 31 35  0  0  1  0  0  0  0  0999 V2000
  192.4120  176.6230  138.3390 C   0  0  0  0  0  0  0  0  0  0  0  0
  189.0720  177.1980  136.6030 C   0  0  2  0  0  3  0  0  0  0  0  0
  188.4350  175.8410  136.3500 C   0  0  0  0  0  0  0  0  0  0  0  0
  186.4410  178.1520  141.1140 O   0  0  0  0  0  0  0  0  0  0  0  0
  185.7750  178.6280  140.1550 C   0  0  0  0  0  0  0  0  0  0  0  0
  188.6260  173.4330  136.0670 C   0  0  0  0  0  0  0  0  0  0  0  0
  190.1410  177.1330  137.6620 C   0  0  0  0  0  0  0  0  0  0  0  0
  192.0680  176.8630  139.6730 C   0  0  0  0  0  3  0  0  0  0  0  0
  189.2150  174.6740  136.3210 C   0  0  0  0  0  3  0  0  0  0  0  0
  187.6120  178.1890  138.4350 C   0  0  0  0  0  0  0  0  0  0  0  0
  193.7070  176.2490  138.0130 O   0  0  0  0  0  1  0  0  0  0  0  0
  186.2590  176.8960  136.0400 O   0  0  0  0  0  0  0  0  0  0  0  0
  189.4260  172.2570  136.0550 N   0  0  0  0  0  1  0  0  0  0  0  0
  188.4780  177.8200  139.3360 N   0  0  0  0  0  0  0  0  0  0  0  0
  188.0250  178.2750  136.9770 C   0  0  2  0  0  3  0  0  0  0  0  0
  186.3110  178.6520  138.8270 N   0  0  0  0  0  2  0  0  0  0  0  0
  191.4480  176.7530  137.3340 C   0  0  0  0  0  3  0  0  0  0  0  0
  187.2540  173.3460  135.8280 C   0  0  0  0  0  3  0  0  0  0  0  0
  189.8020  177.3870  139.0020 C   0  0  0  0  0  0  0  0  0  0  0  0
  190.7650  177.2450  140.0050 C   0  0  0  0  0  3  0  0  0  0  0  0
  186.8310  178.2020  136.0260 C   0  0  0  0  0  2  0  0  0  0  0  0
  187.0550  175.7490  136.0680 C   0  0  0  0  0  0  0  0  0  0  0  0
  186.4700  174.5020  135.8270 C   0  0  0  0  0  3  0  0  0  0  0  0
  182.4170  177.7040  138.8190 C   0  0  0  0  0  0  0  0  0  0  0  0
  183.4720  178.1450  141.0290 C   0  0  0  0  0  2  0  0  0  0  0  0
  184.1740  180.8780  138.7190 O   0  0  0  0  0  0  0  0  0  0  0  0
  181.5550  177.0740  138.1550 O   0  0  0  0  0  0  0  0  0  0  0  0
  183.0260  177.0740  140.0330 C   0  0  0  0  0  2  0  0  0  0  0  0
  183.8100  179.7440  139.1280 C   0  0  0  0  0  0  0  0  0  0  0  0
  184.4030  179.1810  140.3890 C   0  0  2  0  0  3  0  0  0  0  0  0
  182.8530  178.9920  138.3780 N   0  0  0  0  0  2  0  0  0  0  0  0
  1  8  1  0  0  0  0
  2  3  1  1  0  0  0
  2 15  1  0  0  0  0
  2  7  1  0  0  0  0
  5  4  2  0  0  0  0
  6  9  2  0  0  0  0
  7 19  2  0  0  0  0
  8 20  2  0  0  0  0
  9  3  1  0  0  0  0
 10 16  1  0  0  0  0
 10 14  2  0  0  0  0
 11  1  1  0  0  0  0
 12 22  1  0  0  0  0
 13  6  1  0  0  0  0
 15 21  1  6  0  0  0
 15 10  1  0  0  0  0
 16  5  1  0  0  0  0
 17  7  1  0  0  0  0
 17  1  2  0  0  0  0
 18  6  1  0  0  0  0
 19 14  1  0  0  0  0
 19 20  1  0  0  0  0
 21 12  1  0  0  0  0
 22  3  2  0  0  0  0
 23 18  2  0  0  0  0
 23 22  1  0  0  0  0
 24 28  1  0  0  0  0
 26 29  2  0  0  0  0
 27 24  2  0  0  0  0
 28 25  1  0  0  0  0
 29 30  1  0  0  0  0
 30  5  1  6  0  0  0
 30 25  1  0  0  0  0
 31 24  1  0  0  0  0
 31 29  1  0  0  0  0
M  END
>  <MODEL>
3

>  <REMARK>
 VINA RESULT:      -7.1      3.221      5.305
  Name = 
  1 active torsions:
  status: ('A' for Active; 'I' for Inactive)
    1  A    between atoms: C_5  and  C_30
                            x       y       z     vdW  Elec       q    Type
                         _______ _______ _______ _____ _____    ______ ____

>  <TORSDO>
F 1

$$$$
=
 OpenBabel11122411203D

 31 35  0  0  1  0  0  0  0  0999 V2000
  192.4240  173.6500  135.5860 C   0  0  0  0  0  0  0  0  0  0  0  0
  189.2930  175.7570  136.0890 C   0  0  2  0  0  3  0  0  0  0  0  0
  188.1310  174.8140  136.3570 C   0  0  0  0  0  0  0  0  0  0  0  0
  190.3120  176.7660  141.2000 O   0  0  0  0  0  0  0  0  0  0  0  0
  189.4950  177.6290  140.7760 C   0  0  0  0  0  0  0  0  0  0  0  0
  187.1110  172.6110  136.1980 C   0  0  0  0  0  0  0  0  0  0  0  0
  190.6250  175.0950  136.3250 C   0  0  0  0  0  0  0  0  0  0  0  0
  193.0200  173.7460  136.8470 C   0  0  0  0  0  3  0  0  0  0  0  0
  188.1910  173.4680  135.9660 C   0  0  0  0  0  3  0  0  0  0  0  0
  189.6750  176.8620  138.3470 C   0  0  0  0  0  0  0  0  0  0  0  0
  193.0190  172.8830  134.5940 O   0  0  0  0  0  1  0  0  0  0  0  0
  186.8310  176.6500  137.2970 O   0  0  0  0  0  0  0  0  0  0  0  0
  187.1920  171.2460  135.8090 N   0  0  0  0  0  1  0  0  0  0  0  0
  190.6470  176.0310  138.5980 N   0  0  0  0  0  0  0  0  0  0  0  0
  189.1950  177.0580  136.9200 C   0  0  2  0  0  3  0  0  0  0  0  0
  189.1500  177.6990  139.3890 N   0  0  0  0  0  2  0  0  0  0  0  0
  191.2240  174.3200  135.3260 C   0  0  0  0  0  3  0  0  0  0  0  0
  185.9550  173.0960  136.8110 C   0  0  0  0  0  3  0  0  0  0  0  0
  191.2330  175.2020  137.5880 C   0  0  0  0  0  0  0  0  0  0  0  0
  192.4270  174.5210  137.8470 C   0  0  0  0  0  3  0  0  0  0  0  0
  187.7750  177.6220  136.8540 C   0  0  0  0  0  2  0  0  0  0  0  0
  186.9430  175.3040  136.9410 C   0  0  0  0  0  0  0  0  0  0  0  0
  185.8710  174.4400  137.1810 C   0  0  0  0  0  3  0  0  0  0  0  0
  187.4460  177.1900  143.8620 C   0  0  0  0  0  0  0  0  0  0  0  0
  189.4480  178.4780  143.1380 C   0  0  0  0  0  2  0  0  0  0  0  0
  186.6950  178.9900  140.8010 O   0  0  0  0  0  0  0  0  0  0  0  0
  186.8370  176.5960  144.7880 O   0  0  0  0  0  0  0  0  0  0  0  0
  188.9420  177.2300  143.8620 C   0  0  0  0  0  2  0  0  0  0  0  0
  187.3700  178.4820  141.7350 C   0  0  0  0  0  0  0  0  0  0  0  0
  188.8680  178.6040  141.7250 C   0  0  2  0  0  3  0  0  0  0  0  0
  186.7080  177.7740  142.7860 N   0  0  0  0  0  2  0  0  0  0  0  0
  1  8  1  0  0  0  0
  2  7  1  1  0  0  0
  2  3  1  0  0  0  0
  2 15  1  0  0  0  0
  3 22  1  0  0  0  0
  5  4  2  0  0  0  0
  6 18  2  0  0  0  0
  7 19  2  0  0  0  0
  8 20  2  0  0  0  0
  9  6  1  0  0  0  0
  9  3  2  0  0  0  0
 10 14  2  0  0  0  0
 10 16  1  0  0  0  0
 11  1  1  0  0  0  0
 13  6  1  0  0  0  0
 15 21  1  1  0  0  0
 15 10  1  0  0  0  0
 16  5  1  0  0  0  0
 17  1  2  0  0  0  0
 17  7  1  0  0  0  0
 18 23  1  0  0  0  0
 19 20  1  0  0  0  0
 19 14  1  0  0  0  0
 21 12  1  0  0  0  0
 22 23  2  0  0  0  0
 22 12  1  0  0  0  0
 24 28  1  0  0  0  0
 24 27  2  0  0  0  0
 25 28  1  0  0  0  0
 26 29  2  0  0  0  0
 29 31  1  0  0  0  0
 30  5  1  6  0  0  0
 30 29  1  0  0  0  0
 30 25  1  0  0  0  0
 31 24  1  0  0  0  0
M  END
>  <MODEL>
4

>  <REMARK>
 VINA RESULT:      -6.9      1.679      2.113
  Name = 
  1 active torsions:
  status: ('A' for Active; 'I' for Inactive)
    1  A    between atoms: C_5  and  C_30
                            x       y       z     vdW  Elec       q    Type
                         _______ _______ _______ _____ _____    ______ ____

>  <TORSDO>
F 1

$$$$
=
 OpenBabel11122411203D

 31 35  0  0  1  0  0  0  0  0999 V2000
  179.8220  178.0500  141.9070 C   0  0  0  0  0  0  0  0  0  0  0  0
  183.1050  179.0450  140.2560 C   0  0  2  0  0  3  0  0  0  0  0  0
  184.2310  178.7480  141.2330 C   0  0  0  0  0  0  0  0  0  0  0  0
  183.5800  174.5030  137.5500 O   0  0  0  0  0  0  0  0  0  0  0  0
  184.3070  175.3740  136.9990 C   0  0  0  0  0  0  0  0  0  0  0  0
  185.0190  178.3760  143.5040 C   0  0  0  0  0  0  0  0  0  0  0  0
  181.8460  178.2920  140.5970 C   0  0  0  0  0  0  0  0  0  0  0  0
  179.5970  176.7960  141.3290 C   0  0  0  0  0  3  0  0  0  0  0  0
  183.9770  178.6280  142.6080 C   0  0  0  0  0  3  0  0  0  0  0  0
  183.4240  177.2790  138.4530 C   0  0  0  0  0  0  0  0  0  0  0  0
  178.9310  178.5500  142.8450 O   0  0  0  0  0  1  0  0  0  0  0  0
  185.8570  178.8260  139.4180 O   0  0  0  0  0  0  0  0  0  0  0  0
  184.7450  178.2420  144.8930 N   0  0  0  0  0  1  0  0  0  0  0  0
  182.5030  176.5390  139.0030 N   0  0  0  0  0  0  0  0  0  0  0  0
  183.5110  178.7570  138.7910 C   0  0  2  0  0  3  0  0  0  0  0  0
  184.2660  176.7410  137.4230 N   0  0  0  0  0  2  0  0  0  0  0  0
  180.9480  178.7950  141.5450 C   0  0  0  0  0  3  0  0  0  0  0  0
  186.3280  178.2530  143.0350 C   0  0  0  0  0  3  0  0  0  0  0  0
  181.6110  177.0380  140.0070 C   0  0  0  0  0  0  0  0  0  0  0  0
  180.4900  176.2900  140.3800 C   0  0  0  0  0  3  0  0  0  0  0  0
  184.8940  179.3420  138.5010 C   0  0  0  0  0  2  0  0  0  0  0  0
  185.5620  178.6620  140.7730 C   0  0  0  0  0  0  0  0  0  0  0  0
  186.5990  178.3970  141.6730 C   0  0  0  0  0  3  0  0  0  0  0  0
  188.0030  174.9010  136.8320 C   0  0  0  0  0  0  0  0  0  0  0  0
  185.9470  173.6660  136.1670 C   0  0  0  0  0  2  0  0  0  0  0  0
  185.8420  177.0840  134.9000 O   0  0  0  0  0  0  0  0  0  0  0  0
  189.1960  174.8520  137.2270 O   0  0  0  0  0  0  0  0  0  0  0  0
  187.0470  173.8150  137.2190 C   0  0  0  0  0  2  0  0  0  0  0  0
  186.2110  176.0880  135.5760 C   0  0  0  0  0  0  0  0  0  0  0  0
  185.2310  174.9910  135.8850 C   0  0  2  0  0  3  0  0  0  0  0  0
  187.5530  176.0200  136.0650 N   0  0  0  0  0  2  0  0  0  0  0  0
  1 11  1  0  0  0  0
  2  7  1  1  0  0  0
  2  3  1  0  0  0  0
  3  9  1  0  0  0  0
  5 16  1  0  0  0  0
  5  4  2  0  0  0  0
  6 13  1  0  0  0  0
  7 17  2  0  0  0  0
  8  1  2  0  0  0  0
  9  6  2  0  0  0  0
 10 15  1  0  0  0  0
 10 14  2  0  0  0  0
 12 22  1  0  0  0  0
 14 19  1  0  0  0  0
 15 21  1  1  0  0  0
 15  2  1  0  0  0  0
 16 10  1  0  0  0  0
 17  1  1  0  0  0  0
 18  6  1  0  0  0  0
 19 20  2  0  0  0  0
 19  7  1  0  0  0  0
 20  8  1  0  0  0  0
 21 12  1  0  0  0  0
 22  3  2  0  0  0  0
 22 23  1  0  0  0  0
 23 18  2  0  0  0  0
 24 28  1  0  0  0  0
 24 27  2  0  0  0  0
 25 28  1  0  0  0  0
 26 29  2  0  0  0  0
 29 30  1  0  0  0  0
 29 31  1  0  0  0  0
 30 25  1  0  0  0  0
 30  5  1  1  0  0  0
 31 24  1  0  0  0  0
M  END
>  <MODEL>
5

>  <REMARK>
 VINA RESULT:      -6.8      4.913      9.524
  Name = 
  1 active torsions:
  status: ('A' for Active; 'I' for Inactive)
    1  A    between atoms: C_5  and  C_30
                            x       y       z     vdW  Elec       q    Type
                         _______ _______ _______ _____ _____    ______ ____

>  <TORSDO>
F 1

$$$$
=
 OpenBabel11122411203D

 31 35  0  0  1  0  0  0  0  0999 V2000
  183.5180  178.9690  143.1610 C   0  0  0  0  0  0  0  0  0  0  0  0
  182.6590  177.7350  139.6630 C   0  0  2  0  0  3  0  0  0  0  0  0
  181.8770  178.8310  138.9580 C   0  0  0  0  0  0  0  0  0  0  0  0
  187.3660  179.0720  137.6050 O   0  0  0  0  0  0  0  0  0  0  0  0
  186.8260  178.2200  136.8480 C   0  0  0  0  0  0  0  0  0  0  0  0
  180.4800  180.8210  139.0360 C   0  0  0  0  0  0  0  0  0  0  0  0
  183.4300  178.2610  140.8460 C   0  0  0  0  0  0  0  0  0  0  0  0
  184.8400  179.3910  142.9830 C   0  0  0  0  0  3  0  0  0  0  0  0
  181.2140  179.8280  139.6910 C   0  0  0  0  0  3  0  0  0  0  0  0
  184.8990  177.7550  138.4580 C   0  0  0  0  0  0  0  0  0  0  0  0
  182.9050  179.1140  144.3980 O   0  0  0  0  0  1  0  0  0  0  0  0
  182.3550  177.8100  136.7960 O   0  0  0  0  0  0  0  0  0  0  0  0
  179.8260  181.8330  139.7910 N   0  0  0  0  0  1  0  0  0  0  0  0
  185.4140  178.4800  139.4110 N   0  0  0  0  0  0  0  0  0  0  0  0
  183.6130  176.9860  138.7030 C   0  0  2  0  0  3  0  0  0  0  0  0
  185.6120  177.5630  137.2280 N   0  0  0  0  0  2  0  0  0  0  0  0
  182.8110  178.4090  142.0920 C   0  0  0  0  0  3  0  0  0  0  0  0
  180.3910  180.8200  137.6440 C   0  0  0  0  0  3  0  0  0  0  0  0
  184.7630  178.6730  140.6720 C   0  0  0  0  0  0  0  0  0  0  0  0
  185.4620  179.2430  141.7400 C   0  0  0  0  0  3  0  0  0  0  0  0
  182.8860  176.6350  137.4040 C   0  0  0  0  0  2  0  0  0  0  0  0
  181.7490  178.8160  137.5530 C   0  0  0  0  0  0  0  0  0  0  0  0
  181.0230  179.8190  136.9030 C   0  0  0  0  0  3  0  0  0  0  0  0
  187.5590  174.9700  135.1710 C   0  0  0  0  0  0  0  0  0  0  0  0
  186.4730  177.1380  134.6110 C   0  0  0  0  0  2  0  0  0  0  0  0
  189.7840  177.7050  136.0300 O   0  0  0  0  0  0  0  0  0  0  0  0
  187.6050  173.7250  135.0010 O   0  0  0  0  0  0  0  0  0  0  0  0
  186.2510  175.6890  135.0450 C   0  0  0  0  0  2  0  0  0  0  0  0
  188.7260  177.1020  135.7090 C   0  0  0  0  0  0  0  0  0  0  0  0
  187.4510  177.8760  135.5320 C   0  0  2  0  0  3  0  0  0  0  0  0
  188.7420  175.6820  135.5380 N   0  0  0  0  0  2  0  0  0  0  0  0
  1 11  1  0  0  0  0
  2  3  1  6  0  0  0
  2  7  1  0  0  0  0
  3  9  1  0  0  0  0
  5 16  1  0  0  0  0
  5  4  2  0  0  0  0
  6  9  2  0  0  0  0
  6 13  1  0  0  0  0
  7 17  1  0  0  0  0
  8  1  1  0  0  0  0
 10 15  1  0  0  0  0
 10 14  2  0  0  0  0
 12 21  1  0  0  0  0
 12 22  1  0  0  0  0
 14 19  1  0  0  0  0
 15 21  1  6  0  0  0
 15  2  1  0  0  0  0
 16 10  1  0  0  0  0
 17  1  2  0  0  0  0
 18  6  1  0  0  0  0
 19  7  2  0  0  0  0
 19 20  1  0  0  0  0
 20  8  2  0  0  0  0
 22  3  2  0  0  0  0
 23 22  1  0  0  0  0
 23 18  2  0  0  0  0
 24 31  1  0  0  0  0
 25 28  1  0  0  0  0
 25 30  1  0  0  0  0
 27 24  2  0  0  0  0
 28 24  1  0  0  0  0
 29 26  2  0  0  0  0
 30 29  1  0  0  0  0
 30  5  1  1  0  0  0
 31 29  1  0  0  0  0
M  END
>  <MODEL>
6

>  <REMARK>
 VINA RESULT:      -6.6      4.995      9.088
  Name = 
  1 active torsions:
  status: ('A' for Active; 'I' for Inactive)
    1  A    between atoms: C_5  and  C_30
                            x       y       z     vdW  Elec       q    Type
                         _______ _______ _______ _____ _____    ______ ____

>  <TORSDO>
F 1

$$$$
=
 OpenBabel11122411203D

 31 35  0  0  1  0  0  0  0  0999 V2000
  179.7150  178.9840  142.6730 C   0  0  0  0  0  0  0  0  0  0  0  0
  183.0860  179.3340  140.9370 C   0  0  2  0  0  3  0  0  0  0  0  0
  184.1670  178.9270  141.9240 C   0  0  0  0  0  0  0  0  0  0  0  0
  182.7900  174.6070  138.5400 O   0  0  0  0  0  0  0  0  0  0  0  0
  183.6360  175.3130  137.9280 C   0  0  0  0  0  0  0  0  0  0  0  0
  184.9260  178.5840  144.2100 C   0  0  0  0  0  0  0  0  0  0  0  0
  181.7290  178.8150  141.3360 C   0  0  0  0  0  0  0  0  0  0  0  0
  179.2850  177.7460  142.1830 C   0  0  0  0  0  3  0  0  0  0  0  0
  183.9210  178.9390  143.3060 C   0  0  0  0  0  3  0  0  0  0  0  0
  183.0900  177.4260  139.2550 C   0  0  0  0  0  0  0  0  0  0  0  0
  178.9310  179.6800  143.5810 O   0  0  0  0  0  1  0  0  0  0  0  0
  185.7530  178.6260  140.0970 O   0  0  0  0  0  0  0  0  0  0  0  0
  184.6580  178.5870  145.6060 N   0  0  0  0  0  1  0  0  0  0  0  0
  182.0730  176.8800  139.8600 N   0  0  0  0  0  0  0  0  0  0  0  0
  183.4160  178.8900  139.4910 C   0  0  2  0  0  3  0  0  0  0  0  0
  183.8180  176.6940  138.2580 N   0  0  0  0  0  2  0  0  0  0  0  0
  180.9390  179.5160  142.2540 C   0  0  0  0  0  3  0  0  0  0  0  0
  186.1900  178.2240  143.7420 C   0  0  0  0  0  3  0  0  0  0  0  0
  181.2890  177.5780  140.8340 C   0  0  0  0  0  0  0  0  0  0  0  0
  180.0710  177.0440  141.2640 C   0  0  0  0  0  3  0  0  0  0  0  0
  184.8680  179.2270  139.1540 C   0  0  0  0  0  2  0  0  0  0  0  0
  185.4600  178.6010  141.4630 C   0  0  0  0  0  0  0  0  0  0  0  0
  186.4570  178.2340  142.3710 C   0  0  0  0  0  3  0  0  0  0  0  0
  183.1300  172.3770  135.6840 C   0  0  0  0  0  0  0  0  0  0  0  0
  183.7570  174.7760  135.4790 C   0  0  0  0  0  2  0  0  0  0  0  0
  185.8480  173.1250  137.9690 O   0  0  0  0  0  0  0  0  0  0  0  0
  182.5630  171.3760  135.1770 O   0  0  0  0  0  0  0  0  0  0  0  0
  182.6270  173.7530  135.3720 C   0  0  0  0  0  2  0  0  0  0  0  0
  184.8960  173.3150  137.1680 C   0  0  0  0  0  0  0  0  0  0  0  0
  184.4680  174.7160  136.8360 C   0  0  2  0  0  3  0  0  0  0  0  0
  184.2130  172.1940  136.5990 N   0  0  0  0  0  2  0  0  0  0  0  0
  1 11  1  0  0  0  0
  2  7  1  1  0  0  0
  2  3  1  0  0  0  0
  3  9  1  0  0  0  0
  5 16  1  0  0  0  0
  5  4  2  0  0  0  0
  6 13  1  0  0  0  0
  7 17  2  0  0  0  0
  8  1  2  0  0  0  0
  9  6  2  0  0  0  0
 10 15  1  0  0  0  0
 10 14  2  0  0  0  0
 12 22  1  0  0  0  0
 14 19  1  0  0  0  0
 15 21  1  1  0  0  0
 15  2  1  0  0  0  0
 16 10  1  0  0  0  0
 17  1  1  0  0  0  0
 18  6  1  0  0  0  0
 19 20  2  0  0  0  0
 19  7  1  0  0  0  0
 20  8  1  0  0  0  0
 21 12  1  0  0  0  0
 22  3  2  0  0  0  0
 22 23  1  0  0  0  0
 23 18  2  0  0  0  0
 24 31  1  0  0  0  0
 25 30  1  0  0  0  0
 27 24  2  0  0  0  0
 28 25  1  0  0  0  0
 28 24  1  0  0  0  0
 29 26  2  0  0  0  0
 30 29  1  0  0  0  0
 30  5  1  1  0  0  0
 31 29  1  0  0  0  0
M  END
>  <MODEL>
7

>  <REMARK>
 VINA RESULT:      -6.4      5.647     10.446
  Name = 
  1 active torsions:
  status: ('A' for Active; 'I' for Inactive)
    1  A    between atoms: C_5  and  C_30
                            x       y       z     vdW  Elec       q    Type
                         _______ _______ _______ _____ _____    ______ ____

>  <TORSDO>
F 1

$$$$
=
 OpenBabel11122411203D

 31 35  0  0  1  0  0  0  0  0999 V2000
  191.2160  177.4980  140.5750 C   0  0  0  0  0  0  0  0  0  0  0  0
  188.9630  177.8380  137.5250 C   0  0  2  0  0  3  0  0  0  0  0  0
  188.6780  176.4430  136.9940 C   0  0  0  0  0  0  0  0  0  0  0  0
  184.4970  178.2130  140.3710 O   0  0  0  0  0  0  0  0  0  0  0  0
  184.2780  178.6800  139.2200 C   0  0  0  0  0  0  0  0  0  0  0  0
  189.2680  174.0910  136.7970 C   0  0  0  0  0  0  0  0  0  0  0  0
  189.4450  177.8140  138.9520 C   0  0  0  0  0  0  0  0  0  0  0  0
  190.2850  177.6120  141.6130 C   0  0  0  0  0  3  0  0  0  0  0  0
  189.5240  175.3680  137.3060 C   0  0  0  0  0  3  0  0  0  0  0  0
  186.7290  178.5490  138.5110 C   0  0  0  0  0  0  0  0  0  0  0  0
  192.5550  177.2820  140.8660 O   0  0  0  0  0  1  0  0  0  0  0  0
  186.7590  177.2860  135.7470 O   0  0  0  0  0  0  0  0  0  0  0  0
  190.1260  173.0080  137.1330 N   0  0  0  0  0  1  0  0  0  0  0  0
  187.1380  178.2120  139.7020 N   0  0  0  0  0  0  0  0  0  0  0  0
  187.7370  178.7740  137.3990 C   0  0  2  0  0  3  0  0  0  0  0  0
  185.3440  178.8480  138.2790 N   0  0  0  0  0  2  0  0  0  0  0  0
  190.7950  177.5930  139.2450 C   0  0  0  0  0  3  0  0  0  0  0  0
  188.1700  173.8800  135.9620 C   0  0  0  0  0  3  0  0  0  0  0  0
  188.5130  177.9420  139.9970 C   0  0  0  0  0  0  0  0  0  0  0  0
  188.9350  177.8330  141.3250 C   0  0  0  0  0  3  0  0  0  0  0  0
  187.1130  178.6420  136.0100 C   0  0  0  0  0  2  0  0  0  0  0  0
  187.5930  176.2280  136.1170 C   0  0  0  0  0  0  0  0  0  0  0  0
  187.3350  174.9460  135.6220 C   0  0  0  0  0  3  0  0  0  0  0  0
  180.9350  177.1620  139.8730 C   0  0  0  0  0  0  0  0  0  0  0  0
  182.0140  179.3990  140.0300 C   0  0  0  0  0  2  0  0  0  0  0  0
  182.5630  177.9520  136.7270 O   0  0  0  0  0  0  0  0  0  0  0  0
  180.0850  176.3530  140.3260 O   0  0  0  0  0  0  0  0  0  0  0  0
  181.5910  178.1440  140.7940 C   0  0  0  0  0  2  0  0  0  0  0  0
  182.2520  178.0260  137.9450 C   0  0  0  0  0  0  0  0  0  0  0  0
  182.8910  179.0710  138.8160 C   0  0  2  0  0  3  0  0  0  0  0  0
  181.3110  177.1010  138.4950 N   0  0  0  0  0  2  0  0  0  0  0  0
  1 11  1  0  0  0  0
  1  8  1  0  0  0  0
  2  3  1  1  0  0  0
  2  7  1  0  0  0  0
  3  9  1  0  0  0  0
  5  4  2  0  0  0  0
  6 13  1  0  0  0  0
  6  9  2  0  0  0  0
  7 17  1  0  0  0  0
  7 19  2  0  0  0  0
 10 14  2  0  0  0  0
 12 21  1  0  0  0  0
 12 22  1  0  0  0  0
 14 19  1  0  0  0  0
 15 21  1  6  0  0  0
 15  2  1  0  0  0  0
 15 10  1  0  0  0  0
 16 10  1  0  0  0  0
 16  5  1  0  0  0  0
 17  1  2  0  0  0  0
 18  6  1  0  0  0  0
 19 20  1  0  0  0  0
 20  8  2  0  0  0  0
 22  3  2  0  0  0  0
 23 18  2  0  0  0  0
 23 22  1  0  0  0  0
 24 27  2  0  0  0  0
 24 28  1  0  0  0  0
 25 28  1  0  0  0  0
 26 29  2  0  0  0  0
 29 31  1  0  0  0  0
 29 30  1  0  0  0  0
 30  5  1  1  0  0  0
 30 25  1  0  0  0  0
 31 24  1  0  0  0  0
M  END
>  <MODEL>
8

>  <REMARK>
 VINA RESULT:      -6.1      3.722      6.329
  Name = 
  1 active torsions:
  status: ('A' for Active; 'I' for Inactive)
    1  A    between atoms: C_5  and  C_30
                            x       y       z     vdW  Elec       q    Type
                         _______ _______ _______ _____ _____    ______ ____

>  <TORSDO>
F 1

$$$$
=
 OpenBabel11122411203D

 31 35  0  0  1  0  0  0  0  0999 V2000
  189.2010  177.6320  138.2170 C   0  0  0  0  0  0  0  0  0  0  0  0
  185.8090  176.8630  136.6680 C   0  0  2  0  0  3  0  0  0  0  0  0
  185.5370  175.3780  136.8480 C   0  0  0  0  0  0  0  0  0  0  0  0
  183.0640  178.3950  140.9460 O   0  0  0  0  0  0  0  0  0  0  0  0
  182.2900  178.4020  139.9500 C   0  0  0  0  0  0  0  0  0  0  0  0
  186.3340  173.1100  137.2180 C   0  0  0  0  0  0  0  0  0  0  0  0
  186.8700  177.3630  137.6140 C   0  0  0  0  0  0  0  0  0  0  0  0
  188.8200  178.1520  139.4590 C   0  0  0  0  0  3  0  0  0  0  0  0
  186.5890  174.4760  137.0750 C   0  0  0  0  0  3  0  0  0  0  0  0
  184.1620  177.9500  138.2730 C   0  0  0  0  0  0  0  0  0  0  0  0
  190.5460  177.5060  137.9020 O   0  0  0  0  0  1  0  0  0  0  0  0
  183.1610  175.7420  136.4400 O   0  0  0  0  0  0  0  0  0  0  0  0
  187.4070  172.2090  137.4620 N   0  0  0  0  0  1  0  0  0  0  0  0
  185.1020  178.0740  139.1670 N   0  0  0  0  0  0  0  0  0  0  0  0
  184.5260  177.7150  136.8180 C   0  0  2  0  0  3  0  0  0  0  0  0
  182.7900  178.1770  138.6280 N   0  0  0  0  0  2  0  0  0  0  0  0
  188.2270  177.2330  137.2970 C   0  0  0  0  0  3  0  0  0  0  0  0
  185.0270  172.6290  137.1240 C   0  0  0  0  0  3  0  0  0  0  0  0
  186.4890  177.8970  138.8570 C   0  0  0  0  0  0  0  0  0  0  0  0
  187.4660  178.2840  139.7790 C   0  0  0  0  0  3  0  0  0  0  0  0
  183.3810  177.0880  136.0230 C   0  0  0  0  0  2  0  0  0  0  0  0
  184.2240  174.8780  136.7140 C   0  0  0  0  0  0  0  0  0  0  0  0
  183.9750  173.5110  136.8710 C   0  0  0  0  0  3  0  0  0  0  0  0
  180.0320  178.1050  142.9040 C   0  0  0  0  0  0  0  0  0  0  0  0
  180.5590  179.7780  141.1380 C   0  0  0  0  0  2  0  0  0  0  0  0
  179.8180  176.5370  139.6380 O   0  0  0  0  0  0  0  0  0  0  0  0
  179.6800  177.8810  144.0900 O   0  0  0  0  0  0  0  0  0  0  0  0
  180.8130  179.3410  142.5810 C   0  0  0  0  0  2  0  0  0  0  0  0
  180.0950  177.3930  140.5190 C   0  0  0  0  0  0  0  0  0  0  0  0
  180.8250  178.6490  140.1360 C   0  0  2  0  0  3  0  0  0  0  0  0
  179.7340  177.1510  141.8810 N   0  0  0  0  0  2  0  0  0  0  0  0
  1  8  1  0  0  0  0
  2 15  1  0  0  0  0
  2  3  1  1  0  0  0
  2  7  1  0  0  0  0
  3  9  1  0  0  0  0
  5  4  2  0  0  0  0
  6 13  1  0  0  0  0
  7 19  2  0  0  0  0
  8 20  2  0  0  0  0
  9  6  2  0  0  0  0
 10 16  1  0  0  0  0
 10 14  2  0  0  0  0
 11  1  1  0  0  0  0
 12 22  1  0  0  0  0
 15 21  1  6  0  0  0
 15 10  1  0  0  0  0
 16  5  1  0  0  0  0
 17  7  1  0  0  0  0
 17  1  2  0  0  0  0
 18  6  1  0  0  0  0
 19 14  1  0  0  0  0
 19 20  1  0  0  0  0
 21 12  1  0  0  0  0
 22  3  2  0  0  0  0
 22 23  1  0  0  0  0
 23 18  2  0  0  0  0
 24 27  2  0  0  0  0
 25 28  1  0  0  0  0
 26 29  2  0  0  0  0
 28 24  1  0  0  0  0
 29 31  1  0  0  0  0
 30  5  1  1  0  0  0
 30 29  1  0  0  0  0
 30 25  1  0  0  0  0
 31 24  1  0  0  0  0
M  END
>  <MODEL>
9

>  <REMARK>
 VINA RESULT:      -6.0      5.014      6.947
  Name = 
  1 active torsions:
  status: ('A' for Active; 'I' for Inactive)
    1  A    between atoms: C_5  and  C_30
                            x       y       z     vdW  Elec       q    Type
                         _______ _______ _______ _____ _____    ______ ____

>  <TORSDO>
F 1

$$$$
