=
 OpenBabel11122411553D

 28 32  0  0  1  0  0  0  0  0999 V2000
  189.4160  178.1400  138.0610 C   0  0  0  0  0  0  0  0  0  0  0  0
  192.3500  175.9140  134.5940 F   0  0  0  0  0  0  0  0  0  0  0  0
  186.6290  174.6130  137.2990 O   0  0  0  0  0  0  0  0  0  0  0  0
  189.9440  176.8300  140.4770 C   0  0  0  0  0  3  0  0  0  0  0  0
  188.7680  173.6880  136.7600 C   0  0  0  0  0  0  0  0  0  0  0  0
  189.1120  178.7500  136.8440 O   0  0  0  0  0  0  0  0  0  0  0  0
  193.9230  176.7040  136.1620 C   0  0  0  0  0  1  0  0  0  0  0  0
  192.9470  175.6010  135.8050 C   0  0  1  0  0  0  0  0  0  0  0  0
  192.7270  173.1600  135.5010 C   0  0  1  0  0  3  0  0  0  0  0  0
  191.8990  175.4670  136.9340 C   0  0  2  0  0  3  0  0  0  0  0  0
  186.4130  177.5190  137.6050 O   0  0  0  0  0  1  0  0  0  0  0  0
  189.6950  175.7020  135.8850 C   0  0  1  0  0  3  0  0  0  0  0  0
  192.0340  172.9830  136.7120 O   0  0  0  0  0  0  0  0  0  0  0  0
  193.7220  174.3030  135.6370 C   0  0  0  0  0  2  0  0  0  0  0  0
  186.8510  177.9740  136.3610 C   0  0  2  0  0  3  0  0  0  0  0  0
  190.2250  176.9930  138.0650 C   0  0  0  0  0  0  0  0  0  0  0  0
  187.7980  174.7430  136.8500 C   0  0  0  0  0  0  0  0  0  0  0  0
  193.4710  171.8860  135.1600 C   0  0  0  0  0  1  0  0  0  0  0  0
  187.4390  176.8350  135.5160 C   0  0  0  0  0  2  0  0  0  0  0  0
  190.4720  176.3340  139.2830 C   0  0  0  0  0  3  0  0  0  0  0  0
  188.8840  178.6300  139.2630 C   0  0  0  0  0  3  0  0  0  0  0  0
  189.1530  177.9790  140.4680 C   0  0  0  0  0  3  0  0  0  0  0  0
  187.7940  179.1690  136.5140 C   0  0  0  0  0  2  0  0  0  0  0  0
  189.9780  174.1890  136.0570 C   0  0  1  0  0  3  0  0  0  0  0  0
  188.3030  175.9440  136.2900 N   0  0  0  0  0  0  0  0  0  0  0  0
  191.2000  174.1020  136.9570 C   0  0  2  0  0  3  0  0  0  0  0  0
  188.5980  172.5090  137.1670 O   0  0  0  0  0  0  0  0  0  0  0  0
  190.7450  176.4530  136.7450 C   0  0  1  0  0  3  0  0  0  0  0  0
  1 16  2  0  0  0  0
  1 21  1  0  0  0  0
  2  8  1  0  0  0  0
  5 17  1  0  0  0  0
  5 27  2  0  0  0  0
  6  1  1  0  0  0  0
  8  7  1  1  0  0  0
  8 10  1  0  0  0  0
  9 18  1  1  0  0  0
  9 14  1  0  0  0  0
  9 13  1  0  0  0  0
 10 26  1  0  0  0  0
 12 24  1  0  0  0  0
 12 25  1  0  0  0  0
 12 28  1  0  0  0  0
 13 26  1  0  0  0  0
 14  8  1  0  0  0  0
 15 23  1  0  0  0  0
 15 11  1  0  0  0  0
 16 20  1  0  0  0  0
 17  3  2  0  0  0  0
 19 25  1  0  0  0  0
 19 15  1  0  0  0  0
 20  4  2  0  0  0  0
 21 22  2  0  0  0  0
 22  4  1  0  0  0  0
 23  6  1  0  0  0  0
 24  5  1  0  0  0  0
 24 26  1  0  0  0  0
 25 17  1  0  0  0  0
 28 10  1  0  0  0  0
 28 16  1  0  0  0  0
M  END
>  <MODEL>
1

>  <REMARK>
 VINA RESULT:      -6.1      0.000      0.000
  Name = 
  0 active torsions:
  status: ('A' for Active; 'I' for Inactive)
                            x       y       z     vdW  Elec       q    Type
                         _______ _______ _______ _____ _____    ______ ____

>  <TORSDO>
F 0

$$$$
=
 OpenBabel11122411553D

 28 32  0  0  1  0  0  0  0  0999 V2000
  181.0870  179.0880  137.6650 C   0  0  0  0  0  0  0  0  0  0  0  0
  185.5270  176.8010  138.4690 F   0  0  0  0  0  0  0  0  0  0  0  0
  180.5000  178.5120  142.1490 O   0  0  0  0  0  0  0  0  0  0  0  0
  181.4650  181.7740  138.3500 C   0  0  0  0  0  3  0  0  0  0  0  0
  182.8830  178.6110  141.9630 C   0  0  0  0  0  0  0  0  0  0  0  0
  180.8870  177.7360  137.3800 O   0  0  0  0  0  0  0  0  0  0  0  0
  186.0860  178.4600  136.8890 C   0  0  0  0  0  1  0  0  0  0  0  0
  185.8460  178.1450  138.3530 C   0  0  1  0  0  0  0  0  0  0  0  0
  186.8340  178.3040  140.6100 C   0  0  1  0  0  3  0  0  0  0  0  0
  184.7060  179.0450  138.8830 C   0  0  2  0  0  3  0  0  0  0  0  0
  178.9320  178.1750  139.6970 O   0  0  0  0  0  1  0  0  0  0  0  0
  183.0090  177.5500  139.8320 C   0  0  1  0  0  3  0  0  0  0  0  0
  185.9930  179.3620  141.0000 O   0  0  0  0  0  0  0  0  0  0  0  0
  187.1320  178.4020  139.1220 C   0  0  0  0  0  2  0  0  0  0  0  0
  179.4400  176.9770  139.1910 C   0  0  2  0  0  3  0  0  0  0  0  0
  182.2890  179.4850  138.2710 C   0  0  0  0  0  0  0  0  0  0  0  0
  181.5600  178.2900  141.5060 C   0  0  0  0  0  0  0  0  0  0  0  0
  188.1310  178.3830  141.3880 C   0  0  0  0  0  1  0  0  0  0  0  0
  180.6800  176.5160  139.9680 C   0  0  0  0  0  2  0  0  0  0  0  0
  182.4620  180.8350  138.6250 C   0  0  0  0  0  3  0  0  0  0  0  0
  180.0880  180.0340  137.3950 C   0  0  0  0  0  3  0  0  0  0  0  0
  180.2790  181.3750  137.7330 C   0  0  0  0  0  3  0  0  0  0  0  0
  179.6670  177.0710  137.6810 C   0  0  0  0  0  2  0  0  0  0  0  0
  183.8810  178.0780  140.9990 C   0  0  1  0  0  3  0  0  0  0  0  0
  181.6050  177.6110  140.2620 N   0  0  0  0  0  0  0  0  0  0  0  0
  184.7150  179.2030  140.4090 C   0  0  2  0  0  3  0  0  0  0  0  0
  183.1550  179.2060  143.0390 O   0  0  0  0  0  0  0  0  0  0  0  0
  183.3330  178.4340  138.5990 C   0  0  1  0  0  3  0  0  0  0  0  0
  1 16  1  0  0  0  0
  4 20  1  0  0  0  0
  5 27  2  0  0  0  0
  6  1  1  0  0  0  0
  6 23  1  0  0  0  0
  8  7  1  6  0  0  0
  8  2  1  0  0  0  0
  8 10  1  0  0  0  0
  8 14  1  0  0  0  0
  9 13  1  0  0  0  0
  9 18  1  1  0  0  0
 10 26  1  0  0  0  0
 12 25  1  0  0  0  0
 12 24  1  0  0  0  0
 14  9  1  0  0  0  0
 15 11  1  0  0  0  0
 15 19  1  0  0  0  0
 16 28  1  0  0  0  0
 16 20  2  0  0  0  0
 17  5  1  0  0  0  0
 17  3  2  0  0  0  0
 19 25  1  0  0  0  0
 21  1  2  0  0  0  0
 21 22  1  0  0  0  0
 22  4  2  0  0  0  0
 23 15  1  0  0  0  0
 24  5  1  0  0  0  0
 25 17  1  0  0  0  0
 26 24  1  0  0  0  0
 26 13  1  0  0  0  0
 28 10  1  0  0  0  0
 28 12  1  0  0  0  0
M  END
>  <MODEL>
2

>  <REMARK>
 VINA RESULT:      -5.8      5.912      8.765
  Name = 
  0 active torsions:
  status: ('A' for Active; 'I' for Inactive)
                            x       y       z     vdW  Elec       q    Type
                         _______ _______ _______ _____ _____    ______ ____

>  <TORSDO>
F 0

$$$$
=
 OpenBabel11122411553D

 28 32  0  0  1  0  0  0  0  0999 V2000
  179.8670  179.2020  137.2270 C   0  0  0  0  0  0  0  0  0  0  0  0
  181.2820  174.5740  138.6980 F   0  0  0  0  0  0  0  0  0  0  0  0
  183.8180  180.5030  139.0930 O   0  0  0  0  0  0  0  0  0  0  0  0
  181.1850  179.6810  134.8050 C   0  0  0  0  0  3  0  0  0  0  0  0
  184.2790  178.2410  138.4680 C   0  0  0  0  0  0  0  0  0  0  0  0
  179.2590  178.9830  138.4640 O   0  0  0  0  0  0  0  0  0  0  0  0
  180.2930  174.1620  136.5980 C   0  0  0  0  0  1  0  0  0  0  0  0
  181.5420  174.5990  137.3360 C   0  0  1  0  0  0  0  0  0  0  0  0
  183.9590  174.1580  137.5930 C   0  0  1  0  0  3  0  0  0  0  0  0
  181.9400  176.0160  136.8620 C   0  0  2  0  0  3  0  0  0  0  0  0
  181.0310  181.4070  139.0700 O   0  0  0  0  0  1  0  0  0  0  0  0
  182.0770  177.4190  138.8690 C   0  0  1  0  0  3  0  0  0  0  0  0
  184.3340  175.3050  136.8730 O   0  0  0  0  0  0  0  0  0  0  0  0
  182.6540  173.6040  137.0400 C   0  0  0  0  0  2  0  0  0  0  0  0
  180.4310  180.5140  139.9580 C   0  0  2  0  0  3  0  0  0  0  0  0
  180.8340  178.2910  136.7730 C   0  0  0  0  0  0  0  0  0  0  0  0
  183.4390  179.3150  138.9160 C   0  0  0  0  0  0  0  0  0  0  0  0
  185.0420  173.1090  137.4650 C   0  0  0  0  0  1  0  0  0  0  0  0
  181.3840  179.3780  140.3510 C   0  0  0  0  0  2  0  0  0  0  0  0
  181.5000  178.5500  135.5620 C   0  0  0  0  0  3  0  0  0  0  0  0
  179.5580  180.3390  136.4660 C   0  0  0  0  0  3  0  0  0  0  0  0
  180.2120  180.5740  135.2560 C   0  0  0  0  0  3  0  0  0  0  0  0
  179.0860  180.0230  139.4180 C   0  0  0  0  0  2  0  0  0  0  0  0
  183.5150  176.9670  138.5090 C   0  0  1  0  0  3  0  0  0  0  0  0
  182.1330  178.8480  139.2110 N   0  0  0  0  0  0  0  0  0  0  0  0
  183.4140  176.3530  137.1220 C   0  0  2  0  0  3  0  0  0  0  0  0
  185.4900  178.3530  138.1420 O   0  0  0  0  0  0  0  0  0  0  0  0
  181.1880  177.0970  137.6390 C   0  0  1  0  0  3  0  0  0  0  0  0
  1  6  1  0  0  0  0
  4 22  2  0  0  0  0
  4 20  1  0  0  0  0
  5 24  1  0  0  0  0
  5 17  1  0  0  0  0
  6 23  1  0  0  0  0
  8  7  1  6  0  0  0
  8  2  1  0  0  0  0
  9 18  1  6  0  0  0
 10 26  1  0  0  0  0
 10  8  1  0  0  0  0
 10 28  1  0  0  0  0
 11 15  1  0  0  0  0
 12 25  1  0  0  0  0
 13 26  1  0  0  0  0
 13  9  1  0  0  0  0
 14  8  1  0  0  0  0
 14  9  1  0  0  0  0
 15 19  1  0  0  0  0
 16  1  1  0  0  0  0
 16 28  1  0  0  0  0
 17  3  2  0  0  0  0
 17 25  1  0  0  0  0
 20 16  2  0  0  0  0
 21  1  2  0  0  0  0
 22 21  1  0  0  0  0
 23 15  1  0  0  0  0
 24 12  1  0  0  0  0
 25 19  1  0  0  0  0
 26 24  1  0  0  0  0
 27  5  2  0  0  0  0
 28 12  1  0  0  0  0
M  END
>  <MODEL>
3

>  <REMARK>
 VINA RESULT:      -5.2      6.428      9.266
  Name = 
  0 active torsions:
  status: ('A' for Active; 'I' for Inactive)
                            x       y       z     vdW  Elec       q    Type
                         _______ _______ _______ _____ _____    ______ ____

>  <TORSDO>
F 0

$$$$
=
 OpenBabel11122411553D

 28 32  0  0  1  0  0  0  0  0999 V2000
  181.8240  175.8700  136.2510 C   0  0  0  0  0  0  0  0  0  0  0  0
  186.6950  175.2770  137.4800 F   0  0  0  0  0  0  0  0  0  0  0  0
  181.8210  178.9340  139.6270 O   0  0  0  0  0  0  0  0  0  0  0  0
  181.7130  178.1230  134.5940 C   0  0  0  0  0  3  0  0  0  0  0  0
  184.1020  178.9800  138.9090 C   0  0  0  0  0  0  0  0  0  0  0  0
  181.8760  174.7840  137.1240 O   0  0  0  0  0  0  0  0  0  0  0  0
  186.7420  175.1400  135.1270 C   0  0  0  0  0  1  0  0  0  0  0  0
  186.7200  176.0560  136.3340 C   0  0  1  0  0  0  0  0  0  0  0  0
  187.8770  177.9510  137.4150 C   0  0  1  0  0  3  0  0  0  0  0  0
  185.4790  176.9760  136.2470 C   0  0  2  0  0  3  0  0  0  0  0  0
  180.1160  176.7450  138.6850 O   0  0  0  0  0  1  0  0  0  0  0  0
  184.2280  176.6700  138.3340 C   0  0  1  0  0  3  0  0  0  0  0  0
  186.8810  178.8770  137.0570 O   0  0  0  0  0  0  0  0  0  0  0  0
  187.9970  176.8810  136.3410 C   0  0  0  0  0  2  0  0  0  0  0  0
  180.8050  175.6230  139.1480 C   0  0  2  0  0  3  0  0  0  0  0  0
  182.9750  176.6540  136.0700 C   0  0  0  0  0  0  0  0  0  0  0  0
  182.8340  178.3530  139.1550 C   0  0  0  0  0  0  0  0  0  0  0  0
  189.2020  178.6700  137.5580 C   0  0  0  0  0  1  0  0  0  0  0  0
  182.1850  175.9960  139.7060 C   0  0  0  0  0  2  0  0  0  0  0  0
  182.9030  177.7920  135.2460 C   0  0  0  0  0  3  0  0  0  0  0  0
  180.6310  176.2090  135.5970 C   0  0  0  0  0  3  0  0  0  0  0  0
  180.5780  177.3300  134.7660 C   0  0  0  0  0  3  0  0  0  0  0  0
  180.8540  174.5290  138.0800 C   0  0  0  0  0  2  0  0  0  0  0  0
  185.0860  177.9510  138.4810 C   0  0  1  0  0  3  0  0  0  0  0  0
  182.8910  176.9660  138.8690 N   0  0  0  0  0  0  0  0  0  0  0  0
  185.6100  178.2530  137.0860 C   0  0  2  0  0  3  0  0  0  0  0  0
  184.3550  180.2010  139.0820 O   0  0  0  0  0  0  0  0  0  0  0  0
  184.2390  176.2960  136.8290 C   0  0  1  0  0  3  0  0  0  0  0  0
  1  6  1  0  0  0  0
  4 22  2  0  0  0  0
  4 20  1  0  0  0  0
  5 27  2  0  0  0  0
  5 17  1  0  0  0  0
  6 23  1  0  0  0  0
  8  7  1  6  0  0  0
  8 14  1  0  0  0  0
  8  2  1  0  0  0  0
  9 18  1  6  0  0  0
 10  8  1  0  0  0  0
 10 28  1  0  0  0  0
 10 26  1  0  0  0  0
 11 15  1  0  0  0  0
 12 24  1  0  0  0  0
 12 25  1  0  0  0  0
 13 26  1  0  0  0  0
 13  9  1  0  0  0  0
 14  9  1  0  0  0  0
 15 19  1  0  0  0  0
 16  1  1  0  0  0  0
 16 28  1  0  0  0  0
 17  3  2  0  0  0  0
 20 16  2  0  0  0  0
 21  1  2  0  0  0  0
 22 21  1  0  0  0  0
 23 15  1  0  0  0  0
 24  5  1  0  0  0  0
 25 17  1  0  0  0  0
 25 19  1  0  0  0  0
 26 24  1  0  0  0  0
 28 12  1  0  0  0  0
M  END
>  <MODEL>
4

>  <REMARK>
 VINA RESULT:      -5.2      4.560      7.579
  Name = 
  0 active torsions:
  status: ('A' for Active; 'I' for Inactive)
                            x       y       z     vdW  Elec       q    Type
                         _______ _______ _______ _____ _____    ______ ____

>  <TORSDO>
F 0

$$$$
=
 OpenBabel11122411553D

 28 32  0  0  1  0  0  0  0  0999 V2000
  180.7890  177.7690  137.9610 C   0  0  0  0  0  0  0  0  0  0  0  0
  183.8720  173.8380  137.1690 F   0  0  0  0  0  0  0  0  0  0  0  0
  184.5550  179.8250  139.5010 O   0  0  0  0  0  0  0  0  0  0  0  0
  181.1120  179.4630  135.7560 C   0  0  0  0  0  3  0  0  0  0  0  0
  185.4470  178.2420  137.9440 C   0  0  0  0  0  0  0  0  0  0  0  0
  180.6740  176.9520  139.0850 O   0  0  0  0  0  0  0  0  0  0  0  0
  182.4610  173.7680  135.2810 C   0  0  0  0  0  1  0  0  0  0  0  0
  183.6900  174.3930  135.9120 C   0  0  1  0  0  0  0  0  0  0  0  0
  186.0890  174.8610  135.5580 C   0  0  1  0  0  3  0  0  0  0  0  0
  183.4920  175.9250  135.9930 C   0  0  2  0  0  3  0  0  0  0  0  0
  181.7540  179.5410  140.3140 O   0  0  0  0  0  1  0  0  0  0  0  0
  183.8110  176.5550  138.3420 C   0  0  1  0  0  3  0  0  0  0  0  0
  185.8760  176.2290  135.3120 O   0  0  0  0  0  0  0  0  0  0  0  0
  184.9000  174.0550  135.0560 C   0  0  0  0  0  2  0  0  0  0  0  0
  181.7390  178.2530  140.8520 C   0  0  2  0  0  3  0  0  0  0  0  0
  181.7950  177.4980  137.0210 C   0  0  0  0  0  0  0  0  0  0  0  0
  184.5050  178.7070  138.9240 C   0  0  0  0  0  0  0  0  0  0  0  0
  187.3410  174.4110  134.8360 C   0  0  0  0  0  1  0  0  0  0  0  0
  183.0550  177.5110  140.5840 C   0  0  0  0  0  2  0  0  0  0  0  0
  181.9580  178.3640  135.9250 C   0  0  0  0  0  3  0  0  0  0  0  0
  179.9450  178.8760  137.7890 C   0  0  0  0  0  3  0  0  0  0  0  0
  180.1040  179.7170  136.6870 C   0  0  0  0  0  3  0  0  0  0  0  0
  180.5000  177.4810  140.3940 C   0  0  0  0  0  2  0  0  0  0  0  0
  185.1390  176.8310  137.5940 C   0  0  1  0  0  3  0  0  0  0  0  0
  183.5470  177.7040  139.2190 N   0  0  0  0  0  0  0  0  0  0  0  0
  184.8090  176.7020  136.1150 C   0  0  2  0  0  3  0  0  0  0  0  0
  186.4150  178.9100  137.4940 O   0  0  0  0  0  0  0  0  0  0  0  0
  182.7280  176.3230  137.2560 C   0  0  1  0  0  3  0  0  0  0  0  0
  1  6  1  0  0  0  0
  4 20  2  0  0  0  0
  4 22  1  0  0  0  0
  5 17  1  0  0  0  0
  6 23  1  0  0  0  0
  8  7  1  6  0  0  0
  8 10  1  0  0  0  0
  8  2  1  0  0  0  0
  9 18  1  6  0  0  0
 10 26  1  0  0  0  0
 10 28  1  0  0  0  0
 11 15  1  0  0  0  0
 12 25  1  0  0  0  0
 13  9  1  0  0  0  0
 13 26  1  0  0  0  0
 14  9  1  0  0  0  0
 14  8  1  0  0  0  0
 16 28  1  0  0  0  0
 16  1  2  0  0  0  0
 17 25  1  0  0  0  0
 17  3  2  0  0  0  0
 19 15  1  0  0  0  0
 20 16  1  0  0  0  0
 21  1  1  0  0  0  0
 22 21  2  0  0  0  0
 23 15  1  0  0  0  0
 24  5  1  0  0  0  0
 24 12  1  0  0  0  0
 25 19  1  0  0  0  0
 26 24  1  0  0  0  0
 27  5  2  0  0  0  0
 28 12  1  0  0  0  0
M  END
>  <MODEL>
5

>  <REMARK>
 VINA RESULT:      -5.0      5.065      7.947
  Name = 
  0 active torsions:
  status: ('A' for Active; 'I' for Inactive)
                            x       y       z     vdW  Elec       q    Type
                         _______ _______ _______ _____ _____    ______ ____

>  <TORSDO>
F 0

$$$$
=
 OpenBabel11122411553D

 28 32  0  0  1  0  0  0  0  0999 V2000
  179.5930  177.2380  138.6430 C   0  0  0  0  0  0  0  0  0  0  0  0
  181.1530  180.1560  142.4680 F   0  0  0  0  0  0  0  0  0  0  0  0
  183.6290  178.2880  136.8010 O   0  0  0  0  0  0  0  0  0  0  0  0
  180.7600  174.7280  139.0580 C   0  0  0  0  0  3  0  0  0  0  0  0
  184.0830  178.4720  139.1420 C   0  0  0  0  0  0  0  0  0  0  0  0
  179.0620  178.5060  138.4070 O   0  0  0  0  0  0  0  0  0  0  0  0
  180.0480  178.3980  143.5850 C   0  0  0  0  0  1  0  0  0  0  0  0
  181.3330  178.8600  142.9270 C   0  0  1  0  0  0  0  0  0  0  0  0
  183.7660  179.1120  143.2690 C   0  0  1  0  0  3  0  0  0  0  0  0
  181.6830  177.8940  141.7700 C   0  0  2  0  0  3  0  0  0  0  0  0
  180.8340  178.1140  135.9400 O   0  0  0  0  0  1  0  0  0  0  0  0
  181.9190  179.2670  139.7520 C   0  0  1  0  0  3  0  0  0  0  0  0
  184.0830  178.0120  142.4520 O   0  0  0  0  0  0  0  0  0  0  0  0
  182.4380  178.8670  143.9710 C   0  0  0  0  0  2  0  0  0  0  0  0
  180.2980  179.2940  136.4580 C   0  0  2  0  0  3  0  0  0  0  0  0
  180.5440  177.0760  139.6630 C   0  0  0  0  0  0  0  0  0  0  0  0
  183.2560  178.5630  137.9720 C   0  0  0  0  0  0  0  0  0  0  0  0
  184.8540  179.2970  144.3040 C   0  0  0  0  0  1  0  0  0  0  0  0
  181.2880  180.0040  137.3910 C   0  0  0  0  0  2  0  0  0  0  0  0
  181.1340  175.8140  139.8530 C   0  0  0  0  0  3  0  0  0  0  0  0
  179.2240  176.1450  137.8440 C   0  0  0  0  0  3  0  0  0  0  0  0
  179.8030  174.8930  138.0560 C   0  0  0  0  0  3  0  0  0  0  0  0
  178.9310  179.0420  137.0970 C   0  0  0  0  0  2  0  0  0  0  0  0
  183.3390  179.0050  140.3140 C   0  0  1  0  0  3  0  0  0  0  0  0
  181.9760  179.0810  138.2950 N   0  0  0  0  0  0  0  0  0  0  0  0
  183.1650  177.9310  141.3760 C   0  0  2  0  0  3  0  0  0  0  0  0
  185.2710  178.0570  139.1620 O   0  0  0  0  0  0  0  0  0  0  0  0
  180.9630  178.2850  140.4790 C   0  0  1  0  0  3  0  0  0  0  0  0
  1 16  1  0  0  0  0
  2  8  1  0  0  0  0
  3 17  2  0  0  0  0
  4 20  1  0  0  0  0
  5 27  2  0  0  0  0
  5 24  1  0  0  0  0
  6  1  1  0  0  0  0
  8  7  1  1  0  0  0
  8 14  1  0  0  0  0
  9 14  1  0  0  0  0
  9 18  1  1  0  0  0
 10  8  1  0  0  0  0
 11 15  1  0  0  0  0
 12 24  1  0  0  0  0
 12 28  1  0  0  0  0
 13  9  1  0  0  0  0
 15 23  1  0  0  0  0
 15 19  1  0  0  0  0
 16 20  2  0  0  0  0
 16 28  1  0  0  0  0
 17 25  1  0  0  0  0
 17  5  1  0  0  0  0
 19 25  1  0  0  0  0
 21 22  1  0  0  0  0
 21  1  2  0  0  0  0
 22  4  2  0  0  0  0
 23  6  1  0  0  0  0
 24 26  1  0  0  0  0
 25 12  1  0  0  0  0
 26 10  1  0  0  0  0
 26 13  1  0  0  0  0
 28 10  1  0  0  0  0
M  END
>  <MODEL>
6

>  <REMARK>
 VINA RESULT:      -4.9      7.760     10.347
  Name = 
  0 active torsions:
  status: ('A' for Active; 'I' for Inactive)
                            x       y       z     vdW  Elec       q    Type
                         _______ _______ _______ _____ _____    ______ ____

>  <TORSDO>
F 0

$$$$
=
 OpenBabel11122411553D

 28 32  0  0  1  0  0  0  0  0999 V2000
  182.3420  179.1790  139.0590 C   0  0  0  0  0  0  0  0  0  0  0  0
  179.7370  176.1250  135.9800 F   0  0  0  0  0  0  0  0  0  0  0  0
  179.1400  178.0760  142.1100 O   0  0  0  0  0  0  0  0  0  0  0  0
  183.9780  177.5120  140.6000 C   0  0  0  0  0  3  0  0  0  0  0  0
  179.1590  176.1540  140.6860 C   0  0  0  0  0  0  0  0  0  0  0  0
  181.4820  180.0020  138.3300 O   0  0  0  0  0  0  0  0  0  0  0  0
  181.9730  175.6400  135.4090 C   0  0  0  0  0  1  0  0  0  0  0  0
  180.8330  175.3700  136.3710 C   0  0  1  0  0  0  0  0  0  0  0  0
  179.4760  173.5800  137.3980 C   0  0  1  0  0  3  0  0  0  0  0  0
  181.2850  175.7310  137.8050 C   0  0  2  0  0  3  0  0  0  0  0  0
  180.5200  180.4930  141.1960 O   0  0  0  0  0  1  0  0  0  0  0  0
  179.6530  177.3400  138.6780 C   0  0  1  0  0  3  0  0  0  0  0  0
  180.1180  173.6890  138.6450 O   0  0  0  0  0  0  0  0  0  0  0  0
  180.4590  173.8990  136.2810 C   0  0  0  0  0  2  0  0  0  0  0  0
  179.8670  180.7610  139.9920 C   0  0  2  0  0  3  0  0  0  0  0  0
  182.1850  177.7870  138.9760 C   0  0  0  0  0  0  0  0  0  0  0  0
  179.2900  177.5550  140.9740 C   0  0  0  0  0  0  0  0  0  0  0  0
  178.9590  172.1690  137.2220 C   0  0  0  0  0  1  0  0  0  0  0  0
  178.9330  179.6130  139.5870 C   0  0  0  0  0  2  0  0  0  0  0  0
  183.0030  176.9600  139.7660 C   0  0  0  0  0  3  0  0  0  0  0  0
  183.3190  179.7300  139.9010 C   0  0  0  0  0  3  0  0  0  0  0  0
  184.1380  178.8970  140.6650 C   0  0  0  0  0  3  0  0  0  0  0  0
  180.8650  181.1490  138.9000 C   0  0  0  0  0  2  0  0  0  0  0  0
  179.2730  175.9390  139.2200 C   0  0  1  0  0  3  0  0  0  0  0  0
  179.5350  178.2940  139.7890 N   0  0  0  0  0  0  0  0  0  0  0  0
  180.4560  175.0410  138.8960 C   0  0  2  0  0  3  0  0  0  0  0  0
  178.9310  175.2560  141.5380 O   0  0  0  0  0  0  0  0  0  0  0  0
  181.0860  177.2190  138.0970 C   0  0  1  0  0  3  0  0  0  0  0  0
  1 21  1  0  0  0  0
  2  8  1  0  0  0  0
  4 22  1  0  0  0  0
  5 17  1  0  0  0  0
  5 27  2  0  0  0  0
  6 23  1  0  0  0  0
  6  1  1  0  0  0  0
  8  7  1  6  0  0  0
  8 10  1  0  0  0  0
  9 18  1  6  0  0  0
  9 13  1  0  0  0  0
 10 28  1  0  0  0  0
 10 26  1  0  0  0  0
 12 24  1  0  0  0  0
 12 25  1  0  0  0  0
 13 26  1  0  0  0  0
 14  8  1  0  0  0  0
 14  9  1  0  0  0  0
 15 11  1  0  0  0  0
 16  1  2  0  0  0  0
 16 20  1  0  0  0  0
 17  3  2  0  0  0  0
 19 25  1  0  0  0  0
 19 15  1  0  0  0  0
 20  4  2  0  0  0  0
 21 22  2  0  0  0  0
 23 15  1  0  0  0  0
 24  5  1  0  0  0  0
 25 17  1  0  0  0  0
 26 24  1  0  0  0  0
 28 12  1  0  0  0  0
 28 16  1  0  0  0  0
M  END
>  <MODEL>
7

>  <REMARK>
 VINA RESULT:      -4.8      8.394     10.119
  Name = 
  0 active torsions:
  status: ('A' for Active; 'I' for Inactive)
                            x       y       z     vdW  Elec       q    Type
                         _______ _______ _______ _____ _____    ______ ____

>  <TORSDO>
F 0

$$$$
=
 OpenBabel11122411553D

 28 32  0  0  1  0  0  0  0  0999 V2000
  183.0910  177.3270  137.8440 C   0  0  0  0  0  0  0  0  0  0  0  0
  186.1590  173.3070  137.9590 F   0  0  0  0  0  0  0  0  0  0  0  0
  186.8980  179.6290  136.8490 O   0  0  0  0  0  0  0  0  0  0  0  0
  182.4730  177.7520  135.1480 C   0  0  0  0  0  3  0  0  0  0  0  0
  187.3960  177.4470  136.0060 C   0  0  0  0  0  0  0  0  0  0  0  0
  183.4480  177.1480  139.1810 O   0  0  0  0  0  0  0  0  0  0  0  0
  184.2190  172.4400  136.9370 C   0  0  0  0  0  1  0  0  0  0  0  0
  185.5090  173.2110  136.7380 C   0  0  1  0  0  0  0  0  0  0  0  0
  187.5860  173.3070  135.4060 C   0  0  1  0  0  3  0  0  0  0  0  0
  185.1780  174.6080  136.1620 C   0  0  2  0  0  3  0  0  0  0  0  0
  184.5760  179.9380  138.6100 O   0  0  0  0  0  1  0  0  0  0  0  0
  186.1850  176.2530  137.6770 C   0  0  1  0  0  3  0  0  0  0  0  0
  187.1510  174.4050  134.6440 O   0  0  0  0  0  0  0  0  0  0  0  0
  186.3970  172.4340  135.7800 C   0  0  0  0  0  2  0  0  0  0  0  0
  184.8850  179.0620  139.6510 C   0  0  2  0  0  3  0  0  0  0  0  0
  183.7530  176.5820  136.8560 C   0  0  0  0  0  0  0  0  0  0  0  0
  186.7860  178.3760  136.9140 C   0  0  0  0  0  0  0  0  0  0  0  0
  188.5700  172.4920  134.5940 C   0  0  0  0  0  1  0  0  0  0  0  0
  186.1130  178.2020  139.3230 C   0  0  0  0  0  2  0  0  0  0  0  0
  183.4440  176.8140  135.5040 C   0  0  0  0  0  3  0  0  0  0  0  0
  182.1190  178.2710  137.4810 C   0  0  0  0  0  3  0  0  0  0  0  0
  181.8080  178.4790  136.1360 C   0  0  0  0  0  3  0  0  0  0  0  0
  183.6600  178.2430  140.0620 C   0  0  0  0  0  2  0  0  0  0  0  0
  187.1500  176.0600  136.4800 C   0  0  1  0  0  3  0  0  0  0  0  0
  186.0990  177.6950  137.9500 N   0  0  0  0  0  0  0  0  0  0  0  0
  186.3650  175.2670  135.4470 C   0  0  2  0  0  3  0  0  0  0  0  0
  188.0780  177.7600  134.9950 O   0  0  0  0  0  0  0  0  0  0  0  0
  184.8360  175.6030  137.2710 C   0  0  1  0  0  3  0  0  0  0  0  0
  1  6  1  0  0  0  0
  3 17  2  0  0  0  0
  4 20  2  0  0  0  0
  4 22  1  0  0  0  0
  5 24  1  0  0  0  0
  5 17  1  0  0  0  0
  6 23  1  0  0  0  0
  8  7  1  1  0  0  0
  8  2  1  0  0  0  0
  9 18  1  6  0  0  0
  9 14  1  0  0  0  0
 10  8  1  0  0  0  0
 10 28  1  0  0  0  0
 11 15  1  0  0  0  0
 12 25  1  0  0  0  0
 13  9  1  0  0  0  0
 13 26  1  0  0  0  0
 14  8  1  0  0  0  0
 15 23  1  0  0  0  0
 16 28  1  0  0  0  0
 16  1  2  0  0  0  0
 17 25  1  0  0  0  0
 19 15  1  0  0  0  0
 20 16  1  0  0  0  0
 21  1  1  0  0  0  0
 22 21  2  0  0  0  0
 24 12  1  0  0  0  0
 25 19  1  0  0  0  0
 26 10  1  0  0  0  0
 26 24  1  0  0  0  0
 27  5  2  0  0  0  0
 28 12  1  0  0  0  0
M  END
>  <MODEL>
8

>  <REMARK>
 VINA RESULT:      -4.8      3.894      6.200
  Name = 
  0 active torsions:
  status: ('A' for Active; 'I' for Inactive)
                            x       y       z     vdW  Elec       q    Type
                         _______ _______ _______ _____ _____    ______ ____

>  <TORSDO>
F 0

$$$$
=
 OpenBabel11122411553D

 28 32  0  0  1  0  0  0  0  0999 V2000
  180.3190  174.8340  137.5200 C   0  0  0  0  0  0  0  0  0  0  0  0
  184.5660  172.1070  137.8630 F   0  0  0  0  0  0  0  0  0  0  0  0
  183.1460  178.4070  137.6760 O   0  0  0  0  0  0  0  0  0  0  0  0
  180.0580  175.5230  134.8210 C   0  0  0  0  0  3  0  0  0  0  0  0
  184.5350  176.7090  136.7230 C   0  0  0  0  0  0  0  0  0  0  0  0
  180.4840  174.5380  138.8740 O   0  0  0  0  0  0  0  0  0  0  0  0
  183.2760  170.8530  136.3390 C   0  0  0  0  0  1  0  0  0  0  0  0
  184.2130  172.0300  136.5240 C   0  0  1  0  0  0  0  0  0  0  0  0
  186.3090  173.0530  135.7130 C   0  0  1  0  0  3  0  0  0  0  0  0
  183.5030  173.3210  136.0520 C   0  0  2  0  0  3  0  0  0  0  0  0
  180.6060  177.5980  138.8930 O   0  0  0  0  0  1  0  0  0  0  0  0
  183.5730  174.8940  137.9320 C   0  0  1  0  0  3  0  0  0  0  0  0
  185.6430  174.0680  135.0030 O   0  0  0  0  0  0  0  0  0  0  0  0
  185.4720  171.7830  135.7080 C   0  0  0  0  0  2  0  0  0  0  0  0
  181.0290  176.6960  139.8710 C   0  0  2  0  0  3  0  0  0  0  0  0
  181.3640  174.5460  136.6280 C   0  0  0  0  0  0  0  0  0  0  0  0
  183.4850  177.1990  137.5710 C   0  0  0  0  0  0  0  0  0  0  0  0
  187.6440  172.7760  135.0550 C   0  0  0  0  0  1  0  0  0  0  0  0
  182.5210  176.3670  139.7310 C   0  0  0  0  0  2  0  0  0  0  0  0
  181.2280  174.9100  135.2770 C   0  0  0  0  0  3  0  0  0  0  0  0
  179.1490  175.4530  137.0590 C   0  0  0  0  0  3  0  0  0  0  0  0
  179.0180  175.7920  135.7110 C   0  0  0  0  0  3  0  0  0  0  0  0
  180.1320  175.4570  139.9000 C   0  0  0  0  0  2  0  0  0  0  0  0
  184.7300  175.2570  136.9680 C   0  0  1  0  0  3  0  0  0  0  0  0
  182.9250  176.1490  138.3410 N   0  0  0  0  0  0  0  0  0  0  0  0
  184.4730  174.4560  135.7020 C   0  0  2  0  0  3  0  0  0  0  0  0
  185.2190  177.4130  135.9340 O   0  0  0  0  0  0  0  0  0  0  0  0
  182.6400  173.9220  137.1620 C   0  0  1  0  0  3  0  0  0  0  0  0
  1  6  1  0  0  0  0
  4 20  2  0  0  0  0
  4 22  1  0  0  0  0
  5 24  1  0  0  0  0
  5 17  1  0  0  0  0
  6 23  1  0  0  0  0
  8  7  1  6  0  0  0
  8  2  1  0  0  0  0
  9 18  1  6  0  0  0
 10  8  1  0  0  0  0
 10 28  1  0  0  0  0
 11 15  1  0  0  0  0
 12 25  1  0  0  0  0
 13 26  1  0  0  0  0
 13  9  1  0  0  0  0
 14  9  1  0  0  0  0
 14  8  1  0  0  0  0
 15 23  1  0  0  0  0
 16 28  1  0  0  0  0
 16  1  2  0  0  0  0
 17  3  2  0  0  0  0
 17 25  1  0  0  0  0
 19 15  1  0  0  0  0
 20 16  1  0  0  0  0
 21  1  1  0  0  0  0
 22 21  2  0  0  0  0
 24 12  1  0  0  0  0
 25 19  1  0  0  0  0
 26 10  1  0  0  0  0
 26 24  1  0  0  0  0
 27  5  2  0  0  0  0
 28 12  1  0  0  0  0
M  END
>  <MODEL>
9

>  <REMARK>
 VINA RESULT:      -4.5      5.604      8.227
  Name = 
  0 active torsions:
  status: ('A' for Active; 'I' for Inactive)
                            x       y       z     vdW  Elec       q    Type
                         _______ _______ _______ _____ _____    ______ ____

>  <TORSDO>
F 0

$$$$
