=
 OpenBabel11122410453D

 32 37  0  0  1  0  0  0  0  0999 V2000
  188.1880  178.6650  136.5190 C   0  0  0  0  0  2  0  0  0  0  0  0
  187.5480  177.6720  142.1350 C   0  0  1  0  0  3  0  0  0  0  0  0
  183.0410  178.9010  143.7900 C   0  0  0  0  0  3  0  0  0  0  0  0
  183.4790  178.8280  145.1130 C   0  0  0  0  0  3  0  0  0  0  0  0
  189.2230  177.1030  143.9310 C   0  0  0  0  0  0  0  0  0  0  0  0
  189.6050  177.1750  145.3440 C   0  0  2  0  0  3  0  0  0  0  0  0
  188.1000  178.5630  139.8230 N   0  0  2  0  0  0  0  0  0  0  0  0
  185.7340  178.2120  140.5240 C   0  0  0  0  0  2  0  0  0  0  0  0
  189.2390  177.6230  147.5280 C   0  0  0  0  0  0  0  0  0  0  0  0
  186.2550  178.4760  138.1400 C   0  0  0  0  0  2  0  0  0  0  0  0
  183.9580  178.7810  142.7450 C   0  0  0  0  0  3  0  0  0  0  0  0
  186.3320  178.5680  141.8860 C   0  0  1  0  0  3  0  0  0  0  0  0
  185.3190  178.5600  143.0070 C   0  0  0  0  0  0  0  0  0  0  0  0
  187.1900  178.2860  144.6370 C   0  0  0  0  0  0  0  0  0  0  0  0
  189.8800  176.4720  147.3940 C   0  0  0  0  0  3  0  0  0  0  0  0
  189.0560  179.1920  137.6630 C   0  0  0  0  0  2  0  0  0  0  0  0
  186.8070  177.9370  139.4600 C   0  0  1  0  0  3  0  0  0  0  0  0
  190.0710  176.1740  146.0150 N   0  0  0  0  0  2  0  0  0  0  0  0
  189.1200  178.2230  138.8360 C   0  0  0  0  0  2  0  0  0  0  0  0
  186.9740  177.8410  136.9570 C   0  0  1  0  0  3  0  0  0  0  0  0
  184.8340  178.6360  145.3880 C   0  0  0  0  0  3  0  0  0  0  0  0
  185.7610  178.5070  144.3430 C   0  0  0  0  0  0  0  0  0  0  0  0
  187.6340  178.4400  145.8580 N   0  0  0  0  0  0  0  0  0  0  0  0
  188.6240  178.0220  141.0890 C   0  0  0  0  0  2  0  0  0  0  0  0
  190.0250  176.2470  143.0040 C   0  0  0  0  0  1  0  0  0  0  0  0
  188.9090  178.2520  148.8340 C   0  0  0  0  0  1  0  0  0  0  0  0
  188.0820  177.7380  143.5580 C   0  0  0  0  0  0  0  0  0  0  0  0
  189.0450  178.2530  146.1950 C   0  0  2  0  0  3  0  0  0  0  0  0
  186.0600  177.7030  135.8340 N   0  0  0  0  0  2  0  0  0  0  0  0
  185.0790  176.6670  135.7620 C   0  0  0  0  0  0  0  0  0  0  0  0
  184.9840  175.8070  136.6760 O   0  0  0  0  0  0  0  0  0  0  0  0
  184.1620  176.6020  134.5940 C   0  0  0  0  0  1  0  0  0  0  0  0
  1 20  1  0  0  0  0
  1 16  1  0  0  0  0
  2 24  1  6  0  0  0
  2 27  1  0  0  0  0
  3  4  1  0  0  0  0
  4 21  2  0  0  0  0
  6  5  1  6  0  0  0
  6 18  1  0  0  0  0
  6 28  1  0  0  0  0
  7 19  1  6  0  0  0
  7 24  1  0  0  0  0
  9 26  1  0  0  0  0
 11 13  1  0  0  0  0
 11  3  2  0  0  0  0
 12  8  1  6  0  0  0
 12  2  1  0  0  0  0
 12 13  1  0  0  0  0
 13 22  2  0  0  0  0
 14 23  2  0  0  0  0
 15  9  2  0  0  0  0
 16 19  1  0  0  0  0
 17 10  1  6  0  0  0
 17  7  1  0  0  0  0
 17  8  1  0  0  0  0
 18 15  1  0  0  0  0
 20 29  1  6  0  0  0
 20 10  1  0  0  0  0
 22 14  1  0  0  0  0
 22 21  1  0  0  0  0
 25  5  1  0  0  0  0
 27  5  2  0  0  0  0
 27 14  1  0  0  0  0
 28 23  1  6  0  0  0
 28  9  1  0  0  0  0
 30 29  1  0  0  0  0
 30 31  2  0  0  0  0
 32 30  1  0  0  0  0
M  END
>  <MODEL>
1

>  <REMARK>
 VINA RESULT:     -10.2      0.000      0.000
  Name = 
  1 active torsions:
  status: ('A' for Active; 'I' for Inactive)
    1  A    between atoms: C_20  and  N_29
                            x       y       z     vdW  Elec       q    Type
                         _______ _______ _______ _____ _____    ______ ____

>  <TORSDO>
F 1

$$$$
=
 OpenBabel11122410453D

 32 37  0  0  1  0  0  0  0  0999 V2000
  180.1520  178.7500  138.6280 C   0  0  0  0  0  2  0  0  0  0  0  0
  184.6640  178.8490  142.1740 C   0  0  1  0  0  3  0  0  0  0  0  0
  188.9740  178.2590  139.7980 C   0  0  0  0  0  3  0  0  0  0  0  0
  189.6330  178.0120  141.0030 C   0  0  0  0  0  3  0  0  0  0  0  0
  184.8130  178.7540  144.6880 C   0  0  0  0  0  0  0  0  0  0  0  0
  185.5780  178.3610  145.8760 C   0  0  2  0  0  3  0  0  0  0  0  0
  182.6120  178.2860  140.7890 N   0  0  2  0  0  0  0  0  0  0  0  0
  184.7450  178.9670  139.6930 C   0  0  0  0  0  2  0  0  0  0  0  0
  187.4190  177.6190  146.9530 C   0  0  0  0  0  0  0  0  0  0  0  0
  182.6570  179.0280  138.4040 C   0  0  0  0  0  2  0  0  0  0  0  0
  187.5830  178.3780  139.7760 C   0  0  0  0  0  3  0  0  0  0  0  0
  185.3260  178.2670  140.9220 C   0  0  1  0  0  3  0  0  0  0  0  0
  186.8360  178.2770  140.9610 C   0  0  0  0  0  0  0  0  0  0  0  0
  186.7320  177.8890  143.4240 C   0  0  0  0  0  0  0  0  0  0  0  0
  186.8720  178.6260  147.6160 C   0  0  0  0  0  3  0  0  0  0  0  0
  180.3920  177.8700  139.8570 C   0  0  0  0  0  2  0  0  0  0  0  0
  183.2320  179.2080  139.8080 C   0  0  1  0  0  3  0  0  0  0  0  0
  185.7360  179.1180  146.9110 N   0  0  0  0  0  2  0  0  0  0  0  0
  181.1920  178.5870  140.9360 C   0  0  0  0  0  2  0  0  0  0  0  0
  181.2980  179.7060  138.2870 C   0  0  1  0  0  3  0  0  0  0  0  0
  188.9000  177.8820  142.1840 C   0  0  0  0  0  3  0  0  0  0  0  0
  187.5020  178.0080  142.1720 C   0  0  0  0  0  0  0  0  0  0  0  0
  187.3150  177.4390  144.5070 N   0  0  0  0  0  0  0  0  0  0  0  0
  183.1680  178.4840  142.1400 C   0  0  0  0  0  2  0  0  0  0  0  0
  183.5810  179.5850  144.8590 C   0  0  0  0  0  1  0  0  0  0  0  0
  188.6000  176.8480  147.4250 C   0  0  0  0  0  1  0  0  0  0  0  0
  185.3310  178.4310  143.4760 C   0  0  0  0  0  0  0  0  0  0  0  0
  186.5890  177.2830  145.7660 C   0  0  2  0  0  3  0  0  0  0  0  0
  181.1100  180.2160  136.9380 N   0  0  0  0  0  2  0  0  0  0  0  0
  180.6830  181.5530  136.6720 C   0  0  0  0  0  0  0  0  0  0  0  0
  180.4280  182.3470  137.6160 O   0  0  0  0  0  0  0  0  0  0  0  0
  180.5340  182.0120  135.2660 C   0  0  0  0  0  1  0  0  0  0  0  0
  1 16  1  0  0  0  0
  2 24  1  1  0  0  0
  2 27  1  0  0  0  0
  3  4  1  0  0  0  0
  4 21  2  0  0  0  0
  5 25  1  0  0  0  0
  6  5  1  6  0  0  0
  6 18  1  0  0  0  0
  7 19  1  1  0  0  0
  7 24  1  0  0  0  0
  8 17  1  0  0  0  0
  9 26  1  0  0  0  0
  9 15  2  0  0  0  0
 11  3  2  0  0  0  0
 11 13  1  0  0  0  0
 12  8  1  6  0  0  0
 12 13  1  0  0  0  0
 12  2  1  0  0  0  0
 13 22  2  0  0  0  0
 14 27  1  0  0  0  0
 14 23  2  0  0  0  0
 16 19  1  0  0  0  0
 17 10  1  6  0  0  0
 17  7  1  0  0  0  0
 18 15  1  0  0  0  0
 20 29  1  6  0  0  0
 20 10  1  0  0  0  0
 20  1  1  0  0  0  0
 22 21  1  0  0  0  0
 22 14  1  0  0  0  0
 27  5  2  0  0  0  0
 28 23  1  6  0  0  0
 28  6  1  0  0  0  0
 28  9  1  0  0  0  0
 30 29  1  0  0  0  0
 30 31  2  0  0  0  0
 32 30  1  0  0  0  0
M  END
>  <MODEL>
2

>  <REMARK>
 VINA RESULT:     -10.0      3.345      5.245
  Name = 
  1 active torsions:
  status: ('A' for Active; 'I' for Inactive)
    1  A    between atoms: C_20  and  N_29
                            x       y       z     vdW  Elec       q    Type
                         _______ _______ _______ _____ _____    ______ ____

>  <TORSDO>
F 1

$$$$
=
 OpenBabel11122410453D

 32 37  0  0  1  0  0  0  0  0999 V2000
  180.9580  178.8290  140.0980 C   0  0  0  0  0  2  0  0  0  0  0  0
  185.9690  178.5630  142.8830 C   0  0  1  0  0  3  0  0  0  0  0  0
  189.8150  177.8780  139.8330 C   0  0  0  0  0  3  0  0  0  0  0  0
  190.6420  177.5480  140.9080 C   0  0  0  0  0  3  0  0  0  0  0  0
  186.5060  178.3510  145.3370 C   0  0  0  0  0  0  0  0  0  0  0  0
  187.4260  177.8720  146.3730 C   0  0  2  0  0  3  0  0  0  0  0  0
  183.6990  178.1570  141.8220 N   0  0  2  0  0  0  0  0  0  0  0  0
  185.6660  178.7860  140.4260 C   0  0  0  0  0  2  0  0  0  0  0  0
  189.3720  176.9980  147.1160 C   0  0  0  0  0  0  0  0  0  0  0  0
  183.4080  179.0000  139.4880 C   0  0  0  0  0  2  0  0  0  0  0  0
  188.4470  178.0620  140.0360 C   0  0  0  0  0  3  0  0  0  0  0  0
  186.3950  178.0070  141.5220 C   0  0  1  0  0  3  0  0  0  0  0  0
  187.8910  177.9450  141.3200 C   0  0  0  0  0  0  0  0  0  0  0  0
  188.1550  177.4540  143.7530 C   0  0  0  0  0  0  0  0  0  0  0  0
  188.9890  178.0000  147.8930 C   0  0  0  0  0  3  0  0  0  0  0  0
  181.3410  177.8860  141.2410 C   0  0  0  0  0  2  0  0  0  0  0  0
  184.2050  179.0910  140.7900 C   0  0  1  0  0  3  0  0  0  0  0  0
  187.7850  178.5740  147.3960 N   0  0  0  0  0  2  0  0  0  0  0  0
  182.3370  178.5170  142.2040 C   0  0  0  0  0  2  0  0  0  0  0  0
  182.0850  179.7450  139.6140 C   0  0  1  0  0  3  0  0  0  0  0  0
  190.0970  177.4010  142.1840 C   0  0  0  0  0  3  0  0  0  0  0  0
  188.7240  177.5920  142.3990 C   0  0  0  0  0  0  0  0  0  0  0  0
  188.8760  176.9310  144.7120 N   0  0  0  0  0  0  0  0  0  0  0  0
  184.4690  178.2690  143.0740 C   0  0  0  0  0  2  0  0  0  0  0  0
  185.3620  179.2300  145.7300 C   0  0  0  0  0  1  0  0  0  0  0  0
  190.5700  176.1530  147.3660 C   0  0  0  0  0  1  0  0  0  0  0  0
  186.8090  178.0580  144.0460 C   0  0  0  0  0  0  0  0  0  0  0  0
  188.3490  176.7530  146.0650 C   0  0  2  0  0  3  0  0  0  0  0  0
  181.7140  180.3210  138.3310 N   0  0  0  0  0  2  0  0  0  0  0  0
  180.8010  181.4140  138.2130 C   0  0  0  0  0  0  0  0  0  0  0  0
  180.2570  181.9110  139.2330 O   0  0  0  0  0  0  0  0  0  0  0  0
  180.4860  181.9670  136.8690 C   0  0  0  0  0  1  0  0  0  0  0  0
  1 16  1  0  0  0  0
  2 24  1  1  0  0  0
  2 27  1  0  0  0  0
  3 11  2  0  0  0  0
  3  4  1  0  0  0  0
  4 21  2  0  0  0  0
  5 25  1  0  0  0  0
  6  5  1  6  0  0  0
  6 18  1  0  0  0  0
  7 19  1  1  0  0  0
  7 24  1  0  0  0  0
  8 17  1  0  0  0  0
  9 26  1  0  0  0  0
  9 15  2  0  0  0  0
 10 20  1  0  0  0  0
 11 13  1  0  0  0  0
 12  8  1  6  0  0  0
 12  2  1  0  0  0  0
 13 12  1  0  0  0  0
 13 22  2  0  0  0  0
 14 27  1  0  0  0  0
 14 23  2  0  0  0  0
 16 19  1  0  0  0  0
 17 10  1  6  0  0  0
 17  7  1  0  0  0  0
 18 15  1  0  0  0  0
 20 29  1  6  0  0  0
 20  1  1  0  0  0  0
 21 22  1  0  0  0  0
 22 14  1  0  0  0  0
 27  5  2  0  0  0  0
 28 23  1  6  0  0  0
 28  6  1  0  0  0  0
 28  9  1  0  0  0  0
 30 29  1  0  0  0  0
 30 31  2  0  0  0  0
 32 30  1  0  0  0  0
M  END
>  <MODEL>
3

>  <REMARK>
 VINA RESULT:      -9.5      2.998      5.034
  Name = 
  1 active torsions:
  status: ('A' for Active; 'I' for Inactive)
    1  A    between atoms: C_20  and  N_29
                            x       y       z     vdW  Elec       q    Type
                         _______ _______ _______ _____ _____    ______ ____

>  <TORSDO>
F 1

$$$$
=
 OpenBabel11122410453D

 32 37  0  0  1  0  0  0  0  0999 V2000
  187.9220  178.7000  137.0520 C   0  0  0  0  0  2  0  0  0  0  0  0
  188.6130  177.3130  142.5780 C   0  0  1  0  0  3  0  0  0  0  0  0
  184.6910  178.5230  145.3560 C   0  0  0  0  0  3  0  0  0  0  0  0
  185.4310  178.3420  146.5240 C   0  0  0  0  0  3  0  0  0  0  0  0
  190.6470  176.5750  143.8710 C   0  0  0  0  0  0  0  0  0  0  0  0
  191.3610  176.5350  145.1510 C   0  0  0  0  0  0  0  0  0  0  0  0
  188.6280  178.3580  140.2640 N   0  0  2  0  0  0  0  0  0  0  0  0
  186.4880  178.0120  141.4950 C   0  0  0  0  0  2  0  0  0  0  0  0
  191.5490  176.8300  147.3830 C   0  0  0  0  0  0  0  0  0  0  0  0
  186.4300  178.4370  139.0790 C   0  0  0  0  0  2  0  0  0  0  0  0
  185.3230  178.4580  144.1130 C   0  0  0  0  0  3  0  0  0  0  0  0
  187.4100  178.2530  142.6910 C   0  0  1  0  0  3  0  0  0  0  0  0
  186.6980  178.1870  144.0220 C   0  0  0  0  0  0  0  0  0  0  0  0
  188.8930  177.7500  145.1260 C   0  0  0  0  0  0  0  0  0  0  0  0
  192.0930  175.6770  147.0220 C   0  0  0  0  0  3  0  0  0  0  0  0
  189.0610  179.1210  137.9830 C   0  0  0  0  0  2  0  0  0  0  0  0
  187.2620  177.7900  140.1860 C   0  0  1  0  0  3  0  0  0  0  0  0
  191.9330  175.4760  145.6210 N   0  0  0  0  0  0  0  0  0  0  0  0
  189.3660  178.0670  139.0390 C   0  0  0  0  0  2  0  0  0  0  0  0
  186.8170  177.8750  137.7170 C   0  0  1  0  0  3  0  0  0  0  0  0
  186.8030  178.0990  146.4490 C   0  0  0  0  0  3  0  0  0  0  0  0
  187.4460  178.0250  145.2030 C   0  0  0  0  0  0  0  0  0  0  0  0
  189.6250  177.8030  146.2100 N   0  0  0  0  0  0  0  0  0  0  0  0
  189.4190  177.7130  141.3270 C   0  0  0  0  0  2  0  0  0  0  0  0
  191.1670  175.7700  142.7230 C   0  0  0  0  0  1  0  0  0  0  0  0
  191.5690  177.3690  148.7690 C   0  0  0  0  0  1  0  0  0  0  0  0
  189.4770  177.2620  143.8290 C   0  0  0  0  0  0  0  0  0  0  0  0
  191.0660  177.5600  146.1820 C   0  0  2  0  0  3  0  0  0  0  0  0
  185.6550  177.8410  136.8430 N   0  0  0  0  0  2  0  0  0  0  0  0
  184.9600  176.6320  136.5320 C   0  0  0  0  0  0  0  0  0  0  0  0
  185.3510  175.5280  136.9930 O   0  0  0  0  0  0  0  0  0  0  0  0
  183.7650  176.6770  135.6490 C   0  0  0  0  0  1  0  0  0  0  0  0
  1 20  1  0  0  0  0
  1 16  1  0  0  0  0
  2 24  1  6  0  0  0
  2 12  1  0  0  0  0
  2 27  1  0  0  0  0
  3  4  1  0  0  0  0
  5  6  1  0  0  0  0
  6 18  2  0  0  0  0
  7 19  1  6  0  0  0
  7 24  1  0  0  0  0
  9 26  1  0  0  0  0
 11  3  2  0  0  0  0
 12  8  1  6  0  0  0
 12 13  1  0  0  0  0
 13 11  1  0  0  0  0
 13 22  2  0  0  0  0
 14 22  1  0  0  0  0
 14 23  2  0  0  0  0
 15  9  2  0  0  0  0
 16 19  1  0  0  0  0
 17 10  1  6  0  0  0
 17  7  1  0  0  0  0
 17  8  1  0  0  0  0
 18 15  1  0  0  0  0
 20 29  1  6  0  0  0
 20 10  1  0  0  0  0
 21  4  2  0  0  0  0
 22 21  1  0  0  0  0
 25  5  1  0  0  0  0
 27  5  2  0  0  0  0
 27 14  1  0  0  0  0
 28  6  1  6  0  0  0
 28 23  1  0  0  0  0
 28  9  1  0  0  0  0
 30 29  1  0  0  0  0
 30 31  2  0  0  0  0
 32 30  1  0  0  0  0
M  END
>  <MODEL>
4

>  <REMARK>
 VINA RESULT:      -9.2      1.264      1.636
  Name = 
  1 active torsions:
  status: ('A' for Active; 'I' for Inactive)
    1  A    between atoms: C_20  and  N_29
                            x       y       z     vdW  Elec       q    Type
                         _______ _______ _______ _____ _____    ______ ____

>  <TORSDO>
F 1

$$$$
=
 OpenBabel11122410453D

 32 37  0  0  1  0  0  0  0  0999 V2000
  179.7330  178.8270  142.5270 C   0  0  0  0  0  2  0  0  0  0  0  0
  185.2510  178.6730  144.0960 C   0  0  1  0  0  3  0  0  0  0  0  0
  188.3230  178.2170  140.2330 C   0  0  0  0  0  3  0  0  0  0  0  0
  189.3820  177.8890  141.0810 C   0  0  0  0  0  3  0  0  0  0  0  0
  186.3370  178.4140  146.3560 C   0  0  0  0  0  0  0  0  0  0  0  0
  187.4830  177.9410  147.1400 C   0  0  0  0  0  0  0  0  0  0  0  0
  182.8130  178.2110  143.5620 N   0  0  2  0  0  0  0  0  0  0  0  0
  184.3920  178.9520  141.7810 C   0  0  0  0  0  2  0  0  0  0  0  0
  189.5720  177.1210  147.3930 C   0  0  0  0  0  0  0  0  0  0  0  0
  181.9740  179.1070  141.3860 C   0  0  0  0  0  2  0  0  0  0  0  0
  187.0320  178.3440  140.7470 C   0  0  0  0  0  3  0  0  0  0  0  0
  185.3740  178.1710  142.6550 C   0  0  1  0  0  3  0  0  0  0  0  0
  186.7860  178.1700  142.1190 C   0  0  0  0  0  0  0  0  0  0  0  0
  187.6100  177.6240  144.4100 C   0  0  0  0  0  0  0  0  0  0  0  0
  189.3450  178.0860  148.2710 C   0  0  0  0  0  3  0  0  0  0  0  0
  180.3940  177.8680  143.5190 C   0  0  0  0  0  2  0  0  0  0  0  0
  183.0420  179.1920  142.4750 C   0  0  1  0  0  3  0  0  0  0  0  0
  188.0430  178.6290  148.0790 N   0  0  0  0  0  0  0  0  0  0  0  0
  181.5630  178.5090  144.2540 C   0  0  0  0  0  2  0  0  0  0  0  0
  180.6920  179.7980  141.8330 C   0  0  1  0  0  3  0  0  0  0  0  0
  189.1460  177.6870  142.4420 C   0  0  0  0  0  3  0  0  0  0  0  0
  187.8520  177.8200  142.9680 C   0  0  0  0  0  0  0  0  0  0  0  0
  188.5450  177.1010  145.1620 N   0  0  0  0  0  0  0  0  0  0  0  0
  183.8430  178.3180  144.6100 C   0  0  0  0  0  2  0  0  0  0  0  0
  185.2860  179.2380  147.0290 C   0  0  0  0  0  1  0  0  0  0  0  0
  190.8200  176.3150  147.3350 C   0  0  0  0  0  1  0  0  0  0  0  0
  186.3480  178.1680  145.0210 C   0  0  0  0  0  0  0  0  0  0  0  0
  188.3460  176.8670  146.5920 C   0  0  2  0  0  3  0  0  0  0  0  0
  180.0220  180.3950  140.6880 N   0  0  0  0  0  2  0  0  0  0  0  0
  179.6330  179.6360  139.5420 C   0  0  0  0  0  0  0  0  0  0  0  0
  179.8820  178.4040  139.4710 O   0  0  0  0  0  0  0  0  0  0  0  0
  178.9310  180.3100  138.4180 C   0  0  0  0  0  1  0  0  0  0  0  0
  1 16  1  0  0  0  0
  2 24  1  1  0  0  0
  2 27  1  0  0  0  0
  3 11  2  0  0  0  0
  3  4  1  0  0  0  0
  4 21  2  0  0  0  0
  5 25  1  0  0  0  0
  5  6  1  0  0  0  0
  6 18  2  0  0  0  0
  7 19  1  1  0  0  0
  7 24  1  0  0  0  0
  8 17  1  0  0  0  0
  9 15  2  0  0  0  0
 10 20  1  0  0  0  0
 11 13  1  0  0  0  0
 12  8  1  6  0  0  0
 12  2  1  0  0  0  0
 13 12  1  0  0  0  0
 13 22  2  0  0  0  0
 14 27  1  0  0  0  0
 14 23  2  0  0  0  0
 16 19  1  0  0  0  0
 17 10  1  6  0  0  0
 17  7  1  0  0  0  0
 18 15  1  0  0  0  0
 20 29  1  6  0  0  0
 20  1  1  0  0  0  0
 21 22  1  0  0  0  0
 22 14  1  0  0  0  0
 26  9  1  0  0  0  0
 27  5  2  0  0  0  0
 28 23  1  6  0  0  0
 28  6  1  0  0  0  0
 28  9  1  0  0  0  0
 30 29  1  0  0  0  0
 31 30  2  0  0  0  0
 32 30  1  0  0  0  0
M  END
>  <MODEL>
5

>  <REMARK>
 VINA RESULT:      -9.1      3.043      5.568
  Name = 
  1 active torsions:
  status: ('A' for Active; 'I' for Inactive)
    1  A    between atoms: C_20  and  N_29
                            x       y       z     vdW  Elec       q    Type
                         _______ _______ _______ _____ _____    ______ ____

>  <TORSDO>
F 1

$$$$
=
 OpenBabel11122410453D

 32 37  0  0  1  0  0  0  0  0999 V2000
  191.3550  175.6140  136.6640 C   0  0  0  0  0  2  0  0  0  0  0  0
  188.9850  177.6320  141.4860 C   0  0  1  0  0  3  0  0  0  0  0  0
  191.8120  176.8440  145.4790 C   0  0  0  0  0  3  0  0  0  0  0  0
  190.7450  177.1470  146.3260 C   0  0  0  0  0  3  0  0  0  0  0  0
  186.6610  178.4760  141.9770 C   0  0  0  0  0  0  0  0  0  0  0  0
  185.5810  178.6540  142.9530 C   0  0  0  0  0  0  0  0  0  0  0  0
  189.6800  176.3200  139.4270 N   0  0  2  0  0  0  0  0  0  0  0  0
  191.3300  176.8550  141.2180 C   0  0  0  0  0  2  0  0  0  0  0  0
  184.6950  178.6220  145.0300 C   0  0  0  0  0  0  0  0  0  0  0  0
  192.1380  176.1470  139.0110 C   0  0  0  0  0  2  0  0  0  0  0  0
  191.6040  176.7470  144.1020 C   0  0  0  0  0  3  0  0  0  0  0  0
  190.0750  176.7380  142.0830 C   0  0  1  0  0  3  0  0  0  0  0  0
  190.3330  176.9770  143.5520 C   0  0  0  0  0  0  0  0  0  0  0  0
  187.9100  177.4960  143.8500 C   0  0  0  0  0  0  0  0  0  0  0  0
  184.3130  179.7120  144.3820 C   0  0  0  0  0  3  0  0  0  0  0  0
  189.9740  175.2830  137.2340 C   0  0  0  0  0  2  0  0  0  0  0  0
  191.0120  176.9030  139.7150 C   0  0  1  0  0  3  0  0  0  0  0  0
  184.9090  179.7490  143.0890 N   0  0  0  0  0  0  0  0  0  0  0  0
  189.3710  176.4480  138.0060 C   0  0  0  0  0  2  0  0  0  0  0  0
  192.2090  176.5350  137.5400 C   0  0  1  0  0  3  0  0  0  0  0  0
  189.4710  177.3510  145.7940 C   0  0  0  0  0  3  0  0  0  0  0  0
  189.2550  177.2630  144.4100 C   0  0  0  0  0  0  0  0  0  0  0  0
  186.8740  177.5570  144.6470 N   0  0  0  0  0  0  0  0  0  0  0  0
  188.6060  177.0700  140.1020 C   0  0  0  0  0  2  0  0  0  0  0  0
  186.5430  179.1280  140.6360 C   0  0  0  0  0  1  0  0  0  0  0  0
  184.2310  178.2520  146.3930 C   0  0  0  0  0  1  0  0  0  0  0  0
  187.7730  177.8140  142.3870 C   0  0  0  0  0  0  0  0  0  0  0  0
  185.5190  177.7650  144.1380 C   0  0  2  0  0  3  0  0  0  0  0  0
  193.5870  176.4890  137.0780 N   0  0  0  0  0  2  0  0  0  0  0  0
  194.3150  175.2670  136.9460 C   0  0  0  0  0  0  0  0  0  0  0  0
  193.7860  174.1660  137.2520 O   0  0  0  0  0  0  0  0  0  0  0  0
  195.7150  175.2940  136.4450 C   0  0  0  0  0  1  0  0  0  0  0  0
  1 16  1  0  0  0  0
  1 20  1  0  0  0  0
  2 24  1  6  0  0  0
  2 12  1  0  0  0  0
  2 27  1  0  0  0  0
  3  4  1  0  0  0  0
  5 27  2  0  0  0  0
  5  6  1  0  0  0  0
  6 18  2  0  0  0  0
  7 19  1  6  0  0  0
  7 17  1  0  0  0  0
  7 24  1  0  0  0  0
  9 26  1  0  0  0  0
 11  3  2  0  0  0  0
 12  8  1  6  0  0  0
 12 13  1  0  0  0  0
 13 11  1  0  0  0  0
 13 22  2  0  0  0  0
 14 22  1  0  0  0  0
 14 23  2  0  0  0  0
 15  9  2  0  0  0  0
 16 19  1  0  0  0  0
 17 10  1  6  0  0  0
 17  8  1  0  0  0  0
 18 15  1  0  0  0  0
 20 29  1  6  0  0  0
 20 10  1  0  0  0  0
 21  4  2  0  0  0  0
 22 21  1  0  0  0  0
 25  5  1  0  0  0  0
 27 14  1  0  0  0  0
 28  6  1  6  0  0  0
 28 23  1  0  0  0  0
 28  9  1  0  0  0  0
 30 29  1  0  0  0  0
 30 31  2  0  0  0  0
 32 30  1  0  0  0  0
M  END
>  <MODEL>
6

>  <REMARK>
 VINA RESULT:      -8.6      3.262      5.781
  Name = 
  1 active torsions:
  status: ('A' for Active; 'I' for Inactive)
    1  A    between atoms: C_20  and  N_29
                            x       y       z     vdW  Elec       q    Type
                         _______ _______ _______ _____ _____    ______ ____

>  <TORSDO>
F 1

$$$$
=
 OpenBabel11122410453D

 32 37  0  0  1  0  0  0  0  0999 V2000
  180.2490  178.9680  139.8560 C   0  0  0  0  0  2  0  0  0  0  0  0
  185.7200  178.6280  141.5550 C   0  0  1  0  0  3  0  0  0  0  0  0
  188.8920  178.4190  137.7530 C   0  0  0  0  0  3  0  0  0  0  0  0
  189.9230  178.0150  138.6020 C   0  0  0  0  0  3  0  0  0  0  0  0
  186.7410  178.1890  143.8180 C   0  0  0  0  0  0  0  0  0  0  0  0
  187.8590  177.6450  144.5950 C   0  0  2  0  0  3  0  0  0  0  0  0
  183.2930  178.2380  140.9240 N   0  0  2  0  0  0  0  0  0  0  0  0
  184.9280  179.0880  139.2450 C   0  0  0  0  0  2  0  0  0  0  0  0
  189.9320  176.7820  144.8420 C   0  0  0  0  0  0  0  0  0  0  0  0
  182.5240  179.3020  138.7980 C   0  0  0  0  0  2  0  0  0  0  0  0
  187.5890  178.5240  138.2400 C   0  0  0  0  0  3  0  0  0  0  0  0
  185.8770  178.2320  140.0850 C   0  0  1  0  0  3  0  0  0  0  0  0
  187.3040  178.2530  139.5880 C   0  0  0  0  0  0  0  0  0  0  0  0
  188.0580  177.5280  141.8540 C   0  0  0  0  0  0  0  0  0  0  0  0
  189.6920  177.6830  145.7830 C   0  0  0  0  0  3  0  0  0  0  0  0
  180.8720  177.9300  140.7920 C   0  0  0  0  0  2  0  0  0  0  0  0
  183.5620  179.2930  139.9200 C   0  0  1  0  0  3  0  0  0  0  0  0
  188.4010  178.2550  145.5970 N   0  0  0  0  0  2  0  0  0  0  0  0
  182.0270  178.5000  141.6030 C   0  0  0  0  0  2  0  0  0  0  0  0
  181.2380  179.9740  139.2620 C   0  0  1  0  0  3  0  0  0  0  0  0
  189.6490  177.7170  139.9370 C   0  0  0  0  0  3  0  0  0  0  0  0
  188.3420  177.8270  140.4370 C   0  0  0  0  0  0  0  0  0  0  0  0
  188.9670  176.9400  142.5900 N   0  0  0  0  0  0  0  0  0  0  0  0
  184.2950  178.2540  142.0050 C   0  0  0  0  0  2  0  0  0  0  0  0
  185.6810  178.9750  144.5220 C   0  0  0  0  0  1  0  0  0  0  0  0
  191.1730  175.9670  144.7590 C   0  0  0  0  0  1  0  0  0  0  0  0
  186.7860  178.0420  142.4690 C   0  0  0  0  0  0  0  0  0  0  0  0
  188.7250  176.6030  143.9920 C   0  0  2  0  0  3  0  0  0  0  0  0
  180.6060  180.6630  138.1470 N   0  0  0  0  0  2  0  0  0  0  0  0
  180.9940  181.9730  137.7310 C   0  0  0  0  0  0  0  0  0  0  0  0
  181.8990  182.6010  138.3420 O   0  0  0  0  0  0  0  0  0  0  0  0
  180.3190  182.6060  136.5670 C   0  0  0  0  0  1  0  0  0  0  0  0
  1 16  1  0  0  0  0
  2 24  1  1  0  0  0
  2 27  1  0  0  0  0
  3 11  2  0  0  0  0
  3  4  1  0  0  0  0
  4 21  2  0  0  0  0
  5 25  1  0  0  0  0
  6  5  1  6  0  0  0
  6 18  1  0  0  0  0
  7 19  1  1  0  0  0
  7 24  1  0  0  0  0
  8 17  1  0  0  0  0
  9 15  2  0  0  0  0
 10 20  1  0  0  0  0
 11 13  1  0  0  0  0
 12  8  1  6  0  0  0
 12  2  1  0  0  0  0
 13 12  1  0  0  0  0
 13 22  2  0  0  0  0
 14 27  1  0  0  0  0
 14 23  2  0  0  0  0
 16 19  1  0  0  0  0
 17 10  1  6  0  0  0
 17  7  1  0  0  0  0
 18 15  1  0  0  0  0
 20 29  1  6  0  0  0
 20  1  1  0  0  0  0
 21 22  1  0  0  0  0
 22 14  1  0  0  0  0
 26  9  1  0  0  0  0
 27  5  2  0  0  0  0
 28 23  1  6  0  0  0
 28  6  1  0  0  0  0
 28  9  1  0  0  0  0
 30 29  1  0  0  0  0
 30 31  2  0  0  0  0
 32 30  1  0  0  0  0
M  END
>  <MODEL>
7

>  <REMARK>
 VINA RESULT:      -8.5      3.239      5.431
  Name = 
  1 active torsions:
  status: ('A' for Active; 'I' for Inactive)
    1  A    between atoms: C_20  and  N_29
                            x       y       z     vdW  Elec       q    Type
                         _______ _______ _______ _____ _____    ______ ____

>  <TORSDO>
F 1

$$$$
=
 OpenBabel11122410453D

 32 37  0  0  1  0  0  0  0  0999 V2000
  187.0590  178.5300  147.5590 C   0  0  0  0  0  2  0  0  0  0  0  0
  184.5910  178.2490  142.3860 C   0  0  1  0  0  3  0  0  0  0  0  0
  187.8970  177.9530  138.7050 C   0  0  0  0  0  3  0  0  0  0  0  0
  186.9130  178.2530  137.7630 C   0  0  0  0  0  3  0  0  0  0  0  0
  182.2100  178.6280  141.6500 C   0  0  0  0  0  0  0  0  0  0  0  0
  181.2860  179.0540  140.5940 C   0  0  0  0  0  0  0  0  0  0  0  0
  185.5710  178.9130  144.6310 N   0  0  2  0  0  0  0  0  0  0  0  0
  186.9850  177.8200  142.8940 C   0  0  0  0  0  2  0  0  0  0  0  0
  180.7530  179.6640  138.4850 C   0  0  0  0  0  0  0  0  0  0  0  0
  187.7720  177.8880  145.2180 C   0  0  0  0  0  2  0  0  0  0  0  0
  187.6020  178.0230  140.0680 C   0  0  0  0  0  3  0  0  0  0  0  0
  186.0280  178.5780  141.9740 C   0  0  1  0  0  3  0  0  0  0  0  0
  186.3130  178.3680  140.5050 C   0  0  0  0  0  0  0  0  0  0  0  0
  183.9710  179.0630  139.9950 C   0  0  0  0  0  0  0  0  0  0  0  0
  179.8460  178.8290  138.9680 C   0  0  0  0  0  3  0  0  0  0  0  0
  186.0550  179.5110  146.9510 C   0  0  0  0  0  2  0  0  0  0  0  0
  186.5130  177.8030  144.3560 C   0  0  1  0  0  3  0  0  0  0  0  0
  180.2090  178.4140  140.2800 N   0  0  0  0  0  0  0  0  0  0  0  0
  185.0790  178.8290  146.0030 C   0  0  0  0  0  2  0  0  0  0  0  0
  187.4920  177.3920  146.6310 C   0  0  1  0  0  3  0  0  0  0  0  0
  185.6350  178.6230  138.1850 C   0  0  0  0  0  3  0  0  0  0  0  0
  185.3280  178.6880  139.5520 C   0  0  0  0  0  0  0  0  0  0  0  0
  183.1190  179.5570  139.1330 N   0  0  0  0  0  0  0  0  0  0  0  0
  184.3570  178.8080  143.8020 C   0  0  0  0  0  2  0  0  0  0  0  0
  181.6570  177.9990  142.8890 C   0  0  0  0  0  1  0  0  0  0  0  0
  180.6660  180.3180  137.1530 C   0  0  0  0  0  1  0  0  0  0  0  0
  183.5400  178.7270  141.3950 C   0  0  0  0  0  0  0  0  0  0  0  0
  181.7700  179.9630  139.5270 C   0  0  2  0  0  3  0  0  0  0  0  0
  188.6770  176.7530  147.1790 N   0  0  0  0  0  2  0  0  0  0  0  0
  189.9970  177.0530  146.7190 C   0  0  0  0  0  0  0  0  0  0  0  0
  190.1810  177.8810  145.7890 O   0  0  0  0  0  0  0  0  0  0  0  0
  191.1650  176.3770  147.3440 C   0  0  0  0  0  1  0  0  0  0  0  0
  2 24  1  1  0  0  0
  3 11  1  0  0  0  0
  4 21  1  0  0  0  0
  4  3  2  0  0  0  0
  5 25  1  0  0  0  0
  6  5  1  0  0  0  0
  7 24  1  6  0  0  0
  7 19  1  0  0  0  0
  9 15  2  0  0  0  0
 10 20  1  0  0  0  0
 11 13  2  0  0  0  0
 12  2  1  0  0  0  0
 12  8  1  1  0  0  0
 13 12  1  0  0  0  0
 14 27  1  0  0  0  0
 15 18  1  0  0  0  0
 16  1  1  0  0  0  0
 17  8  1  6  0  0  0
 17  7  1  0  0  0  0
 17 10  1  0  0  0  0
 18  6  2  0  0  0  0
 19 16  1  0  0  0  0
 20 29  1  1  0  0  0
 20  1  1  0  0  0  0
 21 22  2  0  0  0  0
 22 14  1  0  0  0  0
 22 13  1  0  0  0  0
 23 28  1  0  0  0  0
 23 14  2  0  0  0  0
 26  9  1  0  0  0  0
 27  5  2  0  0  0  0
 27  2  1  0  0  0  0
 28  9  1  6  0  0  0
 28  6  1  0  0  0  0
 30 29  1  0  0  0  0
 30 32  1  0  0  0  0
 31 30  2  0  0  0  0
M  END
>  <MODEL>
8

>  <REMARK>
 VINA RESULT:      -8.5      3.367      8.816
  Name = 
  1 active torsions:
  status: ('A' for Active; 'I' for Inactive)
    1  A    between atoms: C_20  and  N_29
                            x       y       z     vdW  Elec       q    Type
                         _______ _______ _______ _____ _____    ______ ____

>  <TORSDO>
F 1

$$$$
=
 OpenBabel11122410453D

 32 37  0  0  1  0  0  0  0  0999 V2000
  188.4710  177.9550  148.0540 C   0  0  0  0  0  2  0  0  0  0  0  0
  185.8140  177.9460  142.9660 C   0  0  1  0  0  3  0  0  0  0  0  0
  188.9660  177.5120  139.1660 C   0  0  0  0  0  3  0  0  0  0  0  0
  187.9720  177.8950  138.2650 C   0  0  0  0  0  3  0  0  0  0  0  0
  183.4390  178.4950  142.3230 C   0  0  0  0  0  0  0  0  0  0  0  0
  182.5100  179.0030  141.3080 C   0  0  0  0  0  0  0  0  0  0  0  0
  186.9120  178.4970  145.1880 N   0  0  2  0  0  0  0  0  0  0  0  0
  188.1910  177.3500  143.3810 C   0  0  0  0  0  2  0  0  0  0  0  0
  181.9470  179.6910  139.2320 C   0  0  0  0  0  0  0  0  0  0  0  0
  189.0590  177.3170  145.6770 C   0  0  0  0  0  2  0  0  0  0  0  0
  188.7230  177.5720  140.5400 C   0  0  0  0  0  3  0  0  0  0  0  0
  187.2550  178.1890  142.5100 C   0  0  1  0  0  3  0  0  0  0  0  0
  187.4750  177.9910  141.0280 C   0  0  0  0  0  0  0  0  0  0  0  0
  185.1680  178.8490  140.6150 C   0  0  0  0  0  0  0  0  0  0  0  0
  181.0030  178.9070  139.7300 C   0  0  0  0  0  3  0  0  0  0  0  0
  187.5140  179.0130  147.4990 C   0  0  0  0  0  2  0  0  0  0  0  0
  187.7680  177.3340  144.8590 C   0  0  1  0  0  3  0  0  0  0  0  0
  181.3830  178.4410  141.0210 N   0  0  0  0  0  0  0  0  0  0  0  0
  186.4620  178.4160  146.5740 C   0  0  0  0  0  2  0  0  0  0  0  0
  188.7950  176.8120  147.0890 C   0  0  1  0  0  3  0  0  0  0  0  0
  186.7370  178.3400  138.7390 C   0  0  0  0  0  3  0  0  0  0  0  0
  186.4810  178.3960  140.1180 C   0  0  0  0  0  0  0  0  0  0  0  0
  184.3210  179.4160  139.7930 N   0  0  0  0  0  0  0  0  0  0  0  0
  185.6660  178.4890  144.4010 C   0  0  0  0  0  2  0  0  0  0  0  0
  182.8890  177.8780  143.5690 C   0  0  0  0  0  1  0  0  0  0  0  0
  181.8580  180.3780  137.9160 C   0  0  0  0  0  1  0  0  0  0  0  0
  184.7630  178.5130  142.0230 C   0  0  0  0  0  0  0  0  0  0  0  0
  183.0170  179.9010  140.2420 C   0  0  2  0  0  3  0  0  0  0  0  0
  189.9540  176.0850  147.5830 N   0  0  0  0  0  2  0  0  0  0  0  0
  191.2890  176.3990  147.1820 C   0  0  0  0  0  0  0  0  0  0  0  0
  191.5110  177.3200  146.3530 O   0  0  0  0  0  0  0  0  0  0  0  0
  192.4270  175.6280  147.7470 C   0  0  0  0  0  1  0  0  0  0  0  0
  2 24  1  1  0  0  0
  3 11  1  0  0  0  0
  4 21  1  0  0  0  0
  4  3  2  0  0  0  0
  5 25  1  0  0  0  0
  6  5  1  0  0  0  0
  7 24  1  6  0  0  0
  7 19  1  0  0  0  0
  9 15  2  0  0  0  0
 10 20  1  0  0  0  0
 11 13  2  0  0  0  0
 12  2  1  0  0  0  0
 12  8  1  1  0  0  0
 13 12  1  0  0  0  0
 14 27  1  0  0  0  0
 15 18  1  0  0  0  0
 16  1  1  0  0  0  0
 17  8  1  6  0  0  0
 17  7  1  0  0  0  0
 17 10  1  0  0  0  0
 18  6  2  0  0  0  0
 19 16  1  0  0  0  0
 20 29  1  1  0  0  0
 20  1  1  0  0  0  0
 21 22  2  0  0  0  0
 22 14  1  0  0  0  0
 22 13  1  0  0  0  0
 23 28  1  0  0  0  0
 23 14  2  0  0  0  0
 26  9  1  0  0  0  0
 27  5  2  0  0  0  0
 27  2  1  0  0  0  0
 28  9  1  6  0  0  0
 28  6  1  0  0  0  0
 30 29  1  0  0  0  0
 30 32  1  0  0  0  0
 31 30  2  0  0  0  0
M  END
>  <MODEL>
9

>  <REMARK>
 VINA RESULT:      -7.7      3.093      8.621
  Name = 
  1 active torsions:
  status: ('A' for Active; 'I' for Inactive)
    1  A    between atoms: C_20  and  N_29
                            x       y       z     vdW  Elec       q    Type
                         _______ _______ _______ _____ _____    ______ ____

>  <TORSDO>
F 1

$$$$
