=
 OpenBabel11122410333D

 30 35  0  0  1  0  0  0  0  0999 V2000
  186.0860  178.0650  142.2560 C   0  0  2  0  0  3  0  0  0  0  0  0
  183.9110  178.6350  141.0300 C   0  0  0  0  0  0  0  0  0  0  0  0
  184.5370  179.2360  145.6770 O   0  0  0  0  0  0  0  0  0  0  0  0
  186.7180  178.3590  143.6310 C   0  0  2  0  0  3  0  0  0  0  0  0
  186.7780  178.7800  141.2640 O   0  0  0  0  0  0  0  0  0  0  0  0
  190.1850  177.9470  142.1400 O   0  0  0  0  0  1  0  0  0  0  0  0
  188.6490  176.8100  145.7630 C   0  0  2  0  0  3  0  0  0  0  0  0
  188.9180  178.5270  142.2690 C   0  0  1  0  0  3  0  0  0  0  0  0
  187.9350  178.0210  146.3570 C   0  0  2  0  0  3  0  0  0  0  0  0
  185.6240  179.0950  146.5150 C   0  0  0  0  0  0  0  0  0  0  0  0
  188.0140  178.1360  141.1020 C   0  0  2  0  0  3  0  0  0  0  0  0
  188.2580  178.1500  143.6090 C   0  0  2  0  0  3  0  0  0  0  0  0
  182.5890  178.9580  141.0520 N   0  0  0  0  0  0  0  0  0  0  0  0
  188.3160  178.0440  147.8170 C   0  0  0  0  0  2  0  0  0  0  0  0
  190.2930  176.6990  146.5270 S   0  0  0  0  0  0  0  0  0  0  0  0
  184.5550  178.4840  139.7690 N   0  0  0  0  0  1  0  0  0  0  0  0
  184.4970  178.1400  144.7770 C   0  0  2  0  0  3  0  0  0  0  0  0
  181.8940  179.0670  142.2130 C   0  0  0  0  0  3  0  0  0  0  0  0
  184.6120  178.4330  142.2420 C   0  0  0  0  0  0  0  0  0  0  0  0
  185.9370  177.5980  144.7340 C   0  0  2  0  0  3  0  0  0  0  0  0
  185.8560  179.8700  147.4780 O   0  0  0  0  0  0  0  0  0  0  0  0
  186.4220  177.8900  146.1730 C   0  0  1  0  0  3  0  0  0  0  0  0
  189.8130  177.8290  147.8740 C   0  0  0  0  0  2  0  0  0  0  0  0
  188.1330  175.7330  143.6720 O   0  0  0  0  0  1  0  0  0  0  0  0
  182.5250  178.8260  143.4290 C   0  0  0  0  0  3  0  0  0  0  0  0
  183.8820  178.4950  143.4500 C   0  0  0  0  0  0  0  0  0  0  0  0
  188.7700  176.8410  144.2330 C   0  0  2  0  0  3  0  0  0  0  0  0
  188.6380  178.5710  139.7840 C   0  0  0  0  0  2  0  0  0  0  0  0
  187.3260  178.6710  137.8050 O   0  0  0  0  0  1  0  0  0  0  0  0
  188.0230  177.7950  138.6360 C   0  0  0  0  0  2  0  0  0  0  0  0
  1  5  1  6  0  0  0
  1  4  1  0  0  0  0
  2 13  2  0  0  0  0
  2 19  1  0  0  0  0
  3 10  1  0  0  0  0
  4 20  1  0  0  0  0
  6  8  1  0  0  0  0
  7  9  1  0  0  0  0
  7 15  1  0  0  0  0
  8 12  1  0  0  0  0
  9 14  1  0  0  0  0
 10 21  2  0  0  0  0
 11  5  1  0  0  0  0
 11  8  1  0  0  0  0
 12  4  1  0  0  0  0
 12 27  1  0  0  0  0
 13 18  1  0  0  0  0
 14 23  1  0  0  0  0
 15 23  1  0  0  0  0
 16  2  1  0  0  0  0
 17  3  1  0  0  0  0
 18 25  2  0  0  0  0
 19  1  1  0  0  0  0
 19 26  2  0  0  0  0
 20 17  1  0  0  0  0
 20 22  1  0  0  0  0
 22  9  1  0  0  0  0
 22 10  1  0  0  0  0
 24 27  1  0  0  0  0
 25 26  1  0  0  0  0
 26 17  1  0  0  0  0
 27  7  1  0  0  0  0
 28 11  1  0  0  0  0
 29 30  1  0  0  0  0
 30 28  1  0  0  0  0
M  END
>  <MODEL>
1

>  <REMARK>
 VINA RESULT:      -9.9      0.000      0.000
  Name = 
  2 active torsions:
  status: ('A' for Active; 'I' for Inactive)
    1  A    between atoms: C_11  and  C_28
    2  A    between atoms: C_28  and  C_30
                            x       y       z     vdW  Elec       q    Type
                         _______ _______ _______ _____ _____    ______ ____

>  <TORSDO>
F 2

$$$$
=
 OpenBabel11122410333D

 30 35  0  0  1  0  0  0  0  0999 V2000
  187.8580  177.8310  143.8330 C   0  0  2  0  0  3  0  0  0  0  0  0
  187.1580  177.9110  146.2950 C   0  0  0  0  0  0  0  0  0  0  0  0
  184.1040  178.1200  142.6940 O   0  0  0  0  0  0  0  0  0  0  0  0
  187.1700  177.6130  142.4700 C   0  0  2  0  0  3  0  0  0  0  0  0
  188.6450  176.7080  144.1410 O   0  0  0  0  0  0  0  0  0  0  0  0
  190.4270  176.3060  141.0220 O   0  0  0  0  0  1  0  0  0  0  0  0
  187.5200  178.6980  139.4080 C   0  0  2  0  0  3  0  0  0  0  0  0
  189.3390  176.3110  141.9020 C   0  0  1  0  0  3  0  0  0  0  0  0
  186.1770  178.0210  139.6640 C   0  0  2  0  0  3  0  0  0  0  0  0
  184.2380  178.0000  141.3260 C   0  0  0  0  0  0  0  0  0  0  0  0
  189.7640  176.7650  143.2960 C   0  0  2  0  0  3  0  0  0  0  0  0
  188.1910  177.1920  141.3750 C   0  0  2  0  0  3  0  0  0  0  0  0
  186.2200  178.1440  147.2520 N   0  0  0  0  0  0  0  0  0  0  0  0
  185.3970  178.1630  138.3800 C   0  0  0  0  0  2  0  0  0  0  0  0
  188.0240  178.3170  137.7050 S   0  0  0  0  0  0  0  0  0  0  0  0
  188.4680  177.5240  146.7030 N   0  0  0  0  0  1  0  0  0  0  0  0
  185.1580  178.9240  143.1960 C   0  0  2  0  0  3  0  0  0  0  0  0
  184.9680  178.5670  146.9440 C   0  0  0  0  0  3  0  0  0  0  0  0
  186.8340  178.0760  144.9280 C   0  0  0  0  0  0  0  0  0  0  0  0
  186.2750  178.8360  142.1400 C   0  0  2  0  0  3  0  0  0  0  0  0
  183.3900  177.4200  140.5990 O   0  0  0  0  0  0  0  0  0  0  0  0
  185.4580  178.6920  140.8360 C   0  0  1  0  0  3  0  0  0  0  0  0
  186.3400  177.7810  137.2600 C   0  0  0  0  0  2  0  0  0  0  0  0
  189.0970  179.4180  141.0800 O   0  0  0  0  0  1  0  0  0  0  0  0
  184.6150  178.7950  145.6180 C   0  0  0  0  0  3  0  0  0  0  0  0
  185.5480  178.5640  144.6050 C   0  0  0  0  0  0  0  0  0  0  0  0
  188.6240  178.2970  140.3970 C   0  0  2  0  0  3  0  0  0  0  0  0
  190.8510  175.8510  143.8400 C   0  0  0  0  0  2  0  0  0  0  0  0
  191.6430  177.9050  144.7370 O   0  0  0  0  0  1  0  0  0  0  0  0
  191.5840  176.5320  144.9780 C   0  0  0  0  0  2  0  0  0  0  0  0
  1  5  1  1  0  0  0
  1 19  1  0  0  0  0
  2 16  1  0  0  0  0
  2 13  1  0  0  0  0
  3 17  1  0  0  0  0
  4  1  1  0  0  0  0
  6  8  1  0  0  0  0
  7  9  1  0  0  0  0
  7 27  1  0  0  0  0
  8 11  1  0  0  0  0
  9 22  1  0  0  0  0
 10  3  1  0  0  0  0
 11 28  1  0  0  0  0
 11  5  1  0  0  0  0
 12  8  1  0  0  0  0
 12  4  1  0  0  0  0
 14  9  1  0  0  0  0
 15  7  1  0  0  0  0
 17 26  1  0  0  0  0
 18 13  2  0  0  0  0
 19  2  2  0  0  0  0
 20  4  1  0  0  0  0
 20 17  1  0  0  0  0
 21 10  2  0  0  0  0
 22 10  1  0  0  0  0
 22 20  1  0  0  0  0
 23 15  1  0  0  0  0
 23 14  1  0  0  0  0
 25 18  1  0  0  0  0
 26 19  1  0  0  0  0
 26 25  2  0  0  0  0
 27 24  1  0  0  0  0
 27 12  1  0  0  0  0
 28 30  1  0  0  0  0
 29 30  1  0  0  0  0
M  END
>  <MODEL>
2

>  <REMARK>
 VINA RESULT:      -7.8      3.222      5.754
  Name = 
  2 active torsions:
  status: ('A' for Active; 'I' for Inactive)
    1  A    between atoms: C_11  and  C_28
    2  A    between atoms: C_28  and  C_30
                            x       y       z     vdW  Elec       q    Type
                         _______ _______ _______ _____ _____    ______ ____

>  <TORSDO>
F 2

$$$$
=
 OpenBabel11122410333D

 30 35  0  0  1  0  0  0  0  0999 V2000
  188.4490  177.7640  143.6760 C   0  0  2  0  0  3  0  0  0  0  0  0
  186.0870  178.2530  144.5370 C   0  0  0  0  0  0  0  0  0  0  0  0
  187.1260  177.5690  139.9770 O   0  0  0  0  0  0  0  0  0  0  0  0
  189.0920  177.2470  142.3740 C   0  0  2  0  0  3  0  0  0  0  0  0
  188.5580  176.7770  144.6710 O   0  0  0  0  0  0  0  0  0  0  0  0
  192.0550  175.9260  144.3450 O   0  0  0  0  0  1  0  0  0  0  0  0
  191.8440  177.7630  140.6890 C   0  0  2  0  0  3  0  0  0  0  0  0
  190.7050  176.0180  143.9890 C   0  0  1  0  0  3  0  0  0  0  0  0
  190.7610  177.0520  139.8830 C   0  0  2  0  0  3  0  0  0  0  0  0
  188.2770  177.2040  139.3090 C   0  0  0  0  0  0  0  0  0  0  0  0
  189.9050  176.7540  145.0610 C   0  0  2  0  0  3  0  0  0  0  0  0
  190.5270  176.7020  142.6210 C   0  0  2  0  0  3  0  0  0  0  0  0
  184.7910  178.5930  144.3070 N   0  0  0  0  0  0  0  0  0  0  0  0
  191.3240  176.8960  138.4920 C   0  0  0  0  0  2  0  0  0  0  0  0
  193.4540  177.1070  140.1650 S   0  0  0  0  0  0  0  0  0  0  0  0
  186.5100  178.0420  145.8820 N   0  0  0  0  0  1  0  0  0  0  0  0
  187.4480  178.5250  140.9730 C   0  0  2  0  0  3  0  0  0  0  0  0
  184.3270  178.8610  143.0600 C   0  0  0  0  0  3  0  0  0  0  0  0
  186.9930  178.1360  143.4570 C   0  0  0  0  0  0  0  0  0  0  0  0
  188.9460  178.3200  141.2630 C   0  0  2  0  0  3  0  0  0  0  0  0
  188.2810  176.4410  138.3090 O   0  0  0  0  0  0  0  0  0  0  0  0
  189.4730  177.8780  139.8790 C   0  0  1  0  0  3  0  0  0  0  0  0
  192.7370  176.3800  138.6560 C   0  0  0  0  0  2  0  0  0  0  0  0
  191.5450  178.8930  142.7950 O   0  0  0  0  0  1  0  0  0  0  0  0
  185.1900  178.8120  141.9700 C   0  0  0  0  0  3  0  0  0  0  0  0
  186.5290  178.4630  142.1630 C   0  0  0  0  0  0  0  0  0  0  0  0
  191.6810  177.6320  142.2100 C   0  0  2  0  0  3  0  0  0  0  0  0
  190.0290  176.0370  146.3970 C   0  0  0  0  0  2  0  0  0  0  0  0
  191.9760  176.7500  147.5600 O   0  0  0  0  0  1  0  0  0  0  0  0
  190.6050  176.9740  147.4400 C   0  0  0  0  0  2  0  0  0  0  0  0
  1 19  1  6  0  0  0
  1  5  1  0  0  0  0
  2 16  1  0  0  0  0
  3 17  1  0  0  0  0
  4 12  1  0  0  0  0
  4  1  1  0  0  0  0
  5 11  1  0  0  0  0
  7 27  1  0  0  0  0
  8  6  1  0  0  0  0
  8 11  1  0  0  0  0
  9  7  1  0  0  0  0
 10 22  1  0  0  0  0
 10  3  1  0  0  0  0
 11 28  1  0  0  0  0
 12  8  1  0  0  0  0
 13  2  1  0  0  0  0
 14 23  1  0  0  0  0
 14  9  1  0  0  0  0
 15  7  1  0  0  0  0
 17 20  1  0  0  0  0
 17 26  1  0  0  0  0
 18 13  2  0  0  0  0
 19  2  2  0  0  0  0
 20  4  1  0  0  0  0
 21 10  2  0  0  0  0
 22  9  1  0  0  0  0
 22 20  1  0  0  0  0
 23 15  1  0  0  0  0
 25 26  2  0  0  0  0
 25 18  1  0  0  0  0
 26 19  1  0  0  0  0
 27 12  1  0  0  0  0
 27 24  1  0  0  0  0
 28 30  1  0  0  0  0
 30 29  1  0  0  0  0
M  END
>  <MODEL>
3

>  <REMARK>
 VINA RESULT:      -7.2      2.883      6.109
  Name = 
  2 active torsions:
  status: ('A' for Active; 'I' for Inactive)
    1  A    between atoms: C_11  and  C_28
    2  A    between atoms: C_28  and  C_30
                            x       y       z     vdW  Elec       q    Type
                         _______ _______ _______ _____ _____    ______ ____

>  <TORSDO>
F 2

$$$$
=
 OpenBabel11122410333D

 30 35  0  0  1  0  0  0  0  0999 V2000
  188.3500  177.4170  139.9390 C   0  0  2  0  0  3  0  0  0  0  0  0
  187.5620  178.0000  142.3050 C   0  0  0  0  0  0  0  0  0  0  0  0
  192.1060  177.4900  141.1050 O   0  0  0  0  0  0  0  0  0  0  0  0
  189.6770  177.4340  139.1540 C   0  0  2  0  0  3  0  0  0  0  0  0
  187.5130  178.4380  139.4580 O   0  0  0  0  0  0  0  0  0  0  0  0
  187.7620  177.8440  135.9010 O   0  0  0  0  0  1  0  0  0  0  0  0
  191.1010  175.6530  136.8130 C   0  0  2  0  0  3  0  0  0  0  0  0
  188.1770  178.2110  137.1860 C   0  0  1  0  0  3  0  0  0  0  0  0
  192.0670  176.5780  137.5480 C   0  0  2  0  0  3  0  0  0  0  0  0
  192.7540  177.2800  139.9050 C   0  0  0  0  0  0  0  0  0  0  0  0
  187.0540  178.0150  138.2010 C   0  0  2  0  0  3  0  0  0  0  0  0
  189.4330  177.4310  137.6180 C   0  0  2  0  0  3  0  0  0  0  0  0
  187.8120  178.1390  143.6340 N   0  0  0  0  0  0  0  0  0  0  0  0
  193.4310  176.2820  136.9740 C   0  0  0  0  0  2  0  0  0  0  0  0
  191.6260  175.5600  135.0770 S   0  0  0  0  0  0  0  0  0  0  0  0
  186.2440  178.2520  141.8280 N   0  0  0  0  0  1  0  0  0  0  0  0
  190.9590  176.6590  141.1660 C   0  0  2  0  0  3  0  0  0  0  0  0
  189.0290  177.8670  144.1710 C   0  0  0  0  0  3  0  0  0  0  0  0
  188.5940  177.5900  141.4270 C   0  0  0  0  0  0  0  0  0  0  0  0
  190.6180  176.3290  139.7020 C   0  0  2  0  0  3  0  0  0  0  0  0
  193.8570  177.8120  139.6150 O   0  0  0  0  0  0  0  0  0  0  0  0
  192.0200  176.3090  139.0530 C   0  0  1  0  0  3  0  0  0  0  0  0
  193.2670  176.2480  135.4700 C   0  0  0  0  0  2  0  0  0  0  0  0
  188.8680  175.0790  137.5090 O   0  0  0  0  0  1  0  0  0  0  0  0
  190.0610  177.4090  143.3590 C   0  0  0  0  0  3  0  0  0  0  0  0
  189.8480  177.2560  141.9870 C   0  0  0  0  0  0  0  0  0  0  0  0
  189.6300  176.0820  136.9070 C   0  0  2  0  0  3  0  0  0  0  0  0
  185.8380  178.8400  137.8070 C   0  0  0  0  0  2  0  0  0  0  0  0
  184.4810  179.9410  139.4200 O   0  0  0  0  0  1  0  0  0  0  0  0
  184.7490  178.6960  138.8510 C   0  0  0  0  0  2  0  0  0  0  0  0
  1  5  1  6  0  0  0
  1 19  1  0  0  0  0
  2 13  1  0  0  0  0
  3 17  1  0  0  0  0
  4 20  1  0  0  0  0
  4  1  1  0  0  0  0
  6  8  1  0  0  0  0
  7 27  1  0  0  0  0
  7  9  1  0  0  0  0
  8 12  1  0  0  0  0
  8 11  1  0  0  0  0
  9 22  1  0  0  0  0
 10  3  1  0  0  0  0
 11  5  1  0  0  0  0
 12  4  1  0  0  0  0
 13 18  2  0  0  0  0
 14  9  1  0  0  0  0
 15 23  1  0  0  0  0
 15  7  1  0  0  0  0
 16  2  1  0  0  0  0
 17 26  1  0  0  0  0
 19 26  1  0  0  0  0
 19  2  2  0  0  0  0
 20 17  1  0  0  0  0
 21 10  2  0  0  0  0
 22 20  1  0  0  0  0
 22 10  1  0  0  0  0
 23 14  1  0  0  0  0
 25 18  1  0  0  0  0
 26 25  2  0  0  0  0
 27 24  1  0  0  0  0
 27 12  1  0  0  0  0
 28 11  1  0  0  0  0
 28 30  1  0  0  0  0
 30 29  1  0  0  0  0
M  END
>  <MODEL>
4

>  <REMARK>
 VINA RESULT:      -7.2      3.991      7.426
  Name = 
  2 active torsions:
  status: ('A' for Active; 'I' for Inactive)
    1  A    between atoms: C_11  and  C_28
    2  A    between atoms: C_28  and  C_30
                            x       y       z     vdW  Elec       q    Type
                         _______ _______ _______ _____ _____    ______ ____

>  <TORSDO>
F 2

$$$$
=
 OpenBabel11122410333D

 30 35  0  0  1  0  0  0  0  0999 V2000
  184.7260  178.7820  141.0890 C   0  0  2  0  0  3  0  0  0  0  0  0
  184.9390  178.6570  138.5400 C   0  0  0  0  0  0  0  0  0  0  0  0
  188.2220  177.0330  141.5280 O   0  0  0  0  0  0  0  0  0  0  0  0
  185.4220  178.1530  142.3120 C   0  0  2  0  0  3  0  0  0  0  0  0
  183.4350  178.2430  140.9620 O   0  0  0  0  0  0  0  0  0  0  0  0
  182.2570  178.6020  144.3600 O   0  0  0  0  0  1  0  0  0  0  0  0
  186.2050  179.0560  145.3530 C   0  0  2  0  0  3  0  0  0  0  0  0
  183.0240  178.1080  143.3000 C   0  0  1  0  0  3  0  0  0  0  0  0
  186.9410  177.8060  144.8820 C   0  0  2  0  0  3  0  0  0  0  0  0
  188.2780  176.9070  142.9010 C   0  0  0  0  0  0  0  0  0  0  0  0
  182.6660  178.8080  141.9910 C   0  0  2  0  0  3  0  0  0  0  0  0
  184.5320  178.2410  143.5850 C   0  0  2  0  0  3  0  0  0  0  0  0
  185.6860  178.4400  137.4240 N   0  0  0  0  0  0  0  0  0  0  0  0
  187.8860  177.4430  146.0000 C   0  0  0  0  0  2  0  0  0  0  0  0
  185.8730  178.8740  147.1300 S   0  0  0  0  0  0  0  0  0  0  0  0
  183.5710  179.0220  138.3850 N   0  0  0  0  0  1  0  0  0  0  0  0
  187.6650  178.2940  141.1980 C   0  0  2  0  0  3  0  0  0  0  0  0
  187.0080  178.1410  137.4890 C   0  0  0  0  0  3  0  0  0  0  0  0
  185.5270  178.5410  139.8210 C   0  0  0  0  0  0  0  0  0  0  0  0
  186.8600  178.7190  142.4400 C   0  0  2  0  0  3  0  0  0  0  0  0
  188.8150  175.9280  143.4810 O   0  0  0  0  0  0  0  0  0  0  0  0
  187.6930  178.0910  143.5800 C   0  0  1  0  0  3  0  0  0  0  0  0
  187.0870  177.5240  147.2820 C   0  0  0  0  0  2  0  0  0  0  0  0
  184.9670  180.5920  143.9700 O   0  0  0  0  0  1  0  0  0  0  0  0
  187.6460  178.0680  138.7230 C   0  0  0  0  0  3  0  0  0  0  0  0
  186.9140  178.2790  139.8940 C   0  0  0  0  0  0  0  0  0  0  0  0
  184.9030  179.3430  144.5910 C   0  0  2  0  0  3  0  0  0  0  0  0
  181.1900  178.6170  141.6780 C   0  0  0  0  0  2  0  0  0  0  0  0
  180.0980  180.5400  142.5520 O   0  0  0  0  0  1  0  0  0  0  0  0
  180.5450  179.9540  141.3680 C   0  0  0  0  0  2  0  0  0  0  0  0
  1 19  1  6  0  0  0
  1  4  1  0  0  0  0
  2 19  1  0  0  0  0
  3 10  1  0  0  0  0
  4 20  1  0  0  0  0
  4 12  1  0  0  0  0
  5  1  1  0  0  0  0
  5 11  1  0  0  0  0
  7 15  1  0  0  0  0
  8 12  1  0  0  0  0
  8  6  1  0  0  0  0
  9  7  1  0  0  0  0
  9 14  1  0  0  0  0
 10 21  2  0  0  0  0
 10 22  1  0  0  0  0
 11  8  1  0  0  0  0
 12 27  1  0  0  0  0
 13 18  1  0  0  0  0
 13  2  2  0  0  0  0
 14 23  1  0  0  0  0
 15 23  1  0  0  0  0
 16  2  1  0  0  0  0
 17  3  1  0  0  0  0
 17 20  1  0  0  0  0
 18 25  2  0  0  0  0
 19 26  2  0  0  0  0
 20 22  1  0  0  0  0
 22  9  1  0  0  0  0
 24 27  1  0  0  0  0
 25 26  1  0  0  0  0
 26 17  1  0  0  0  0
 27  7  1  0  0  0  0
 28 11  1  0  0  0  0
 30 28  1  0  0  0  0
 30 29  1  0  0  0  0
M  END
>  <MODEL>
5

>  <REMARK>
 VINA RESULT:      -7.2      2.078      5.091
  Name = 
  2 active torsions:
  status: ('A' for Active; 'I' for Inactive)
    1  A    between atoms: C_11  and  C_28
    2  A    between atoms: C_28  and  C_30
                            x       y       z     vdW  Elec       q    Type
                         _______ _______ _______ _____ _____    ______ ____

>  <TORSDO>
F 2

$$$$
=
 OpenBabel11122410333D

 30 35  0  0  1  0  0  0  0  0999 V2000
  186.8690  178.3030  143.2210 C   0  0  2  0  0  3  0  0  0  0  0  0
  185.3750  178.5460  145.2870 C   0  0  0  0  0  0  0  0  0  0  0  0
  183.7090  178.0360  140.8930 O   0  0  0  0  0  0  0  0  0  0  0  0
  186.7000  177.8710  141.7500 C   0  0  2  0  0  3  0  0  0  0  0  0
  187.5890  177.3160  143.9140 O   0  0  0  0  0  0  0  0  0  0  0  0
  190.3450  176.8150  141.6300 O   0  0  0  0  0  1  0  0  0  0  0  0
  187.9780  178.6780  138.8530 C   0  0  2  0  0  3  0  0  0  0  0  0
  189.0270  176.7810  142.0980 C   0  0  1  0  0  3  0  0  0  0  0  0
  186.6840  177.8780  138.7460 C   0  0  2  0  0  3  0  0  0  0  0  0
  184.3060  177.7960  139.6720 C   0  0  0  0  0  0  0  0  0  0  0  0
  188.9200  177.4190  143.4810 C   0  0  2  0  0  3  0  0  0  0  0  0
  188.0600  177.4650  141.1140 C   0  0  2  0  0  3  0  0  0  0  0  0
  184.1540  178.7630  145.8460 N   0  0  0  0  0  0  0  0  0  0  0  0
  186.3750  177.7990  137.2710 C   0  0  0  0  0  2  0  0  0  0  0  0
  189.0550  178.1900  137.4740 S   0  0  0  0  0  0  0  0  0  0  0  0
  186.4960  178.3580  146.1460 N   0  0  0  0  0  1  0  0  0  0  0  0
  184.4670  179.0040  141.6000 C   0  0  2  0  0  3  0  0  0  0  0  0
  183.0500  179.0030  145.0930 C   0  0  0  0  0  3  0  0  0  0  0  0
  185.5200  178.5340  143.8800 C   0  0  0  0  0  0  0  0  0  0  0  0
  185.8780  178.9410  140.9870 C   0  0  2  0  0  3  0  0  0  0  0  0
  183.8000  177.0520  138.7930 O   0  0  0  0  0  0  0  0  0  0  0  0
  185.5620  178.5740  139.5190 C   0  0  1  0  0  3  0  0  0  0  0  0
  187.6670  177.4200  136.5800 C   0  0  0  0  0  2  0  0  0  0  0  0
  188.8390  179.7410  140.8360 O   0  0  0  0  0  1  0  0  0  0  0  0
  183.1500  179.0550  143.7070 C   0  0  0  0  0  3  0  0  0  0  0  0
  184.3850  178.8340  143.0930 C   0  0  0  0  0  0  0  0  0  0  0  0
  188.7110  178.5090  140.1920 C   0  0  2  0  0  3  0  0  0  0  0  0
  189.8260  176.6970  144.4660 C   0  0  0  0  0  2  0  0  0  0  0  0
  189.5090  176.7530  146.8210 O   0  0  0  0  0  1  0  0  0  0  0  0
  189.9630  177.5070  145.7400 C   0  0  0  0  0  2  0  0  0  0  0  0
  1 19  1  1  0  0  0
  1  5  1  0  0  0  0
  2 13  1  0  0  0  0
  2 16  1  0  0  0  0
  3 17  1  0  0  0  0
  4  1  1  0  0  0  0
  6  8  1  0  0  0  0
  7 27  1  0  0  0  0
  8 11  1  0  0  0  0
  9  7  1  0  0  0  0
  9 22  1  0  0  0  0
 10  3  1  0  0  0  0
 11  5  1  0  0  0  0
 11 28  1  0  0  0  0
 12  4  1  0  0  0  0
 12  8  1  0  0  0  0
 14  9  1  0  0  0  0
 15  7  1  0  0  0  0
 17 26  1  0  0  0  0
 18 13  2  0  0  0  0
 19  2  2  0  0  0  0
 20 17  1  0  0  0  0
 20  4  1  0  0  0  0
 21 10  2  0  0  0  0
 22 10  1  0  0  0  0
 22 20  1  0  0  0  0
 23 14  1  0  0  0  0
 23 15  1  0  0  0  0
 25 18  1  0  0  0  0
 26 25  2  0  0  0  0
 26 19  1  0  0  0  0
 27 24  1  0  0  0  0
 27 12  1  0  0  0  0
 28 30  1  0  0  0  0
 30 29  1  0  0  0  0
M  END
>  <MODEL>
6

>  <REMARK>
 VINA RESULT:      -7.0      2.877      5.865
  Name = 
  2 active torsions:
  status: ('A' for Active; 'I' for Inactive)
    1  A    between atoms: C_11  and  C_28
    2  A    between atoms: C_28  and  C_30
                            x       y       z     vdW  Elec       q    Type
                         _______ _______ _______ _____ _____    ______ ____

>  <TORSDO>
F 2

$$$$
=
 OpenBabel11122410333D

 30 35  0  0  1  0  0  0  0  0999 V2000
  188.2030  177.8080  144.8670 C   0  0  2  0  0  3  0  0  0  0  0  0
  188.9600  177.6530  147.3080 C   0  0  0  0  0  0  0  0  0  0  0  0
  184.4980  178.4970  145.9950 O   0  0  0  0  0  0  0  0  0  0  0  0
  186.8680  177.7990  144.0960 C   0  0  2  0  0  3  0  0  0  0  0  0
  188.8860  176.6030  144.6260 O   0  0  0  0  0  0  0  0  0  0  0  0
  188.6360  176.4370  141.0250 O   0  0  0  0  0  1  0  0  0  0  0  0
  185.6400  179.2030  141.4130 C   0  0  2  0  0  3  0  0  0  0  0  0
  188.2060  176.4180  142.3560 C   0  0  1  0  0  3  0  0  0  0  0  0
  184.5770  178.5990  142.3250 C   0  0  2  0  0  3  0  0  0  0  0  0
  183.8570  178.5260  144.7740 C   0  0  0  0  0  0  0  0  0  0  0  0
  189.3680  176.6760  143.3110 C   0  0  2  0  0  3  0  0  0  0  0  0
  187.0750  177.4350  142.5980 C   0  0  2  0  0  3  0  0  0  0  0  0
  188.7240  177.8410  148.6340 N   0  0  0  0  0  0  0  0  0  0  0  0
  183.2510  178.9450  141.6910 C   0  0  0  0  0  2  0  0  0  0  0  0
  185.0930  178.9860  139.6940 S   0  0  0  0  0  0  0  0  0  0  0  0
  190.2220  177.1280  146.9070 N   0  0  0  0  0  1  0  0  0  0  0  0
  185.7470  179.1590  145.8810 C   0  0  2  0  0  3  0  0  0  0  0  0
  187.5680  178.3850  149.0900 C   0  0  0  0  0  3  0  0  0  0  0  0
  187.9730  177.9970  146.3560 C   0  0  0  0  0  0  0  0  0  0  0  0
  186.0950  179.1130  144.3820 C   0  0  2  0  0  3  0  0  0  0  0  0
  182.6870  178.0970  144.6000 O   0  0  0  0  0  0  0  0  0  0  0  0
  184.6930  179.1810  143.7350 C   0  0  1  0  0  3  0  0  0  0  0  0
  183.3840  178.6280  140.2170 C   0  0  0  0  0  2  0  0  0  0  0  0
  187.9450  179.6090  141.9820 O   0  0  0  0  0  1  0  0  0  0  0  0
  186.5860  178.7900  148.1910 C   0  0  0  0  0  3  0  0  0  0  0  0
  186.7870  178.6110  146.8200 C   0  0  0  0  0  0  0  0  0  0  0  0
  187.0430  178.6110  141.6080 C   0  0  2  0  0  3  0  0  0  0  0  0
  190.4540  175.6290  143.1150 C   0  0  0  0  0  2  0  0  0  0  0  0
  191.9410  177.4260  143.5750 O   0  0  0  0  0  1  0  0  0  0  0  0
  191.7310  176.0670  143.8050 C   0  0  0  0  0  2  0  0  0  0  0  0
  1  5  1  1  0  0  0
  1 19  1  0  0  0  0
  2 13  1  0  0  0  0
  4 20  1  0  0  0  0
  4  1  1  0  0  0  0
  6  8  1  0  0  0  0
  7 27  1  0  0  0  0
  7  9  1  0  0  0  0
  8 12  1  0  0  0  0
  8 11  1  0  0  0  0
  9 22  1  0  0  0  0
 10  3  1  0  0  0  0
 11  5  1  0  0  0  0
 12  4  1  0  0  0  0
 13 18  2  0  0  0  0
 14  9  1  0  0  0  0
 15 23  1  0  0  0  0
 15  7  1  0  0  0  0
 16  2  1  0  0  0  0
 17  3  1  0  0  0  0
 17 26  1  0  0  0  0
 19 26  1  0  0  0  0
 19  2  2  0  0  0  0
 20 17  1  0  0  0  0
 21 10  2  0  0  0  0
 22 20  1  0  0  0  0
 22 10  1  0  0  0  0
 23 14  1  0  0  0  0
 25 18  1  0  0  0  0
 26 25  2  0  0  0  0
 27 24  1  0  0  0  0
 27 12  1  0  0  0  0
 28 11  1  0  0  0  0
 28 30  1  0  0  0  0
 29 30  1  0  0  0  0
M  END
>  <MODEL>
7

>  <REMARK>
 VINA RESULT:      -7.0      3.344      5.697
  Name = 
  2 active torsions:
  status: ('A' for Active; 'I' for Inactive)
    1  A    between atoms: C_11  and  C_28
    2  A    between atoms: C_28  and  C_30
                            x       y       z     vdW  Elec       q    Type
                         _______ _______ _______ _____ _____    ______ ____

>  <TORSDO>
F 2

$$$$
=
 OpenBabel11122410333D

 30 35  0  0  1  0  0  0  0  0999 V2000
  188.2790  177.8520  142.9150 C   0  0  2  0  0  3  0  0  0  0  0  0
  185.8520  178.4310  143.4950 C   0  0  0  0  0  0  0  0  0  0  0  0
  187.3200  177.3540  139.1320 O   0  0  0  0  0  0  0  0  0  0  0  0
  189.0370  177.2220  141.7300 C   0  0  2  0  0  3  0  0  0  0  0  0
  188.2740  176.9520  143.9940 O   0  0  0  0  0  0  0  0  0  0  0  0
  191.7720  176.0500  144.0870 O   0  0  0  0  0  1  0  0  0  0  0  0
  191.9490  177.5710  140.2880 C   0  0  2  0  0  3  0  0  0  0  0  0
  190.4650  176.1220  143.5940 C   0  0  1  0  0  3  0  0  0  0  0  0
  190.9380  176.8030  139.4420 C   0  0  2  0  0  3  0  0  0  0  0  0
  188.5250  176.9260  138.6140 C   0  0  0  0  0  0  0  0  0  0  0  0
  189.5760  176.9520  144.5160 C   0  0  2  0  0  3  0  0  0  0  0  0
  190.4320  176.6890  142.1620 C   0  0  2  0  0  3  0  0  0  0  0  0
  184.5900  178.7610  143.1100 N   0  0  0  0  0  0  0  0  0  0  0  0
  191.6320  176.5250  138.1310 C   0  0  0  0  0  2  0  0  0  0  0  0
  193.5910  176.8600  139.9820 S   0  0  0  0  0  0  0  0  0  0  0  0
  186.1380  178.3320  144.8870 N   0  0  0  0  0  1  0  0  0  0  0  0
  187.5590  178.3890  140.0720 C   0  0  2  0  0  3  0  0  0  0  0  0
  184.2550  178.9260  141.8050 C   0  0  0  0  0  3  0  0  0  0  0  0
  186.8570  178.2150  142.5220 C   0  0  0  0  0  0  0  0  0  0  0  0
  189.0180  178.1970  140.5240 C   0  0  2  0  0  3  0  0  0  0  0  0
  188.6150  176.0800  137.6870 O   0  0  0  0  0  0  0  0  0  0  0  0
  189.6710  177.6350  139.2410 C   0  0  1  0  0  3  0  0  0  0  0  0
  193.0140  176.0130  138.4760 C   0  0  0  0  0  2  0  0  0  0  0  0
  191.4640  178.8780  142.2530 O   0  0  0  0  0  1  0  0  0  0  0  0
  185.2190  178.7780  140.8140 C   0  0  0  0  0  3  0  0  0  0  0  0
  186.5270  178.4350  141.1660 C   0  0  0  0  0  0  0  0  0  0  0  0
  191.6350  177.5710  141.7910 C   0  0  2  0  0  3  0  0  0  0  0  0
  189.5570  176.3500  145.9130 C   0  0  0  0  0  2  0  0  0  0  0  0
  188.3150  176.7900  147.8910 O   0  0  0  0  0  1  0  0  0  0  0  0
  189.1200  177.3910  146.9240 C   0  0  0  0  0  2  0  0  0  0  0  0
  1 19  1  6  0  0  0
  1  5  1  0  0  0  0
  2 16  1  0  0  0  0
  3 17  1  0  0  0  0
  4 12  1  0  0  0  0
  4  1  1  0  0  0  0
  5 11  1  0  0  0  0
  7 27  1  0  0  0  0
  8  6  1  0  0  0  0
  8 11  1  0  0  0  0
  9  7  1  0  0  0  0
 10  3  1  0  0  0  0
 10 22  1  0  0  0  0
 11 28  1  0  0  0  0
 12  8  1  0  0  0  0
 13  2  1  0  0  0  0
 14 23  1  0  0  0  0
 14  9  1  0  0  0  0
 15  7  1  0  0  0  0
 17 20  1  0  0  0  0
 17 26  1  0  0  0  0
 18 13  2  0  0  0  0
 19  2  2  0  0  0  0
 20  4  1  0  0  0  0
 21 10  2  0  0  0  0
 22  9  1  0  0  0  0
 22 20  1  0  0  0  0
 23 15  1  0  0  0  0
 25 26  2  0  0  0  0
 25 18  1  0  0  0  0
 26 19  1  0  0  0  0
 27 12  1  0  0  0  0
 27 24  1  0  0  0  0
 28 30  1  0  0  0  0
 30 29  1  0  0  0  0
M  END
>  <MODEL>
8

>  <REMARK>
 VINA RESULT:      -7.0      2.763      6.170
  Name = 
  2 active torsions:
  status: ('A' for Active; 'I' for Inactive)
    1  A    between atoms: C_11  and  C_28
    2  A    between atoms: C_28  and  C_30
                            x       y       z     vdW  Elec       q    Type
                         _______ _______ _______ _____ _____    ______ ____

>  <TORSDO>
F 2

$$$$
=
 OpenBabel11122410333D

 30 35  0  0  1  0  0  0  0  0999 V2000
  187.4170  177.7460  144.8790 C   0  0  2  0  0  3  0  0  0  0  0  0
  186.6800  178.0860  147.3080 C   0  0  0  0  0  0  0  0  0  0  0  0
  191.1720  178.3780  145.8650 O   0  0  0  0  0  0  0  0  0  0  0  0
  188.6770  178.0140  144.0330 C   0  0  2  0  0  3  0  0  0  0  0  0
  186.4010  178.6380  144.4940 O   0  0  0  0  0  0  0  0  0  0  0  0
  186.5420  178.2520  140.9030 O   0  0  0  0  0  1  0  0  0  0  0  0
  190.2350  176.5960  141.5350 C   0  0  2  0  0  3  0  0  0  0  0  0
  186.9640  178.6230  142.1840 C   0  0  1  0  0  3  0  0  0  0  0  0
  191.0800  177.6320  142.2700 C   0  0  2  0  0  3  0  0  0  0  0  0
  191.7760  178.3310  144.6260 C   0  0  0  0  0  0  0  0  0  0  0  0
  185.9460  178.2020  143.2410 C   0  0  2  0  0  3  0  0  0  0  0  0
  188.3510  178.0400  142.5130 C   0  0  2  0  0  3  0  0  0  0  0  0
  186.9790  178.2050  148.6300 N   0  0  0  0  0  0  0  0  0  0  0  0
  192.4390  177.5880  141.6170 C   0  0  0  0  0  2  0  0  0  0  0  0
  190.6690  176.6680  139.7730 S   0  0  0  0  0  0  0  0  0  0  0  0
  185.3130  178.1410  146.9100 N   0  0  0  0  0  1  0  0  0  0  0  0
  190.1780  177.3690  145.9380 C   0  0  2  0  0  3  0  0  0  0  0  0
  188.2510  178.1110  149.0920 C   0  0  0  0  0  3  0  0  0  0  0  0
  187.7130  177.8900  146.3620 C   0  0  0  0  0  0  0  0  0  0  0  0
  189.8120  177.0540  144.4760 C   0  0  2  0  0  3  0  0  0  0  0  0
  192.7620  179.0480  144.3120 O   0  0  0  0  0  0  0  0  0  0  0  0
  191.1620  177.2920  143.7600 C   0  0  1  0  0  3  0  0  0  0  0  0
  192.1980  177.5950  140.1230 C   0  0  0  0  0  2  0  0  0  0  0  0
  188.1660  175.6350  142.3070 O   0  0  0  0  0  1  0  0  0  0  0  0
  189.2970  177.8640  148.2080 C   0  0  0  0  0  3  0  0  0  0  0  0
  189.0340  177.7400  146.8420 C   0  0  0  0  0  0  0  0  0  0  0  0
  188.7220  176.7740  141.7230 C   0  0  2  0  0  3  0  0  0  0  0  0
  184.5930  178.8350  142.9500 C   0  0  0  0  0  2  0  0  0  0  0  0
  182.8790  178.9070  144.5960 O   0  0  0  0  0  1  0  0  0  0  0  0
  184.0620  179.5240  144.1920 C   0  0  0  0  0  2  0  0  0  0  0  0
  1  5  1  6  0  0  0
  1 19  1  0  0  0  0
  2 13  1  0  0  0  0
  3 17  1  0  0  0  0
  4 20  1  0  0  0  0
  4  1  1  0  0  0  0
  6  8  1  0  0  0  0
  7 27  1  0  0  0  0
  7  9  1  0  0  0  0
  8 12  1  0  0  0  0
  8 11  1  0  0  0  0
  9 22  1  0  0  0  0
 10  3  1  0  0  0  0
 11  5  1  0  0  0  0
 12  4  1  0  0  0  0
 13 18  2  0  0  0  0
 14  9  1  0  0  0  0
 15 23  1  0  0  0  0
 15  7  1  0  0  0  0
 16  2  1  0  0  0  0
 17 26  1  0  0  0  0
 19 26  1  0  0  0  0
 19  2  2  0  0  0  0
 20 17  1  0  0  0  0
 21 10  2  0  0  0  0
 22 20  1  0  0  0  0
 22 10  1  0  0  0  0
 23 14  1  0  0  0  0
 25 18  1  0  0  0  0
 26 25  2  0  0  0  0
 27 24  1  0  0  0  0
 27 12  1  0  0  0  0
 28 11  1  0  0  0  0
 28 30  1  0  0  0  0
 30 29  1  0  0  0  0
M  END
>  <MODEL>
9

>  <REMARK>
 VINA RESULT:      -6.9      3.056      5.889
  Name = 
  2 active torsions:
  status: ('A' for Active; 'I' for Inactive)
    1  A    between atoms: C_11  and  C_28
    2  A    between atoms: C_28  and  C_30
                            x       y       z     vdW  Elec       q    Type
                         _______ _______ _______ _____ _____    ______ ____

>  <TORSDO>
F 2

$$$$
