=
 OpenBabel11122410363D

 32 37  0  0  1  0  0  0  0  0999 V2000
  189.5530  177.3280  142.2680 C   0  0  1  0  0  3  0  0  0  0  0  0
  184.6770  178.6430  142.3550 C   0  0  0  0  0  2  0  0  0  0  0  0
  184.8860  179.0590  143.7980 C   0  0  0  0  0  2  0  0  0  0  0  0
  190.7860  176.8510  144.4070 C   0  0  0  0  0  0  0  0  0  0  0  0
  190.6600  176.8710  145.7310 C   0  0  0  0  0  0  0  0  0  0  0  0
  190.7390  177.4170  140.1420 C   0  0  0  0  0  3  0  0  0  0  0  0
  188.3390  177.8450  140.1600 C   0  0  0  0  0  3  0  0  0  0  0  0
  189.7790  177.5290  147.7160 N   0  0  0  0  0  0  0  0  0  0  0  0
  186.0060  178.7460  141.6200 C   0  0  0  0  0  2  0  0  0  0  0  0
  188.3280  177.6960  141.5930 N   0  0  0  0  0  0  0  0  0  0  0  0
  187.1360  178.0320  142.3330 C   0  0  0  0  0  0  0  0  0  0  0  0
  188.2080  177.0740  144.3430 C   0  0  2  0  0  3  0  0  0  0  0  0
  191.1600  177.3480  147.9580 N   0  0  0  0  0  0  0  0  0  0  0  0
  189.4690  177.7350  139.4550 C   0  0  0  0  0  0  0  0  0  0  0  0
  191.6920  176.9530  146.7030 N   0  0  0  0  0  0  0  0  0  0  0  0
  185.8300  178.0690  144.4640 C   0  0  0  0  0  2  0  0  0  0  0  0
  187.0950  177.8330  143.6700 C   0  0  0  0  0  0  0  0  0  0  0  0
  188.3360  177.4360  145.7660 N   0  0  0  0  0  2  0  0  0  0  0  0
  190.7840  177.2300  141.4600 C   0  0  0  0  0  3  0  0  0  0  0  0
  192.0370  176.6520  143.8320 O   0  0  0  0  0  1  0  0  0  0  0  0
  188.8650  178.0920  148.6940 C   0  0  0  0  0  1  0  0  0  0  0  0
  189.5490  177.1110  143.5990 C   0  0  0  0  0  0  0  0  0  0  0  0
  189.4570  177.2140  146.3800 C   0  0  0  0  0  0  0  0  0  0  0  0
  190.0690  176.7140  137.1670 C   0  0  2  0  0  3  0  0  0  0  0  0
  189.4160  177.8640  137.9550 C   0  0  1  0  0  3  0  0  0  0  0  0
  188.5650  176.7770  137.3210 C   0  0  1  0  0  3  0  0  0  0  0  0
  187.9750  177.2850  136.0930 N   0  0  0  0  0  2  0  0  0  0  0  0
  186.5660  177.2700  135.8690 C   0  0  0  0  0  0  0  0  0  0  0  0
  185.7800  176.8100  136.7410 O   0  0  0  0  0  0  0  0  0  0  0  0
  186.0190  177.8010  134.5940 C   0  0  0  0  0  1  0  0  0  0  0  0
  190.5910  175.5750  137.9900 C   0  0  0  0  0  3  0  0  0  0  0  0
  191.6170  174.8520  137.5530 C   0  0  0  0  0  2  0  0  0  0  0  0
  1 19  1  1  0  0  0
  1 22  1  0  0  0  0
  2  3  1  0  0  0  0
  3 16  1  0  0  0  0
  4  5  1  0  0  0  0
  5 23  2  0  0  0  0
  5 15  1  0  0  0  0
  6 19  2  0  0  0  0
  7 10  1  0  0  0  0
  8 13  1  0  0  0  0
  8 21  1  0  0  0  0
  9 11  1  0  0  0  0
  9  2  1  0  0  0  0
 10  1  1  0  0  0  0
 10 11  1  0  0  0  0
 11 17  2  0  0  0  0
 12 22  1  6  0  0  0
 12 18  1  0  0  0  0
 14  6  1  0  0  0  0
 14  7  2  0  0  0  0
 15 13  2  0  0  0  0
 17 12  1  0  0  0  0
 17 16  1  0  0  0  0
 18 23  1  0  0  0  0
 20  4  1  0  0  0  0
 22  4  2  0  0  0  0
 23  8  1  0  0  0  0
 24 26  1  0  0  0  0
 24 25  1  0  0  0  0
 24 31  1  1  0  0  0
 25 14  1  1  0  0  0
 26 27  1  6  0  0  0
 26 25  1  0  0  0  0
 28 27  1  0  0  0  0
 28 29  2  0  0  0  0
 30 28  1  0  0  0  0
 32 31  2  0  0  0  0
M  END
>  <MODEL>
1

>  <REMARK>
 VINA RESULT:     -10.3      0.000      0.000
  Name = 
  3 active torsions:
  status: ('A' for Active; 'I' for Inactive)
    1  A    between atoms: C_1  and  C_16
    2  A    between atoms: C_10  and  C_17
    3  A    between atoms: C_20  and  N_29
                            x       y       z     vdW  Elec       q    Type
                         _______ _______ _______ _____ _____    ______ ____

>  <TORSDO>
F 3

$$$$
=
 OpenBabel11122410363D

 32 37  0  0  1  0  0  0  0  0999 V2000
  187.1130  178.0300  141.9970 C   0  0  1  0  0  3  0  0  0  0  0  0
  185.2860  178.3900  146.6920 C   0  0  0  0  0  2  0  0  0  0  0  0
  183.9000  178.3230  146.0840 C   0  0  0  0  0  2  0  0  0  0  0  0
  185.6840  178.6380  140.0200 C   0  0  0  0  0  0  0  0  0  0  0  0
  184.4540  179.0070  139.6740 C   0  0  0  0  0  0  0  0  0  0  0  0
  189.3070  177.0170  141.6820 C   0  0  0  0  0  3  0  0  0  0  0  0
  188.5060  177.3880  143.9550 C   0  0  0  0  0  3  0  0  0  0  0  0
  182.2070  179.2050  139.9210 N   0  0  0  0  0  0  0  0  0  0  0  0
  186.2630  177.6840  145.7610 C   0  0  0  0  0  2  0  0  0  0  0  0
  187.2680  177.9030  143.4300 N   0  0  0  0  0  0  0  0  0  0  0  0
  186.1700  178.1670  144.3280 C   0  0  0  0  0  0  0  0  0  0  0  0
  184.9820  179.2300  142.4400 C   0  0  2  0  0  3  0  0  0  0  0  0
  182.4180  178.9990  138.5370 N   0  0  0  0  0  0  0  0  0  0  0  0
  189.4770  176.9470  143.1490 C   0  0  0  0  0  0  0  0  0  0  0  0
  183.8240  178.8620  138.4100 N   0  0  0  0  0  0  0  0  0  0  0  0
  183.8970  179.1030  144.7780 C   0  0  0  0  0  2  0  0  0  0  0  0
  185.0280  178.7110  143.8530 C   0  0  0  0  0  0  0  0  0  0  0  0
  183.6100  179.2330  141.9000 N   0  0  0  0  0  2  0  0  0  0  0  0
  188.1990  177.5200  141.1380 C   0  0  0  0  0  3  0  0  0  0  0  0
  186.6010  178.2750  139.0390 O   0  0  0  0  0  1  0  0  0  0  0  0
  180.8890  179.2360  140.5300 C   0  0  0  0  0  1  0  0  0  0  0  0
  185.9920  178.5790  141.4870 C   0  0  0  0  0  0  0  0  0  0  0  0
  183.4330  179.2430  140.6160 C   0  0  0  0  0  0  0  0  0  0  0  0
  191.8930  177.4960  143.8550 C   0  0  2  0  0  3  0  0  0  0  0  0
  190.7660  176.4520  143.7520 C   0  0  1  0  0  3  0  0  0  0  0  0
  191.0730  177.1350  145.0750 C   0  0  1  0  0  3  0  0  0  0  0  0
  191.8360  176.2280  145.9160 N   0  0  0  0  0  2  0  0  0  0  0  0
  191.9150  176.3970  147.3310 C   0  0  0  0  0  0  0  0  0  0  0  0
  191.3200  177.3510  147.9000 O   0  0  0  0  0  0  0  0  0  0  0  0
  192.7110  175.4390  148.1430 C   0  0  0  0  0  1  0  0  0  0  0  0
  191.5340  178.8870  143.4270 C   0  0  0  0  0  3  0  0  0  0  0  0
  191.2840  179.8210  144.3380 C   0  0  0  0  0  2  0  0  0  0  0  0
  1 19  1  6  0  0  0
  1 10  1  0  0  0  0
  3  2  1  0  0  0  0
  4 22  2  0  0  0  0
  5  4  1  0  0  0  0
  5 23  2  0  0  0  0
  6 14  1  0  0  0  0
  8 21  1  0  0  0  0
  8 23  1  0  0  0  0
  9  2  1  0  0  0  0
 10  7  1  0  0  0  0
 10 11  1  0  0  0  0
 11  9  1  0  0  0  0
 12 22  1  6  0  0  0
 12 17  1  0  0  0  0
 13  8  1  0  0  0  0
 14  7  2  0  0  0  0
 15 13  2  0  0  0  0
 15  5  1  0  0  0  0
 16  3  1  0  0  0  0
 17 11  2  0  0  0  0
 17 16  1  0  0  0  0
 18 12  1  0  0  0  0
 19  6  2  0  0  0  0
 20  4  1  0  0  0  0
 22  1  1  0  0  0  0
 23 18  1  0  0  0  0
 24 31  1  6  0  0  0
 24 26  1  0  0  0  0
 25 14  1  6  0  0  0
 25 24  1  0  0  0  0
 25 26  1  0  0  0  0
 26 27  1  1  0  0  0
 27 28  1  0  0  0  0
 28 29  2  0  0  0  0
 28 30  1  0  0  0  0
 31 32  2  0  0  0  0
M  END
>  <MODEL>
2

>  <REMARK>
 VINA RESULT:     -10.2      2.821      7.763
  Name = 
  3 active torsions:
  status: ('A' for Active; 'I' for Inactive)
    1  A    between atoms: C_1  and  C_16
    2  A    between atoms: C_10  and  C_17
    3  A    between atoms: C_20  and  N_29
                            x       y       z     vdW  Elec       q    Type
                         _______ _______ _______ _____ _____    ______ ____

>  <TORSDO>
F 3

$$$$
=
 OpenBabel11122410363D

 32 37  0  0  1  0  0  0  0  0999 V2000
  186.5830  178.0290  141.6350 C   0  0  1  0  0  3  0  0  0  0  0  0
  183.9490  178.5940  145.9070 C   0  0  0  0  0  2  0  0  0  0  0  0
  185.2760  178.6850  146.6330 C   0  0  0  0  0  2  0  0  0  0  0  0
  188.9700  177.2410  141.7010 C   0  0  0  0  0  0  0  0  0  0  0  0
  189.9630  176.9320  142.5310 C   0  0  0  0  0  0  0  0  0  0  0  0
  185.5790  178.7800  139.5460 C   0  0  0  0  0  3  0  0  0  0  0  0
  184.2370  178.8520  141.5810 C   0  0  0  0  0  3  0  0  0  0  0  0
  191.1150  176.9770  144.4850 N   0  0  0  0  0  0  0  0  0  0  0  0
  184.1460  179.0510  144.4680 C   0  0  0  0  0  2  0  0  0  0  0  0
  185.3650  178.3710  142.3360 N   0  0  0  0  0  0  0  0  0  0  0  0
  185.3010  178.3540  143.7780 C   0  0  0  0  0  0  0  0  0  0  0  0
  187.4360  177.1110  143.7810 C   0  0  2  0  0  3  0  0  0  0  0  0
  192.0980  176.9380  143.4680 N   0  0  0  0  0  0  0  0  0  0  0  0
  184.3190  179.0700  140.2640 C   0  0  0  0  0  0  0  0  0  0  0  0
  191.3560  176.9270  142.2580 N   0  0  0  0  0  0  0  0  0  0  0  0
  186.2540  177.7080  145.9960 C   0  0  0  0  0  2  0  0  0  0  0  0
  186.3280  177.8440  144.4920 C   0  0  0  0  0  0  0  0  0  0  0  0
  188.6950  177.1430  144.5480 N   0  0  0  0  0  2  0  0  0  0  0  0
  186.6430  178.2960  140.1850 C   0  0  0  0  0  3  0  0  0  0  0  0
  189.2180  177.3580  140.3370 O   0  0  0  0  0  1  0  0  0  0  0  0
  191.4300  177.1620  145.8900 C   0  0  0  0  0  1  0  0  0  0  0  0
  187.6270  177.5080  142.3130 C   0  0  0  0  0  0  0  0  0  0  0  0
  189.8180  176.9420  143.9330 C   0  0  0  0  0  0  0  0  0  0  0  0
  182.2400  178.4260  138.8860 C   0  0  2  0  0  3  0  0  0  0  0  0
  183.0970  179.5380  139.5190 C   0  0  1  0  0  3  0  0  0  0  0  0
  181.8120  179.0750  140.1850 C   0  0  1  0  0  3  0  0  0  0  0  0
  180.7590  180.0410  139.9180 N   0  0  0  0  0  2  0  0  0  0  0  0
  179.9970  180.6380  140.9670 C   0  0  0  0  0  0  0  0  0  0  0  0
  180.2180  180.3410  142.1720 O   0  0  0  0  0  0  0  0  0  0  0  0
  178.9310  181.6180  140.6350 C   0  0  0  0  0  1  0  0  0  0  0  0
  182.6810  177.0220  139.1710 C   0  0  0  0  0  3  0  0  0  0  0  0
  181.7970  176.1140  139.5710 C   0  0  0  0  0  2  0  0  0  0  0  0
  1 19  1  1  0  0  0
  1 22  1  0  0  0  0
  1 10  1  0  0  0  0
  2  3  1  0  0  0  0
  4 22  2  0  0  0  0
  4  5  1  0  0  0  0
  5 23  2  0  0  0  0
  6 19  2  0  0  0  0
  6 14  1  0  0  0  0
  7 10  1  0  0  0  0
  8 21  1  0  0  0  0
  9  2  1  0  0  0  0
 10 11  1  0  0  0  0
 11  9  1  0  0  0  0
 11 17  2  0  0  0  0
 12 22  1  6  0  0  0
 12 17  1  0  0  0  0
 12 18  1  0  0  0  0
 13  8  1  0  0  0  0
 14  7  2  0  0  0  0
 15  5  1  0  0  0  0
 15 13  2  0  0  0  0
 16  3  1  0  0  0  0
 17 16  1  0  0  0  0
 20  4  1  0  0  0  0
 23  8  1  0  0  0  0
 23 18  1  0  0  0  0
 24 31  1  1  0  0  0
 24 25  1  0  0  0  0
 24 26  1  0  0  0  0
 25 26  1  0  0  0  0
 25 14  1  1  0  0  0
 26 27  1  6  0  0  0
 27 28  1  0  0  0  0
 28 29  2  0  0  0  0
 30 28  1  0  0  0  0
 31 32  2  0  0  0  0
M  END
>  <MODEL>
3

>  <REMARK>
 VINA RESULT:      -9.7      3.461      5.459
  Name = 
  3 active torsions:
  status: ('A' for Active; 'I' for Inactive)
    1  A    between atoms: C_1  and  C_16
    2  A    between atoms: C_10  and  C_17
    3  A    between atoms: C_20  and  N_29
                            x       y       z     vdW  Elec       q    Type
                         _______ _______ _______ _____ _____    ______ ____

>  <TORSDO>
F 3

$$$$
=
 OpenBabel11122410363D

 32 37  0  0  1  0  0  0  0  0999 V2000
  186.4230  178.4020  142.9210 C   0  0  1  0  0  3  0  0  0  0  0  0
  189.4100  178.1260  138.8580 C   0  0  0  0  0  2  0  0  0  0  0  0
  190.3440  177.2690  139.6880 C   0  0  0  0  0  2  0  0  0  0  0  0
  187.3480  177.9670  145.2190 C   0  0  0  0  0  0  0  0  0  0  0  0
  188.4450  177.5810  145.8660 C   0  0  0  0  0  0  0  0  0  0  0  0
  184.0300  178.7100  142.5820 C   0  0  0  0  0  3  0  0  0  0  0  0
  185.5060  178.7870  140.6420 C   0  0  0  0  0  3  0  0  0  0  0  0
  190.4550  176.5550  146.0990 N   0  0  0  0  0  0  0  0  0  0  0  0
  187.9970  177.9810  139.4060 C   0  0  0  0  0  2  0  0  0  0  0  0
  186.6320  178.5040  141.4940 N   0  0  0  0  0  0  0  0  0  0  0  0
  187.9150  178.2100  140.9020 C   0  0  0  0  0  0  0  0  0  0  0  0
  188.8940  178.2950  143.1690 C   0  0  2  0  0  3  0  0  0  0  0  0
  189.7940  176.3760  147.3370 N   0  0  0  0  0  0  0  0  0  0  0  0
  184.2640  178.8710  141.1310 C   0  0  0  0  0  0  0  0  0  0  0  0
  188.5360  177.0100  147.1620 N   0  0  0  0  0  0  0  0  0  0  0  0
  190.3720  177.8070  141.1110 C   0  0  0  0  0  2  0  0  0  0  0  0
  188.9920  178.0080  141.6930 C   0  0  0  0  0  0  0  0  0  0  0  0
  189.8700  177.5090  143.9460 N   0  0  0  0  0  2  0  0  0  0  0  0
  185.0380  178.4860  143.4240 C   0  0  0  0  0  3  0  0  0  0  0  0
  186.1410  178.0720  145.9030 O   0  0  0  0  0  1  0  0  0  0  0  0
  191.7210  175.9230  145.7740 C   0  0  0  0  0  1  0  0  0  0  0  0
  187.4750  178.2110  143.7440 C   0  0  0  0  0  0  0  0  0  0  0  0
  189.6630  177.3100  145.2100 C   0  0  0  0  0  0  0  0  0  0  0  0
  182.4740  178.0040  139.4930 C   0  0  2  0  0  3  0  0  0  0  0  0
  183.1280  179.2060  140.2000 C   0  0  1  0  0  3  0  0  0  0  0  0
  181.8050  178.6430  140.6910 C   0  0  1  0  0  3  0  0  0  0  0  0
  180.7220  179.5000  140.2380 N   0  0  0  0  0  2  0  0  0  0  0  0
  180.0310  180.3780  141.1260 C   0  0  0  0  0  0  0  0  0  0  0  0
  180.3440  180.4370  142.3450 O   0  0  0  0  0  0  0  0  0  0  0  0
  178.9310  181.2310  140.6070 C   0  0  0  0  0  1  0  0  0  0  0  0
  182.9900  176.6540  139.8930 C   0  0  0  0  0  3  0  0  0  0  0  0
  182.6700  175.5800  139.1790 C   0  0  0  0  0  2  0  0  0  0  0  0
  1 19  1  6  0  0  0
  1 22  1  0  0  0  0
  2  9  1  0  0  0  0
  2  3  1  0  0  0  0
  3 16  1  0  0  0  0
  4  5  1  0  0  0  0
  4 20  1  0  0  0  0
  5 15  1  0  0  0  0
  6 19  2  0  0  0  0
  7 14  2  0  0  0  0
  7 10  1  0  0  0  0
  8 13  1  0  0  0  0
  9 11  1  0  0  0  0
 10  1  1  0  0  0  0
 11 10  1  0  0  0  0
 11 17  2  0  0  0  0
 12 17  1  6  0  0  0
 12 22  1  0  0  0  0
 12 18  1  0  0  0  0
 14  6  1  0  0  0  0
 15 13  2  0  0  0  0
 16 17  1  0  0  0  0
 18 23  1  0  0  0  0
 21  8  1  0  0  0  0
 22  4  2  0  0  0  0
 23  5  2  0  0  0  0
 23  8  1  0  0  0  0
 24 31  1  1  0  0  0
 24 25  1  0  0  0  0
 24 26  1  0  0  0  0
 25 26  1  0  0  0  0
 25 14  1  1  0  0  0
 26 27  1  6  0  0  0
 27 28  1  0  0  0  0
 28 29  2  0  0  0  0
 30 28  1  0  0  0  0
 32 31  2  0  0  0  0
M  END
>  <MODEL>
4

>  <REMARK>
 VINA RESULT:      -9.4      3.301      5.707
  Name = 
  3 active torsions:
  status: ('A' for Active; 'I' for Inactive)
    1  A    between atoms: C_1  and  C_16
    2  A    between atoms: C_10  and  C_17
    3  A    between atoms: C_20  and  N_29
                            x       y       z     vdW  Elec       q    Type
                         _______ _______ _______ _____ _____    ______ ____

>  <TORSDO>
F 3

$$$$
=
 OpenBabel11122410363D

 32 37  0  0  1  0  0  0  0  0999 V2000
  189.9370  177.5770  140.7310 C   0  0  1  0  0  3  0  0  0  0  0  0
  185.1670  179.1690  141.1930 C   0  0  0  0  0  2  0  0  0  0  0  0
  184.8740  178.4570  139.8880 C   0  0  0  0  0  2  0  0  0  0  0  0
  190.8480  176.9050  138.4850 C   0  0  0  0  0  0  0  0  0  0  0  0
  190.5050  176.7210  137.2130 C   0  0  0  0  0  0  0  0  0  0  0  0
  191.2460  177.2320  142.7570 C   0  0  0  0  0  3  0  0  0  0  0  0
  189.0160  178.2000  142.9550 C   0  0  0  0  0  3  0  0  0  0  0  0
  189.0830  176.3130  135.4920 N   0  0  0  0  0  0  0  0  0  0  0  0
  186.3470  178.4860  141.8700 C   0  0  0  0  0  2  0  0  0  0  0  0
  188.8390  178.0710  141.5320 N   0  0  0  0  0  0  0  0  0  0  0  0
  187.5410  178.3200  140.9520 C   0  0  0  0  0  0  0  0  0  0  0  0
  188.5920  178.1520  138.7220 C   0  0  2  0  0  3  0  0  0  0  0  0
  190.2890  175.6580  135.1490 N   0  0  0  0  0  0  0  0  0  0  0  0
  190.1380  177.7930  143.5590 C   0  0  0  0  0  0  0  0  0  0  0  0
  191.1550  175.9130  136.2440 N   0  0  0  0  0  0  0  0  0  0  0  0
  186.0670  178.6260  138.9570 C   0  0  0  0  0  2  0  0  0  0  0  0
  187.3820  178.2650  139.6110 C   0  0  0  0  0  0  0  0  0  0  0  0
  188.2650  177.5310  137.4250 N   0  0  0  0  0  2  0  0  0  0  0  0
  191.1540  177.1240  141.4320 C   0  0  0  0  0  3  0  0  0  0  0  0
  192.0950  176.4830  138.9350 O   0  0  0  0  0  1  0  0  0  0  0  0
  187.8580  176.1810  134.7240 C   0  0  0  0  0  1  0  0  0  0  0  0
  189.8190  177.5180  139.3880 C   0  0  0  0  0  0  0  0  0  0  0  0
  189.2100  176.9860  136.7250 C   0  0  0  0  0  0  0  0  0  0  0  0
  189.0070  177.7470  145.8740 C   0  0  2  0  0  3  0  0  0  0  0  0
  190.2830  177.9860  145.0460 C   0  0  1  0  0  3  0  0  0  0  0  0
  190.0860  176.6870  145.8100 C   0  0  1  0  0  3  0  0  0  0  0  0
  190.8720  176.7260  147.0320 N   0  0  0  0  0  2  0  0  0  0  0  0
  192.0410  175.9250  147.2040 C   0  0  0  0  0  0  0  0  0  0  0  0
  192.4310  175.1510  146.2890 O   0  0  0  0  0  0  0  0  0  0  0  0
  192.8060  176.0040  148.4750 C   0  0  0  0  0  1  0  0  0  0  0  0
  187.8130  177.2660  145.1050 C   0  0  0  0  0  3  0  0  0  0  0  0
  186.5870  177.5030  145.5600 C   0  0  0  0  0  2  0  0  0  0  0  0
  1 19  1  1  0  0  0
  1 10  1  0  0  0  0
  2  9  1  0  0  0  0
  3  2  1  0  0  0  0
  4 20  1  0  0  0  0
  4 22  2  0  0  0  0
  5  4  1  0  0  0  0
  6 14  1  0  0  0  0
  7 14  2  0  0  0  0
  8 23  1  0  0  0  0
 10  7  1  0  0  0  0
 11 10  1  0  0  0  0
 11  9  1  0  0  0  0
 12 18  1  6  0  0  0
 12 22  1  0  0  0  0
 12 17  1  0  0  0  0
 13  8  1  0  0  0  0
 13 15  2  0  0  0  0
 15  5  1  0  0  0  0
 16 17  1  0  0  0  0
 16  3  1  0  0  0  0
 17 11  2  0  0  0  0
 19  6  2  0  0  0  0
 21  8  1  0  0  0  0
 22  1  1  0  0  0  0
 23  5  2  0  0  0  0
 23 18  1  0  0  0  0
 24 31  1  6  0  0  0
 25 14  1  6  0  0  0
 25 26  1  0  0  0  0
 25 24  1  0  0  0  0
 26 24  1  0  0  0  0
 26 27  1  1  0  0  0
 27 28  1  0  0  0  0
 28 30  1  0  0  0  0
 29 28  2  0  0  0  0
 31 32  2  0  0  0  0
M  END
>  <MODEL>
5

>  <REMARK>
 VINA RESULT:      -9.1      1.930      8.117
  Name = 
  3 active torsions:
  status: ('A' for Active; 'I' for Inactive)
    1  A    between atoms: C_1  and  C_16
    2  A    between atoms: C_10  and  C_17
    3  A    between atoms: C_20  and  N_29
                            x       y       z     vdW  Elec       q    Type
                         _______ _______ _______ _____ _____    ______ ____

>  <TORSDO>
F 3

$$$$
=
 OpenBabel11122410363D

 32 37  0  0  1  0  0  0  0  0999 V2000
  187.3730  177.8420  142.0320 C   0  0  1  0  0  3  0  0  0  0  0  0
  183.3710  178.7400  144.9780 C   0  0  0  0  0  2  0  0  0  0  0  0
  184.3430  178.9270  146.1260 C   0  0  0  0  0  2  0  0  0  0  0  0
  189.5610  177.1150  143.0360 C   0  0  0  0  0  0  0  0  0  0  0  0
  190.1790  176.9060  144.1950 C   0  0  0  0  0  0  0  0  0  0  0  0
  187.2090  178.3750  139.6600 C   0  0  0  0  0  3  0  0  0  0  0  0
  185.2200  178.6050  141.0510 C   0  0  0  0  0  3  0  0  0  0  0  0
  190.5400  177.1560  146.4220 N   0  0  0  0  0  0  0  0  0  0  0  0
  184.0850  179.0670  143.6740 C   0  0  0  0  0  2  0  0  0  0  0  0
  185.9880  178.2210  142.2060 N   0  0  0  0  0  0  0  0  0  0  0  0
  185.4020  178.3350  143.5200 C   0  0  0  0  0  0  0  0  0  0  0  0
  187.3730  177.1440  144.4170 C   0  0  2  0  0  3  0  0  0  0  0  0
  191.8250  177.0440  145.8410 N   0  0  0  0  0  0  0  0  0  0  0  0
  185.7790  178.7030  139.8400 C   0  0  0  0  0  0  0  0  0  0  0  0
  191.5750  176.9060  144.4510 N   0  0  0  0  0  0  0  0  0  0  0  0
  185.4720  177.9160  145.9830 C   0  0  0  0  0  2  0  0  0  0  0  0
  186.0920  177.9150  144.6040 C   0  0  0  0  0  0  0  0  0  0  0  0
  188.2660  177.2740  145.5830 N   0  0  0  0  0  2  0  0  0  0  0  0
  187.9610  177.9760  140.6850 C   0  0  0  0  0  3  0  0  0  0  0  0
  190.2900  177.1120  141.8510 O   0  0  0  0  0  1  0  0  0  0  0  0
  190.3230  177.4760  147.8210 C   0  0  0  0  0  1  0  0  0  0  0  0
  188.0910  177.4080  143.0890 C   0  0  0  0  0  0  0  0  0  0  0  0
  189.5340  177.0420  145.4410 C   0  0  0  0  0  0  0  0  0  0  0  0
  184.7670  177.9850  137.5820 C   0  0  2  0  0  3  0  0  0  0  0  0
  184.9190  179.0740  138.6610 C   0  0  1  0  0  3  0  0  0  0  0  0
  183.6590  178.2270  138.5860 C   0  0  1  0  0  3  0  0  0  0  0  0
  182.6000  178.9980  137.9580 N   0  0  0  0  0  2  0  0  0  0  0  0
  181.6230  179.7030  138.7230 C   0  0  0  0  0  0  0  0  0  0  0  0
  181.6510  179.6770  139.9830 O   0  0  0  0  0  0  0  0  0  0  0  0
  180.5610  180.4750  138.0280 C   0  0  0  0  0  1  0  0  0  0  0  0
  185.4170  176.6700  137.8890 C   0  0  0  0  0  3  0  0  0  0  0  0
  186.0540  176.0020  136.9330 C   0  0  0  0  0  2  0  0  0  0  0  0
  1 19  1  1  0  0  0
  1 10  1  0  0  0  0
  1 22  1  0  0  0  0
  2  3  1  0  0  0  0
  4 22  2  0  0  0  0
  4  5  1  0  0  0  0
  5 15  1  0  0  0  0
  5 23  2  0  0  0  0
  6 14  1  0  0  0  0
  6 19  2  0  0  0  0
  7 10  1  0  0  0  0
  8 21  1  0  0  0  0
  9  2  1  0  0  0  0
 10 11  1  0  0  0  0
 11  9  1  0  0  0  0
 11 17  2  0  0  0  0
 12 22  1  6  0  0  0
 12 17  1  0  0  0  0
 12 18  1  0  0  0  0
 13  8  1  0  0  0  0
 14  7  2  0  0  0  0
 15 13  2  0  0  0  0
 16  3  1  0  0  0  0
 17 16  1  0  0  0  0
 20  4  1  0  0  0  0
 23 18  1  0  0  0  0
 23  8  1  0  0  0  0
 24 31  1  1  0  0  0
 24 26  1  0  0  0  0
 24 25  1  0  0  0  0
 25 14  1  1  0  0  0
 26 27  1  6  0  0  0
 26 25  1  0  0  0  0
 27 28  1  0  0  0  0
 28 29  2  0  0  0  0
 30 28  1  0  0  0  0
 32 31  2  0  0  0  0
M  END
>  <MODEL>
6

>  <REMARK>
 VINA RESULT:      -9.1      2.633      3.635
  Name = 
  3 active torsions:
  status: ('A' for Active; 'I' for Inactive)
    1  A    between atoms: C_1  and  C_16
    2  A    between atoms: C_10  and  C_17
    3  A    between atoms: C_20  and  N_29
                            x       y       z     vdW  Elec       q    Type
                         _______ _______ _______ _____ _____    ______ ____

>  <TORSDO>
F 3

$$$$
=
 OpenBabel11122410363D

 32 37  0  0  1  0  0  0  0  0999 V2000
  188.9530  177.4090  140.5510 C   0  0  1  0  0  3  0  0  0  0  0  0
  184.4510  179.0420  142.1530 C   0  0  0  0  0  2  0  0  0  0  0  0
  183.9070  178.6710  140.7880 C   0  0  0  0  0  2  0  0  0  0  0  0
  189.4540  177.2480  138.0920 C   0  0  0  0  0  0  0  0  0  0  0  0
  188.9060  177.3840  136.8870 C   0  0  0  0  0  0  0  0  0  0  0  0
  190.5250  176.5420  142.1990 C   0  0  0  0  0  3  0  0  0  0  0  0
  188.4360  177.5270  142.9800 C   0  0  0  0  0  3  0  0  0  0  0  0
  187.2090  177.4520  135.3810 N   0  0  0  0  0  0  0  0  0  0  0  0
  185.6640  178.1710  142.4500 C   0  0  0  0  0  2  0  0  0  0  0  0
  188.0340  177.7450  141.6150 N   0  0  0  0  0  0  0  0  0  0  0  0
  186.6860  178.1770  141.3320 C   0  0  0  0  0  0  0  0  0  0  0  0
  187.3660  178.4960  138.9780 C   0  0  2  0  0  3  0  0  0  0  0  0
  188.2930  176.8470  134.7020 N   0  0  0  0  0  0  0  0  0  0  0  0
  189.6010  176.9440  143.2810 C   0  0  0  0  0  0  0  0  0  0  0  0
  189.3340  176.8010  135.6650 N   0  0  0  0  0  0  0  0  0  0  0  0
  184.9520  179.0050  139.7340 C   0  0  0  0  0  2  0  0  0  0  0  0
  186.3190  178.4470  140.0590 C   0  0  0  0  0  0  0  0  0  0  0  0
  186.7960  178.2130  137.6480 N   0  0  0  0  0  2  0  0  0  0  0  0
  190.2240  176.7530  140.9180 C   0  0  0  0  0  3  0  0  0  0  0  0
  190.7170  176.6800  138.2190 O   0  0  0  0  0  1  0  0  0  0  0  0
  185.8750  177.5550  134.8190 C   0  0  0  0  0  1  0  0  0  0  0  0
  188.6260  177.6730  139.2690 C   0  0  0  0  0  0  0  0  0  0  0  0
  187.5770  177.8100  136.6950 C   0  0  0  0  0  0  0  0  0  0  0  0
  191.2050  177.5960  145.1880 C   0  0  2  0  0  3  0  0  0  0  0  0
  189.9880  176.7740  144.7270 C   0  0  1  0  0  3  0  0  0  0  0  0
  189.8020  178.0580  145.5190 C   0  0  1  0  0  3  0  0  0  0  0  0
  189.5000  177.7270  146.9020 N   0  0  0  0  0  2  0  0  0  0  0  0
  188.1820  177.8500  147.4370 C   0  0  0  0  0  0  0  0  0  0  0  0
  187.2300  178.2540  146.7170 O   0  0  0  0  0  0  0  0  0  0  0  0
  187.9310  177.4990  148.8590 C   0  0  0  0  0  1  0  0  0  0  0  0
  191.7900  178.5240  144.1670 C   0  0  0  0  0  3  0  0  0  0  0  0
  191.3060  179.7550  144.0290 C   0  0  0  0  0  2  0  0  0  0  0  0
  1 19  1  6  0  0  0
  1 10  1  0  0  0  0
  2  9  1  0  0  0  0
  3  2  1  0  0  0  0
  4 20  1  0  0  0  0
  4 22  2  0  0  0  0
  5  4  1  0  0  0  0
  6 14  1  0  0  0  0
  7 14  2  0  0  0  0
  8 23  1  0  0  0  0
 10  7  1  0  0  0  0
 11 10  1  0  0  0  0
 11  9  1  0  0  0  0
 12 18  1  6  0  0  0
 12 22  1  0  0  0  0
 12 17  1  0  0  0  0
 13  8  1  0  0  0  0
 13 15  2  0  0  0  0
 15  5  1  0  0  0  0
 16 17  1  0  0  0  0
 16  3  1  0  0  0  0
 17 11  2  0  0  0  0
 19  6  2  0  0  0  0
 21  8  1  0  0  0  0
 22  1  1  0  0  0  0
 23  5  2  0  0  0  0
 23 18  1  0  0  0  0
 24 31  1  6  0  0  0
 24 26  1  0  0  0  0
 25 14  1  6  0  0  0
 25 24  1  0  0  0  0
 25 26  1  0  0  0  0
 26 27  1  1  0  0  0
 27 28  1  0  0  0  0
 28 30  1  0  0  0  0
 29 28  2  0  0  0  0
 32 31  2  0  0  0  0
M  END
>  <MODEL>
7

>  <REMARK>
 VINA RESULT:      -9.1      1.909      7.897
  Name = 
  3 active torsions:
  status: ('A' for Active; 'I' for Inactive)
    1  A    between atoms: C_1  and  C_16
    2  A    between atoms: C_10  and  C_17
    3  A    between atoms: C_20  and  N_29
                            x       y       z     vdW  Elec       q    Type
                         _______ _______ _______ _____ _____    ______ ____

>  <TORSDO>
F 3

$$$$
=
 OpenBabel11122410363D

 32 37  0  0  1  0  0  0  0  0999 V2000
  185.7580  178.6020  141.2220 C   0  0  1  0  0  3  0  0  0  0  0  0
  187.2650  178.1330  146.0190 C   0  0  0  0  0  2  0  0  0  0  0  0
  185.8420  177.7330  146.3560 C   0  0  0  0  0  2  0  0  0  0  0  0
  183.3260  178.9320  140.6730 C   0  0  0  0  0  0  0  0  0  0  0  0
  182.1120  178.9750  141.2160 C   0  0  0  0  0  0  0  0  0  0  0  0
  187.3950  178.2470  139.4530 C   0  0  0  0  0  3  0  0  0  0  0  0
  188.1550  178.2310  141.7700 C   0  0  0  0  0  3  0  0  0  0  0  0
  180.5300  178.5370  142.7830 N   0  0  0  0  0  0  0  0  0  0  0  0
  187.5400  177.7840  144.5630 C   0  0  0  0  0  2  0  0  0  0  0  0
  186.7980  178.4250  142.2110 N   0  0  0  0  0  0  0  0  0  0  0  0
  186.4850  178.3190  143.6160 C   0  0  0  0  0  0  0  0  0  0  0  0
  184.2160  179.1450  143.0940 C   0  0  2  0  0  3  0  0  0  0  0  0
  179.8550  178.4910  141.5410 N   0  0  0  0  0  0  0  0  0  0  0  0
  188.4590  178.1260  140.4720 C   0  0  0  0  0  0  0  0  0  0  0  0
  180.8640  178.7510  140.5780 N   0  0  0  0  0  0  0  0  0  0  0  0
  184.8850  178.5700  145.5190 C   0  0  0  0  0  2  0  0  0  0  0  0
  185.2280  178.5640  144.0460 C   0  0  0  0  0  0  0  0  0  0  0  0
  182.8350  178.8110  143.4900 N   0  0  0  0  0  2  0  0  0  0  0  0
  186.1270  178.4650  139.8000 C   0  0  0  0  0  3  0  0  0  0  0  0
  183.4660  178.8980  139.2890 O   0  0  0  0  0  1  0  0  0  0  0  0
  179.9090  178.1680  144.0420 C   0  0  0  0  0  1  0  0  0  0  0  0
  184.4930  178.8590  141.6140 C   0  0  0  0  0  0  0  0  0  0  0  0
  181.8910  178.8600  142.6030 C   0  0  0  0  0  0  0  0  0  0  0  0
  190.7290  176.9990  140.9370 C   0  0  2  0  0  3  0  0  0  0  0  0
  189.9000  177.9610  140.0660 C   0  0  1  0  0  3  0  0  0  0  0  0
  190.1990  176.5480  139.5920 C   0  0  1  0  0  3  0  0  0  0  0  0
  191.2730  176.5880  138.6140 N   0  0  0  0  0  2  0  0  0  0  0  0
  191.6220  175.4480  137.8280 C   0  0  0  0  0  0  0  0  0  0  0  0
  191.0000  174.3600  137.9610 O   0  0  0  0  0  0  0  0  0  0  0  0
  192.7300  175.5460  136.8430 C   0  0  0  0  0  1  0  0  0  0  0  0
  189.9730  176.2840  142.0170 C   0  0  0  0  0  3  0  0  0  0  0  0
  190.6150  175.8160  143.0820 C   0  0  0  0  0  2  0  0  0  0  0  0
  1 19  1  1  0  0  0
  1 22  1  0  0  0  0
  1 10  1  0  0  0  0
  2  3  1  0  0  0  0
  4  5  1  0  0  0  0
  4 22  2  0  0  0  0
  5 23  2  0  0  0  0
  6 19  2  0  0  0  0
  6 14  1  0  0  0  0
  7 10  1  0  0  0  0
  8 21  1  0  0  0  0
  9  2  1  0  0  0  0
 10 11  1  0  0  0  0
 11 17  2  0  0  0  0
 11  9  1  0  0  0  0
 12 22  1  6  0  0  0
 12 18  1  0  0  0  0
 12 17  1  0  0  0  0
 13  8  1  0  0  0  0
 14  7  2  0  0  0  0
 15  5  1  0  0  0  0
 15 13  2  0  0  0  0
 16  3  1  0  0  0  0
 17 16  1  0  0  0  0
 20  4  1  0  0  0  0
 23  8  1  0  0  0  0
 23 18  1  0  0  0  0
 24 31  1  1  0  0  0
 25 14  1  1  0  0  0
 25 24  1  0  0  0  0
 26 27  1  6  0  0  0
 26 25  1  0  0  0  0
 26 24  1  0  0  0  0
 28 29  2  0  0  0  0
 28 27  1  0  0  0  0
 30 28  1  0  0  0  0
 31 32  2  0  0  0  0
M  END
>  <MODEL>
8

>  <REMARK>
 VINA RESULT:      -9.0      3.429      6.396
  Name = 
  3 active torsions:
  status: ('A' for Active; 'I' for Inactive)
    1  A    between atoms: C_1  and  C_16
    2  A    between atoms: C_10  and  C_17
    3  A    between atoms: C_20  and  N_29
                            x       y       z     vdW  Elec       q    Type
                         _______ _______ _______ _____ _____    ______ ____

>  <TORSDO>
F 3

$$$$
=
 OpenBabel11122410363D

 32 37  0  0  1  0  0  0  0  0999 V2000
  188.4730  178.0790  141.5030 C   0  0  1  0  0  3  0  0  0  0  0  0
  183.7870  179.0080  143.1410 C   0  0  0  0  0  2  0  0  0  0  0  0
  183.2880  178.4250  141.8340 C   0  0  0  0  0  2  0  0  0  0  0  0
  188.9350  177.7940  139.0470 C   0  0  0  0  0  0  0  0  0  0  0  0
  188.3440  177.7210  137.8580 C   0  0  0  0  0  0  0  0  0  0  0  0
  190.2160  177.6600  143.1530 C   0  0  0  0  0  3  0  0  0  0  0  0
  188.0010  178.3170  143.9330 C   0  0  0  0  0  3  0  0  0  0  0  0
  186.6280  177.3480  136.4200 N   0  0  0  0  0  0  0  0  0  0  0  0
  185.1450  178.4000  143.4610 C   0  0  0  0  0  2  0  0  0  0  0  0
  187.5330  178.3370  142.5710 N   0  0  0  0  0  0  0  0  0  0  0  0
  186.1220  178.4910  142.3060 C   0  0  0  0  0  0  0  0  0  0  0  0
  186.6760  178.7190  139.9090 C   0  0  2  0  0  3  0  0  0  0  0  0
  187.7880  176.8910  135.7510 N   0  0  0  0  0  0  0  0  0  0  0  0
  189.2600  177.9830  144.2340 C   0  0  0  0  0  0  0  0  0  0  0  0
  188.8420  177.1190  136.6730 N   0  0  0  0  0  0  0  0  0  0  0  0
  184.2280  178.8480  140.7150 C   0  0  0  0  0  2  0  0  0  0  0  0
  185.6820  178.5760  141.0310 C   0  0  0  0  0  0  0  0  0  0  0  0
  186.1360  178.2200  138.6310 N   0  0  0  0  0  2  0  0  0  0  0  0
  189.8500  177.7000  141.8720 C   0  0  0  0  0  3  0  0  0  0  0  0
  190.2840  177.4780  139.1720 O   0  0  0  0  0  1  0  0  0  0  0  0
  185.2840  177.1580  135.9050 C   0  0  0  0  0  1  0  0  0  0  0  0
  188.0720  178.1650  140.2180 C   0  0  0  0  0  0  0  0  0  0  0  0
  186.9550  177.8810  137.6840 C   0  0  0  0  0  0  0  0  0  0  0  0
  188.5900  177.8180  146.7160 C   0  0  2  0  0  3  0  0  0  0  0  0
  189.7050  178.0150  145.6730 C   0  0  1  0  0  3  0  0  0  0  0  0
  189.5120  176.6730  146.3580 C   0  0  1  0  0  3  0  0  0  0  0  0
  190.5150  176.5170  147.3990 N   0  0  0  0  0  2  0  0  0  0  0  0
  191.8060  175.9730  147.1280 C   0  0  0  0  0  0  0  0  0  0  0  0
  192.1190  175.6050  145.9640 O   0  0  0  0  0  0  0  0  0  0  0  0
  192.7920  175.8360  148.2320 C   0  0  0  0  0  1  0  0  0  0  0  0
  187.2260  177.5300  146.1650 C   0  0  0  0  0  3  0  0  0  0  0  0
  186.1430  177.9500  146.8110 C   0  0  0  0  0  2  0  0  0  0  0  0
  1 19  1  1  0  0  0
  1 10  1  0  0  0  0
  2  9  1  0  0  0  0
  3  2  1  0  0  0  0
  4 20  1  0  0  0  0
  4 22  2  0  0  0  0
  5  4  1  0  0  0  0
  6 14  1  0  0  0  0
  7 14  2  0  0  0  0
  8 23  1  0  0  0  0
 10  7  1  0  0  0  0
 11 10  1  0  0  0  0
 11  9  1  0  0  0  0
 12 18  1  6  0  0  0
 12 22  1  0  0  0  0
 12 17  1  0  0  0  0
 13  8  1  0  0  0  0
 13 15  2  0  0  0  0
 15  5  1  0  0  0  0
 16 17  1  0  0  0  0
 16  3  1  0  0  0  0
 17 11  2  0  0  0  0
 19  6  2  0  0  0  0
 21  8  1  0  0  0  0
 22  1  1  0  0  0  0
 23  5  2  0  0  0  0
 23 18  1  0  0  0  0
 24 31  1  6  0  0  0
 25 14  1  6  0  0  0
 25 26  1  0  0  0  0
 25 24  1  0  0  0  0
 26 24  1  0  0  0  0
 26 27  1  1  0  0  0
 28 27  1  0  0  0  0
 28 30  1  0  0  0  0
 29 28  2  0  0  0  0
 31 32  2  0  0  0  0
M  END
>  <MODEL>
9

>  <REMARK>
 VINA RESULT:      -8.8      1.855      8.061
  Name = 
  3 active torsions:
  status: ('A' for Active; 'I' for Inactive)
    1  A    between atoms: C_1  and  C_16
    2  A    between atoms: C_10  and  C_17
    3  A    between atoms: C_20  and  N_29
                            x       y       z     vdW  Elec       q    Type
                         _______ _______ _______ _____ _____    ______ ____

>  <TORSDO>
F 3

$$$$
