=
 OpenBabel11122412273D

 34 37  0  0  1  0  0  0  0  0999 V2000
  188.8470  177.3340  145.6710 C   0  0  2  0  0  3  0  0  0  0  0  0
  190.8420  176.4530  144.4440 C   0  0  0  0  0  2  0  0  0  0  0  0
  186.5860  177.7840  146.5710 C   0  0  0  0  0  2  0  0  0  0  0  0
  189.3890  178.0130  143.2140 C   0  0  2  0  0  3  0  0  0  0  0  0
  189.3620  178.2970  140.3040 C   0  0  0  0  0  2  0  0  0  0  0  0
  187.9240  177.6310  142.8670 C   0  0  1  0  0  3  0  0  0  0  0  0
  190.9330  176.1680  142.9580 C   0  0  0  0  0  2  0  0  0  0  0  0
  189.9050  177.0890  140.9150 N   0  0  0  0  0  0  0  0  0  0  0  0
  187.5270  178.0440  145.3860 C   0  0  2  0  0  3  0  0  0  0  0  0
  186.9750  177.4640  144.0840 C   0  0  1  0  0  3  0  0  0  0  0  0
  188.2430  177.4950  148.0780 C   0  0  0  0  0  2  0  0  0  0  0  0
  187.8470  178.2890  140.4250 C   0  0  0  0  0  2  0  0  0  0  0  0
  187.1450  178.3110  147.7490 O   0  0  0  0  0  0  0  0  0  0  0  0
  187.4040  178.6370  141.8380 C   0  0  0  0  0  2  0  0  0  0  0  0
  190.4250  177.4150  142.2510 C   0  0  1  0  0  3  0  0  0  0  0  0
  189.3670  177.6970  147.0620 C   0  0  0  0  0  2  0  0  0  0  0  0
  189.9020  177.6360  144.6120 C   0  0  1  0  0  3  0  0  0  0  0  0
  185.4880  177.7500  143.8180 C   0  0  0  0  0  2  0  0  0  0  0  0
  185.1710  179.2390  143.8670 C   0  0  0  0  0  2  0  0  0  0  0  0
  183.5510  179.1500  145.6250 O   0  0  0  0  0  1  0  0  0  0  0  0
  183.7230  179.4550  144.2720 C   0  0  2  0  0  3  0  0  0  0  0  0
  182.8040  178.5960  143.4060 C   0  0  1  0  0  3  0  0  0  0  0  0
  181.5680  178.4190  144.0310 O   0  0  0  0  0  1  0  0  0  0  0  0
  182.5940  179.2260  142.0360 C   0  0  0  0  0  2  0  0  0  0  0  0
  183.4360  178.5300  140.9770 C   0  0  0  0  0  2  0  0  0  0  0  0
  184.3280  179.4340  140.3990 O   0  0  0  0  0  0  0  0  0  0  0  0
  184.3980  179.0480  139.0610 C   0  0  0  0  0  1  0  0  0  0  0  0
  191.0320  176.7010  140.0780 C   0  0  0  0  0  2  0  0  0  0  0  0
  190.5600  175.8840  138.9710 N   0  0  0  0  0  2  0  0  0  0  0  0
  191.5770  175.9440  137.9300 C   0  0  1  0  0  3  0  0  0  0  0  0
  193.9700  175.8370  138.2120 O   0  0  0  0  0  1  0  0  0  0  0  0
  192.8420  176.6310  138.4320 C   0  0  0  0  0  2  0  0  0  0  0  0
  191.9190  174.2920  137.2120 S   0  0  0  0  0  0  0  0  0  0  0  0
  190.1790  173.8150  136.9680 C   0  0  0  0  0  1  0  0  0  0  0  0
  1 16  1  1  0  0  0
  2 17  1  0  0  0  0
  3 13  1  0  0  0  0
  4 17  1  0  0  0  0
  5 12  1  0  0  0  0
  5  8  1  0  0  0  0
  6  4  1  0  0  0  0
  6 10  1  0  0  0  0
  7  2  1  0  0  0  0
  8 15  1  0  0  0  0
  9  1  1  0  0  0  0
  9  3  1  0  0  0  0
 10  9  1  0  0  0  0
 12 14  1  0  0  0  0
 13 11  1  0  0  0  0
 14  6  1  0  0  0  0
 15  7  1  0  0  0  0
 15  4  1  0  0  0  0
 16 11  1  0  0  0  0
 17  1  1  0  0  0  0
 18 19  1  0  0  0  0
 18 10  1  0  0  0  0
 19 21  1  0  0  0  0
 21 20  1  0  0  0  0
 22 23  1  0  0  0  0
 22 21  1  0  0  0  0
 24 22  1  0  0  0  0
 25 24  1  0  0  0  0
 26 25  1  0  0  0  0
 27 26  1  0  0  0  0
 28  8  1  0  0  0  0
 29 28  1  0  0  0  0
 30 32  1  0  0  0  0
 30 29  1  0  0  0  0
 31 32  1  0  0  0  0
 33 30  1  0  0  0  0
 34 33  1  0  0  0  0
M  END
>  <MODEL>
1

>  <REMARK>
 VINA RESULT:      -8.0      0.000      0.000
  Name = 
  12 active torsions:
  status: ('A' for Active; 'I' for Inactive)
    1  A    between atoms: C_3  and  C_16
    2  A    between atoms: C_3  and  C_19
    3  A    between atoms: C_5  and  C_11
    4  A    between atoms: C_5  and  C_19
    5  A    between atoms: C_8  and  O_12
    6  A    between atoms: C_8  and  C_16
    7  A    between atoms: C_11  and  C_20
    8  A    between atoms: N_17  and  C_28
    9  A    between atoms: C_28  and  N_29
   10  A    between atoms: N_29  and  C_32
   11  A    between atoms: S_31  and  C_32
   12  A    between atoms: C_32  and  C_34
                            x       y       z     vdW  Elec       q    Type
                         _______ _______ _______ _____ _____    ______ ____

>  <TORSDO>
F 12

$$$$
=
 OpenBabel11122412273D

 34 37  0  0  1  0  0  0  0  0999 V2000
  188.9140  177.5330  146.3230 C   0  0  2  0  0  3  0  0  0  0  0  0
  186.7350  178.4430  147.1530 C   0  0  0  0  0  2  0  0  0  0  0  0
  191.1060  177.1670  145.2340 C   0  0  0  0  0  2  0  0  0  0  0  0
  186.7610  177.5640  144.8540 C   0  0  2  0  0  3  0  0  0  0  0  0
  184.7490  178.1880  142.8260 C   0  0  0  0  0  2  0  0  0  0  0  0
  187.6160  178.2450  143.7510 C   0  0  1  0  0  3  0  0  0  0  0  0
  185.6810  179.1510  146.3260 C   0  0  0  0  0  2  0  0  0  0  0  0
  184.9130  179.0590  143.9840 N   0  0  0  0  0  0  0  0  0  0  0  0
  189.5880  177.1450  145.0090 C   0  0  2  0  0  3  0  0  0  0  0  0
  189.1530  178.1700  143.9610 C   0  0  1  0  0  3  0  0  0  0  0  0
  190.9830  176.7350  147.4480 C   0  0  0  0  0  2  0  0  0  0  0  0
  185.9220  178.3810  141.8770 C   0  0  0  0  0  2  0  0  0  0  0  0
  191.4560  176.2290  146.2220 O   0  0  0  0  0  0  0  0  0  0  0  0
  187.1730  177.6880  142.3970 C   0  0  0  0  0  2  0  0  0  0  0  0
  185.4220  178.2690  145.1150 C   0  0  1  0  0  3  0  0  0  0  0  0
  189.4550  176.6910  147.4780 C   0  0  0  0  0  2  0  0  0  0  0  0
  187.3950  177.4170  146.2460 C   0  0  1  0  0  3  0  0  0  0  0  0
  190.0070  178.2000  142.6830 C   0  0  0  0  0  2  0  0  0  0  0  0
  189.8610  176.9240  141.8640 C   0  0  0  0  0  2  0  0  0  0  0  0
  192.0180  177.7310  141.2170 O   0  0  0  0  0  1  0  0  0  0  0  0
  191.0660  176.7420  140.9570 C   0  0  2  0  0  3  0  0  0  0  0  0
  190.6320  176.7850  139.4940 C   0  0  1  0  0  3  0  0  0  0  0  0
  190.7910  175.5320  138.8990 O   0  0  0  0  0  1  0  0  0  0  0  0
  189.1810  177.2280  139.3640 C   0  0  0  0  0  2  0  0  0  0  0  0
  189.0790  178.5770  138.6700 C   0  0  0  0  0  2  0  0  0  0  0  0
  187.7920  178.7640  138.1650 O   0  0  0  0  0  0  0  0  0  0  0  0
  187.9290  178.6000  136.7880 C   0  0  0  0  0  1  0  0  0  0  0  0
  183.5720  179.5140  144.3230 C   0  0  0  0  0  2  0  0  0  0  0  0
  182.6170  178.4440  144.0860 N   0  0  0  0  0  2  0  0  0  0  0  0
  181.4350  179.0470  143.4880 C   0  0  1  0  0  3  0  0  0  0  0  0
  180.3190  178.7840  141.3660 O   0  0  0  0  0  1  0  0  0  0  0  0
  181.5420  179.0850  141.9670 C   0  0  0  0  0  2  0  0  0  0  0  0
  179.8910  178.2380  144.0570 S   0  0  0  0  0  0  0  0  0  0  0  0
  178.9340  179.7700  144.2830 C   0  0  0  0  0  1  0  0  0  0  0  0
  1 16  1  1  0  0  0
  3 13  1  0  0  0  0
  4 15  1  0  0  0  0
  4 17  1  0  0  0  0
  5  8  1  0  0  0  0
  6 10  1  0  0  0  0
  6  4  1  0  0  0  0
  7  2  1  0  0  0  0
  8 28  1  0  0  0  0
  8 15  1  0  0  0  0
  9  3  1  0  0  0  0
  9  1  1  0  0  0  0
 10  9  1  0  0  0  0
 11 16  1  0  0  0  0
 12 14  1  0  0  0  0
 12  5  1  0  0  0  0
 13 11  1  0  0  0  0
 14  6  1  0  0  0  0
 15  7  1  0  0  0  0
 17  1  1  0  0  0  0
 17  2  1  0  0  0  0
 18 10  1  0  0  0  0
 19 18  1  0  0  0  0
 21 20  1  0  0  0  0
 21 19  1  0  0  0  0
 22 21  1  0  0  0  0
 23 22  1  0  0  0  0
 24 22  1  0  0  0  0
 25 24  1  0  0  0  0
 26 25  1  0  0  0  0
 27 26  1  0  0  0  0
 29 28  1  0  0  0  0
 30 33  1  0  0  0  0
 30 29  1  0  0  0  0
 31 32  1  0  0  0  0
 32 30  1  0  0  0  0
 33 34  1  0  0  0  0
M  END
>  <MODEL>
2

>  <REMARK>
 VINA RESULT:      -8.0      3.728      7.497
  Name = 
  12 active torsions:
  status: ('A' for Active; 'I' for Inactive)
    1  A    between atoms: C_3  and  C_16
    2  A    between atoms: C_3  and  C_19
    3  A    between atoms: C_5  and  C_11
    4  A    between atoms: C_5  and  C_19
    5  A    between atoms: C_8  and  O_12
    6  A    between atoms: C_8  and  C_16
    7  A    between atoms: C_11  and  C_20
    8  A    between atoms: N_17  and  C_28
    9  A    between atoms: C_28  and  N_29
   10  A    between atoms: N_29  and  C_32
   11  A    between atoms: S_31  and  C_32
   12  A    between atoms: C_32  and  C_34
                            x       y       z     vdW  Elec       q    Type
                         _______ _______ _______ _____ _____    ______ ____

>  <TORSDO>
F 12

$$$$
=
 OpenBabel11122412273D

 34 37  0  0  1  0  0  0  0  0999 V2000
  188.7550  177.4060  145.6320 C   0  0  2  0  0  3  0  0  0  0  0  0
  190.7400  176.5290  144.3860 C   0  0  0  0  0  2  0  0  0  0  0  0
  186.5040  177.8450  146.5610 C   0  0  0  0  0  2  0  0  0  0  0  0
  189.2520  178.0570  143.1570 C   0  0  2  0  0  3  0  0  0  0  0  0
  189.1760  178.3010  140.2450 C   0  0  0  0  0  2  0  0  0  0  0  0
  187.7860  177.6550  142.8390 C   0  0  1  0  0  3  0  0  0  0  0  0
  190.8110  176.2250  142.9030 C   0  0  0  0  0  2  0  0  0  0  0  0
  189.7410  177.1070  140.8630 N   0  0  0  0  0  0  0  0  0  0  0  0
  187.4230  178.0990  145.3580 C   0  0  2  0  0  3  0  0  0  0  0  0
  186.8580  177.4950  144.0720 C   0  0  1  0  0  3  0  0  0  0  0  0
  188.1870  177.5940  148.0460 C   0  0  0  0  0  2  0  0  0  0  0  0
  187.6630  178.2790  140.3900 C   0  0  0  0  0  2  0  0  0  0  0  0
  187.0750  178.3940  147.7230 O   0  0  0  0  0  0  0  0  0  0  0  0
  187.2380  178.6410  141.8050 C   0  0  0  0  0  2  0  0  0  0  0  0
  190.2790  177.4560  142.1870 C   0  0  1  0  0  3  0  0  0  0  0  0
  189.2930  177.7930  147.0090 C   0  0  0  0  0  2  0  0  0  0  0  0
  189.7910  177.7040  144.5520 C   0  0  1  0  0  3  0  0  0  0  0  0
  185.3640  177.7620  143.8270 C   0  0  0  0  0  2  0  0  0  0  0  0
  185.0770  179.2370  143.5760 C   0  0  0  0  0  2  0  0  0  0  0  0
  183.6390  178.9450  145.4650 O   0  0  0  0  0  1  0  0  0  0  0  0
  183.7860  179.6450  144.2650 C   0  0  2  0  0  3  0  0  0  0  0  0
  182.5960  179.3880  143.3430 C   0  0  1  0  0  3  0  0  0  0  0  0
  183.0090  178.7320  142.1820 O   0  0  0  0  0  1  0  0  0  0  0  0
  181.5290  178.5580  144.0420 C   0  0  0  0  0  2  0  0  0  0  0  0
  180.1450  178.8630  143.4880 C   0  0  0  0  0  2  0  0  0  0  0  0
  179.6050  177.7250  142.8900 O   0  0  0  0  0  0  0  0  0  0  0  0
  179.3960  178.0940  141.5610 C   0  0  0  0  0  1  0  0  0  0  0  0
  190.8590  176.7190  140.0140 C   0  0  0  0  0  2  0  0  0  0  0  0
  190.3680  175.9590  138.8760 N   0  0  0  0  0  2  0  0  0  0  0  0
  191.4170  175.9690  137.8670 C   0  0  1  0  0  3  0  0  0  0  0  0
  193.6700  176.7040  137.4150 O   0  0  0  0  0  1  0  0  0  0  0  0
  192.7050  176.5750  138.4160 C   0  0  0  0  0  2  0  0  0  0  0  0
  191.6850  174.3080  137.1400 S   0  0  0  0  0  0  0  0  0  0  0  0
  191.2330  174.7600  135.4360 C   0  0  0  0  0  1  0  0  0  0  0  0
  1 16  1  1  0  0  0
  2 17  1  0  0  0  0
  3 13  1  0  0  0  0
  4 17  1  0  0  0  0
  5 12  1  0  0  0  0
  5  8  1  0  0  0  0
  6  4  1  0  0  0  0
  6 10  1  0  0  0  0
  7  2  1  0  0  0  0
  8 15  1  0  0  0  0
  9  1  1  0  0  0  0
  9  3  1  0  0  0  0
 10  9  1  0  0  0  0
 12 14  1  0  0  0  0
 13 11  1  0  0  0  0
 14  6  1  0  0  0  0
 15  7  1  0  0  0  0
 15  4  1  0  0  0  0
 16 11  1  0  0  0  0
 17  1  1  0  0  0  0
 18 10  1  0  0  0  0
 19 18  1  0  0  0  0
 19 21  1  0  0  0  0
 21 20  1  0  0  0  0
 22 24  1  0  0  0  0
 22 21  1  0  0  0  0
 23 22  1  0  0  0  0
 25 24  1  0  0  0  0
 26 25  1  0  0  0  0
 27 26  1  0  0  0  0
 28  8  1  0  0  0  0
 29 28  1  0  0  0  0
 30 32  1  0  0  0  0
 30 29  1  0  0  0  0
 31 32  1  0  0  0  0
 33 30  1  0  0  0  0
 34 33  1  0  0  0  0
M  END
>  <MODEL>
3

>  <REMARK>
 VINA RESULT:      -7.8      1.086      1.709
  Name = 
  12 active torsions:
  status: ('A' for Active; 'I' for Inactive)
    1  A    between atoms: C_3  and  C_16
    2  A    between atoms: C_3  and  C_19
    3  A    between atoms: C_5  and  C_11
    4  A    between atoms: C_5  and  C_19
    5  A    between atoms: C_8  and  O_12
    6  A    between atoms: C_8  and  C_16
    7  A    between atoms: C_11  and  C_20
    8  A    between atoms: N_17  and  C_28
    9  A    between atoms: C_28  and  N_29
   10  A    between atoms: N_29  and  C_32
   11  A    between atoms: S_31  and  C_32
   12  A    between atoms: C_32  and  C_34
                            x       y       z     vdW  Elec       q    Type
                         _______ _______ _______ _____ _____    ______ ____

>  <TORSDO>
F 12

$$$$
=
 OpenBabel11122412273D

 34 37  0  0  1  0  0  0  0  0999 V2000
  188.8180  177.2960  145.4040 C   0  0  2  0  0  3  0  0  0  0  0  0
  190.7020  176.4450  143.9940 C   0  0  0  0  0  2  0  0  0  0  0  0
  186.6420  177.7230  146.5030 C   0  0  0  0  0  2  0  0  0  0  0  0
  189.1490  178.0270  142.9240 C   0  0  2  0  0  3  0  0  0  0  0  0
  188.8740  178.3700  140.0340 C   0  0  0  0  0  2  0  0  0  0  0  0
  187.6600  177.6480  142.6950 C   0  0  1  0  0  3  0  0  0  0  0  0
  190.6660  176.1910  142.5000 C   0  0  0  0  0  2  0  0  0  0  0  0
  189.4670  177.1510  140.5710 N   0  0  0  0  0  0  0  0  0  0  0  0
  187.4780  178.0090  145.2480 C   0  0  2  0  0  3  0  0  0  0  0  0
  186.8180  177.4540  143.9850 C   0  0  1  0  0  3  0  0  0  0  0  0
  188.4220  177.4070  147.8570 C   0  0  0  0  0  2  0  0  0  0  0  0
  187.3740  178.3560  140.2830 C   0  0  0  0  0  2  0  0  0  0  0  0
  187.2990  178.2270  147.6390 O   0  0  0  0  0  0  0  0  0  0  0  0
  187.0530  178.6730  141.7360 C   0  0  0  0  0  2  0  0  0  0  0  0
  190.0990  177.4500  141.8650 C   0  0  1  0  0  3  0  0  0  0  0  0
  189.4550  177.6320  146.7530 C   0  0  0  0  0  2  0  0  0  0  0  0
  189.7790  177.6220  144.2650 C   0  0  1  0  0  3  0  0  0  0  0  0
  185.3140  177.7420  143.8530 C   0  0  0  0  0  2  0  0  0  0  0  0
  185.0260  179.2270  143.6740 C   0  0  0  0  0  2  0  0  0  0  0  0
  183.4560  179.0900  145.4740 O   0  0  0  0  0  1  0  0  0  0  0  0
  183.6270  179.5540  144.1670 C   0  0  2  0  0  3  0  0  0  0  0  0
  182.5850  178.9370  143.2370 C   0  0  1  0  0  3  0  0  0  0  0  0
  181.4430  179.7380  143.1810 O   0  0  0  0  0  1  0  0  0  0  0  0
  183.1450  178.7510  141.8330 C   0  0  0  0  0  2  0  0  0  0  0  0
  182.0410  178.8180  140.7890 C   0  0  0  0  0  2  0  0  0  0  0  0
  181.4420  177.5660  140.6390 O   0  0  0  0  0  0  0  0  0  0  0  0
  181.6880  177.2180  139.3120 C   0  0  0  0  0  1  0  0  0  0  0  0
  190.5190  176.7820  139.6330 C   0  0  0  0  0  2  0  0  0  0  0  0
  190.2010  177.3020  138.3130 N   0  0  0  0  0  2  0  0  0  0  0  0
  190.8380  176.4250  137.3420 C   0  0  1  0  0  3  0  0  0  0  0  0
  190.7030  174.0220  137.5030 O   0  0  0  0  0  1  0  0  0  0  0  0
  191.3550  175.1510  138.0020 C   0  0  0  0  0  2  0  0  0  0  0  0
  189.7430  176.0740  135.9140 S   0  0  0  0  0  0  0  0  0  0  0  0
  188.1770  176.4250  136.7720 C   0  0  0  0  0  1  0  0  0  0  0  0
  1 16  1  1  0  0  0
  2 17  1  0  0  0  0
  3 13  1  0  0  0  0
  4 17  1  0  0  0  0
  5 12  1  0  0  0  0
  5  8  1  0  0  0  0
  6  4  1  0  0  0  0
  6 10  1  0  0  0  0
  7  2  1  0  0  0  0
  8 15  1  0  0  0  0
  9  1  1  0  0  0  0
  9  3  1  0  0  0  0
 10  9  1  0  0  0  0
 12 14  1  0  0  0  0
 13 11  1  0  0  0  0
 14  6  1  0  0  0  0
 15  7  1  0  0  0  0
 15  4  1  0  0  0  0
 16 11  1  0  0  0  0
 17  1  1  0  0  0  0
 18 10  1  0  0  0  0
 19 18  1  0  0  0  0
 19 21  1  0  0  0  0
 21 20  1  0  0  0  0
 22 21  1  0  0  0  0
 23 22  1  0  0  0  0
 24 22  1  0  0  0  0
 25 24  1  0  0  0  0
 26 25  1  0  0  0  0
 27 26  1  0  0  0  0
 28  8  1  0  0  0  0
 29 28  1  0  0  0  0
 30 32  1  0  0  0  0
 30 29  1  0  0  0  0
 31 32  1  0  0  0  0
 33 34  1  0  0  0  0
 33 30  1  0  0  0  0
M  END
>  <MODEL>
4

>  <REMARK>
 VINA RESULT:      -7.6      1.405      1.478
  Name = 
  12 active torsions:
  status: ('A' for Active; 'I' for Inactive)
    1  A    between atoms: C_3  and  C_16
    2  A    between atoms: C_3  and  C_19
    3  A    between atoms: C_5  and  C_11
    4  A    between atoms: C_5  and  C_19
    5  A    between atoms: C_8  and  O_12
    6  A    between atoms: C_8  and  C_16
    7  A    between atoms: C_11  and  C_20
    8  A    between atoms: N_17  and  C_28
    9  A    between atoms: C_28  and  N_29
   10  A    between atoms: N_29  and  C_32
   11  A    between atoms: S_31  and  C_32
   12  A    between atoms: C_32  and  C_34
                            x       y       z     vdW  Elec       q    Type
                         _______ _______ _______ _____ _____    ______ ____

>  <TORSDO>
F 12

$$$$
=
 OpenBabel11122412273D

 34 37  0  0  1  0  0  0  0  0999 V2000
  187.9510  177.7200  146.2260 C   0  0  2  0  0  3  0  0  0  0  0  0
  185.6160  178.4870  146.6990 C   0  0  0  0  0  2  0  0  0  0  0  0
  190.3030  177.4960  145.4930 C   0  0  0  0  0  2  0  0  0  0  0  0
  186.0530  177.6050  144.4430 C   0  0  2  0  0  3  0  0  0  0  0  0
  184.3430  178.0910  142.1220 C   0  0  0  0  0  2  0  0  0  0  0  0
  187.0230  178.3390  143.4760 C   0  0  1  0  0  3  0  0  0  0  0  0
  184.6590  179.1220  145.7110 C   0  0  0  0  0  2  0  0  0  0  0  0
  184.2690  178.9740  143.2800 N   0  0  0  0  0  0  0  0  0  0  0  0
  188.8430  177.3740  145.0370 C   0  0  2  0  0  3  0  0  0  0  0  0
  188.5100  178.3660  143.9220 C   0  0  1  0  0  3  0  0  0  0  0  0
  189.8690  177.0630  147.6660 C   0  0  0  0  0  2  0  0  0  0  0  0
  185.6330  178.3590  141.3620 C   0  0  0  0  0  2  0  0  0  0  0  0
  190.5560  176.5860  146.5350 O   0  0  0  0  0  0  0  0  0  0  0  0
  186.8310  177.7510  142.0770 C   0  0  0  0  0  2  0  0  0  0  0  0
  184.6470  178.2210  144.4860 C   0  0  1  0  0  3  0  0  0  0  0  0
  188.3600  176.9180  147.4610 C   0  0  0  0  0  2  0  0  0  0  0  0
  186.4720  177.5040  145.9170 C   0  0  1  0  0  3  0  0  0  0  0  0
  189.5480  178.4490  142.7900 C   0  0  0  0  0  2  0  0  0  0  0  0
  189.7640  177.1040  142.1080 C   0  0  0  0  0  2  0  0  0  0  0  0
  192.0330  177.6670  142.6130 O   0  0  0  0  0  1  0  0  0  0  0  0
  191.2270  176.9310  141.7410 C   0  0  2  0  0  3  0  0  0  0  0  0
  191.4600  177.3670  140.2960 C   0  0  1  0  0  3  0  0  0  0  0  0
  192.8170  177.6070  140.0700 O   0  0  0  0  0  1  0  0  0  0  0  0
  190.9620  176.3130  139.3170 C   0  0  0  0  0  2  0  0  0  0  0  0
  189.8110  176.8440  138.4770 C   0  0  0  0  0  2  0  0  0  0  0  0
  189.5440  178.1730  138.8100 O   0  0  0  0  0  0  0  0  0  0  0  0
  188.1820  178.3300  138.5540 C   0  0  0  0  0  1  0  0  0  0  0  0
  182.8650  179.3410  143.4030 C   0  0  0  0  0  2  0  0  0  0  0  0
  182.1590  178.9870  142.1820 N   0  0  0  0  0  2  0  0  0  0  0  0
  180.8590  178.4630  142.5750 C   0  0  1  0  0  3  0  0  0  0  0  0
  179.4090  178.1000  144.4680 O   0  0  0  0  0  1  0  0  0  0  0  0
  180.5630  178.7600  144.0410 C   0  0  0  0  0  2  0  0  0  0  0  0
  179.5220  179.0450  141.4640 S   0  0  0  0  0  0  0  0  0  0  0  0
  179.4600  180.7500  142.1000 C   0  0  0  0  0  1  0  0  0  0  0  0
  1 16  1  1  0  0  0
  3 13  1  0  0  0  0
  4 15  1  0  0  0  0
  4 17  1  0  0  0  0
  5  8  1  0  0  0  0
  6 10  1  0  0  0  0
  6  4  1  0  0  0  0
  7  2  1  0  0  0  0
  8 28  1  0  0  0  0
  8 15  1  0  0  0  0
  9  3  1  0  0  0  0
  9  1  1  0  0  0  0
 10  9  1  0  0  0  0
 12 14  1  0  0  0  0
 12  5  1  0  0  0  0
 13 11  1  0  0  0  0
 14  6  1  0  0  0  0
 15  7  1  0  0  0  0
 16 11  1  0  0  0  0
 17  1  1  0  0  0  0
 17  2  1  0  0  0  0
 18 10  1  0  0  0  0
 19 18  1  0  0  0  0
 21 19  1  0  0  0  0
 21 20  1  0  0  0  0
 22 21  1  0  0  0  0
 23 22  1  0  0  0  0
 24 22  1  0  0  0  0
 25 26  1  0  0  0  0
 25 24  1  0  0  0  0
 27 26  1  0  0  0  0
 29 30  1  0  0  0  0
 29 28  1  0  0  0  0
 30 32  1  0  0  0  0
 32 31  1  0  0  0  0
 33 34  1  0  0  0  0
 33 30  1  0  0  0  0
M  END
>  <MODEL>
5

>  <REMARK>
 VINA RESULT:      -7.1      3.598      7.733
  Name = 
  12 active torsions:
  status: ('A' for Active; 'I' for Inactive)
    1  A    between atoms: C_3  and  C_16
    2  A    between atoms: C_3  and  C_19
    3  A    between atoms: C_5  and  C_11
    4  A    between atoms: C_5  and  C_19
    5  A    between atoms: C_8  and  O_12
    6  A    between atoms: C_8  and  C_16
    7  A    between atoms: C_11  and  C_20
    8  A    between atoms: N_17  and  C_28
    9  A    between atoms: C_28  and  N_29
   10  A    between atoms: N_29  and  C_32
   11  A    between atoms: S_31  and  C_32
   12  A    between atoms: C_32  and  C_34
                            x       y       z     vdW  Elec       q    Type
                         _______ _______ _______ _____ _____    ______ ____

>  <TORSDO>
F 12

$$$$
=
 OpenBabel11122412273D

 34 37  0  0  1  0  0  0  0  0999 V2000
  187.2870  178.0950  140.8920 C   0  0  2  0  0  3  0  0  0  0  0  0
  185.0580  178.4910  139.8250 C   0  0  0  0  0  2  0  0  0  0  0  0
  189.2210  177.2140  142.1600 C   0  0  0  0  0  2  0  0  0  0  0  0
  185.2720  179.1080  142.1990 C   0  0  2  0  0  3  0  0  0  0  0  0
  183.0120  179.5120  144.0090 C   0  0  0  0  0  2  0  0  0  0  0  0
  185.5300  178.0260  143.2820 C   0  0  1  0  0  3  0  0  0  0  0  0
  183.7050  178.3890  140.5010 C   0  0  0  0  0  2  0  0  0  0  0  0
  182.8360  178.7450  142.7810 N   0  0  0  0  0  0  0  0  0  0  0  0
  187.9130  178.0080  142.2810 C   0  0  2  0  0  3  0  0  0  0  0  0
  186.9010  177.3040  143.1870 C   0  0  1  0  0  3  0  0  0  0  0  0
  189.5840  177.7610  140.0000 C   0  0  0  0  0  2  0  0  0  0  0  0
  183.8060  178.6900  145.0110 C   0  0  0  0  0  2  0  0  0  0  0  0
  190.1080  177.8850  141.3000 O   0  0  0  0  0  0  0  0  0  0  0  0
  185.2850  178.6600  144.6530 C   0  0  0  0  0  2  0  0  0  0  0  0
  183.8000  179.2140  141.7740 C   0  0  1  0  0  3  0  0  0  0  0  0
  188.3080  178.5930  139.8690 C   0  0  0  0  0  2  0  0  0  0  0  0
  186.0430  178.9770  140.8760 C   0  0  1  0  0  3  0  0  0  0  0  0
  187.4710  176.7700  144.5110 C   0  0  0  0  0  2  0  0  0  0  0  0
  188.0830  177.8750  145.3620 C   0  0  0  0  0  2  0  0  0  0  0  0
  187.1250  178.1440  147.5380 O   0  0  0  0  0  1  0  0  0  0  0  0
  188.1110  177.4580  146.8230 C   0  0  2  0  0  3  0  0  0  0  0  0
  189.4910  177.7260  147.4180 C   0  0  1  0  0  3  0  0  0  0  0  0
  189.3790  178.1360  148.7480 O   0  0  0  0  0  1  0  0  0  0  0  0
  190.3710  176.4860  147.3420 C   0  0  0  0  0  2  0  0  0  0  0  0
  191.6260  176.7530  146.5240 C   0  0  0  0  0  2  0  0  0  0  0  0
  191.3550  176.6060  145.1630 O   0  0  0  0  0  0  0  0  0  0  0  0
  191.6800  177.8420  144.6070 C   0  0  0  0  0  1  0  0  0  0  0  0
  181.4980  179.0690  142.3060 C   0  0  0  0  0  2  0  0  0  0  0  0
  180.8960  177.8930  141.6990 N   0  0  0  0  0  2  0  0  0  0  0  0
  179.9530  178.3630  140.6950 C   0  0  1  0  0  3  0  0  0  0  0  0
  180.5820  180.1610  139.2140 O   0  0  0  0  0  1  0  0  0  0  0  0
  180.0770  179.8680  140.4820 C   0  0  0  0  0  2  0  0  0  0  0  0
  180.0990  177.4250  139.1260 S   0  0  0  0  0  0  0  0  0  0  0  0
  180.9010  175.9570  139.8450 C   0  0  0  0  0  1  0  0  0  0  0  0
  1 16  1  6  0  0  0
  1  9  1  0  0  0  0
  2  7  1  0  0  0  0
  2 17  1  0  0  0  0
  3  9  1  0  0  0  0
  4  6  1  0  0  0  0
  5 12  1  0  0  0  0
  6 14  1  0  0  0  0
  7 15  1  0  0  0  0
  8  5  1  0  0  0  0
  9 10  1  0  0  0  0
 10  6  1  0  0  0  0
 10 18  1  0  0  0  0
 11 13  1  0  0  0  0
 13  3  1  0  0  0  0
 14 12  1  0  0  0  0
 15  4  1  0  0  0  0
 15  8  1  0  0  0  0
 16 11  1  0  0  0  0
 17  1  1  0  0  0  0
 17  4  1  0  0  0  0
 18 19  1  0  0  0  0
 19 21  1  0  0  0  0
 21 22  1  0  0  0  0
 21 20  1  0  0  0  0
 22 23  1  0  0  0  0
 24 22  1  0  0  0  0
 25 24  1  0  0  0  0
 26 25  1  0  0  0  0
 27 26  1  0  0  0  0
 28  8  1  0  0  0  0
 29 28  1  0  0  0  0
 30 29  1  0  0  0  0
 31 32  1  0  0  0  0
 32 30  1  0  0  0  0
 33 34  1  0  0  0  0
 33 30  1  0  0  0  0
M  END
>  <MODEL>
6

>  <REMARK>
 VINA RESULT:      -6.9      3.694      8.003
  Name = 
  12 active torsions:
  status: ('A' for Active; 'I' for Inactive)
    1  A    between atoms: C_3  and  C_16
    2  A    between atoms: C_3  and  C_19
    3  A    between atoms: C_5  and  C_11
    4  A    between atoms: C_5  and  C_19
    5  A    between atoms: C_8  and  O_12
    6  A    between atoms: C_8  and  C_16
    7  A    between atoms: C_11  and  C_20
    8  A    between atoms: N_17  and  C_28
    9  A    between atoms: C_28  and  N_29
   10  A    between atoms: N_29  and  C_32
   11  A    between atoms: S_31  and  C_32
   12  A    between atoms: C_32  and  C_34
                            x       y       z     vdW  Elec       q    Type
                         _______ _______ _______ _____ _____    ______ ____

>  <TORSDO>
F 12

$$$$
=
 OpenBabel11122412273D

 34 37  0  0  1  0  0  0  0  0999 V2000
  186.3240  177.8420  144.7990 C   0  0  2  0  0  3  0  0  0  0  0  0
  188.4820  176.6410  144.3920 C   0  0  0  0  0  2  0  0  0  0  0  0
  183.9760  178.6240  144.8180 C   0  0  0  0  0  2  0  0  0  0  0  0
  187.7820  178.2670  142.6810 C   0  0  2  0  0  3  0  0  0  0  0  0
  188.8180  178.3350  139.9470 C   0  0  0  0  0  2  0  0  0  0  0  0
  186.4950  178.0370  141.8430 C   0  0  1  0  0  3  0  0  0  0  0  0
  189.0480  176.2370  143.0450 C   0  0  0  0  0  2  0  0  0  0  0  0
  188.9400  177.1200  140.7440 N   0  0  0  0  0  0  0  0  0  0  0  0
  185.2990  178.6810  144.0410 C   0  0  2  0  0  3  0  0  0  0  0  0
  185.1650  178.0750  142.6440 C   0  0  1  0  0  3  0  0  0  0  0  0
  184.9420  178.2530  146.8250 C   0  0  0  0  0  2  0  0  0  0  0  0
  187.3700  178.5160  139.5180 C   0  0  0  0  0  2  0  0  0  0  0  0
  184.1530  179.1670  146.1030 O   0  0  0  0  0  0  0  0  0  0  0  0
  186.5120  179.0180  140.6690 C   0  0  0  0  0  2  0  0  0  0  0  0
  188.9970  177.4790  142.1690 C   0  0  1  0  0  3  0  0  0  0  0  0
  186.3680  178.2430  146.2730 C   0  0  0  0  0  2  0  0  0  0  0  0
  187.7150  177.9360  144.1800 C   0  0  1  0  0  3  0  0  0  0  0  0
  183.9210  178.5160  141.8570 C   0  0  0  0  0  2  0  0  0  0  0  0
  183.4630  177.4560  140.8630 C   0  0  0  0  0  2  0  0  0  0  0  0
  183.1020  178.8760  138.9720 O   0  0  0  0  0  1  0  0  0  0  0  0
  182.4550  178.0460  139.8920 C   0  0  2  0  0  3  0  0  0  0  0  0
  181.3850  178.8220  140.6560 C   0  0  1  0  0  3  0  0  0  0  0  0
  181.0840  180.0170  139.9990 O   0  0  0  0  0  1  0  0  0  0  0  0
  180.1160  177.9960  140.8140 C   0  0  0  0  0  2  0  0  0  0  0  0
  179.3900  178.3460  142.1040 C   0  0  0  0  0  2  0  0  0  0  0  0
  180.3090  178.5520  143.1330 O   0  0  0  0  0  0  0  0  0  0  0  0
  179.5360  178.9860  144.2100 C   0  0  0  0  0  1  0  0  0  0  0  0
  190.2230  176.5390  140.3770 C   0  0  0  0  0  2  0  0  0  0  0  0
  190.5850  176.9610  139.0330 N   0  0  0  0  0  2  0  0  0  0  0  0
  191.0390  175.7770  138.3190 C   0  0  1  0  0  3  0  0  0  0  0  0
  189.0230  176.2960  137.1000 O   0  0  0  0  0  1  0  0  0  0  0  0
  190.0120  175.3280  137.2840 C   0  0  0  0  0  2  0  0  0  0  0  0
  192.7040  176.0140  137.5890 S   0  0  0  0  0  0  0  0  0  0  0  0
  192.2310  175.6170  135.8770 C   0  0  0  0  0  1  0  0  0  0  0  0
  1 16  1  1  0  0  0
  3 13  1  0  0  0  0
  4 17  1  0  0  0  0
  5  8  1  0  0  0  0
  6 10  1  0  0  0  0
  6  4  1  0  0  0  0
  7  2  1  0  0  0  0
  8 15  1  0  0  0  0
  9  1  1  0  0  0  0
  9  3  1  0  0  0  0
 10  9  1  0  0  0  0
 12  5  1  0  0  0  0
 12 14  1  0  0  0  0
 13 11  1  0  0  0  0
 14  6  1  0  0  0  0
 15  4  1  0  0  0  0
 15  7  1  0  0  0  0
 16 11  1  0  0  0  0
 17  2  1  0  0  0  0
 17  1  1  0  0  0  0
 18 10  1  0  0  0  0
 19 18  1  0  0  0  0
 20 21  1  0  0  0  0
 21 22  1  0  0  0  0
 21 19  1  0  0  0  0
 22 24  1  0  0  0  0
 23 22  1  0  0  0  0
 24 25  1  0  0  0  0
 25 26  1  0  0  0  0
 26 27  1  0  0  0  0
 28  8  1  0  0  0  0
 29 28  1  0  0  0  0
 30 29  1  0  0  0  0
 31 32  1  0  0  0  0
 32 30  1  0  0  0  0
 33 30  1  0  0  0  0
 34 33  1  0  0  0  0
M  END
>  <MODEL>
7

>  <REMARK>
 VINA RESULT:      -6.8      1.867      3.275
  Name = 
  12 active torsions:
  status: ('A' for Active; 'I' for Inactive)
    1  A    between atoms: C_3  and  C_16
    2  A    between atoms: C_3  and  C_19
    3  A    between atoms: C_5  and  C_11
    4  A    between atoms: C_5  and  C_19
    5  A    between atoms: C_8  and  O_12
    6  A    between atoms: C_8  and  C_16
    7  A    between atoms: C_11  and  C_20
    8  A    between atoms: N_17  and  C_28
    9  A    between atoms: C_28  and  N_29
   10  A    between atoms: N_29  and  C_32
   11  A    between atoms: S_31  and  C_32
   12  A    between atoms: C_32  and  C_34
                            x       y       z     vdW  Elec       q    Type
                         _______ _______ _______ _____ _____    ______ ____

>  <TORSDO>
F 12

$$$$
=
 OpenBabel11122412273D

 34 37  0  0  1  0  0  0  0  0999 V2000
  187.9030  177.9730  140.4290 C   0  0  2  0  0  3  0  0  0  0  0  0
  185.5240  178.6570  140.0610 C   0  0  0  0  0  2  0  0  0  0  0  0
  190.0020  176.7960  141.0030 C   0  0  0  0  0  2  0  0  0  0  0  0
  186.3970  178.8840  142.3520 C   0  0  2  0  0  3  0  0  0  0  0  0
  184.7250  179.1300  144.7380 C   0  0  0  0  0  2  0  0  0  0  0  0
  186.8180  177.6330  143.1700 C   0  0  1  0  0  3  0  0  0  0  0  0
  184.3860  178.5290  141.0540 C   0  0  0  0  0  2  0  0  0  0  0  0
  184.1680  178.5740  143.5100 N   0  0  0  0  0  0  0  0  0  0  0  0
  188.8520  177.6350  141.5760 C   0  0  2  0  0  3  0  0  0  0  0  0
  188.0430  176.8580  142.6150 C   0  0  1  0  0  3  0  0  0  0  0  0
  189.8520  177.6510  138.9190 C   0  0  0  0  0  2  0  0  0  0  0  0
  185.6660  178.1180  145.3700 C   0  0  0  0  0  2  0  0  0  0  0  0
  190.7010  177.5400  140.0350 O   0  0  0  0  0  0  0  0  0  0  0  0
  186.9940  178.0600  144.6290 C   0  0  0  0  0  2  0  0  0  0  0  0
  184.8820  179.1390  142.3550 C   0  0  1  0  0  3  0  0  0  0  0  0
  188.6700  178.5650  139.2480 C   0  0  0  0  0  2  0  0  0  0  0  0
  186.7870  178.9160  140.8660 C   0  0  1  0  0  3  0  0  0  0  0  0
  188.8790  176.0920  143.6540 C   0  0  0  0  0  2  0  0  0  0  0  0
  190.3210  176.5790  143.7040 C   0  0  0  0  0  2  0  0  0  0  0  0
  191.5960  178.3280  144.7220 O   0  0  0  0  0  1  0  0  0  0  0  0
  190.5430  177.4350  144.9390 C   0  0  2  0  0  3  0  0  0  0  0  0
  190.8310  176.5480  146.1480 C   0  0  1  0  0  3  0  0  0  0  0  0
  192.0510  176.8950  146.7300 O   0  0  0  0  0  1  0  0  0  0  0  0
  189.7230  176.6590  147.1860 C   0  0  0  0  0  2  0  0  0  0  0  0
  189.8690  177.9280  148.0110 C   0  0  0  0  0  2  0  0  0  0  0  0
  188.6450  178.5930  148.0940 O   0  0  0  0  0  0  0  0  0  0  0  0
  187.7870  177.6730  148.6940 C   0  0  0  0  0  1  0  0  0  0  0  0
  182.7900  179.0440  143.4590 C   0  0  0  0  0  2  0  0  0  0  0  0
  182.1950  178.6750  142.1850 N   0  0  0  0  0  2  0  0  0  0  0  0
  180.7610  178.5490  142.4020 C   0  0  1  0  0  3  0  0  0  0  0  0
  179.9180  180.8060  142.2780 O   0  0  0  0  0  1  0  0  0  0  0  0
  180.2070  179.7560  143.1520 C   0  0  0  0  0  2  0  0  0  0  0  0
  179.8570  178.2270  140.8390 S   0  0  0  0  0  0  0  0  0  0  0  0
  181.1030  177.1150  140.1140 C   0  0  0  0  0  1  0  0  0  0  0  0
  1 16  1  6  0  0  0
  1 17  1  0  0  0  0
  1  9  1  0  0  0  0
  2 17  1  0  0  0  0
  2  7  1  0  0  0  0
  3  9  1  0  0  0  0
  4 15  1  0  0  0  0
  4  6  1  0  0  0  0
  5 12  1  0  0  0  0
  6 14  1  0  0  0  0
  7 15  1  0  0  0  0
  8  5  1  0  0  0  0
  9 10  1  0  0  0  0
 10  6  1  0  0  0  0
 10 18  1  0  0  0  0
 11 16  1  0  0  0  0
 11 13  1  0  0  0  0
 13  3  1  0  0  0  0
 14 12  1  0  0  0  0
 15  8  1  0  0  0  0
 17  4  1  0  0  0  0
 18 19  1  0  0  0  0
 19 21  1  0  0  0  0
 20 21  1  0  0  0  0
 21 22  1  0  0  0  0
 22 23  1  0  0  0  0
 22 24  1  0  0  0  0
 24 25  1  0  0  0  0
 25 26  1  0  0  0  0
 26 27  1  0  0  0  0
 28  8  1  0  0  0  0
 29 30  1  0  0  0  0
 29 28  1  0  0  0  0
 30 32  1  0  0  0  0
 31 32  1  0  0  0  0
 33 30  1  0  0  0  0
 34 33  1  0  0  0  0
M  END
>  <MODEL>
8

>  <REMARK>
 VINA RESULT:      -6.6      3.581      8.324
  Name = 
  12 active torsions:
  status: ('A' for Active; 'I' for Inactive)
    1  A    between atoms: C_3  and  C_16
    2  A    between atoms: C_3  and  C_19
    3  A    between atoms: C_5  and  C_11
    4  A    between atoms: C_5  and  C_19
    5  A    between atoms: C_8  and  O_12
    6  A    between atoms: C_8  and  C_16
    7  A    between atoms: C_11  and  C_20
    8  A    between atoms: N_17  and  C_28
    9  A    between atoms: C_28  and  N_29
   10  A    between atoms: N_29  and  C_32
   11  A    between atoms: S_31  and  C_32
   12  A    between atoms: C_32  and  C_34
                            x       y       z     vdW  Elec       q    Type
                         _______ _______ _______ _____ _____    ______ ____

>  <TORSDO>
F 12

$$$$
=
 OpenBabel11122412273D

 34 37  0  0  1  0  0  0  0  0999 V2000
  187.6510  177.5180  145.2500 C   0  0  2  0  0  3  0  0  0  0  0  0
  189.6480  176.3730  144.2680 C   0  0  0  0  0  2  0  0  0  0  0  0
  185.3770  178.2700  145.8700 C   0  0  0  0  0  2  0  0  0  0  0  0
  188.5760  178.1040  142.8850 C   0  0  2  0  0  3  0  0  0  0  0  0
  188.9460  178.3710  139.9970 C   0  0  0  0  0  2  0  0  0  0  0  0
  187.1280  177.9170  142.3570 C   0  0  1  0  0  3  0  0  0  0  0  0
  189.8820  176.0690  142.8020 C   0  0  0  0  0  2  0  0  0  0  0  0
  189.2440  177.1050  140.6570 N   0  0  0  0  0  0  0  0  0  0  0  0
  186.4820  178.3960  144.8120 C   0  0  2  0  0  3  0  0  0  0  0  0
  186.0230  177.8860  143.4460 C   0  0  1  0  0  3  0  0  0  0  0  0
  186.7830  177.7740  147.5660 C   0  0  0  0  0  2  0  0  0  0  0  0
  187.4390  178.5650  139.9300 C   0  0  0  0  0  2  0  0  0  0  0  0
  185.8510  178.7260  147.1130 O   0  0  0  0  0  0  0  0  0  0  0  0
  186.8760  178.9770  141.2820 C   0  0  0  0  0  2  0  0  0  0  0  0
  189.6350  177.3670  142.0510 C   0  0  1  0  0  3  0  0  0  0  0  0
  188.0400  177.8170  146.6970 C   0  0  0  0  0  2  0  0  0  0  0  0
  188.8590  177.6710  144.3310 C   0  0  1  0  0  3  0  0  0  0  0  0
  184.6310  178.3650  143.0030 C   0  0  0  0  0  2  0  0  0  0  0  0
  184.2740  177.8830  141.6030 C   0  0  0  0  0  2  0  0  0  0  0  0
  181.9220  178.2410  141.3560 O   0  0  0  0  0  1  0  0  0  0  0  0
  183.1770  178.7510  141.0120 C   0  0  2  0  0  3  0  0  0  0  0  0
  183.3290  178.8270  139.4950 C   0  0  1  0  0  3  0  0  0  0  0  0
  184.1170  179.9230  139.1370 O   0  0  0  0  0  1  0  0  0  0  0  0
  183.9500  177.5530  138.9400 C   0  0  0  0  0  2  0  0  0  0  0  0
  184.0410  177.6020  137.4220 C   0  0  0  0  0  2  0  0  0  0  0  0
  182.7930  177.8970  136.8740 O   0  0  0  0  0  0  0  0  0  0  0  0
  182.8210  177.3130  135.6080 C   0  0  0  0  0  1  0  0  0  0  0  0
  190.4040  176.5650  139.9610 C   0  0  0  0  0  2  0  0  0  0  0  0
  190.0060  176.0870  138.6470 N   0  0  0  0  0  2  0  0  0  0  0  0
  191.2160  175.9860  137.8430 C   0  0  1  0  0  3  0  0  0  0  0  0
  193.3530  177.0930  137.9880 O   0  0  0  0  0  1  0  0  0  0  0  0
  192.4600  176.2710  138.6770 C   0  0  0  0  0  2  0  0  0  0  0  0
  191.3210  174.3800  136.9630 S   0  0  0  0  0  0  0  0  0  0  0  0
  193.0740  174.0620  137.3370 C   0  0  0  0  0  1  0  0  0  0  0  0
  1 16  1  1  0  0  0
  2 17  1  0  0  0  0
  3 13  1  0  0  0  0
  4 17  1  0  0  0  0
  5  8  1  0  0  0  0
  6  4  1  0  0  0  0
  6 10  1  0  0  0  0
  7  2  1  0  0  0  0
  8 15  1  0  0  0  0
  9  1  1  0  0  0  0
  9  3  1  0  0  0  0
 10  9  1  0  0  0  0
 12  5  1  0  0  0  0
 12 14  1  0  0  0  0
 13 11  1  0  0  0  0
 14  6  1  0  0  0  0
 15  7  1  0  0  0  0
 15  4  1  0  0  0  0
 16 11  1  0  0  0  0
 17  1  1  0  0  0  0
 18 10  1  0  0  0  0
 19 18  1  0  0  0  0
 21 20  1  0  0  0  0
 21 19  1  0  0  0  0
 22 21  1  0  0  0  0
 23 22  1  0  0  0  0
 24 22  1  0  0  0  0
 25 24  1  0  0  0  0
 26 25  1  0  0  0  0
 27 26  1  0  0  0  0
 28  8  1  0  0  0  0
 29 28  1  0  0  0  0
 30 29  1  0  0  0  0
 30 32  1  0  0  0  0
 31 32  1  0  0  0  0
 33 34  1  0  0  0  0
 33 30  1  0  0  0  0
M  END
>  <MODEL>
9

>  <REMARK>
 VINA RESULT:      -6.6      1.566      2.349
  Name = 
  12 active torsions:
  status: ('A' for Active; 'I' for Inactive)
    1  A    between atoms: C_3  and  C_16
    2  A    between atoms: C_3  and  C_19
    3  A    between atoms: C_5  and  C_11
    4  A    between atoms: C_5  and  C_19
    5  A    between atoms: C_8  and  O_12
    6  A    between atoms: C_8  and  C_16
    7  A    between atoms: C_11  and  C_20
    8  A    between atoms: N_17  and  C_28
    9  A    between atoms: C_28  and  N_29
   10  A    between atoms: N_29  and  C_32
   11  A    between atoms: S_31  and  C_32
   12  A    between atoms: C_32  and  C_34
                            x       y       z     vdW  Elec       q    Type
                         _______ _______ _______ _____ _____    ______ ____

>  <TORSDO>
F 12

$$$$
