=
 OpenBabel11122411333D

 37 43  0  0  1  0  0  0  0  0999 V2000
  179.9560  179.0660  142.5530 C   0  0  0  0  0  0  0  0  0  0  0  0
  182.2840  177.0640  139.6490 C   0  0  0  0  0  0  0  0  0  0  0  0
  185.9300  178.5290  139.0610 C   0  0  0  0  0  2  0  0  0  0  0  0
  180.1290  177.2340  140.8590 C   0  0  0  0  0  0  0  0  0  0  0  0
  183.6740  177.5220  139.9530 C   0  0  1  0  0  3  0  0  0  0  0  0
  181.3410  177.9320  140.3750 C   0  0  1  0  0  3  0  0  0  0  0  0
  184.5740  177.8330  138.7000 C   0  0  2  0  0  3  0  0  0  0  0  0
  179.7340  176.0100  140.2330 N   0  0  0  0  0  0  0  0  0  0  0  0
  182.0890  178.4170  141.5110 N   0  0  2  0  0  0  0  0  0  0  0  0
  180.0850  178.8090  144.0410 C   0  0  0  0  0  1  0  0  0  0  0  0
  182.9140  175.0510  138.3730 C   0  0  0  0  0  2  0  0  0  0  0  0
  180.4450  175.5270  139.0400 C   0  0  0  0  0  2  0  0  0  0  0  0
  181.3320  179.5600  142.0100 C   0  0  0  0  0  2  0  0  0  0  0  0
  186.9780  179.2120  141.3050 O   0  0  0  0  0  0  0  0  0  0  0  0
  186.2520  178.2960  140.5190 C   0  0  1  0  0  3  0  0  0  0  0  0
  181.9110  175.9150  139.0630 C   0  0  0  0  0  0  0  0  0  0  0  0
  183.3690  178.7320  140.8900 C   0  0  1  0  0  3  0  0  0  0  0  0
  179.4590  177.7850  141.8790 C   0  0  0  0  0  2  0  0  0  0  0  0
  184.8770  176.5500  137.8770 C   0  0  1  0  0  3  0  0  0  0  0  0
  178.9320  180.1610  142.3410 C   0  0  0  0  0  1  0  0  0  0  0  0
  185.6390  179.5400  141.0550 C   0  0  1  0  0  3  0  0  0  0  0  0
  184.4790  179.0440  141.9160 C   0  0  2  0  0  3  0  0  0  0  0  0
  183.6390  175.8560  137.3070 C   0  0  0  0  0  2  0  0  0  0  0  0
  185.4170  177.5680  135.6540 C   0  0  0  0  0  3  0  0  0  0  0  0
  185.8360  176.8040  136.7490 C   0  0  0  0  0  0  0  0  0  0  0  0
  187.1430  176.2920  136.7790 C   0  0  0  0  0  3  0  0  0  0  0  0
  189.2790  176.0460  135.7480 F   0  0  0  0  0  0  0  0  0  0  0  0
  187.5940  177.3030  134.6250 C   0  0  0  0  0  3  0  0  0  0  0  0
  188.0180  176.5420  135.7180 C   0  0  0  0  0  0  0  0  0  0  0  0
  186.2930  177.8170  134.5940 C   0  0  0  0  0  3  0  0  0  0  0  0
  184.7950  177.9250  142.7090 O   0  0  0  0  0  0  0  0  0  0  0  0
  185.1010  178.4370  143.9750 C   0  0  1  0  0  3  0  0  0  0  0  0
  184.1450  179.0540  146.0820 O   0  0  0  0  0  1  0  0  0  0  0  0
  183.8310  178.6180  144.7950 C   0  0  0  0  0  2  0  0  0  0  0  0
  186.0970  177.5340  144.7080 C   0  0  0  0  0  2  0  0  0  0  0  0
  187.4720  177.5650  144.1090 C   0  0  0  0  0  3  0  0  0  0  0  0
  188.0540  176.4800  143.7540 N   0  0  0  0  0  2  0  0  0  0  0  0
  1 10  1  0  0  0  0
  4 18  1  0  0  0  0
  5  2  1  6  0  0  0
  5 17  1  0  0  0  0
  6  2  1  1  0  0  0
  6  4  1  0  0  0  0
  6  9  1  0  0  0  0
  7  3  1  1  0  0  0
  7  5  1  0  0  0  0
  8  4  2  0  0  0  0
  9 13  1  6  0  0  0
 11 16  1  0  0  0  0
 12 16  1  0  0  0  0
 12  8  1  0  0  0  0
 13  1  1  0  0  0  0
 15  3  1  6  0  0  0
 15 21  1  0  0  0  0
 15 14  1  0  0  0  0
 16  2  2  0  0  0  0
 17  9  1  0  0  0  0
 17 22  1  0  0  0  0
 18  1  1  0  0  0  0
 19  7  1  0  0  0  0
 20  1  1  0  0  0  0
 21 14  1  0  0  0  0
 21 22  1  0  0  0  0
 22 31  1  0  0  0  0
 23 19  1  0  0  0  0
 23 11  1  0  0  0  0
 24 25  1  0  0  0  0
 25 26  2  0  0  0  0
 25 19  1  0  0  0  0
 28 29  2  0  0  0  0
 29 27  1  0  0  0  0
 29 26  1  0  0  0  0
 30 28  1  0  0  0  0
 30 24  2  0  0  0  0
 31 32  1  0  0  0  0
 32 35  1  0  0  0  0
 32 34  1  0  0  0  0
 34 33  1  0  0  0  0
 36 35  1  0  0  0  0
 37 36  2  0  0  0  0
M  END
>  <MODEL>
1

>  <REMARK>
 VINA RESULT:      -6.3      0.000      0.000
  Name = 
  6 active torsions:
  status: ('A' for Active; 'I' for Inactive)
    1  A    between atoms: O_1  and  C_4
    2  A    between atoms: O_1  and  C_27
    3  A    between atoms: C_4  and  C_12
    4  A    between atoms: C_4  and  C_37
    5  A    between atoms: C_8  and  C_12
    6  A    between atoms: C_23  and  C_30
                            x       y       z     vdW  Elec       q    Type
                         _______ _______ _______ _____ _____    ______ ____

>  <TORSDO>
F 6

$$$$
=
 OpenBabel11122411333D

 37 43  0  0  1  0  0  0  0  0999 V2000
  182.8930  176.6180  136.0840 C   0  0  0  0  0  0  0  0  0  0  0  0
  186.5760  174.6140  136.6120 C   0  0  0  0  0  0  0  0  0  0  0  0
  189.7480  176.9520  137.1130 C   0  0  0  0  0  2  0  0  0  0  0  0
  184.1350  174.4510  136.2240 C   0  0  0  0  0  0  0  0  0  0  0  0
  187.4570  175.6700  137.1950 C   0  0  1  0  0  3  0  0  0  0  0  0
  185.3640  175.2610  136.0800 C   0  0  1  0  0  3  0  0  0  0  0  0
  188.9350  175.6940  136.6550 C   0  0  2  0  0  3  0  0  0  0  0  0
  184.2490  173.0340  136.3880 N   0  0  0  0  0  2  0  0  0  0  0  0
  185.2230  176.4700  136.8590 N   0  0  2  0  0  0  0  0  0  0  0  0
  182.0680  177.1550  137.2360 C   0  0  0  0  0  1  0  0  0  0  0  0
  187.9170  172.6800  137.3450 C   0  0  0  0  0  2  0  0  0  0  0  0
  185.5630  172.3820  136.2790 C   0  0  0  0  0  2  0  0  0  0  0  0
  184.2920  177.3040  136.1070 C   0  0  0  0  0  2  0  0  0  0  0  0
  189.1430  178.9500  138.6090 O   0  0  0  0  0  0  0  0  0  0  0  0
  189.0920  177.5710  138.3250 C   0  0  1  0  0  3  0  0  0  0  0  0
  186.6810  173.2840  136.7650 C   0  0  0  0  0  0  0  0  0  0  0  0
  186.6020  176.9410  136.8970 C   0  0  1  0  0  3  0  0  0  0  0  0
  182.9590  175.0930  136.2030 C   0  0  0  0  0  3  0  0  0  0  0  0
  189.7190  174.4180  137.0690 C   0  0  1  0  0  3  0  0  0  0  0  0
  182.1990  176.9780  134.7870 C   0  0  0  0  0  1  0  0  0  0  0  0
  188.2480  178.5610  137.6050 C   0  0  1  0  0  3  0  0  0  0  0  0
  186.8170  178.1060  137.8860 C   0  0  2  0  0  3  0  0  0  0  0  0
  189.1290  173.1110  136.5370 C   0  0  0  0  0  2  0  0  0  0  0  0
  191.5030  174.4480  135.3130 C   0  0  0  0  0  3  0  0  0  0  0  0
  191.1670  174.4780  136.6710 C   0  0  0  0  0  0  0  0  0  0  0  0
  192.1820  174.5670  137.6370 C   0  0  0  0  0  3  0  0  0  0  0  0
  194.5000  174.7070  138.1760 F   0  0  0  0  0  0  0  0  0  0  0  0
  193.8530  174.5900  135.8850 C   0  0  0  0  0  3  0  0  0  0  0  0
  193.5220  174.6220  137.2430 C   0  0  0  0  0  0  0  0  0  0  0  0
  192.8440  174.5040  134.9200 C   0  0  0  0  0  3  0  0  0  0  0  0
  186.5950  177.7130  139.2190 O   0  0  0  0  0  0  0  0  0  0  0  0
  186.0270  178.8270  139.8490 C   0  0  1  0  0  3  0  0  0  0  0  0
  184.2250  180.2130  139.0980 O   0  0  0  0  0  1  0  0  0  0  0  0
  184.5440  178.9220  139.5200 C   0  0  0  0  0  2  0  0  0  0  0  0
  186.2470  178.7750  141.3630 C   0  0  0  0  0  2  0  0  0  0  0  0
  187.6260  178.3250  141.7430 C   0  0  0  0  0  3  0  0  0  0  0  0
  187.7940  177.4130  142.6290 N   0  0  0  0  0  2  0  0  0  0  0  0
  1 13  1  0  0  0  0
  1 18  1  0  0  0  0
  1 10  1  0  0  0  0
  2 16  2  0  0  0  0
  4  8  1  0  0  0  0
  5  2  1  6  0  0  0
  6  4  1  1  0  0  0
  6  2  1  0  0  0  0
  6  9  1  0  0  0  0
  7 19  1  0  0  0  0
  7  3  1  1  0  0  0
  7  5  1  0  0  0  0
  9 13  1  6  0  0  0
  9 17  1  0  0  0  0
 12  8  1  0  0  0  0
 12 16  1  0  0  0  0
 15  3  1  6  0  0  0
 15 14  1  0  0  0  0
 16 11  1  0  0  0  0
 17  5  1  0  0  0  0
 17 22  1  0  0  0  0
 18  4  2  0  0  0  0
 20  1  1  0  0  0  0
 21 22  1  0  0  0  0
 21 15  1  0  0  0  0
 21 14  1  0  0  0  0
 22 31  1  0  0  0  0
 23 19  1  0  0  0  0
 23 11  1  0  0  0  0
 24 25  1  0  0  0  0
 25 19  1  0  0  0  0
 25 26  2  0  0  0  0
 28 29  2  0  0  0  0
 29 26  1  0  0  0  0
 29 27  1  0  0  0  0
 30 24  2  0  0  0  0
 30 28  1  0  0  0  0
 31 32  1  0  0  0  0
 32 35  1  0  0  0  0
 33 34  1  0  0  0  0
 34 32  1  0  0  0  0
 35 36  1  0  0  0  0
 36 37  2  0  0  0  0
M  END
>  <MODEL>
2

>  <REMARK>
 VINA RESULT:      -6.0      3.591      5.818
  Name = 
  6 active torsions:
  status: ('A' for Active; 'I' for Inactive)
    1  A    between atoms: O_1  and  C_4
    2  A    between atoms: O_1  and  C_27
    3  A    between atoms: C_4  and  C_12
    4  A    between atoms: C_4  and  C_37
    5  A    between atoms: C_8  and  C_12
    6  A    between atoms: C_23  and  C_30
                            x       y       z     vdW  Elec       q    Type
                         _______ _______ _______ _____ _____    ______ ____

>  <TORSDO>
F 6

$$$$
=
 OpenBabel11122411333D

 37 43  0  0  1  0  0  0  0  0999 V2000
  179.5890  177.2110  139.5280 C   0  0  0  0  0  0  0  0  0  0  0  0
  182.0650  178.2100  142.8040 C   0  0  0  0  0  0  0  0  0  0  0  0
  185.9740  178.0480  142.1160 C   0  0  0  0  0  2  0  0  0  0  0  0
  179.7690  177.9020  141.9260 C   0  0  0  0  0  0  0  0  0  0  0  0
  183.3840  178.4870  142.1610 C   0  0  1  0  0  3  0  0  0  0  0  0
  181.2000  177.5390  141.8190 C   0  0  1  0  0  3  0  0  0  0  0  0
  184.6430  177.9450  142.9350 C   0  0  2  0  0  3  0  0  0  0  0  0
  179.2750  178.4300  143.1600 N   0  0  0  0  0  2  0  0  0  0  0  0
  181.7000  177.9740  140.5350 N   0  0  2  0  0  0  0  0  0  0  0  0
  179.2350  178.1900  138.4270 C   0  0  0  0  0  1  0  0  0  0  0  0
  182.5110  179.4110  144.9100 C   0  0  0  0  0  2  0  0  0  0  0  0
  180.1470  178.4830  144.3420 C   0  0  0  0  0  2  0  0  0  0  0  0
  181.1380  177.0390  139.5670 C   0  0  0  0  0  2  0  0  0  0  0  0
  186.4960  178.9740  139.7770 O   0  0  0  0  0  0  0  0  0  0  0  0
  185.8140  179.0620  141.0070 C   0  0  1  0  0  3  0  0  0  0  0  0
  181.5990  178.7050  143.9620 C   0  0  0  0  0  0  0  0  0  0  0  0
  183.1380  177.8740  140.7470 C   0  0  1  0  0  3  0  0  0  0  0  0
  178.9990  177.7250  140.8440 C   0  0  0  0  0  3  0  0  0  0  0  0
  184.8390  178.6710  144.2950 C   0  0  1  0  0  3  0  0  0  0  0  0
  178.9630  175.8720  139.2010 C   0  0  0  0  0  1  0  0  0  0  0  0
  185.4010  178.1160  139.9360 C   0  0  1  0  0  3  0  0  0  0  0  0
  183.9640  178.5210  139.6150 C   0  0  2  0  0  3  0  0  0  0  0  0
  183.6760  178.5060  145.2740 C   0  0  0  0  0  2  0  0  0  0  0  0
  187.0680  177.5320  144.2830 C   0  0  0  0  0  3  0  0  0  0  0  0
  186.1040  178.2570  144.9910 C   0  0  0  0  0  0  0  0  0  0  0  0
  186.3340  178.5890  146.3360 C   0  0  0  0  0  3  0  0  0  0  0  0
  187.7380  178.5140  148.2610 F   0  0  0  0  0  0  0  0  0  0  0  0
  188.4780  177.4670  146.2510 C   0  0  0  0  0  3  0  0  0  0  0  0
  187.5180  178.1930  146.9630 C   0  0  0  0  0  0  0  0  0  0  0  0
  188.2530  177.1360  144.9110 C   0  0  0  0  0  3  0  0  0  0  0  0
  183.7650  179.9120  139.5460 O   0  0  0  0  0  0  0  0  0  0  0  0
  183.0990  180.1370  138.3350 C   0  0  1  0  0  3  0  0  0  0  0  0
  181.9110  178.8550  136.6990 O   0  0  0  0  0  1  0  0  0  0  0  0
  183.0410  178.8550  137.5170 C   0  0  0  0  0  2  0  0  0  0  0  0
  181.6920  180.6930  138.5750 C   0  0  0  0  0  2  0  0  0  0  0  0
  181.5320  182.1090  138.1090 C   0  0  0  0  0  3  0  0  0  0  0  0
  180.6820  182.4030  137.1950 N   0  0  0  0  0  2  0  0  0  0  0  0
  1 13  1  0  0  0  0
  1 18  1  0  0  0  0
  2 16  2  0  0  0  0
  4  8  1  0  0  0  0
  5  2  1  1  0  0  0
  5  7  1  0  0  0  0
  6  4  1  1  0  0  0
  6  2  1  0  0  0  0
  7  3  1  6  0  0  0
  7 19  1  0  0  0  0
  8 12  1  0  0  0  0
  9 13  1  6  0  0  0
  9 17  1  0  0  0  0
  9  6  1  0  0  0  0
 10  1  1  0  0  0  0
 11 23  1  0  0  0  0
 14 21  1  0  0  0  0
 14 15  1  0  0  0  0
 15  3  1  1  0  0  0
 16 12  1  0  0  0  0
 16 11  1  0  0  0  0
 17  5  1  0  0  0  0
 18  4  2  0  0  0  0
 19 25  1  0  0  0  0
 19 23  1  0  0  0  0
 20  1  1  0  0  0  0
 21 15  1  0  0  0  0
 22 21  1  0  0  0  0
 22 17  1  0  0  0  0
 24 30  2  0  0  0  0
 24 25  1  0  0  0  0
 25 26  2  0  0  0  0
 26 29  1  0  0  0  0
 28 29  2  0  0  0  0
 29 27  1  0  0  0  0
 30 28  1  0  0  0  0
 31 22  1  0  0  0  0
 32 35  1  0  0  0  0
 32 31  1  0  0  0  0
 33 34  1  0  0  0  0
 34 32  1  0  0  0  0
 36 35  1  0  0  0  0
 37 36  2  0  0  0  0
M  END
>  <MODEL>
3

>  <REMARK>
 VINA RESULT:      -5.7      3.517      6.758
  Name = 
  6 active torsions:
  status: ('A' for Active; 'I' for Inactive)
    1  A    between atoms: O_1  and  C_4
    2  A    between atoms: O_1  and  C_27
    3  A    between atoms: C_4  and  C_12
    4  A    between atoms: C_4  and  C_37
    5  A    between atoms: C_8  and  C_12
    6  A    between atoms: C_23  and  C_30
                            x       y       z     vdW  Elec       q    Type
                         _______ _______ _______ _____ _____    ______ ____

>  <TORSDO>
F 6

$$$$
=
 OpenBabel11122411333D

 37 43  0  0  1  0  0  0  0  0999 V2000
  186.9130  176.8930  136.1850 C   0  0  0  0  0  0  0  0  0  0  0  0
  190.6020  174.8310  136.1690 C   0  0  0  0  0  0  0  0  0  0  0  0
  193.5230  176.5190  138.2670 C   0  0  0  0  0  2  0  0  0  0  0  0
  188.2540  174.9380  135.3860 C   0  0  0  0  0  0  0  0  0  0  0  0
  191.3260  175.4210  137.3350 C   0  0  1  0  0  3  0  0  0  0  0  0
  189.4390  175.6830  135.8650 C   0  0  1  0  0  3  0  0  0  0  0  0
  192.8610  175.6900  137.1140 C   0  0  2  0  0  3  0  0  0  0  0  0
  188.4320  173.6370  134.8190 N   0  0  0  0  0  0  0  0  0  0  0  0
  189.1170  176.3240  137.1190 N   0  0  2  0  0  0  0  0  0  0  0  0
  185.9040  176.7780  137.3090 C   0  0  0  0  0  1  0  0  0  0  0  0
  191.9440  172.7700  136.0060 C   0  0  0  0  0  2  0  0  0  0  0  0
  189.7850  173.1080  134.5940 C   0  0  0  0  0  2  0  0  0  0  0  0
  188.2500  177.4430  136.7670 C   0  0  0  0  0  2  0  0  0  0  0  0
  192.5910  177.4760  140.4610 O   0  0  0  0  0  0  0  0  0  0  0  0
  192.6670  176.4410  139.5100 C   0  0  1  0  0  3  0  0  0  0  0  0
  190.7670  173.6100  135.6360 C   0  0  0  0  0  0  0  0  0  0  0  0
  190.4440  176.6810  137.6010 C   0  0  1  0  0  3  0  0  0  0  0  0
  187.0560  175.5220  135.5170 C   0  0  0  0  0  2  0  0  0  0  0  0
  193.6570  174.3680  136.9330 C   0  0  1  0  0  3  0  0  0  0  0  0
  186.3870  177.8810  135.1650 C   0  0  0  0  0  1  0  0  0  0  0  0
  191.8720  177.6760  139.2770 C   0  0  1  0  0  3  0  0  0  0  0  0
  190.4470  177.1680  139.0650 C   0  0  2  0  0  3  0  0  0  0  0  0
  193.2290  173.5320  135.7260 C   0  0  0  0  0  2  0  0  0  0  0  0
  195.9680  174.0870  137.8510 C   0  0  0  0  0  3  0  0  0  0  0  0
  195.1390  174.5960  136.8460 C   0  0  0  0  0  0  0  0  0  0  0  0
  195.7030  175.3050  135.7740 C   0  0  0  0  0  3  0  0  0  0  0  0
  197.6270  176.1900  134.6780 F   0  0  0  0  0  0  0  0  0  0  0  0
  197.9090  174.9960  136.7220 C   0  0  0  0  0  3  0  0  0  0  0  0
  197.0850  175.5050  135.7140 C   0  0  0  0  0  0  0  0  0  0  0  0
  197.3510  174.2870  137.7900 C   0  0  0  0  0  3  0  0  0  0  0  0
  190.0650  176.1510  139.9600 O   0  0  0  0  0  0  0  0  0  0  0  0
  189.1370  176.7420  140.8260 C   0  0  1  0  0  3  0  0  0  0  0  0
  190.3640  175.5890  142.5260 O   0  0  0  0  0  1  0  0  0  0  0  0
  189.6830  176.7730  142.2460 C   0  0  0  0  0  2  0  0  0  0  0  0
  188.7640  178.1510  140.3550 C   0  0  0  0  0  2  0  0  0  0  0  0
  187.4890  178.6570  140.9600 C   0  0  0  0  0  3  0  0  0  0  0  0
  186.4250  178.7580  140.2510 N   0  0  0  0  0  2  0  0  0  0  0  0
  1 13  1  0  0  0  0
  1 10  1  0  0  0  0
  4 18  1  0  0  0  0
  5  2  1  6  0  0  0
  5 17  1  0  0  0  0
  6  4  1  1  0  0  0
  6  2  1  0  0  0  0
  6  9  1  0  0  0  0
  7  5  1  0  0  0  0
  7  3  1  1  0  0  0
  8  4  2  0  0  0  0
  9 13  1  6  0  0  0
  9 17  1  0  0  0  0
 12  8  1  0  0  0  0
 12 16  1  0  0  0  0
 15  3  1  6  0  0  0
 15 14  1  0  0  0  0
 16 11  1  0  0  0  0
 16  2  2  0  0  0  0
 17 22  1  0  0  0  0
 18  1  1  0  0  0  0
 19  7  1  0  0  0  0
 20  1  1  0  0  0  0
 21 15  1  0  0  0  0
 21 14  1  0  0  0  0
 22 21  1  0  0  0  0
 22 31  1  0  0  0  0
 23 11  1  0  0  0  0
 23 19  1  0  0  0  0
 25 19  1  0  0  0  0
 25 24  2  0  0  0  0
 26 25  1  0  0  0  0
 27 29  1  0  0  0  0
 28 30  2  0  0  0  0
 29 26  2  0  0  0  0
 29 28  1  0  0  0  0
 30 24  1  0  0  0  0
 31 32  1  0  0  0  0
 32 34  1  0  0  0  0
 34 33  1  0  0  0  0
 35 32  1  0  0  0  0
 35 36  1  0  0  0  0
 37 36  2  0  0  0  0
M  END
>  <MODEL>
4

>  <REMARK>
 VINA RESULT:      -5.6      5.529      8.710
  Name = 
  6 active torsions:
  status: ('A' for Active; 'I' for Inactive)
    1  A    between atoms: O_1  and  C_4
    2  A    between atoms: O_1  and  C_27
    3  A    between atoms: C_4  and  C_12
    4  A    between atoms: C_4  and  C_37
    5  A    between atoms: C_8  and  C_12
    6  A    between atoms: C_23  and  C_30
                            x       y       z     vdW  Elec       q    Type
                         _______ _______ _______ _____ _____    ______ ____

>  <TORSDO>
F 6

$$$$
=
 OpenBabel11122411333D

 37 43  0  0  1  0  0  0  0  0999 V2000
  189.5360  176.1250  135.6990 C   0  0  0  0  0  0  0  0  0  0  0  0
  186.7350  177.7970  138.3860 C   0  0  0  0  0  0  0  0  0  0  0  0
  182.9270  177.5320  137.2860 C   0  0  0  0  0  2  0  0  0  0  0  0
  189.1080  177.3330  137.8470 C   0  0  0  0  0  0  0  0  0  0  0  0
  185.4430  177.1830  137.9560 C   0  0  1  0  0  3  0  0  0  0  0  0
  187.7380  177.5530  137.3350 C   0  0  1  0  0  3  0  0  0  0  0  0
  184.1990  178.1470  137.9620 C   0  0  2  0  0  3  0  0  0  0  0  0
  189.4510  177.8160  139.1490 N   0  0  0  0  0  2  0  0  0  0  0  0
  187.2860  176.3520  136.6700 N   0  0  2  0  0  0  0  0  0  0  0  0
  189.8580  174.6450  135.6520 C   0  0  0  0  0  1  0  0  0  0  0  0
  186.0100  178.4450  140.6510 C   0  0  0  0  0  2  0  0  0  0  0  0
  188.4950  178.6380  139.9070 C   0  0  0  0  0  2  0  0  0  0  0  0
  188.0160  176.3150  135.4070 C   0  0  0  0  0  2  0  0  0  0  0  0
  182.4770  175.2400  136.2160 O   0  0  0  0  0  0  0  0  0  0  0  0
  183.0550  176.0270  137.2320 C   0  0  1  0  0  3  0  0  0  0  0  0
  187.0590  178.2510  139.6070 C   0  0  0  0  0  0  0  0  0  0  0  0
  185.8560  176.6120  136.5640 C   0  0  1  0  0  3  0  0  0  0  0  0
  189.9690  176.6740  137.0610 C   0  0  0  0  0  3  0  0  0  0  0  0
  183.8270  178.5980  139.4010 C   0  0  1  0  0  3  0  0  0  0  0  0
  190.3270  176.8240  134.6140 C   0  0  0  0  0  1  0  0  0  0  0  0
  183.6450  175.9300  135.8710 C   0  0  1  0  0  3  0  0  0  0  0  0
  185.0490  175.3770  136.1110 C   0  0  2  0  0  3  0  0  0  0  0  0
  184.9280  179.3750  140.1260 C   0  0  0  0  0  2  0  0  0  0  0  0
  181.4930  178.9800  140.2200 C   0  0  0  0  0  3  0  0  0  0  0  0
  182.5690  179.4170  139.4400 C   0  0  0  0  0  0  0  0  0  0  0  0
  182.4580  180.6130  138.7130 C   0  0  0  0  0  3  0  0  0  0  0  0
  181.1730  182.5130  138.0620 F   0  0  0  0  0  0  0  0  0  0  0  0
  180.2040  180.9160  139.5440 C   0  0  0  0  0  3  0  0  0  0  0  0
  181.2770  181.3590  138.7650 C   0  0  0  0  0  0  0  0  0  0  0  0
  180.3120  179.7270  140.2720 C   0  0  0  0  0  3  0  0  0  0  0  0
  185.0980  174.3390  137.0600 O   0  0  0  0  0  0  0  0  0  0  0  0
  185.7200  173.2660  136.4090 C   0  0  1  0  0  3  0  0  0  0  0  0
  187.6650  171.8710  136.4590 O   0  0  0  0  0  1  0  0  0  0  0  0
  186.9310  172.7960  137.2020 C   0  0  0  0  0  2  0  0  0  0  0  0
  184.7370  172.1140  136.1830 C   0  0  0  0  0  2  0  0  0  0  0  0
  183.6360  172.0710  137.2000 C   0  0  0  0  0  3  0  0  0  0  0  0
  182.4560  171.6930  136.8700 N   0  0  0  0  0  2  0  0  0  0  0  0
  1 18  1  0  0  0  0
  2 16  2  0  0  0  0
  4  8  1  0  0  0  0
  5  7  1  0  0  0  0
  5  2  1  6  0  0  0
  6  4  1  1  0  0  0
  6  2  1  0  0  0  0
  7  3  1  1  0  0  0
  7 19  1  0  0  0  0
  8 12  1  0  0  0  0
  9 13  1  6  0  0  0
  9  6  1  0  0  0  0
 10  1  1  0  0  0  0
 13  1  1  0  0  0  0
 14 15  1  0  0  0  0
 15  3  1  6  0  0  0
 16 12  1  0  0  0  0
 16 11  1  0  0  0  0
 17  9  1  0  0  0  0
 17  5  1  0  0  0  0
 18  4  2  0  0  0  0
 19 25  1  0  0  0  0
 19 23  1  0  0  0  0
 20  1  1  0  0  0  0
 21 22  1  0  0  0  0
 21 14  1  0  0  0  0
 21 15  1  0  0  0  0
 22 17  1  0  0  0  0
 22 31  1  0  0  0  0
 23 11  1  0  0  0  0
 24 30  1  0  0  0  0
 25 24  2  0  0  0  0
 26 29  2  0  0  0  0
 26 25  1  0  0  0  0
 27 29  1  0  0  0  0
 28 30  2  0  0  0  0
 29 28  1  0  0  0  0
 32 31  1  0  0  0  0
 32 34  1  0  0  0  0
 33 34  1  0  0  0  0
 35 32  1  0  0  0  0
 35 36  1  0  0  0  0
 37 36  2  0  0  0  0
M  END
>  <MODEL>
5

>  <REMARK>
 VINA RESULT:      -5.4      3.961      8.416
  Name = 
  6 active torsions:
  status: ('A' for Active; 'I' for Inactive)
    1  A    between atoms: O_1  and  C_4
    2  A    between atoms: O_1  and  C_27
    3  A    between atoms: C_4  and  C_12
    4  A    between atoms: C_4  and  C_37
    5  A    between atoms: C_8  and  C_12
    6  A    between atoms: C_23  and  C_30
                            x       y       z     vdW  Elec       q    Type
                         _______ _______ _______ _____ _____    ______ ____

>  <TORSDO>
F 6

$$$$
=
 OpenBabel11122411333D

 37 43  0  0  1  0  0  0  0  0999 V2000
  188.2250  178.6010  137.3420 C   0  0  0  0  0  0  0  0  0  0  0  0
  188.3810  177.4880  141.4160 C   0  0  0  0  0  0  0  0  0  0  0  0
  185.4490  178.8960  143.6960 C   0  0  0  0  0  2  0  0  0  0  0  0
  189.4160  177.3740  139.1680 C   0  0  0  0  0  0  0  0  0  0  0  0
  186.9950  177.7660  141.8980 C   0  0  1  0  0  3  0  0  0  0  0  0
  188.5540  178.1320  140.1030 C   0  0  1  0  0  3  0  0  0  0  0  0
  186.8920  178.4070  143.3320 C   0  0  2  0  0  3  0  0  0  0  0  0
  190.3440  176.4210  139.6940 N   0  0  0  0  0  2  0  0  0  0  0  0
  187.2200  178.2090  139.5540 N   0  0  2  0  0  0  0  0  0  0  0  0
  187.3570  177.8930  136.3220 C   0  0  0  0  0  1  0  0  0  0  0  0
  189.0130  175.9400  143.2280 C   0  0  0  0  0  2  0  0  0  0  0  0
  190.5330  176.2980  141.1470 C   0  0  0  0  0  2  0  0  0  0  0  0
  187.3080  179.1760  138.4650 C   0  0  0  0  0  2  0  0  0  0  0  0
  183.2210  178.8080  142.4210 O   0  0  0  0  0  0  0  0  0  0  0  0
  184.4370  178.2120  142.8070 C   0  0  1  0  0  3  0  0  0  0  0  0
  189.2540  176.5940  141.9080 C   0  0  0  0  0  0  0  0  0  0  0  0
  186.4620  178.6410  140.7210 C   0  0  1  0  0  3  0  0  0  0  0  0
  189.2750  177.6130  137.8580 C   0  0  0  0  0  3  0  0  0  0  0  0
  187.3780  177.4290  144.4360 C   0  0  1  0  0  3  0  0  0  0  0  0
  188.9300  179.7530  136.6580 C   0  0  0  0  0  1  0  0  0  0  0  0
  184.3660  179.2570  141.7520 C   0  0  1  0  0  3  0  0  0  0  0  0
  184.9350  178.5730  140.5100 C   0  0  2  0  0  3  0  0  0  0  0  0
  188.8410  177.0000  144.3030 C   0  0  0  0  0  2  0  0  0  0  0  0
  185.9630  178.6070  146.1320 C   0  0  0  0  0  3  0  0  0  0  0  0
  187.1710  177.9740  145.8200 C   0  0  0  0  0  0  0  0  0  0  0  0
  188.1660  177.8540  146.8040 C   0  0  0  0  0  3  0  0  0  0  0  0
  188.9130  178.2530  149.0320 F   0  0  0  0  0  0  0  0  0  0  0  0
  186.7430  179.0030  148.3900 C   0  0  0  0  0  3  0  0  0  0  0  0
  187.9510  178.3690  148.0850 C   0  0  0  0  0  0  0  0  0  0  0  0
  185.7490  179.1210  147.4140 C   0  0  0  0  0  3  0  0  0  0  0  0
  184.4870  177.2510  140.3310 O   0  0  0  0  0  0  0  0  0  0  0  0
  183.4510  177.3300  139.3920 C   0  0  1  0  0  3  0  0  0  0  0  0
  184.3690  176.2510  137.4630 O   0  0  0  0  0  1  0  0  0  0  0  0
  184.0200  177.4940  137.9900 C   0  0  0  0  0  2  0  0  0  0  0  0
  182.5420  176.1000  139.4700 C   0  0  0  0  0  2  0  0  0  0  0  0
  181.0990  176.4460  139.6830 C   0  0  0  0  0  3  0  0  0  0  0  0
  180.7670  177.4240  140.4420 N   0  0  0  0  0  2  0  0  0  0  0  0
  1 18  1  0  0  0  0
  1 13  1  0  0  0  0
  2 16  2  0  0  0  0
  4  8  1  0  0  0  0
  5  2  1  6  0  0  0
  5  7  1  0  0  0  0
  6  4  1  6  0  0  0
  6  2  1  0  0  0  0
  7  3  1  1  0  0  0
  7 19  1  0  0  0  0
  8 12  1  0  0  0  0
  9 13  1  6  0  0  0
  9  6  1  0  0  0  0
  9 17  1  0  0  0  0
 10  1  1  0  0  0  0
 11 23  1  0  0  0  0
 12 16  1  0  0  0  0
 14 15  1  0  0  0  0
 15  3  1  1  0  0  0
 16 11  1  0  0  0  0
 17  5  1  0  0  0  0
 18  4  2  0  0  0  0
 19 25  1  0  0  0  0
 20  1  1  0  0  0  0
 21 14  1  0  0  0  0
 21 15  1  0  0  0  0
 22 17  1  0  0  0  0
 22 21  1  0  0  0  0
 23 19  1  0  0  0  0
 24 30  1  0  0  0  0
 25 24  2  0  0  0  0
 25 26  1  0  0  0  0
 26 29  2  0  0  0  0
 29 28  1  0  0  0  0
 29 27  1  0  0  0  0
 30 28  2  0  0  0  0
 31 22  1  0  0  0  0
 32 35  1  0  0  0  0
 32 31  1  0  0  0  0
 33 34  1  0  0  0  0
 34 32  1  0  0  0  0
 35 36  1  0  0  0  0
 36 37  2  0  0  0  0
M  END
>  <MODEL>
6

>  <REMARK>
 VINA RESULT:      -5.4      3.393      8.407
  Name = 
  6 active torsions:
  status: ('A' for Active; 'I' for Inactive)
    1  A    between atoms: O_1  and  C_4
    2  A    between atoms: O_1  and  C_27
    3  A    between atoms: C_4  and  C_12
    4  A    between atoms: C_4  and  C_37
    5  A    between atoms: C_8  and  C_12
    6  A    between atoms: C_23  and  C_30
                            x       y       z     vdW  Elec       q    Type
                         _______ _______ _______ _____ _____    ______ ____

>  <TORSDO>
F 6

$$$$
=
 OpenBabel11122411333D

 37 43  0  0  1  0  0  0  0  0999 V2000
  189.7940  177.8740  142.5190 C   0  0  0  0  0  0  0  0  0  0  0  0
  185.7440  178.3470  141.4090 C   0  0  0  0  0  0  0  0  0  0  0  0
  185.0980  179.1650  137.5750 C   0  0  0  0  0  2  0  0  0  0  0  0
  187.3890  177.9040  143.2070 C   0  0  0  0  0  0  0  0  0  0  0  0
  185.7800  178.2020  139.9220 C   0  0  1  0  0  3  0  0  0  0  0  0
  187.1240  178.5270  141.8910 C   0  0  1  0  0  3  0  0  0  0  0  0
  184.8530  179.1910  139.1220 C   0  0  2  0  0  3  0  0  0  0  0  0
  186.2910  177.6290  144.0810 N   0  0  0  0  0  2  0  0  0  0  0  0
  187.9480  177.8850  140.8930 N   0  0  2  0  0  0  0  0  0  0  0  0
  190.5640  176.5850  142.3180 C   0  0  0  0  0  1  0  0  0  0  0  0
  183.3410  177.8770  141.6880 C   0  0  0  0  0  2  0  0  0  0  0  0
  184.9370  178.0840  143.7320 C   0  0  0  0  0  2  0  0  0  0  0  0
  189.2980  178.3820  141.1310 C   0  0  0  0  0  2  0  0  0  0  0  0
  186.6850  177.7850  136.1000 O   0  0  0  0  0  0  0  0  0  0  0  0
  185.7980  177.8830  137.1900 C   0  0  1  0  0  3  0  0  0  0  0  0
  184.7150  178.0890  142.2310 C   0  0  0  0  0  0  0  0  0  0  0  0
  187.3130  178.3480  139.6660 C   0  0  1  0  0  3  0  0  0  0  0  0
  188.6600  177.6140  143.5140 C   0  0  0  0  0  3  0  0  0  0  0  0
  183.3480  178.9140  139.3920 C   0  0  1  0  0  3  0  0  0  0  0  0
  190.7330  178.9080  143.1050 C   0  0  0  0  0  1  0  0  0  0  0  0
  187.1930  178.3960  137.2540 C   0  0  1  0  0  3  0  0  0  0  0  0
  187.8250  177.6170  138.4060 C   0  0  2  0  0  3  0  0  0  0  0  0
  182.9260  179.0780  140.8530 C   0  0  0  0  0  2  0  0  0  0  0  0
  181.6530  179.1520  137.5650 C   0  0  0  0  0  3  0  0  0  0  0  0
  182.4460  179.7640  138.5430 C   0  0  0  0  0  0  0  0  0  0  0  0
  182.3820  181.1550  138.7190 C   0  0  0  0  0  3  0  0  0  0  0  0
  181.4750  183.2680  138.0880 F   0  0  0  0  0  0  0  0  0  0  0  0
  180.7470  181.3100  136.9400 C   0  0  0  0  0  3  0  0  0  0  0  0
  181.5340  181.9250  137.9170 C   0  0  0  0  0  0  0  0  0  0  0  0
  180.8050  179.9240  136.7640 C   0  0  0  0  0  3  0  0  0  0  0  0
  187.4950  176.2490  138.4190 O   0  0  0  0  0  0  0  0  0  0  0  0
  188.6410  175.5830  137.9660 C   0  0  1  0  0  3  0  0  0  0  0  0
  189.0690  175.5770  135.6120 O   0  0  0  0  0  1  0  0  0  0  0  0
  188.3710  174.9190  136.6240 C   0  0  0  0  0  2  0  0  0  0  0  0
  189.8320  176.5410  137.8700 C   0  0  0  0  0  2  0  0  0  0  0  0
  191.0960  175.9670  138.4380 C   0  0  0  0  0  3  0  0  0  0  0  0
  191.5870  174.8800  137.9700 N   0  0  0  0  0  2  0  0  0  0  0  0
  1 20  1  0  0  0  0
  1 18  1  0  0  0  0
  2 16  2  0  0  0  0
  4 18  2  0  0  0  0
  4  8  1  0  0  0  0
  5  2  1  1  0  0  0
  6  2  1  6  0  0  0
  6  4  1  0  0  0  0
  7  3  1  6  0  0  0
  7 19  1  0  0  0  0
  7  5  1  0  0  0  0
  9 13  1  6  0  0  0
  9  6  1  0  0  0  0
 10  1  1  0  0  0  0
 11 16  1  0  0  0  0
 12  8  1  0  0  0  0
 13  1  1  0  0  0  0
 14 15  1  0  0  0  0
 14 21  1  0  0  0  0
 15 21  1  0  0  0  0
 15  3  1  6  0  0  0
 16 12  1  0  0  0  0
 17  5  1  0  0  0  0
 17  9  1  0  0  0  0
 19 23  1  0  0  0  0
 21 22  1  0  0  0  0
 22 31  1  0  0  0  0
 22 17  1  0  0  0  0
 23 11  1  0  0  0  0
 24 25  1  0  0  0  0
 25 26  2  0  0  0  0
 25 19  1  0  0  0  0
 28 29  2  0  0  0  0
 29 27  1  0  0  0  0
 29 26  1  0  0  0  0
 30 28  1  0  0  0  0
 30 24  2  0  0  0  0
 32 31  1  0  0  0  0
 33 34  1  0  0  0  0
 34 32  1  0  0  0  0
 35 32  1  0  0  0  0
 35 36  1  0  0  0  0
 37 36  2  0  0  0  0
M  END
>  <MODEL>
7

>  <REMARK>
 VINA RESULT:      -5.3      3.735      7.051
  Name = 
  6 active torsions:
  status: ('A' for Active; 'I' for Inactive)
    1  A    between atoms: O_1  and  C_4
    2  A    between atoms: O_1  and  C_27
    3  A    between atoms: C_4  and  C_12
    4  A    between atoms: C_4  and  C_37
    5  A    between atoms: C_8  and  C_12
    6  A    between atoms: C_23  and  C_30
                            x       y       z     vdW  Elec       q    Type
                         _______ _______ _______ _____ _____    ______ ____

>  <TORSDO>
F 6

$$$$
=
 OpenBabel11122411333D

 37 43  0  0  1  0  0  0  0  0999 V2000
  180.3480  178.8680  143.3320 C   0  0  0  0  0  0  0  0  0  0  0  0
  183.6570  178.4580  140.7350 C   0  0  0  0  0  0  0  0  0  0  0  0
  182.7850  177.5020  136.9780 C   0  0  0  0  0  2  0  0  0  0  0  0
  182.8290  178.9300  143.0210 C   0  0  0  0  0  0  0  0  0  0  0  0
  183.0360  178.5410  139.3780 C   0  0  1  0  0  3  0  0  0  0  0  0
  182.5840  178.2620  141.7250 C   0  0  1  0  0  3  0  0  0  0  0  0
  183.6160  177.5460  138.3060 C   0  0  2  0  0  3  0  0  0  0  0  0
  184.1700  179.2700  143.3870 N   0  0  0  0  0  0  0  0  0  0  0  0
  181.4100  178.8410  141.1120 N   0  0  2  0  0  0  0  0  0  0  0  0
  179.5100  180.1270  143.4140 C   0  0  0  0  0  1  0  0  0  0  0  0
  185.9570  179.0030  140.0360 C   0  0  0  0  0  2  0  0  0  0  0  0
  185.2970  178.8370  142.5470 C   0  0  0  0  0  2  0  0  0  0  0  0
  180.2820  178.3170  141.8740 C   0  0  0  0  0  2  0  0  0  0  0  0
  180.6930  178.7780  136.2080 O   0  0  0  0  0  0  0  0  0  0  0  0
  181.9390  178.7490  136.8650 C   0  0  1  0  0  3  0  0  0  0  0  0
  184.9150  178.7760  141.0800 C   0  0  0  0  0  0  0  0  0  0  0  0
  181.5330  178.3450  139.7480 C   0  0  1  0  0  3  0  0  0  0  0  0
  181.7700  179.1980  143.7950 C   0  0  0  0  0  2  0  0  0  0  0  0
  185.0940  177.8730  137.9560 C   0  0  1  0  0  3  0  0  0  0  0  0
  179.7560  177.8340  144.2660 C   0  0  0  0  0  1  0  0  0  0  0  0
  180.7020  178.2020  137.4840 C   0  0  1  0  0  3  0  0  0  0  0  0
  180.5400  179.0090  138.7700 C   0  0  2  0  0  3  0  0  0  0  0  0
  186.0600  177.7810  139.1380 C   0  0  0  0  0  2  0  0  0  0  0  0
  186.2000  177.6250  135.7240 C   0  0  0  0  0  3  0  0  0  0  0  0
  185.6260  177.0140  136.8440 C   0  0  0  0  0  0  0  0  0  0  0  0
  185.5620  175.6140  136.9150 C   0  0  0  0  0  3  0  0  0  0  0  0
  186.0000  173.4830  135.9390 F   0  0  0  0  0  0  0  0  0  0  0  0
  186.6340  175.4500  134.7500 C   0  0  0  0  0  3  0  0  0  0  0  0
  186.0640  174.8350  135.8690 C   0  0  0  0  0  0  0  0  0  0  0  0
  186.7020  176.8450  134.6780 C   0  0  0  0  0  3  0  0  0  0  0  0
  180.7930  180.3850  138.6160 O   0  0  0  0  0  0  0  0  0  0  0  0
  179.5350  181.0000  138.6200 C   0  0  1  0  0  3  0  0  0  0  0  0
  178.9330  182.9700  139.8390 O   0  0  0  0  0  1  0  0  0  0  0  0
  179.2540  181.6200  139.9810 C   0  0  0  0  0  2  0  0  0  0  0  0
  179.4330  182.0520  137.5120 C   0  0  0  0  0  2  0  0  0  0  0  0
  180.7650  182.4380  136.9410 C   0  0  0  0  0  3  0  0  0  0  0  0
  181.1010  183.6710  136.8430 N   0  0  0  0  0  2  0  0  0  0  0  0
  1 10  1  0  0  0  0
  1 18  1  0  0  0  0
  1 20  1  0  0  0  0
  2 16  2  0  0  0  0
  4  8  2  0  0  0  0
  4 18  1  0  0  0  0
  5 17  1  0  0  0  0
  5  2  1  1  0  0  0
  6  2  1  6  0  0  0
  6  4  1  0  0  0  0
  7  3  1  6  0  0  0
  7  5  1  0  0  0  0
  9  6  1  0  0  0  0
  9 13  1  1  0  0  0
 11 16  1  0  0  0  0
 12  8  1  0  0  0  0
 13  1  1  0  0  0  0
 14 15  1  0  0  0  0
 14 21  1  0  0  0  0
 15  3  1  6  0  0  0
 15 21  1  0  0  0  0
 16 12  1  0  0  0  0
 17  9  1  0  0  0  0
 19  7  1  0  0  0  0
 19 23  1  0  0  0  0
 21 22  1  0  0  0  0
 22 17  1  0  0  0  0
 23 11  1  0  0  0  0
 24 25  1  0  0  0  0
 25 26  2  0  0  0  0
 25 19  1  0  0  0  0
 28 29  2  0  0  0  0
 29 27  1  0  0  0  0
 29 26  1  0  0  0  0
 30 28  1  0  0  0  0
 30 24  2  0  0  0  0
 31 32  1  0  0  0  0
 31 22  1  0  0  0  0
 32 34  1  0  0  0  0
 33 34  1  0  0  0  0
 35 32  1  0  0  0  0
 36 35  1  0  0  0  0
 37 36  2  0  0  0  0
M  END
>  <MODEL>
8

>  <REMARK>
 VINA RESULT:      -5.3      3.226      5.312
  Name = 
  6 active torsions:
  status: ('A' for Active; 'I' for Inactive)
    1  A    between atoms: O_1  and  C_4
    2  A    between atoms: O_1  and  C_27
    3  A    between atoms: C_4  and  C_12
    4  A    between atoms: C_4  and  C_37
    5  A    between atoms: C_8  and  C_12
    6  A    between atoms: C_23  and  C_30
                            x       y       z     vdW  Elec       q    Type
                         _______ _______ _______ _____ _____    ______ ____

>  <TORSDO>
F 6

$$$$
=
 OpenBabel11122411333D

 37 43  0  0  1  0  0  0  0  0999 V2000
  190.5280  178.2830  143.3340 C   0  0  0  0  0  0  0  0  0  0  0  0
  186.5070  178.2590  142.0340 C   0  0  0  0  0  0  0  0  0  0  0  0
  185.9440  179.0030  138.1720 C   0  0  0  0  0  2  0  0  0  0  0  0
  188.1080  178.0150  143.9080 C   0  0  0  0  0  0  0  0  0  0  0  0
  186.6300  178.1240  140.5510 C   0  0  1  0  0  3  0  0  0  0  0  0
  187.8310  178.6050  142.5800 C   0  0  1  0  0  3  0  0  0  0  0  0
  185.6270  178.9950  139.7060 C   0  0  2  0  0  3  0  0  0  0  0  0
  187.0120  177.6050  144.7310 N   0  0  0  0  0  2  0  0  0  0  0  0
  188.7720  178.0720  141.6230 N   0  0  2  0  0  0  0  0  0  0  0  0
  191.4590  177.0980  143.1720 C   0  0  0  0  0  1  0  0  0  0  0  0
  184.1680  177.4980  142.2020 C   0  0  0  0  0  2  0  0  0  0  0  0
  185.6300  177.8920  144.3180 C   0  0  0  0  0  2  0  0  0  0  0  0
  190.0390  178.7300  141.9230 C   0  0  0  0  0  2  0  0  0  0  0  0
  187.7560  177.8340  136.7770 O   0  0  0  0  0  0  0  0  0  0  0  0
  186.8140  177.8180  137.8240 C   0  0  1  0  0  3  0  0  0  0  0  0
  185.4790  177.8750  142.8080 C   0  0  0  0  0  0  0  0  0  0  0  0
  188.1430  178.4570  140.3660 C   0  0  1  0  0  3  0  0  0  0  0  0
  189.3890  177.8830  144.2750 C   0  0  0  0  0  3  0  0  0  0  0  0
  184.1560  178.5350  139.9060 C   0  0  1  0  0  3  0  0  0  0  0  0
  191.3040  179.4220  143.9600 C   0  0  0  0  0  1  0  0  0  0  0  0
  188.1300  178.4980  137.9510 C   0  0  1  0  0  3  0  0  0  0  0  0
  188.7990  177.8000  139.1340 C   0  0  2  0  0  3  0  0  0  0  0  0
  183.6490  178.6410  141.3460 C   0  0  0  0  0  2  0  0  0  0  0  0
  182.4410  178.5490  138.0820 C   0  0  0  0  0  3  0  0  0  0  0  0
  183.1970  179.2700  139.0140 C   0  0  0  0  0  0  0  0  0  0  0  0
  183.0440  180.6620  139.1040 C   0  0  0  0  0  3  0  0  0  0  0  0
  181.9990  182.6690  138.3510 F   0  0  0  0  0  0  0  0  0  0  0  0
  181.3940  180.6010  137.3330 C   0  0  0  0  0  3  0  0  0  0  0  0
  182.1450  181.3250  138.2630 C   0  0  0  0  0  0  0  0  0  0  0  0
  181.5420  179.2130  137.2420 C   0  0  0  0  0  3  0  0  0  0  0  0
  188.6390  176.4010  139.1350 O   0  0  0  0  0  0  0  0  0  0  0  0
  189.8940  175.8800  138.7950 C   0  0  1  0  0  3  0  0  0  0  0  0
  190.1630  173.8340  137.5840 O   0  0  0  0  0  1  0  0  0  0  0  0
  189.8280  175.1810  137.4450 C   0  0  0  0  0  2  0  0  0  0  0  0
  190.9620  176.9770  138.7890 C   0  0  0  0  0  2  0  0  0  0  0  0
  192.2000  176.5900  138.0360 C   0  0  0  0  0  3  0  0  0  0  0  0
  193.3510  176.6540  138.5970 N   0  0  0  0  0  2  0  0  0  0  0  0
  1 20  1  0  0  0  0
  1 18  1  0  0  0  0
  2 16  2  0  0  0  0
  4 18  2  0  0  0  0
  4  8  1  0  0  0  0
  5  2  1  1  0  0  0
  6  2  1  6  0  0  0
  6  4  1  0  0  0  0
  7  3  1  6  0  0  0
  7 19  1  0  0  0  0
  7  5  1  0  0  0  0
  9 13  1  1  0  0  0
  9  6  1  0  0  0  0
 10  1  1  0  0  0  0
 11 16  1  0  0  0  0
 12  8  1  0  0  0  0
 13  1  1  0  0  0  0
 14 15  1  0  0  0  0
 14 21  1  0  0  0  0
 15 21  1  0  0  0  0
 15  3  1  6  0  0  0
 16 12  1  0  0  0  0
 17  5  1  0  0  0  0
 17  9  1  0  0  0  0
 19 23  1  0  0  0  0
 21 22  1  0  0  0  0
 22 31  1  0  0  0  0
 22 17  1  0  0  0  0
 23 11  1  0  0  0  0
 24 25  1  0  0  0  0
 25 26  2  0  0  0  0
 25 19  1  0  0  0  0
 28 29  2  0  0  0  0
 29 27  1  0  0  0  0
 29 26  1  0  0  0  0
 30 28  1  0  0  0  0
 30 24  2  0  0  0  0
 32 31  1  0  0  0  0
 34 33  1  0  0  0  0
 34 32  1  0  0  0  0
 35 32  1  0  0  0  0
 36 37  2  0  0  0  0
 36 35  1  0  0  0  0
M  END
>  <MODEL>
9

>  <REMARK>
 VINA RESULT:      -5.3      3.879      7.235
  Name = 
  6 active torsions:
  status: ('A' for Active; 'I' for Inactive)
    1  A    between atoms: O_1  and  C_4
    2  A    between atoms: O_1  and  C_27
    3  A    between atoms: C_4  and  C_12
    4  A    between atoms: C_4  and  C_37
    5  A    between atoms: C_8  and  C_12
    6  A    between atoms: C_23  and  C_30
                            x       y       z     vdW  Elec       q    Type
                         _______ _______ _______ _____ _____    ______ ____

>  <TORSDO>
F 6

$$$$
