=
 OpenBabel11122411253D

 37 43  0  0  1  0  0  0  0  0999 V2000
  184.1810  175.0270  137.4400 C   0  0  0  0  0  2  0  0  0  0  0  0
  188.6240  177.4300  136.8540 C   0  0  1  0  0  0  0  0  0  0  0  0
  185.3160  177.9600  139.4710 N   0  0  1  0  0  0  0  0  0  0  0  0
  183.9960  173.7050  136.6810 C   0  0  2  0  0  3  0  0  0  0  0  0
  181.8320  177.4810  138.2540 O   0  0  0  0  0  0  0  0  0  0  0  0
  187.8040  178.1770  139.1720 C   0  0  1  0  0  3  0  0  0  0  0  0
  184.1650  178.0580  138.5580 C   0  0  2  0  0  3  0  0  0  0  0  0
  181.5670  174.3460  136.3250 C   0  0  0  0  0  0  0  0  0  0  0  0
  186.4010  178.2330  138.5550 C   0  0  1  0  0  3  0  0  0  0  0  0
  182.9220  177.3250  139.1200 C   0  0  1  0  0  3  0  0  0  0  0  0
  187.7280  177.8840  140.6710 C   0  0  0  0  0  2  0  0  0  0  0  0
  182.7770  173.6640  135.7490 C   0  0  0  0  0  2  0  0  0  0  0  0
  186.1710  177.3060  137.4270 C   0  0  2  0  0  3  0  0  0  0  0  0
  189.1830  176.3180  136.2280 O   0  0  0  0  0  1  0  0  0  0  0  0
  184.1740  179.0560  141.3900 C   0  0  0  0  0  2  0  0  0  0  0  0
  186.6690  178.7790  141.3580 C   0  0  0  0  0  2  0  0  0  0  0  0
  187.1740  177.6150  136.3300 C   0  0  0  0  0  2  0  0  0  0  0  0
  181.5330  175.8420  136.5170 C   0  0  1  0  0  3  0  0  0  0  0  0
  181.3880  176.1800  138.0000 C   0  0  0  0  0  2  0  0  0  0  0  0
  185.4030  179.0030  140.4960 C   0  0  1  0  0  3  0  0  0  0  0  0
  184.6980  177.5450  137.1640 C   0  0  1  0  0  3  0  0  0  0  0  0
  188.7280  177.2280  138.3930 C   0  0  0  0  0  2  0  0  0  0  0  0
  182.5050  177.7480  140.5480 C   0  0  1  0  0  3  0  0  0  0  0  0
  189.4300  178.6540  136.4640 C   0  0  0  0  0  1  0  0  0  0  0  0
  182.7420  176.5400  135.8660 C   0  0  0  0  0  2  0  0  0  0  0  0
  180.5950  173.6750  136.6340 O   0  0  0  0  0  0  0  0  0  0  0  0
  184.0990  176.2710  136.5400 C   0  0  2  0  0  3  0  0  0  0  0  0
  183.5550  177.8000  141.4920 O   0  0  0  0  0  0  0  0  0  0  0  0
  180.6220  178.8460  141.7990 C   0  0  0  0  0  3  0  0  0  0  0  0
  181.4560  178.8300  140.6760 C   0  0  0  0  0  0  0  0  0  0  0  0
  181.3220  179.8290  139.6990 C   0  0  0  0  0  3  0  0  0  0  0  0
  180.1900  182.0680  138.6210 Cl  0  0  0  0  0  0  0  0  0  0  0  0
  179.5220  180.8350  140.9660 C   0  0  0  0  0  3  0  0  0  0  0  0
  180.3550  180.8270  139.8440 C   0  0  0  0  0  0  0  0  0  0  0  0
  179.6560  179.8450  141.9440 C   0  0  0  0  0  3  0  0  0  0  0  0
  183.8050  171.5040  136.8130 C   0  0  0  0  0  1  0  0  0  0  0  0
  183.9260  172.6540  137.5960 O   0  0  0  0  0  0  0  0  0  0  0  0
  2 24  1  6  0  0  0
  2 22  1  0  0  0  0
  3 20  1  0  0  0  0
  4  1  1  0  0  0  0
  4 37  1  0  0  0  0
  5 10  1  0  0  0  0
  6 11  1  0  0  0  0
  7 10  1  0  0  0  0
  7  3  1  0  0  0  0
  8 18  1  0  0  0  0
  8 26  2  0  0  0  0
  9  6  1  0  0  0  0
  9  3  1  0  0  0  0
 10 23  1  0  0  0  0
 11 16  1  0  0  0  0
 12  8  1  0  0  0  0
 12  4  1  0  0  0  0
 13  9  1  0  0  0  0
 14  2  1  0  0  0  0
 15 28  1  0  0  0  0
 17  2  1  0  0  0  0
 17 13  1  0  0  0  0
 18 19  1  0  0  0  0
 19  5  1  0  0  0  0
 20 16  1  0  0  0  0
 20 15  1  0  0  0  0
 21 13  1  0  0  0  0
 21  7  1  0  0  0  0
 22  6  1  0  0  0  0
 23 30  1  0  0  0  0
 23 28  1  0  0  0  0
 25 18  1  0  0  0  0
 25 27  1  0  0  0  0
 27 21  1  0  0  0  0
 27  1  1  0  0  0  0
 29 35  1  0  0  0  0
 30 29  2  0  0  0  0
 31 34  2  0  0  0  0
 31 30  1  0  0  0  0
 32 34  1  0  0  0  0
 33 35  2  0  0  0  0
 34 33  1  0  0  0  0
 36 37  1  0  0  0  0
M  END
>  <MODEL>
1

>  <REMARK>
 VINA RESULT:      -6.4      0.000      0.000
  Name = 
  2 active torsions:
  status: ('A' for Active; 'I' for Inactive)
    1  A    between atoms: C_4  and  O_37
    2  A    between atoms: C_23  and  C_30
                            x       y       z     vdW  Elec       q    Type
                         _______ _______ _______ _____ _____    ______ ____

>  <TORSDO>
F 2

$$$$
=
 OpenBabel11122411253D

 37 43  0  0  1  0  0  0  0  0999 V2000
  188.1200  176.3260  138.4150 C   0  0  0  0  0  2  0  0  0  0  0  0
  190.2670  177.8940  142.7510 C   0  0  1  0  0  0  0  0  0  0  0  0
  186.2990  177.9960  141.2290 N   0  0  1  0  0  0  0  0  0  0  0  0
  188.9760  175.4530  137.4880 C   0  0  2  0  0  3  0  0  0  0  0  0
  185.6590  178.6770  137.6270 O   0  0  0  0  0  0  0  0  0  0  0  0
  187.7520  177.8410  143.2760 C   0  0  1  0  0  3  0  0  0  0  0  0
  186.4480  178.6470  139.9170 C   0  0  2  0  0  3  0  0  0  0  0  0
  187.8860  176.6240  135.5180 C   0  0  0  0  0  0  0  0  0  0  0  0
  187.5390  178.3890  141.8600 C   0  0  1  0  0  3  0  0  0  0  0  0
  185.5320  178.0020  138.8480 C   0  0  1  0  0  3  0  0  0  0  0  0
  186.5440  177.0180  143.7280 C   0  0  0  0  0  2  0  0  0  0  0  0
  189.1410  176.0000  136.0620 C   0  0  0  0  0  2  0  0  0  0  0  0
  188.5820  178.0230  140.8780 C   0  0  2  0  0  3  0  0  0  0  0  0
  191.3390  177.0220  142.5760 O   0  0  0  0  0  1  0  0  0  0  0  0
  183.8660  178.4700  141.4400 C   0  0  0  0  0  2  0  0  0  0  0  0
  185.2220  177.7650  143.4310 C   0  0  0  0  0  2  0  0  0  0  0  0
  189.9220  178.5330  141.3780 C   0  0  0  0  0  2  0  0  0  0  0  0
  187.3450  177.9110  136.0890 C   0  0  1  0  0  3  0  0  0  0  0  0
  185.9620  177.6790  136.6960 C   0  0  0  0  0  2  0  0  0  0  0  0
  185.2410  178.5330  142.0870 C   0  0  1  0  0  3  0  0  0  0  0  0
  187.9950  178.6140  139.6120 C   0  0  1  0  0  3  0  0  0  0  0  0
  189.0950  177.1060  143.4030 C   0  0  0  0  0  2  0  0  0  0  0  0
  184.0360  177.9190  139.2330 C   0  0  1  0  0  3  0  0  0  0  0  0
  190.6990  179.0000  143.6940 C   0  0  0  0  0  1  0  0  0  0  0  0
  188.3250  178.5650  137.0810 C   0  0  0  0  0  2  0  0  0  0  0  0
  187.3020  176.0800  134.5940 O   0  0  0  0  0  0  0  0  0  0  0  0
  188.5190  177.8110  138.4080 C   0  0  2  0  0  3  0  0  0  0  0  0
  183.7740  177.4100  140.5250 O   0  0  0  0  0  0  0  0  0  0  0  0
  183.4640  180.3630  139.1180 C   0  0  0  0  0  3  0  0  0  0  0  0
  183.1370  179.0460  138.7780 C   0  0  0  0  0  0  0  0  0  0  0  0
  181.9950  178.7940  138.0020 C   0  0  0  0  0  3  0  0  0  0  0  0
  179.7600  179.5320  136.6160 Cl  0  0  0  0  0  0  0  0  0  0  0  0
  181.5150  181.1660  137.9270 C   0  0  0  0  0  3  0  0  0  0  0  0
  181.1850  179.8520  137.5800 C   0  0  0  0  0  0  0  0  0  0  0  0
  182.6550  181.4210  138.6950 C   0  0  0  0  0  3  0  0  0  0  0  0
  189.4250  173.3890  136.8290 C   0  0  0  0  0  1  0  0  0  0  0  0
  188.4400  174.1660  137.4410 O   0  0  0  0  0  0  0  0  0  0  0  0
  2 22  1  0  0  0  0
  2 24  1  1  0  0  0
  3  9  1  0  0  0  0
  3 20  1  0  0  0  0
  4  1  1  0  0  0  0
  5 10  1  0  0  0  0
  6 22  1  0  0  0  0
  6 11  1  0  0  0  0
  7  3  1  0  0  0  0
  8 12  1  0  0  0  0
  8 18  1  0  0  0  0
  9  6  1  0  0  0  0
 10 23  1  0  0  0  0
 10  7  1  0  0  0  0
 12  4  1  0  0  0  0
 13 17  1  0  0  0  0
 13  9  1  0  0  0  0
 14  2  1  0  0  0  0
 15 20  1  0  0  0  0
 16 11  1  0  0  0  0
 17  2  1  0  0  0  0
 18 19  1  0  0  0  0
 18 25  1  0  0  0  0
 19  5  1  0  0  0  0
 20 16  1  0  0  0  0
 21  7  1  0  0  0  0
 21 13  1  0  0  0  0
 23 28  1  0  0  0  0
 25 27  1  0  0  0  0
 26  8  2  0  0  0  0
 27  1  1  0  0  0  0
 27 21  1  0  0  0  0
 28 15  1  0  0  0  0
 30 29  1  0  0  0  0
 30 23  1  0  0  0  0
 31 30  2  0  0  0  0
 32 34  1  0  0  0  0
 33 35  1  0  0  0  0
 34 33  2  0  0  0  0
 34 31  1  0  0  0  0
 35 29  2  0  0  0  0
 36 37  1  0  0  0  0
 37  4  1  0  0  0  0
M  END
>  <MODEL>
2

>  <REMARK>
 VINA RESULT:      -6.0      2.937      4.597
  Name = 
  2 active torsions:
  status: ('A' for Active; 'I' for Inactive)
    1  A    between atoms: C_4  and  O_37
    2  A    between atoms: C_23  and  C_30
                            x       y       z     vdW  Elec       q    Type
                         _______ _______ _______ _____ _____    ______ ____

>  <TORSDO>
F 2

$$$$
=
 OpenBabel11122411253D

 37 43  0  0  1  0  0  0  0  0999 V2000
  180.6560  180.5530  139.0510 C   0  0  0  0  0  2  0  0  0  0  0  0
  179.9980  178.7010  143.7410 C   0  0  1  0  0  0  0  0  0  0  0  0
  183.2670  178.7350  141.0240 N   0  0  1  0  0  0  0  0  0  0  0  0
  179.5560  181.4720  138.5020 C   0  0  2  0  0  3  0  0  0  0  0  0
  182.7120  178.2820  137.3730 O   0  0  0  0  0  0  0  0  0  0  0  0
  182.5480  178.7490  143.4340 C   0  0  1  0  0  3  0  0  0  0  0  0
  182.6990  178.1630  139.7920 C   0  0  2  0  0  3  0  0  0  0  0  0
  179.9460  180.4360  136.2190 C   0  0  0  0  0  0  0  0  0  0  0  0
  182.2910  178.2910  141.9940 C   0  0  1  0  0  3  0  0  0  0  0  0
  183.2300  178.8820  138.5270 C   0  0  1  0  0  3  0  0  0  0  0  0
  183.8450  179.5560  143.5250 C   0  0  0  0  0  2  0  0  0  0  0  0
  178.9380  181.0120  137.1730 C   0  0  0  0  0  2  0  0  0  0  0  0
  180.9910  178.7050  141.4230 C   0  0  2  0  0  3  0  0  0  0  0  0
  178.9340  179.5710  143.9730 O   0  0  0  0  0  1  0  0  0  0  0  0
  185.6340  178.2750  140.4140 C   0  0  0  0  0  2  0  0  0  0  0  0
  184.9950  178.8420  142.7750 C   0  0  0  0  0  2  0  0  0  0  0  0
  179.8780  178.1510  142.2930 C   0  0  0  0  0  2  0  0  0  0  0  0
  180.6290  179.1220  136.5060 C   0  0  1  0  0  3  0  0  0  0  0  0
  182.1360  179.3310  136.6510 C   0  0  0  0  0  2  0  0  0  0  0  0
  184.5390  178.1580  141.4630 C   0  0  1  0  0  3  0  0  0  0  0  0
  181.1360  178.1980  140.0020 C   0  0  1  0  0  3  0  0  0  0  0  0
  181.3230  179.4610  144.0300 C   0  0  0  0  0  2  0  0  0  0  0  0
  184.7710  178.9570  138.4160 C   0  0  1  0  0  3  0  0  0  0  0  0
  179.8800  177.5350  144.7030 C   0  0  0  0  0  1  0  0  0  0  0  0
  180.0130  178.3980  137.7180 C   0  0  0  0  0  2  0  0  0  0  0  0
  180.2080  181.0410  135.1910 O   0  0  0  0  0  0  0  0  0  0  0  0
  180.2610  179.0670  139.0810 C   0  0  2  0  0  3  0  0  0  0  0  0
  185.4380  179.3900  139.5850 O   0  0  0  0  0  0  0  0  0  0  0  0
  186.6450  178.1730  136.9390 C   0  0  0  0  0  3  0  0  0  0  0  0
  185.4660  177.8700  137.6290 C   0  0  0  0  0  0  0  0  0  0  0  0
  184.9630  176.5610  137.6000 C   0  0  0  0  0  3  0  0  0  0  0  0
  184.9950  173.9370  136.8420 Cl  0  0  0  0  0  0  0  0  0  0  0  0
  186.8050  175.8770  136.1850 C   0  0  0  0  0  3  0  0  0  0  0  0
  185.6300  175.5680  136.8780 C   0  0  0  0  0  0  0  0  0  0  0  0
  187.3120  177.1790  136.2170 C   0  0  0  0  0  3  0  0  0  0  0  0
  178.9330  183.5870  138.3050 C   0  0  0  0  0  1  0  0  0  0  0  0
  180.0610  182.7660  138.3640 O   0  0  0  0  0  0  0  0  0  0  0  0
  1 27  1  0  0  0  0
  2 14  1  0  0  0  0
  2 22  1  0  0  0  0
  2 24  1  1  0  0  0
  3 20  1  0  0  0  0
  3  9  1  0  0  0  0
  4  1  1  0  0  0  0
  5 10  1  0  0  0  0
  6 11  1  0  0  0  0
  6 22  1  0  0  0  0
  7 21  1  0  0  0  0
  7  3  1  0  0  0  0
  8 18  1  0  0  0  0
  8 12  1  0  0  0  0
  9  6  1  0  0  0  0
 10  7  1  0  0  0  0
 12  4  1  0  0  0  0
 13  9  1  0  0  0  0
 13 17  1  0  0  0  0
 15 20  1  0  0  0  0
 16 11  1  0  0  0  0
 17  2  1  0  0  0  0
 18 19  1  0  0  0  0
 18 25  1  0  0  0  0
 19  5  1  0  0  0  0
 20 16  1  0  0  0  0
 21 13  1  0  0  0  0
 23 10  1  0  0  0  0
 23 28  1  0  0  0  0
 25 27  1  0  0  0  0
 26  8  2  0  0  0  0
 27 21  1  0  0  0  0
 28 15  1  0  0  0  0
 29 30  1  0  0  0  0
 30 23  1  0  0  0  0
 31 30  2  0  0  0  0
 32 34  1  0  0  0  0
 33 35  1  0  0  0  0
 33 34  2  0  0  0  0
 34 31  1  0  0  0  0
 35 29  2  0  0  0  0
 36 37  1  0  0  0  0
 37  4  1  0  0  0  0
M  END
>  <MODEL>
3

>  <REMARK>
 VINA RESULT:      -5.7      3.037      7.312
  Name = 
  2 active torsions:
  status: ('A' for Active; 'I' for Inactive)
    1  A    between atoms: C_4  and  O_37
    2  A    between atoms: C_23  and  C_30
                            x       y       z     vdW  Elec       q    Type
                         _______ _______ _______ _____ _____    ______ ____

>  <TORSDO>
F 2

$$$$
=
 OpenBabel11122411253D

 37 43  0  0  1  0  0  0  0  0999 V2000
  185.8640  177.4080  137.1530 C   0  0  0  0  0  2  0  0  0  0  0  0
  181.0430  178.2790  135.7880 C   0  0  1  0  0  0  0  0  0  0  0  0
  183.2650  174.7600  136.6510 N   0  0  1  0  0  0  0  0  0  0  0  0
  186.7110  178.6270  137.5410 C   0  0  2  0  0  3  0  0  0  0  0  0
  186.8130  174.4390  135.5770 O   0  0  0  0  0  0  0  0  0  0  0  0
  181.0140  175.8810  136.7080 C   0  0  1  0  0  3  0  0  0  0  0  0
  184.4360  174.8640  135.7650 C   0  0  2  0  0  3  0  0  0  0  0  0
  188.6950  177.4950  136.4370 C   0  0  0  0  0  0  0  0  0  0  0  0
  182.3680  175.6960  136.0120 C   0  0  1  0  0  3  0  0  0  0  0  0
  185.7290  174.3750  136.4620 C   0  0  1  0  0  3  0  0  0  0  0  0
  180.9020  174.9670  137.9300 C   0  0  0  0  0  2  0  0  0  0  0  0
  188.0030  178.7970  136.7280 C   0  0  0  0  0  2  0  0  0  0  0  0
  183.1710  176.9280  135.8590 C   0  0  2  0  0  3  0  0  0  0  0  0
  181.1160  179.5950  136.2420 O   0  0  0  0  0  1  0  0  0  0  0  0
  183.4630  172.3040  136.9960 C   0  0  0  0  0  2  0  0  0  0  0  0
  181.3510  173.5260  137.5870 C   0  0  0  0  0  2  0  0  0  0  0  0
  182.3690  177.9360  135.0560 C   0  0  0  0  0  2  0  0  0  0  0  0
  188.0860  176.4800  135.5010 C   0  0  1  0  0  3  0  0  0  0  0  0
  187.7840  175.1840  136.2520 C   0  0  0  0  0  2  0  0  0  0  0  0
  182.5640  173.4740  136.6270 C   0  0  1  0  0  3  0  0  0  0  0  0
  184.4440  176.3600  135.2640 C   0  0  1  0  0  3  0  0  0  0  0  0
  180.7250  177.3610  137.0020 C   0  0  0  0  0  2  0  0  0  0  0  0
  185.6480  172.9550  137.0690 C   0  0  1  0  0  3  0  0  0  0  0  0
  179.9080  178.1810  134.7880 C   0  0  0  0  0  1  0  0  0  0  0  0
  186.8540  177.0370  134.7610 C   0  0  0  0  0  2  0  0  0  0  0  0
  189.7720  177.2610  136.9620 O   0  0  0  0  0  0  0  0  0  0  0  0
  185.6150  177.2850  135.6400 C   0  0  2  0  0  3  0  0  0  0  0  0
  184.5010  172.7010  137.8540 O   0  0  0  0  0  0  0  0  0  0  0  0
  185.1830  170.9920  135.5720 C   0  0  0  0  0  3  0  0  0  0  0  0
  186.1250  171.8040  136.2140 C   0  0  0  0  0  0  0  0  0  0  0  0
  187.4940  171.5510  136.0350 C   0  0  0  0  0  3  0  0  0  0  0  0
  189.6210  170.1770  135.0130 Cl  0  0  0  0  0  0  0  0  0  0  0  0
  186.9670  169.6790  134.5940 C   0  0  0  0  0  3  0  0  0  0  0  0
  187.9130  170.4900  135.2290 C   0  0  0  0  0  0  0  0  0  0  0  0
  185.6020  169.9310  134.7650 C   0  0  0  0  0  3  0  0  0  0  0  0
  185.7790  178.6200  139.5480 C   0  0  0  0  0  1  0  0  0  0  0  0
  187.0150  178.5650  138.9010 O   0  0  0  0  0  0  0  0  0  0  0  0
  1  4  1  0  0  0  0
  2 24  1  6  0  0  0
  2 14  1  0  0  0  0
  2 22  1  0  0  0  0
  4 37  1  0  0  0  0
  5 19  1  0  0  0  0
  5 10  1  0  0  0  0
  6 22  1  0  0  0  0
  6 11  1  0  0  0  0
  7 10  1  0  0  0  0
  7  3  1  0  0  0  0
  8 12  1  0  0  0  0
  8 26  2  0  0  0  0
  9  3  1  0  0  0  0
  9  6  1  0  0  0  0
 10 23  1  0  0  0  0
 12  4  1  0  0  0  0
 13  9  1  0  0  0  0
 15 28  1  0  0  0  0
 16 11  1  0  0  0  0
 17  2  1  0  0  0  0
 17 13  1  0  0  0  0
 18 19  1  0  0  0  0
 18  8  1  0  0  0  0
 20  3  1  0  0  0  0
 20 15  1  0  0  0  0
 20 16  1  0  0  0  0
 21 27  1  0  0  0  0
 21  7  1  0  0  0  0
 21 13  1  0  0  0  0
 23 28  1  0  0  0  0
 25 18  1  0  0  0  0
 25 27  1  0  0  0  0
 27  1  1  0  0  0  0
 29 30  1  0  0  0  0
 30 23  1  0  0  0  0
 31 30  2  0  0  0  0
 32 34  1  0  0  0  0
 33 35  1  0  0  0  0
 33 34  2  0  0  0  0
 34 31  1  0  0  0  0
 35 29  2  0  0  0  0
 37 36  1  0  0  0  0
M  END
>  <MODEL>
4

>  <REMARK>
 VINA RESULT:      -4.8      3.751      8.229
  Name = 
  2 active torsions:
  status: ('A' for Active; 'I' for Inactive)
    1  A    between atoms: C_4  and  O_37
    2  A    between atoms: C_23  and  C_30
                            x       y       z     vdW  Elec       q    Type
                         _______ _______ _______ _____ _____    ______ ____

>  <TORSDO>
F 2

$$$$
=
 OpenBabel11122411253D

 37 43  0  0  1  0  0  0  0  0999 V2000
  188.3050  176.7010  140.3980 C   0  0  0  0  0  2  0  0  0  0  0  0
  184.0470  177.3500  137.6940 C   0  0  1  0  0  0  0  0  0  0  0  0
  187.6040  175.1040  137.0850 N   0  0  1  0  0  0  0  0  0  0  0  0
  188.3090  177.2430  141.8340 C   0  0  2  0  0  3  0  0  0  0  0  0
  190.9150  176.4740  138.0890 O   0  0  0  0  0  0  0  0  0  0  0  0
  185.1270  175.2530  136.6760 C   0  0  1  0  0  3  0  0  0  0  0  0
  188.6750  176.1010  137.2450 C   0  0  2  0  0  3  0  0  0  0  0  0
  190.7440  177.8750  141.4980 C   0  0  0  0  0  0  0  0  0  0  0  0
  186.4700  175.9700  136.8550 C   0  0  1  0  0  3  0  0  0  0  0  0
  189.8960  175.5170  137.9980 C   0  0  1  0  0  3  0  0  0  0  0  0
  185.3090  173.7350  136.7350 C   0  0  0  0  0  2  0  0  0  0  0  0
  189.4350  178.2420  142.1400 C   0  0  0  0  0  2  0  0  0  0  0  0
  186.5210  176.9450  137.9660 C   0  0  2  0  0  3  0  0  0  0  0  0
  183.3430  177.7430  138.8310 O   0  0  0  0  0  1  0  0  0  0  0  0
  188.9990  173.4790  135.8180 C   0  0  0  0  0  2  0  0  0  0  0  0
  186.4960  173.2840  135.8510 C   0  0  0  0  0  2  0  0  0  0  0  0
  185.4560  178.0020  137.7360 C   0  0  0  0  0  2  0  0  0  0  0  0
  190.9210  177.9340  140.0020 C   0  0  1  0  0  3  0  0  0  0  0  0
  191.2230  176.5420  139.4500 C   0  0  0  0  0  2  0  0  0  0  0  0
  187.6960  174.2610  135.8910 C   0  0  1  0  0  3  0  0  0  0  0  0
  187.9810  177.3490  137.9170 C   0  0  1  0  0  3  0  0  0  0  0  0
  184.0610  175.7960  137.6400 C   0  0  0  0  0  2  0  0  0  0  0  0
  190.4710  174.2130  137.3990 C   0  0  1  0  0  3  0  0  0  0  0  0
  183.3170  177.8770  136.4730 C   0  0  0  0  0  1  0  0  0  0  0  0
  189.7230  178.6020  139.2990 C   0  0  0  0  0  2  0  0  0  0  0  0
  191.6780  177.5310  142.2040 O   0  0  0  0  0  0  0  0  0  0  0  0
  188.4120  177.7960  139.3250 C   0  0  2  0  0  3  0  0  0  0  0  0
  189.5150  173.2160  137.0970 O   0  0  0  0  0  0  0  0  0  0  0  0
  191.6130  175.3970  135.5000 C   0  0  0  0  0  3  0  0  0  0  0  0
  191.6150  174.3420  136.4190 C   0  0  0  0  0  0  0  0  0  0  0  0
  192.6870  173.4370  136.4330 C   0  0  0  0  0  3  0  0  0  0  0  0
  195.0740  172.4490  135.5460 Cl  0  0  0  0  0  0  0  0  0  0  0  0
  193.7320  174.6360  134.6070 C   0  0  0  0  0  3  0  0  0  0  0  0
  193.7410  173.5830  135.5270 C   0  0  0  0  0  0  0  0  0  0  0  0
  192.6680  175.5430  134.5940 C   0  0  0  0  0  3  0  0  0  0  0  0
  188.2020  176.7530  143.9900 C   0  0  0  0  0  1  0  0  0  0  0  0
  188.3690  176.1750  142.7300 O   0  0  0  0  0  0  0  0  0  0  0  0
  1  4  1  0  0  0  0
  2 24  1  6  0  0  0
  2 17  1  0  0  0  0
  2 14  1  0  0  0  0
  3  7  1  0  0  0  0
  4 12  1  0  0  0  0
  4 37  1  0  0  0  0
  5 19  1  0  0  0  0
  6 11  1  0  0  0  0
  6  9  1  0  0  0  0
  6 22  1  0  0  0  0
  7 21  1  0  0  0  0
  7 10  1  0  0  0  0
  8 12  1  0  0  0  0
  8 26  2  0  0  0  0
  9  3  1  0  0  0  0
  9 13  1  0  0  0  0
 10  5  1  0  0  0  0
 15 20  1  0  0  0  0
 15 28  1  0  0  0  0
 16 20  1  0  0  0  0
 16 11  1  0  0  0  0
 17 13  1  0  0  0  0
 18  8  1  0  0  0  0
 19 18  1  0  0  0  0
 20  3  1  0  0  0  0
 21 13  1  0  0  0  0
 21 27  1  0  0  0  0
 22  2  1  0  0  0  0
 23 10  1  0  0  0  0
 25 27  1  0  0  0  0
 25 18  1  0  0  0  0
 27  1  1  0  0  0  0
 28 23  1  0  0  0  0
 29 30  1  0  0  0  0
 30 31  2  0  0  0  0
 30 23  1  0  0  0  0
 33 34  2  0  0  0  0
 34 32  1  0  0  0  0
 34 31  1  0  0  0  0
 35 33  1  0  0  0  0
 35 29  2  0  0  0  0
 37 36  1  0  0  0  0
M  END
>  <MODEL>
5

>  <REMARK>
 VINA RESULT:      -4.6      4.417      9.416
  Name = 
  2 active torsions:
  status: ('A' for Active; 'I' for Inactive)
    1  A    between atoms: C_4  and  O_37
    2  A    between atoms: C_23  and  C_30
                            x       y       z     vdW  Elec       q    Type
                         _______ _______ _______ _____ _____    ______ ____

>  <TORSDO>
F 2

$$$$
=
 OpenBabel11122411253D

 37 43  0  0  1  0  0  0  0  0999 V2000
  182.5230  179.9540  138.9570 C   0  0  0  0  0  2  0  0  0  0  0  0
  183.6760  179.2430  143.8580 C   0  0  1  0  0  0  0  0  0  0  0  0
  185.7200  178.4650  140.2130 N   0  0  1  0  0  0  0  0  0  0  0  0
  181.2750  180.7930  138.6480 C   0  0  2  0  0  3  0  0  0  0  0  0
  183.8760  177.2420  137.2210 O   0  0  0  0  0  0  0  0  0  0  0  0
  185.9350  179.0630  142.6470 C   0  0  1  0  0  3  0  0  0  0  0  0
  184.7540  177.6690  139.4380 C   0  0  2  0  0  3  0  0  0  0  0  0
  180.8270  179.2500  136.6840 C   0  0  0  0  0  0  0  0  0  0  0  0
  185.1790  178.3110  141.5450 C   0  0  1  0  0  3  0  0  0  0  0  0
  184.7660  178.0510  137.9380 C   0  0  1  0  0  3  0  0  0  0  0  0
  187.1540  179.7880  142.0730 C   0  0  0  0  0  2  0  0  0  0  0  0
  180.2250  180.0870  137.7780 C   0  0  0  0  0  2  0  0  0  0  0  0
  183.7510  178.6670  141.4040 C   0  0  2  0  0  3  0  0  0  0  0  0
  182.7510  180.2080  144.2520 O   0  0  0  0  0  1  0  0  0  0  0  0
  187.7100  177.7340  138.9110 C   0  0  0  0  0  2  0  0  0  0  0  0
  187.9660  178.8540  141.1430 C   0  0  0  0  0  2  0  0  0  0  0  0
  183.0480  178.3920  142.7220 C   0  0  0  0  0  2  0  0  0  0  0  0
  181.6000  177.9940  136.9990 C   0  0  1  0  0  3  0  0  0  0  0  0
  183.0490  178.1360  136.5360 C   0  0  0  0  0  2  0  0  0  0  0  0
  187.0790  177.9230  140.2820 C   0  0  1  0  0  3  0  0  0  0  0  0
  183.3770  177.8460  140.1860 C   0  0  1  0  0  3  0  0  0  0  0  0
  184.9960  179.9650  143.4630 C   0  0  0  0  0  2  0  0  0  0  0  0
  186.1570  178.0040  137.2620 C   0  0  1  0  0  3  0  0  0  0  0  0
  183.9490  178.3320  145.0390 C   0  0  0  0  0  1  0  0  0  0  0  0
  181.4900  177.5990  138.4840 C   0  0  0  0  0  2  0  0  0  0  0  0
  180.6790  179.5920  135.5210 O   0  0  0  0  0  0  0  0  0  0  0  0
  182.2040  178.5400  139.4710 C   0  0  2  0  0  3  0  0  0  0  0  0
  187.1950  178.6450  137.9760 O   0  0  0  0  0  0  0  0  0  0  0  0
  187.0880  176.7990  135.2640 C   0  0  0  0  0  3  0  0  0  0  0  0
  186.5420  176.7280  136.5510 C   0  0  0  0  0  0  0  0  0  0  0  0
  186.3840  175.4770  137.1680 C   0  0  0  0  0  3  0  0  0  0  0  0
  186.5570  172.7530  137.2700 Cl  0  0  0  0  0  0  0  0  0  0  0  0
  187.3000  174.3870  135.2100 C   0  0  0  0  0  3  0  0  0  0  0  0
  186.7600  174.3100  136.4970 C   0  0  0  0  0  0  0  0  0  0  0  0
  187.4650  175.6320  134.5940 C   0  0  0  0  0  3  0  0  0  0  0  0
  180.4850  182.7310  137.9270 C   0  0  0  0  0  1  0  0  0  0  0  0
  181.6620  181.9890  138.0420 O   0  0  0  0  0  0  0  0  0  0  0  0
  1 27  1  0  0  0  0
  2 14  1  0  0  0  0
  2 24  1  1  0  0  0
  3 20  1  0  0  0  0
  3  9  1  0  0  0  0
  4  1  1  0  0  0  0
  5 10  1  0  0  0  0
  6 22  1  0  0  0  0
  7 21  1  0  0  0  0
  7  3  1  0  0  0  0
  8 18  1  0  0  0  0
  8 12  1  0  0  0  0
  9  6  1  0  0  0  0
 10  7  1  0  0  0  0
 11  6  1  0  0  0  0
 12  4  1  0  0  0  0
 13  9  1  0  0  0  0
 13 17  1  0  0  0  0
 15 20  1  0  0  0  0
 16 11  1  0  0  0  0
 17  2  1  0  0  0  0
 18 25  1  0  0  0  0
 19 18  1  0  0  0  0
 19  5  1  0  0  0  0
 20 16  1  0  0  0  0
 21 13  1  0  0  0  0
 22  2  1  0  0  0  0
 23 10  1  0  0  0  0
 23 28  1  0  0  0  0
 25 27  1  0  0  0  0
 26  8  2  0  0  0  0
 27 21  1  0  0  0  0
 28 15  1  0  0  0  0
 29 30  1  0  0  0  0
 30 31  2  0  0  0  0
 30 23  1  0  0  0  0
 33 34  2  0  0  0  0
 34 31  1  0  0  0  0
 34 32  1  0  0  0  0
 35 33  1  0  0  0  0
 35 29  2  0  0  0  0
 36 37  1  0  0  0  0
 37  4  1  0  0  0  0
M  END
>  <MODEL>
6

>  <REMARK>
 VINA RESULT:      -4.5      3.061      6.813
  Name = 
  2 active torsions:
  status: ('A' for Active; 'I' for Inactive)
    1  A    between atoms: C_4  and  O_37
    2  A    between atoms: C_23  and  C_30
                            x       y       z     vdW  Elec       q    Type
                         _______ _______ _______ _____ _____    ______ ____

>  <TORSDO>
F 2

$$$$
=
 OpenBabel11122411253D

 37 43  0  0  1  0  0  0  0  0999 V2000
  187.8660  177.1120  140.9690 C   0  0  0  0  0  2  0  0  0  0  0  0
  183.5520  178.5260  138.6770 C   0  0  1  0  0  0  0  0  0  0  0  0
  186.7700  175.9770  137.5740 N   0  0  1  0  0  0  0  0  0  0  0  0
  188.0270  177.4880  142.4480 C   0  0  2  0  0  3  0  0  0  0  0  0
  190.2780  176.8500  138.4570 O   0  0  0  0  0  0  0  0  0  0  0  0
  184.3070  176.4460  137.3720 C   0  0  1  0  0  3  0  0  0  0  0  0
  187.9600  176.8240  137.7530 C   0  0  2  0  0  3  0  0  0  0  0  0
  190.4930  177.8780  141.9940 C   0  0  0  0  0  0  0  0  0  0  0  0
  185.7350  176.9850  137.5200 C   0  0  1  0  0  3  0  0  0  0  0  0
  189.1480  176.0290  138.3470 C   0  0  1  0  0  3  0  0  0  0  0  0
  184.3100  174.9200  137.2630 C   0  0  0  0  0  2  0  0  0  0  0  0
  189.2810  178.3160  142.7680 C   0  0  0  0  0  2  0  0  0  0  0  0
  185.9730  177.8190  138.7180 C   0  0  2  0  0  3  0  0  0  0  0  0
  182.9740  178.8680  139.8980 O   0  0  0  0  0  1  0  0  0  0  0  0
  187.8770  174.3560  136.0460 C   0  0  0  0  0  2  0  0  0  0  0  0
  185.3760  174.4390  136.2490 C   0  0  0  0  0  2  0  0  0  0  0  0
  185.0290  179.0070  138.6790 C   0  0  0  0  0  2  0  0  0  0  0  0
  190.5800  178.0810  140.5020 C   0  0  1  0  0  3  0  0  0  0  0  0
  190.6780  176.7330  139.7900 C   0  0  0  0  0  2  0  0  0  0  0  0
  186.6840  175.2650  136.2970 C   0  0  1  0  0  3  0  0  0  0  0  0
  187.4640  178.0610  138.5980 C   0  0  1  0  0  3  0  0  0  0  0  0
  183.3780  176.9950  138.4650 C   0  0  0  0  0  2  0  0  0  0  0  0
  189.5240  174.7420  137.5760 C   0  0  1  0  0  3  0  0  0  0  0  0
  182.8140  179.2620  137.5760 C   0  0  0  0  0  1  0  0  0  0  0  0
  189.4280  178.9520  139.9650 C   0  0  0  0  0  2  0  0  0  0  0  0
  191.4230  177.3560  142.5880 O   0  0  0  0  0  0  0  0  0  0  0  0
  188.0350  178.3000  140.0080 C   0  0  2  0  0  3  0  0  0  0  0  0
  188.4390  173.8980  137.2480 O   0  0  0  0  0  0  0  0  0  0  0  0
  190.5380  175.8650  135.5700 C   0  0  0  0  0  3  0  0  0  0  0  0
  190.6100  174.8490  136.5300 C   0  0  0  0  0  0  0  0  0  0  0  0
  191.6990  173.9640  136.5220 C   0  0  0  0  0  3  0  0  0  0  0  0
  194.0520  172.9800  135.5460 Cl  0  0  0  0  0  0  0  0  0  0  0  0
  192.6190  175.1030  134.5940 C   0  0  0  0  0  3  0  0  0  0  0  0
  192.6990  174.0900  135.5540 C   0  0  0  0  0  0  0  0  0  0  0  0
  191.5390  175.9910  134.6030 C   0  0  0  0  0  3  0  0  0  0  0  0
  188.3150  176.7590  144.5180 C   0  0  0  0  0  1  0  0  0  0  0  0
  188.0160  176.3290  143.2240 O   0  0  0  0  0  0  0  0  0  0  0  0
  1  4  1  0  0  0  0
  2 24  1  6  0  0  0
  2 17  1  0  0  0  0
  2 14  1  0  0  0  0
  3  7  1  0  0  0  0
  4 12  1  0  0  0  0
  4 37  1  0  0  0  0
  5 19  1  0  0  0  0
  6  9  1  0  0  0  0
  6 22  1  0  0  0  0
  7 10  1  0  0  0  0
  7 21  1  0  0  0  0
  8 26  2  0  0  0  0
  8 12  1  0  0  0  0
  9  3  1  0  0  0  0
  9 13  1  0  0  0  0
 10  5  1  0  0  0  0
 11  6  1  0  0  0  0
 15 20  1  0  0  0  0
 15 28  1  0  0  0  0
 16 20  1  0  0  0  0
 16 11  1  0  0  0  0
 17 13  1  0  0  0  0
 18  8  1  0  0  0  0
 19 18  1  0  0  0  0
 20  3  1  0  0  0  0
 21 13  1  0  0  0  0
 21 27  1  0  0  0  0
 22  2  1  0  0  0  0
 23 10  1  0  0  0  0
 25 27  1  0  0  0  0
 25 18  1  0  0  0  0
 27  1  1  0  0  0  0
 28 23  1  0  0  0  0
 29 30  1  0  0  0  0
 30 23  1  0  0  0  0
 31 30  2  0  0  0  0
 32 34  1  0  0  0  0
 33 35  1  0  0  0  0
 33 34  2  0  0  0  0
 34 31  1  0  0  0  0
 35 29  2  0  0  0  0
 37 36  1  0  0  0  0
M  END
>  <MODEL>
7

>  <REMARK>
 VINA RESULT:      -4.2      3.988      8.970
  Name = 
  2 active torsions:
  status: ('A' for Active; 'I' for Inactive)
    1  A    between atoms: C_4  and  O_37
    2  A    between atoms: C_23  and  C_30
                            x       y       z     vdW  Elec       q    Type
                         _______ _______ _______ _____ _____    ______ ____

>  <TORSDO>
F 2

$$$$
=
 OpenBabel11122411253D

 37 43  0  0  1  0  0  0  0  0999 V2000
  189.0390  176.4990  140.3410 C   0  0  0  0  0  2  0  0  0  0  0  0
  185.4460  176.9740  136.7730 C   0  0  1  0  0  0  0  0  0  0  0  0
  189.2440  175.0680  136.8870 N   0  0  1  0  0  0  0  0  0  0  0  0
  188.6730  176.9460  141.7630 C   0  0  2  0  0  3  0  0  0  0  0  0
  192.1060  176.6350  138.6760 O   0  0  0  0  0  0  0  0  0  0  0  0
  186.9170  175.0410  135.9340 C   0  0  1  0  0  3  0  0  0  0  0  0
  190.1540  176.1360  137.3310 C   0  0  2  0  0  3  0  0  0  0  0  0
  191.0520  177.7940  142.0170 C   0  0  0  0  0  0  0  0  0  0  0  0
  188.1130  175.8520  136.4450 C   0  0  1  0  0  3  0  0  0  0  0  0
  191.2270  175.6060  138.3140 C   0  0  1  0  0  3  0  0  0  0  0  0
  187.2220  173.5430  135.9650 C   0  0  0  0  0  2  0  0  0  0  0  0
  189.6040  178.0110  142.3610 C   0  0  0  0  0  2  0  0  0  0  0  0
  187.8250  176.7540  137.5810 C   0  0  2  0  0  3  0  0  0  0  0  0
  184.4740  177.2340  137.7370 O   0  0  0  0  0  1  0  0  0  0  0  0
  191.0310  173.6470  135.8990 C   0  0  0  0  0  2  0  0  0  0  0  0
  188.6130  173.2470  135.3540 C   0  0  0  0  0  2  0  0  0  0  0  0
  186.7430  177.7330  137.1630 C   0  0  0  0  0  2  0  0  0  0  0  0
  191.5510  177.9640  140.6040 C   0  0  1  0  0  3  0  0  0  0  0  0
  192.0970  176.6400  140.0740 C   0  0  0  0  0  2  0  0  0  0  0  0
  189.6770  174.3140  135.7090 C   0  0  1  0  0  3  0  0  0  0  0  0
  189.2150  177.2780  137.8820 C   0  0  1  0  0  3  0  0  0  0  0  0
  185.6180  175.4320  136.6550 C   0  0  0  0  0  2  0  0  0  0  0  0
  192.0400  174.3940  137.8030 C   0  0  1  0  0  3  0  0  0  0  0  0
  184.9590  177.5170  135.4440 C   0  0  0  0  0  1  0  0  0  0  0  0
  190.4820  178.5770  139.6790 C   0  0  0  0  0  2  0  0  0  0  0  0
  191.8340  177.4820  142.9010 O   0  0  0  0  0  0  0  0  0  0  0  0
  189.2790  177.6670  139.3700 C   0  0  2  0  0  3  0  0  0  0  0  0
  191.2730  173.3450  137.2480 O   0  0  0  0  0  0  0  0  0  0  0  0
  194.4290  173.8010  137.3010 C   0  0  0  0  0  3  0  0  0  0  0  0
  193.3560  174.6790  137.1150 C   0  0  0  0  0  0  0  0  0  0  0  0
  193.5090  175.7920  136.2760 C   0  0  0  0  0  3  0  0  0  0  0  0
  194.9170  177.4220  134.5960 Cl  0  0  0  0  0  0  0  0  0  0  0  0
  195.8010  175.1510  135.8320 C   0  0  0  0  0  3  0  0  0  0  0  0
  194.7300  176.0290  135.6380 C   0  0  0  0  0  0  0  0  0  0  0  0
  195.6500  174.0370  136.6630 C   0  0  0  0  0  3  0  0  0  0  0  0
  188.2740  176.3340  143.8530 C   0  0  0  0  0  1  0  0  0  0  0  0
  188.6330  175.8310  142.6010 O   0  0  0  0  0  0  0  0  0  0  0  0
  1  4  1  0  0  0  0
  2 24  1  6  0  0  0
  2 17  1  0  0  0  0
  2 14  1  0  0  0  0
  3  7  1  0  0  0  0
  4 12  1  0  0  0  0
  4 37  1  0  0  0  0
  5 19  1  0  0  0  0
  6 11  1  0  0  0  0
  6  9  1  0  0  0  0
  6 22  1  0  0  0  0
  7 21  1  0  0  0  0
  7 10  1  0  0  0  0
  8 12  1  0  0  0  0
  8 26  2  0  0  0  0
  9  3  1  0  0  0  0
  9 13  1  0  0  0  0
 10  5  1  0  0  0  0
 13 21  1  0  0  0  0
 15 28  1  0  0  0  0
 16 20  1  0  0  0  0
 16 11  1  0  0  0  0
 17 13  1  0  0  0  0
 18  8  1  0  0  0  0
 19 18  1  0  0  0  0
 20 15  1  0  0  0  0
 20  3  1  0  0  0  0
 21 27  1  0  0  0  0
 22  2  1  0  0  0  0
 23 10  1  0  0  0  0
 25 18  1  0  0  0  0
 27 25  1  0  0  0  0
 27  1  1  0  0  0  0
 28 23  1  0  0  0  0
 30 29  1  0  0  0  0
 30 23  1  0  0  0  0
 31 30  2  0  0  0  0
 32 34  1  0  0  0  0
 33 35  1  0  0  0  0
 34 33  2  0  0  0  0
 34 31  1  0  0  0  0
 35 29  2  0  0  0  0
 37 36  1  0  0  0  0
M  END
>  <MODEL>
8

>  <REMARK>
 VINA RESULT:      -4.1      4.879      9.894
  Name = 
  2 active torsions:
  status: ('A' for Active; 'I' for Inactive)
    1  A    between atoms: C_4  and  O_37
    2  A    between atoms: C_23  and  C_30
                            x       y       z     vdW  Elec       q    Type
                         _______ _______ _______ _____ _____    ______ ____

>  <TORSDO>
F 2

$$$$
=
 OpenBabel11122411253D

 37 43  0  0  1  0  0  0  0  0999 V2000
  181.0680  179.0130  140.1750 C   0  0  0  0  0  2  0  0  0  0  0  0
  179.7560  181.7330  136.0840 C   0  0  1  0  0  0  0  0  0  0  0  0
  181.2510  177.7930  136.6400 N   0  0  1  0  0  0  0  0  0  0  0  0
  180.6990  179.5940  141.5470 C   0  0  2  0  0  3  0  0  0  0  0  0
  183.8220  177.0820  139.2340 O   0  0  0  0  0  0  0  0  0  0  0  0
  179.8170  179.3090  135.2360 C   0  0  1  0  0  3  0  0  0  0  0  0
  182.4660  177.9940  137.4460 C   0  0  2  0  0  3  0  0  0  0  0  0
  182.8850  178.6590  142.4360 C   0  0  0  0  0  0  0  0  0  0  0  0
  181.0560  179.1280  136.1200 C   0  0  1  0  0  3  0  0  0  0  0  0
  182.6330  176.8910  138.5200 C   0  0  1  0  0  3  0  0  0  0  0  0
  179.0750  177.9820  135.0610 C   0  0  0  0  0  2  0  0  0  0  0  0
  181.8850  179.7800  142.5060 C   0  0  0  0  0  2  0  0  0  0  0  0
  181.1110  179.9980  137.3150 C   0  0  2  0  0  3  0  0  0  0  0  0
  178.9570  182.5740  136.8550 O   0  0  0  0  0  1  0  0  0  0  0  0
  181.9060  175.5430  135.8050 C   0  0  0  0  0  2  0  0  0  0  0  0
  180.0570  176.8390  134.7090 C   0  0  0  0  0  2  0  0  0  0  0  0
  181.0680  181.4470  136.8630 C   0  0  0  0  0  2  0  0  0  0  0  0
  183.7400  178.4530  141.2110 C   0  0  1  0  0  3  0  0  0  0  0  0
  183.4360  177.0960  140.5770 C   0  0  0  0  0  2  0  0  0  0  0  0
  181.4060  176.9380  135.4610 C   0  0  1  0  0  3  0  0  0  0  0  0
  182.3640  179.4730  137.9860 C   0  0  1  0  0  3  0  0  0  0  0  0
  178.9310  180.4630  135.7300 C   0  0  0  0  0  2  0  0  0  0  0  0
  182.5880  175.4420  137.9800 C   0  0  1  0  0  3  0  0  0  0  0  0
  180.1140  182.4590  134.8010 C   0  0  0  0  0  1  0  0  0  0  0  0
  183.6120  179.6160  140.2090 C   0  0  0  0  0  2  0  0  0  0  0  0
  183.0090  177.9100  143.3920 O   0  0  0  0  0  0  0  0  0  0  0  0
  182.2500  179.7280  139.5000 C   0  0  2  0  0  3  0  0  0  0  0  0
  181.5190  175.1600  137.0990 O   0  0  0  0  0  0  0  0  0  0  0  0
  184.0700  173.4160  137.8850 C   0  0  0  0  0  3  0  0  0  0  0  0
  183.9060  174.7840  137.6420 C   0  0  0  0  0  0  0  0  0  0  0  0
  184.9560  175.5160  137.0670 C   0  0  0  0  0  3  0  0  0  0  0  0
  187.4690  175.8040  136.0370 Cl  0  0  0  0  0  0  0  0  0  0  0  0
  186.3210  173.5180  136.9990 C   0  0  0  0  0  3  0  0  0  0  0  0
  186.1610  174.8850  136.7490 C   0  0  0  0  0  0  0  0  0  0  0  0
  185.2750  172.7840  137.5660 C   0  0  0  0  0  3  0  0  0  0  0  0
  179.7320  177.6090  141.3950 C   0  0  0  0  0  1  0  0  0  0  0  0
  179.7310  178.7860  142.1450 O   0  0  0  0  0  0  0  0  0  0  0  0
  1  4  1  0  0  0  0
  2 24  1  6  0  0  0
  2 14  1  0  0  0  0
  2 17  1  0  0  0  0
  3  7  1  0  0  0  0
  4 37  1  0  0  0  0
  4 12  1  0  0  0  0
  5 19  1  0  0  0  0
  6 22  1  0  0  0  0
  6  9  1  0  0  0  0
  7 21  1  0  0  0  0
  7 10  1  0  0  0  0
  8 12  1  0  0  0  0
  8 26  2  0  0  0  0
  9  3  1  0  0  0  0
  9 13  1  0  0  0  0
 10  5  1  0  0  0  0
 11  6  1  0  0  0  0
 13 21  1  0  0  0  0
 15 28  1  0  0  0  0
 16 11  1  0  0  0  0
 16 20  1  0  0  0  0
 17 13  1  0  0  0  0
 18  8  1  0  0  0  0
 19 18  1  0  0  0  0
 20 15  1  0  0  0  0
 20  3  1  0  0  0  0
 21 27  1  0  0  0  0
 22  2  1  0  0  0  0
 23 10  1  0  0  0  0
 25 18  1  0  0  0  0
 27  1  1  0  0  0  0
 27 25  1  0  0  0  0
 28 23  1  0  0  0  0
 30 29  1  0  0  0  0
 30 23  1  0  0  0  0
 31 30  2  0  0  0  0
 32 34  1  0  0  0  0
 33 35  1  0  0  0  0
 34 33  2  0  0  0  0
 34 31  1  0  0  0  0
 35 29  2  0  0  0  0
 36 37  1  0  0  0  0
M  END
>  <MODEL>
9

>  <REMARK>
 VINA RESULT:      -4.0      3.096      7.574
  Name = 
  2 active torsions:
  status: ('A' for Active; 'I' for Inactive)
    1  A    between atoms: C_4  and  O_37
    2  A    between atoms: C_23  and  C_30
                            x       y       z     vdW  Elec       q    Type
                         _______ _______ _______ _____ _____    ______ ____

>  <TORSDO>
F 2

$$$$
